0:0
     RDKit          3D

 39 41  0  0  0  0  0  0  0  0999 V2000
   55.1460   26.6790   45.9930 O   0  0  0  0  0  0  0  0  0  0  0  0
   56.1390   25.9870   46.3430 C   0  0  0  0  0  0  0  0  0  0  0  0
   55.9240   24.6350   46.7660 N   0  0  0  0  0  0  0  0  0  0  0  0
   56.5430   23.4700   46.2020 C   0  0  0  0  0  0  0  0  0  0  0  0
   55.8010   22.2870   46.1160 C   0  0  0  0  0  0  0  0  0  0  0  0
   56.3780   21.1280   45.5940 C   0  0  0  0  0  0  0  0  0  0  0  0
   57.7070   21.1370   45.1660 C   0  0  0  0  0  0  0  0  0  0  0  0
   58.4810   22.3070   45.2670 C   0  0  0  0  0  0  0  0  0  0  0  0
   59.8550   22.3100   44.8420 N   0  0  0  0  0  0  0  0  0  0  0  0
   60.7490   22.7800   45.5770 O   0  0  0  0  0  0  0  0  0  0  0  0
   60.2090   21.8000   43.6130 O   0  0  0  0  0  0  0  0  0  0  0  0
   57.8900   23.4710   45.7970 C   0  0  0  0  0  0  0  0  0  0  0  0
   57.4690   26.5140   46.2200 N   0  0  0  0  0  0  0  0  0  0  0  0
   57.7740   27.9180   46.1630 C   0  0  0  0  0  0  0  0  0  0  0  0
   57.2550   28.6940   45.1170 C   0  0  0  0  0  0  0  0  0  0  0  0
   57.5540   30.0550   45.0250 C   0  0  0  0  0  0  0  0  0  0  0  0
   58.3960   30.6670   45.9700 C   0  0  0  0  0  0  0  0  0  0  0  0
   58.7170   32.1140   45.8720 C   0  0  0  0  0  0  0  0  0  0  0  0
   58.0340   32.9380   44.9570 C   0  0  0  0  0  0  0  0  0  0  0  0
   58.3380   34.3000   44.8660 C   0  0  0  0  0  0  0  0  0  0  0  0
   59.3250   34.8540   45.6850 C   0  0  0  0  0  0  0  0  0  0  0  0
   60.0100   34.0470   46.5960 C   0  0  0  0  0  0  0  0  0  0  0  0
   59.7080   32.6850   46.6910 C   0  0  0  0  0  0  0  0  0  0  0  0
   58.9360   29.8830   47.0060 C   0  0  0  0  0  0  0  0  0  0  0  0
   58.6320   28.5220   47.0980 C   0  0  0  0  0  0  0  0  0  0  0  0
   54.7569   22.2701   46.4617 H   0  0  0  0  0  0  0  0  0  0  0  0
   55.7840   20.2051   45.5197 H   0  0  0  0  0  0  0  0  0  0  0  0
   58.1519   20.2225   44.7468 H   0  0  0  0  0  0  0  0  0  0  0  0
   58.4877   24.3893   45.8950 H   0  0  0  0  0  0  0  0  0  0  0  0
   58.2500   25.8340   46.0820 H   0  0  0  0  0  0  0  0  0  0  0  0
   56.6062   28.2264   44.3617 H   0  0  0  0  0  0  0  0  0  0  0  0
   57.1272   30.6531   44.2064 H   0  0  0  0  0  0  0  0  0  0  0  0
   57.2560   32.5075   44.3094 H   0  0  0  0  0  0  0  0  0  0  0  0
   57.7991   34.9361   44.1484 H   0  0  0  0  0  0  0  0  0  0  0  0
   59.5625   35.9256   45.6123 H   0  0  0  0  0  0  0  0  0  0  0  0
   60.7881   34.4833   47.2396 H   0  0  0  0  0  0  0  0  0  0  0  0
   60.2497   32.0550   47.4119 H   0  0  0  0  0  0  0  0  0  0  0  0
   59.6026   30.3448   47.7493 H   0  0  0  0  0  0  0  0  0  0  0  0
   59.0676   27.9190   47.9083 H   0  0  0  0  0  0  0  0  0  0  0  0
  1  2  2  0
  2  3  1  0
  3  4  1  0
  4  5  2  0
  5  6  1  0
  6  7  2  0
  7  8  1  0
  8  9  1  0
  9 10  2  0
  9 11  1  0
  8 12  2  0
  2 13  1  0
 13 14  1  0
 14 15  2  0
 15 16  1  0
 16 17  2  0
 17 18  1  0
 18 19  2  0
 19 20  1  0
 20 21  2  0
 21 22  1  0
 22 23  2  0
 17 24  1  0
 24 25  2  0
 12  4  1  0
 25 14  1  0
 23 18  1  0
  5 26  1  0
  6 27  1  0
  7 28  1  0
 12 29  1  0
 13 30  1  0
 15 31  1  0
 16 32  1  0
 19 33  1  0
 20 34  1  0
 21 35  1  0
 22 36  1  0
 23 37  1  0
 24 38  1  0
 25 39  1  0
M  CHG  3   3  -1   9   1  11  -1
M  END
>  <UniqueID>  (1) 
1

>  <SMILES>  (1) 
O=C([N-]c1cccc([N+](=O)[O-])c1)Nc1ccc(-c2ccccc2)cc1

>  <Energy>  (1) 
55.22096496613185

>  <Genealogy>  (1) 
O=C([N-]c1cccc([N+](=O)[O-])c1)Nc1ccc(-c2ccccc2)cc1 (protonated)
O=C([N-]c1cccc([N+](=O)[O-])c1)Nc1ccc(-c2ccccc2)cc1 (3D coordinates assigned)
O=C([N-]c1cccc([N+](=O)[O-])c1)Nc1ccc(-c2ccccc2)cc1 (optimized conformer: 55.22096496613185 kcal/mol)

>  <smiles>  (1) 
O=C(Nc1ccc(-c2ccccc2)cc1)Nc1cccc([N+](=O)[O-])c1

>  <score_type>  (1) 
oracle

>  <origin>  (1) 
adg

>  <m_score__min__energy>  (1) 
-10.300000000000001

>  <m_primary>  (1) 
energy

$$$$
1:0
     RDKit          3D

 64 67  0  0  0  0  0  0  0  0999 V2000
   53.7220   30.7960   51.5800 C   0  0  0  0  0  0  0  0  0  0  0  0
   54.8850   30.3330   52.4600 C   0  0  0  0  0  0  0  0  0  0  0  0
   56.0150   31.3700   52.5360 C   0  0  0  0  0  0  0  0  0  0  0  0
   57.1550   31.0100   51.6220 C   0  0  0  0  0  0  0  0  0  0  0  0
   57.7650   31.9820   50.8140 C   0  0  0  0  0  0  0  0  0  0  0  0
   58.8530   31.6230   50.0090 C   0  0  0  0  0  0  0  0  0  0  0  0
   59.3300   30.3050   50.0300 C   0  0  0  0  0  0  0  0  0  0  0  0
   60.5000   29.8930   49.1790 C   0  0  0  0  0  0  0  0  0  0  0  0
   60.1110   28.8530   48.2110 N   0  0  0  0  0  0  0  0  0  0  0  0
   60.1200   27.4390   48.6640 C   0  0  0  0  0  0  0  0  0  0  0  0
   59.8170   26.4310   47.5430 C   0  0  0  0  0  0  0  0  0  0  0  0
   60.7810   26.8530   46.0570 S   0  0  0  0  0  0  0  0  0  0  0  0
   59.8310   28.3490   45.8160 C   0  0  0  0  0  0  0  0  0  0  0  0
   59.2740   28.6280   44.5650 C   0  0  0  0  0  0  0  0  0  0  0  0
   58.5290   29.7910   44.3720 C   0  0  0  0  0  0  0  0  0  0  0  0
   58.3180   30.6850   45.4350 C   0  0  0  0  0  0  0  0  0  0  0  0
   57.5420   31.9350   45.2490 C   0  0  0  0  0  0  0  0  0  0  0  0
   56.3420   31.8550   44.8620 O   0  0  0  0  0  0  0  0  0  0  0  0
   58.1240   33.2360   45.5230 N   0  0  1  0  0  0  0  0  0  0  0  0
   57.2840   34.2750   44.8950 C   0  0  0  0  0  0  0  0  0  0  0  0
   58.2500   33.4450   46.9950 C   0  0  0  0  0  0  0  0  0  0  0  0
   59.2350   34.5730   47.3590 C   0  0  0  0  0  0  0  0  0  0  0  0
   60.6280   34.0580   47.6090 C   0  0  0  0  0  0  0  0  0  0  0  0
   61.5000   33.8180   46.5320 C   0  0  0  0  0  0  0  0  0  0  0  0
   62.8100   33.3940   46.7690 C   0  0  0  0  0  0  0  0  0  0  0  0
   63.2630   33.2170   48.0790 C   0  0  0  0  0  0  0  0  0  0  0  0
   62.4050   33.4520   49.1540 C   0  0  0  0  0  0  0  0  0  0  0  0
   61.0920   33.8700   48.9260 C   0  0  0  0  0  0  0  0  0  0  0  0
   58.8300   30.3700   46.7070 C   0  0  0  0  0  0  0  0  0  0  0  0
   59.6060   29.2110   46.9050 C   0  0  0  0  0  0  0  0  0  0  0  0
   58.6860   29.3630   50.8460 C   0  0  0  0  0  0  0  0  0  0  0  0
   57.6290   29.7330   51.6180 N   0  0  0  0  0  0  0  0  0  0  0  0
   52.8892   31.1276   52.2176 H   0  0  0  0  0  0  0  0  0  0  0  0
   54.0526   31.6311   50.9449 H   0  0  0  0  0  0  0  0  0  0  0  0
   53.3882   29.9622   50.9449 H   0  0  0  0  0  0  0  0  0  0  0  0
   54.5066   30.1487   53.4763 H   0  0  0  0  0  0  0  0  0  0  0  0
   55.3004   29.4189   52.0107 H   0  0  0  0  0  0  0  0  0  0  0  0
   55.6184   32.3532   52.2428 H   0  0  0  0  0  0  0  0  0  0  0  0
   56.3939   31.3931   53.5684 H   0  0  0  0  0  0  0  0  0  0  0  0
   57.3917   33.0167   50.8131 H   0  0  0  0  0  0  0  0  0  0  0  0
   59.3319   32.3728   49.3622 H   0  0  0  0  0  0  0  0  0  0  0  0
   60.8735   30.7713   48.6321 H   0  0  0  0  0  0  0  0  0  0  0  0
   61.2828   29.4847   49.8351 H   0  0  0  0  0  0  0  0  0  0  0  0
   61.1144   27.2122   49.0760 H   0  0  0  0  0  0  0  0  0  0  0  0
   59.3224   27.3359   49.4145 H   0  0  0  0  0  0  0  0  0  0  0  0
   60.0878   25.4191   47.8788 H   0  0  0  0  0  0  0  0  0  0  0  0
   58.7442   26.4670   47.3024 H   0  0  0  0  0  0  0  0  0  0  0  0
   59.4237   27.9280   43.7298 H   0  0  0  0  0  0  0  0  0  0  0  0
   58.1039   30.0097   43.3813 H   0  0  0  0  0  0  0  0  0  0  0  0
   59.0720   33.2890   45.0830 H   0  0  0  0  0  0  0  0  0  0  0  0
   56.7980   34.8761   45.6776 H   0  0  0  0  0  0  0  0  0  0  0  0
   57.9125   34.9262   44.2697 H   0  0  0  0  0  0  0  0  0  0  0  0
   56.5156   33.7969   44.2697 H   0  0  0  0  0  0  0  0  0  0  0  0
   57.2593   33.7003   47.3992 H   0  0  0  0  0  0  0  0  0  0  0  0
   58.6414   32.5127   47.4282 H   0  0  0  0  0  0  0  0  0  0  0  0
   59.2684   35.2946   46.5294 H   0  0  0  0  0  0  0  0  0  0  0  0
   58.8790   35.0436   48.2873 H   0  0  0  0  0  0  0  0  0  0  0  0
   61.1495   33.9646   45.4997 H   0  0  0  0  0  0  0  0  0  0  0  0
   63.4857   33.1992   45.9232 H   0  0  0  0  0  0  0  0  0  0  0  0
   64.2976   32.8919   48.2631 H   0  0  0  0  0  0  0  0  0  0  0  0
   62.7637   33.3077   50.1838 H   0  0  0  0  0  0  0  0  0  0  0  0
   60.4187   34.0528   49.7765 H   0  0  0  0  0  0  0  0  0  0  0  0
   58.6219   31.0365   47.5570 H   0  0  0  0  0  0  0  0  0  0  0  0
   59.0373   28.3207   50.8616 H   0  0  0  0  0  0  0  0  0  0  0  0
  1  2  1  0
  2  3  1  0
  3  4  1  0
  4  5  2  0
  5  6  1  0
  6  7  2  0
  7  8  1  0
  8  9  1  0
  9 10  1  0
 10 11  1  0
 11 12  1  0
 12 13  1  0
 13 14  2  0
 14 15  1  0
 15 16  2  0
 16 17  1  0
 17 18  2  0
 17 19  1  0
 19 20  1  0
 19 21  1  0
 21 22  1  0
 22 23  1  0
 23 24  2  0
 24 25  1  0
 25 26  2  0
 26 27  1  0
 27 28  2  0
 16 29  1  0
 29 30  2  0
  7 31  1  0
 31 32  2  0
 32  4  1  0
 30  9  1  0
 30 13  1  0
 28 23  1  0
  1 33  1  0
  1 34  1  0
  1 35  1  0
  2 36  1  0
  2 37  1  0
  3 38  1  0
  3 39  1  0
  5 40  1  0
  6 41  1  0
  8 42  1  0
  8 43  1  0
 10 44  1  0
 10 45  1  0
 11 46  1  0
 11 47  1  0
 14 48  1  0
 15 49  1  0
 19 50  1  6
 20 51  1  0
 20 52  1  0
 20 53  1  0
 21 54  1  0
 21 55  1  0
 22 56  1  0
 22 57  1  0
 24 58  1  0
 25 59  1  0
 26 60  1  0
 27 61  1  0
 28 62  1  0
 29 63  1  0
 31 64  1  0
M  CHG  1  19   1
M  END
>  <UniqueID>  (2) 
2

>  <SMILES>  (2) 
CCCc1ccc(CN2CCSc3ccc(C(=O)[N@@H+](C)CCc4ccccc4)cc32)cn1

>  <Energy>  (2) 
75.73928071266697

>  <Genealogy>  (2) 
CCCc1ccc(CN2CCSc3ccc(C(=O)[NH+](C)CCc4ccccc4)cc32)cn1 (protonated)
CCCc1ccc(CN2CCSc3ccc(C(=O)[N@@H+](C)CCc4ccccc4)cc32)cn1 (chirality)
CCCc1ccc(CN2CCSc3ccc(C(=O)[N@@H+](C)CCc4ccccc4)cc32)cn1 (3D coordinates assigned)
CCCc1ccc(CN2CCSc3ccc(C(=O)[N@@H+](C)CCc4ccccc4)cc32)cn1 (nonaromatic ring conformer: 75.73928071266697 kcal/mol)

>  <smiles>  (2) 
CCCc1ccc(CN2CCSc3ccc(C(=O)N(C)CCc4ccccc4)cc32)cn1

>  <score_type>  (2) 
oracle

>  <origin>  (2) 
adg

>  <m_score__min__energy>  (2) 
-8.1500000000000004

>  <m_primary>  (2) 
energy

$$$$
2:0
     RDKit          3D

 54 56  0  0  1  0  0  0  0  0999 V2000
   56.6230   29.8440   42.7180 C   0  0  0  0  0  0  0  0  0  0  0  0
   56.6640   30.0120   44.4800 S   0  0  0  0  0  0  0  0  0  0  0  0
   55.5080   29.3030   45.0890 O   0  0  0  0  0  0  0  0  0  0  0  0
   56.6450   31.4840   44.8410 O   0  0  0  0  0  0  0  0  0  0  0  0
   58.1400   29.3330   45.1280 C   0  0  0  0  0  0  0  0  0  0  0  0
   59.1490   28.8450   44.3150 C   0  0  0  0  0  0  0  0  0  0  0  0
   60.3050   28.3140   44.8890 C   0  0  0  0  0  0  0  0  0  0  0  0
   57.7610   33.8880   47.0320 C   0  0  0  0  0  0  0  0  0  0  0  0
   59.0480   33.6190   47.4870 C   0  0  0  0  0  0  0  0  0  0  0  0
   59.4890   28.7640   48.4910 N   0  0  0  0  0  0  0  0  0  0  0  0
   59.1550   29.8430   49.1470 C   0  0  0  0  0  0  0  0  0  0  0  0
   58.5820   29.7410   50.3670 N   0  0  0  0  0  0  0  0  0  0  0  0
   58.2140   30.8090   51.0960 C   0  0  0  0  0  0  0  0  0  0  0  0
   58.4310   32.0660   50.5720 C   0  0  0  0  0  0  0  0  0  0  0  0
   59.0230   32.1760   49.3130 C   0  0  0  0  0  0  0  0  0  0  0  0
   59.1990   33.3790   48.8800 N   0  0  0  0  0  0  0  0  0  0  0  0
   59.4260   28.7670   47.0690 C   0  0  0  0  0  0  0  0  0  0  0  0
   60.4480   28.2730   46.2750 C   0  0  0  0  0  0  0  0  0  0  0  0
   57.5450   34.1330   45.6780 C   0  0  0  0  0  0  0  0  0  0  0  0
   58.5980   34.1110   44.7750 C   0  0  0  0  0  0  0  0  0  0  0  0
   59.8660   33.8400   45.2650 C   0  0  0  0  0  0  0  0  0  0  0  0
   60.1070   33.5930   46.6030 C   0  0  0  0  0  0  0  0  0  0  0  0
   61.7300   33.2490   47.2050 S   0  0  0  0  0  0  0  0  0  0  0  0
   61.8860   31.7580   47.1410 O   0  0  0  0  0  0  0  0  0  0  0  0
   62.7520   33.8720   46.3340 O   0  0  0  0  0  0  0  0  0  0  0  0
   61.7720   33.7990   48.8360 N   0  0  0  0  0  0  0  0  0  0  0  0
   62.3830   32.8830   49.7320 C   0  0  0  0  0  0  0  0  0  0  0  0
   61.9820   33.1240   51.1630 C   0  0  0  0  0  0  0  0  0  0  0  0
   62.6600   32.6740   52.1250 O   0  0  0  0  0  0  0  0  0  0  0  0
   60.8290   33.8660   51.3840 O   0  0  0  0  0  0  0  0  0  0  0  0
   63.8720   32.8330   49.6180 C   0  0  0  0  0  0  0  0  0  0  0  0
   64.6230   32.9230   50.6380 O   0  0  0  0  0  0  0  0  0  0  0  0
   64.5230   32.6890   48.3990 O   0  0  0  0  0  0  0  0  0  0  0  0
   59.3710   31.0760   48.6270 N   0  0  0  0  0  0  0  0  0  0  0  0
   58.2790   29.2940   46.4990 C   0  0  0  0  0  0  0  0  0  0  0  0
   56.3698   28.8065   42.4544 H   0  0  0  0  0  0  0  0  0  0  0  0
   55.8643   30.5235   42.3024 H   0  0  0  0  0  0  0  0  0  0  0  0
   57.6094   30.0976   42.3024 H   0  0  0  0  0  0  0  0  0  0  0  0
   59.0399   28.8757   43.2209 H   0  0  0  0  0  0  0  0  0  0  0  0
   61.1074   27.9258   44.2444 H   0  0  0  0  0  0  0  0  0  0  0  0
   56.9180   33.9071   47.7383 H   0  0  0  0  0  0  0  0  0  0  0  0
   58.3910   28.7990   50.8180 H   0  0  0  0  0  0  0  0  0  0  0  0
   57.7512   30.6833   52.0860 H   0  0  0  0  0  0  0  0  0  0  0  0
   58.1428   32.9654   51.1360 H   0  0  0  0  0  0  0  0  0  0  0  0
   61.3577   27.8551   46.7309 H   0  0  0  0  0  0  0  0  0  0  0  0
   56.5270   34.3466   45.3202 H   0  0  0  0  0  0  0  0  0  0  0  0
   58.4320   34.3025   43.7046 H   0  0  0  0  0  0  0  0  0  0  0  0
   60.7121   33.8209   44.5624 H   0  0  0  0  0  0  0  0  0  0  0  0
   60.7980   34.0040   49.1660 H   0  0  0  0  0  0  0  0  0  0  0  0
   62.0009   31.8991   49.4222 H   0  0  0  0  0  0  0  0  0  0  0  0
   60.2390   34.1900   50.6030 H   0  0  0  0  0  0  0  0  0  0  0  0
   63.9750   32.5360   47.5390 H   0  0  0  0  0  0  0  0  0  0  0  0
   59.8160   31.1790   47.6810 H   0  0  0  0  0  0  0  0  0  0  0  0
   57.4761   29.6828   47.1425 H   0  0  0  0  0  0  0  0  0  0  0  0
  1  2  1  0
  2  3  2  0
  2  4  2  0
  2  5  1  0
  5  6  2  0
  6  7  1  0
  7  8  2  0
  8  9  1  0
  9 10  1  0
 10 11  2  0
 11 12  1  0
 12 13  1  0
 13 14  2  0
 14 15  1  0
 15 16  2  0
 16 17  1  0
 17 18  2  0
 18 19  1  0
 19 20  2  0
 20 21  1  0
 21 22  2  0
 22 23  1  0
 23 24  2  0
 23 25  2  0
 23 26  1  0
 26 27  1  0
 27 28  1  0
 28 29  2  0
 28 30  1  0
 27 31  1  0
 31 32  2  0
 31 33  1  0
 15 34  1  0
  9 35  2  0
 35  5  1  0
 34 11  1  0
 22 17  1  0
  1 36  1  0
  1 37  1  0
  1 38  1  0
  6 39  1  0
  7 40  1  0
  8 41  1  0
 12 42  1  0
 13 43  1  0
 14 44  1  0
 18 45  1  0
 19 46  1  0
 20 47  1  0
 21 48  1  0
 26 49  1  0
 27 50  1  0
 30 51  1  0
 33 52  1  0
 34 53  1  0
 35 54  1  0
M  END
>  <smiles>  (3) 
CS(=O)(=O)c1cccc(N=c2[nH]ccc(=Nc3ccccc3S(=O)(=O)NC(C(=O)O)C(=O)O)[nH]2)c1

>  <score_type>  (3) 
oracle

>  <origin>  (3) 
adg

>  <m_score__min__energy>  (3) 
-10.539999999999999

>  <m_primary>  (3) 
energy

$$$$
3:0
     RDKit          3D

 40 42  0  0  0  0  0  0  0  0999 V2000
   57.0360   30.1010   52.6780 C   0  0  0  0  0  0  0  0  0  0  0  0
   57.7080   29.5610   51.5440 O   0  0  0  0  0  0  0  0  0  0  0  0
   58.1760   30.3230   50.4630 C   0  0  0  0  0  0  0  0  0  0  0  0
   58.7280   29.7350   49.3090 C   0  0  0  0  0  0  0  0  0  0  0  0
   59.1810   30.5380   48.2570 C   0  0  0  0  0  0  0  0  0  0  0  0
   59.0900   31.9360   48.3420 C   0  0  0  0  0  0  0  0  0  0  0  0
   59.5730   32.7810   47.2290 C   0  0  0  0  0  0  0  0  0  0  0  0
   58.8930   33.0720   46.0560 C   0  0  0  0  0  0  0  0  0  0  0  0
   57.5020   32.7300   45.6940 C   0  0  0  0  0  0  0  0  0  0  0  0
   56.5530   33.4070   46.1690 O   0  0  0  0  0  0  0  0  0  0  0  0
   57.2050   31.6930   44.7500 N   0  0  0  0  0  0  0  0  0  0  0  0
   57.4310   30.2890   44.9430 C   0  0  0  0  0  0  0  0  0  0  0  0
   58.7330   29.7890   44.8140 C   0  0  0  0  0  0  0  0  0  0  0  0
   58.9850   28.4240   44.9780 C   0  0  0  0  0  0  0  0  0  0  0  0
   57.9340   27.5470   45.2590 C   0  0  0  0  0  0  0  0  0  0  0  0
   56.6260   28.0300   45.3660 C   0  0  0  0  0  0  0  0  0  0  0  0
   55.5860   27.1420   45.6320 O   0  0  0  0  0  0  0  0  0  0  0  0
   56.3730   29.3990   45.2000 C   0  0  0  0  0  0  0  0  0  0  0  0
   59.7710   33.8500   45.3230 C   0  0  0  0  0  0  0  0  0  0  0  0
   60.9180   34.0040   46.0110 N   0  0  0  0  0  0  0  0  0  0  0  0
   60.7970   33.3490   47.1560 N   0  0  0  0  0  0  0  0  0  0  0  0
   61.8610   33.2870   48.1530 C   0  0  0  0  0  0  0  0  0  0  0  0
   58.5390   32.5200   49.4920 C   0  0  0  0  0  0  0  0  0  0  0  0
   58.0860   31.7170   50.5430 C   0  0  0  0  0  0  0  0  0  0  0  0
   57.5066   29.7228   53.5975 H   0  0  0  0  0  0  0  0  0  0  0  0
   57.1038   31.1987   52.6561 H   0  0  0  0  0  0  0  0  0  0  0  0
   55.9786   29.7985   52.6561 H   0  0  0  0  0  0  0  0  0  0  0  0
   58.8033   28.6401   49.2344 H   0  0  0  0  0  0  0  0  0  0  0  0
   59.6108   30.0713   47.3584 H   0  0  0  0  0  0  0  0  0  0  0  0
   59.5617   30.4743   44.5824 H   0  0  0  0  0  0  0  0  0  0  0  0
   60.0116   28.0398   44.8858 H   0  0  0  0  0  0  0  0  0  0  0  0
   58.1360   26.4745   45.3963 H   0  0  0  0  0  0  0  0  0  0  0  0
   54.7720   27.0850   45.0300 H   0  0  0  0  0  0  0  0  0  0  0  0
   55.3429   29.7784   45.2711 H   0  0  0  0  0  0  0  0  0  0  0  0
   59.5639   34.2771   44.3307 H   0  0  0  0  0  0  0  0  0  0  0  0
   61.4210   33.3126   49.1609 H   0  0  0  0  0  0  0  0  0  0  0  0
   62.4297   32.3542   48.0248 H   0  0  0  0  0  0  0  0  0  0  0  0
   62.5342   34.1474   48.0248 H   0  0  0  0  0  0  0  0  0  0  0  0
   58.4629   33.6148   49.5673 H   0  0  0  0  0  0  0  0  0  0  0  0
   57.6552   32.1851   51.4404 H   0  0  0  0  0  0  0  0  0  0  0  0
  1  2  1  0
  2  3  1  0
  3  4  2  0
  4  5  1  0
  5  6  2  0
  6  7  1  0
  7  8  2  0
  8  9  1  0
  9 10  2  0
  9 11  1  0
 11 12  1  0
 12 13  2  0
 13 14  1  0
 14 15  2  0
 15 16  1  0
 16 17  1  0
 16 18  2  0
  8 19  1  0
 19 20  2  0
 20 21  1  0
 21 22  1  0
  6 23  1  0
 23 24  2  0
 24  3  1  0
 21  7  1  0
 18 12  1  0
  1 25  1  0
  1 26  1  0
  1 27  1  0
  4 28  1  0
  5 29  1  0
 13 30  1  0
 14 31  1  0
 15 32  1  0
 17 33  1  0
 18 34  1  0
 19 35  1  0
 22 36  1  0
 22 37  1  0
 22 38  1  0
 23 39  1  0
 24 40  1  0
M  CHG  1  11  -1
M  END
>  <UniqueID>  (4) 
3

>  <SMILES>  (4) 
COc1ccc(-c2c(C(=O)[N-]c3cccc(O)c3)cnn2C)cc1

>  <Energy>  (4) 
82.23817085264027

>  <Genealogy>  (4) 
COc1ccc(-c2c(C(=O)[N-]c3cccc(O)c3)cnn2C)cc1 (protonated)
COc1ccc(-c2c(C(=O)[N-]c3cccc(O)c3)cnn2C)cc1 (3D coordinates assigned)
COc1ccc(-c2c(C(=O)[N-]c3cccc(O)c3)cnn2C)cc1 (optimized conformer: 82.23817085264027 kcal/mol)

>  <smiles>  (4) 
COc1ccc(-c2c(C(=O)Nc3cccc(O)c3)cnn2C)cc1

>  <score_type>  (4) 
oracle

>  <origin>  (4) 
adg

>  <m_score__min__energy>  (4) 
-9.4499999999999993

>  <m_primary>  (4) 
energy

$$$$
4:0
     RDKit          3D

 34 36  0  0  0  0  0  0  0  0999 V2000
   55.1500   26.3830   45.8760 O   0  0  0  0  0  0  0  0  0  0  0  0
   56.2680   26.9620   45.8520 C   0  0  0  0  0  0  0  0  0  0  0  0
   57.4890   26.2130   46.3010 C   0  0  0  0  0  0  0  0  0  0  0  0
   58.7410   27.0470   46.2780 C   0  0  0  0  0  0  0  0  0  0  0  0
   58.7670   28.3310   45.8740 C   0  0  0  0  0  0  0  0  0  0  0  0
   59.9690   29.0580   45.8770 O   0  0  0  0  0  0  0  0  0  0  0  0
   60.5050   29.7500   46.9740 C   0  0  0  0  0  0  0  0  0  0  0  0
   60.3310   29.3020   48.2970 C   0  0  0  0  0  0  0  0  0  0  0  0
   60.8670   30.0320   49.3630 C   0  0  0  0  0  0  0  0  0  0  0  0
   61.5680   31.2170   49.1180 C   0  0  0  0  0  0  0  0  0  0  0  0
   62.0860   31.9250   50.1510 F   0  0  0  0  0  0  0  0  0  0  0  0
   61.7280   31.6760   47.8070 C   0  0  0  0  0  0  0  0  0  0  0  0
   61.1920   30.9480   46.7400 C   0  0  0  0  0  0  0  0  0  0  0  0
   57.5370   28.9990   45.3730 C   0  0  0  0  0  0  0  0  0  0  0  0
   57.6250   30.3970   44.8890 C   0  0  0  0  0  0  0  0  0  0  0  0
   57.5650   30.6740   43.5120 C   0  0  0  0  0  0  0  0  0  0  0  0
   57.6610   31.9910   43.0520 C   0  0  0  0  0  0  0  0  0  0  0  0
   57.8200   33.0400   43.9610 C   0  0  0  0  0  0  0  0  0  0  0  0
   57.8840   32.7740   45.3330 C   0  0  0  0  0  0  0  0  0  0  0  0
   57.7880   31.4580   45.7970 C   0  0  0  0  0  0  0  0  0  0  0  0
   56.3590   28.3480   45.3690 C   0  0  0  0  0  0  0  0  0  0  0  0
   55.2080   28.9690   44.8900 O   0  0  0  0  0  0  0  0  0  0  0  0
   57.3235   25.8601   47.3296 H   0  0  0  0  0  0  0  0  0  0  0  0
   57.6385   25.3816   45.5964 H   0  0  0  0  0  0  0  0  0  0  0  0
   59.6828   26.5843   46.6080 H   0  0  0  0  0  0  0  0  0  0  0  0
   59.7719   28.3752   48.4931 H   0  0  0  0  0  0  0  0  0  0  0  0
   60.7370   29.6737   50.3948 H   0  0  0  0  0  0  0  0  0  0  0  0
   62.2758   32.6103   47.6148 H   0  0  0  0  0  0  0  0  0  0  0  0
   61.3106   31.3183   45.7110 H   0  0  0  0  0  0  0  0  0  0  0  0
   57.4419   29.8507   42.7930 H   0  0  0  0  0  0  0  0  0  0  0  0
   57.6113   32.2013   41.9734 H   0  0  0  0  0  0  0  0  0  0  0  0
   57.8949   34.0756   43.5977 H   0  0  0  0  0  0  0  0  0  0  0  0
   58.0100   33.6007   46.0476 H   0  0  0  0  0  0  0  0  0  0  0  0
   57.8402   31.2524   46.8763 H   0  0  0  0  0  0  0  0  0  0  0  0
  1  2  2  0
  2  3  1  0
  3  4  1  0
  4  5  2  0
  5  6  1  0
  6  7  1  0
  7  8  2  0
  8  9  1  0
  9 10  2  0
 10 11  1  0
 10 12  1  0
 12 13  2  0
  5 14  1  0
 14 15  1  0
 15 16  2  0
 16 17  1  0
 17 18  2  0
 18 19  1  0
 19 20  2  0
 14 21  2  0
 21 22  1  0
 21  2  1  0
 13  7  1  0
 20 15  1  0
  3 23  1  0
  3 24  1  0
  4 25  1  0
  8 26  1  0
  9 27  1  0
 12 28  1  0
 13 29  1  0
 16 30  1  0
 17 31  1  0
 18 32  1  0
 19 33  1  0
 20 34  1  0
M  CHG  1  22  -1
M  END
>  <UniqueID>  (5) 
4

>  <SMILES>  (5) 
O=C1CC=C(Oc2ccc(F)cc2)C(c2ccccc2)=C1[O-]

>  <Energy>  (5) 
50.6236107700369

>  <Genealogy>  (5) 
O=C1CC=C(Oc2ccc(F)cc2)C(c2ccccc2)=C1[O-] (protonated)
O=C1CC=C(Oc2ccc(F)cc2)C(c2ccccc2)=C1[O-] (3D coordinates assigned)
O=C1CC=C(Oc2ccc(F)cc2)C(c2ccccc2)=C1[O-] (nonaromatic ring conformer: 50.6236107700369 kcal/mol)

>  <smiles>  (5) 
O=C1CC=C(Oc2ccc(F)cc2)C(c2ccccc2)=C1O

>  <score_type>  (5) 
oracle

>  <origin>  (5) 
adg

>  <m_score__min__energy>  (5) 
-10.92

>  <m_primary>  (5) 
energy

$$$$
5:0
     RDKit          3D

 41 43  0  0  0  0  0  0  0  0999 V2000
   57.5470   30.8380   43.1920 C   0  0  0  0  0  0  0  0  0  0  0  0
   57.4110   29.7900   44.3160 C   0  0  2  0  0  0  0  0  0  0  0  0
   58.2330   30.2290   45.5570 C   0  0  0  0  0  0  0  0  0  0  0  0
   58.1650   31.7090   45.8420 C   0  0  0  0  0  0  0  0  0  0  0  0
   57.0700   32.5430   45.6370 C   0  0  0  0  0  0  0  0  0  0  0  0
   57.3690   33.8140   45.9870 N   0  0  0  0  0  0  0  0  0  0  0  0
   58.6430   33.7900   46.4170 C   0  0  0  0  0  0  0  0  0  0  0  0
   59.3910   34.8640   46.8950 C   0  0  0  0  0  0  0  0  0  0  0  0
   60.7090   34.6110   47.3200 C   0  0  0  0  0  0  0  0  0  0  0  0
   61.2460   33.3060   47.2500 C   0  0  0  0  0  0  0  0  0  0  0  0
   63.0320   32.9810   47.8430 Br  0  0  0  0  0  0  0  0  0  0  0  0
   60.4670   32.2410   46.7570 C   0  0  0  0  0  0  0  0  0  0  0  0
   59.1630   32.5230   46.3440 C   0  0  0  0  0  0  0  0  0  0  0  0
   58.1240   28.1820   43.7510 S   0  0  0  0  0  0  0  0  0  0  0  0
   58.8330   27.5860   45.3290 C   0  0  0  0  0  0  0  0  0  0  0  0
   58.0620   26.3820   45.7930 C   0  0  0  0  0  0  0  0  0  0  0  0
   58.0740   26.0140   47.1500 C   0  0  0  0  0  0  0  0  0  0  0  0
   57.3630   24.8880   47.5820 C   0  0  0  0  0  0  0  0  0  0  0  0
   56.6430   24.1190   46.6600 C   0  0  0  0  0  0  0  0  0  0  0  0
   56.6410   24.4700   45.3050 C   0  0  0  0  0  0  0  0  0  0  0  0
   57.3530   25.5950   44.8710 C   0  0  0  0  0  0  0  0  0  0  0  0
   55.9600   29.5860   44.7080 C   0  0  0  0  0  0  0  0  0  0  0  0
   55.1140   30.4960   44.4930 O   0  0  0  0  0  0  0  0  0  0  0  0
   55.5320   28.3780   45.2530 O   0  0  0  0  0  0  0  0  0  0  0  0
   57.6766   31.8364   43.6353 H   0  0  0  0  0  0  0  0  0  0  0  0
   58.4214   30.5968   42.5697 H   0  0  0  0  0  0  0  0  0  0  0  0
   56.6400   30.8280   42.5697 H   0  0  0  0  0  0  0  0  0  0  0  0
   57.8496   29.6890   46.4353 H   0  0  0  0  0  0  0  0  0  0  0  0
   59.2858   29.9927   45.3430 H   0  0  0  0  0  0  0  0  0  0  0  0
   56.0965   32.2138   45.2447 H   0  0  0  0  0  0  0  0  0  0  0  0
   56.7350   34.6410   45.9430 H   0  0  0  0  0  0  0  0  0  0  0  0
   58.9652   35.8773   46.9389 H   0  0  0  0  0  0  0  0  0  0  0  0
   61.3250   35.4350   47.7093 H   0  0  0  0  0  0  0  0  0  0  0  0
   60.8726   31.2202   46.6992 H   0  0  0  0  0  0  0  0  0  0  0  0
   59.8877   27.3121   45.1784 H   0  0  0  0  0  0  0  0  0  0  0  0
   58.7690   28.3808   46.0868 H   0  0  0  0  0  0  0  0  0  0  0  0
   58.6443   26.6132   47.8751 H   0  0  0  0  0  0  0  0  0  0  0  0
   57.3701   24.6076   48.6456 H   0  0  0  0  0  0  0  0  0  0  0  0
   56.0785   23.2384   47.0006 H   0  0  0  0  0  0  0  0  0  0  0  0
   56.0797   23.8617   44.5805 H   0  0  0  0  0  0  0  0  0  0  0  0
   57.3570   25.8632   43.8042 H   0  0  0  0  0  0  0  0  0  0  0  0
  1  2  1  0
  2  3  1  0
  3  4  1  0
  4  5  2  0
  5  6  1  0
  6  7  1  0
  7  8  2  0
  8  9  1  0
  9 10  2  0
 10 11  1  0
 10 12  1  0
 12 13  2  0
  2 14  1  6
 14 15  1  0
 15 16  1  0
 16 17  2  0
 17 18  1  0
 18 19  2  0
 19 20  1  0
 20 21  2  0
  2 22  1  0
 22 23  2  0
 22 24  1  0
 13  4  1  0
 21 16  1  0
 13  7  1  0
  1 25  1  0
  1 26  1  0
  1 27  1  0
  3 28  1  0
  3 29  1  0
  5 30  1  0
  6 31  1  0
  8 32  1  0
  9 33  1  0
 12 34  1  0
 15 35  1  0
 15 36  1  0
 17 37  1  0
 18 38  1  0
 19 39  1  0
 20 40  1  0
 21 41  1  0
M  CHG  1  24  -1
M  END
>  <UniqueID>  (6) 
5

>  <SMILES>  (6) 
C[C@](Cc1c[nH]c2ccc(Br)cc12)(SCc1ccccc1)C(=O)[O-]

>  <Energy>  (6) 
72.99522106773205

>  <Genealogy>  (6) 
CC(Cc1c[nH]c2ccc(Br)cc12)(SCc1ccccc1)C(=O)[O-] (protonated)
C[C@](Cc1c[nH]c2ccc(Br)cc12)(SCc1ccccc1)C(=O)[O-] (chirality)
C[C@](Cc1c[nH]c2ccc(Br)cc12)(SCc1ccccc1)C(=O)[O-] (3D coordinates assigned)
C[C@](Cc1c[nH]c2ccc(Br)cc12)(SCc1ccccc1)C(=O)[O-] (optimized conformer: 72.99522106773205 kcal/mol)

>  <smiles>  (6) 
CC(Cc1c[nH]c2ccc(Br)cc12)(SCc1ccccc1)C(=O)O

>  <score_type>  (6) 
oracle

>  <origin>  (6) 
adg

>  <m_score__min__energy>  (6) 
-10.99

>  <m_primary>  (6) 
energy

$$$$
6:0
     RDKit          3D

 52 54  0  0  0  0  0  0  0  0999 V2000
   59.5150   33.7380   50.8830 C   0  0  0  0  0  0  0  0  0  0  0  0
   58.5540   33.3320   51.9960 C   0  0  0  0  0  0  0  0  0  0  0  0
   57.5870   32.3530   51.5100 N   0  0  0  0  0  0  0  0  0  0  0  0
   57.9190   30.9860   51.2560 C   0  0  0  0  0  0  0  0  0  0  0  0
   57.1050   30.0850   51.5930 O   0  0  0  0  0  0  0  0  0  0  0  0
   59.0950   30.6570   50.5030 N   0  0  0  0  0  0  0  0  0  0  0  0
   59.1980   30.0750   49.3400 C   0  0  0  0  0  0  0  0  0  0  0  0
   59.6560   28.7830   49.3230 N   0  0  0  0  0  0  0  0  0  0  0  0
   59.7850   28.1400   48.1420 C   0  0  0  0  0  0  0  0  0  0  0  0
   60.2250   26.8640   47.8680 C   0  0  0  0  0  0  0  0  0  0  0  0
   60.1460   26.7580   46.4770 C   0  0  0  0  0  0  0  0  0  0  0  0
   59.6760   27.9110   45.9340 N   0  0  0  0  0  0  0  0  0  0  0  0
   59.4530   28.1960   44.5190 C   0  0  0  0  0  0  0  0  0  0  0  0
   58.2340   27.4270   44.0070 C   0  0  0  0  0  0  0  0  0  0  0  0
   57.2380   27.2890   45.0790 N   0  0  0  0  0  0  0  0  0  0  0  0
   57.2300   25.9270   45.6350 C   0  0  0  0  0  0  0  0  0  0  0  0
   55.9000   25.5760   46.2420 C   0  0  0  0  0  0  0  0  0  0  0  0
   55.7990   24.5920   47.0210 O   0  0  0  0  0  0  0  0  0  0  0  0
   54.7800   26.3520   45.9640 O   0  0  0  0  0  0  0  0  0  0  0  0
   59.4710   28.7380   46.9710 C   0  0  0  0  0  0  0  0  0  0  0  0
   58.9950   30.0030   46.9260 N   0  0  0  0  0  0  0  0  0  0  0  0
   58.8250   30.6940   48.0960 C   0  0  0  0  0  0  0  0  0  0  0  0
   58.2830   31.9830   48.0560 O   0  0  0  0  0  0  0  0  0  0  0  0
   58.4690   32.8850   46.9990 C   0  0  0  0  0  0  0  0  0  0  0  0
   59.2440   34.0260   47.2280 C   0  0  0  0  0  0  0  0  0  0  0  0
   59.4790   34.9420   46.2000 C   0  0  0  0  0  0  0  0  0  0  0  0
   58.9270   34.7280   44.9360 C   0  0  0  0  0  0  0  0  0  0  0  0
   58.1270   33.6070   44.7000 C   0  0  0  0  0  0  0  0  0  0  0  0
   57.8770   32.6790   45.7330 C   0  0  0  0  0  0  0  0  0  0  0  0
   57.0400   31.5680   45.5450 O   0  0  0  0  0  0  0  0  0  0  0  0
   57.0260   30.7550   44.3770 C   0  0  0  0  0  0  0  0  0  0  0  0
   60.4430   34.1301   51.3247 H   0  0  0  0  0  0  0  0  0  0  0  0
   59.7470   32.8610   50.2609 H   0  0  0  0  0  0  0  0  0  0  0  0
   59.0479   34.5157   50.2609 H   0  0  0  0  0  0  0  0  0  0  0  0
   59.1272   32.8925   52.8256 H   0  0  0  0  0  0  0  0  0  0  0  0
   58.0115   34.2255   52.3386 H   0  0  0  0  0  0  0  0  0  0  0  0
   60.5628   26.0999   48.5836 H   0  0  0  0  0  0  0  0  0  0  0  0
   60.4259   25.8638   45.9008 H   0  0  0  0  0  0  0  0  0  0  0  0
   59.2821   29.2748   44.3889 H   0  0  0  0  0  0  0  0  0  0  0  0
   60.3391   27.8826   43.9475 H   0  0  0  0  0  0  0  0  0  0  0  0
   57.7872   27.9732   43.1632 H   0  0  0  0  0  0  0  0  0  0  0  0
   58.5511   26.4262   43.6787 H   0  0  0  0  0  0  0  0  0  0  0  0
   56.2860   27.5060   44.6960 H   0  0  0  0  0  0  0  0  0  0  0  0
   57.4523   25.2126   44.8286 H   0  0  0  0  0  0  0  0  0  0  0  0
   57.9899   25.8788   46.4289 H   0  0  0  0  0  0  0  0  0  0  0  0
   59.6720   34.2037   48.2256 H   0  0  0  0  0  0  0  0  0  0  0  0
   60.0987   35.8315   46.3865 H   0  0  0  0  0  0  0  0  0  0  0  0
   59.1222   35.4436   44.1237 H   0  0  0  0  0  0  0  0  0  0  0  0
   57.6897   33.4471   43.7034 H   0  0  0  0  0  0  0  0  0  0  0  0
   57.0077   29.6945   44.6686 H   0  0  0  0  0  0  0  0  0  0  0  0
   56.1317   30.9865   43.7798 H   0  0  0  0  0  0  0  0  0  0  0  0
   57.9277   30.9556   43.7798 H   0  0  0  0  0  0  0  0  0  0  0  0
  1  2  1  0
  2  3  1  0
  3  4  1  0
  4  5  2  0
  4  6  1  0
  6  7  2  3
  7  8  1  0
  8  9  1  0
  9 10  1  0
 10 11  2  0
 11 12  1  0
 12 13  1  0
 13 14  1  0
 14 15  1  0
 15 16  1  0
 16 17  1  0
 17 18  2  0
 17 19  1  0
 12 20  1  0
 20 21  1  0
 21 22  2  0
 22 23  1  0
 23 24  1  0
 24 25  2  0
 25 26  1  0
 26 27  2  0
 27 28  1  0
 28 29  2  0
 29 30  1  0
 30 31  1  0
 22  7  1  0
 29 24  1  0
 20  9  2  0
  1 32  1  0
  1 33  1  0
  1 34  1  0
  2 35  1  0
  2 36  1  0
 10 37  1  0
 11 38  1  0
 13 39  1  0
 13 40  1  0
 14 41  1  0
 14 42  1  0
 15 43  1  0
 16 44  1  0
 16 45  1  0
 25 46  1  0
 26 47  1  0
 27 48  1  0
 28 49  1  0
 31 50  1  0
 31 51  1  0
 31 52  1  0
M  CHG  3   3  -1   8  -1  19  -1
M  END
>  <UniqueID>  (7) 
6

>  <SMILES>  (7) 
CC[N-]C(=O)N=c1[n-]c2ccn(CCNCC(=O)[O-])c2nc1Oc1ccccc1OC

>  <Energy>  (7) 
98.32995944673753

>  <Genealogy>  (7) 
CC[N-]C(=O)N=c1[n-]c2ccn(CCNCC(=O)[O-])c2nc1Oc1ccccc1OC (protonated)
CC[N-]C(=O)N=c1[n-]c2ccn(CCNCC(=O)[O-])c2nc1Oc1ccccc1OC (3D coordinates assigned)
CC[N-]C(=O)N=c1[n-]c2ccn(CCNCC(=O)[O-])c2nc1Oc1ccccc1OC (optimized conformer: 98.32995944673753 kcal/mol)

>  <smiles>  (7) 
CCNC(=O)N=c1[nH]c2ccn(CCNCC(=O)O)c2nc1Oc1ccccc1OC

>  <score_type>  (7) 
oracle

>  <origin>  (7) 
adg

>  <m_score__min__energy>  (7) 
-12.91

>  <m_primary>  (7) 
energy

$$$$
7:0
     RDKit          3D

 36 38  0  0  0  0  0  0  0  0999 V2000
   55.1120   29.1520   42.6170 H   0  0  0  0  0  0  0  0  0  0  0  0
   55.0330   29.5550   43.5770 N   0  0  0  0  0  0  0  0  0  0  0  0
   56.0800   29.9160   44.2480 C   0  0  0  0  0  0  0  0  0  0  0  0
   56.3210   31.2330   44.4700 N   0  0  0  0  0  0  0  0  0  0  0  0
   57.4090   31.6410   45.1690 C   0  0  0  0  0  0  0  0  0  0  0  0
   57.6250   33.0010   45.3750 C   0  0  0  0  0  0  0  0  0  0  0  0
   56.9187   33.7412   44.9709 H   0  0  0  0  0  0  0  0  0  0  0  0
   58.7410   33.4180   46.0960 C   0  0  0  0  0  0  0  0  0  0  0  0
   58.9141   34.4923   46.2573 H   0  0  0  0  0  0  0  0  0  0  0  0
   59.6230   32.5080   46.6050 N   0  0  0  0  0  0  0  0  0  0  0  0
   60.7570   32.9930   47.3490 C   0  0  0  0  0  0  0  0  0  0  0  0
   62.0250   33.0170   46.7470 C   0  0  0  0  0  0  0  0  0  0  0  0
   62.1451   32.6676   45.7109 H   0  0  0  0  0  0  0  0  0  0  0  0
   63.1350   33.4820   47.4560 C   0  0  0  0  0  0  0  0  0  0  0  0
   64.1265   33.4936   46.9798 H   0  0  0  0  0  0  0  0  0  0  0  0
   62.9860   33.9320   48.7690 C   0  0  0  0  0  0  0  0  0  0  0  0
   63.8614   34.2953   49.3272 H   0  0  0  0  0  0  0  0  0  0  0  0
   61.7270   33.9220   49.3760 C   0  0  0  0  0  0  0  0  0  0  0  0
   61.6158   34.2794   50.4104 H   0  0  0  0  0  0  0  0  0  0  0  0
   60.6000   33.4570   48.6710 C   0  0  0  0  0  0  0  0  0  0  0  0
   59.3170   33.4490   49.2400 O   0  0  0  0  0  0  0  0  0  0  0  0
   58.7030   32.3090   49.8330 C   0  0  0  0  0  0  0  0  0  0  0  0
   58.7497   32.3957   50.9286 H   0  0  0  0  0  0  0  0  0  0  0  0
   57.6518   32.2513   49.5142 H   0  0  0  0  0  0  0  0  0  0  0  0
   59.2333   31.3995   49.5142 H   0  0  0  0  0  0  0  0  0  0  0  0
   59.4410   31.1610   46.4060 C   0  0  0  0  0  0  0  0  0  0  0  0
   60.2890   30.3420   46.8610 O   0  0  0  0  0  0  0  0  0  0  0  0
   58.3170   30.6950   45.6820 C   0  0  0  0  0  0  0  0  0  0  0  0
   58.0510   29.3280   45.4430 C   0  0  0  0  0  0  0  0  0  0  0  0
   58.9290   28.3480   45.9380 O   0  0  0  0  0  0  0  0  0  0  0  0
   60.0760   27.8680   45.2470 C   0  0  0  0  0  0  0  0  0  0  0  0
   60.8364   27.5498   45.9754 H   0  0  0  0  0  0  0  0  0  0  0  0
   59.7926   27.0130   44.6156 H   0  0  0  0  0  0  0  0  0  0  0  0
   60.4860   28.6700   44.6156 H   0  0  0  0  0  0  0  0  0  0  0  0
   56.9370   28.9750   44.7310 N   0  0  0  0  0  0  0  0  0  0  0  0
   56.7250   27.9710   44.5440 H   0  0  0  0  0  0  0  0  0  0  0  0
  1  2  1  0
  2  3  2  0
  3  4  1  0
  4  5  2  0
  5  6  1  0
  6  7  1  0
  6  8  2  0
  8  9  1  0
  8 10  1  0
 10 11  1  0
 11 12  2  0
 12 13  1  0
 12 14  1  0
 14 15  1  0
 14 16  2  0
 16 17  1  0
 16 18  1  0
 18 19  1  0
 18 20  2  0
 20 21  1  0
 21 22  1  0
 22 23  1  0
 22 24  1  0
 22 25  1  0
 10 26  1  0
 26 27  2  0
 26 28  1  0
 28 29  2  0
 29 30  1  0
 30 31  1  0
 31 32  1  0
 31 33  1  0
 31 34  1  0
 29 35  1  0
 35 36  1  0
 35  3  1  0
 28  5  1  0
 20 11  1  0
M  END
>  <UniqueID>  (8) 
7

>  <SMILES>  (8) 
[H]/N=c1\nc2ccn(-c3ccccc3OC)c(=O)c2c(OC)[nH]1

>  <Energy>  (8) 
52.022913998225505

>  <Genealogy>  (8) 
[H]/N=c1\nc2ccn(-c3ccccc3OC)c(=O)c2c(OC)[nH]1 (cis-trans isomerization)
[H]/N=c1\nc2ccn(-c3ccccc3OC)c(=O)c2c(OC)[nH]1 (3D coordinates assigned)
[H]/N=c1\nc2ccn(-c3ccccc3OC)c(=O)c2c(OC)[nH]1 (optimized conformer: 52.022913998225505 kcal/mol)

>  <smiles>  (8) 
COc1ccccc1-n1ccc2nc(=N)[nH]c(OC)c2c1=O

>  <score_type>  (8) 
oracle

>  <origin>  (8) 
adg

>  <m_score__min__energy>  (8) 
-6.7300000000000004

>  <m_primary>  (8) 
energy

$$$$
8:0
     RDKit          3D

 54 57  0  0  0  0  0  0  0  0999 V2000
   56.4990   24.6160   44.5910 C   0  0  0  0  0  0  0  0  0  0  0  0
   55.4740   25.3250   45.8680 S   0  0  0  0  0  0  0  0  0  0  0  0
   55.9080   24.7550   47.1890 O   0  0  0  0  0  0  0  0  0  0  0  0
   54.0430   24.9330   45.6240 O   0  0  0  0  0  0  0  0  0  0  0  0
   55.5910   27.0630   45.9530 N   0  0  0  0  0  0  0  0  0  0  0  0
   56.9320   27.5540   45.6230 C   0  0  0  0  0  0  0  0  0  0  0  0
   57.9340   27.3070   46.7660 C   0  0  1  0  0  0  0  0  0  0  0  0
   58.5170   25.8930   46.7460 C   0  0  0  0  0  0  0  0  0  0  0  0
   59.9790   26.0550   47.1510 C   0  0  0  0  0  0  0  0  0  0  0  0
   60.3440   27.4950   46.8140 C   0  0  0  0  0  0  0  0  0  0  0  0
   59.0800   28.1950   46.6380 N   0  0  0  0  0  0  0  0  0  0  0  0
   58.9640   29.6050   46.8690 C   0  0  0  0  0  0  0  0  0  0  0  0
   58.8920   30.0520   48.1490 N   0  0  0  0  0  0  0  0  0  0  0  0
   58.7640   31.3720   48.4410 C   0  0  0  0  0  0  0  0  0  0  0  0
   58.6760   31.8200   49.8520 C   0  0  0  0  0  0  0  0  0  0  0  0
   59.2230   33.0570   50.2480 C   0  0  0  0  0  0  0  0  0  0  0  0
   59.1310   33.4790   51.5780 C   0  0  0  0  0  0  0  0  0  0  0  0
   58.4950   32.6750   52.5260 C   0  0  0  0  0  0  0  0  0  0  0  0
   57.9480   31.4480   52.1470 C   0  0  0  0  0  0  0  0  0  0  0  0
   58.0350   31.0200   50.8190 C   0  0  0  0  0  0  0  0  0  0  0  0
   58.7080   32.2740   47.4270 N   0  0  0  0  0  0  0  0  0  0  0  0
   58.7580   31.8920   46.1230 C   0  0  0  0  0  0  0  0  0  0  0  0
   58.8860   30.5240   45.8040 C   0  0  0  0  0  0  0  0  0  0  0  0
   58.8160   30.0810   44.3610 C   0  0  0  0  0  0  0  0  0  0  0  0
   57.4790   30.4840   43.7090 C   0  0  0  0  0  0  0  0  0  0  0  0
   57.4760   31.8360   43.1230 N   0  0  0  0  0  0  0  0  0  0  0  0
   57.4420   32.9100   44.1290 C   0  0  0  0  0  0  0  0  0  0  0  0
   58.6860   32.9610   45.0560 C   0  0  0  0  0  0  0  0  0  0  0  0
   57.3200   24.0481   45.0530 H   0  0  0  0  0  0  0  0  0  0  0  0
   55.8935   23.9428   43.9664 H   0  0  0  0  0  0  0  0  0  0  0  0
   56.9154   25.4201   43.9664 H   0  0  0  0  0  0  0  0  0  0  0  0
   57.2879   27.0356   44.7204 H   0  0  0  0  0  0  0  0  0  0  0  0
   56.8654   28.6395   45.4581 H   0  0  0  0  0  0  0  0  0  0  0  0
   57.3652   27.4760   47.6922 H   0  0  0  0  0  0  0  0  0  0  0  0
   57.9878   25.2478   47.4627 H   0  0  0  0  0  0  0  0  0  0  0  0
   58.4150   25.4211   45.7576 H   0  0  0  0  0  0  0  0  0  0  0  0
   60.1010   25.8707   48.2286 H   0  0  0  0  0  0  0  0  0  0  0  0
   60.6273   25.3386   46.6252 H   0  0  0  0  0  0  0  0  0  0  0  0
   60.9203   27.9461   47.6352 H   0  0  0  0  0  0  0  0  0  0  0  0
   60.9677   27.5530   45.9097 H   0  0  0  0  0  0  0  0  0  0  0  0
   59.7256   33.6948   49.5060 H   0  0  0  0  0  0  0  0  0  0  0  0
   59.5605   34.4462   51.8780 H   0  0  0  0  0  0  0  0  0  0  0  0
   58.4250   33.0087   53.5718 H   0  0  0  0  0  0  0  0  0  0  0  0
   57.4471   30.8161   52.8953 H   0  0  0  0  0  0  0  0  0  0  0  0
   57.6003   30.0526   50.5270 H   0  0  0  0  0  0  0  0  0  0  0  0
   59.6407   30.5489   43.8033 H   0  0  0  0  0  0  0  0  0  0  0  0
   58.8961   28.9843   44.3331 H   0  0  0  0  0  0  0  0  0  0  0  0
   57.2528   29.7616   42.9109 H   0  0  0  0  0  0  0  0  0  0  0  0
   56.7245   30.4848   44.5095 H   0  0  0  0  0  0  0  0  0  0  0  0
   56.7020   31.9430   42.4270 H   0  0  0  0  0  0  0  0  0  0  0  0
   57.3662   33.8726   43.6020 H   0  0  0  0  0  0  0  0  0  0  0  0
   56.5766   32.7058   44.7766 H   0  0  0  0  0  0  0  0  0  0  0  0
   59.5815   32.8674   44.4240 H   0  0  0  0  0  0  0  0  0  0  0  0
   58.6162   33.9168   45.5960 H   0  0  0  0  0  0  0  0  0  0  0  0
  1  2  1  0
  2  3  2  0
  2  4  2  0
  2  5  1  0
  5  6  1  0
  6  7  1  0
  7  8  1  0
  8  9  1  0
  9 10  1  0
 10 11  1  0
 11 12  1  0
 12 13  2  0
 13 14  1  0
 14 15  1  0
 15 16  2  0
 16 17  1  0
 17 18  2  0
 18 19  1  0
 19 20  2  0
 14 21  2  0
 21 22  1  0
 22 23  2  0
 23 24  1  0
 24 25  1  0
 25 26  1  0
 26 27  1  0
 27 28  1  0
 11  7  1  0
 23 12  1  0
 20 15  1  0
 28 22  1  0
  1 29  1  0
  1 30  1  0
  1 31  1  0
  6 32  1  0
  6 33  1  0
  7 34  1  1
  8 35  1  0
  8 36  1  0
  9 37  1  0
  9 38  1  0
 10 39  1  0
 10 40  1  0
 16 41  1  0
 17 42  1  0
 18 43  1  0
 19 44  1  0
 20 45  1  0
 24 46  1  0
 24 47  1  0
 25 48  1  0
 25 49  1  0
 26 50  1  0
 27 51  1  0
 27 52  1  0
 28 53  1  0
 28 54  1  0
M  CHG  1   5  -1
M  END
>  <UniqueID>  (9) 
8

>  <SMILES>  (9) 
CS(=O)(=O)[N-]C[C@H]1CCCN1c1nc(-c2ccccc2)nc2c1CCNCC2

>  <Energy>  (9) 
67.87759081332413

>  <Genealogy>  (9) 
CS(=O)(=O)[N-]CC1CCCN1c1nc(-c2ccccc2)nc2c1CCNCC2 (protonated)
CS(=O)(=O)[N-]C[C@H]1CCCN1c1nc(-c2ccccc2)nc2c1CCNCC2 (chirality)
CS(=O)(=O)[N-]C[C@H]1CCCN1c1nc(-c2ccccc2)nc2c1CCNCC2 (3D coordinates assigned)
CS(=O)(=O)[N-]C[C@H]1CCCN1c1nc(-c2ccccc2)nc2c1CCNCC2 (nonaromatic ring conformer: 67.87759081332413 kcal/mol)

>  <smiles>  (9) 
CS(=O)(=O)NCC1CCCN1c1nc(-c2ccccc2)nc2c1CCNCC2

>  <score_type>  (9) 
oracle

>  <origin>  (9) 
adg

>  <m_score__min__energy>  (9) 
-9.0899999999999999

>  <m_primary>  (9) 
energy

$$$$
9:0
     RDKit          3D

 58 62  0  0  0  0  0  0  0  0999 V2000
   64.5080   33.1300   49.3410 C   0  0  0  0  0  0  0  0  0  0  0  0
   63.5410   32.1640   48.9490 O   0  0  0  0  0  0  0  0  0  0  0  0
   62.3860   32.4520   48.2040 C   0  0  0  0  0  0  0  0  0  0  0  0
   62.3130   33.5620   47.3420 C   0  0  0  0  0  0  0  0  0  0  0  0
   61.1360   33.8410   46.6460 C   0  0  0  0  0  0  0  0  0  0  0  0
   60.0040   33.0200   46.7930 C   0  0  0  0  0  0  0  0  0  0  0  0
   58.7570   33.3130   46.0480 C   0  0  0  0  0  0  0  0  0  0  0  0
   57.8710   34.0470   46.5680 O   0  0  0  0  0  0  0  0  0  0  0  0
   58.5350   32.7210   44.7610 N   0  0  0  0  0  0  0  0  0  0  0  0
   57.9440   31.4410   44.4970 C   0  0  0  0  0  0  0  0  0  0  0  0
   57.0180   31.2460   43.4570 C   0  0  0  0  0  0  0  0  0  0  0  0
   56.4970   29.9740   43.2090 C   0  0  0  0  0  0  0  0  0  0  0  0
   56.8990   28.8840   43.9880 C   0  0  0  0  0  0  0  0  0  0  0  0
   57.8330   29.0610   45.0220 C   0  0  0  0  0  0  0  0  0  0  0  0
   58.2860   27.8910   45.8570 C   0  0  0  0  0  0  0  0  0  0  0  0
   57.2300   26.8140   45.8960 C   0  0  0  0  0  0  0  0  0  0  0  0
   55.9300   27.2080   45.9840 N   0  0  0  0  0  0  0  0  0  0  0  0
   54.9210   26.3400   45.9860 N   0  0  0  0  0  0  0  0  0  0  0  0
   55.1280   25.0040   45.8940 C   0  0  0  0  0  0  0  0  0  0  0  0
   54.1370   24.2260   45.8970 O   0  0  0  0  0  0  0  0  0  0  0  0
   56.4400   24.5130   45.7910 C   0  0  0  0  0  0  0  0  0  0  0  0
   56.6940   23.1320   45.6880 C   0  0  0  0  0  0  0  0  0  0  0  0
   58.0040   22.6650   45.5820 C   0  0  0  0  0  0  0  0  0  0  0  0
   59.0700   23.5640   45.5750 C   0  0  0  0  0  0  0  0  0  0  0  0
   58.8350   24.9360   45.6750 C   0  0  0  0  0  0  0  0  0  0  0  0
   57.5190   25.4310   45.7870 C   0  0  0  0  0  0  0  0  0  0  0  0
   58.3600   30.3410   45.2590 C   0  0  0  0  0  0  0  0  0  0  0  0
   60.0800   31.9100   47.6530 C   0  0  0  0  0  0  0  0  0  0  0  0
   61.2650   31.6170   48.3400 C   0  0  0  0  0  0  0  0  0  0  0  0
   61.3160   30.4670   49.1880 N   0  0  0  0  0  0  0  0  0  0  0  0
   59.8470   29.7060   49.7000 S   0  0  0  0  0  0  0  0  0  0  0  0
   59.0640   29.2750   48.4920 O   0  0  0  0  0  0  0  0  0  0  0  0
   60.1690   28.4890   50.5220 O   0  0  0  0  0  0  0  0  0  0  0  0
   58.8710   30.8170   50.6420 C   0  0  0  0  0  0  0  0  0  0  0  0
   57.7190   30.4930   51.3410 C   0  0  0  0  0  0  0  0  0  0  0  0
   57.1790   31.5820   52.0350 C   0  0  0  0  0  0  0  0  0  0  0  0
   57.9070   32.7570   51.8820 C   0  0  0  0  0  0  0  0  0  0  0  0
   59.2250   32.4400   50.8860 S   0  0  0  0  0  0  0  0  0  0  0  0
   64.5551   33.1770   50.4390 H   0  0  0  0  0  0  0  0  0  0  0  0
   65.4932   32.8447   48.9436 H   0  0  0  0  0  0  0  0  0  0  0  0
   64.2237   34.1155   48.9436 H   0  0  0  0  0  0  0  0  0  0  0  0
   63.1898   34.2142   47.2159 H   0  0  0  0  0  0  0  0  0  0  0  0
   61.0934   34.7121   45.9756 H   0  0  0  0  0  0  0  0  0  0  0  0
   56.7029   32.0980   42.8367 H   0  0  0  0  0  0  0  0  0  0  0  0
   55.7680   29.8289   42.3982 H   0  0  0  0  0  0  0  0  0  0  0  0
   56.4825   27.8853   43.7903 H   0  0  0  0  0  0  0  0  0  0  0  0
   59.2079   27.4755   45.4240 H   0  0  0  0  0  0  0  0  0  0  0  0
   58.4668   28.2421   46.8837 H   0  0  0  0  0  0  0  0  0  0  0  0
   55.8565   22.4189   45.6911 H   0  0  0  0  0  0  0  0  0  0  0  0
   58.1967   21.5848   45.5037 H   0  0  0  0  0  0  0  0  0  0  0  0
   60.1010   23.1900   45.4903 H   0  0  0  0  0  0  0  0  0  0  0  0
   59.6828   25.6369   45.6664 H   0  0  0  0  0  0  0  0  0  0  0  0
   59.1086   30.4818   46.0526 H   0  0  0  0  0  0  0  0  0  0  0  0
   59.1993   31.2648   47.7877 H   0  0  0  0  0  0  0  0  0  0  0  0
   62.1570   30.3400   49.7920 H   0  0  0  0  0  0  0  0  0  0  0  0
   57.2758   29.4863   51.3495 H   0  0  0  0  0  0  0  0  0  0  0  0
   56.2653   31.5148   52.6438 H   0  0  0  0  0  0  0  0  0  0  0  0
   57.6624   33.7289   52.3354 H   0  0  0  0  0  0  0  0  0  0  0  0
  1  2  1  0
  2  3  1  0
  3  4  2  0
  4  5  1  0
  5  6  2  0
  6  7  1  0
  7  8  2  0
  7  9  1  0
  9 10  1  0
 10 11  2  0
 11 12  1  0
 12 13  2  0
 13 14  1  0
 14 15  1  0
 15 16  1  0
 16 17  2  0
 17 18  1  0
 18 19  1  0
 19 20  2  0
 19 21  1  0
 21 22  2  0
 22 23  1  0
 23 24  2  0
 24 25  1  0
 25 26  2  0
 14 27  2  0
  6 28  1  0
 28 29  2  0
 29 30  1  0
 30 31  1  0
 31 32  2  0
 31 33  2  0
 31 34  1  0
 34 35  2  0
 35 36  1  0
 36 37  2  0
 37 38  1  0
 29  3  1  0
 38 34  1  0
 27 10  1  0
 26 16  1  0
 26 21  1  0
  1 39  1  0
  1 40  1  0
  1 41  1  0
  4 42  1  0
  5 43  1  0
 11 44  1  0
 12 45  1  0
 13 46  1  0
 15 47  1  0
 15 48  1  0
 22 49  1  0
 23 50  1  0
 24 51  1  0
 25 52  1  0
 27 53  1  0
 28 54  1  0
 30 55  1  0
 35 56  1  0
 36 57  1  0
 37 58  1  0
M  CHG  2   9  -1  18  -1
M  END
>  <UniqueID>  (10) 
9

>  <SMILES>  (10) 
COc1ccc(C(=O)[N-]c2cccc(Cc3n[n-]c(=O)c4ccccc34)c2)cc1NS(=O)(=O)c1cccs1

>  <Energy>  (10) 
107.97889222888813

>  <Genealogy>  (10) 
COc1ccc(C(=O)[N-]c2cccc(Cc3n[n-]c(=O)c4ccccc34)c2)cc1NS(=O)(=O)c1cccs1 (protonated)
COc1ccc(C(=O)[N-]c2cccc(Cc3n[n-]c(=O)c4ccccc34)c2)cc1NS(=O)(=O)c1cccs1 (3D coordinates assigned)
COc1ccc(C(=O)[N-]c2cccc(Cc3n[n-]c(=O)c4ccccc34)c2)cc1NS(=O)(=O)c1cccs1 (optimized conformer: 107.97889222888813 kcal/mol)

>  <smiles>  (10) 
COc1ccc(C(=O)Nc2cccc(Cc3n[nH]c(=O)c4ccccc34)c2)cc1NS(=O)(=O)c1cccs1

>  <score_type>  (10) 
oracle

>  <origin>  (10) 
adg

>  <m_score__min__energy>  (10) 
-14.199999999999999

>  <m_primary>  (10) 
energy

$$$$
10:0
     RDKit          3D

 35 37  0  0  0  0  0  0  0  0999 V2000
   58.6380   33.5890   45.5670 C   0  0  0  0  0  0  0  0  0  0  0  0
   58.6140   32.1320   45.6900 N   0  0  0  0  0  0  0  0  0  0  0  0
   59.3840   31.4800   46.7170 C   0  0  0  0  0  0  0  0  0  0  0  0
   60.7850   31.6110   46.7500 C   0  0  0  0  0  0  0  0  0  0  0  0
   61.5310   30.9830   47.7520 C   0  0  0  0  0  0  0  0  0  0  0  0
   60.8880   30.2220   48.7310 C   0  0  0  0  0  0  0  0  0  0  0  0
   59.4980   30.0900   48.7120 C   0  0  0  0  0  0  0  0  0  0  0  0
   58.7470   30.7160   47.7120 C   0  0  0  0  0  0  0  0  0  0  0  0
   57.6980   31.2000   44.5400 S   0  0  0  0  0  0  0  0  0  0  0  0
   56.2700   31.6710   44.5570 O   0  0  0  0  0  0  0  0  0  0  0  0
   58.2620   31.3790   43.1590 O   0  0  0  0  0  0  0  0  0  0  0  0
   57.7920   29.4900   44.9540 C   0  0  0  0  0  0  0  0  0  0  0  0
   59.0190   28.8220   44.8590 C   0  0  0  0  0  0  0  0  0  0  0  0
   59.1120   27.4690   45.1950 C   0  0  0  0  0  0  0  0  0  0  0  0
   57.9770   26.7740   45.6270 C   0  0  0  0  0  0  0  0  0  0  0  0
   56.7320   27.4280   45.6770 C   0  0  0  0  0  0  0  0  0  0  0  0
   56.6470   28.7880   45.3580 C   0  0  0  0  0  0  0  0  0  0  0  0
   55.5330   26.6970   45.9590 N   0  0  0  0  0  0  0  0  0  0  0  0
   55.4650   25.2710   45.8560 C   0  0  0  0  0  0  0  0  0  0  0  0
   54.3960   24.6750   46.1540 O   0  0  0  0  0  0  0  0  0  0  0  0
   56.6410   24.4950   45.3470 C   0  0  0  0  0  0  0  0  0  0  0  0
   58.1430   25.0730   46.1950 S   0  0  0  0  0  0  0  0  0  0  0  0
   58.6455   34.0415   46.5696 H   0  0  0  0  0  0  0  0  0  0  0  0
   59.5413   33.8959   45.0195 H   0  0  0  0  0  0  0  0  0  0  0  0
   57.7453   33.9255   45.0195 H   0  0  0  0  0  0  0  0  0  0  0  0
   61.2961   32.2111   45.9828 H   0  0  0  0  0  0  0  0  0  0  0  0
   62.6258   31.0884   47.7693 H   0  0  0  0  0  0  0  0  0  0  0  0
   61.4767   29.7266   49.5171 H   0  0  0  0  0  0  0  0  0  0  0  0
   58.9927   29.4925   49.4851 H   0  0  0  0  0  0  0  0  0  0  0  0
   57.6521   30.6105   47.7033 H   0  0  0  0  0  0  0  0  0  0  0  0
   59.9132   29.3646   44.5185 H   0  0  0  0  0  0  0  0  0  0  0  0
   60.0787   26.9495   45.1198 H   0  0  0  0  0  0  0  0  0  0  0  0
   55.6798   29.3077   45.4243 H   0  0  0  0  0  0  0  0  0  0  0  0
   56.4920   23.4241   45.5495 H   0  0  0  0  0  0  0  0  0  0  0  0
   56.7449   24.6460   44.2624 H   0  0  0  0  0  0  0  0  0  0  0  0
  1  2  1  0
  2  3  1  0
  3  4  2  0
  4  5  1  0
  5  6  2  0
  6  7  1  0
  7  8  2  0
  2  9  1  0
  9 10  2  0
  9 11  2  0
  9 12  1  0
 12 13  2  0
 13 14  1  0
 14 15  2  0
 15 16  1  0
 16 17  2  0
 16 18  1  0
 18 19  1  0
 19 20  2  0
 19 21  1  0
 21 22  1  0
  8  3  1  0
 17 12  1  0
 22 15  1  0
  1 23  1  0
  1 24  1  0
  1 25  1  0
  4 26  1  0
  5 27  1  0
  6 28  1  0
  7 29  1  0
  8 30  1  0
 13 31  1  0
 14 32  1  0
 17 33  1  0
 21 34  1  0
 21 35  1  0
M  CHG  1  18  -1
M  END
>  <UniqueID>  (11) 
10

>  <SMILES>  (11) 
CN(c1ccccc1)S(=O)(=O)c1ccc2c(c1)[N-]C(=O)CS2

>  <Energy>  (11) 
45.83958498472014

>  <Genealogy>  (11) 
CN(c1ccccc1)S(=O)(=O)c1ccc2c(c1)[N-]C(=O)CS2 (protonated)
CN(c1ccccc1)S(=O)(=O)c1ccc2c(c1)[N-]C(=O)CS2 (3D coordinates assigned)
CN(c1ccccc1)S(=O)(=O)c1ccc2c(c1)[N-]C(=O)CS2 (nonaromatic ring conformer: 45.83958498472014 kcal/mol)

>  <smiles>  (11) 
CN(c1ccccc1)S(=O)(=O)c1ccc2c(c1)NC(=O)CS2

>  <score_type>  (11) 
oracle

>  <origin>  (11) 
adg

>  <m_score__min__energy>  (11) 
-10.74

>  <m_primary>  (11) 
energy

$$$$
11:0
     RDKit          3D

 47 50  0  0  0  0  0  0  0  0999 V2000
   66.1840   33.0140   50.2110 C   0  0  0  0  0  0  0  0  0  0  0  0
   64.8250   33.2390   49.6260 C   0  0  0  0  0  0  0  0  0  0  0  0
   64.5730   33.2180   48.3020 N   0  0  0  0  0  0  0  0  0  0  0  0
   63.2580   33.4540   48.1820 C   0  0  0  0  0  0  0  0  0  0  0  0
   62.3720   33.5370   46.7690 S   0  0  0  0  0  0  0  0  0  0  0  0
   60.7480   33.8790   47.1580 C   0  0  0  0  0  0  0  0  0  0  0  0
   59.8260   33.9880   46.2410 N   0  0  0  0  0  0  0  0  0  0  0  0
   59.0980   32.9210   45.6120 C   0  0  0  0  0  0  0  0  0  0  0  0
   58.9970   31.6890   46.2700 C   0  0  0  0  0  0  0  0  0  0  0  0
   58.2580   30.6450   45.7050 C   0  0  0  0  0  0  0  0  0  0  0  0
   57.5950   30.8310   44.4850 C   0  0  0  0  0  0  0  0  0  0  0  0
   56.6530   29.5230   43.7760 S   0  0  0  0  0  0  0  0  0  0  0  0
   55.5180   28.9230   44.9350 N   0  0  0  0  0  0  0  0  0  0  0  0
   57.5730   28.4140   43.3560 O   0  0  0  0  0  0  0  0  0  0  0  0
   55.8970   30.0270   42.5780 O   0  0  0  0  0  0  0  0  0  0  0  0
   57.6590   32.0760   43.8450 C   0  0  0  0  0  0  0  0  0  0  0  0
   58.3980   33.1200   44.4100 C   0  0  0  0  0  0  0  0  0  0  0  0
   60.3990   33.9980   48.4770 N   0  0  0  0  0  0  0  0  0  0  0  0
   61.2520   33.8690   49.5620 C   0  0  0  0  0  0  0  0  0  0  0  0
   60.8040   33.9960   50.7820 N   0  0  0  0  0  0  0  0  0  0  0  0
   59.6260   33.4130   51.3550 C   0  0  0  0  0  0  0  0  0  0  0  0
   59.2940   33.7090   52.6840 C   0  0  0  0  0  0  0  0  0  0  0  0
   58.1850   33.1050   53.2840 C   0  0  0  0  0  0  0  0  0  0  0  0
   57.4170   32.1810   52.5680 C   0  0  0  0  0  0  0  0  0  0  0  0
   57.7640   31.8530   51.2540 C   0  0  0  0  0  0  0  0  0  0  0  0
   58.8720   32.4560   50.6510 C   0  0  0  0  0  0  0  0  0  0  0  0
   62.6400   33.6300   49.3920 C   0  0  0  0  0  0  0  0  0  0  0  0
   63.6530   33.4910   50.3420 C   0  0  0  0  0  0  0  0  0  0  0  0
   63.5200   33.5810   51.8340 C   0  0  0  0  0  0  0  0  0  0  0  0
   66.1170   33.0251   51.3089 H   0  0  0  0  0  0  0  0  0  0  0  0
   66.5702   32.0397   49.8770 H   0  0  0  0  0  0  0  0  0  0  0  0
   66.8636   33.8118   49.8770 H   0  0  0  0  0  0  0  0  0  0  0  0
   65.2550   33.0510   47.5280 H   0  0  0  0  0  0  0  0  0  0  0  0
   59.5016   31.5418   47.2363 H   0  0  0  0  0  0  0  0  0  0  0  0
   58.1971   29.6749   46.2200 H   0  0  0  0  0  0  0  0  0  0  0  0
   54.5890   29.3370   44.6960 H   0  0  0  0  0  0  0  0  0  0  0  0
   57.1263   32.2325   42.8954 H   0  0  0  0  0  0  0  0  0  0  0  0
   58.4315   34.1002   43.9119 H   0  0  0  0  0  0  0  0  0  0  0  0
   59.4000   34.2450   48.6510 H   0  0  0  0  0  0  0  0  0  0  0  0
   59.9082   34.4191   53.2571 H   0  0  0  0  0  0  0  0  0  0  0  0
   57.9161   33.3568   54.3205 H   0  0  0  0  0  0  0  0  0  0  0  0
   56.5401   31.7125   53.0387 H   0  0  0  0  0  0  0  0  0  0  0  0
   57.1648   31.1199   50.6941 H   0  0  0  0  0  0  0  0  0  0  0  0
   59.1549   32.1817   49.6240 H   0  0  0  0  0  0  0  0  0  0  0  0
   64.3415   33.0251   52.3095 H   0  0  0  0  0  0  0  0  0  0  0  0
   63.5639   34.6358   52.1431 H   0  0  0  0  0  0  0  0  0  0  0  0
   62.5572   33.1481   52.1431 H   0  0  0  0  0  0  0  0  0  0  0  0
  1  2  1  0
  2  3  1  0
  3  4  1  0
  4  5  1  0
  5  6  1  0
  6  7  2  3
  7  8  1  0
  8  9  2  0
  9 10  1  0
 10 11  2  0
 11 12  1  0
 12 13  1  0
 12 14  2  0
 12 15  2  0
 11 16  1  0
 16 17  2  0
  6 18  1  0
 18 19  1  0
 19 20  2  3
 20 21  1  0
 21 22  2  0
 22 23  1  0
 23 24  2  0
 24 25  1  0
 25 26  2  0
 19 27  1  0
 27 28  1  0
 28 29  1  0
 28  2  2  0
 27  4  2  0
 17  8  1  0
 26 21  1  0
  1 30  1  0
  1 31  1  0
  1 32  1  0
  3 33  1  0
  9 34  1  0
 10 35  1  0
 13 36  1  0
 16 37  1  0
 17 38  1  0
 18 39  1  0
 22 40  1  0
 23 41  1  0
 24 42  1  0
 25 43  1  0
 26 44  1  0
 29 45  1  0
 29 46  1  0
 29 47  1  0
M  CHG  1  13  -1
M  END
>  <UniqueID>  (12) 
11

>  <SMILES>  (12) 
Cc1[nH]c2sc(=Nc3ccc(S([NH-])(=O)=O)cc3)[nH]c(=Nc3ccccc3)c2c1C

>  <Energy>  (12) 
104.39386524462418

>  <Genealogy>  (12) 
Cc1[nH]c2sc(=Nc3ccc(S([NH-])(=O)=O)cc3)[nH]c(=Nc3ccccc3)c2c1C (protonated)
Cc1[nH]c2sc(=Nc3ccc(S([NH-])(=O)=O)cc3)[nH]c(=Nc3ccccc3)c2c1C (3D coordinates assigned)
Cc1[nH]c2sc(=Nc3ccc(S([NH-])(=O)=O)cc3)[nH]c(=Nc3ccccc3)c2c1C (optimized conformer: 104.39386524462418 kcal/mol)

>  <smiles>  (12) 
Cc1[nH]c2sc(=Nc3ccc(S(N)(=O)=O)cc3)[nH]c(=Nc3ccccc3)c2c1C

>  <score_type>  (12) 
oracle

>  <origin>  (12) 
adg

>  <m_score__min__energy>  (12) 
-12.19

>  <m_primary>  (12) 
energy

$$$$
12:0
     RDKit          3D

 33 34  0  0  0  0  0  0  0  0999 V2000
   55.5200   29.0380   45.1610 N   0  0  0  0  0  0  0  0  0  0  0  0
   56.7110   29.4630   43.9820 S   0  0  0  0  0  0  0  0  0  0  0  0
   56.0590   29.5810   42.6330 O   0  0  0  0  0  0  0  0  0  0  0  0
   57.7600   28.3890   43.9170 O   0  0  0  0  0  0  0  0  0  0  0  0
   57.4530   30.9970   44.4230 C   0  0  0  0  0  0  0  0  0  0  0  0
   58.0860   31.1410   45.6660 C   0  0  0  0  0  0  0  0  0  0  0  0
   58.6630   32.3630   46.0240 C   0  0  0  0  0  0  0  0  0  0  0  0
   58.6180   33.4530   45.1410 C   0  0  0  0  0  0  0  0  0  0  0  0
   59.2120   34.7790   45.5420 C   0  0  0  0  0  0  0  0  0  0  0  0
   60.0290   34.6620   46.8340 C   0  0  0  0  0  0  0  0  0  0  0  0
   59.1540   34.5190   48.0020 N   0  0  0  0  0  0  0  0  0  0  0  0
   59.8470   33.4520   49.1870 S   0  0  0  0  0  0  0  0  0  0  0  0
   59.8900   34.1270   50.5300 O   0  0  0  0  0  0  0  0  0  0  0  0
   58.9990   32.2170   49.2970 O   0  0  0  0  0  0  0  0  0  0  0  0
   61.4680   32.9890   48.7030 C   0  0  0  0  0  0  0  0  0  0  0  0
   62.6430   33.6140   49.0900 C   0  0  0  0  0  0  0  0  0  0  0  0
   63.7820   33.0320   48.5200 C   0  0  0  0  0  0  0  0  0  0  0  0
   63.5000   31.9550   47.6890 C   0  0  0  0  0  0  0  0  0  0  0  0
   61.8340   31.7270   47.6590 S   0  0  0  0  0  0  0  0  0  0  0  0
   57.9690   33.3110   43.9050 C   0  0  0  0  0  0  0  0  0  0  0  0
   57.3910   32.0890   43.5480 C   0  0  0  0  0  0  0  0  0  0  0  0
   54.5930   29.3210   44.7730 H   0  0  0  0  0  0  0  0  0  0  0  0
   58.1287   30.2898   46.3615 H   0  0  0  0  0  0  0  0  0  0  0  0
   59.1545   32.4707   47.0022 H   0  0  0  0  0  0  0  0  0  0  0  0
   59.8691   35.1349   44.7348 H   0  0  0  0  0  0  0  0  0  0  0  0
   58.3884   35.4866   45.7178 H   0  0  0  0  0  0  0  0  0  0  0  0
   60.6840   33.7809   46.7661 H   0  0  0  0  0  0  0  0  0  0  0  0
   60.6246   35.5789   46.9544 H   0  0  0  0  0  0  0  0  0  0  0  0
   62.6772   34.4759   49.7726 H   0  0  0  0  0  0  0  0  0  0  0  0
   64.8031   33.3933   48.7120 H   0  0  0  0  0  0  0  0  0  0  0  0
   64.2412   31.3530   47.1429 H   0  0  0  0  0  0  0  0  0  0  0  0
   57.9147   34.1650   43.2138 H   0  0  0  0  0  0  0  0  0  0  0  0
   56.8857   31.9848   42.5765 H   0  0  0  0  0  0  0  0  0  0  0  0
  1  2  1  0
  2  3  2  0
  2  4  2  0
  2  5  1  0
  5  6  2  0
  6  7  1  0
  7  8  2  0
  8  9  1  0
  9 10  1  0
 10 11  1  0
 11 12  1  0
 12 13  2  0
 12 14  2  0
 12 15  1  0
 15 16  2  0
 16 17  1  0
 17 18  2  0
 18 19  1  0
  8 20  1  0
 20 21  2  0
 21  5  1  0
 19 15  1  0
  1 22  1  0
  6 23  1  0
  7 24  1  0
  9 25  1  0
  9 26  1  0
 10 27  1  0
 10 28  1  0
 16 29  1  0
 17 30  1  0
 18 31  1  0
 20 32  1  0
 21 33  1  0
M  CHG  2   1  -1  11  -1
M  END
>  <UniqueID>  (13) 
12

>  <SMILES>  (13) 
[NH-]S(=O)(=O)c1ccc(CC[N-]S(=O)(=O)c2cccs2)cc1

>  <Energy>  (13) 
56.29908804754556

>  <Genealogy>  (13) 
[NH-]S(=O)(=O)c1ccc(CC[N-]S(=O)(=O)c2cccs2)cc1 (protonated)
[NH-]S(=O)(=O)c1ccc(CC[N-]S(=O)(=O)c2cccs2)cc1 (3D coordinates assigned)
[NH-]S(=O)(=O)c1ccc(CC[N-]S(=O)(=O)c2cccs2)cc1 (optimized conformer: 56.29908804754556 kcal/mol)

>  <smiles>  (13) 
NS(=O)(=O)c1ccc(CCNS(=O)(=O)c2cccs2)cc1

>  <score_type>  (13) 
oracle

>  <origin>  (13) 
adg

>  <m_score__min__energy>  (13) 
-11.630000000000001

>  <m_primary>  (13) 
energy

$$$$
13:0
     RDKit          3D

 49 52  0  0  0  0  0  0  0  0999 V2000
   60.7620   26.3690   46.7790 C   0  0  0  0  0  0  0  0  0  0  0  0
   59.7560   27.2430   46.0790 C   0  0  0  0  0  0  0  0  0  0  0  0
   60.2080   28.2710   45.2360 C   0  0  0  0  0  0  0  0  0  0  0  0
   59.2990   29.0900   44.5620 C   0  0  0  0  0  0  0  0  0  0  0  0
   57.9230   28.8920   44.7220 C   0  0  0  0  0  0  0  0  0  0  0  0
   56.7670   29.8640   43.8090 S   0  0  0  0  0  0  0  0  0  0  0  0
   55.5180   30.0970   44.6110 O   0  0  0  0  0  0  0  0  0  0  0  0
   56.4120   29.1300   42.5470 O   0  0  0  0  0  0  0  0  0  0  0  0
   57.4740   31.3990   43.4060 N   0  0  0  0  0  0  0  0  0  0  0  0
   57.9180   32.3490   44.3920 C   0  0  0  0  0  0  0  0  0  0  0  0
   57.2850   33.5960   44.4790 C   0  0  0  0  0  0  0  0  0  0  0  0
   57.7280   34.5550   45.3930 C   0  0  0  0  0  0  0  0  0  0  0  0
   58.8120   34.2830   46.2430 C   0  0  0  0  0  0  0  0  0  0  0  0
   59.2710   35.3410   47.2080 C   0  0  0  0  0  0  0  0  0  0  0  0
   59.4630   33.0340   46.1530 C   0  0  0  0  0  0  0  0  0  0  0  0
   60.6140   32.7320   46.9500 N   0  0  0  0  0  0  0  0  0  0  0  0
   62.0860   33.5140   46.8570 S   0  0  0  0  0  0  0  0  0  0  0  0
   62.8420   32.7360   48.1250 C   0  0  0  0  0  0  0  0  0  0  0  0
   64.1250   32.8980   48.6370 C   0  0  0  0  0  0  0  0  0  0  0  0
   64.4910   32.1140   49.7430 C   0  0  0  0  0  0  0  0  0  0  0  0
   63.5730   31.2030   50.3070 C   0  0  0  0  0  0  0  0  0  0  0  0
   62.2780   31.0660   49.7710 C   0  0  0  0  0  0  0  0  0  0  0  0
   61.9240   31.8440   48.6650 C   0  0  0  0  0  0  0  0  0  0  0  0
   60.6820   31.8670   48.0000 C   0  0  0  0  0  0  0  0  0  0  0  0
   59.6970   31.1640   48.3600 O   0  0  0  0  0  0  0  0  0  0  0  0
   58.9890   32.0660   45.2570 C   0  0  0  0  0  0  0  0  0  0  0  0
   57.4620   27.8760   45.5670 C   0  0  0  0  0  0  0  0  0  0  0  0
   58.3650   27.0380   46.2430 C   0  0  0  0  0  0  0  0  0  0  0  0
   57.8350   25.9470   47.1340 C   0  0  0  0  0  0  0  0  0  0  0  0
   60.6430   26.4724   47.8676 H   0  0  0  0  0  0  0  0  0  0  0  0
   60.6000   25.3200   46.4904 H   0  0  0  0  0  0  0  0  0  0  0  0
   61.7781   26.6760   46.4904 H   0  0  0  0  0  0  0  0  0  0  0  0
   61.2881   28.4329   45.1051 H   0  0  0  0  0  0  0  0  0  0  0  0
   59.6655   29.8920   43.9043 H   0  0  0  0  0  0  0  0  0  0  0  0
   57.7040   31.5650   42.4010 H   0  0  0  0  0  0  0  0  0  0  0  0
   56.4321   33.8217   43.8221 H   0  0  0  0  0  0  0  0  0  0  0  0
   57.2236   35.5310   45.4473 H   0  0  0  0  0  0  0  0  0  0  0  0
   59.1180   34.9884   48.2387 H   0  0  0  0  0  0  0  0  0  0  0  0
   60.3393   35.5468   47.0456 H   0  0  0  0  0  0  0  0  0  0  0  0
   58.6914   36.2617   47.0456 H   0  0  0  0  0  0  0  0  0  0  0  0
   64.8290   33.6158   48.1908 H   0  0  0  0  0  0  0  0  0  0  0  0
   65.4992   32.2106   50.1722 H   0  0  0  0  0  0  0  0  0  0  0  0
   63.8716   30.5943   51.1732 H   0  0  0  0  0  0  0  0  0  0  0  0
   61.5593   30.3608   50.2139 H   0  0  0  0  0  0  0  0  0  0  0  0
   59.4610   31.0727   45.2305 H   0  0  0  0  0  0  0  0  0  0  0  0
   56.3801   27.7318   45.7036 H   0  0  0  0  0  0  0  0  0  0  0  0
   57.9742   26.2335   48.1869 H   0  0  0  0  0  0  0  0  0  0  0  0
   56.7639   25.7975   46.9332 H   0  0  0  0  0  0  0  0  0  0  0  0
   58.3796   25.0126   46.9332 H   0  0  0  0  0  0  0  0  0  0  0  0
  1  2  1  0
  2  3  2  0
  3  4  1  0
  4  5  2  0
  5  6  1  0
  6  7  2  0
  6  8  2  0
  6  9  1  0
  9 10  1  0
 10 11  2  0
 11 12  1  0
 12 13  2  0
 13 14  1  0
 13 15  1  0
 15 16  1  0
 16 17  1  0
 17 18  1  0
 18 19  2  0
 19 20  1  0
 20 21  2  0
 21 22  1  0
 22 23  2  0
 23 24  1  0
 24 25  2  0
 15 26  2  0
  5 27  1  0
 27 28  2  0
 28 29  1  0
 28  2  1  0
 26 10  1  0
 24 16  1  0
 23 18  1  0
  1 30  1  0
  1 31  1  0
  1 32  1  0
  3 33  1  0
  4 34  1  0
  9 35  1  0
 11 36  1  0
 12 37  1  0
 14 38  1  0
 14 39  1  0
 14 40  1  0
 19 41  1  0
 20 42  1  0
 21 43  1  0
 22 44  1  0
 26 45  1  0
 27 46  1  0
 29 47  1  0
 29 48  1  0
 29 49  1  0
M  END
>  <UniqueID>  (14) 
13

>  <SMILES>  (14) 
Cc1ccc(S(=O)(=O)Nc2ccc(C)c(-n3sc4ccccc4c3=O)c2)cc1C

>  <Energy>  (14) 
101.40816773301927

>  <Genealogy>  (14) 
Cc1ccc(S(=O)(=O)Nc2ccc(C)c(-n3sc4ccccc4c3=O)c2)cc1C (3D coordinates assigned)
Cc1ccc(S(=O)(=O)Nc2ccc(C)c(-n3sc4ccccc4c3=O)c2)cc1C (optimized conformer: 101.40816773301927 kcal/mol)

>  <smiles>  (14) 
Cc1ccc(S(=O)(=O)Nc2ccc(C)c(-n3sc4ccccc4c3=O)c2)cc1C

>  <score_type>  (14) 
oracle

>  <origin>  (14) 
adg

>  <m_score__min__energy>  (14) 
-9.9700000000000006

>  <m_primary>  (14) 
energy

$$$$
14:0
     RDKit          3D

 30 33  0  0  0  0  0  0  0  0999 V2000
   59.5969   33.4020   45.4276 H   0  0  0  0  0  0  0  0  0  0  0  0
   58.9030   32.5530   45.3400 C   0  0  0  0  0  0  0  0  0  0  0  0
   57.7140   32.6980   44.6210 C   0  0  0  0  0  0  0  0  0  0  0  0
   57.4756   33.6609   44.1455 H   0  0  0  0  0  0  0  0  0  0  0  0
   56.8250   31.6240   44.5030 C   0  0  0  0  0  0  0  0  0  0  0  0
   55.8904   31.7441   43.9354 H   0  0  0  0  0  0  0  0  0  0  0  0
   57.1250   30.3920   45.1090 C   0  0  0  0  0  0  0  0  0  0  0  0
   56.2630   29.2800   45.0210 C   0  0  0  0  0  0  0  0  0  0  0  0
   55.1750   29.3460   44.3850 O   0  0  0  0  0  0  0  0  0  0  0  0
   56.6260   28.1230   45.6370 N   0  0  0  0  0  0  0  0  0  0  0  0
   55.9050   27.0030   45.6250 N   0  0  0  0  0  0  0  0  0  0  0  0
   56.4990   26.0060   46.3230 C   0  0  0  0  0  0  0  0  0  0  0  0
   55.9780   24.8170   46.3990 N   0  0  0  0  0  0  0  0  0  0  0  0
   56.5600   23.5960   45.9170 C   0  0  0  0  0  0  0  0  0  0  0  0
   56.2600   22.3970   46.5720 C   0  0  0  0  0  0  0  0  0  0  0  0
   55.5620   22.3906   47.4222 H   0  0  0  0  0  0  0  0  0  0  0  0
   56.8520   21.2080   46.1400 C   0  0  0  0  0  0  0  0  0  0  0  0
   56.6075   20.2599   46.6413 H   0  0  0  0  0  0  0  0  0  0  0  0
   57.7310   21.2190   45.1000 N   0  0  0  0  0  0  0  0  0  0  0  0
   58.1680   20.3220   44.7910 H   0  0  0  0  0  0  0  0  0  0  0  0
   58.0660   22.3770   44.4680 C   0  0  0  0  0  0  0  0  0  0  0  0
   58.7887   22.3601   43.6389 H   0  0  0  0  0  0  0  0  0  0  0  0
   57.4950   23.5860   44.8690 C   0  0  0  0  0  0  0  0  0  0  0  0
   57.7753   24.5242   44.3678 H   0  0  0  0  0  0  0  0  0  0  0  0
   57.9960   26.4900   46.9790 S   0  0  0  0  0  0  0  0  0  0  0  0
   57.7850   28.0220   46.3230 C   0  0  0  0  0  0  0  0  0  0  0  0
   58.6440   29.0630   46.4340 N   0  0  0  0  0  0  0  0  0  0  0  0
   58.3360   30.2500   45.8400 C   0  0  0  0  0  0  0  0  0  0  0  0
   59.2150   31.3330   45.9490 C   0  0  0  0  0  0  0  0  0  0  0  0
   60.1525   31.2250   46.5142 H   0  0  0  0  0  0  0  0  0  0  0  0
  1  2  1  0
  2  3  2  0
  3  4  1  0
  3  5  1  0
  5  6  1  0
  5  7  2  0
  7  8  1  0
  8  9  2  0
  8 10  1  0
 10 11  1  0
 11 12  1  0
 12 13  2  0
 13 14  1  0
 14 15  2  0
 15 16  1  0
 15 17  1  0
 17 18  1  0
 17 19  2  0
 19 20  1  0
 19 21  1  0
 21 22  1  0
 21 23  2  0
 23 24  1  0
 12 25  1  0
 25 26  1  0
 26 27  2  0
 27 28  1  0
 28 29  2  0
 29 30  1  0
 29  2  1  0
 28  7  1  0
 26 10  1  0
 23 14  1  0
M  CHG  2  11  -1  19   1
M  END
>  <UniqueID>  (15) 
14

>  <SMILES>  (15) 
O=c1c2ccccc2nc2s/c(=N\c3cc[nH+]cc3)[n-]n12

>  <Energy>  (15) 
84.4252144041801

>  <Genealogy>  (15) 
O=c1c2ccccc2nc2sc(=Nc3cc[nH+]cc3)[n-]n12 (protonated)
O=c1c2ccccc2nc2s/c(=N\c3cc[nH+]cc3)[n-]n12 (cis-trans isomerization)
O=c1c2ccccc2nc2s/c(=N\c3cc[nH+]cc3)[n-]n12 (3D coordinates assigned)
O=c1c2ccccc2nc2s/c(=N\c3cc[nH+]cc3)[n-]n12 (optimized conformer: 84.4252144041801 kcal/mol)

>  <smiles>  (15) 
O=c1c2ccccc2nc2sc(=Nc3ccncc3)[nH]n12

>  <score_type>  (15) 
oracle

>  <origin>  (15) 
adg

>  <m_score__min__energy>  (15) 
-7.9100000000000001

>  <m_primary>  (15) 
energy

$$$$
15:0
     RDKit          3D

 29 32  0  0  0  0  0  0  0  0999 V2000
   55.9620   26.2050   46.2950 O   0  0  0  0  0  0  0  0  0  0  0  0
   56.6560   27.0740   45.7030 C   0  0  0  0  0  0  0  0  0  0  0  0
   58.0490   26.9450   45.4930 N   0  0  0  0  0  0  0  0  0  0  0  0
   58.4070   28.1360   44.8090 C   0  0  0  0  0  0  0  0  0  0  0  0
   59.5850   28.3970   44.4480 O   0  0  0  0  0  0  0  0  0  0  0  0
   57.2190   29.0320   44.5830 C   0  0  2  0  0  0  0  0  0  0  0  0
   56.9650   29.3660   43.0820 C   0  0  0  0  0  0  0  0  0  0  0  0
   57.2490   30.8820   42.8960 C   0  0  0  0  0  0  0  0  0  0  0  0
   57.3870   31.3580   44.2880 C   0  0  0  0  0  0  0  0  0  0  0  0
   57.3770   30.3660   45.2000 C   0  0  0  0  0  0  0  0  0  0  0  0
   57.9570   30.7260   46.3660 N   0  0  0  0  0  0  0  0  0  0  0  0
   58.3280   32.0110   46.1620 C   0  0  0  0  0  0  0  0  0  0  0  0
   59.0720   32.8180   47.0220 C   0  0  0  0  0  0  0  0  0  0  0  0
   59.4840   34.0780   46.5490 C   0  0  0  0  0  0  0  0  0  0  0  0
   59.1780   34.4880   45.2320 C   0  0  0  0  0  0  0  0  0  0  0  0
   58.4490   33.6460   44.3720 C   0  0  0  0  0  0  0  0  0  0  0  0
   58.0170   32.4250   44.8820 C   0  0  0  0  0  0  0  0  0  0  0  0
   56.1180   28.2840   45.1850 N   0  0  0  0  0  0  0  0  0  0  0  0
   58.6730   26.1590   45.7810 H   0  0  0  0  0  0  0  0  0  0  0  0
   57.6393   28.7750   42.4448 H   0  0  0  0  0  0  0  0  0  0  0  0
   55.9305   29.1240   42.7971 H   0  0  0  0  0  0  0  0  0  0  0  0
   58.1761   31.0453   42.3269 H   0  0  0  0  0  0  0  0  0  0  0  0
   56.4657   31.4073   42.3299 H   0  0  0  0  0  0  0  0  0  0  0  0
   58.1970   30.1130   47.1760 H   0  0  0  0  0  0  0  0  0  0  0  0
   59.3286   32.4808   48.0371 H   0  0  0  0  0  0  0  0  0  0  0  0
   60.0497   34.7500   47.2111 H   0  0  0  0  0  0  0  0  0  0  0  0
   59.5124   35.4736   44.8760 H   0  0  0  0  0  0  0  0  0  0  0  0
   58.2288   33.9416   43.3356 H   0  0  0  0  0  0  0  0  0  0  0  0
   55.1210   28.5880   45.2470 H   0  0  0  0  0  0  0  0  0  0  0  0
  1  2  2  0
  2  3  1  0
  3  4  1  0
  4  5  2  0
  4  6  1  0
  6  7  1  0
  7  8  1  0
  8  9  1  0
  9 10  2  0
 10 11  1  0
 11 12  1  0
 12 13  2  0
 13 14  1  0
 14 15  2  0
 15 16  1  0
 16 17  2  0
  6 18  1  1
 18  2  1  0
 10  6  1  0
 17 12  1  0
 17  9  1  0
  3 19  1  0
  7 20  1  0
  7 21  1  0
  8 22  1  0
  8 23  1  0
 11 24  1  0
 13 25  1  0
 14 26  1  0
 15 27  1  0
 16 28  1  0
 18 29  1  0
M  END
>  <UniqueID>  (16) 
15

>  <SMILES>  (16) 
O=C1NC(=O)[C@@]2(CCc3c2[nH]c2ccccc32)N1

>  <Energy>  (16) 
107.4701415391628

>  <Genealogy>  (16) 
O=C1NC(=O)[C@@]2(CCc3c2[nH]c2ccccc32)N1 (chirality)
O=C1NC(=O)[C@@]2(CCc3c2[nH]c2ccccc32)N1 (3D coordinates assigned)
O=C1NC(=O)[C@@]2(CCc3c2[nH]c2ccccc32)N1 (nonaromatic ring conformer: 107.4701415391628 kcal/mol)

>  <smiles>  (16) 
O=C1NC(=O)C2(CCc3c2[nH]c2ccccc32)N1

>  <score_type>  (16) 
oracle

>  <origin>  (16) 
adg

>  <m_score__min__energy>  (16) 
-7.79

>  <m_primary>  (16) 
energy

$$$$
16:0
     RDKit          3D

 65 67  0  0  1  0  0  0  0  0999 V2000
   56.8600   33.6870   45.6630 C   0  0  0  0  0  0  0  0  0  0  0  0
   58.1310   34.2170   45.0830 C   0  0  0  0  0  0  0  0  0  0  0  0
   58.5350   33.4230   43.8450 C   0  0  0  0  0  0  0  0  0  0  0  0
   59.2460   34.2090   45.9760 N   0  0  0  0  0  0  0  0  0  0  0  0
   59.6430   35.4890   46.5710 C   0  0  0  0  0  0  0  0  0  0  0  0
   59.9960   33.0580   46.3280 C   0  0  0  0  0  0  0  0  0  0  0  0
   61.3020   33.2090   46.7630 C   0  0  0  0  0  0  0  0  0  0  0  0
   62.0060   32.0700   47.0980 C   0  0  0  0  0  0  0  0  0  0  0  0
   63.2260   32.1050   47.5140 N   0  0  0  0  0  0  0  0  0  0  0  0
   63.5010   32.6940   48.7820 C   0  0  0  0  0  0  0  0  0  0  0  0
   62.8530   33.8180   49.2490 C   0  0  0  0  0  0  0  0  0  0  0  0
   63.2240   34.2760   50.4970 C   0  0  0  0  0  0  0  0  0  0  0  0
   64.1890   33.6720   51.2710 C   0  0  0  0  0  0  0  0  0  0  0  0
   64.5550   34.1450   52.5330 O   0  0  0  0  0  0  0  0  0  0  0  0
   65.4110   35.2940   52.5290 C   0  0  0  0  0  0  0  0  0  0  0  0
   64.6080   36.3630   52.1290 F   0  0  0  0  0  0  0  0  0  0  0  0
   66.3960   35.0330   51.5780 F   0  0  0  0  0  0  0  0  0  0  0  0
   65.9740   35.5290   53.7480 F   0  0  0  0  0  0  0  0  0  0  0  0
   64.8110   32.5640   50.7830 C   0  0  0  0  0  0  0  0  0  0  0  0
   64.4860   32.0560   49.5430 C   0  0  0  0  0  0  0  0  0  0  0  0
   61.3980   30.8650   46.9890 N   0  0  0  0  0  0  0  0  0  0  0  0
   60.1270   30.7370   46.5650 C   0  0  0  0  0  0  0  0  0  0  0  0
   59.5010   29.4470   46.4560 N   0  0  0  0  0  0  0  0  0  0  0  0
   58.9750   29.0800   45.1810 C   0  0  0  0  0  0  0  0  0  0  0  0
   58.4840   27.6620   45.1360 C   0  0  0  0  0  0  0  0  0  0  0  0
   57.6920   27.4600   46.4120 C   0  0  0  0  0  0  0  0  0  0  0  0
   56.8380   26.2530   46.3410 C   0  0  0  0  0  0  0  0  0  0  0  0
   55.6090   26.3810   46.0840 O   0  0  0  0  0  0  0  0  0  0  0  0
   57.4610   24.9960   46.5700 N   0  0  0  0  0  0  0  0  0  0  0  0
   56.4630   23.5910   46.4880 S   0  0  0  0  0  0  0  0  0  0  0  0
   56.5270   22.9310   44.8450 C   0  0  0  0  0  0  0  0  0  0  0  0
   55.0510   23.8750   46.9090 O   0  0  0  0  0  0  0  0  0  0  0  0
   57.0210   22.5690   47.4670 O   0  0  0  0  0  0  0  0  0  0  0  0
   58.7270   27.3660   47.5100 C   0  0  0  0  0  0  0  0  0  0  0  0
   59.4640   28.6460   47.6480 C   0  0  0  0  0  0  0  0  0  0  0  0
   59.4060   31.8460   46.2260 N   0  0  0  0  0  0  0  0  0  0  0  0
   56.9197   33.7119   46.7611 H   0  0  0  0  0  0  0  0  0  0  0  0
   56.0167   34.3084   45.3274 H   0  0  0  0  0  0  0  0  0  0  0  0
   56.7080   32.6505   45.3274 H   0  0  0  0  0  0  0  0  0  0  0  0
   57.8992   35.2652   44.8431 H   0  0  0  0  0  0  0  0  0  0  0  0
   59.0139   32.4819   44.1531 H   0  0  0  0  0  0  0  0  0  0  0  0
   57.6408   33.2000   43.2445 H   0  0  0  0  0  0  0  0  0  0  0  0
   59.2417   34.0145   43.2445 H   0  0  0  0  0  0  0  0  0  0  0  0
   59.6176   35.4071   47.6677 H   0  0  0  0  0  0  0  0  0  0  0  0
   60.6624   35.7440   46.2459 H   0  0  0  0  0  0  0  0  0  0  0  0
   58.9468   36.2761   46.2459 H   0  0  0  0  0  0  0  0  0  0  0  0
   61.7635   34.2046   46.8391 H   0  0  0  0  0  0  0  0  0  0  0  0
   62.0779   34.3251   48.6556 H   0  0  0  0  0  0  0  0  0  0  0  0
   62.7222   35.1707   50.8941 H   0  0  0  0  0  0  0  0  0  0  0  0
   65.5843   32.0665   51.3867 H   0  0  0  0  0  0  0  0  0  0  0  0
   64.9949   31.1604   49.1572 H   0  0  0  0  0  0  0  0  0  0  0  0
   58.1356   29.7495   44.9420 H   0  0  0  0  0  0  0  0  0  0  0  0
   59.7918   29.1691   44.4496 H   0  0  0  0  0  0  0  0  0  0  0  0
   57.8410   27.5068   44.2571 H   0  0  0  0  0  0  0  0  0  0  0  0
   59.3164   26.9471   45.0581 H   0  0  0  0  0  0  0  0  0  0  0  0
   56.9909   28.2878   46.5941 H   0  0  0  0  0  0  0  0  0  0  0  0
   58.4900   24.9040   46.7840 H   0  0  0  0  0  0  0  0  0  0  0  0
   56.6331   21.8372   44.8931 H   0  0  0  0  0  0  0  0  0  0  0  0
   55.5999   23.1863   44.3109 H   0  0  0  0  0  0  0  0  0  0  0  0
   57.3878   23.3597   44.3109 H   0  0  0  0  0  0  0  0  0  0  0  0
   58.2246   27.1345   48.4608 H   0  0  0  0  0  0  0  0  0  0  0  0
   59.4434   26.5718   47.2531 H   0  0  0  0  0  0  0  0  0  0  0  0
   58.9824   29.2352   48.4423 H   0  0  0  0  0  0  0  0  0  0  0  0
   60.5067   28.3818   47.8782 H   0  0  0  0  0  0  0  0  0  0  0  0
   58.4040   31.7570   45.8890 H   0  0  0  0  0  0  0  0  0  0  0  0
  1  2  1  0
  2  3  1  0
  2  4  1  0
  4  5  1  0
  4  6  1  0
  6  7  2  0
  7  8  1  0
  8  9  2  0
  9 10  1  0
 10 11  2  0
 11 12  1  0
 12 13  2  0
 13 14  1  0
 14 15  1  0
 15 16  1  0
 15 17  1  0
 15 18  1  0
 13 19  1  0
 19 20  2  0
  8 21  1  0
 21 22  2  0
 22 23  1  0
 23 24  1  0
 24 25  1  0
 25 26  1  0
 26 27  1  0
 27 28  2  0
 27 29  1  0
 29 30  1  0
 30 31  1  0
 30 32  2  0
 30 33  2  0
 26 34  1  0
 34 35  1  0
 22 36  1  0
 36  6  1  0
 20 10  1  0
 35 23  1  0
  1 37  1  0
  1 38  1  0
  1 39  1  0
  2 40  1  0
  3 41  1  0
  3 42  1  0
  3 43  1  0
  5 44  1  0
  5 45  1  0
  5 46  1  0
  7 47  1  0
 11 48  1  0
 12 49  1  0
 19 50  1  0
 20 51  1  0
 24 52  1  0
 24 53  1  0
 25 54  1  0
 25 55  1  0
 26 56  1  0
 29 57  1  0
 31 58  1  0
 31 59  1  0
 31 60  1  0
 34 61  1  0
 34 62  1  0
 35 63  1  0
 35 64  1  0
 36 65  1  0
M  END
>  <smiles>  (17) 
CC(C)N(C)c1cc(=Nc2ccc(OC(F)(F)F)cc2)nc(N2CCC(C(=O)NS(C)(=O)=O)CC2)[nH]1

>  <score_type>  (17) 
oracle

>  <origin>  (17) 
adg

>  <m_score__min__energy>  (17) 
-8.4800000000000004

>  <m_primary>  (17) 
energy

$$$$
17:0
     RDKit          3D

 43 46  0  0  0  0  0  0  0  0999 V2000
   60.6230   30.3080   50.7850 C   0  0  0  0  0  0  0  0  0  0  0  0
   60.1460   30.5650   49.3950 C   0  0  0  0  0  0  0  0  0  0  0  0
   60.0810   31.8430   48.9240 N   0  0  0  0  0  0  0  0  0  0  0  0
   59.6110   32.0530   47.6710 C   0  0  0  0  0  0  0  0  0  0  0  0
   59.1950   31.0240   46.8600 C   0  0  0  0  0  0  0  0  0  0  0  0
   59.2580   29.7170   47.3480 C   0  0  0  0  0  0  0  0  0  0  0  0
   58.8790   28.5920   46.5420 N   0  0  0  0  0  0  0  0  0  0  0  0
   59.6860   27.3690   46.5410 C   0  0  0  0  0  0  0  0  0  0  0  0
   58.7660   26.1530   46.6660 C   0  0  0  0  0  0  0  0  0  0  0  0
   57.6190   26.1580   45.6150 C   0  0  0  0  0  0  0  0  0  0  0  0
   56.2810   25.8240   46.2380 C   0  0  0  0  0  0  0  0  0  0  0  0
   55.1180   26.6120   45.9760 N   0  0  0  0  0  0  0  0  0  0  0  0
   56.1840   24.8120   46.9830 O   0  0  0  0  0  0  0  0  0  0  0  0
   57.5350   27.4590   44.7800 C   0  0  0  0  0  0  0  0  0  0  0  0
   57.7490   28.7320   45.6140 C   0  0  0  0  0  0  0  0  0  0  0  0
   59.7360   29.5210   48.6120 N   0  0  0  0  0  0  0  0  0  0  0  0
   58.8180   31.5350   45.4930 C   0  0  0  0  0  0  0  0  0  0  0  0
   59.0800   33.0060   45.6690 C   0  0  0  0  0  0  0  0  0  0  0  0
   58.9160   34.0220   44.7250 C   0  0  0  0  0  0  0  0  0  0  0  0
   59.2270   35.3400   45.0970 C   0  0  0  0  0  0  0  0  0  0  0  0
   59.6960   35.6240   46.3970 C   0  0  0  0  0  0  0  0  0  0  0  0
   59.8570   34.5910   47.3350 C   0  0  0  0  0  0  0  0  0  0  0  0
   59.5360   33.2940   46.9410 C   0  0  0  0  0  0  0  0  0  0  0  0
   59.8896   30.7032   51.5033 H   0  0  0  0  0  0  0  0  0  0  0  0
   60.7396   29.2250   50.9383 H   0  0  0  0  0  0  0  0  0  0  0  0
   61.5916   30.8064   50.9383 H   0  0  0  0  0  0  0  0  0  0  0  0
   60.2536   27.3046   45.6010 H   0  0  0  0  0  0  0  0  0  0  0  0
   60.3853   27.3895   47.3899 H   0  0  0  0  0  0  0  0  0  0  0  0
   59.3663   25.2417   46.5276 H   0  0  0  0  0  0  0  0  0  0  0  0
   58.3032   26.1874   47.6633 H   0  0  0  0  0  0  0  0  0  0  0  0
   57.8797   25.3593   44.9050 H   0  0  0  0  0  0  0  0  0  0  0  0
   55.1620   27.4680   45.3830 H   0  0  0  0  0  0  0  0  0  0  0  0
   54.2010   26.3470   46.3990 H   0  0  0  0  0  0  0  0  0  0  0  0
   58.3061   27.4213   43.9965 H   0  0  0  0  0  0  0  0  0  0  0  0
   56.5196   27.5116   44.3603 H   0  0  0  0  0  0  0  0  0  0  0  0
   57.9484   29.5737   44.9344 H   0  0  0  0  0  0  0  0  0  0  0  0
   56.8395   28.9097   46.2067 H   0  0  0  0  0  0  0  0  0  0  0  0
   59.4535   31.1004   44.7074 H   0  0  0  0  0  0  0  0  0  0  0  0
   57.7943   31.2861   45.1766 H   0  0  0  0  0  0  0  0  0  0  0  0
   58.5513   33.7949   43.7124 H   0  0  0  0  0  0  0  0  0  0  0  0
   59.1041   36.1563   44.3700 H   0  0  0  0  0  0  0  0  0  0  0  0
   59.9369   36.6600   46.6775 H   0  0  0  0  0  0  0  0  0  0  0  0
   60.2255   34.7999   48.3502 H   0  0  0  0  0  0  0  0  0  0  0  0
  1  2  1  0
  2  3  2  0
  3  4  1  0
  4  5  2  0
  5  6  1  0
  6  7  1  0
  7  8  1  0
  8  9  1  0
  9 10  1  0
 10 11  1  0
 11 12  1  0
 11 13  2  0
 10 14  1  0
 14 15  1  0
  6 16  2  0
  5 17  1  0
 17 18  1  0
 18 19  2  0
 19 20  1  0
 20 21  2  0
 21 22  1  0
 22 23  2  0
 16  2  1  0
 23 18  1  0
 23  4  1  0
 15  7  1  0
  1 24  1  0
  1 25  1  0
  1 26  1  0
  8 27  1  0
  8 28  1  0
  9 29  1  0
  9 30  1  0
 10 31  1  0
 12 32  1  0
 12 33  1  0
 14 34  1  0
 14 35  1  0
 15 36  1  0
 15 37  1  0
 17 38  1  0
 17 39  1  0
 19 40  1  0
 20 41  1  0
 21 42  1  0
 22 43  1  0
M  END
>  <UniqueID>  (18) 
16

>  <SMILES>  (18) 
Cc1nc2c(c(N3CCC(C(N)=O)CC3)n1)Cc1ccccc1-2

>  <Energy>  (18) 
74.76226452677093

>  <Genealogy>  (18) 
Cc1nc2c(c(N3CCC(C(N)=O)CC3)n1)Cc1ccccc1-2 (3D coordinates assigned)
Cc1nc2c(c(N3CCC(C(N)=O)CC3)n1)Cc1ccccc1-2 (nonaromatic ring conformer: 74.76226452677093 kcal/mol)

>  <smiles>  (18) 
Cc1nc2c(c(N3CCC(C(N)=O)CC3)n1)Cc1ccccc1-2

>  <score_type>  (18) 
oracle

>  <origin>  (18) 
adg

>  <m_score__min__energy>  (18) 
-8.5700000000000003

>  <m_primary>  (18) 
energy

$$$$
18:0
     RDKit          3D

 49 52  0  0  0  0  0  0  0  0999 V2000
   60.6440   27.1540   47.6560 C   0  0  0  0  0  0  0  0  0  0  0  0
   60.0190   26.2020   46.8010 O   0  0  0  0  0  0  0  0  0  0  0  0
   58.6450   26.1680   46.5250 C   0  0  0  0  0  0  0  0  0  0  0  0
   57.9420   24.9890   46.7900 C   0  0  0  0  0  0  0  0  0  0  0  0
   56.5710   24.9030   46.5330 C   0  0  0  0  0  0  0  0  0  0  0  0
   55.8770   26.0060   46.0030 C   0  0  0  0  0  0  0  0  0  0  0  0
   54.5010   25.9610   45.7310 O   0  0  0  0  0  0  0  0  0  0  0  0
   53.7700   24.7690   45.4650 C   0  0  0  0  0  0  0  0  0  0  0  0
   56.5790   27.1950   45.7430 C   0  0  0  0  0  0  0  0  0  0  0  0
   55.8910   28.3430   45.2440 N   0  0  0  0  0  0  0  0  0  0  0  0
   56.6290   29.3670   44.0600 S   0  0  0  0  0  0  0  0  0  0  0  0
   57.5180   28.5480   43.1670 O   0  0  0  0  0  0  0  0  0  0  0  0
   55.5580   30.0020   43.2200 O   0  0  0  0  0  0  0  0  0  0  0  0
   57.5700   30.6170   44.8660 C   0  0  0  0  0  0  0  0  0  0  0  0
   58.6460   30.2670   45.7100 C   0  0  0  0  0  0  0  0  0  0  0  0
   59.4580   31.2630   46.2730 C   0  0  0  0  0  0  0  0  0  0  0  0
   59.1650   32.6040   45.9960 C   0  0  0  0  0  0  0  0  0  0  0  0
   58.1400   32.9400   45.1530 C   0  0  0  0  0  0  0  0  0  0  0  0
   57.3180   31.9700   44.5810 C   0  0  0  0  0  0  0  0  0  0  0  0
   58.1210   34.4060   44.9000 C   0  0  0  0  0  0  0  0  0  0  0  0
   59.3380   34.9220   45.7030 C   0  0  0  0  0  0  0  0  0  0  0  0
   59.8990   33.7570   46.3890 N   0  0  0  0  0  0  0  0  0  0  0  0
   60.9230   33.8600   47.3930 C   0  0  0  0  0  0  0  0  0  0  0  0
   60.7120   34.5590   48.4200 O   0  0  0  0  0  0  0  0  0  0  0  0
   62.2320   33.1360   47.2690 C   0  0  0  0  0  0  0  0  0  0  0  0
   63.4270   33.8380   47.8980 C   0  0  0  0  0  0  0  0  0  0  0  0
   63.2510   33.8490   46.3910 C   0  0  0  0  0  0  0  0  0  0  0  0
   57.9530   27.2740   45.9960 C   0  0  0  0  0  0  0  0  0  0  0  0
   60.4632   26.8786   48.7055 H   0  0  0  0  0  0  0  0  0  0  0  0
   61.7266   27.1665   47.4615 H   0  0  0  0  0  0  0  0  0  0  0  0
   60.2250   28.1523   47.4615 H   0  0  0  0  0  0  0  0  0  0  0  0
   58.4735   24.1200   47.2051 H   0  0  0  0  0  0  0  0  0  0  0  0
   56.0318   23.9682   46.7462 H   0  0  0  0  0  0  0  0  0  0  0  0
   53.4804   24.2967   46.4153 H   0  0  0  0  0  0  0  0  0  0  0  0
   52.8667   25.0141   44.8871 H   0  0  0  0  0  0  0  0  0  0  0  0
   54.3980   24.0750   44.8871 H   0  0  0  0  0  0  0  0  0  0  0  0
   58.8489   29.2079   45.9274 H   0  0  0  0  0  0  0  0  0  0  0  0
   60.3075   30.9960   46.9188 H   0  0  0  0  0  0  0  0  0  0  0  0
   56.4880   32.2582   43.9192 H   0  0  0  0  0  0  0  0  0  0  0  0
   58.2362   34.6222   43.8276 H   0  0  0  0  0  0  0  0  0  0  0  0
   57.1753   34.8819   45.1987 H   0  0  0  0  0  0  0  0  0  0  0  0
   60.0843   35.3607   45.0243 H   0  0  0  0  0  0  0  0  0  0  0  0
   59.0437   35.7045   46.4178 H   0  0  0  0  0  0  0  0  0  0  0  0
   61.8131   32.1205   47.3271 H   0  0  0  0  0  0  0  0  0  0  0  0
   63.2800   34.7627   48.4753 H   0  0  0  0  0  0  0  0  0  0  0  0
   64.2324   33.5371   48.5842 H   0  0  0  0  0  0  0  0  0  0  0  0
   62.9764   34.7816   45.8764 H   0  0  0  0  0  0  0  0  0  0  0  0
   63.8759   33.5593   45.5333 H   0  0  0  0  0  0  0  0  0  0  0  0
   58.4958   28.2061   45.7802 H   0  0  0  0  0  0  0  0  0  0  0  0
  1  2  1  0
  2  3  1  0
  3  4  2  0
  4  5  1  0
  5  6  2  0
  6  7  1  0
  7  8  1  0
  6  9  1  0
  9 10  1  0
 10 11  1  0
 11 12  2  0
 11 13  2  0
 11 14  1  0
 14 15  2  0
 15 16  1  0
 16 17  2  0
 17 18  1  0
 18 19  2  0
 18 20  1  0
 20 21  1  0
 21 22  1  0
 22 23  1  0
 23 24  2  0
 23 25  1  0
 25 26  1  0
 26 27  1  0
  9 28  2  0
 28  3  1  0
 19 14  1  0
 27 25  1  0
 22 17  1  0
  1 29  1  0
  1 30  1  0
  1 31  1  0
  4 32  1  0
  5 33  1  0
  8 34  1  0
  8 35  1  0
  8 36  1  0
 15 37  1  0
 16 38  1  0
 19 39  1  0
 20 40  1  0
 20 41  1  0
 21 42  1  0
 21 43  1  0
 25 44  1  0
 26 45  1  0
 26 46  1  0
 27 47  1  0
 27 48  1  0
 28 49  1  0
M  CHG  1  10  -1
M  END
>  <UniqueID>  (19) 
17

>  <SMILES>  (19) 
COc1ccc(OC)c([N-]S(=O)(=O)c2ccc3c(c2)CCN3C(=O)C2CC2)c1

>  <Energy>  (19) 
337.3695850014225

>  <Genealogy>  (19) 
COc1ccc(OC)c([N-]S(=O)(=O)c2ccc3c(c2)CCN3C(=O)C2CC2)c1 (protonated)
COc1ccc(OC)c([N-]S(=O)(=O)c2ccc3c(c2)CCN3C(=O)C2CC2)c1 (3D coordinates assigned)
COc1ccc(OC)c([N-]S(=O)(=O)c2ccc3c(c2)CCN3C(=O)C2CC2)c1 (nonaromatic ring conformer: 337.3695850014225 kcal/mol)

>  <smiles>  (19) 
COc1ccc(OC)c(NS(=O)(=O)c2ccc3c(c2)CCN3C(=O)C2CC2)c1

>  <score_type>  (19) 
oracle

>  <origin>  (19) 
adg

>  <m_score__min__energy>  (19) 
-11.710000000000001

>  <m_primary>  (19) 
energy

$$$$
19:0
     RDKit          3D

 56 59  0  0  0  0  0  0  0  0999 V2000
   58.0340   32.3940   41.3820 C   0  0  0  0  0  0  0  0  0  0  0  0
   57.3820   32.3890   42.6480 O   0  0  0  0  0  0  0  0  0  0  0  0
   58.0270   32.5980   43.8780 C   0  0  0  0  0  0  0  0  0  0  0  0
   58.6480   33.8210   44.1910 C   0  0  0  0  0  0  0  0  0  0  0  0
   59.2950   33.9970   45.4170 C   0  0  0  0  0  0  0  0  0  0  0  0
   59.3370   32.9550   46.3550 C   0  0  0  0  0  0  0  0  0  0  0  0
   60.0360   33.1340   47.6520 C   0  0  0  0  0  0  0  0  0  0  0  0
   59.3550   33.6540   48.7660 C   0  0  0  0  0  0  0  0  0  0  0  0
   60.0180   33.8300   49.9820 C   0  0  0  0  0  0  0  0  0  0  0  0
   61.3650   33.4830   50.1060 C   0  0  0  0  0  0  0  0  0  0  0  0
   62.0600   32.9360   49.0140 C   0  0  0  0  0  0  0  0  0  0  0  0
   63.5290   32.6120   49.1310 C   0  0  0  0  0  0  0  0  0  0  0  0
   64.0980   32.6200   47.8710 F   0  0  0  0  0  0  0  0  0  0  0  0
   64.1760   33.5440   49.9240 F   0  0  0  0  0  0  0  0  0  0  0  0
   63.7080   31.3610   49.6990 F   0  0  0  0  0  0  0  0  0  0  0  0
   61.3950   32.7880   47.7840 C   0  0  0  0  0  0  0  0  0  0  0  0
   58.7090   31.7360   46.0480 C   0  0  0  0  0  0  0  0  0  0  0  0
   58.0540   31.5540   44.8220 C   0  0  0  0  0  0  0  0  0  0  0  0
   57.2960   29.9990   44.4580 S   0  0  0  0  0  0  0  0  0  0  0  0
   56.4060   30.1610   43.2560 O   0  0  0  0  0  0  0  0  0  0  0  0
   56.4460   29.5700   45.6240 O   0  0  0  0  0  0  0  0  0  0  0  0
   58.5410   28.8070   44.1410 N   0  0  0  0  0  0  0  0  0  0  0  0
   59.8900   29.3270   44.4970 C   0  0  0  0  0  0  0  0  0  0  0  0
   60.4750   28.7230   45.7880 C   0  0  0  0  0  0  0  0  0  0  0  0
   59.4080   28.4320   46.7520 N   0  0  0  0  0  0  0  0  0  0  0  0
   59.4580   28.9570   48.0970 C   0  0  0  0  0  0  0  0  0  0  0  0
   60.4230   28.5130   49.0210 C   0  0  0  0  0  0  0  0  0  0  0  0
   60.4300   29.0340   50.3170 C   0  0  0  0  0  0  0  0  0  0  0  0
   59.4840   29.9890   50.6880 C   0  0  0  0  0  0  0  0  0  0  0  0
   58.5390   30.4120   49.7520 C   0  0  0  0  0  0  0  0  0  0  0  0
   58.5470   29.8930   48.4960 N   0  0  0  0  0  0  0  0  0  0  0  0
   58.2910   27.5860   46.3110 C   0  0  0  0  0  0  0  0  0  0  0  0
   58.2240   27.5090   44.7760 C   0  0  0  0  0  0  0  0  0  0  0  0
   59.1238   32.4024   41.5309 H   0  0  0  0  0  0  0  0  0  0  0  0
   57.7478   31.4936   40.8186 H   0  0  0  0  0  0  0  0  0  0  0  0
   57.7340   33.2899   40.8186 H   0  0  0  0  0  0  0  0  0  0  0  0
   58.6240   34.6462   43.4640 H   0  0  0  0  0  0  0  0  0  0  0  0
   59.7748   34.9595   45.6481 H   0  0  0  0  0  0  0  0  0  0  0  0
   58.2922   33.9242   48.6792 H   0  0  0  0  0  0  0  0  0  0  0  0
   59.4772   34.2437   50.8459 H   0  0  0  0  0  0  0  0  0  0  0  0
   61.8845   33.6386   51.0630 H   0  0  0  0  0  0  0  0  0  0  0  0
   61.9429   32.3971   46.9139 H   0  0  0  0  0  0  0  0  0  0  0  0
   58.7316   30.9142   46.7789 H   0  0  0  0  0  0  0  0  0  0  0  0
   58.5260   28.6480   43.1060 H   0  0  0  0  0  0  0  0  0  0  0  0
   60.5770   29.1021   43.6679 H   0  0  0  0  0  0  0  0  0  0  0  0
   59.7778   30.4069   44.6739 H   0  0  0  0  0  0  0  0  0  0  0  0
   61.0049   27.7907   45.5430 H   0  0  0  0  0  0  0  0  0  0  0  0
   61.1693   29.4491   46.2361 H   0  0  0  0  0  0  0  0  0  0  0  0
   61.1675   27.7598   48.7239 H   0  0  0  0  0  0  0  0  0  0  0  0
   61.1809   28.6913   51.0441 H   0  0  0  0  0  0  0  0  0  0  0  0
   59.4826   30.4042   51.7066 H   0  0  0  0  0  0  0  0  0  0  0  0
   57.7877   31.1655   50.0309 H   0  0  0  0  0  0  0  0  0  0  0  0
   58.4272   26.5722   46.7155 H   0  0  0  0  0  0  0  0  0  0  0  0
   57.3531   28.0275   46.6790 H   0  0  0  0  0  0  0  0  0  0  0  0
   58.9466   26.7569   44.4264 H   0  0  0  0  0  0  0  0  0  0  0  0
   57.1965   27.2352   44.4944 H   0  0  0  0  0  0  0  0  0  0  0  0
  1  2  1  0
  2  3  1  0
  3  4  2  0
  4  5  1  0
  5  6  2  0
  6  7  1  0
  7  8  2  0
  8  9  1  0
  9 10  2  0
 10 11  1  0
 11 12  1  0
 12 13  1  0
 12 14  1  0
 12 15  1  0
 11 16  2  0
  6 17  1  0
 17 18  2  0
 18 19  1  0
 19 20  2  0
 19 21  2  0
 19 22  1  0
 22 23  1  0
 23 24  1  0
 24 25  1  0
 25 26  1  0
 26 27  2  0
 27 28  1  0
 28 29  2  0
 29 30  1  0
 30 31  2  0
 25 32  1  0
 32 33  1  0
 18  3  1  0
 33 22  1  0
 16  7  1  0
 31 26  1  0
  1 34  1  0
  1 35  1  0
  1 36  1  0
  4 37  1  0
  5 38  1  0
  8 39  1  0
  9 40  1  0
 10 41  1  0
 16 42  1  0
 17 43  1  0
 22 44  1  0
 23 45  1  0
 23 46  1  0
 24 47  1  0
 24 48  1  0
 27 49  1  0
 28 50  1  0
 29 51  1  0
 30 52  1  0
 32 53  1  0
 32 54  1  0
 33 55  1  0
 33 56  1  0
M  CHG  1  22   1
M  END
>  <UniqueID>  (20) 
18

>  <SMILES>  (20) 
COc1ccc(-c2cccc(C(F)(F)F)c2)cc1S(=O)(=O)[NH+]1CCN(c2ccccn2)CC1

>  <Energy>  (20) 
74.32523449426103

>  <Genealogy>  (20) 
COc1ccc(-c2cccc(C(F)(F)F)c2)cc1S(=O)(=O)[NH+]1CCN(c2ccccn2)CC1 (protonated)
COc1ccc(-c2cccc(C(F)(F)F)c2)cc1S(=O)(=O)[NH+]1CCN(c2ccccn2)CC1 (3D coordinates assigned)
COc1ccc(-c2cccc(C(F)(F)F)c2)cc1S(=O)(=O)[NH+]1CCN(c2ccccn2)CC1 (nonaromatic ring conformer: 74.32523449426103 kcal/mol)

>  <smiles>  (20) 
COc1ccc(-c2cccc(C(F)(F)F)c2)cc1S(=O)(=O)N1CCN(c2ccccn2)CC1

>  <score_type>  (20) 
oracle

>  <origin>  (20) 
adg

>  <m_score__min__energy>  (20) 
-7.3200000000000003

>  <m_primary>  (20) 
energy

$$$$
20:0
     RDKit          3D

 46 48  0  0  0  0  0  0  0  0999 V2000
   56.7890   31.2160   52.5050 C   0  0  0  0  0  0  0  0  0  0  0  0
   57.8490   31.6120   51.5210 C   0  0  0  0  0  0  0  0  0  0  0  0
   58.4660   32.8700   51.6160 C   0  0  0  0  0  0  0  0  0  0  0  0
   59.4280   33.2550   50.6780 C   0  0  0  0  0  0  0  0  0  0  0  0
   59.7790   32.3920   49.6310 C   0  0  0  0  0  0  0  0  0  0  0  0
   60.7730   32.7860   48.6690 N   0  0  0  0  0  0  0  0  0  0  0  0
   62.0720   32.3510   48.7920 C   0  0  0  0  0  0  0  0  0  0  0  0
   62.4720   31.4730   49.8550 N   0  0  0  0  0  0  0  0  0  0  0  0
   63.0300   32.7530   47.8550 C   0  0  0  0  0  0  0  0  0  0  0  0
   62.6430   33.5780   46.8070 C   0  0  0  0  0  0  0  0  0  0  0  0
   63.4820   33.9500   45.9460 O   0  0  0  0  0  0  0  0  0  0  0  0
   61.3540   33.9830   46.7100 N   0  0  0  0  0  0  0  0  0  0  0  0
   60.4220   33.6060   47.6240 C   0  0  0  0  0  0  0  0  0  0  0  0
   58.7390   34.2220   47.4190 S   0  0  0  0  0  0  0  0  0  0  0  0
   58.8490   34.3770   45.6040 C   0  0  0  0  0  0  0  0  0  0  0  0
   58.5560   33.0680   44.9440 C   0  0  0  0  0  0  0  0  0  0  0  0
   57.8300   33.0370   43.9150 O   0  0  0  0  0  0  0  0  0  0  0  0
   59.1740   31.8750   45.4440 N   0  0  0  0  0  0  0  0  0  0  0  0
   58.5390   30.6050   45.6470 C   0  0  0  0  0  0  0  0  0  0  0  0
   59.0220   29.6680   46.5760 C   0  0  0  0  0  0  0  0  0  0  0  0
   58.3880   28.4310   46.7260 C   0  0  0  0  0  0  0  0  0  0  0  0
   57.2680   28.1020   45.9420 C   0  0  0  0  0  0  0  0  0  0  0  0
   56.5970   26.7900   46.1010 C   0  0  0  0  0  0  0  0  0  0  0  0
   55.1780   26.6840   46.0040 N   0  0  0  0  0  0  0  0  0  0  0  0
   57.2750   25.7510   46.3270 O   0  0  0  0  0  0  0  0  0  0  0  0
   56.8030   29.0340   44.9980 C   0  0  0  0  0  0  0  0  0  0  0  0
   57.4400   30.2700   44.8490 C   0  0  0  0  0  0  0  0  0  0  0  0
   59.1480   31.1440   49.5220 C   0  0  0  0  0  0  0  0  0  0  0  0
   58.1850   30.7570   50.4580 C   0  0  0  0  0  0  0  0  0  0  0  0
   57.1673   31.3573   53.5282 H   0  0  0  0  0  0  0  0  0  0  0  0
   55.8967   31.8414   52.3543 H   0  0  0  0  0  0  0  0  0  0  0  0
   56.5254   30.1587   52.3543 H   0  0  0  0  0  0  0  0  0  0  0  0
   58.1911   33.5549   52.4317 H   0  0  0  0  0  0  0  0  0  0  0  0
   59.9116   34.2394   50.7619 H   0  0  0  0  0  0  0  0  0  0  0  0
   61.8420   31.2380   50.6530 H   0  0  0  0  0  0  0  0  0  0  0  0
   63.4120   31.0160   49.8390 H   0  0  0  0  0  0  0  0  0  0  0  0
   64.0745   32.4205   47.9470 H   0  0  0  0  0  0  0  0  0  0  0  0
   58.1201   35.1259   45.2606 H   0  0  0  0  0  0  0  0  0  0  0  0
   59.8697   34.6877   45.3364 H   0  0  0  0  0  0  0  0  0  0  0  0
   59.9034   29.9089   47.1884 H   0  0  0  0  0  0  0  0  0  0  0  0
   58.7685   27.7090   47.4635 H   0  0  0  0  0  0  0  0  0  0  0  0
   54.5580   27.0810   46.7440 H   0  0  0  0  0  0  0  0  0  0  0  0
   55.9321   28.7894   44.3722 H   0  0  0  0  0  0  0  0  0  0  0  0
   57.0736   30.9851   44.0977 H   0  0  0  0  0  0  0  0  0  0  0  0
   59.4123   30.4670   48.6963 H   0  0  0  0  0  0  0  0  0  0  0  0
   57.6886   29.7801   50.3621 H   0  0  0  0  0  0  0  0  0  0  0  0
  1  2  1  0
  2  3  2  0
  3  4  1  0
  4  5  2  0
  5  6  1  0
  6  7  1  0
  7  8  1  0
  7  9  2  0
  9 10  1  0
 10 11  2  0
 10 12  1  0
 12 13  2  0
 13 14  1  0
 14 15  1  0
 15 16  1  0
 16 17  2  0
 16 18  1  0
 18 19  1  0
 19 20  2  0
 20 21  1  0
 21 22  2  0
 22 23  1  0
 23 24  1  0
 23 25  2  0
 22 26  1  0
 26 27  2  0
  5 28  1  0
 28 29  2  0
 29  2  1  0
 13  6  1  0
 27 19  1  0
  1 30  1  0
  1 31  1  0
  1 32  1  0
  3 33  1  0
  4 34  1  0
  8 35  1  0
  8 36  1  0
  9 37  1  0
 15 38  1  0
 15 39  1  0
 20 40  1  0
 21 41  1  0
 24 42  1  0
 26 43  1  0
 27 44  1  0
 28 45  1  0
 29 46  1  0
M  CHG  2  18  -1  24  -1
M  END
>  <UniqueID>  (21) 
19

>  <SMILES>  (21) 
Cc1ccc(-n2c(N)cc(=O)nc2SCC(=O)[N-]c2ccc(C([NH-])=O)cc2)cc1

>  <Energy>  (21) 
56.43267211639377

>  <Genealogy>  (21) 
Cc1ccc(-n2c(N)cc(=O)nc2SCC(=O)[N-]c2ccc(C([NH-])=O)cc2)cc1 (protonated)
Cc1ccc(-n2c(N)cc(=O)nc2SCC(=O)[N-]c2ccc(C([NH-])=O)cc2)cc1 (3D coordinates assigned)
Cc1ccc(-n2c(N)cc(=O)nc2SCC(=O)[N-]c2ccc(C([NH-])=O)cc2)cc1 (optimized conformer: 56.43267211639377 kcal/mol)

>  <smiles>  (21) 
Cc1ccc(-n2c(N)cc(=O)nc2SCC(=O)Nc2ccc(C(N)=O)cc2)cc1

>  <score_type>  (21) 
oracle

>  <origin>  (21) 
adg

>  <m_score__min__energy>  (21) 
-12.06

>  <m_primary>  (21) 
energy

$$$$
21:0
     RDKit          3D

 39 41  0  0  0  0  0  0  0  0999 V2000
   57.7560   20.3560   45.3760 N   0  0  0  0  0  0  0  0  0  0  0  0
   56.2640   20.9520   44.7390 S   0  0  0  0  0  0  0  0  0  0  0  0
   56.2920   20.8740   43.2380 O   0  0  0  0  0  0  0  0  0  0  0  0
   55.1260   20.1100   45.2450 O   0  0  0  0  0  0  0  0  0  0  0  0
   56.0410   22.6230   45.2450 C   0  0  0  0  0  0  0  0  0  0  0  0
   57.0340   23.2680   45.9940 C   0  0  0  0  0  0  0  0  0  0  0  0
   56.8750   24.6070   46.3630 C   0  0  0  0  0  0  0  0  0  0  0  0
   55.7320   25.3210   45.9640 C   0  0  0  0  0  0  0  0  0  0  0  0
   55.5830   26.7160   46.2580 N   0  0  0  0  0  0  0  0  0  0  0  0
   56.2920   27.7560   45.5760 C   0  0  0  0  0  0  0  0  0  0  0  0
   55.6750   28.7970   45.2300 O   0  0  0  0  0  0  0  0  0  0  0  0
   57.7210   27.5620   45.1450 C   0  0  0  0  0  0  0  0  0  0  0  0
   58.6740   27.6680   46.3060 C   0  0  0  0  0  0  0  0  0  0  0  0
   59.6710   26.6940   46.4950 C   0  0  0  0  0  0  0  0  0  0  0  0
   60.4860   26.7270   47.6310 C   0  0  0  0  0  0  0  0  0  0  0  0
   60.3080   27.7320   48.5860 C   0  0  0  0  0  0  0  0  0  0  0  0
   59.3050   28.6950   48.4130 C   0  0  0  0  0  0  0  0  0  0  0  0
   58.5060   28.6810   47.2660 C   0  0  0  0  0  0  0  0  0  0  0  0
   59.1060   29.6540   49.4110 O   0  0  0  0  0  0  0  0  0  0  0  0
   59.6910   29.5000   50.7060 C   0  0  0  0  0  0  0  0  0  0  0  0
   61.1110   28.9320   50.5820 C   0  0  0  0  0  0  0  0  0  0  0  0
   61.1130   27.7850   49.7280 O   0  0  0  0  0  0  0  0  0  0  0  0
   54.7290   24.6650   45.2430 C   0  0  0  0  0  0  0  0  0  0  0  0
   54.8850   23.3240   44.8760 C   0  0  0  0  0  0  0  0  0  0  0  0
   58.5210   20.7490   44.7820 H   0  0  0  0  0  0  0  0  0  0  0  0
   57.7600   19.3230   45.2250 H   0  0  0  0  0  0  0  0  0  0  0  0
   57.9400   22.7200   46.2921 H   0  0  0  0  0  0  0  0  0  0  0  0
   57.6476   25.1038   46.9681 H   0  0  0  0  0  0  0  0  0  0  0  0
   57.8236   26.5659   44.6898 H   0  0  0  0  0  0  0  0  0  0  0  0
   57.9713   28.3538   44.4235 H   0  0  0  0  0  0  0  0  0  0  0  0
   59.8105   25.9017   45.7448 H   0  0  0  0  0  0  0  0  0  0  0  0
   61.2654   25.9638   47.7727 H   0  0  0  0  0  0  0  0  0  0  0  0
   57.7464   29.4621   47.1148 H   0  0  0  0  0  0  0  0  0  0  0  0
   59.7338   30.4798   51.2042 H   0  0  0  0  0  0  0  0  0  0  0  0
   59.0767   28.8047   51.2969 H   0  0  0  0  0  0  0  0  0  0  0  0
   61.7739   29.7010   50.1586 H   0  0  0  0  0  0  0  0  0  0  0  0
   61.4669   28.6362   51.5799 H   0  0  0  0  0  0  0  0  0  0  0  0
   53.8131   25.2061   44.9631 H   0  0  0  0  0  0  0  0  0  0  0  0
   54.0984   22.8187   44.2964 H   0  0  0  0  0  0  0  0  0  0  0  0
  1  2  1  0
  2  3  2  0
  2  4  2  0
  2  5  1  0
  5  6  2  0
  6  7  1  0
  7  8  2  0
  8  9  1  0
  9 10  1  0
 10 11  2  0
 10 12  1  0
 12 13  1  0
 13 14  2  0
 14 15  1  0
 15 16  2  0
 16 17  1  0
 17 18  2  0
 17 19  1  0
 19 20  1  0
 20 21  1  0
 21 22  1  0
  8 23  1  0
 23 24  2  0
 24  5  1  0
 18 13  1  0
 22 16  1  0
  1 25  1  0
  1 26  1  0
  6 27  1  0
  7 28  1  0
 12 29  1  0
 12 30  1  0
 14 31  1  0
 15 32  1  0
 18 33  1  0
 20 34  1  0
 20 35  1  0
 21 36  1  0
 21 37  1  0
 23 38  1  0
 24 39  1  0
M  CHG  1   9  -1
M  END
>  <UniqueID>  (22) 
20

>  <SMILES>  (22) 
NS(=O)(=O)c1ccc([N-]C(=O)Cc2ccc3c(c2)OCCO3)cc1

>  <Energy>  (22) 
44.280692981491

>  <Genealogy>  (22) 
NS(=O)(=O)c1ccc([N-]C(=O)Cc2ccc3c(c2)OCCO3)cc1 (protonated)
NS(=O)(=O)c1ccc([N-]C(=O)Cc2ccc3c(c2)OCCO3)cc1 (3D coordinates assigned)
NS(=O)(=O)c1ccc([N-]C(=O)Cc2ccc3c(c2)OCCO3)cc1 (nonaromatic ring conformer: 44.280692981491 kcal/mol)

>  <smiles>  (22) 
NS(=O)(=O)c1ccc(NC(=O)Cc2ccc3c(c2)OCCO3)cc1

>  <score_type>  (22) 
oracle

>  <origin>  (22) 
adg

>  <m_score__min__energy>  (22) 
-10.08

>  <m_primary>  (22) 
energy

$$$$
22:0
     RDKit          3D

 25 26  0  0  0  0  0  0  0  0999 V2000
   54.8300   29.3370   45.6460 H   0  0  0  0  0  0  0  0  0  0  0  0
   55.1430   29.3050   44.6510 N   0  0  0  0  0  0  0  0  0  0  0  0
   56.8710   29.3060   44.6640 S   0  0  0  0  0  0  0  0  0  0  0  0
   57.3540   30.5980   45.2580 O   0  0  0  0  0  0  0  0  0  0  0  0
   57.3820   29.1770   43.2570 O   0  0  0  0  0  0  0  0  0  0  0  0
   57.4550   27.9630   45.6250 C   0  0  0  0  0  0  0  0  0  0  0  0
   56.5030   26.7030   46.2070 S   0  0  0  0  0  0  0  0  0  0  0  0
   57.8180   25.9450   46.9310 C   0  0  0  0  0  0  0  0  0  0  0  0
   57.7210   24.8450   47.6160 N   0  0  0  0  0  0  0  0  0  0  0  0
   57.2800   23.5740   47.1100 C   0  0  0  0  0  0  0  0  0  0  0  0
   57.3270   22.5740   47.8740 O   0  0  0  0  0  0  0  0  0  0  0  0
   56.7420   23.4060   45.7410 C   0  0  0  0  0  0  0  0  0  0  0  0
   57.5310   22.7800   44.7610 C   0  0  0  0  0  0  0  0  0  0  0  0
   58.5380   22.4199   45.0184 H   0  0  0  0  0  0  0  0  0  0  0  0
   57.0450   22.6120   43.4620 C   0  0  0  0  0  0  0  0  0  0  0  0
   57.6731   22.1293   42.6988 H   0  0  0  0  0  0  0  0  0  0  0  0
   55.7630   23.0560   43.1310 C   0  0  0  0  0  0  0  0  0  0  0  0
   55.3850   22.9298   42.1057 H   0  0  0  0  0  0  0  0  0  0  0  0
   54.9610   23.6600   44.1010 C   0  0  0  0  0  0  0  0  0  0  0  0
   53.9496   24.0043   43.8391 H   0  0  0  0  0  0  0  0  0  0  0  0
   55.4390   23.8290   45.4050 C   0  0  0  0  0  0  0  0  0  0  0  0
   54.6060   24.3990   46.3630 O   0  0  0  0  0  0  0  0  0  0  0  0
   58.9710   26.6310   46.7520 N   0  0  0  0  0  0  0  0  0  0  0  0
   58.7720   27.7560   46.0150 C   0  0  0  0  0  0  0  0  0  0  0  0
   59.5869   28.4455   45.7494 H   0  0  0  0  0  0  0  0  0  0  0  0
  1  2  1  0
  2  3  1  0
  3  4  2  0
  3  5  2  0
  3  6  1  0
  6  7  1  0
  7  8  1  0
  8  9  2  0
  9 10  1  0
 10 11  2  0
 10 12  1  0
 12 13  2  0
 13 14  1  0
 13 15  1  0
 15 16  1  0
 15 17  2  0
 17 18  1  0
 17 19  1  0
 19 20  1  0
 19 21  2  0
 21 22  1  0
  8 23  1  0
 23 24  1  0
 24 25  1  0
 24  6  2  0
 21 12  1  0
M  CHG  3   2  -1  22  -1  23  -1
M  END
>  <UniqueID>  (23) 
21

>  <SMILES>  (23) 
[NH-]S(=O)(=O)c1c[n-]/c(=N\C(=O)c2ccccc2[O-])s1

>  <Energy>  (23) 
64.63810456982186

>  <Genealogy>  (23) 
[NH-]S(=O)(=O)c1c[n-]c(=NC(=O)c2ccccc2[O-])s1 (protonated)
[NH-]S(=O)(=O)c1c[n-]/c(=N\C(=O)c2ccccc2[O-])s1 (cis-trans isomerization)
[NH-]S(=O)(=O)c1c[n-]/c(=N\C(=O)c2ccccc2[O-])s1 (3D coordinates assigned)
[NH-]S(=O)(=O)c1c[n-]/c(=N\C(=O)c2ccccc2[O-])s1 (optimized conformer: 64.63810456982186 kcal/mol)

>  <smiles>  (23) 
NS(=O)(=O)c1c[nH]c(=NC(=O)c2ccccc2O)s1

>  <score_type>  (23) 
oracle

>  <origin>  (23) 
adg

>  <m_score__min__energy>  (23) 
-13.77

>  <m_primary>  (23) 
energy

$$$$
23:0
     RDKit          3D

 49 51  0  0  0  0  0  0  0  0999 V2000
   56.0280   23.0680   42.6500 C   0  0  0  0  0  0  0  0  0  0  0  0
   55.7820   22.2960   43.8780 N   0  0  0  0  0  0  0  0  0  0  0  0
   56.9000   21.3800   44.2000 C   0  0  0  0  0  0  0  0  0  0  0  0
   58.3000   22.0160   44.1360 C   0  0  0  0  0  0  0  0  0  0  0  0
   58.6380   23.0250   45.2470 C   0  0  0  0  0  0  0  0  0  0  0  0
   57.5840   24.0210   45.5380 N   0  0  0  0  0  0  0  0  0  0  0  0
   58.1710   25.3680   46.4850 S   0  0  0  0  0  0  0  0  0  0  0  0
   59.6590   25.2560   46.6750 O   0  0  0  0  0  0  0  0  0  0  0  0
   57.5180   25.3480   47.8400 O   0  0  0  0  0  0  0  0  0  0  0  0
   57.7740   26.8950   45.6940 C   0  0  0  0  0  0  0  0  0  0  0  0
   58.7790   27.6510   45.0760 C   0  0  0  0  0  0  0  0  0  0  0  0
   58.4650   28.8500   44.4330 C   0  0  0  0  0  0  0  0  0  0  0  0
   57.1420   29.3020   44.3780 C   0  0  0  0  0  0  0  0  0  0  0  0
   56.8690   30.5500   43.7230 N   0  0  0  0  0  0  0  0  0  0  0  0
   57.7430   31.6860   43.6490 C   0  0  0  0  0  0  0  0  0  0  0  0
   58.0910   32.1410   42.5260 O   0  0  0  0  0  0  0  0  0  0  0  0
   58.2810   32.2890   44.8910 C   0  0  0  0  0  0  0  0  0  0  0  0
   58.1650   33.6720   45.1250 C   0  0  0  0  0  0  0  0  0  0  0  0
   58.6760   34.2380   46.2970 C   0  0  0  0  0  0  0  0  0  0  0  0
   59.3060   33.4330   47.2490 C   0  0  0  0  0  0  0  0  0  0  0  0
   60.0010   34.2090   48.8490 Br  0  0  0  0  0  0  0  0  0  0  0  0
   59.4270   32.0580   47.0280 C   0  0  0  0  0  0  0  0  0  0  0  0
   58.9180   31.4880   45.8580 C   0  0  0  0  0  0  0  0  0  0  0  0
   56.1350   28.5560   45.0140 C   0  0  0  0  0  0  0  0  0  0  0  0
   56.4440   27.3520   45.6630 C   0  0  0  0  0  0  0  0  0  0  0  0
   55.4360   26.6090   46.2770 O   0  0  0  0  0  0  0  0  0  0  0  0
   56.2930   23.5160   46.0630 C   0  0  0  0  0  0  0  0  0  0  0  0
   55.2600   23.1510   44.9760 C   0  0  0  0  0  0  0  0  0  0  0  0
   56.3521   24.0852   42.9151 H   0  0  0  0  0  0  0  0  0  0  0  0
   56.8137   22.5753   42.0584 H   0  0  0  0  0  0  0  0  0  0  0  0
   55.1022   23.1207   42.0584 H   0  0  0  0  0  0  0  0  0  0  0  0
   56.7451   20.9975   45.2197 H   0  0  0  0  0  0  0  0  0  0  0  0
   56.8841   20.5930   43.4316 H   0  0  0  0  0  0  0  0  0  0  0  0
   59.0403   21.2038   44.1835 H   0  0  0  0  0  0  0  0  0  0  0  0
   58.3197   22.5917   43.1989 H   0  0  0  0  0  0  0  0  0  0  0  0
   58.8363   22.4604   46.1700 H   0  0  0  0  0  0  0  0  0  0  0  0
   59.5054   23.5967   44.8852 H   0  0  0  0  0  0  0  0  0  0  0  0
   59.8206   27.2981   45.0975 H   0  0  0  0  0  0  0  0  0  0  0  0
   59.2643   29.4441   43.9659 H   0  0  0  0  0  0  0  0  0  0  0  0
   57.6688   34.3121   44.3806 H   0  0  0  0  0  0  0  0  0  0  0  0
   58.5816   35.3202   46.4698 H   0  0  0  0  0  0  0  0  0  0  0  0
   59.9239   31.4234   47.7766 H   0  0  0  0  0  0  0  0  0  0  0  0
   59.0158   30.4051   45.6912 H   0  0  0  0  0  0  0  0  0  0  0  0
   55.0968   28.9193   45.0026 H   0  0  0  0  0  0  0  0  0  0  0  0
   55.6270   26.0120   47.0740 H   0  0  0  0  0  0  0  0  0  0  0  0
   56.4941   22.6157   46.6622 H   0  0  0  0  0  0  0  0  0  0  0  0
   55.8526   24.3343   46.6516 H   0  0  0  0  0  0  0  0  0  0  0  0
   54.4293   22.6163   45.4599 H   0  0  0  0  0  0  0  0  0  0  0  0
   54.9548   24.0994   44.5098 H   0  0  0  0  0  0  0  0  0  0  0  0
  1  2  1  0
  2  3  1  0
  3  4  1  0
  4  5  1  0
  5  6  1  0
  6  7  1  0
  7  8  2  0
  7  9  2  0
  7 10  1  0
 10 11  2  0
 11 12  1  0
 12 13  2  0
 13 14  1  0
 14 15  1  0
 15 16  2  0
 15 17  1  0
 17 18  2  0
 18 19  1  0
 19 20  2  0
 20 21  1  0
 20 22  1  0
 22 23  2  0
 13 24  1  0
 24 25  2  0
 25 26  1  0
  6 27  1  0
 27 28  1  0
 28  2  1  0
 25 10  1  0
 23 17  1  0
  1 29  1  0
  1 30  1  0
  1 31  1  0
  3 32  1  0
  3 33  1  0
  4 34  1  0
  4 35  1  0
  5 36  1  0
  5 37  1  0
 11 38  1  0
 12 39  1  0
 18 40  1  0
 19 41  1  0
 22 42  1  0
 23 43  1  0
 24 44  1  0
 26 45  1  0
 27 46  1  0
 27 47  1  0
 28 48  1  0
 28 49  1  0
M  CHG  1  14  -1
M  END
>  <UniqueID>  (24) 
22

>  <SMILES>  (24) 
CN1CCCN(S(=O)(=O)c2ccc([N-]C(=O)c3ccc(Br)cc3)cc2O)CC1

>  <Energy>  (24) 
75.22059205621477

>  <Genealogy>  (24) 
CN1CCCN(S(=O)(=O)c2ccc([N-]C(=O)c3ccc(Br)cc3)cc2O)CC1 (protonated)
CN1CCCN(S(=O)(=O)c2ccc([N-]C(=O)c3ccc(Br)cc3)cc2O)CC1 (3D coordinates assigned)
CN1CCCN(S(=O)(=O)c2ccc([N-]C(=O)c3ccc(Br)cc3)cc2O)CC1 (nonaromatic ring conformer: 75.22059205621477 kcal/mol)

>  <smiles>  (24) 
CN1CCCN(S(=O)(=O)c2ccc(NC(=O)c3ccc(Br)cc3)cc2O)CC1

>  <score_type>  (24) 
oracle

>  <origin>  (24) 
adg

>  <m_score__min__energy>  (24) 
-9.25

>  <m_primary>  (24) 
energy

$$$$
24:0
     RDKit          3D

 46 49  0  0  0  0  0  0  0  0999 V2000
   57.7620   28.4360   43.9250 C   0  0  0  0  0  0  0  0  0  0  0  0
   56.6070   29.7430   43.5620 S   0  0  0  0  0  0  0  0  0  0  0  0
   55.5680   29.8410   44.6430 O   0  0  0  0  0  0  0  0  0  0  0  0
   55.9240   29.4290   42.2610 O   0  0  0  0  0  0  0  0  0  0  0  0
   57.4430   31.2570   43.4040 N   0  0  0  0  0  0  0  0  0  0  0  0
   57.8690   32.0660   44.5160 C   0  0  0  0  0  0  0  0  0  0  0  0
   58.2120   33.4090   44.2910 C   0  0  0  0  0  0  0  0  0  0  0  0
   58.6360   34.2210   45.3460 C   0  0  0  0  0  0  0  0  0  0  0  0
   58.7340   33.7050   46.6460 C   0  0  0  0  0  0  0  0  0  0  0  0
   59.1750   34.5580   47.7180 N   0  0  0  0  0  0  0  0  0  0  0  0
   60.0920   34.1250   48.7380 C   0  0  0  0  0  0  0  0  0  0  0  0
   59.6440   33.9790   50.0140 N   0  0  0  0  0  0  0  0  0  0  0  0
   60.4410   33.5320   51.0190 C   0  0  0  0  0  0  0  0  0  0  0  0
   59.9070   33.4090   52.3970 C   0  0  0  0  0  0  0  0  0  0  0  0
   58.6510   32.8140   52.6290 C   0  0  0  0  0  0  0  0  0  0  0  0
   58.1460   32.7020   53.9280 C   0  0  0  0  0  0  0  0  0  0  0  0
   58.8870   33.1820   55.0110 C   0  0  0  0  0  0  0  0  0  0  0  0
   60.1330   33.7740   54.7960 C   0  0  0  0  0  0  0  0  0  0  0  0
   60.6420   33.8890   53.4990 C   0  0  0  0  0  0  0  0  0  0  0  0
   61.7310   33.2000   50.7480 N   0  0  0  0  0  0  0  0  0  0  0  0
   62.2430   33.3170   49.4960 C   0  0  0  0  0  0  0  0  0  0  0  0
   63.5780   32.9720   49.2580 C   0  0  0  0  0  0  0  0  0  0  0  0
   64.1180   33.1090   47.9770 C   0  0  0  0  0  0  0  0  0  0  0  0
   63.3300   33.5970   46.9320 C   0  0  0  0  0  0  0  0  0  0  0  0
   61.9940   33.9430   47.1580 C   0  0  0  0  0  0  0  0  0  0  0  0
   61.4310   33.7930   48.4420 C   0  0  0  0  0  0  0  0  0  0  0  0
   58.3540   32.3720   46.8810 C   0  0  0  0  0  0  0  0  0  0  0  0
   57.9300   31.5590   45.8260 C   0  0  0  0  0  0  0  0  0  0  0  0
   57.8598   28.3254   45.0150 H   0  0  0  0  0  0  0  0  0  0  0  0
   57.3967   27.4931   43.4920 H   0  0  0  0  0  0  0  0  0  0  0  0
   58.7427   28.6826   43.4920 H   0  0  0  0  0  0  0  0  0  0  0  0
   57.7360   31.5320   42.4400 H   0  0  0  0  0  0  0  0  0  0  0  0
   58.1463   33.8255   43.2750 H   0  0  0  0  0  0  0  0  0  0  0  0
   58.8949   35.2730   45.1553 H   0  0  0  0  0  0  0  0  0  0  0  0
   58.9420   35.5740   47.6550 H   0  0  0  0  0  0  0  0  0  0  0  0
   58.0626   32.4343   51.7807 H   0  0  0  0  0  0  0  0  0  0  0  0
   57.1643   32.2355   54.0975 H   0  0  0  0  0  0  0  0  0  0  0  0
   58.4888   33.0935   56.0326 H   0  0  0  0  0  0  0  0  0  0  0  0
   60.7158   34.1510   55.6494 H   0  0  0  0  0  0  0  0  0  0  0  0
   61.6239   34.3579   53.3376 H   0  0  0  0  0  0  0  0  0  0  0  0
   64.2027   32.5927   50.0801 H   0  0  0  0  0  0  0  0  0  0  0  0
   65.1661   32.8320   47.7908 H   0  0  0  0  0  0  0  0  0  0  0  0
   63.7623   33.7096   45.9268 H   0  0  0  0  0  0  0  0  0  0  0  0
   61.3809   34.3331   46.3322 H   0  0  0  0  0  0  0  0  0  0  0  0
   58.3906   31.9659   47.9026 H   0  0  0  0  0  0  0  0  0  0  0  0
   57.6421   30.5156   46.0219 H   0  0  0  0  0  0  0  0  0  0  0  0
  1  2  1  0
  2  3  2  0
  2  4  2  0
  2  5  1  0
  5  6  1  0
  6  7  2  0
  7  8  1  0
  8  9  2  0
  9 10  1  0
 10 11  1  0
 11 12  2  0
 12 13  1  0
 13 14  1  0
 14 15  2  0
 15 16  1  0
 16 17  2  0
 17 18  1  0
 18 19  2  0
 13 20  2  0
 20 21  1  0
 21 22  2  0
 22 23  1  0
 23 24  2  0
 24 25  1  0
 25 26  2  0
  9 27  1  0
 27 28  2  0
 28  6  1  0
 26 11  1  0
 19 14  1  0
 26 21  1  0
  1 29  1  0
  1 30  1  0
  1 31  1  0
  5 32  1  0
  7 33  1  0
  8 34  1  0
 10 35  1  0
 15 36  1  0
 16 37  1  0
 17 38  1  0
 18 39  1  0
 19 40  1  0
 22 41  1  0
 23 42  1  0
 24 43  1  0
 25 44  1  0
 27 45  1  0
 28 46  1  0
M  END
>  <UniqueID>  (25) 
23

>  <SMILES>  (25) 
CS(=O)(=O)Nc1ccc(Nc2nc(-c3ccccc3)nc3ccccc23)cc1

>  <Energy>  (25) 
59.78126309812632

>  <Genealogy>  (25) 
CS(=O)(=O)Nc1ccc(Nc2nc(-c3ccccc3)nc3ccccc23)cc1 (3D coordinates assigned)
CS(=O)(=O)Nc1ccc(Nc2nc(-c3ccccc3)nc3ccccc23)cc1 (optimized conformer: 59.78126309812632 kcal/mol)

>  <smiles>  (25) 
CS(=O)(=O)Nc1ccc(Nc2nc(-c3ccccc3)nc3ccccc23)cc1

>  <score_type>  (25) 
oracle

>  <origin>  (25) 
adg

>  <m_score__min__energy>  (25) 
-8.9800000000000004

>  <m_primary>  (25) 
energy

$$$$
25:0
     RDKit          3D

 38 40  0  0  0  0  0  0  0  0999 V2000
   61.2150   28.2554   45.6535 H   0  0  0  0  0  0  0  0  0  0  0  0
   60.3670   28.9120   45.8980 C   0  0  0  0  0  0  0  0  0  0  0  0
   60.6170   30.1640   46.1510 N   0  0  0  0  0  0  0  0  0  0  0  0
   61.1170   30.6430   47.3760 N   0  0  0  0  0  0  0  0  0  0  0  0
   61.3970   31.9170   47.7220 C   0  0  0  0  0  0  0  0  0  0  0  0
   61.3540   33.1070   46.8060 C   0  0  0  0  0  0  0  0  0  0  0  0
   61.7570   33.9830   47.3354 H   0  0  0  0  0  0  0  0  0  0  0  0
   61.9575   32.8839   45.9138 H   0  0  0  0  0  0  0  0  0  0  0  0
   59.9440   33.4020   46.3690 C   0  0  0  0  0  0  0  0  0  0  0  0
   59.7090   34.2280   45.2560 C   0  0  0  0  0  0  0  0  0  0  0  0
   60.5579   34.6543   44.7014 H   0  0  0  0  0  0  0  0  0  0  0  0
   58.4010   34.5100   44.8510 C   0  0  0  0  0  0  0  0  0  0  0  0
   58.2230   35.1589   43.9808 H   0  0  0  0  0  0  0  0  0  0  0  0
   57.3190   33.9680   45.5510 C   0  0  0  0  0  0  0  0  0  0  0  0
   56.2902   34.1929   45.2331 H   0  0  0  0  0  0  0  0  0  0  0  0
   57.5440   33.1410   46.6540 C   0  0  0  0  0  0  0  0  0  0  0  0
   56.6920   32.7132   47.2026 H   0  0  0  0  0  0  0  0  0  0  0  0
   58.8520   32.8560   47.0620 C   0  0  0  0  0  0  0  0  0  0  0  0
   59.0251   32.2016   47.9291 H   0  0  0  0  0  0  0  0  0  0  0  0
   61.5830   32.0210   49.0550 N   0  0  0  0  0  0  0  0  0  0  0  0
   61.3990   30.8140   49.5740 N   0  0  0  0  0  0  0  0  0  0  0  0
   61.0940   29.9950   48.5520 C   0  0  0  0  0  0  0  0  0  0  0  0
   60.7150   28.4140   48.7360 S   0  0  0  0  0  0  0  0  0  0  0  0
   59.0130   28.3180   45.9190 C   0  0  0  0  0  0  0  0  0  0  0  0
   58.7670   27.0620   46.4990 C   0  0  0  0  0  0  0  0  0  0  0  0
   59.5954   26.4935   46.9468 H   0  0  0  0  0  0  0  0  0  0  0  0
   57.4750   26.5330   46.5090 C   0  0  0  0  0  0  0  0  0  0  0  0
   57.2921   25.5430   46.9522 H   0  0  0  0  0  0  0  0  0  0  0  0
   56.4140   27.2550   45.9590 C   0  0  0  0  0  0  0  0  0  0  0  0
   55.1340   26.7130   45.9730 O   0  0  0  0  0  0  0  0  0  0  0  0
   56.6340   28.5220   45.4010 C   0  0  0  0  0  0  0  0  0  0  0  0
   55.5400   29.2170   44.8640 O   0  0  0  0  0  0  0  0  0  0  0  0
   55.6070   30.0700   43.7260 C   0  0  0  0  0  0  0  0  0  0  0  0
   55.6892   31.1161   44.0562 H   0  0  0  0  0  0  0  0  0  0  0  0
   56.4872   29.8062   43.1213 H   0  0  0  0  0  0  0  0  0  0  0  0
   54.6964   29.9468   43.1213 H   0  0  0  0  0  0  0  0  0  0  0  0
   57.9380   29.0540   45.3970 C   0  0  0  0  0  0  0  0  0  0  0  0
   58.1158   30.0565   44.9806 H   0  0  0  0  0  0  0  0  0  0  0  0
  1  2  1  0
  2  3  2  0
  3  4  1  0
  4  5  1  0
  5  6  1  0
  6  7  1  0
  6  8  1  0
  6  9  1  0
  9 10  2  0
 10 11  1  0
 10 12  1  0
 12 13  1  0
 12 14  2  0
 14 15  1  0
 14 16  1  0
 16 17  1  0
 16 18  2  0
 18 19  1  0
  5 20  2  0
 20 21  1  0
 21 22  1  0
 22 23  2  0
  2 24  1  0
 24 25  2  0
 25 26  1  0
 25 27  1  0
 27 28  1  0
 27 29  2  0
 29 30  1  0
 29 31  1  0
 31 32  1  0
 32 33  1  0
 33 34  1  0
 33 35  1  0
 33 36  1  0
 31 37  2  0
 37 38  1  0
 22  4  1  0
 37 24  1  0
 18  9  1  0
M  CHG  2  21  -1  30  -1
M  END
>  <UniqueID>  (26) 
24

>  <SMILES>  (26) 
COc1cc(/C=N\n2c(Cc3ccccc3)n[n-]c2=S)ccc1[O-]

>  <Energy>  (26) 
85.89798966730218

>  <Genealogy>  (26) 
COc1cc(C=Nn2c(Cc3ccccc3)n[n-]c2=S)ccc1[O-] (protonated)
COc1cc(/C=N\n2c(Cc3ccccc3)n[n-]c2=S)ccc1[O-] (cis-trans isomerization)
COc1cc(/C=N\n2c(Cc3ccccc3)n[n-]c2=S)ccc1[O-] (3D coordinates assigned)
COc1cc(/C=N\n2c(Cc3ccccc3)n[n-]c2=S)ccc1[O-] (optimized conformer: 85.89798966730218 kcal/mol)

>  <smiles>  (26) 
COc1cc(C=Nn2c(Cc3ccccc3)n[nH]c2=S)ccc1O

>  <score_type>  (26) 
oracle

>  <origin>  (26) 
adg

>  <m_score__min__energy>  (26) 
-12.51

>  <m_primary>  (26) 
energy

$$$$
26:0
     RDKit          3D

 24 25  0  0  0  0  0  0  0  0999 V2000
   59.7980   28.0440   45.0450 O   0  0  0  0  0  0  0  0  0  0  0  0
   58.5780   27.8350   45.2810 C   0  0  0  0  0  0  0  0  0  0  0  0
   58.2160   26.7040   45.9380 N   0  0  0  0  0  0  0  0  0  0  0  0
   56.9130   26.4390   46.2120 C   0  0  0  0  0  0  0  0  0  0  0  0
   56.5090   25.0690   47.0030 S   0  0  0  0  0  0  0  0  0  0  0  0
   55.9470   27.3080   45.8260 N   0  0  0  0  0  0  0  0  0  0  0  0
   56.2550   28.4550   45.1660 C   0  0  0  0  0  0  0  0  0  0  0  0
   55.2320   29.3210   44.7850 O   0  0  0  0  0  0  0  0  0  0  0  0
   57.5970   28.7600   44.8750 C   0  0  0  0  0  0  0  0  0  0  0  0
   57.9630   30.0110   44.1080 C   0  0  0  0  0  0  0  0  0  0  0  0
   57.8780   31.2220   45.0000 C   0  0  0  0  0  0  0  0  0  0  0  0
   58.2690   31.1400   46.3480 C   0  0  0  0  0  0  0  0  0  0  0  0
   58.2170   32.2720   47.1660 C   0  0  0  0  0  0  0  0  0  0  0  0
   57.7810   33.4940   46.6470 C   0  0  0  0  0  0  0  0  0  0  0  0
   57.3960   33.5860   45.3070 C   0  0  0  0  0  0  0  0  0  0  0  0
   57.4450   32.4560   44.4850 C   0  0  0  0  0  0  0  0  0  0  0  0
   54.3180   28.9670   44.5320 H   0  0  0  0  0  0  0  0  0  0  0  0
   58.9902   29.9140   43.7266 H   0  0  0  0  0  0  0  0  0  0  0  0
   57.2579   30.1347   43.2728 H   0  0  0  0  0  0  0  0  0  0  0  0
   58.6171   30.1814   46.7603 H   0  0  0  0  0  0  0  0  0  0  0  0
   58.5200   32.2009   48.2210 H   0  0  0  0  0  0  0  0  0  0  0  0
   57.7409   34.3833   47.2932 H   0  0  0  0  0  0  0  0  0  0  0  0
   57.0540   34.5483   44.8984 H   0  0  0  0  0  0  0  0  0  0  0  0
   57.1432   32.5332   43.4300 H   0  0  0  0  0  0  0  0  0  0  0  0
  1  2  2  0
  2  3  1  0
  3  4  1  0
  4  5  2  0
  4  6  1  0
  6  7  1  0
  7  8  1  0
  7  9  2  0
  9 10  1  0
 10 11  1  0
 11 12  2  0
 12 13  1  0
 13 14  2  0
 14 15  1  0
 15 16  2  0
  9  2  1  0
 16 11  1  0
  8 17  1  0
 10 18  1  0
 10 19  1  0
 12 20  1  0
 13 21  1  0
 14 22  1  0
 15 23  1  0
 16 24  1  0
M  CHG  2   3  -1   6  -1
M  END
>  <UniqueID>  (27) 
25

>  <SMILES>  (27) 
O=c1[n-]c(=S)[n-]c(O)c1Cc1ccccc1

>  <Energy>  (27) 
25.328604401597808

>  <Genealogy>  (27) 
O=c1[n-]c(=S)[n-]c(O)c1Cc1ccccc1 (protonated)
O=c1[n-]c(=S)[n-]c(O)c1Cc1ccccc1 (3D coordinates assigned)
O=c1[n-]c(=S)[n-]c(O)c1Cc1ccccc1 (optimized conformer: 25.328604401597808 kcal/mol)

>  <smiles>  (27) 
O=c1[nH]c(=S)[nH]c(O)c1Cc1ccccc1

>  <score_type>  (27) 
oracle

>  <origin>  (27) 
adg

>  <m_score__min__energy>  (27) 
-10.119999999999999

>  <m_primary>  (27) 
energy

$$$$
27:0
     RDKit          3D

 65 68  0  0  0  0  0  0  0  0999 V2000
   55.9680   19.7370   44.5480 C   0  0  0  0  0  0  0  0  0  0  0  0
   55.9110   20.9220   43.7590 O   0  0  0  0  0  0  0  0  0  0  0  0
   56.0930   22.2180   44.2640 C   0  0  0  0  0  0  0  0  0  0  0  0
   55.7130   22.5820   45.5700 C   0  0  0  0  0  0  0  0  0  0  0  0
   55.9120   23.8890   46.0240 C   0  0  0  0  0  0  0  0  0  0  0  0
   56.5030   24.8500   45.1860 C   0  0  0  0  0  0  0  0  0  0  0  0
   56.6970   26.2500   45.6230 C   0  0  0  0  0  0  0  0  0  0  0  0
   57.6900   27.0610   45.2030 C   0  0  0  0  0  0  0  0  0  0  0  0
   59.1160   26.5810   45.2940 C   0  0  0  0  0  0  0  0  0  0  0  0
   59.3560   26.0160   46.6170 N   0  0  0  0  0  0  0  0  0  0  0  0
   59.7800   26.7900   47.7460 C   0  0  0  0  0  0  0  0  0  0  0  0
   60.0230   26.2180   48.8440 O   0  0  0  0  0  0  0  0  0  0  0  0
   59.9270   28.2580   47.6300 C   0  0  0  0  0  0  0  0  0  0  0  0
   60.7660   28.8130   46.6480 C   0  0  0  0  0  0  0  0  0  0  0  0
   60.9310   30.1980   46.5590 C   0  0  0  0  0  0  0  0  0  0  0  0
   60.2720   31.0420   47.4550 C   0  0  0  0  0  0  0  0  0  0  0  0
   59.4330   30.5060   48.4380 C   0  0  0  0  0  0  0  0  0  0  0  0
   58.6720   31.5800   49.6070 S   0  0  0  0  0  0  0  0  0  0  0  0
   57.8010   30.7630   50.5200 O   0  0  0  0  0  0  0  0  0  0  0  0
   59.7020   32.2910   50.4370 O   0  0  0  0  0  0  0  0  0  0  0  0
   57.6910   32.7340   48.7650 N   0  0  0  0  0  0  0  0  0  0  0  0
   58.1450   33.4080   47.5800 C   0  0  0  0  0  0  0  0  0  0  0  0
   57.4400   33.2850   46.3690 C   0  0  0  0  0  0  0  0  0  0  0  0
   57.8900   33.9320   45.2190 C   0  0  0  0  0  0  0  0  0  0  0  0
   59.0460   34.7110   45.2600 C   0  0  0  0  0  0  0  0  0  0  0  0
   59.7590   34.8410   46.4530 C   0  0  0  0  0  0  0  0  0  0  0  0
   59.3180   34.1910   47.6230 C   0  0  0  0  0  0  0  0  0  0  0  0
   60.0080   34.3110   48.8400 O   0  0  0  0  0  0  0  0  0  0  0  0
   61.4210   34.1910   48.9830 C   0  0  0  0  0  0  0  0  0  0  0  0
   59.2590   29.1160   48.5230 C   0  0  0  0  0  0  0  0  0  0  0  0
   57.4520   28.4710   44.8130 C   0  0  0  0  0  0  0  0  0  0  0  0
   56.1410   28.9750   44.7590 C   0  0  0  0  0  0  0  0  0  0  0  0
   55.9120   30.2990   44.3750 C   0  0  0  0  0  0  0  0  0  0  0  0
   56.9880   31.1270   44.0400 C   0  0  0  0  0  0  0  0  0  0  0  0
   58.2930   30.6320   44.0800 C   0  0  0  0  0  0  0  0  0  0  0  0
   58.5260   29.3070   44.4600 C   0  0  0  0  0  0  0  0  0  0  0  0
   56.8560   24.4920   43.8770 C   0  0  0  0  0  0  0  0  0  0  0  0
   56.6670   23.1830   43.4260 C   0  0  0  0  0  0  0  0  0  0  0  0
   55.9551   20.0057   45.6146 H   0  0  0  0  0  0  0  0  0  0  0  0
   55.0994   19.1021   44.3193 H   0  0  0  0  0  0  0  0  0  0  0  0
   56.8936   19.1884   44.3193 H   0  0  0  0  0  0  0  0  0  0  0  0
   55.2575   21.8344   46.2361 H   0  0  0  0  0  0  0  0  0  0  0  0
   55.6043   24.1669   47.0429 H   0  0  0  0  0  0  0  0  0  0  0  0
   55.9766   26.6611   46.3455 H   0  0  0  0  0  0  0  0  0  0  0  0
   59.2930   25.8108   44.5289 H   0  0  0  0  0  0  0  0  0  0  0  0
   59.7988   27.4273   45.1277 H   0  0  0  0  0  0  0  0  0  0  0  0
   61.2959   28.1531   45.9453 H   0  0  0  0  0  0  0  0  0  0  0  0
   61.5816   30.6242   45.7811 H   0  0  0  0  0  0  0  0  0  0  0  0
   60.4128   32.1309   47.3879 H   0  0  0  0  0  0  0  0  0  0  0  0
   56.6750   32.7550   49.0120 H   0  0  0  0  0  0  0  0  0  0  0  0
   56.5265   32.6735   46.3291 H   0  0  0  0  0  0  0  0  0  0  0  0
   57.3318   33.8278   44.2769 H   0  0  0  0  0  0  0  0  0  0  0  0
   59.3961   35.2233   44.3517 H   0  0  0  0  0  0  0  0  0  0  0  0
   60.6713   35.4550   46.4800 H   0  0  0  0  0  0  0  0  0  0  0  0
   61.6808   34.1689   50.0516 H   0  0  0  0  0  0  0  0  0  0  0  0
   61.7604   33.2608   48.5039 H   0  0  0  0  0  0  0  0  0  0  0  0
   61.9124   35.0507   48.5039 H   0  0  0  0  0  0  0  0  0  0  0  0
   58.5960   28.6945   49.2929 H   0  0  0  0  0  0  0  0  0  0  0  0
   55.2926   28.3252   45.0198 H   0  0  0  0  0  0  0  0  0  0  0  0
   54.8846   30.6902   44.3362 H   0  0  0  0  0  0  0  0  0  0  0  0
   56.8059   32.1707   43.7443 H   0  0  0  0  0  0  0  0  0  0  0  0
   59.1374   31.2843   43.8126 H   0  0  0  0  0  0  0  0  0  0  0  0
   59.5542   28.9167   44.4829 H   0  0  0  0  0  0  0  0  0  0  0  0
   57.2844   25.2465   43.2008 H   0  0  0  0  0  0  0  0  0  0  0  0
   56.9712   22.9081   42.4053 H   0  0  0  0  0  0  0  0  0  0  0  0
  1  2  1  0
  2  3  1  0
  3  4  2  0
  4  5  1  0
  5  6  2  0
  6  7  1  0
  7  8  2  3
  8  9  1  0
  9 10  1  0
 10 11  1  0
 11 12  2  0
 11 13  1  0
 13 14  2  0
 14 15  1  0
 15 16  2  0
 16 17  1  0
 17 18  1  0
 18 19  2  0
 18 20  2  0
 18 21  1  0
 21 22  1  0
 22 23  2  0
 23 24  1  0
 24 25  2  0
 25 26  1  0
 26 27  2  0
 27 28  1  0
 28 29  1  0
 17 30  2  0
  8 31  1  0
 31 32  2  0
 32 33  1  0
 33 34  2  0
 34 35  1  0
 35 36  2  0
  6 37  1  0
 37 38  2  0
 38  3  1  0
 30 13  1  0
 36 31  1  0
 27 22  1  0
  1 39  1  0
  1 40  1  0
  1 41  1  0
  4 42  1  0
  5 43  1  0
  7 44  1  0
  9 45  1  0
  9 46  1  0
 14 47  1  0
 15 48  1  0
 16 49  1  0
 21 50  1  0
 23 51  1  0
 24 52  1  0
 25 53  1  0
 26 54  1  0
 29 55  1  0
 29 56  1  0
 29 57  1  0
 30 58  1  0
 32 59  1  0
 33 60  1  0
 34 61  1  0
 35 62  1  0
 36 63  1  0
 37 64  1  0
 38 65  1  0
M  CHG  1  10  -1
M  END
>  <UniqueID>  (28) 
26

>  <SMILES>  (28) 
COc1ccc(C=C(C[N-]C(=O)c2cccc(S(=O)(=O)Nc3ccccc3OC)c2)c2ccccc2)cc1

>  <Energy>  (28) 
79.55088691258652

>  <Genealogy>  (28) 
COc1ccc(C=C(C[N-]C(=O)c2cccc(S(=O)(=O)Nc3ccccc3OC)c2)c2ccccc2)cc1 (protonated)
COc1ccc(C=C(C[N-]C(=O)c2cccc(S(=O)(=O)Nc3ccccc3OC)c2)c2ccccc2)cc1 (3D coordinates assigned)
COc1ccc(C=C(C[N-]C(=O)c2cccc(S(=O)(=O)Nc3ccccc3OC)c2)c2ccccc2)cc1 (optimized conformer: 79.55088691258652 kcal/mol)

>  <smiles>  (28) 
COc1ccc(C=C(CNC(=O)c2cccc(S(=O)(=O)Nc3ccccc3OC)c2)c2ccccc2)cc1

>  <score_type>  (28) 
oracle

>  <origin>  (28) 
adg

>  <m_score__min__energy>  (28) 
-12.369999999999999

>  <m_primary>  (28) 
energy

$$$$
28:0
     RDKit          3D

 47 48  0  0  0  0  0  0  0  0999 V2000
   56.3710   29.7010   44.0840 C   0  0  0  0  0  0  0  0  0  0  0  0
   56.7520   29.4820   45.4390 O   0  0  0  0  0  0  0  0  0  0  0  0
   57.4640   28.3660   45.9050 C   0  0  0  0  0  0  0  0  0  0  0  0
   57.3310   27.1080   45.2800 C   0  0  0  0  0  0  0  0  0  0  0  0
   58.0300   25.9890   45.7530 C   0  0  0  0  0  0  0  0  0  0  0  0
   57.8780   24.6560   45.0660 C   0  0  0  0  0  0  0  0  0  0  0  0
   59.0540   23.8160   45.3000 N   0  0  0  0  0  0  0  0  0  0  0  0
   59.1260   22.4060   45.0160 C   0  0  0  0  0  0  0  0  0  0  0  0
   60.3860   21.7400   45.1330 N   0  0  0  0  0  0  0  0  0  0  0  0
   58.0720   21.7280   44.6660 N   0  0  0  0  0  0  0  0  0  0  0  0
   58.8840   26.1280   46.8520 C   0  0  0  0  0  0  0  0  0  0  0  0
   59.0280   27.3660   47.4780 C   0  0  0  0  0  0  0  0  0  0  0  0
   58.3320   28.4910   47.0210 C   0  0  0  0  0  0  0  0  0  0  0  0
   58.5510   29.6920   47.7200 O   0  0  0  0  0  0  0  0  0  0  0  0
   59.7710   30.4240   47.7920 C   0  0  0  0  0  0  0  0  0  0  0  0
   59.7830   31.5990   46.7900 C   0  0  0  0  0  0  0  0  0  0  0  0
   58.4740   31.9770   46.1900 N   0  0  0  0  0  0  0  0  0  0  0  0
   58.4970   32.2800   44.7480 C   0  0  0  0  0  0  0  0  0  0  0  0
   57.3840   33.2790   44.5030 C   0  0  0  0  0  0  0  0  0  0  0  0
   57.3100   34.0660   45.7940 C   0  0  0  0  0  0  0  0  0  0  0  0
   57.8000   33.1030   46.8690 C   0  0  0  0  0  0  0  0  0  0  0  0
   55.4176   30.2490   44.0552 H   0  0  0  0  0  0  0  0  0  0  0  0
   57.1482   30.2902   43.5752 H   0  0  0  0  0  0  0  0  0  0  0  0
   56.2530   28.7329   43.5752 H   0  0  0  0  0  0  0  0  0  0  0  0
   56.6685   27.0039   44.4081 H   0  0  0  0  0  0  0  0  0  0  0  0
   56.9862   24.1465   45.4598 H   0  0  0  0  0  0  0  0  0  0  0  0
   57.7742   24.8256   43.9841 H   0  0  0  0  0  0  0  0  0  0  0  0
   59.9130   24.2860   45.6660 H   0  0  0  0  0  0  0  0  0  0  0  0
   60.4740   20.7180   44.9390 H   0  0  0  0  0  0  0  0  0  0  0  0
   61.2400   22.2700   45.4120 H   0  0  0  0  0  0  0  0  0  0  0  0
   57.1570   22.2090   44.5190 H   0  0  0  0  0  0  0  0  0  0  0  0
   58.0980   20.6980   44.5070 H   0  0  0  0  0  0  0  0  0  0  0  0
   59.4442   25.2575   47.2240 H   0  0  0  0  0  0  0  0  0  0  0  0
   59.6991   27.4597   48.3445 H   0  0  0  0  0  0  0  0  0  0  0  0
   59.8905   30.8212   48.8108 H   0  0  0  0  0  0  0  0  0  0  0  0
   60.5980   29.7444   47.5386 H   0  0  0  0  0  0  0  0  0  0  0  0
   60.1765   32.4816   47.3155 H   0  0  0  0  0  0  0  0  0  0  0  0
   60.3998   31.2547   45.9468 H   0  0  0  0  0  0  0  0  0  0  0  0
   57.8520   31.1390   46.3070 H   0  0  0  0  0  0  0  0  0  0  0  0
   59.4673   32.7147   44.4660 H   0  0  0  0  0  0  0  0  0  0  0  0
   58.3553   31.3697   44.1469 H   0  0  0  0  0  0  0  0  0  0  0  0
   57.6287   33.9377   43.6567 H   0  0  0  0  0  0  0  0  0  0  0  0
   56.4298   32.7961   44.2454 H   0  0  0  0  0  0  0  0  0  0  0  0
   57.9586   34.9530   45.7442 H   0  0  0  0  0  0  0  0  0  0  0  0
   56.2929   34.4319   45.9982 H   0  0  0  0  0  0  0  0  0  0  0  0
   58.5080   33.6157   47.5368 H   0  0  0  0  0  0  0  0  0  0  0  0
   56.9563   32.7389   47.4737 H   0  0  0  0  0  0  0  0  0  0  0  0
  1  2  1  0
  2  3  1  0
  3  4  2  0
  4  5  1  0
  5  6  1  0
  6  7  1  0
  7  8  1  0
  8  9  1  0
  8 10  2  0
  5 11  2  0
 11 12  1  0
 12 13  2  0
 13 14  1  0
 14 15  1  0
 15 16  1  0
 16 17  1  0
 17 18  1  0
 18 19  1  0
 19 20  1  0
 20 21  1  0
 13  3  1  0
 21 17  1  0
  1 22  1  0
  1 23  1  0
  1 24  1  0
  4 25  1  0
  6 26  1  0
  6 27  1  0
  7 28  1  0
  9 29  1  0
  9 30  1  0
 10 31  1  0
 10 32  1  0
 11 33  1  0
 12 34  1  0
 15 35  1  0
 15 36  1  0
 16 37  1  0
 16 38  1  0
 17 39  1  0
 18 40  1  0
 18 41  1  0
 19 42  1  0
 19 43  1  0
 20 44  1  0
 20 45  1  0
 21 46  1  0
 21 47  1  0
M  CHG  2  10   1  17   1
M  END
>  <UniqueID>  (29) 
27

>  <SMILES>  (29) 
COc1cc(CNC(N)=[NH2+])ccc1OCC[NH+]1CCCC1

>  <Energy>  (29) 
51.42256493058032

>  <Genealogy>  (29) 
COc1cc(CNC(N)=[NH2+])ccc1OCC[NH+]1CCCC1 (protonated)
COc1cc(CNC(N)=[NH2+])ccc1OCC[NH+]1CCCC1 (3D coordinates assigned)
COc1cc(CNC(N)=[NH2+])ccc1OCC[NH+]1CCCC1 (nonaromatic ring conformer: 51.42256493058032 kcal/mol)

>  <smiles>  (29) 
COc1cc(CNC(=N)N)ccc1OCCN1CCCC1

>  <score_type>  (29) 
oracle

>  <origin>  (29) 
adg

>  <m_score__min__energy>  (29) 
-2.7999999999999998

>  <m_primary>  (29) 
energy

$$$$
29:0
     RDKit          3D

 38 40  0  0  1  0  0  0  0  0999 V2000
   57.0850   34.1160   45.1990 C   0  0  0  0  0  0  0  0  0  0  0  0
   58.3870   33.4260   44.8370 C   0  0  0  0  0  0  0  0  0  0  0  0
   59.5300   34.2350   45.4040 C   0  0  0  0  0  0  0  0  0  0  0  0
   58.4200   32.0630   45.3350 N   0  0  0  0  0  0  0  0  0  0  0  0
   59.3860   31.4680   46.0890 C   0  0  0  0  0  0  0  0  0  0  0  0
   58.9920   30.1830   46.3200 N   0  0  0  0  0  0  0  0  0  0  0  0
   57.8050   29.9690   45.7240 C   0  0  0  0  0  0  0  0  0  0  0  0
   56.9490   28.8900   45.6200 C   0  0  0  0  0  0  0  0  0  0  0  0
   57.2550   27.7700   46.1870 N   0  0  0  0  0  0  0  0  0  0  0  0
   56.7200   26.5110   45.8410 C   0  0  0  0  0  0  0  0  0  0  0  0
   55.5130   26.1970   45.9160 O   0  0  0  0  0  0  0  0  0  0  0  0
   57.6420   25.5130   45.3630 N   0  0  0  0  0  0  0  0  0  0  0  0
   57.1600   24.2090   44.9930 C   0  0  0  0  0  0  0  0  0  0  0  0
   57.0350   23.8660   43.6650 C   0  0  0  0  0  0  0  0  0  0  0  0
   56.5680   22.6000   43.3170 C   0  0  0  0  0  0  0  0  0  0  0  0
   56.2330   21.7000   44.3310 C   0  0  0  0  0  0  0  0  0  0  0  0
   56.3580   22.0420   45.6700 C   0  0  0  0  0  0  0  0  0  0  0  0
   55.9340   20.9000   46.9500 Cl  0  0  0  0  0  0  0  0  0  0  0  0
   56.8260   23.3100   46.0070 C   0  0  0  0  0  0  0  0  0  0  0  0
   56.9790   23.7300   47.7010 Cl  0  0  0  0  0  0  0  0  0  0  0  0
   55.7890   28.9510   44.9430 N   0  0  0  0  0  0  0  0  0  0  0  0
   55.4610   30.1160   44.3480 C   0  0  0  0  0  0  0  0  0  0  0  0
   56.2650   31.2000   44.4210 N   0  0  0  0  0  0  0  0  0  0  0  0
   57.4410   31.1630   45.0980 C   0  0  0  0  0  0  0  0  0  0  0  0
   56.9890   34.1669   46.2936 H   0  0  0  0  0  0  0  0  0  0  0  0
   57.0816   35.1343   44.7829 H   0  0  0  0  0  0  0  0  0  0  0  0
   56.2405   33.5471   44.7829 H   0  0  0  0  0  0  0  0  0  0  0  0
   58.4771   33.3674   43.7423 H   0  0  0  0  0  0  0  0  0  0  0  0
   59.4897   34.2065   46.5029 H   0  0  0  0  0  0  0  0  0  0  0  0
   60.4851   33.8107   45.0610 H   0  0  0  0  0  0  0  0  0  0  0  0
   59.4474   35.2769   45.0610 H   0  0  0  0  0  0  0  0  0  0  0  0
   60.3141   31.9381   46.4462 H   0  0  0  0  0  0  0  0  0  0  0  0
   58.6680   25.7070   45.2740 H   0  0  0  0  0  0  0  0  0  0  0  0
   57.3031   24.5895   42.8810 H   0  0  0  0  0  0  0  0  0  0  0  0
   56.4648   22.3139   42.2599 H   0  0  0  0  0  0  0  0  0  0  0  0
   55.8625   20.6996   44.0627 H   0  0  0  0  0  0  0  0  0  0  0  0
   55.1540   28.1320   44.8720 H   0  0  0  0  0  0  0  0  0  0  0  0
   54.5159   30.1857   43.7895 H   0  0  0  0  0  0  0  0  0  0  0  0
  1  2  1  0
  2  3  1  0
  2  4  1  0
  4  5  1  0
  5  6  2  0
  6  7  1  0
  7  8  1  0
  8  9  2  0
  9 10  1  0
 10 11  2  0
 10 12  1  0
 12 13  1  0
 13 14  2  0
 14 15  1  0
 15 16  2  0
 16 17  1  0
 17 18  1  0
 17 19  2  0
 19 20  1  0
  8 21  1  0
 21 22  1  0
 22 23  2  0
 23 24  1  0
 24  4  1  0
 24  7  2  0
 19 13  1  0
  1 25  1  0
  1 26  1  0
  1 27  1  0
  2 28  1  0
  3 29  1  0
  3 30  1  0
  3 31  1  0
  5 32  1  0
 12 33  1  0
 14 34  1  0
 15 35  1  0
 16 36  1  0
 21 37  1  0
 22 38  1  0
M  END
>  <smiles>  (30) 
CC(C)n1cnc2c(=NC(=O)Nc3cccc(Cl)c3Cl)[nH]cnc21

>  <score_type>  (30) 
oracle

>  <origin>  (30) 
adg

>  <m_score__min__energy>  (30) 
-7.9699999999999998

>  <m_primary>  (30) 
energy

$$$$
30:0
     RDKit          3D

 62 66  0  0  0  0  0  0  0  0999 V2000
   64.1550   35.2690   51.7210 C   0  0  0  0  0  0  0  0  0  0  0  0
   64.9560   33.9970   51.6950 C   0  0  0  0  0  0  0  0  0  0  0  0
   66.0320   33.8530   52.5880 C   0  0  0  0  0  0  0  0  0  0  0  0
   66.8100   32.6930   52.5820 C   0  0  0  0  0  0  0  0  0  0  0  0
   66.5220   31.6620   51.6870 C   0  0  0  0  0  0  0  0  0  0  0  0
   67.4990   30.2050   51.6830 Cl  0  0  0  0  0  0  0  0  0  0  0  0
   65.4450   31.7830   50.8050 C   0  0  0  0  0  0  0  0  0  0  0  0
   64.6460   32.9400   50.8060 C   0  0  0  0  0  0  0  0  0  0  0  0
   63.5100   33.0080   49.9240 N   0  0  0  0  0  0  0  0  0  0  0  0
   63.5910   33.0890   48.4910 C   0  0  0  0  0  0  0  0  0  0  0  0
   64.6240   33.4000   47.8430 O   0  0  0  0  0  0  0  0  0  0  0  0
   62.3020   32.7860   47.9410 C   0  0  0  0  0  0  0  0  0  0  0  0
   61.6010   32.7940   46.7630 C   0  0  0  0  0  0  0  0  0  0  0  0
   60.2890   32.5040   47.1620 C   0  0  0  0  0  0  0  0  0  0  0  0
   59.1620   32.4380   46.2220 C   0  0  0  0  0  0  0  0  0  0  0  0
   58.7080   33.6050   45.5910 C   0  0  0  0  0  0  0  0  0  0  0  0
   57.6360   33.5450   44.6960 C   0  0  0  0  0  0  0  0  0  0  0  0
   57.0190   32.3210   44.4200 C   0  0  0  0  0  0  0  0  0  0  0  0
   57.4770   31.1480   45.0360 C   0  0  0  0  0  0  0  0  0  0  0  0
   56.7160   29.6020   44.6770 S   0  0  0  0  0  0  0  0  0  0  0  0
   57.0850   29.1460   43.0510 N   0  0  0  0  0  0  0  0  0  0  0  0
   55.2260   29.7180   44.8400 O   0  0  0  0  0  0  0  0  0  0  0  0
   57.2250   28.5540   45.6260 O   0  0  0  0  0  0  0  0  0  0  0  0
   58.5600   31.2080   45.9250 C   0  0  0  0  0  0  0  0  0  0  0  0
   60.2000   32.3690   48.5240 N   0  0  0  0  0  0  0  0  0  0  0  0
   59.0390   32.1120   49.3940 C   0  0  0  0  0  0  0  0  0  0  0  0
   59.0520   33.0410   50.6090 C   0  0  0  0  0  0  0  0  0  0  0  0
   58.9330   30.6390   49.8040 C   0  0  0  0  0  0  0  0  0  0  0  0
   61.4670   32.5240   48.9450 C   0  0  0  0  0  0  0  0  0  0  0  0
   62.1180   32.6400   50.2900 C   0  0  1  0  0  0  0  0  0  0  0  0
   62.0650   31.3260   51.0370 C   0  0  0  0  0  0  0  0  0  0  0  0
   62.1700   30.1010   50.3530 C   0  0  0  0  0  0  0  0  0  0  0  0
   62.1110   28.8940   51.0540 C   0  0  0  0  0  0  0  0  0  0  0  0
   61.9410   28.8960   52.4410 C   0  0  0  0  0  0  0  0  0  0  0  0
   61.8590   27.3790   53.3190 Cl  0  0  0  0  0  0  0  0  0  0  0  0
   61.8340   30.1090   53.1290 C   0  0  0  0  0  0  0  0  0  0  0  0
   61.8970   31.3180   52.4310 C   0  0  0  0  0  0  0  0  0  0  0  0
   63.9692   35.5640   52.7643 H   0  0  0  0  0  0  0  0  0  0  0  0
   64.7149   36.0654   51.2089 H   0  0  0  0  0  0  0  0  0  0  0  0
   63.1949   35.1082   51.2089 H   0  0  0  0  0  0  0  0  0  0  0  0
   66.2633   34.6609   53.2977 H   0  0  0  0  0  0  0  0  0  0  0  0
   67.6510   32.5921   53.2839 H   0  0  0  0  0  0  0  0  0  0  0  0
   65.2202   30.9659   50.1037 H   0  0  0  0  0  0  0  0  0  0  0  0
   61.9781   32.9829   45.7471 H   0  0  0  0  0  0  0  0  0  0  0  0
   59.1958   34.5684   45.8005 H   0  0  0  0  0  0  0  0  0  0  0  0
   57.2769   34.4629   44.2076 H   0  0  0  0  0  0  0  0  0  0  0  0
   56.1729   32.2784   43.7184 H   0  0  0  0  0  0  0  0  0  0  0  0
   56.9850   28.1080   42.9950 H   0  0  0  0  0  0  0  0  0  0  0  0
   58.0940   29.3600   42.8950 H   0  0  0  0  0  0  0  0  0  0  0  0
   58.9383   30.2861   46.3909 H   0  0  0  0  0  0  0  0  0  0  0  0
   58.1351   32.3348   48.8081 H   0  0  0  0  0  0  0  0  0  0  0  0
   59.0436   32.4400   51.5302 H   0  0  0  0  0  0  0  0  0  0  0  0
   59.9589   33.6630   50.5853 H   0  0  0  0  0  0  0  0  0  0  0  0
   58.1628   33.6881   50.5853 H   0  0  0  0  0  0  0  0  0  0  0  0
   58.9276   30.5633   50.9014 H   0  0  0  0  0  0  0  0  0  0  0  0
   58.0019   30.2127   49.4024 H   0  0  0  0  0  0  0  0  0  0  0  0
   59.7935   30.0838   49.4024 H   0  0  0  0  0  0  0  0  0  0  0  0
   61.6339   33.3632   50.9628 H   0  0  0  0  0  0  0  0  0  0  0  0
   62.2992   30.0936   49.2606 H   0  0  0  0  0  0  0  0  0  0  0  0
   62.1985   27.9402   50.5131 H   0  0  0  0  0  0  0  0  0  0  0  0
   61.7001   30.1113   54.2208 H   0  0  0  0  0  0  0  0  0  0  0  0
   61.8145   32.2693   52.9770 H   0  0  0  0  0  0  0  0  0  0  0  0
  1  2  1  0
  2  3  2  0
  3  4  1  0
  4  5  2  0
  5  6  1  0
  5  7  1  0
  7  8  2  0
  8  9  1  0
  9 10  1  0
 10 11  2  0
 10 12  1  0
 12 13  1  0
 13 14  2  0
 14 15  1  0
 15 16  2  0
 16 17  1  0
 17 18  2  0
 18 19  1  0
 19 20  1  0
 20 21  1  0
 20 22  2  0
 20 23  2  0
 19 24  2  0
 14 25  1  0
 25 26  1  0
 26 27  1  0
 26 28  1  0
 25 29  1  0
 29 30  1  0
 30 31  1  0
 31 32  2  0
 32 33  1  0
 33 34  2  0
 34 35  1  0
 34 36  1  0
 36 37  2  0
  8  2  1  0
 30  9  1  0
 37 31  1  0
 29 12  2  0
 24 15  1  0
  1 38  1  0
  1 39  1  0
  1 40  1  0
  3 41  1  0
  4 42  1  0
  7 43  1  0
 13 44  1  0
 16 45  1  0
 17 46  1  0
 18 47  1  0
 21 48  1  0
 21 49  1  0
 24 50  1  0
 26 51  1  0
 27 52  1  0
 27 53  1  0
 27 54  1  0
 28 55  1  0
 28 56  1  0
 28 57  1  0
 30 58  1  1
 32 59  1  0
 33 60  1  0
 36 61  1  0
 37 62  1  0
M  END
>  <UniqueID>  (31) 
28

>  <SMILES>  (31) 
Cc1ccc(Cl)cc1N1C(=O)c2cc(-c3cccc(S(N)(=O)=O)c3)n(C(C)C)c2[C@H]1c1ccc(Cl)cc1

>  <Energy>  (31) 
139.09631251629193

>  <Genealogy>  (31) 
Cc1ccc(Cl)cc1N1C(=O)c2cc(-c3cccc(S(N)(=O)=O)c3)n(C(C)C)c2[C@H]1c1ccc(Cl)cc1 (chirality)
Cc1ccc(Cl)cc1N1C(=O)c2cc(-c3cccc(S(N)(=O)=O)c3)n(C(C)C)c2[C@H]1c1ccc(Cl)cc1 (3D coordinates assigned)
Cc1ccc(Cl)cc1N1C(=O)c2cc(-c3cccc(S(N)(=O)=O)c3)n(C(C)C)c2[C@H]1c1ccc(Cl)cc1 (nonaromatic ring conformer: 139.09631251629193 kcal/mol)

>  <smiles>  (31) 
Cc1ccc(Cl)cc1N1C(=O)c2cc(-c3cccc(S(N)(=O)=O)c3)n(C(C)C)c2C1c1ccc(Cl)cc1

>  <score_type>  (31) 
oracle

>  <origin>  (31) 
adg

>  <m_score__min__energy>  (31) 
-9.8599999999999994

>  <m_primary>  (31) 
energy

$$$$
31:0
     RDKit          3D

 55 58  0  0  0  0  0  0  0  0999 V2000
   55.9300   27.8770   45.6010 O   0  0  0  0  0  0  0  0  0  0  0  0
   56.9380   28.8290   45.4700 C   0  0  0  0  0  0  0  0  0  0  0  0
   58.1070   28.7030   46.2260 C   0  0  0  0  0  0  0  0  0  0  0  0
   59.1220   29.6580   46.1150 C   0  0  0  0  0  0  0  0  0  0  0  0
   58.9680   30.7470   45.2520 C   0  0  0  0  0  0  0  0  0  0  0  0
   57.7930   30.8920   44.4960 C   0  0  0  0  0  0  0  0  0  0  0  0
   57.6040   32.1010   43.6170 C   0  0  0  0  0  0  0  0  0  0  0  0
   58.6540   33.1030   43.8730 N   0  0  0  0  0  0  0  0  0  0  0  0
   58.1880   34.2130   44.7210 C   0  0  0  0  0  0  0  0  0  0  0  0
   58.4680   33.9400   46.1750 C   0  0  0  0  0  0  0  0  0  0  0  0
   57.6800   33.0280   46.8940 C   0  0  0  0  0  0  0  0  0  0  0  0
   58.0100   32.6960   48.2110 C   0  0  0  0  0  0  0  0  0  0  0  0
   59.1220   33.2840   48.8360 C   0  0  0  0  0  0  0  0  0  0  0  0
   59.5090   32.8860   50.2090 C   0  0  0  0  0  0  0  0  0  0  0  0
   59.4090   33.8250   51.2510 C   0  0  0  0  0  0  0  0  0  0  0  0
   59.7960   33.4880   52.5470 C   0  0  0  0  0  0  0  0  0  0  0  0
   60.2830   32.2110   52.8220 C   0  0  0  0  0  0  0  0  0  0  0  0
   60.3790   31.2620   51.8020 C   0  0  0  0  0  0  0  0  0  0  0  0
   59.9920   31.5870   50.4850 C   0  0  0  0  0  0  0  0  0  0  0  0
   60.0480   30.6460   49.4410 O   0  0  0  0  0  0  0  0  0  0  0  0
   61.2320   30.2250   48.7620 C   0  0  0  0  0  0  0  0  0  0  0  0
   62.1050   31.4080   48.4380 C   0  0  0  0  0  0  0  0  0  0  0  0
   63.0280   31.8970   49.3780 C   0  0  0  0  0  0  0  0  0  0  0  0
   63.8310   33.0000   49.0680 C   0  0  0  0  0  0  0  0  0  0  0  0
   63.7240   33.6150   47.8170 C   0  0  0  0  0  0  0  0  0  0  0  0
   62.8170   33.1260   46.8730 C   0  0  0  0  0  0  0  0  0  0  0  0
   62.0120   32.0250   47.1790 C   0  0  0  0  0  0  0  0  0  0  0  0
   59.8920   34.2180   48.1240 C   0  0  0  0  0  0  0  0  0  0  0  0
   59.5630   34.5490   46.8080 C   0  0  0  0  0  0  0  0  0  0  0  0
   56.7870   29.9160   44.5960 C   0  0  0  0  0  0  0  0  0  0  0  0
   55.1430   27.8490   44.9620 H   0  0  0  0  0  0  0  0  0  0  0  0
   58.2286   27.8502   46.9101 H   0  0  0  0  0  0  0  0  0  0  0  0
   60.0428   29.5524   46.7074 H   0  0  0  0  0  0  0  0  0  0  0  0
   59.7708   31.4939   45.1645 H   0  0  0  0  0  0  0  0  0  0  0  0
   57.6505   31.7912   42.5626 H   0  0  0  0  0  0  0  0  0  0  0  0
   56.6253   32.5505   43.8410 H   0  0  0  0  0  0  0  0  0  0  0  0
   58.9240   33.5170   42.9490 H   0  0  0  0  0  0  0  0  0  0  0  0
   58.7073   35.1356   44.4224 H   0  0  0  0  0  0  0  0  0  0  0  0
   57.1012   34.3205   44.5891 H   0  0  0  0  0  0  0  0  0  0  0  0
   56.7987   32.5724   46.4189 H   0  0  0  0  0  0  0  0  0  0  0  0
   57.3947   31.9693   48.7617 H   0  0  0  0  0  0  0  0  0  0  0  0
   59.0224   34.8333   51.0417 H   0  0  0  0  0  0  0  0  0  0  0  0
   59.7170   34.2310   53.3543 H   0  0  0  0  0  0  0  0  0  0  0  0
   60.5924   31.9503   53.8449 H   0  0  0  0  0  0  0  0  0  0  0  0
   60.7589   30.2545   52.0270 H   0  0  0  0  0  0  0  0  0  0  0  0
   61.7901   29.5292   49.4057 H   0  0  0  0  0  0  0  0  0  0  0  0
   60.9453   29.7278   47.8236 H   0  0  0  0  0  0  0  0  0  0  0  0
   63.1195   31.4111   50.3606 H   0  0  0  0  0  0  0  0  0  0  0  0
   64.5473   33.3837   49.8094 H   0  0  0  0  0  0  0  0  0  0  0  0
   64.3539   34.4839   47.5758 H   0  0  0  0  0  0  0  0  0  0  0  0
   62.7364   33.6082   45.8876 H   0  0  0  0  0  0  0  0  0  0  0  0
   61.3029   31.6401   46.4313 H   0  0  0  0  0  0  0  0  0  0  0  0
   60.7598   34.6918   48.6061 H   0  0  0  0  0  0  0  0  0  0  0  0
   60.1654   35.2914   46.2640 H   0  0  0  0  0  0  0  0  0  0  0  0
   55.8762   30.0047   43.9857 H   0  0  0  0  0  0  0  0  0  0  0  0
  1  2  1  0
  2  3  2  0
  3  4  1  0
  4  5  2  0
  5  6  1  0
  6  7  1  0
  7  8  1  0
  8  9  1  0
  9 10  1  0
 10 11  2  0
 11 12  1  0
 12 13  2  0
 13 14  1  0
 14 15  2  0
 15 16  1  0
 16 17  2  0
 17 18  1  0
 18 19  2  0
 19 20  1  0
 20 21  1  0
 21 22  1  0
 22 23  2  0
 23 24  1  0
 24 25  2  0
 25 26  1  0
 26 27  2  0
 13 28  1  0
 28 29  2  0
  6 30  2  0
 30  2  1  0
 29 10  1  0
 19 14  1  0
 27 22  1  0
  1 31  1  0
  3 32  1  0
  4 33  1  0
  5 34  1  0
  7 35  1  0
  7 36  1  0
  8 37  1  0
  9 38  1  0
  9 39  1  0
 11 40  1  0
 12 41  1  0
 15 42  1  0
 16 43  1  0
 17 44  1  0
 18 45  1  0
 21 46  1  0
 21 47  1  0
 23 48  1  0
 24 49  1  0
 25 50  1  0
 26 51  1  0
 27 52  1  0
 28 53  1  0
 29 54  1  0
 30 55  1  0
M  END
>  <UniqueID>  (32) 
29

>  <SMILES>  (32) 
Oc1cccc(CNCc2ccc(-c3ccccc3OCc3ccccc3)cc2)c1

>  <Energy>  (32) 
60.33280066227826

>  <Genealogy>  (32) 
Oc1cccc(CNCc2ccc(-c3ccccc3OCc3ccccc3)cc2)c1 (3D coordinates assigned)
Oc1cccc(CNCc2ccc(-c3ccccc3OCc3ccccc3)cc2)c1 (optimized conformer: 60.33280066227826 kcal/mol)

>  <smiles>  (32) 
Oc1cccc(CNCc2ccc(-c3ccccc3OCc3ccccc3)cc2)c1

>  <score_type>  (32) 
oracle

>  <origin>  (32) 
adg

>  <m_score__min__energy>  (32) 
-10.15

>  <m_primary>  (32) 
energy

$$$$
32:0
     RDKit          3D

 45 48  0  0  0  0  0  0  0  0999 V2000
   51.0520   24.5510   44.3630 C   0  0  0  0  0  0  0  0  0  0  0  0
   52.0190   23.5680   44.9290 C   0  0  0  0  0  0  0  0  0  0  0  0
   53.3630   23.7800   45.1440 C   0  0  0  0  0  0  0  0  0  0  0  0
   53.8000   22.5500   45.6000 C   0  0  0  0  0  0  0  0  0  0  0  0
   55.0170   22.2180   45.9040 N   0  0  0  0  0  0  0  0  0  0  0  0
   56.4250   22.6770   44.9990 S   0  0  0  0  0  0  0  0  0  0  0  0
   56.2830   22.2270   43.5730 O   0  0  0  0  0  0  0  0  0  0  0  0
   57.6280   21.9970   45.5870 O   0  0  0  0  0  0  0  0  0  0  0  0
   56.6480   24.4200   45.0900 C   0  0  0  0  0  0  0  0  0  0  0  0
   57.5280   25.0500   44.2010 C   0  0  0  0  0  0  0  0  0  0  0  0
   57.7330   26.4290   44.2740 C   0  0  0  0  0  0  0  0  0  0  0  0
   57.0790   27.1880   45.2580 C   0  0  0  0  0  0  0  0  0  0  0  0
   57.3030   28.5970   45.3840 N   0  0  0  0  0  0  0  0  0  0  0  0
   56.4500   29.6300   44.8720 C   0  0  0  0  0  0  0  0  0  0  0  0
   55.2060   29.4490   44.8760 O   0  0  0  0  0  0  0  0  0  0  0  0
   56.9670   30.8810   44.3920 N   0  0  0  0  0  0  0  0  0  0  0  0
   57.6300   31.8880   45.1730 C   0  0  0  0  0  0  0  0  0  0  0  0
   57.0310   33.1520   45.2500 C   0  0  0  0  0  0  0  0  0  0  0  0
   57.6730   34.2100   45.8940 C   0  0  0  0  0  0  0  0  0  0  0  0
   58.9220   34.0210   46.4820 C   0  0  0  0  0  0  0  0  0  0  0  0
   59.5220   32.7520   46.4710 C   0  0  0  0  0  0  0  0  0  0  0  0
   60.7580   32.5560   47.1000 C   0  0  0  0  0  0  0  0  0  0  0  0
   61.3440   31.2910   47.1230 C   0  0  0  0  0  0  0  0  0  0  0  0
   60.6880   30.2060   46.5440 C   0  0  0  0  0  0  0  0  0  0  0  0
   59.4530   30.3820   45.9150 C   0  0  0  0  0  0  0  0  0  0  0  0
   58.8650   31.6610   45.8380 C   0  0  0  0  0  0  0  0  0  0  0  0
   56.1770   26.5620   46.1240 C   0  0  0  0  0  0  0  0  0  0  0  0
   55.9660   25.1820   46.0480 C   0  0  0  0  0  0  0  0  0  0  0  0
   52.7730   21.6840   45.6580 N   0  0  0  0  0  0  0  0  0  0  0  0
   51.7210   22.3280   45.2440 O   0  0  0  0  0  0  0  0  0  0  0  0
   50.5380   25.0736   45.1832 H   0  0  0  0  0  0  0  0  0  0  0  0
   51.5925   25.2823   43.7441 H   0  0  0  0  0  0  0  0  0  0  0  0
   50.3119   24.0226   43.7441 H   0  0  0  0  0  0  0  0  0  0  0  0
   53.9450   24.7007   44.9907 H   0  0  0  0  0  0  0  0  0  0  0  0
   58.0594   24.4562   43.4427 H   0  0  0  0  0  0  0  0  0  0  0  0
   58.4083   26.9221   43.5592 H   0  0  0  0  0  0  0  0  0  0  0  0
   56.0416   33.3124   44.7968 H   0  0  0  0  0  0  0  0  0  0  0  0
   57.1910   35.1978   45.9378 H   0  0  0  0  0  0  0  0  0  0  0  0
   59.4391   34.8683   46.9560 H   0  0  0  0  0  0  0  0  0  0  0  0
   61.2691   33.4045   47.5784 H   0  0  0  0  0  0  0  0  0  0  0  0
   62.3256   31.1491   47.5988 H   0  0  0  0  0  0  0  0  0  0  0  0
   61.1450   29.2062   46.5825 H   0  0  0  0  0  0  0  0  0  0  0  0
   58.9355   29.5160   45.4765 H   0  0  0  0  0  0  0  0  0  0  0  0
   55.6304   27.1586   46.8692 H   0  0  0  0  0  0  0  0  0  0  0  0
   55.2643   24.6942   46.7406 H   0  0  0  0  0  0  0  0  0  0  0  0
  1  2  1  0
  2  3  2  0
  3  4  1  0
  4  5  2  3
  5  6  1  0
  6  7  2  0
  6  8  2  0
  6  9  1  0
  9 10  2  0
 10 11  1  0
 11 12  2  0
 12 13  1  0
 13 14  1  0
 14 15  2  0
 14 16  1  0
 16 17  1  0
 17 18  2  0
 18 19  1  0
 19 20  2  0
 20 21  1  0
 21 22  2  0
 22 23  1  0
 23 24  2  0
 24 25  1  0
 25 26  2  0
 12 27  1  0
 27 28  2  0
  4 29  1  0
 29 30  1  0
 30  2  1  0
 28  9  1  0
 26 17  1  0
 26 21  1  0
  1 31  1  0
  1 32  1  0
  1 33  1  0
  3 34  1  0
 10 35  1  0
 11 36  1  0
 18 37  1  0
 19 38  1  0
 20 39  1  0
 22 40  1  0
 23 41  1  0
 24 42  1  0
 25 43  1  0
 27 44  1  0
 28 45  1  0
M  CHG  3  13  -1  16  -1  29  -1
M  END
>  <UniqueID>  (33) 
30

>  <SMILES>  (33) 
Cc1cc(=NS(=O)(=O)c2ccc([N-]C(=O)[N-]c3cccc4ccccc34)cc2)[n-]o1

>  <Energy>  (33) 
93.24145427245517

>  <Genealogy>  (33) 
Cc1cc(=NS(=O)(=O)c2ccc([N-]C(=O)[N-]c3cccc4ccccc34)cc2)[n-]o1 (protonated)
Cc1cc(=NS(=O)(=O)c2ccc([N-]C(=O)[N-]c3cccc4ccccc34)cc2)[n-]o1 (3D coordinates assigned)
Cc1cc(=NS(=O)(=O)c2ccc([N-]C(=O)[N-]c3cccc4ccccc34)cc2)[n-]o1 (optimized conformer: 93.24145427245517 kcal/mol)

>  <smiles>  (33) 
Cc1cc(=NS(=O)(=O)c2ccc(NC(=O)Nc3cccc4ccccc34)cc2)[nH]o1

>  <score_type>  (33) 
oracle

>  <origin>  (33) 
adg

>  <m_score__min__energy>  (33) 
-13.529999999999999

>  <m_primary>  (33) 
energy

$$$$
33:0
     RDKit          3D

 48 52  0  0  0  0  0  0  0  0999 V2000
   57.7410   25.8260   43.3320 O   0  0  0  0  0  0  0  0  0  0  0  0
   58.0780   26.2770   44.4620 C   0  0  0  0  0  0  0  0  0  0  0  0
   58.0380   27.6620   44.7000 C   0  0  0  0  0  0  0  0  0  0  0  0
   57.6380   28.5850   43.7190 C   0  0  0  0  0  0  0  0  0  0  0  0
   57.6150   29.9530   44.0060 C   0  0  0  0  0  0  0  0  0  0  0  0
   57.9910   30.4210   45.2760 C   0  0  0  0  0  0  0  0  0  0  0  0
   57.9670   31.8640   45.5820 C   0  0  0  0  0  0  0  0  0  0  0  0
   56.9640   32.7000   45.2470 N   0  0  0  0  0  0  0  0  0  0  0  0
   57.3070   33.8970   45.6950 N   0  0  0  0  0  0  0  0  0  0  0  0
   58.5080   33.7470   46.2830 C   0  0  0  0  0  0  0  0  0  0  0  0
   59.2590   34.8480   46.9560 C   0  0  0  0  0  0  0  0  0  0  0  0
   60.6250   34.3640   47.3570 C   0  0  0  0  0  0  0  0  0  0  0  0
   61.5520   33.9690   46.3780 C   0  0  0  0  0  0  0  0  0  0  0  0
   62.8090   33.4850   46.7520 C   0  0  0  0  0  0  0  0  0  0  0  0
   63.1470   33.3830   48.1060 C   0  0  0  0  0  0  0  0  0  0  0  0
   64.3660   32.9120   48.4670 F   0  0  0  0  0  0  0  0  0  0  0  0
   62.2250   33.7630   49.0850 C   0  0  0  0  0  0  0  0  0  0  0  0
   60.9670   34.2470   48.7150 C   0  0  0  0  0  0  0  0  0  0  0  0
   58.9180   32.5030   46.2220 O   0  0  0  0  0  0  0  0  0  0  0  0
   58.3910   29.5000   46.2570 C   0  0  0  0  0  0  0  0  0  0  0  0
   58.4150   28.1300   45.9740 C   0  0  0  0  0  0  0  0  0  0  0  0
   58.7980   27.2470   46.9280 N   0  0  0  0  0  0  0  0  0  0  0  0
   58.8320   25.9140   46.6820 C   0  0  0  0  0  0  0  0  0  0  0  0
   58.4820   25.4210   45.4560 N   0  0  0  0  0  0  0  0  0  0  0  0
   58.4990   23.9630   45.2410 C   0  0  0  0  0  0  0  0  0  0  0  0
   57.1080   23.4010   45.3630 C   0  0  0  0  0  0  0  0  0  0  0  0
   56.8980   22.0140   45.2850 C   0  0  0  0  0  0  0  0  0  0  0  0
   55.6120   21.4870   45.4320 C   0  0  0  0  0  0  0  0  0  0  0  0
   54.5280   22.3380   45.6620 C   0  0  0  0  0  0  0  0  0  0  0  0
   54.7280   23.7190   45.7490 C   0  0  0  0  0  0  0  0  0  0  0  0
   53.6760   24.5430   45.9760 F   0  0  0  0  0  0  0  0  0  0  0  0
   56.0140   24.2500   45.6030 C   0  0  0  0  0  0  0  0  0  0  0  0
   57.3417   28.2297   42.7210 H   0  0  0  0  0  0  0  0  0  0  0  0
   57.3002   30.6681   43.2317 H   0  0  0  0  0  0  0  0  0  0  0  0
   59.3613   35.6964   46.2634 H   0  0  0  0  0  0  0  0  0  0  0  0
   58.7090   35.1658   47.8540 H   0  0  0  0  0  0  0  0  0  0  0  0
   61.2876   34.0409   45.3127 H   0  0  0  0  0  0  0  0  0  0  0  0
   63.5334   33.1839   45.9809 H   0  0  0  0  0  0  0  0  0  0  0  0
   62.4899   33.6810   50.1495 H   0  0  0  0  0  0  0  0  0  0  0  0
   60.2420   34.5374   49.4897 H   0  0  0  0  0  0  0  0  0  0  0  0
   58.6873   29.8575   47.2542 H   0  0  0  0  0  0  0  0  0  0  0  0
   59.1446   25.2218   47.4777 H   0  0  0  0  0  0  0  0  0  0  0  0
   58.8900   23.7490   44.2354 H   0  0  0  0  0  0  0  0  0  0  0  0
   59.1416   23.4964   46.0022 H   0  0  0  0  0  0  0  0  0  0  0  0
   57.7492   21.3402   45.1075 H   0  0  0  0  0  0  0  0  0  0  0  0
   55.4530   20.4005   45.3665 H   0  0  0  0  0  0  0  0  0  0  0  0
   53.5163   21.9211   45.7747 H   0  0  0  0  0  0  0  0  0  0  0  0
   56.1696   25.3365   45.6763 H   0  0  0  0  0  0  0  0  0  0  0  0
  1  2  2  0
  2  3  1  0
  3  4  2  0
  4  5  1  0
  5  6  2  0
  6  7  1  0
  7  8  2  0
  8  9  1  0
  9 10  2  0
 10 11  1  0
 11 12  1  0
 12 13  2  0
 13 14  1  0
 14 15  2  0
 15 16  1  0
 15 17  1  0
 17 18  2  0
 10 19  1  0
  6 20  1  0
 20 21  2  0
 21 22  1  0
 22 23  2  0
 23 24  1  0
 24 25  1  0
 25 26  1  0
 26 27  2  0
 27 28  1  0
 28 29  2  0
 29 30  1  0
 30 31  1  0
 30 32  2  0
 24  2  1  0
 32 26  1  0
 21  3  1  0
 19  7  1  0
 18 12  1  0
  4 33  1  0
  5 34  1  0
 11 35  1  0
 11 36  1  0
 13 37  1  0
 14 38  1  0
 17 39  1  0
 18 40  1  0
 20 41  1  0
 23 42  1  0
 25 43  1  0
 25 44  1  0
 27 45  1  0
 28 46  1  0
 29 47  1  0
 32 48  1  0
M  END
>  <UniqueID>  (34) 
31

>  <SMILES>  (34) 
O=c1c2ccc(-c3nnc(Cc4ccc(F)cc4)o3)cc2ncn1Cc1cccc(F)c1

>  <Energy>  (34) 
93.29079330600615

>  <Genealogy>  (34) 
O=c1c2ccc(-c3nnc(Cc4ccc(F)cc4)o3)cc2ncn1Cc1cccc(F)c1 (3D coordinates assigned)
O=c1c2ccc(-c3nnc(Cc4ccc(F)cc4)o3)cc2ncn1Cc1cccc(F)c1 (optimized conformer: 93.29079330600615 kcal/mol)

>  <smiles>  (34) 
O=c1c2ccc(-c3nnc(Cc4ccc(F)cc4)o3)cc2ncn1Cc1cccc(F)c1

>  <score_type>  (34) 
oracle

>  <origin>  (34) 
adg

>  <m_score__min__energy>  (34) 
-8.6899999999999995

>  <m_primary>  (34) 
energy

$$$$
34:0
     RDKit          3D

 51 54  0  0  0  0  0  0  0  0999 V2000
   55.4610   29.0290   44.8750 O   0  0  0  0  0  0  0  0  0  0  0  0
   56.3970   29.7950   44.5240 C   0  0  0  0  0  0  0  0  0  0  0  0
   57.7070   29.2160   44.0980 C   0  0  0  0  0  0  0  0  0  0  0  0
   58.6670   29.3040   45.1900 N   0  0  0  0  0  0  0  0  0  0  0  0
   59.9800   29.3510   45.0280 N   0  0  0  0  0  0  0  0  0  0  0  0
   60.5550   29.3670   46.2190 N   0  0  0  0  0  0  0  0  0  0  0  0
   59.5360   29.3200   47.1030 C   0  0  0  0  0  0  0  0  0  0  0  0
   59.7020   29.3190   48.5710 C   0  0  0  0  0  0  0  0  0  0  0  0
   60.7750   28.6300   49.1650 C   0  0  0  0  0  0  0  0  0  0  0  0
   60.9300   28.6290   50.5550 C   0  0  0  0  0  0  0  0  0  0  0  0
   60.0230   29.3160   51.3630 C   0  0  0  0  0  0  0  0  0  0  0  0
   58.9510   30.0030   50.7840 C   0  0  0  0  0  0  0  0  0  0  0  0
   57.8040   30.8560   51.8020 Cl  0  0  0  0  0  0  0  0  0  0  0  0
   58.7870   29.9980   49.3940 C   0  0  0  0  0  0  0  0  0  0  0  0
   58.3450   29.2730   46.4720 N   0  0  0  0  0  0  0  0  0  0  0  0
   56.2500   31.2180   44.5990 N   0  0  0  0  0  0  0  0  0  0  0  0
   57.2830   32.1690   44.8970 C   0  0  0  0  0  0  0  0  0  0  0  0
   57.8830   32.9570   43.8980 C   0  0  0  0  0  0  0  0  0  0  0  0
   58.9010   33.8570   44.2300 C   0  0  0  0  0  0  0  0  0  0  0  0
   59.3380   33.9670   45.5520 C   0  0  0  0  0  0  0  0  0  0  0  0
   58.7670   33.1680   46.5490 C   0  0  0  0  0  0  0  0  0  0  0  0
   59.3090   33.3350   48.2180 S   0  0  0  0  0  0  0  0  0  0  0  0
   58.2510   32.7740   49.1260 O   0  0  0  0  0  0  0  0  0  0  0  0
   59.5090   34.7880   48.5520 O   0  0  0  0  0  0  0  0  0  0  0  0
   60.8050   32.4620   48.4500 N   0  0  0  0  0  0  0  0  0  0  0  0
   61.4490   32.2050   47.1410 C   0  0  0  0  0  0  0  0  0  0  0  0
   62.9300   31.8550   47.3040 C   0  0  0  0  0  0  0  0  0  0  0  0
   63.7100   33.0210   47.9370 C   0  0  0  0  0  0  0  0  0  0  0  0
   62.8170   33.9380   48.7910 C   0  0  0  0  0  0  0  0  0  0  0  0
   61.6720   33.1480   49.4410 C   0  0  0  0  0  0  0  0  0  0  0  0
   57.7440   32.2670   46.2170 C   0  0  0  0  0  0  0  0  0  0  0  0
   57.5663   28.1610   43.8203 H   0  0  0  0  0  0  0  0  0  0  0  0
   58.0885   29.7804   43.2343 H   0  0  0  0  0  0  0  0  0  0  0  0
   61.4954   28.0896   48.5334 H   0  0  0  0  0  0  0  0  0  0  0  0
   61.7694   28.0850   51.0127 H   0  0  0  0  0  0  0  0  0  0  0  0
   60.1512   29.3172   52.4555 H   0  0  0  0  0  0  0  0  0  0  0  0
   57.9361   30.5292   48.9425 H   0  0  0  0  0  0  0  0  0  0  0  0
   57.5508   32.8652   42.8534 H   0  0  0  0  0  0  0  0  0  0  0  0
   59.3588   34.4800   43.4475 H   0  0  0  0  0  0  0  0  0  0  0  0
   60.1323   34.6829   45.8099 H   0  0  0  0  0  0  0  0  0  0  0  0
   60.9355   31.3661   46.6485 H   0  0  0  0  0  0  0  0  0  0  0  0
   61.3751   33.1196   46.5343 H   0  0  0  0  0  0  0  0  0  0  0  0
   63.0206   30.9696   47.9504 H   0  0  0  0  0  0  0  0  0  0  0  0
   63.3521   31.6527   46.3086 H   0  0  0  0  0  0  0  0  0  0  0  0
   64.5036   32.6075   48.5767 H   0  0  0  0  0  0  0  0  0  0  0  0
   64.1230   33.6281   47.1180 H   0  0  0  0  0  0  0  0  0  0  0  0
   63.4279   34.3999   49.5806 H   0  0  0  0  0  0  0  0  0  0  0  0
   62.3820   34.7083   48.1372 H   0  0  0  0  0  0  0  0  0  0  0  0
   62.1048   32.3910   50.1115 H   0  0  0  0  0  0  0  0  0  0  0  0
   61.0434   33.8677   49.9858 H   0  0  0  0  0  0  0  0  0  0  0  0
   57.3004   31.6327   46.9986 H   0  0  0  0  0  0  0  0  0  0  0  0
  1  2  2  0
  2  3  1  0
  3  4  1  0
  4  5  1  0
  5  6  2  0
  6  7  1  0
  7  8  1  0
  8  9  2  0
  9 10  1  0
 10 11  2  0
 11 12  1  0
 12 13  1  0
 12 14  2  0
  7 15  2  0
  2 16  1  0
 16 17  1  0
 17 18  2  0
 18 19  1  0
 19 20  2  0
 20 21  1  0
 21 22  1  0
 22 23  2  0
 22 24  2  0
 22 25  1  0
 25 26  1  0
 26 27  1  0
 27 28  1  0
 28 29  1  0
 29 30  1  0
 21 31  2  0
 15  4  1  0
 31 17  1  0
 14  8  1  0
 30 25  1  0
  3 32  1  0
  3 33  1  0
  9 34  1  0
 10 35  1  0
 11 36  1  0
 14 37  1  0
 18 38  1  0
 19 39  1  0
 20 40  1  0
 26 41  1  0
 26 42  1  0
 27 43  1  0
 27 44  1  0
 28 45  1  0
 28 46  1  0
 29 47  1  0
 29 48  1  0
 30 49  1  0
 30 50  1  0
 31 51  1  0
M  CHG  1  16  -1
M  END
>  <UniqueID>  (35) 
32

>  <SMILES>  (35) 
O=C(Cn1nnc(-c2cccc(Cl)c2)n1)[N-]c1cccc(S(=O)(=O)N2CCCCC2)c1

>  <Energy>  (35) 
99.30521843441743

>  <Genealogy>  (35) 
O=C(Cn1nnc(-c2cccc(Cl)c2)n1)[N-]c1cccc(S(=O)(=O)N2CCCCC2)c1 (protonated)
O=C(Cn1nnc(-c2cccc(Cl)c2)n1)[N-]c1cccc(S(=O)(=O)N2CCCCC2)c1 (3D coordinates assigned)
O=C(Cn1nnc(-c2cccc(Cl)c2)n1)[N-]c1cccc(S(=O)(=O)N2CCCCC2)c1 (nonaromatic ring conformer: 99.30521843441743 kcal/mol)

>  <smiles>  (35) 
O=C(Cn1nnc(-c2cccc(Cl)c2)n1)Nc1cccc(S(=O)(=O)N2CCCCC2)c1

>  <score_type>  (35) 
oracle

>  <origin>  (35) 
adg

>  <m_score__min__energy>  (35) 
-12.09

>  <m_primary>  (35) 
energy

$$$$
35:0
     RDKit          3D

 50 53  0  0  0  0  0  0  0  0999 V2000
   57.3600   31.3770   43.2110 O   0  0  0  0  0  0  0  0  0  0  0  0
   57.0350   30.7820   44.2720 C   0  0  0  0  0  0  0  0  0  0  0  0
   56.6840   29.3290   44.2270 C   0  0  0  0  0  0  0  0  0  0  0  0
   57.2940   28.5990   45.4200 C   0  0  0  0  0  0  0  0  0  0  0  0
   57.6550   27.2400   45.0270 N   0  0  0  0  0  0  0  0  0  0  0  0
   56.6700   26.0940   45.8830 S   0  0  0  0  0  0  0  0  0  0  0  0
   57.2280   25.9000   47.2640 O   0  0  0  0  0  0  0  0  0  0  0  0
   55.2700   26.6290   46.0090 O   0  0  0  0  0  0  0  0  0  0  0  0
   56.6470   24.5410   45.0480 C   0  0  0  0  0  0  0  0  0  0  0  0
   55.5090   24.1460   44.3300 C   0  0  0  0  0  0  0  0  0  0  0  0
   55.4840   22.9110   43.6740 C   0  0  0  0  0  0  0  0  0  0  0  0
   56.5930   22.0590   43.7370 C   0  0  0  0  0  0  0  0  0  0  0  0
   56.5560   20.8330   43.0790 O   0  0  0  0  0  0  0  0  0  0  0  0
   57.7280   22.4480   44.4600 C   0  0  0  0  0  0  0  0  0  0  0  0
   57.7560   23.6850   45.1130 C   0  0  0  0  0  0  0  0  0  0  0  0
   57.0450   31.4640   45.5340 N   0  0  0  0  0  0  0  0  0  0  0  0
   58.1030   32.3350   46.0550 C   0  0  2  0  0  0  0  0  0  0  0  0
   59.4830   31.6200   46.0140 C   0  0  0  0  0  0  0  0  0  0  0  0
   60.5810   32.5770   46.5310 C   0  0  1  0  0  0  0  0  0  0  0  0
   60.6380   33.8310   45.6320 C   0  0  0  0  0  0  0  0  0  0  0  0
   59.2740   34.5550   45.6680 C   0  0  2  0  0  0  0  0  0  0  0  0
   58.9510   34.9780   47.1190 C   0  0  0  0  0  0  0  0  0  0  0  0
   58.8910   33.7260   48.0210 C   0  0  2  0  0  0  0  0  0  0  0  0
   60.2540   32.9990   47.9830 C   0  0  0  0  0  0  0  0  0  0  0  0
   57.7860   32.7740   47.5100 C   0  0  0  0  0  0  0  0  0  0  0  0
   58.1730   33.5990   45.1580 C   0  0  0  0  0  0  0  0  0  0  0  0
   55.5899   29.2191   44.2552 H   0  0  0  0  0  0  0  0  0  0  0  0
   57.0830   28.8934   43.2991 H   0  0  0  0  0  0  0  0  0  0  0  0
   58.1940   29.1346   45.7564 H   0  0  0  0  0  0  0  0  0  0  0  0
   56.5616   28.5610   46.2399 H   0  0  0  0  0  0  0  0  0  0  0  0
   54.6331   24.8097   44.2826 H   0  0  0  0  0  0  0  0  0  0  0  0
   54.5910   22.6085   43.1074 H   0  0  0  0  0  0  0  0  0  0  0  0
   57.0800   20.0360   43.4200 H   0  0  0  0  0  0  0  0  0  0  0  0
   58.5996   21.7791   44.5145 H   0  0  0  0  0  0  0  0  0  0  0  0
   58.6498   23.9868   45.6786 H   0  0  0  0  0  0  0  0  0  0  0  0
   59.4495   30.7238   46.6509 H   0  0  0  0  0  0  0  0  0  0  0  0
   59.7118   31.3287   44.9782 H   0  0  0  0  0  0  0  0  0  0  0  0
   61.5542   32.0648   46.5070 H   0  0  0  0  0  0  0  0  0  0  0  0
   61.4226   34.5093   45.9987 H   0  0  0  0  0  0  0  0  0  0  0  0
   60.8655   33.5304   44.5986 H   0  0  0  0  0  0  0  0  0  0  0  0
   59.3164   35.4473   45.0262 H   0  0  0  0  0  0  0  0  0  0  0  0
   59.7351   35.6566   47.4859 H   0  0  0  0  0  0  0  0  0  0  0  0
   57.9791   35.4926   47.1423 H   0  0  0  0  0  0  0  0  0  0  0  0
   58.6646   34.0292   49.0539 H   0  0  0  0  0  0  0  0  0  0  0  0
   61.0391   33.6749   48.3527 H   0  0  0  0  0  0  0  0  0  0  0  0
   60.2065   32.1036   48.6201 H   0  0  0  0  0  0  0  0  0  0  0  0
   57.7404   31.8861   48.1578 H   0  0  0  0  0  0  0  0  0  0  0  0
   56.8182   33.2965   47.5295 H   0  0  0  0  0  0  0  0  0  0  0  0
   57.2026   34.1163   45.1828 H   0  0  0  0  0  0  0  0  0  0  0  0
   58.4105   33.2952   44.1278 H   0  0  0  0  0  0  0  0  0  0  0  0
  1  2  2  0
  2  3  1  0
  3  4  1  0
  4  5  1  0
  5  6  1  0
  6  7  2  0
  6  8  2  0
  6  9  1  0
  9 10  2  0
 10 11  1  0
 11 12  2  0
 12 13  1  0
 12 14  1  0
 14 15  2  0
  2 16  1  0
 17 16  1  6
 17 18  1  0
 18 19  1  0
 19 20  1  0
 20 21  1  0
 21 22  1  0
 22 23  1  0
 23 24  1  0
 23 25  1  0
 21 26  1  0
 15  9  1  0
 25 17  1  0
 26 17  1  0
 24 19  1  0
  3 27  1  0
  3 28  1  0
  4 29  1  0
  4 30  1  0
 10 31  1  0
 11 32  1  0
 13 33  1  0
 14 34  1  0
 15 35  1  0
 18 36  1  0
 18 37  1  0
 19 38  1  1
 20 39  1  0
 20 40  1  0
 21 41  1  6
 22 42  1  0
 22 43  1  0
 23 44  1  1
 24 45  1  0
 24 46  1  0
 25 47  1  0
 25 48  1  0
 26 49  1  0
 26 50  1  0
M  CHG  2   5  -1  16  -1
M  END
>  <UniqueID>  (36) 
33

>  <SMILES>  (36) 
O=C(CC[N-]S(=O)(=O)c1ccc(O)cc1)[N-]C12CC3CC(CC(C3)C1)C2

>  <Energy>  (36) 
43.07994699448947

>  <Genealogy>  (36) 
O=C(CC[N-]S(=O)(=O)c1ccc(O)cc1)[N-]C12CC3CC(CC(C3)C1)C2 (protonated)
O=C(CC[N-]S(=O)(=O)c1ccc(O)cc1)[N-]C12CC3CC(CC(C3)C1)C2 (3D coordinates assigned)
O=C(CC[N-]S(=O)(=O)c1ccc(O)cc1)[N-]C12CC3CC(CC(C3)C1)C2 (nonaromatic ring conformer: 43.07994699448947 kcal/mol)

>  <smiles>  (36) 
O=C(CCNS(=O)(=O)c1ccc(O)cc1)NC12CC3CC(CC(C3)C1)C2

>  <score_type>  (36) 
oracle

>  <origin>  (36) 
adg

>  <m_score__min__energy>  (36) 
-12.59

>  <m_primary>  (36) 
energy

$$$$
36:0
     RDKit          3D

 27 28  0  0  0  0  0  0  0  0999 V2000
   57.5940   28.4190   43.7200 N   0  0  0  0  0  0  0  0  0  0  0  0
   56.5250   29.7660   43.9010 S   0  0  0  0  0  0  0  0  0  0  0  0
   55.4360   29.4030   44.8700 O   0  0  0  0  0  0  0  0  0  0  0  0
   55.9180   30.1110   42.5700 O   0  0  0  0  0  0  0  0  0  0  0  0
   57.4180   31.1450   44.5120 C   0  0  0  0  0  0  0  0  0  0  0  0
   58.0140   31.2220   45.7670 C   0  0  0  0  0  0  0  0  0  0  0  0
   58.6650   32.4440   45.9650 C   0  0  0  0  0  0  0  0  0  0  0  0
   59.3560   32.8320   47.1160 C   0  0  0  0  0  0  0  0  0  0  0  0
   59.9600   34.1100   47.1560 C   0  0  0  0  0  0  0  0  0  0  0  0
   60.6850   34.5780   48.3020 N   0  0  0  0  0  0  0  0  0  0  0  0
   62.1500   33.9050   48.9430 S   0  0  0  0  0  0  0  0  0  0  0  0
   62.8780   34.9320   49.7640 O   0  0  0  0  0  0  0  0  0  0  0  0
   61.7930   32.7500   49.8350 O   0  0  0  0  0  0  0  0  0  0  0  0
   63.1890   33.3050   47.6240 C   0  0  0  0  0  0  0  0  0  0  0  0
   64.4890   33.1940   48.0760 F   0  0  0  0  0  0  0  0  0  0  0  0
   63.1520   34.1790   46.5550 F   0  0  0  0  0  0  0  0  0  0  0  0
   62.7390   32.0650   47.2140 F   0  0  0  0  0  0  0  0  0  0  0  0
   59.8580   34.9630   46.0370 C   0  0  0  0  0  0  0  0  0  0  0  0
   59.1610   34.5620   44.8870 C   0  0  0  0  0  0  0  0  0  0  0  0
   58.5760   33.3010   44.8790 C   0  0  0  0  0  0  0  0  0  0  0  0
   57.6940   32.5720   43.6500 S   0  0  0  0  0  0  0  0  0  0  0  0
   58.2770   28.6690   42.9700 H   0  0  0  0  0  0  0  0  0  0  0  0
   57.0240   27.6240   43.3550 H   0  0  0  0  0  0  0  0  0  0  0  0
   57.9775   30.4166   46.5153 H   0  0  0  0  0  0  0  0  0  0  0  0
   59.4290   32.1531   47.9784 H   0  0  0  0  0  0  0  0  0  0  0  0
   60.3311   35.9556   46.0663 H   0  0  0  0  0  0  0  0  0  0  0  0
   59.0797   35.2277   44.0151 H   0  0  0  0  0  0  0  0  0  0  0  0
  1  2  1  0
  2  3  2  0
  2  4  2  0
  2  5  1  0
  5  6  2  0
  6  7  1  0
  7  8  2  0
  8  9  1  0
  9 10  1  0
 10 11  1  0
 11 12  2  0
 11 13  2  0
 11 14  1  0
 14 15  1  0
 14 16  1  0
 14 17  1  0
  9 18  2  0
 18 19  1  0
 19 20  2  0
 20 21  1  0
 21  5  1  0
 20  7  1  0
  1 22  1  0
  1 23  1  0
  6 24  1  0
  8 25  1  0
 18 26  1  0
 19 27  1  0
M  CHG  1  10  -1
M  END
>  <UniqueID>  (37) 
34

>  <SMILES>  (37) 
NS(=O)(=O)c1cc2cc([N-]S(=O)(=O)C(F)(F)F)ccc2s1

>  <Energy>  (37) 
56.11710145012701

>  <Genealogy>  (37) 
NS(=O)(=O)c1cc2cc([N-]S(=O)(=O)C(F)(F)F)ccc2s1 (protonated)
NS(=O)(=O)c1cc2cc([N-]S(=O)(=O)C(F)(F)F)ccc2s1 (3D coordinates assigned)
NS(=O)(=O)c1cc2cc([N-]S(=O)(=O)C(F)(F)F)ccc2s1 (optimized conformer: 56.11710145012701 kcal/mol)

>  <smiles>  (37) 
NS(=O)(=O)c1cc2cc(NS(=O)(=O)C(F)(F)F)ccc2s1

>  <score_type>  (37) 
oracle

>  <origin>  (37) 
adg

>  <m_score__min__energy>  (37) 
-8.8200000000000003

>  <m_primary>  (37) 
energy

$$$$
37:0
     RDKit          3D

 20 21  0  0  0  0  0  0  0  0999 V2000
   61.0730   32.6230   47.1120 C   0  0  0  0  0  0  0  0  0  0  0  0
   59.8230   32.9410   46.3330 C   0  0  0  0  0  0  0  0  0  0  0  0
   59.5650   34.2690   45.9650 C   0  0  0  0  0  0  0  0  0  0  0  0
   58.4180   34.5890   45.2460 C   0  0  0  0  0  0  0  0  0  0  0  0
   57.5250   33.5800   44.8930 C   0  0  0  0  0  0  0  0  0  0  0  0
   57.7640   32.2870   45.2450 N   0  0  0  0  0  0  0  0  0  0  0  0
   56.8820   31.3780   44.8820 O   0  0  0  0  0  0  0  0  0  0  0  0
   57.0210   30.0920   45.1740 C   0  0  0  0  0  0  0  0  0  0  0  0
   56.1440   29.2670   44.8020 O   0  0  0  0  0  0  0  0  0  0  0  0
   58.1290   29.6570   45.8900 C   0  0  0  0  0  0  0  0  0  0  0  0
   59.0780   30.5900   46.2870 C   0  0  0  0  0  0  0  0  0  0  0  0
   58.8910   31.9410   45.9570 C   0  0  0  0  0  0  0  0  0  0  0  0
   60.8576   32.6778   48.1893 H   0  0  0  0  0  0  0  0  0  0  0  0
   61.4155   31.6091   46.8577 H   0  0  0  0  0  0  0  0  0  0  0  0
   61.8584   33.3499   46.8577 H   0  0  0  0  0  0  0  0  0  0  0  0
   60.2734   35.0621   46.2463 H   0  0  0  0  0  0  0  0  0  0  0  0
   58.2176   35.6316   44.9582 H   0  0  0  0  0  0  0  0  0  0  0  0
   56.6175   33.8306   44.3241 H   0  0  0  0  0  0  0  0  0  0  0  0
   58.2525   28.5925   46.1381 H   0  0  0  0  0  0  0  0  0  0  0  0
   59.9661   30.2736   46.8537 H   0  0  0  0  0  0  0  0  0  0  0  0
  1  2  1  0
  2  3  2  0
  3  4  1  0
  4  5  2  0
  5  6  1  0
  6  7  1  0
  7  8  1  0
  8  9  2  0
  8 10  1  0
 10 11  2  0
 11 12  1  0
 12  2  1  0
 12  6  2  0
  1 13  1  0
  1 14  1  0
  1 15  1  0
  3 16  1  0
  4 17  1  0
  5 18  1  0
 10 19  1  0
 11 20  1  0
M  CHG  1   6   1
M  END
>  <UniqueID>  (38) 
35

>  <SMILES>  (38) 
Cc1ccc[n+]2oc(=O)ccc12

>  <Energy>  (38) 
25.45131471510883

>  <Genealogy>  (38) 
Cc1ccc[n+]2oc(=O)ccc12 (3D coordinates assigned)
Cc1ccc[n+]2oc(=O)ccc12 (optimized conformer: 25.45131471510883 kcal/mol)

>  <smiles>  (38) 
Cc1ccc[n+]2oc(=O)ccc12

>  <score_type>  (38) 
oracle

>  <origin>  (38) 
adg

>  <m_score__min__energy>  (38) 
-4.0999999999999996

>  <m_primary>  (38) 
energy

$$$$
38:0
     RDKit          3D

 30 32  0  0  0  0  0  0  0  0999 V2000
   58.6360   34.2040   47.0940 C   0  0  0  0  0  0  0  0  0  0  0  0
   59.0700   32.8930   46.6020 N   0  0  0  0  0  0  0  0  0  0  0  0
   58.4510   32.3010   45.4360 C   0  0  0  0  0  0  0  0  0  0  0  0
   58.3730   33.0080   44.2200 C   0  0  0  0  0  0  0  0  0  0  0  0
   57.7800   32.4230   43.0960 C   0  0  0  0  0  0  0  0  0  0  0  0
   57.2570   31.1310   43.1730 C   0  0  0  0  0  0  0  0  0  0  0  0
   57.3250   30.4200   44.3730 C   0  0  0  0  0  0  0  0  0  0  0  0
   57.9170   30.9990   45.4990 C   0  0  0  0  0  0  0  0  0  0  0  0
   60.2050   32.2620   47.2240 C   0  0  0  0  0  0  0  0  0  0  0  0
   60.0450   31.1490   48.0080 N   0  0  0  0  0  0  0  0  0  0  0  0
   61.1190   30.5360   48.6010 C   0  0  0  0  0  0  0  0  0  0  0  0
   62.3830   31.0240   48.4280 N   0  0  0  0  0  0  0  0  0  0  0  0
   62.5470   32.1230   47.6550 C   0  0  0  0  0  0  0  0  0  0  0  0
   63.7090   32.7410   47.3930 N   0  0  0  0  0  0  0  0  0  0  0  0
   63.3840   33.7940   46.6060 C   0  0  0  0  0  0  0  0  0  0  0  0
   62.0120   33.8360   46.3730 C   0  0  0  0  0  0  0  0  0  0  0  0
   61.5000   32.7500   47.0540 C   0  0  0  0  0  0  0  0  0  0  0  0
   58.6368   34.2015   48.1940 H   0  0  0  0  0  0  0  0  0  0  0  0
   59.3254   34.9794   46.7286 H   0  0  0  0  0  0  0  0  0  0  0  0
   57.6201   34.4149   46.7286 H   0  0  0  0  0  0  0  0  0  0  0  0
   58.7813   34.0273   44.1538 H   0  0  0  0  0  0  0  0  0  0  0  0
   57.7258   32.9819   42.1501 H   0  0  0  0  0  0  0  0  0  0  0  0
   56.7911   30.6728   42.2881 H   0  0  0  0  0  0  0  0  0  0  0  0
   56.9118   29.4023   44.4322 H   0  0  0  0  0  0  0  0  0  0  0  0
   57.9663   30.4338   46.4414 H   0  0  0  0  0  0  0  0  0  0  0  0
   59.0940   30.7420   48.1460 H   0  0  0  0  0  0  0  0  0  0  0  0
   60.9609   29.6422   49.2223 H   0  0  0  0  0  0  0  0  0  0  0  0
   64.6590   32.4740   47.7300 H   0  0  0  0  0  0  0  0  0  0  0  0
   64.1072   34.5191   46.2045 H   0  0  0  0  0  0  0  0  0  0  0  0
   61.4567   34.5743   45.7759 H   0  0  0  0  0  0  0  0  0  0  0  0
  1  2  1  0
  2  3  1  0
  3  4  2  0
  4  5  1  0
  5  6  2  0
  6  7  1  0
  7  8  2  0
  2  9  1  0
  9 10  2  0
 10 11  1  0
 11 12  2  0
 12 13  1  0
 13 14  1  0
 14 15  1  0
 15 16  2  0
 16 17  1  0
  8  3  1  0
 17  9  1  0
 17 13  2  0
  1 18  1  0
  1 19  1  0
  1 20  1  0
  4 21  1  0
  5 22  1  0
  6 23  1  0
  7 24  1  0
  8 25  1  0
 10 26  1  0
 11 27  1  0
 14 28  1  0
 15 29  1  0
 16 30  1  0
M  CHG  1  10   1
M  END
>  <UniqueID>  (39) 
36

>  <SMILES>  (39) 
CN(c1ccccc1)c1[nH+]cnc2[nH]ccc12

>  <Energy>  (39) 
75.32757140830768

>  <Genealogy>  (39) 
CN(c1ccccc1)c1[nH+]cnc2[nH]ccc12 (protonated)
CN(c1ccccc1)c1[nH+]cnc2[nH]ccc12 (3D coordinates assigned)
CN(c1ccccc1)c1[nH+]cnc2[nH]ccc12 (optimized conformer: 75.32757140830768 kcal/mol)

>  <smiles>  (39) 
CN(c1ccccc1)c1ncnc2[nH]ccc12

>  <score_type>  (39) 
oracle

>  <origin>  (39) 
adg

>  <m_score__min__energy>  (39) 
-4.5599999999999996

>  <m_primary>  (39) 
energy

$$$$
39:0
     RDKit          3D

 55 57  0  0  0  0  0  0  0  0999 V2000
   60.5370   28.8940   44.6230 O   0  0  0  0  0  0  0  0  0  0  0  0
   59.5470   28.1360   44.8080 C   0  0  0  0  0  0  0  0  0  0  0  0
   59.6960   26.8850   45.6390 C   0  0  0  0  0  0  0  0  0  0  0  0
   60.1330   27.1340   47.0980 C   0  0  0  0  0  0  0  0  0  0  0  0
   59.0240   27.6300   48.0490 C   0  0  0  0  0  0  0  0  0  0  0  0
   59.2290   29.0710   48.5340 C   0  0  0  0  0  0  0  0  0  0  0  0
   58.9530   29.1760   50.0420 C   0  0  0  0  0  0  0  0  0  0  0  0
   58.2600   30.4190   50.3660 N   0  0  0  0  0  0  0  0  0  0  0  0
   57.6390   30.7890   51.6100 C   0  0  0  0  0  0  0  0  0  0  0  0
   58.3350   31.4150   52.4520 O   0  0  0  0  0  0  0  0  0  0  0  0
   56.2260   30.5000   51.9440 C   0  0  0  0  0  0  0  0  0  0  0  0
   55.9210   29.3480   52.6030 N   0  0  0  0  0  0  0  0  0  0  0  0
   54.6460   29.0490   52.9650 C   0  0  0  0  0  0  0  0  0  0  0  0
   54.4150   27.9760   53.5820 O   0  0  0  0  0  0  0  0  0  0  0  0
   53.6070   29.9430   52.6540 C   0  0  0  0  0  0  0  0  0  0  0  0
   52.2690   29.7040   53.0180 C   0  0  0  0  0  0  0  0  0  0  0  0
   51.2760   30.6330   52.6790 C   0  0  0  0  0  0  0  0  0  0  0  0
   51.6080   31.7950   51.9730 C   0  0  0  0  0  0  0  0  0  0  0  0
   50.6170   32.7100   51.6370 O   0  0  0  0  0  0  0  0  0  0  0  0
   52.9350   32.0360   51.6040 C   0  0  0  0  0  0  0  0  0  0  0  0
   53.9380   31.1180   51.9490 C   0  0  0  0  0  0  0  0  0  0  0  0
   55.2300   31.3630   51.6110 N   0  0  0  0  0  0  0  0  0  0  0  0
   58.2760   28.5270   44.2700 N   0  0  0  0  0  0  0  0  0  0  0  0
   57.5690   29.7660   44.5980 C   0  0  2  0  0  0  0  0  0  0  0  0
   58.1170   30.3860   45.8970 C   0  0  0  0  0  0  0  0  0  0  0  0
   58.3510   31.8700   45.7630 C   0  0  0  0  0  0  0  0  0  0  0  0
   57.5280   32.6540   44.9390 C   0  0  0  0  0  0  0  0  0  0  0  0
   57.7470   34.0320   44.8280 C   0  0  0  0  0  0  0  0  0  0  0  0
   58.7850   34.6360   45.5410 C   0  0  0  0  0  0  0  0  0  0  0  0
   59.6150   33.8630   46.3570 C   0  0  0  0  0  0  0  0  0  0  0  0
   59.4050   32.4840   46.4650 C   0  0  0  0  0  0  0  0  0  0  0  0
   56.1100   29.4540   44.7620 C   0  0  0  0  0  0  0  0  0  0  0  0
   55.7420   28.3390   45.2180 O   0  0  0  0  0  0  0  0  0  0  0  0
   55.1560   30.4160   44.4540 O   0  0  0  0  0  0  0  0  0  0  0  0
   58.7265   26.3655   45.6547 H   0  0  0  0  0  0  0  0  0  0  0  0
   60.4947   26.2914   45.1702 H   0  0  0  0  0  0  0  0  0  0  0  0
   60.5260   26.1885   47.4999 H   0  0  0  0  0  0  0  0  0  0  0  0
   60.8780   27.9422   47.0559 H   0  0  0  0  0  0  0  0  0  0  0  0
   58.0615   27.5751   47.5192 H   0  0  0  0  0  0  0  0  0  0  0  0
   59.0496   26.9838   48.9388 H   0  0  0  0  0  0  0  0  0  0  0  0
   60.2667   29.3761   48.3339 H   0  0  0  0  0  0  0  0  0  0  0  0
   58.5299   29.7296   47.9978 H   0  0  0  0  0  0  0  0  0  0  0  0
   58.3285   28.3254   50.3526 H   0  0  0  0  0  0  0  0  0  0  0  0
   59.9157   29.1648   50.5741 H   0  0  0  0  0  0  0  0  0  0  0  0
   52.0028   28.7893   53.5679 H   0  0  0  0  0  0  0  0  0  0  0  0
   50.2312   30.4481   52.9690 H   0  0  0  0  0  0  0  0  0  0  0  0
   53.1926   32.9462   51.0427 H   0  0  0  0  0  0  0  0  0  0  0  0
   57.7175   30.4927   43.7857 H   0  0  0  0  0  0  0  0  0  0  0  0
   57.3920   30.2129   46.7060 H   0  0  0  0  0  0  0  0  0  0  0  0
   59.0834   29.9094   46.1183 H   0  0  0  0  0  0  0  0  0  0  0  0
   56.7073   32.1832   44.3780 H   0  0  0  0  0  0  0  0  0  0  0  0
   57.1006   34.6402   44.1782 H   0  0  0  0  0  0  0  0  0  0  0  0
   58.9492   35.7207   45.4601 H   0  0  0  0  0  0  0  0  0  0  0  0
   60.4345   34.3392   46.9152 H   0  0  0  0  0  0  0  0  0  0  0  0
   60.0663   31.8773   47.1011 H   0  0  0  0  0  0  0  0  0  0  0  0
  1  2  2  0
  2  3  1  0
  3  4  1  0
  4  5  1  0
  5  6  1  0
  6  7  1  0
  7  8  1  0
  8  9  1  0
  9 10  2  0
  9 11  1  0
 11 12  2  0
 12 13  1  0
 13 14  2  0
 13 15  1  0
 15 16  2  0
 16 17  1  0
 17 18  2  0
 18 19  1  0
 18 20  1  0
 20 21  2  0
 21 22  1  0
  2 23  1  0
 23 24  1  0
 24 25  1  0
 25 26  1  0
 26 27  2  0
 27 28  1  0
 28 29  2  0
 29 30  1  0
 30 31  2  0
 24 32  1  0
 32 33  2  0
 32 34  1  0
 22 11  1  0
 31 26  1  0
 21 15  1  0
  3 35  1  0
  3 36  1  0
  4 37  1  0
  4 38  1  0
  5 39  1  0
  5 40  1  0
  6 41  1  0
  6 42  1  0
  7 43  1  0
  7 44  1  0
 16 45  1  0
 17 46  1  0
 20 47  1  0
 24 48  1  6
 25 49  1  0
 25 50  1  0
 27 51  1  0
 28 52  1  0
 29 53  1  0
 30 54  1  0
 31 55  1  0
M  CHG  5   8  -1  19  -1  22  -1  23  -1  34  -1
M  END
>  <UniqueID>  (40) 
37

>  <SMILES>  (40) 
O=C(CCCCC[N-]C(=O)c1nc(=O)c2ccc([O-])cc2[n-]1)[N-][C@H](Cc1ccccc1)C(=O)[O-]

>  <Energy>  (40) 
49.77248655669122

>  <Genealogy>  (40) 
O=C(CCCCC[N-]C(=O)c1nc(=O)c2ccc([O-])cc2[n-]1)[N-]C(Cc1ccccc1)C(=O)[O-] (protonated)
O=C(CCCCC[N-]C(=O)c1nc(=O)c2ccc([O-])cc2[n-]1)[N-][C@H](Cc1ccccc1)C(=O)[O-] (chirality)
O=C(CCCCC[N-]C(=O)c1nc(=O)c2ccc([O-])cc2[n-]1)[N-][C@H](Cc1ccccc1)C(=O)[O-] (3D coordinates assigned)
O=C(CCCCC[N-]C(=O)c1nc(=O)c2ccc([O-])cc2[n-]1)[N-][C@H](Cc1ccccc1)C(=O)[O-] (optimized conformer: 49.77248655669122 kcal/mol)

>  <smiles>  (40) 
O=C(CCCCCNC(=O)c1nc(=O)c2ccc(O)cc2[nH]1)NC(Cc1ccccc1)C(=O)O

>  <score_type>  (40) 
oracle

>  <origin>  (40) 
adg

>  <m_score__min__energy>  (40) 
-20.16

>  <m_primary>  (40) 
energy

$$$$
40:0
     RDKit          3D

 32 33  0  0  0  0  0  0  0  0999 V2000
   56.9200   24.7710   44.3760 C   0  0  0  0  0  0  0  0  0  0  0  0
   55.6830   25.2450   45.6280 S   0  0  0  0  0  0  0  0  0  0  0  0
   56.8180   26.2950   46.6090 C   0  0  0  0  0  0  0  0  0  0  0  0
   57.0060   27.6660   46.0020 C   0  0  0  0  0  0  0  0  0  0  0  0
   56.0050   28.1880   45.2450 N   0  0  0  0  0  0  0  0  0  0  0  0
   56.0990   29.3940   44.6370 C   0  0  0  0  0  0  0  0  0  0  0  0
   55.1230   29.8190   43.9610 O   0  0  0  0  0  0  0  0  0  0  0  0
   57.2710   30.1540   44.7590 C   0  0  0  0  0  0  0  0  0  0  0  0
   57.3460   31.4450   44.1080 C   0  0  0  0  0  0  0  0  0  0  0  0
   57.4080   32.4770   43.5900 N   0  0  0  0  0  0  0  0  0  0  0  0
   58.3550   29.6410   45.5110 C   0  0  0  0  0  0  0  0  0  0  0  0
   59.6500   30.4330   45.6140 C   0  0  0  0  0  0  0  0  0  0  0  0
   59.4860   31.6390   46.5080 C   0  0  0  0  0  0  0  0  0  0  0  0
   59.6500   32.9360   45.9900 C   0  0  0  0  0  0  0  0  0  0  0  0
   59.4960   34.0520   46.8190 C   0  0  0  0  0  0  0  0  0  0  0  0
   59.1700   33.8840   48.1660 C   0  0  0  0  0  0  0  0  0  0  0  0
   58.9950   32.6000   48.6880 C   0  0  0  0  0  0  0  0  0  0  0  0
   59.1490   31.4810   47.8640 C   0  0  0  0  0  0  0  0  0  0  0  0
   58.2210   28.3730   46.1300 C   0  0  0  0  0  0  0  0  0  0  0  0
   59.5560   27.6600   47.0490 Cl  0  0  0  0  0  0  0  0  0  0  0  0
   57.8340   24.4208   44.8779 H   0  0  0  0  0  0  0  0  0  0  0  0
   56.5149   23.9644   43.7473 H   0  0  0  0  0  0  0  0  0  0  0  0
   57.1576   25.6418   43.7473 H   0  0  0  0  0  0  0  0  0  0  0  0
   56.4048   26.4110   47.6218 H   0  0  0  0  0  0  0  0  0  0  0  0
   57.8000   25.7997   46.6278 H   0  0  0  0  0  0  0  0  0  0  0  0
   60.4351   29.7837   46.0287 H   0  0  0  0  0  0  0  0  0  0  0  0
   59.9247   30.7817   44.6075 H   0  0  0  0  0  0  0  0  0  0  0  0
   59.9006   33.0736   44.9278 H   0  0  0  0  0  0  0  0  0  0  0  0
   59.6320   35.0636   46.4089 H   0  0  0  0  0  0  0  0  0  0  0  0
   59.0509   34.7629   48.8166 H   0  0  0  0  0  0  0  0  0  0  0  0
   58.7356   32.4692   49.7490 H   0  0  0  0  0  0  0  0  0  0  0  0
   59.0058   30.4722   48.2785 H   0  0  0  0  0  0  0  0  0  0  0  0
  1  2  1  0
  2  3  1  0
  3  4  1  0
  4  5  1  0
  5  6  1  0
  6  7  2  0
  6  8  1  0
  8  9  1  0
  9 10  3  0
  8 11  2  0
 11 12  1  0
 12 13  1  0
 13 14  2  0
 14 15  1  0
 15 16  2  0
 16 17  1  0
 17 18  2  0
 11 19  1  0
 19 20  1  0
 19  4  2  0
 18 13  1  0
  1 21  1  0
  1 22  1  0
  1 23  1  0
  3 24  1  0
  3 25  1  0
 12 26  1  0
 12 27  1  0
 14 28  1  0
 15 29  1  0
 16 30  1  0
 17 31  1  0
 18 32  1  0
M  CHG  1   5  -1
M  END
>  <UniqueID>  (41) 
38

>  <SMILES>  (41) 
CSCc1[n-]c(=O)c(C#N)c(Cc2ccccc2)c1Cl

>  <Energy>  (41) 
34.77346432003528

>  <Genealogy>  (41) 
CSCc1[n-]c(=O)c(C#N)c(Cc2ccccc2)c1Cl (protonated)
CSCc1[n-]c(=O)c(C#N)c(Cc2ccccc2)c1Cl (3D coordinates assigned)
CSCc1[n-]c(=O)c(C#N)c(Cc2ccccc2)c1Cl (optimized conformer: 34.77346432003528 kcal/mol)

>  <smiles>  (41) 
CSCc1[nH]c(=O)c(C#N)c(Cc2ccccc2)c1Cl

>  <score_type>  (41) 
oracle

>  <origin>  (41) 
adg

>  <m_score__min__energy>  (41) 
-8.5500000000000007

>  <m_primary>  (41) 
energy

$$$$
41:0
     RDKit          3D

 63 67  0  0  1  0  0  0  0  0999 V2000
   68.5770   33.9400   50.7680 C   0  0  0  0  0  0  0  0  0  0  0  0
   67.4850   33.2890   51.3340 O   0  0  0  0  0  0  0  0  0  0  0  0
   66.1590   33.4310   50.9470 C   0  0  0  0  0  0  0  0  0  0  0  0
   65.3230   34.1140   51.8170 C   0  0  0  0  0  0  0  0  0  0  0  0
   63.9940   34.2690   51.4510 C   0  0  0  0  0  0  0  0  0  0  0  0
   60.6870   27.3650   48.3000 C   0  0  0  0  0  0  0  0  0  0  0  0
   60.0710   28.5960   48.2460 C   0  0  0  0  0  0  0  0  0  0  0  0
   60.4550   29.7030   49.0510 N   0  0  0  0  0  0  0  0  0  0  0  0
   60.8710   30.7640   48.4900 C   0  0  0  0  0  0  0  0  0  0  0  0
   61.7660   33.0200   47.2980 C   0  0  0  0  0  0  0  0  0  0  0  0
   60.4380   32.6770   47.1590 C   0  0  0  0  0  0  0  0  0  0  0  0
   59.5420   33.4600   46.4190 N   0  0  0  0  0  0  0  0  0  0  0  0
   59.6320   34.9040   46.3160 C   0  0  0  0  0  0  0  0  0  0  0  0
   59.2400   35.2440   44.8720 C   0  0  0  0  0  0  0  0  0  0  0  0
   57.8910   34.8770   44.5690 N   0  0  0  0  0  0  0  0  0  0  0  0
   57.3620   33.8790   45.4800 C   0  0  0  0  0  0  0  0  0  0  0  0
   58.4420   32.8280   45.6980 C   0  0  0  0  0  0  0  0  0  0  0  0
   60.0290   31.5540   47.7610 N   0  0  0  0  0  0  0  0  0  0  0  0
   62.6190   32.2160   48.0390 C   0  0  0  0  0  0  0  0  0  0  0  0
   63.8600   32.5520   48.1600 N   0  0  0  0  0  0  0  0  0  0  0  0
   64.3300   33.0920   49.4060 C   0  0  0  0  0  0  0  0  0  0  0  0
   63.4880   33.7710   50.2650 C   0  0  0  0  0  0  0  0  0  0  0  0
   58.5880   27.7300   46.5370 C   0  0  0  0  0  0  0  0  0  0  0  0
   59.1950   26.5070   46.5880 C   0  0  0  0  0  0  0  0  0  0  0  0
   58.7340   25.4630   45.7390 N   0  0  0  0  0  0  0  0  0  0  0  0
   57.3660   25.0920   45.6770 C   0  0  0  0  0  0  0  0  0  0  0  0
   56.5110   25.6780   46.3740 O   0  0  0  0  0  0  0  0  0  0  0  0
   56.9960   23.9890   44.7550 C   0  0  0  0  0  0  0  0  0  0  0  0
   56.0820   24.0070   43.7790 C   0  0  0  0  0  0  0  0  0  0  0  0
   55.8800   22.9060   43.0400 C   0  0  0  0  0  0  0  0  0  0  0  0
   56.6610   21.8040   43.3590 C   0  0  0  0  0  0  0  0  0  0  0  0
   57.7130   22.3660   44.7570 S   0  0  0  0  0  0  0  0  0  0  0  0
   60.2460   26.3400   47.4760 C   0  0  0  0  0  0  0  0  0  0  0  0
   59.0260   28.7520   47.3560 C   0  0  0  0  0  0  0  0  0  0  0  0
   62.1730   31.1030   48.6260 N   0  0  0  0  0  0  0  0  0  0  0  0
   65.6720   32.9230   49.7520 C   0  0  0  0  0  0  0  0  0  0  0  0
   69.2270   34.3275   51.5663 H   0  0  0  0  0  0  0  0  0  0  0  0
   69.1435   33.2321   50.1452 H   0  0  0  0  0  0  0  0  0  0  0  0
   68.2237   34.7750   50.1452 H   0  0  0  0  0  0  0  0  0  0  0  0
   65.7014   34.5199   52.7668 H   0  0  0  0  0  0  0  0  0  0  0  0
   63.3174   34.8085   52.1301 H   0  0  0  0  0  0  0  0  0  0  0  0
   61.5243   27.1958   48.9930 H   0  0  0  0  0  0  0  0  0  0  0  0
   62.1498   33.9334   46.8201 H   0  0  0  0  0  0  0  0  0  0  0  0
   58.9394   35.3827   47.0240 H   0  0  0  0  0  0  0  0  0  0  0  0
   60.6424   35.2655   46.5576 H   0  0  0  0  0  0  0  0  0  0  0  0
   59.3528   36.3279   44.7219 H   0  0  0  0  0  0  0  0  0  0  0  0
   59.8999   34.6719   44.2033 H   0  0  0  0  0  0  0  0  0  0  0  0
   57.2790   35.6930   44.4540 H   0  0  0  0  0  0  0  0  0  0  0  0
   57.0990   34.3497   46.4388 H   0  0  0  0  0  0  0  0  0  0  0  0
   56.4562   33.4174   45.0600 H   0  0  0  0  0  0  0  0  0  0  0  0
   58.0377   31.9934   46.2896 H   0  0  0  0  0  0  0  0  0  0  0  0
   58.7926   32.4322   44.7334 H   0  0  0  0  0  0  0  0  0  0  0  0
   59.0370   31.2010   47.7170 H   0  0  0  0  0  0  0  0  0  0  0  0
   62.4279   33.9137   50.0084 H   0  0  0  0  0  0  0  0  0  0  0  0
   57.7509   27.9005   45.8440 H   0  0  0  0  0  0  0  0  0  0  0  0
   59.4750   24.9790   45.1540 H   0  0  0  0  0  0  0  0  0  0  0  0
   55.4993   24.9193   43.5834 H   0  0  0  0  0  0  0  0  0  0  0  0
   55.1383   22.8781   42.2282 H   0  0  0  0  0  0  0  0  0  0  0  0
   56.6522   20.8134   42.8808 H   0  0  0  0  0  0  0  0  0  0  0  0
   60.7470   25.3622   47.5291 H   0  0  0  0  0  0  0  0  0  0  0  0
   58.5231   29.7286   47.2974 H   0  0  0  0  0  0  0  0  0  0  0  0
   62.8590   30.5420   49.1670 H   0  0  0  0  0  0  0  0  0  0  0  0
   66.3476   32.3833   49.0721 H   0  0  0  0  0  0  0  0  0  0  0  0
  1  2  1  0
  2  3  1  0
  3  4  2  0
  4  5  1  0
  5  6  2  0
  6  7  1  0
  7  8  1  0
  8  9  2  0
  9 10  1  0
 10 11  2  0
 11 12  1  0
 12 13  1  0
 13 14  1  0
 14 15  1  0
 15 16  1  0
 16 17  1  0
 11 18  1  0
 18 19  1  0
 19 20  2  0
 20 21  1  0
 21 22  2  0
 22 23  1  0
 23 24  2  0
 24 25  1  0
 25 26  1  0
 26 27  2  0
 26 28  1  0
 28 29  2  0
 29 30  1  0
 30 31  2  0
 31 32  1  0
 24 33  1  0
 33 34  2  0
 19 35  1  0
  7 36  2  0
 36  3  1  0
 35  9  1  0
 17 12  1  0
 34 21  1  0
 32 28  1  0
  1 37  1  0
  1 38  1  0
  1 39  1  0
  4 40  1  0
  5 41  1  0
  6 42  1  0
 10 43  1  0
 13 44  1  0
 13 45  1  0
 14 46  1  0
 14 47  1  0
 15 48  1  0
 16 49  1  0
 16 50  1  0
 17 51  1  0
 17 52  1  0
 18 53  1  0
 22 54  1  0
 23 55  1  0
 25 56  1  0
 29 57  1  0
 30 58  1  0
 31 59  1  0
 33 60  1  0
 34 61  1  0
 35 62  1  0
 36 63  1  0
M  END
>  <smiles>  (42) 
COc1cccc(N=c2cc(N3CCNCC3)[nH]c(=Nc3ccc(NC(=O)c4cccs4)cc3)[nH]2)c1

>  <score_type>  (42) 
oracle

>  <origin>  (42) 
adg

>  <m_score__min__energy>  (42) 
-8.6600000000000001

>  <m_primary>  (42) 
energy

$$$$
42:0
     RDKit          3D

 28 29  0  0  0  0  0  0  0  0999 V2000
   59.9020   33.8480   50.0990 C   0  0  0  0  0  0  0  0  0  0  0  0
   59.5710   33.6090   48.6560 C   0  0  0  0  0  0  0  0  0  0  0  0
   60.3660   34.1710   47.6450 C   0  0  0  0  0  0  0  0  0  0  0  0
   60.0350   33.9790   46.3010 C   0  0  0  0  0  0  0  0  0  0  0  0
   58.8960   33.2410   45.9570 C   0  0  0  0  0  0  0  0  0  0  0  0
   58.4680   33.0030   44.2310 S   0  0  0  0  0  0  0  0  0  0  0  0
   57.7560   31.3840   44.5360 C   0  0  0  0  0  0  0  0  0  0  0  0
   56.4480   31.0230   44.2620 C   0  0  0  0  0  0  0  0  0  0  0  0
   56.2900   29.7480   44.6620 N   0  0  0  0  0  0  0  0  0  0  0  0
   55.1380   28.9980   44.6000 O   0  0  0  0  0  0  0  0  0  0  0  0
   57.4750   29.3570   45.1610 C   0  0  0  0  0  0  0  0  0  0  0  0
   57.6860   28.2170   45.6530 O   0  0  0  0  0  0  0  0  0  0  0  0
   58.4060   30.3310   45.0830 N   0  0  0  0  0  0  0  0  0  0  0  0
   59.7680   30.2900   45.6050 C   0  0  0  0  0  0  0  0  0  0  0  0
   58.0950   32.6870   46.9610 C   0  0  0  0  0  0  0  0  0  0  0  0
   58.4250   32.8770   48.3060 C   0  0  0  0  0  0  0  0  0  0  0  0
   59.1739   33.3223   50.7342 H   0  0  0  0  0  0  0  0  0  0  0  0
   60.9132   33.4704   50.3106 H   0  0  0  0  0  0  0  0  0  0  0  0
   59.8617   34.9267   50.3106 H   0  0  0  0  0  0  0  0  0  0  0  0
   61.2528   34.7647   47.9116 H   0  0  0  0  0  0  0  0  0  0  0  0
   60.6702   34.4083   45.5122 H   0  0  0  0  0  0  0  0  0  0  0  0
   55.6792   31.6611   43.8019 H   0  0  0  0  0  0  0  0  0  0  0  0
   55.1380   28.0250   44.8800 H   0  0  0  0  0  0  0  0  0  0  0  0
   59.7394   30.2909   46.7046 H   0  0  0  0  0  0  0  0  0  0  0  0
   60.2686   29.3764   45.2519 H   0  0  0  0  0  0  0  0  0  0  0  0
   60.3227   31.1719   45.2519 H   0  0  0  0  0  0  0  0  0  0  0  0
   57.2040   32.1009   46.6917 H   0  0  0  0  0  0  0  0  0  0  0  0
   57.7848   32.4516   49.0929 H   0  0  0  0  0  0  0  0  0  0  0  0
  1  2  1  0
  2  3  2  0
  3  4  1  0
  4  5  2  0
  5  6  1  0
  6  7  1  0
  7  8  2  0
  8  9  1  0
  9 10  1  0
  9 11  1  0
 11 12  2  0
 11 13  1  0
 13 14  1  0
  5 15  1  0
 15 16  2  0
 16  2  1  0
 13  7  1  0
  1 17  1  0
  1 18  1  0
  1 19  1  0
  3 20  1  0
  4 21  1  0
  8 22  1  0
 10 23  1  0
 14 24  1  0
 14 25  1  0
 14 26  1  0
 15 27  1  0
 16 28  1  0
M  END
>  <UniqueID>  (43) 
39

>  <SMILES>  (43) 
Cc1ccc(Sc2cn(O)c(=O)n2C)cc1

>  <Energy>  (43) 
55.985276214759395

>  <Genealogy>  (43) 
Cc1ccc(Sc2cn(O)c(=O)n2C)cc1 (3D coordinates assigned)
Cc1ccc(Sc2cn(O)c(=O)n2C)cc1 (optimized conformer: 55.985276214759395 kcal/mol)

>  <smiles>  (43) 
Cc1ccc(Sc2cn(O)c(=O)n2C)cc1

>  <score_type>  (43) 
oracle

>  <origin>  (43) 
adg

>  <m_score__min__energy>  (43) 
-7.0199999999999996

>  <m_primary>  (43) 
energy

$$$$
43:0
     RDKit          3D

 48 50  0  0  0  0  0  0  0  0999 V2000
   54.9790   26.2710   45.9790 N   0  0  0  0  0  0  0  0  0  0  0  0
   56.6720   25.9330   46.0660 S   0  0  0  0  0  0  0  0  0  0  0  0
   57.0480   25.6390   47.4920 O   0  0  0  0  0  0  0  0  0  0  0  0
   56.9890   24.7280   45.2250 O   0  0  0  0  0  0  0  0  0  0  0  0
   57.5780   27.3220   45.4780 C   0  0  0  0  0  0  0  0  0  0  0  0
   58.8610   27.1560   44.9380 C   0  0  0  0  0  0  0  0  0  0  0  0
   59.5750   28.2640   44.4750 C   0  0  0  0  0  0  0  0  0  0  0  0
   59.0210   29.5440   44.5620 C   0  0  0  0  0  0  0  0  0  0  0  0
   57.7470   29.7270   45.1310 C   0  0  0  0  0  0  0  0  0  0  0  0
   57.1340   31.0210   45.2280 N   0  0  0  0  0  0  0  0  0  0  0  0
   57.7180   32.2730   44.8470 C   0  0  0  0  0  0  0  0  0  0  0  0
   57.2860   32.9130   43.8510 O   0  0  0  0  0  0  0  0  0  0  0  0
   58.8770   32.8050   45.6220 C   0  0  0  0  0  0  0  0  0  0  0  0
   58.4570   33.0830   46.9900 N   0  0  0  0  0  0  0  0  0  0  0  0
   59.3040   33.6260   48.0100 C   0  0  0  0  0  0  0  0  0  0  0  0
   59.3020   34.8740   48.1880 O   0  0  0  0  0  0  0  0  0  0  0  0
   60.2250   32.7400   48.8300 C   0  0  0  0  0  0  0  0  0  0  0  0
   61.6930   32.9850   48.5160 C   0  0  0  0  0  0  0  0  0  0  0  0
   62.6940   32.7650   49.4840 C   0  0  0  0  0  0  0  0  0  0  0  0
   64.0390   32.9920   49.1770 C   0  0  0  0  0  0  0  0  0  0  0  0
   64.4020   33.4360   47.9040 C   0  0  0  0  0  0  0  0  0  0  0  0
   63.4220   33.6510   46.9330 C   0  0  0  0  0  0  0  0  0  0  0  0
   62.0750   33.4250   47.2340 C   0  0  0  0  0  0  0  0  0  0  0  0
   59.8840   31.2640   48.7040 C   0  0  0  0  0  0  0  0  0  0  0  0
   58.9390   30.7000   49.5800 C   0  0  0  0  0  0  0  0  0  0  0  0
   58.6260   29.3390   49.5080 C   0  0  0  0  0  0  0  0  0  0  0  0
   59.2600   28.5240   48.5680 C   0  0  0  0  0  0  0  0  0  0  0  0
   60.2110   29.0660   47.7010 C   0  0  0  0  0  0  0  0  0  0  0  0
   60.5280   30.4260   47.7700 C   0  0  0  0  0  0  0  0  0  0  0  0
   57.0270   28.6070   45.5700 C   0  0  0  0  0  0  0  0  0  0  0  0
   54.8000   27.0990   46.5910 H   0  0  0  0  0  0  0  0  0  0  0  0
   59.3062   26.1519   44.8787 H   0  0  0  0  0  0  0  0  0  0  0  0
   60.5764   28.1284   44.0406 H   0  0  0  0  0  0  0  0  0  0  0  0
   59.5826   30.4113   44.1845 H   0  0  0  0  0  0  0  0  0  0  0  0
   59.6861   32.0598   45.6306 H   0  0  0  0  0  0  0  0  0  0  0  0
   59.2389   33.7318   45.1528 H   0  0  0  0  0  0  0  0  0  0  0  0
   60.0553   33.0262   49.8785 H   0  0  0  0  0  0  0  0  0  0  0  0
   62.4149   32.4123   50.4878 H   0  0  0  0  0  0  0  0  0  0  0  0
   64.8127   32.8205   49.9399 H   0  0  0  0  0  0  0  0  0  0  0  0
   65.4606   33.6165   47.6659 H   0  0  0  0  0  0  0  0  0  0  0  0
   63.7098   33.9986   45.9298 H   0  0  0  0  0  0  0  0  0  0  0  0
   61.3081   33.5922   46.4634 H   0  0  0  0  0  0  0  0  0  0  0  0
   58.4419   31.3350   50.3281 H   0  0  0  0  0  0  0  0  0  0  0  0
   57.8795   28.9100   50.1926 H   0  0  0  0  0  0  0  0  0  0  0  0
   59.0101   27.4543   48.5104 H   0  0  0  0  0  0  0  0  0  0  0  0
   60.7114   28.4221   46.9628 H   0  0  0  0  0  0  0  0  0  0  0  0
   61.2850   30.8454   47.0910 H   0  0  0  0  0  0  0  0  0  0  0  0
   56.0193   28.7384   45.9910 H   0  0  0  0  0  0  0  0  0  0  0  0
  1  2  1  0
  2  3  2  0
  2  4  2  0
  2  5  1  0
  5  6  2  0
  6  7  1  0
  7  8  2  0
  8  9  1  0
  9 10  1  0
 10 11  1  0
 11 12  2  0
 11 13  1  0
 13 14  1  0
 14 15  1  0
 15 16  2  0
 15 17  1  0
 17 18  1  0
 18 19  2  0
 19 20  1  0
 20 21  2  0
 21 22  1  0
 22 23  2  0
 17 24  1  0
 24 25  2  0
 25 26  1  0
 26 27  2  0
 27 28  1  0
 28 29  2  0
  9 30  2  0
 30  5  1  0
 23 18  1  0
 29 24  1  0
  1 31  1  0
  6 32  1  0
  7 33  1  0
  8 34  1  0
 13 35  1  0
 13 36  1  0
 17 37  1  0
 19 38  1  0
 20 39  1  0
 21 40  1  0
 22 41  1  0
 23 42  1  0
 25 43  1  0
 26 44  1  0
 27 45  1  0
 28 46  1  0
 29 47  1  0
 30 48  1  0
M  CHG  3   1  -1  10  -1  14  -1
M  END
>  <UniqueID>  (44) 
40

>  <SMILES>  (44) 
[NH-]S(=O)(=O)c1cccc([N-]C(=O)C[N-]C(=O)C(c2ccccc2)c2ccccc2)c1

>  <Energy>  (44) 
53.326647738065155

>  <Genealogy>  (44) 
[NH-]S(=O)(=O)c1cccc([N-]C(=O)C[N-]C(=O)C(c2ccccc2)c2ccccc2)c1 (protonated)
[NH-]S(=O)(=O)c1cccc([N-]C(=O)C[N-]C(=O)C(c2ccccc2)c2ccccc2)c1 (3D coordinates assigned)
[NH-]S(=O)(=O)c1cccc([N-]C(=O)C[N-]C(=O)C(c2ccccc2)c2ccccc2)c1 (optimized conformer: 53.326647738065155 kcal/mol)

>  <smiles>  (44) 
NS(=O)(=O)c1cccc(NC(=O)CNC(=O)C(c2ccccc2)c2ccccc2)c1

>  <score_type>  (44) 
oracle

>  <origin>  (44) 
adg

>  <m_score__min__energy>  (44) 
-14.41

>  <m_primary>  (44) 
energy

$$$$
44:0
     RDKit          3D

 39 41  0  0  0  0  0  0  0  0999 V2000
   60.2890   28.1860   46.0120 O   0  0  0  0  0  0  0  0  0  0  0  0
   59.7940   29.3460   45.9820 C   0  0  0  0  0  0  0  0  0  0  0  0
   60.4440   30.4220   46.6720 N   0  0  0  0  0  0  0  0  0  0  0  0
   61.1610   30.2170   47.9260 C   0  0  0  0  0  0  0  0  0  0  0  0
   62.1660   31.3200   48.1090 C   0  0  0  0  0  0  0  0  0  0  0  0
   62.8760   31.4390   49.3150 C   0  0  0  0  0  0  0  0  0  0  0  0
   63.7650   32.5020   49.5070 C   0  0  0  0  0  0  0  0  0  0  0  0
   63.9410   33.4580   48.5020 C   0  0  0  0  0  0  0  0  0  0  0  0
   63.2210   33.3570   47.3070 C   0  0  0  0  0  0  0  0  0  0  0  0
   62.3330   32.2950   47.1130 C   0  0  0  0  0  0  0  0  0  0  0  0
   58.5580   29.5930   45.2130 C   0  0  0  0  0  0  0  0  0  0  0  0
   58.1770   28.7150   44.1880 C   0  0  0  0  0  0  0  0  0  0  0  0
   57.0240   28.9660   43.4430 C   0  0  0  0  0  0  0  0  0  0  0  0
   56.2510   30.0900   43.7360 C   0  0  0  0  0  0  0  0  0  0  0  0
   56.6140   30.9190   44.7500 N   0  0  0  0  0  0  0  0  0  0  0  0
   57.7350   30.7010   45.4960 C   0  0  0  0  0  0  0  0  0  0  0  0
   58.0440   31.5440   46.5700 O   0  0  0  0  0  0  0  0  0  0  0  0
   58.5930   32.8190   46.4180 C   0  0  0  0  0  0  0  0  0  0  0  0
   58.5420   33.4310   45.1600 C   0  0  0  0  0  0  0  0  0  0  0  0
   59.0690   34.7120   44.9770 C   0  0  0  0  0  0  0  0  0  0  0  0
   59.6430   35.3920   46.0530 C   0  0  0  0  0  0  0  0  0  0  0  0
   59.6840   34.7950   47.3170 C   0  0  0  0  0  0  0  0  0  0  0  0
   59.1570   33.5120   47.5080 C   0  0  0  0  0  0  0  0  0  0  0  0
   59.1460   32.7740   49.2750 Br  0  0  0  0  0  0  0  0  0  0  0  0
   60.2140   31.4040   46.3990 H   0  0  0  0  0  0  0  0  0  0  0  0
   60.4476   30.2271   48.7632 H   0  0  0  0  0  0  0  0  0  0  0  0
   61.6788   29.2468   47.9004 H   0  0  0  0  0  0  0  0  0  0  0  0
   62.7326   30.6938   50.1113 H   0  0  0  0  0  0  0  0  0  0  0  0
   64.3260   32.5858   50.4495 H   0  0  0  0  0  0  0  0  0  0  0  0
   64.6456   34.2895   48.6511 H   0  0  0  0  0  0  0  0  0  0  0  0
   63.3536   34.1136   46.5196 H   0  0  0  0  0  0  0  0  0  0  0  0
   61.7623   32.2230   46.1754 H   0  0  0  0  0  0  0  0  0  0  0  0
   58.7883   27.8266   43.9708 H   0  0  0  0  0  0  0  0  0  0  0  0
   56.7274   28.2841   42.6324 H   0  0  0  0  0  0  0  0  0  0  0  0
   55.3477   30.3052   43.1463 H   0  0  0  0  0  0  0  0  0  0  0  0
   58.0848   32.9008   44.3115 H   0  0  0  0  0  0  0  0  0  0  0  0
   59.0317   35.1851   43.9846 H   0  0  0  0  0  0  0  0  0  0  0  0
   60.0632   36.3979   45.9064 H   0  0  0  0  0  0  0  0  0  0  0  0
   60.1318   35.3353   48.1641 H   0  0  0  0  0  0  0  0  0  0  0  0
  1  2  2  0
  2  3  1  0
  3  4  1  0
  4  5  1  0
  5  6  2  0
  6  7  1  0
  7  8  2  0
  8  9  1  0
  9 10  2  0
  2 11  1  0
 11 12  2  0
 12 13  1  0
 13 14  2  0
 14 15  1  0
 15 16  2  0
 16 17  1  0
 17 18  1  0
 18 19  2  0
 19 20  1  0
 20 21  2  0
 21 22  1  0
 22 23  2  0
 23 24  1  0
 10  5  1  0
 16 11  1  0
 23 18  1  0
  3 25  1  0
  4 26  1  0
  4 27  1  0
  6 28  1  0
  7 29  1  0
  8 30  1  0
  9 31  1  0
 10 32  1  0
 12 33  1  0
 13 34  1  0
 14 35  1  0
 19 36  1  0
 20 37  1  0
 21 38  1  0
 22 39  1  0
M  END
>  <UniqueID>  (45) 
41

>  <SMILES>  (45) 
O=C(NCc1ccccc1)c1cccnc1Oc1ccccc1Br

>  <Energy>  (45) 
49.12940734284441

>  <Genealogy>  (45) 
O=C(NCc1ccccc1)c1cccnc1Oc1ccccc1Br (3D coordinates assigned)
O=C(NCc1ccccc1)c1cccnc1Oc1ccccc1Br (optimized conformer: 49.12940734284441 kcal/mol)

>  <smiles>  (45) 
O=C(NCc1ccccc1)c1cccnc1Oc1ccccc1Br

>  <score_type>  (45) 
oracle

>  <origin>  (45) 
adg

>  <m_score__min__energy>  (45) 
-8.1099999999999994

>  <m_primary>  (45) 
energy

$$$$
45:0
     RDKit          3D

 34 36  0  0  0  0  0  0  0  0999 V2000
   59.2800   35.2100   47.3920 N   0  0  0  0  0  0  0  0  0  0  0  0
   59.7820   34.3900   45.9560 S   0  0  0  0  0  0  0  0  0  0  0  0
   61.2560   34.1050   46.0290 O   0  0  0  0  0  0  0  0  0  0  0  0
   59.5180   35.2640   44.7630 O   0  0  0  0  0  0  0  0  0  0  0  0
   58.8900   32.8800   45.7990 C   0  0  0  0  0  0  0  0  0  0  0  0
   57.7390   32.8210   45.0050 C   0  0  0  0  0  0  0  0  0  0  0  0
   57.0350   31.6210   44.8690 C   0  0  0  0  0  0  0  0  0  0  0  0
   57.4740   30.4580   45.5300 C   0  0  0  0  0  0  0  0  0  0  0  0
   56.7440   29.1750   45.3910 C   0  0  0  0  0  0  0  0  0  0  0  0
   55.6850   29.1450   44.7050 O   0  0  0  0  0  0  0  0  0  0  0  0
   57.2250   27.9750   46.0230 N   0  0  0  0  0  0  0  0  0  0  0  0
   56.5290   26.7170   45.9600 C   0  0  0  0  0  0  0  0  0  0  0  0
   55.1690   26.7030   46.0000 N   0  0  0  0  0  0  0  0  0  0  0  0
   54.4640   25.5770   45.8910 N   0  0  0  0  0  0  0  0  0  0  0  0
   55.0640   24.3730   45.7270 C   0  0  0  0  0  0  0  0  0  0  0  0
   54.3530   23.3390   45.6230 O   0  0  0  0  0  0  0  0  0  0  0  0
   56.4660   24.2990   45.6780 C   0  0  0  0  0  0  0  0  0  0  0  0
   57.1290   23.0680   45.5180 C   0  0  0  0  0  0  0  0  0  0  0  0
   58.5240   23.0170   45.4970 C   0  0  0  0  0  0  0  0  0  0  0  0
   59.2700   24.1860   45.6430 C   0  0  0  0  0  0  0  0  0  0  0  0
   58.6280   25.4160   45.8010 C   0  0  0  0  0  0  0  0  0  0  0  0
   57.2190   25.4930   45.8040 C   0  0  0  0  0  0  0  0  0  0  0  0
   58.6430   30.5200   46.3080 C   0  0  0  0  0  0  0  0  0  0  0  0
   59.3440   31.7220   46.4430 C   0  0  0  0  0  0  0  0  0  0  0  0
   59.2090   36.2240   47.1540 H   0  0  0  0  0  0  0  0  0  0  0  0
   57.3864   33.7239   44.4851 H   0  0  0  0  0  0  0  0  0  0  0  0
   56.1322   31.5851   44.2415 H   0  0  0  0  0  0  0  0  0  0  0  0
   58.1690   27.9940   46.4660 H   0  0  0  0  0  0  0  0  0  0  0  0
   56.5455   22.1419   45.4090 H   0  0  0  0  0  0  0  0  0  0  0  0
   59.0359   22.0523   45.3650 H   0  0  0  0  0  0  0  0  0  0  0  0
   60.3690   24.1391   45.6337 H   0  0  0  0  0  0  0  0  0  0  0  0
   59.2251   26.3316   45.9240 H   0  0  0  0  0  0  0  0  0  0  0  0
   59.0094   29.6151   46.8149 H   0  0  0  0  0  0  0  0  0  0  0  0
   60.2557   31.7585   47.0574 H   0  0  0  0  0  0  0  0  0  0  0  0
  1  2  1  0
  2  3  2  0
  2  4  2  0
  2  5  1  0
  5  6  2  0
  6  7  1  0
  7  8  2  0
  8  9  1  0
  9 10  2  0
  9 11  1  0
 11 12  1  0
 12 13  2  0
 13 14  1  0
 14 15  1  0
 15 16  2  0
 15 17  1  0
 17 18  2  0
 18 19  1  0
 19 20  2  0
 20 21  1  0
 21 22  2  0
  8 23  1  0
 23 24  2  0
 24  5  1  0
 22 12  1  0
 22 17  1  0
  1 25  1  0
  6 26  1  0
  7 27  1  0
 11 28  1  0
 18 29  1  0
 19 30  1  0
 20 31  1  0
 21 32  1  0
 23 33  1  0
 24 34  1  0
M  CHG  2   1  -1  14  -1
M  END
>  <UniqueID>  (46) 
42

>  <SMILES>  (46) 
[NH-]S(=O)(=O)c1ccc(C(=O)Nc2n[n-]c(=O)c3ccccc23)cc1

>  <Energy>  (46) 
49.71954771051892

>  <Genealogy>  (46) 
[NH-]S(=O)(=O)c1ccc(C(=O)Nc2n[n-]c(=O)c3ccccc23)cc1 (protonated)
[NH-]S(=O)(=O)c1ccc(C(=O)Nc2n[n-]c(=O)c3ccccc23)cc1 (3D coordinates assigned)
[NH-]S(=O)(=O)c1ccc(C(=O)Nc2n[n-]c(=O)c3ccccc23)cc1 (optimized conformer: 49.71954771051892 kcal/mol)

>  <smiles>  (46) 
NS(=O)(=O)c1ccc(C(=O)Nc2n[nH]c(=O)c3ccccc23)cc1

>  <score_type>  (46) 
oracle

>  <origin>  (46) 
adg

>  <m_score__min__energy>  (46) 
-11.24

>  <m_primary>  (46) 
energy

$$$$
46:0
     RDKit          3D

 56 59  0  0  0  0  0  0  0  0999 V2000
   57.5180   30.5940   43.9590 C   0  0  0  0  0  0  0  0  0  0  0  0
   58.0610   30.0760   45.2160 N   0  0  0  0  0  0  0  0  0  0  0  0
   58.5350   30.9800   46.2290 C   0  0  0  0  0  0  0  0  0  0  0  0
   58.6760   32.3060   45.9510 N   0  0  0  0  0  0  0  0  0  0  0  0
   59.1200   33.1810   46.8890 C   0  0  0  0  0  0  0  0  0  0  0  0
   59.4450   32.7250   48.1690 C   0  0  0  0  0  0  0  0  0  0  0  0
   60.0450   33.8450   49.3850 S   0  0  0  0  0  0  0  0  0  0  0  0
   59.4060   33.5570   50.7150 O   0  0  0  0  0  0  0  0  0  0  0  0
   59.6920   35.2510   48.9910 O   0  0  0  0  0  0  0  0  0  0  0  0
   61.7920   33.6780   49.5130 C   0  0  0  0  0  0  0  0  0  0  0  0
   62.5570   33.3480   48.3850 C   0  0  0  0  0  0  0  0  0  0  0  0
   63.9480   33.2370   48.4890 C   0  0  0  0  0  0  0  0  0  0  0  0
   64.5800   33.4660   49.7160 C   0  0  0  0  0  0  0  0  0  0  0  0
   63.8200   33.8010   50.8420 C   0  0  0  0  0  0  0  0  0  0  0  0
   62.4290   33.9090   50.7420 C   0  0  0  0  0  0  0  0  0  0  0  0
   59.3080   31.3600   48.4380 C   0  0  0  0  0  0  0  0  0  0  0  0
   58.8590   30.5190   47.4710 N   0  0  0  0  0  0  0  0  0  0  0  0
   58.2700   28.6600   45.3590 C   0  0  0  0  0  0  0  0  0  0  0  0
   59.5740   28.1690   45.4960 C   0  0  0  0  0  0  0  0  0  0  0  0
   59.7990   26.8000   45.6560 C   0  0  0  0  0  0  0  0  0  0  0  0
   58.7240   25.9110   45.6770 C   0  0  0  0  0  0  0  0  0  0  0  0
   57.4120   26.3830   45.5250 C   0  0  0  0  0  0  0  0  0  0  0  0
   56.2690   25.4550   45.6070 C   0  0  0  0  0  0  0  0  0  0  0  0
   55.1590   25.9040   46.0000 O   0  0  0  0  0  0  0  0  0  0  0  0
   56.3440   24.1250   45.0580 N   0  0  0  0  0  0  0  0  0  0  0  0
   55.6020   23.8840   43.8120 C   0  0  0  0  0  0  0  0  0  0  0  0
   55.9830   22.5630   43.1520 C   0  0  0  0  0  0  0  0  0  0  0  0
   57.3440   22.2790   43.3800 O   0  0  0  0  0  0  0  0  0  0  0  0
   57.5060   21.9170   44.7340 C   0  0  0  0  0  0  0  0  0  0  0  0
   57.2230   23.1120   45.6770 C   0  0  2  0  0  0  0  0  0  0  0  0
   56.6280   22.6670   46.9940 C   0  0  0  0  0  0  0  0  0  0  0  0
   57.3500   22.0740   47.8350 O   0  0  0  0  0  0  0  0  0  0  0  0
   55.3250   23.0040   47.3480 O   0  0  0  0  0  0  0  0  0  0  0  0
   57.1800   27.7650   45.3860 C   0  0  0  0  0  0  0  0  0  0  0  0
   55.8640   28.2260   45.2900 O   0  0  0  0  0  0  0  0  0  0  0  0
   56.7377   31.3384   44.1758 H   0  0  0  0  0  0  0  0  0  0  0  0
   58.3241   31.0663   43.3784 H   0  0  0  0  0  0  0  0  0  0  0  0
   57.0842   29.7665   43.3784 H   0  0  0  0  0  0  0  0  0  0  0  0
   59.2238   34.2478   46.6416 H   0  0  0  0  0  0  0  0  0  0  0  0
   62.0630   33.1762   47.4173 H   0  0  0  0  0  0  0  0  0  0  0  0
   64.5453   32.9694   47.6049 H   0  0  0  0  0  0  0  0  0  0  0  0
   65.6740   33.3827   49.7954 H   0  0  0  0  0  0  0  0  0  0  0  0
   64.3170   33.9796   51.8069 H   0  0  0  0  0  0  0  0  0  0  0  0
   61.8336   34.1753   51.6278 H   0  0  0  0  0  0  0  0  0  0  0  0
   59.5639   30.9672   49.4331 H   0  0  0  0  0  0  0  0  0  0  0  0
   60.4256   28.8650   45.4775 H   0  0  0  0  0  0  0  0  0  0  0  0
   60.8261   26.4218   45.7657 H   0  0  0  0  0  0  0  0  0  0  0  0
   58.9062   24.8348   45.8134 H   0  0  0  0  0  0  0  0  0  0  0  0
   54.5260   23.8672   44.0398 H   0  0  0  0  0  0  0  0  0  0  0  0
   55.8542   24.6931   43.1108 H   0  0  0  0  0  0  0  0  0  0  0  0
   55.3676   21.7551   43.5746 H   0  0  0  0  0  0  0  0  0  0  0  0
   55.8095   22.6403   42.0685 H   0  0  0  0  0  0  0  0  0  0  0  0
   56.8083   21.1005   44.9719 H   0  0  0  0  0  0  0  0  0  0  0  0
   58.5477   21.5972   44.8842 H   0  0  0  0  0  0  0  0  0  0  0  0
   58.2027   23.5744   45.8680 H   0  0  0  0  0  0  0  0  0  0  0  0
   55.1420   27.9670   45.9530 H   0  0  0  0  0  0  0  0  0  0  0  0
  1  2  1  0
  2  3  1  0
  3  4  2  0
  4  5  1  0
  5  6  2  0
  6  7  1  0
  7  8  2  0
  7  9  2  0
  7 10  1  0
 10 11  2  0
 11 12  1  0
 12 13  2  0
 13 14  1  0
 14 15  2  0
  6 16  1  0
 16 17  2  0
  2 18  1  0
 18 19  2  0
 19 20  1  0
 20 21  2  0
 21 22  1  0
 22 23  1  0
 23 24  2  0
 23 25  1  0
 25 26  1  0
 26 27  1  0
 27 28  1  0
 28 29  1  0
 29 30  1  0
 30 31  1  0
 31 32  2  0
 31 33  1  0
 22 34  2  0
 34 35  1  0
 17  3  1  0
 34 18  1  0
 15 10  1  0
 30 25  1  0
  1 36  1  0
  1 37  1  0
  1 38  1  0
  5 39  1  0
 11 40  1  0
 12 41  1  0
 13 42  1  0
 14 43  1  0
 15 44  1  0
 16 45  1  0
 19 46  1  0
 20 47  1  0
 21 48  1  0
 26 49  1  0
 26 50  1  0
 27 51  1  0
 27 52  1  0
 29 53  1  0
 29 54  1  0
 30 55  1  1
 35 56  1  0
M  CHG  1  33  -1
M  END
>  <UniqueID>  (47) 
43

>  <SMILES>  (47) 
CN(c1ncc(S(=O)(=O)c2ccccc2)cn1)c1cccc(C(=O)N2CCOC[C@@H]2C(=O)[O-])c1O

>  <Energy>  (47) 
89.1145176869358

>  <Genealogy>  (47) 
CN(c1ncc(S(=O)(=O)c2ccccc2)cn1)c1cccc(C(=O)N2CCOCC2C(=O)[O-])c1O (protonated)
CN(c1ncc(S(=O)(=O)c2ccccc2)cn1)c1cccc(C(=O)N2CCOC[C@@H]2C(=O)[O-])c1O (chirality)
CN(c1ncc(S(=O)(=O)c2ccccc2)cn1)c1cccc(C(=O)N2CCOC[C@@H]2C(=O)[O-])c1O (3D coordinates assigned)
CN(c1ncc(S(=O)(=O)c2ccccc2)cn1)c1cccc(C(=O)N2CCOC[C@@H]2C(=O)[O-])c1O (nonaromatic ring conformer: 89.1145176869358 kcal/mol)

>  <smiles>  (47) 
CN(c1ncc(S(=O)(=O)c2ccccc2)cn1)c1cccc(C(=O)N2CCOCC2C(=O)O)c1O

>  <score_type>  (47) 
oracle

>  <origin>  (47) 
adg

>  <m_score__min__energy>  (47) 
-12.699999999999999

>  <m_primary>  (47) 
energy

$$$$
47:0
     RDKit          3D

 38 40  0  0  0  0  0  0  0  0999 V2000
   57.1287   31.4206   41.8532 H   0  0  0  0  0  0  0  0  0  0  0  0
   57.0570   30.9180   42.8290 C   0  0  0  0  0  0  0  0  0  0  0  0
   56.5800   29.3260   43.0900 S   0  0  0  0  0  0  0  0  0  0  0  0
   56.7480   29.4400   44.7650 C   0  0  0  0  0  0  0  0  0  0  0  0
   56.5550   28.4860   45.6260 N   0  0  0  0  0  0  0  0  0  0  0  0
   57.0240   27.1330   45.5180 C   0  0  0  0  0  0  0  0  0  0  0  0
   58.3970   26.9020   45.3690 C   0  0  0  0  0  0  0  0  0  0  0  0
   59.0906   27.7533   45.3050 H   0  0  0  0  0  0  0  0  0  0  0  0
   58.8920   25.5960   45.3010 C   0  0  0  0  0  0  0  0  0  0  0  0
   59.9696   25.4247   45.1615 H   0  0  0  0  0  0  0  0  0  0  0  0
   58.0200   24.5050   45.4100 C   0  0  0  0  0  0  0  0  0  0  0  0
   58.6410   22.8610   45.3090 S   0  0  0  0  0  0  0  0  0  0  0  0
   58.2530   22.2500   43.9910 O   0  0  0  0  0  0  0  0  0  0  0  0
   58.0560   22.0260   46.4150 O   0  0  0  0  0  0  0  0  0  0  0  0
   60.3620   22.8800   45.4510 N   0  0  0  0  0  0  0  0  0  0  0  0
   60.7500   22.7590   44.4890 H   0  0  0  0  0  0  0  0  0  0  0  0
   60.6330   22.0280   45.9930 H   0  0  0  0  0  0  0  0  0  0  0  0
   56.6490   24.7320   45.5880 C   0  0  0  0  0  0  0  0  0  0  0  0
   55.9593   23.8795   45.6754 H   0  0  0  0  0  0  0  0  0  0  0  0
   56.1540   26.0380   45.6550 C   0  0  0  0  0  0  0  0  0  0  0  0
   55.0793   26.2089   45.8156 H   0  0  0  0  0  0  0  0  0  0  0  0
   57.1770   30.6640   45.1380 N   0  0  0  0  0  0  0  0  0  0  0  0
   57.3450   31.4870   44.0670 C   0  0  0  0  0  0  0  0  0  0  0  0
   57.7450   32.9200   44.2340 C   0  0  0  0  0  0  0  0  0  0  0  0
   58.8423   32.9852   44.2757 H   0  0  0  0  0  0  0  0  0  0  0  0
   57.3584   33.4949   43.3796 H   0  0  0  0  0  0  0  0  0  0  0  0
   57.0450   33.6170   45.7720 S   0  0  0  0  0  0  0  0  0  0  0  0
   58.6180   33.7220   46.6320 C   0  0  0  0  0  0  0  0  0  0  0  0
   59.7750   34.0970   45.9360 C   0  0  0  0  0  0  0  0  0  0  0  0
   59.7213   34.3177   44.8597 H   0  0  0  0  0  0  0  0  0  0  0  0
   60.9980   34.1910   46.6080 C   0  0  0  0  0  0  0  0  0  0  0  0
   61.9038   34.4939   46.0622 H   0  0  0  0  0  0  0  0  0  0  0  0
   61.0690   33.9000   47.9730 C   0  0  0  0  0  0  0  0  0  0  0  0
   62.0308   33.9753   48.5016 H   0  0  0  0  0  0  0  0  0  0  0  0
   59.9180   33.5130   48.6680 C   0  0  0  0  0  0  0  0  0  0  0  0
   59.9759   33.2803   49.7415 H   0  0  0  0  0  0  0  0  0  0  0  0
   58.6940   33.4220   47.9980 C   0  0  0  0  0  0  0  0  0  0  0  0
   57.7901   33.1145   48.5442 H   0  0  0  0  0  0  0  0  0  0  0  0
  1  2  1  0
  2  3  1  0
  3  4  1  0
  4  5  2  0
  5  6  1  0
  6  7  2  0
  7  8  1  0
  7  9  1  0
  9 10  1  0
  9 11  2  0
 11 12  1  0
 12 13  2  0
 12 14  2  0
 12 15  1  0
 15 16  1  0
 15 17  1  0
 11 18  1  0
 18 19  1  0
 18 20  2  0
 20 21  1  0
  4 22  1  0
 22 23  1  0
 23 24  1  0
 24 25  1  0
 24 26  1  0
 24 27  1  0
 27 28  1  0
 28 29  2  0
 29 30  1  0
 29 31  1  0
 31 32  1  0
 31 33  2  0
 33 34  1  0
 33 35  1  0
 35 36  1  0
 35 37  2  0
 37 38  1  0
 23  2  2  0
 37 28  1  0
 20  6  1  0
M  CHG  1  22  -1
M  END
>  <UniqueID>  (48) 
44

>  <SMILES>  (48) 
NS(=O)(=O)c1ccc(/N=c2/[n-]c(CSc3ccccc3)cs2)cc1

>  <Energy>  (48) 
70.31026808537831

>  <Genealogy>  (48) 
NS(=O)(=O)c1ccc(N=c2[n-]c(CSc3ccccc3)cs2)cc1 (protonated)
NS(=O)(=O)c1ccc(/N=c2/[n-]c(CSc3ccccc3)cs2)cc1 (cis-trans isomerization)
NS(=O)(=O)c1ccc(/N=c2/[n-]c(CSc3ccccc3)cs2)cc1 (3D coordinates assigned)
NS(=O)(=O)c1ccc(/N=c2/[n-]c(CSc3ccccc3)cs2)cc1 (optimized conformer: 70.31026808537831 kcal/mol)

>  <smiles>  (48) 
NS(=O)(=O)c1ccc(N=c2[nH]c(CSc3ccccc3)cs2)cc1

>  <score_type>  (48) 
oracle

>  <origin>  (48) 
adg

>  <m_score__min__energy>  (48) 
-11

>  <m_primary>  (48) 
energy

$$$$
48:0
     RDKit          3D

 55 59  0  0  1  0  0  0  0  0999 V2000
   59.2660   35.6840   44.8650 C   0  0  0  0  0  0  0  0  0  0  0  0
   58.9500   34.5090   45.7170 C   0  0  0  0  0  0  0  0  0  0  0  0
   58.4590   33.3880   45.0730 C   0  0  0  0  0  0  0  0  0  0  0  0
   58.1600   32.2830   45.8630 C   0  0  0  0  0  0  0  0  0  0  0  0
   57.7050   31.2490   45.2450 N   0  0  0  0  0  0  0  0  0  0  0  0
   58.3120   29.9980   45.5370 C   0  0  0  0  0  0  0  0  0  0  0  0
   59.7020   29.9370   45.5710 C   0  0  0  0  0  0  0  0  0  0  0  0
   60.3310   28.7280   45.8510 C   0  0  0  0  0  0  0  0  0  0  0  0
   59.5490   27.6110   46.0920 C   0  0  0  0  0  0  0  0  0  0  0  0
   58.1720   27.6380   46.0660 C   0  0  0  0  0  0  0  0  0  0  0  0
   57.3350   26.4730   46.3140 C   0  0  0  0  0  0  0  0  0  0  0  0
   57.4660   25.8450   47.4020 O   0  0  0  0  0  0  0  0  0  0  0  0
   56.3650   25.9830   45.4030 N   0  0  0  0  0  0  0  0  0  0  0  0
   55.5340   24.8270   45.6460 C   0  0  0  0  0  0  0  0  0  0  0  0
   56.0450   23.7030   44.8450 C   0  0  0  0  0  0  0  0  0  0  0  0
   55.8510   23.6510   43.4710 C   0  0  0  0  0  0  0  0  0  0  0  0
   56.3230   22.6110   42.6930 C   0  0  0  0  0  0  0  0  0  0  0  0
   57.0050   21.6020   43.3170 C   0  0  0  0  0  0  0  0  0  0  0  0
   57.2000   21.6480   44.6740 C   0  0  0  0  0  0  0  0  0  0  0  0
   56.7330   22.6820   45.4630 C   0  0  0  0  0  0  0  0  0  0  0  0
   57.0010   22.6250   46.9070 C   0  0  0  0  0  0  0  0  0  0  0  0
   57.5820   28.8530   45.7850 C   0  0  0  0  0  0  0  0  0  0  0  0
   58.3550   32.3370   47.1920 N   0  0  0  0  0  0  0  0  0  0  0  0
   58.1590   31.4530   48.1530 N   0  0  0  0  0  0  0  0  0  0  0  0
   58.5080   31.9820   49.3470 C   0  0  0  0  0  0  0  0  0  0  0  0
   58.4610   31.3750   50.6730 C   0  0  0  0  0  0  0  0  0  0  0  0
   59.1520   31.7510   51.8220 C   0  0  0  0  0  0  0  0  0  0  0  0
   58.7670   30.8710   52.7970 C   0  0  0  0  0  0  0  0  0  0  0  0
   57.8520   29.9780   52.2250 C   0  0  0  0  0  0  0  0  0  0  0  0
   57.7240   30.3390   50.9730 O   0  0  0  0  0  0  0  0  0  0  0  0
   58.9370   33.2490   49.1080 N   0  0  0  0  0  0  0  0  0  0  0  0
   58.8400   33.4650   47.7720 C   0  0  0  0  0  0  0  0  0  0  0  0
   59.1450   34.5640   47.0460 N   0  0  0  0  0  0  0  0  0  0  0  0
   59.4985   36.5485   45.5042 H   0  0  0  0  0  0  0  0  0  0  0  0
   60.1341   35.4536   44.2299 H   0  0  0  0  0  0  0  0  0  0  0  0
   58.3994   35.9201   44.2299 H   0  0  0  0  0  0  0  0  0  0  0  0
   58.3113   33.3710   43.9831 H   0  0  0  0  0  0  0  0  0  0  0  0
   60.3000   30.8397   45.3776 H   0  0  0  0  0  0  0  0  0  0  0  0
   61.4286   28.6608   45.8804 H   0  0  0  0  0  0  0  0  0  0  0  0
   60.0507   26.6577   46.3146 H   0  0  0  0  0  0  0  0  0  0  0  0
   56.2740   26.5280   44.4960 H   0  0  0  0  0  0  0  0  0  0  0  0
   55.5664   24.5655   46.7140 H   0  0  0  0  0  0  0  0  0  0  0  0
   54.4938   25.0466   45.3637 H   0  0  0  0  0  0  0  0  0  0  0  0
   55.3005   24.4689   42.9832 H   0  0  0  0  0  0  0  0  0  0  0  0
   56.1557   22.5947   41.6059 H   0  0  0  0  0  0  0  0  0  0  0  0
   57.3958   20.7564   42.7320 H   0  0  0  0  0  0  0  0  0  0  0  0
   57.7517   20.8267   45.1547 H   0  0  0  0  0  0  0  0  0  0  0  0
   56.0712   22.8227   47.4606 H   0  0  0  0  0  0  0  0  0  0  0  0
   57.3793   21.6263   47.1706 H   0  0  0  0  0  0  0  0  0  0  0  0
   57.7530   23.3833   47.1706 H   0  0  0  0  0  0  0  0  0  0  0  0
   56.4839   28.9118   45.7574 H   0  0  0  0  0  0  0  0  0  0  0  0
   59.8621   32.5848   51.9250 H   0  0  0  0  0  0  0  0  0  0  0  0
   59.1135   30.8660   53.8410 H   0  0  0  0  0  0  0  0  0  0  0  0
   57.3433   29.1416   52.7267 H   0  0  0  0  0  0  0  0  0  0  0  0
   59.5160   35.4250   47.4930 H   0  0  0  0  0  0  0  0  0  0  0  0
  1  2  1  0
  2  3  2  0
  3  4  1  0
  4  5  2  0
  5  6  1  0
  6  7  2  0
  7  8  1  0
  8  9  2  0
  9 10  1  0
 10 11  1  0
 11 12  2  0
 11 13  1  0
 13 14  1  0
 14 15  1  0
 15 16  2  0
 16 17  1  0
 17 18  2  0
 18 19  1  0
 19 20  2  0
 20 21  1  0
 10 22  2  0
  4 23  1  0
 23 24  1  0
 24 25  2  0
 25 26  1  0
 26 27  2  0
 27 28  1  0
 28 29  2  0
 29 30  1  0
 25 31  1  0
 31 32  2  0
 32 33  1  0
 33  2  1  0
 22  6  1  0
 32 23  1  0
 20 15  1  0
 30 26  1  0
  1 34  1  0
  1 35  1  0
  1 36  1  0
  3 37  1  0
  7 38  1  0
  8 39  1  0
  9 40  1  0
 13 41  1  0
 14 42  1  0
 14 43  1  0
 16 44  1  0
 17 45  1  0
 18 46  1  0
 19 47  1  0
 21 48  1  0
 21 49  1  0
 21 50  1  0
 22 51  1  0
 27 52  1  0
 28 53  1  0
 29 54  1  0
 33 55  1  0
M  END
>  <smiles>  (49) 
Cc1cc(=Nc2cccc(C(=O)NCc3ccccc3C)c2)n2nc(-c3ccco3)nc2[nH]1

>  <score_type>  (49) 
oracle

>  <origin>  (49) 
adg

>  <m_score__min__energy>  (49) 
-9.8200000000000003

>  <m_primary>  (49) 
energy

$$$$
49:0
     RDKit          3D

 37 39  0  0  0  0  0  0  0  0999 V2000
   63.6740   33.0200   47.9590 C   0  0  0  0  0  0  0  0  0  0  0  0
   62.2460   33.0680   47.5010 C   0  0  0  0  0  0  0  0  0  0  0  0
   61.8830   33.8620   46.4030 C   0  0  0  0  0  0  0  0  0  0  0  0
   60.5530   33.9100   45.9790 C   0  0  0  0  0  0  0  0  0  0  0  0
   59.5710   33.1640   46.6440 C   0  0  0  0  0  0  0  0  0  0  0  0
   57.8820   33.3270   46.1710 S   0  0  0  0  0  0  0  0  0  0  0  0
   57.6890   34.5650   45.3380 O   0  0  0  0  0  0  0  0  0  0  0  0
   57.0440   33.4450   47.4120 O   0  0  0  0  0  0  0  0  0  0  0  0
   57.3720   31.9230   45.2720 N   0  0  0  0  0  0  0  0  0  0  0  0
   58.4870   31.0040   45.0210 C   0  0  0  0  0  0  0  0  0  0  0  0
   58.1050   29.5830   45.3480 C   0  0  0  0  0  0  0  0  0  0  0  0
   58.9090   28.8170   46.2060 C   0  0  0  0  0  0  0  0  0  0  0  0
   58.5020   27.5410   46.6040 C   0  0  0  0  0  0  0  0  0  0  0  0
   57.2860   27.0060   46.1460 C   0  0  0  0  0  0  0  0  0  0  0  0
   56.8180   25.6910   46.6300 C   0  0  0  0  0  0  0  0  0  0  0  0
   57.6130   24.7940   47.2550 N   0  0  0  0  0  0  0  0  0  0  0  0
   56.7320   23.8110   47.5110 C   0  0  0  0  0  0  0  0  0  0  0  0
   57.0340   22.7400   48.0990 O   0  0  0  0  0  0  0  0  0  0  0  0
   55.5300   24.0920   47.0830 O   0  0  0  0  0  0  0  0  0  0  0  0
   55.5400   25.2640   46.5250 N   0  0  0  0  0  0  0  0  0  0  0  0
   56.5060   27.7550   45.2480 C   0  0  0  0  0  0  0  0  0  0  0  0
   56.9120   29.0320   44.8490 C   0  0  0  0  0  0  0  0  0  0  0  0
   56.1220   29.7490   44.0100 F   0  0  0  0  0  0  0  0  0  0  0  0
   59.9420   32.3310   47.7120 C   0  0  0  0  0  0  0  0  0  0  0  0
   61.2720   32.2820   48.1360 C   0  0  0  0  0  0  0  0  0  0  0  0
   63.7066   33.0189   49.0585 H   0  0  0  0  0  0  0  0  0  0  0  0
   64.1510   32.1053   47.5771 H   0  0  0  0  0  0  0  0  0  0  0  0
   64.2113   33.9006   47.5771 H   0  0  0  0  0  0  0  0  0  0  0  0
   62.6484   34.4488   45.8741 H   0  0  0  0  0  0  0  0  0  0  0  0
   60.2752   34.5366   45.1187 H   0  0  0  0  0  0  0  0  0  0  0  0
   58.7701   31.0645   43.9598 H   0  0  0  0  0  0  0  0  0  0  0  0
   59.3305   31.2952   45.6642 H   0  0  0  0  0  0  0  0  0  0  0  0
   59.8652   29.2235   46.5673 H   0  0  0  0  0  0  0  0  0  0  0  0
   59.1379   26.9511   47.2806 H   0  0  0  0  0  0  0  0  0  0  0  0
   55.5688   27.3331   44.8561 H   0  0  0  0  0  0  0  0  0  0  0  0
   59.1828   31.7151   48.2163 H   0  0  0  0  0  0  0  0  0  0  0  0
   61.5571   31.6249   48.9708 H   0  0  0  0  0  0  0  0  0  0  0  0
  1  2  1  0
  2  3  2  0
  3  4  1  0
  4  5  2  0
  5  6  1  0
  6  7  2  0
  6  8  2  0
  6  9  1  0
  9 10  1  0
 10 11  1  0
 11 12  2  0
 12 13  1  0
 13 14  2  0
 14 15  1  0
 15 16  2  0
 16 17  1  0
 17 18  2  0
 17 19  1  0
 19 20  1  0
 14 21  1  0
 21 22  2  0
 22 23  1  0
  5 24  1  0
 24 25  2  0
 25  2  1  0
 22 11  1  0
 20 15  1  0
  1 26  1  0
  1 27  1  0
  1 28  1  0
  3 29  1  0
  4 30  1  0
 10 31  1  0
 10 32  1  0
 12 33  1  0
 13 34  1  0
 21 35  1  0
 24 36  1  0
 25 37  1  0
M  CHG  2   9  -1  20  -1
M  END
>  <UniqueID>  (50) 
45

>  <SMILES>  (50) 
Cc1ccc(S(=O)(=O)[N-]Cc2ccc(-c3nc(=O)o[n-]3)cc2F)cc1

>  <Energy>  (50) 
67.82297874615675

>  <Genealogy>  (50) 
Cc1ccc(S(=O)(=O)[N-]Cc2ccc(-c3nc(=O)o[n-]3)cc2F)cc1 (protonated)
Cc1ccc(S(=O)(=O)[N-]Cc2ccc(-c3nc(=O)o[n-]3)cc2F)cc1 (3D coordinates assigned)
Cc1ccc(S(=O)(=O)[N-]Cc2ccc(-c3nc(=O)o[n-]3)cc2F)cc1 (optimized conformer: 67.82297874615675 kcal/mol)

>  <smiles>  (50) 
Cc1ccc(S(=O)(=O)NCc2ccc(-c3nc(=O)o[nH]3)cc2F)cc1

>  <score_type>  (50) 
oracle

>  <origin>  (50) 
adg

>  <m_score__min__energy>  (50) 
-11.289999999999999

>  <m_primary>  (50) 
energy

$$$$
50:0
     RDKit          3D

 55 57  0  0  0  0  0  0  0  0999 V2000
   57.3460   32.3340   41.1290 C   0  0  0  0  0  0  0  0  0  0  0  0
   58.3740   32.3050   42.2570 C   0  0  0  0  0  0  0  0  0  0  0  0
   57.7300   32.0140   43.5390 N   0  0  0  0  0  0  0  0  0  0  0  0
   57.5900   32.8150   44.6210 C   0  0  0  0  0  0  0  0  0  0  0  0
   57.9120   34.2800   44.6810 C   0  0  0  0  0  0  0  0  0  0  0  0
   58.4120   34.6270   46.0100 N   0  0  0  0  0  0  0  0  0  0  0  0
   59.7220   35.1380   46.2940 C   0  0  0  0  0  0  0  0  0  0  0  0
   60.0200   36.2970   45.8970 O   0  0  0  0  0  0  0  0  0  0  0  0
   60.7160   34.3640   47.0640 C   0  0  0  0  0  0  0  0  0  0  0  0
   61.6220   33.5120   46.4110 C   0  0  0  0  0  0  0  0  0  0  0  0
   62.5810   32.8040   47.1410 C   0  0  0  0  0  0  0  0  0  0  0  0
   62.6320   32.9180   48.5450 C   0  0  0  0  0  0  0  0  0  0  0  0
   63.5860   32.2420   49.3190 O   0  0  0  0  0  0  0  0  0  0  0  0
   64.8910   32.7380   49.6000 C   0  0  0  0  0  0  0  0  0  0  0  0
   61.6980   33.7330   49.1970 C   0  0  0  0  0  0  0  0  0  0  0  0
   60.7420   34.4450   48.4650 C   0  0  0  0  0  0  0  0  0  0  0  0
   57.0130   32.1590   45.6450 N   0  0  0  0  0  0  0  0  0  0  0  0
   56.7770   30.9230   45.2330 N   0  0  0  0  0  0  0  0  0  0  0  0
   57.2120   30.8410   43.9630 C   0  0  0  0  0  0  0  0  0  0  0  0
   56.9300   29.3870   42.9380 S   0  0  0  0  0  0  0  0  0  0  0  0
   57.7490   28.1650   44.0250 C   0  0  0  0  0  0  0  0  0  0  0  0
   59.0560   28.6500   44.5780 C   0  0  0  0  0  0  0  0  0  0  0  0
   60.1390   28.1950   44.1190 O   0  0  0  0  0  0  0  0  0  0  0  0
   59.0670   29.6760   45.5790 N   0  0  0  0  0  0  0  0  0  0  0  0
   60.2530   29.9950   46.3690 C   0  0  0  0  0  0  0  0  0  0  0  0
   59.8430   30.4990   47.7250 C   0  0  0  0  0  0  0  0  0  0  0  0
   60.3320   29.8930   48.8930 C   0  0  0  0  0  0  0  0  0  0  0  0
   59.9450   30.3720   50.1500 C   0  0  0  0  0  0  0  0  0  0  0  0
   59.0580   31.4470   50.2460 C   0  0  0  0  0  0  0  0  0  0  0  0
   58.5470   32.0390   49.0880 C   0  0  0  0  0  0  0  0  0  0  0  0
   58.9350   31.5680   47.8300 C   0  0  0  0  0  0  0  0  0  0  0  0
   56.3330   32.3626   41.5568 H   0  0  0  0  0  0  0  0  0  0  0  0
   57.5074   33.2279   40.5087 H   0  0  0  0  0  0  0  0  0  0  0  0
   57.4568   31.4324   40.5087 H   0  0  0  0  0  0  0  0  0  0  0  0
   59.1215   31.5267   42.0439 H   0  0  0  0  0  0  0  0  0  0  0  0
   58.8563   33.2916   42.3203 H   0  0  0  0  0  0  0  0  0  0  0  0
   58.6802   34.5154   43.9297 H   0  0  0  0  0  0  0  0  0  0  0  0
   56.9998   34.8593   44.4753 H   0  0  0  0  0  0  0  0  0  0  0  0
   61.5765   33.4012   45.3175 H   0  0  0  0  0  0  0  0  0  0  0  0
   63.2988   32.1552   46.6177 H   0  0  0  0  0  0  0  0  0  0  0  0
   65.0357   32.7930   50.6890 H   0  0  0  0  0  0  0  0  0  0  0  0
   65.6417   32.0625   49.1640 H   0  0  0  0  0  0  0  0  0  0  0  0
   65.0036   33.7416   49.1640 H   0  0  0  0  0  0  0  0  0  0  0  0
   61.7164   33.8139   50.2939 H   0  0  0  0  0  0  0  0  0  0  0  0
   60.0065   35.0719   48.9903 H   0  0  0  0  0  0  0  0  0  0  0  0
   57.0763   27.9380   44.8652 H   0  0  0  0  0  0  0  0  0  0  0  0
   57.9619   27.2749   43.4147 H   0  0  0  0  0  0  0  0  0  0  0  0
   58.1590   30.1150   45.8560 H   0  0  0  0  0  0  0  0  0  0  0  0
   60.8675   29.0902   46.4864 H   0  0  0  0  0  0  0  0  0  0  0  0
   60.8337   30.7738   45.8530 H   0  0  0  0  0  0  0  0  0  0  0  0
   61.0215   29.0390   48.8202 H   0  0  0  0  0  0  0  0  0  0  0  0
   60.3395   29.9017   51.0628 H   0  0  0  0  0  0  0  0  0  0  0  0
   58.7615   31.8279   51.2344 H   0  0  0  0  0  0  0  0  0  0  0  0
   57.8385   32.8768   49.1662 H   0  0  0  0  0  0  0  0  0  0  0  0
   58.5292   32.0346   46.9203 H   0  0  0  0  0  0  0  0  0  0  0  0
  1  2  1  0
  2  3  1  0
  3  4  1  0
  4  5  1  0
  5  6  1  0
  6  7  1  0
  7  8  2  0
  7  9  1  0
  9 10  2  0
 10 11  1  0
 11 12  2  0
 12 13  1  0
 13 14  1  0
 12 15  1  0
 15 16  2  0
  4 17  2  0
 17 18  1  0
 18 19  2  0
 19 20  1  0
 20 21  1  0
 21 22  1  0
 22 23  2  0
 22 24  1  0
 24 25  1  0
 25 26  1  0
 26 27  2  0
 27 28  1  0
 28 29  2  0
 29 30  1  0
 30 31  2  0
 19  3  1  0
 31 26  1  0
 16  9  1  0
  1 32  1  0
  1 33  1  0
  1 34  1  0
  2 35  1  0
  2 36  1  0
  5 37  1  0
  5 38  1  0
 10 39  1  0
 11 40  1  0
 14 41  1  0
 14 42  1  0
 14 43  1  0
 15 44  1  0
 16 45  1  0
 21 46  1  0
 21 47  1  0
 24 48  1  0
 25 49  1  0
 25 50  1  0
 27 51  1  0
 28 52  1  0
 29 53  1  0
 30 54  1  0
 31 55  1  0
M  CHG  1   6  -1
M  END
>  <UniqueID>  (51) 
46

>  <SMILES>  (51) 
CCn1c(C[N-]C(=O)c2ccc(OC)cc2)nnc1SCC(=O)NCc1ccccc1

>  <Energy>  (51) 
81.76641571616592

>  <Genealogy>  (51) 
CCn1c(C[N-]C(=O)c2ccc(OC)cc2)nnc1SCC(=O)NCc1ccccc1 (protonated)
CCn1c(C[N-]C(=O)c2ccc(OC)cc2)nnc1SCC(=O)NCc1ccccc1 (3D coordinates assigned)
CCn1c(C[N-]C(=O)c2ccc(OC)cc2)nnc1SCC(=O)NCc1ccccc1 (optimized conformer: 81.76641571616592 kcal/mol)

>  <smiles>  (51) 
CCn1c(CNC(=O)c2ccc(OC)cc2)nnc1SCC(=O)NCc1ccccc1

>  <score_type>  (51) 
oracle

>  <origin>  (51) 
adg

>  <m_score__min__energy>  (51) 
-11.32

>  <m_primary>  (51) 
energy

$$$$
51:0
     RDKit          3D

 41 43  0  0  0  0  0  0  0  0999 V2000
   51.4240   29.8730   48.4550 C   0  0  0  0  0  0  0  0  0  0  0  0
   51.7670   30.4850   49.7850 C   0  0  0  0  0  0  0  0  0  0  0  0
   52.6790   29.8490   50.6450 C   0  0  0  0  0  0  0  0  0  0  0  0
   52.9890   30.4040   51.8980 C   0  0  0  0  0  0  0  0  0  0  0  0
   53.9690   29.7300   52.7850 C   0  0  0  0  0  0  0  0  0  0  0  0
   53.6020   28.7110   53.4320 O   0  0  0  0  0  0  0  0  0  0  0  0
   55.3630   30.2110   52.9390 C   0  0  0  0  0  0  0  0  0  0  0  0
   56.0910   30.6880   51.8360 C   0  0  0  0  0  0  0  0  0  0  0  0
   57.3990   31.1550   51.9960 C   0  0  0  0  0  0  0  0  0  0  0  0
   57.9990   31.1720   53.2630 C   0  0  0  0  0  0  0  0  0  0  0  0
   59.3500   31.6520   53.3970 N   0  0  0  0  0  0  0  0  0  0  0  0
   60.1290   32.1560   52.3020 C   0  0  0  0  0  0  0  0  0  0  0  0
   61.1510   31.3540   51.7740 C   0  0  0  0  0  0  0  0  0  0  0  0
   61.9450   31.8180   50.7240 C   0  0  0  0  0  0  0  0  0  0  0  0
   61.7190   33.0850   50.1830 C   0  0  0  0  0  0  0  0  0  0  0  0
   60.6860   33.8840   50.6820 C   0  0  0  0  0  0  0  0  0  0  0  0
   59.8740   33.4260   51.7310 C   0  0  0  0  0  0  0  0  0  0  0  0
   58.7810   34.2380   52.1770 N   0  0  0  0  0  0  0  0  0  0  0  0
   57.2710   30.6990   54.3700 C   0  0  0  0  0  0  0  0  0  0  0  0
   55.9630   30.2330   54.2100 C   0  0  0  0  0  0  0  0  0  0  0  0
   52.3930   31.6200   52.2730 C   0  0  0  0  0  0  0  0  0  0  0  0
   51.4830   32.2520   51.4240 C   0  0  0  0  0  0  0  0  0  0  0  0
   51.1650   31.6900   50.1860 C   0  0  0  0  0  0  0  0  0  0  0  0
   50.2510   32.3340   49.3580 O   0  0  0  0  0  0  0  0  0  0  0  0
   50.8919   28.9236   48.6146 H   0  0  0  0  0  0  0  0  0  0  0  0
   50.7811   30.5630   47.8888 H   0  0  0  0  0  0  0  0  0  0  0  0
   52.3481   29.6848   47.8888 H   0  0  0  0  0  0  0  0  0  0  0  0
   53.1548   28.9073   50.3339 H   0  0  0  0  0  0  0  0  0  0  0  0
   55.6279   30.6941   50.8382 H   0  0  0  0  0  0  0  0  0  0  0  0
   57.9618   31.5119   51.1209 H   0  0  0  0  0  0  0  0  0  0  0  0
   59.7410   31.7680   54.3580 H   0  0  0  0  0  0  0  0  0  0  0  0
   61.3283   30.3515   52.1905 H   0  0  0  0  0  0  0  0  0  0  0  0
   62.7497   31.1847   50.3223 H   0  0  0  0  0  0  0  0  0  0  0  0
   62.3537   33.4546   49.3641 H   0  0  0  0  0  0  0  0  0  0  0  0
   60.5083   34.8795   50.2490 H   0  0  0  0  0  0  0  0  0  0  0  0
   58.7150   35.2500   51.9350 H   0  0  0  0  0  0  0  0  0  0  0  0
   58.0520   33.8430   52.8120 H   0  0  0  0  0  0  0  0  0  0  0  0
   57.7341   30.6959   55.3678 H   0  0  0  0  0  0  0  0  0  0  0  0
   55.3985   29.8806   55.0859 H   0  0  0  0  0  0  0  0  0  0  0  0
   52.6451   32.0766   53.2415 H   0  0  0  0  0  0  0  0  0  0  0  0
   51.0138   33.1980   51.7319 H   0  0  0  0  0  0  0  0  0  0  0  0
  1  2  1  0
  2  3  2  0
  3  4  1  0
  4  5  1  0
  5  6  2  0
  5  7  1  0
  7  8  2  0
  8  9  1  0
  9 10  2  0
 10 11  1  0
 11 12  1  0
 12 13  2  0
 13 14  1  0
 14 15  2  0
 15 16  1  0
 16 17  2  0
 17 18  1  0
 10 19  1  0
 19 20  2  0
  4 21  2  0
 21 22  1  0
 22 23  2  0
 23 24  1  0
 23  2  1  0
 20  7  1  0
 17 12  1  0
  1 25  1  0
  1 26  1  0
  1 27  1  0
  3 28  1  0
  8 29  1  0
  9 30  1  0
 11 31  1  0
 13 32  1  0
 14 33  1  0
 15 34  1  0
 16 35  1  0
 18 36  1  0
 18 37  1  0
 19 38  1  0
 20 39  1  0
 21 40  1  0
 22 41  1  0
M  CHG  1  24  -1
M  END
>  <UniqueID>  (52) 
47

>  <SMILES>  (52) 
Cc1cc(C(=O)c2ccc(Nc3ccccc3N)cc2)ccc1[O-]

>  <Energy>  (52) 
56.88119773443026

>  <Genealogy>  (52) 
Cc1cc(C(=O)c2ccc(Nc3ccccc3N)cc2)ccc1[O-] (protonated)
Cc1cc(C(=O)c2ccc(Nc3ccccc3N)cc2)ccc1[O-] (3D coordinates assigned)
Cc1cc(C(=O)c2ccc(Nc3ccccc3N)cc2)ccc1[O-] (optimized conformer: 56.88119773443026 kcal/mol)

>  <smiles>  (52) 
Cc1cc(C(=O)c2ccc(Nc3ccccc3N)cc2)ccc1O

>  <score_type>  (52) 
oracle

>  <origin>  (52) 
adg

>  <m_score__min__energy>  (52) 
-10.44

>  <m_primary>  (52) 
energy

$$$$
52:0
     RDKit          3D

 45 47  0  0  0  0  0  0  0  0999 V2000
   62.1640   34.1680   46.4160 F   0  0  0  0  0  0  0  0  0  0  0  0
   60.9630   33.7370   46.8740 C   0  0  0  0  0  0  0  0  0  0  0  0
   60.8850   33.0480   48.0880 C   0  0  0  0  0  0  0  0  0  0  0  0
   59.6460   32.6070   48.5640 C   0  0  0  0  0  0  0  0  0  0  0  0
   58.4840   32.8540   47.8260 C   0  0  0  0  0  0  0  0  0  0  0  0
   58.5550   33.5420   46.6040 C   0  0  0  0  0  0  0  0  0  0  0  0
   57.2960   33.8260   45.8290 C   0  0  0  0  0  0  0  0  0  0  0  0
   57.2640   33.0530   44.6300 O   0  0  0  0  0  0  0  0  0  0  0  0
   57.3900   31.6600   44.6070 C   0  0  0  0  0  0  0  0  0  0  0  0
   58.6260   31.1020   44.6900 N   0  0  0  0  0  0  0  0  0  0  0  0
   58.7890   29.7540   44.6780 C   0  0  0  0  0  0  0  0  0  0  0  0
   57.6750   28.9140   44.5820 C   0  0  0  0  0  0  0  0  0  0  0  0
   57.8380   27.4170   44.5890 C   0  0  0  0  0  0  0  0  0  0  0  0
   57.6790   26.8830   45.9560 N   0  0  0  0  0  0  0  0  0  0  0  0
   56.3360   26.3770   46.3180 C   0  0  0  0  0  0  0  0  0  0  0  0
   55.8660   25.1200   45.5570 C   0  0  0  0  0  0  0  0  0  0  0  0
   56.3260   23.7510   46.0960 C   0  0  0  0  0  0  0  0  0  0  0  0
   57.7310   23.7220   46.7150 C   0  0  0  0  0  0  0  0  0  0  0  0
   58.7260   24.5850   45.9280 C   0  0  0  0  0  0  0  0  0  0  0  0
   58.7930   26.0350   46.4240 C   0  0  0  0  0  0  0  0  0  0  0  0
   56.4110   29.5080   44.4890 C   0  0  0  0  0  0  0  0  0  0  0  0
   56.2940   30.8590   44.5040 N   0  0  0  0  0  0  0  0  0  0  0  0
   59.8030   33.9850   46.1340 C   0  0  0  0  0  0  0  0  0  0  0  0
   61.7984   32.8527   48.6690 H   0  0  0  0  0  0  0  0  0  0  0  0
   59.5855   32.0655   49.5196 H   0  0  0  0  0  0  0  0  0  0  0  0
   57.5108   32.5080   48.2043 H   0  0  0  0  0  0  0  0  0  0  0  0
   56.4238   33.5701   46.4484 H   0  0  0  0  0  0  0  0  0  0  0  0
   57.2728   34.8937   45.5655 H   0  0  0  0  0  0  0  0  0  0  0  0
   59.7985   29.3222   44.7439 H   0  0  0  0  0  0  0  0  0  0  0  0
   57.0767   26.9675   43.9346 H   0  0  0  0  0  0  0  0  0  0  0  0
   58.8464   27.1686   44.2265 H   0  0  0  0  0  0  0  0  0  0  0  0
   56.3430   26.1388   47.3919 H   0  0  0  0  0  0  0  0  0  0  0  0
   55.6310   27.1750   46.0421 H   0  0  0  0  0  0  0  0  0  0  0  0
   54.7660   25.1237   45.5614 H   0  0  0  0  0  0  0  0  0  0  0  0
   56.3315   25.2021   44.5637 H   0  0  0  0  0  0  0  0  0  0  0  0
   55.6093   23.4323   46.8672 H   0  0  0  0  0  0  0  0  0  0  0  0
   56.3664   23.0815   45.2242 H   0  0  0  0  0  0  0  0  0  0  0  0
   57.6721   24.0998   47.7464 H   0  0  0  0  0  0  0  0  0  0  0  0
   58.0906   22.6827   46.6907 H   0  0  0  0  0  0  0  0  0  0  0  0
   59.7265   24.1373   46.0206 H   0  0  0  0  0  0  0  0  0  0  0  0
   58.3804   24.6124   44.8841 H   0  0  0  0  0  0  0  0  0  0  0  0
   58.7813   26.0250   47.5239 H   0  0  0  0  0  0  0  0  0  0  0  0
   59.7167   26.4688   46.0135 H   0  0  0  0  0  0  0  0  0  0  0  0
   55.5126   28.8790   44.4037 H   0  0  0  0  0  0  0  0  0  0  0  0
   59.8675   34.5290   45.1801 H   0  0  0  0  0  0  0  0  0  0  0  0
  1  2  1  0
  2  3  2  0
  3  4  1  0
  4  5  2  0
  5  6  1  0
  6  7  1  0
  7  8  1  0
  8  9  1  0
  9 10  2  0
 10 11  1  0
 11 12  2  0
 12 13  1  0
 13 14  1  0
 14 15  1  0
 15 16  1  0
 16 17  1  0
 17 18  1  0
 18 19  1  0
 19 20  1  0
 12 21  1  0
 21 22  2  0
  6 23  2  0
 23  2  1  0
 22  9  1  0
 20 14  1  0
  3 24  1  0
  4 25  1  0
  5 26  1  0
  7 27  1  0
  7 28  1  0
 11 29  1  0
 13 30  1  0
 13 31  1  0
 15 32  1  0
 15 33  1  0
 16 34  1  0
 16 35  1  0
 17 36  1  0
 17 37  1  0
 18 38  1  0
 18 39  1  0
 19 40  1  0
 19 41  1  0
 20 42  1  0
 20 43  1  0
 21 44  1  0
 23 45  1  0
M  END
>  <UniqueID>  (53) 
48

>  <SMILES>  (53) 
Fc1cccc(COc2ncc(CN3CCCCCC3)cn2)c1

>  <Energy>  (53) 
54.95742047302085

>  <Genealogy>  (53) 
Fc1cccc(COc2ncc(CN3CCCCCC3)cn2)c1 (3D coordinates assigned)
Fc1cccc(COc2ncc(CN3CCCCCC3)cn2)c1 (nonaromatic ring conformer: 54.95742047302085 kcal/mol)

>  <smiles>  (53) 
Fc1cccc(COc2ncc(CN3CCCCCC3)cn2)c1

>  <score_type>  (53) 
oracle

>  <origin>  (53) 
adg

>  <m_score__min__energy>  (53) 
-5.8700000000000001

>  <m_primary>  (53) 
energy

$$$$
53:0
     RDKit          3D

 40 44  0  0  0  0  0  0  0  0999 V2000
   56.1360   29.4480   45.1600 O   0  0  0  0  0  0  0  0  0  0  0  0
   57.3080   29.3170   45.6090 C   0  0  0  0  0  0  0  0  0  0  0  0
   57.7670   28.0140   46.0070 N   0  0  0  0  0  0  0  0  0  0  0  0
   57.2060   26.7860   45.5120 C   0  0  0  0  0  0  0  0  0  0  0  0
   57.8570   26.0340   44.4950 C   0  0  0  0  0  0  0  0  0  0  0  0
   57.3110   24.8220   44.0370 C   0  0  0  0  0  0  0  0  0  0  0  0
   56.1250   24.3850   44.6200 C   0  0  0  0  0  0  0  0  0  0  0  0
   55.4370   23.2670   44.3450 N   0  0  0  0  0  0  0  0  0  0  0  0
   54.3900   23.3450   45.2070 C   0  0  0  0  0  0  0  0  0  0  0  0
   54.3950   24.4490   46.0000 N   0  0  0  0  0  0  0  0  0  0  0  0
   55.5050   25.0870   45.6040 C   0  0  0  0  0  0  0  0  0  0  0  0
   56.0140   26.2900   46.0870 C   0  0  0  0  0  0  0  0  0  0  0  0
   58.1660   30.4750   45.7360 N   0  0  0  0  0  0  0  0  0  0  0  0
   57.6570   31.7820   45.2640 C   0  0  0  0  0  0  0  0  0  0  0  0
   58.4960   33.0090   45.6160 C   0  0  0  0  0  0  0  0  0  0  0  0
   58.6920   33.9790   44.6120 C   0  0  0  0  0  0  0  0  0  0  0  0
   59.2670   35.2140   44.9090 C   0  0  0  0  0  0  0  0  0  0  0  0
   59.6370   35.5180   46.2160 C   0  0  0  0  0  0  0  0  0  0  0  0
   59.4520   34.5780   47.2300 C   0  0  0  0  0  0  0  0  0  0  0  0
   58.8960   33.3190   46.9460 C   0  0  0  0  0  0  0  0  0  0  0  0
   58.8490   32.3350   47.9890 N   0  0  0  0  0  0  0  0  0  0  0  0
   58.6740   32.5840   49.2770 N   0  0  0  0  0  0  0  0  0  0  0  0
   58.7910   31.4640   49.9800 N   0  0  0  0  0  0  0  0  0  0  0  0
   59.0700   30.4710   49.1090 C   0  0  0  0  0  0  0  0  0  0  0  0
   59.1240   31.0340   47.8540 C   0  0  0  0  0  0  0  0  0  0  0  0
   59.3840   30.3750   46.5460 C   0  0  0  0  0  0  0  0  0  0  0  0
   58.4720   27.9500   46.7740 H   0  0  0  0  0  0  0  0  0  0  0  0
   58.7978   26.4048   44.0622 H   0  0  0  0  0  0  0  0  0  0  0  0
   57.8042   24.2391   43.2451 H   0  0  0  0  0  0  0  0  0  0  0  0
   53.6031   22.5781   45.2590 H   0  0  0  0  0  0  0  0  0  0  0  0
   55.5032   26.8381   46.8924 H   0  0  0  0  0  0  0  0  0  0  0  0
   57.5792   31.7339   44.1678 H   0  0  0  0  0  0  0  0  0  0  0  0
   56.6989   31.9260   45.7849 H   0  0  0  0  0  0  0  0  0  0  0  0
   58.3867   33.7582   43.5786 H   0  0  0  0  0  0  0  0  0  0  0  0
   59.4287   35.9504   44.1080 H   0  0  0  0  0  0  0  0  0  0  0  0
   60.0753   36.4996   46.4493 H   0  0  0  0  0  0  0  0  0  0  0  0
   59.7440   34.8246   48.2615 H   0  0  0  0  0  0  0  0  0  0  0  0
   59.2252   29.4104   49.3560 H   0  0  0  0  0  0  0  0  0  0  0  0
   60.2157   30.8799   46.0328 H   0  0  0  0  0  0  0  0  0  0  0  0
   59.6553   29.3199   46.6979 H   0  0  0  0  0  0  0  0  0  0  0  0
  1  2  2  0
  2  3  1  0
  3  4  1  0
  4  5  2  0
  5  6  1  0
  6  7  2  0
  7  8  1  0
  8  9  1  0
  9 10  2  0
 10 11  1  0
 11 12  2  0
  2 13  1  0
 13 14  1  0
 14 15  1  0
 15 16  2  0
 16 17  1  0
 17 18  2  0
 18 19  1  0
 19 20  2  0
 20 21  1  0
 21 22  1  0
 22 23  2  0
 23 24  1  0
 24 25  2  0
 25 26  1  0
 12  4  1  0
 26 13  1  0
 11  7  1  0
 20 15  1  0
 25 21  1  0
  3 27  1  0
  5 28  1  0
  6 29  1  0
  9 30  1  0
 12 31  1  0
 14 32  1  0
 14 33  1  0
 16 34  1  0
 17 35  1  0
 18 36  1  0
 19 37  1  0
 24 38  1  0
 26 39  1  0
 26 40  1  0
M  CHG  1   8  -1
M  END
>  <UniqueID>  (54) 
49

>  <SMILES>  (54) 
O=C(Nc1ccc2[n-]cnc2c1)N1Cc2ccccc2-n2nncc2C1

>  <Energy>  (54) 
133.45084211523798

>  <Genealogy>  (54) 
O=C(Nc1ccc2[n-]cnc2c1)N1Cc2ccccc2-n2nncc2C1 (protonated)
O=C(Nc1ccc2[n-]cnc2c1)N1Cc2ccccc2-n2nncc2C1 (3D coordinates assigned)
O=C(Nc1ccc2[n-]cnc2c1)N1Cc2ccccc2-n2nncc2C1 (nonaromatic ring conformer: 133.45084211523798 kcal/mol)

>  <smiles>  (54) 
O=C(Nc1ccc2[nH]cnc2c1)N1Cc2ccccc2-n2nncc2C1

>  <score_type>  (54) 
oracle

>  <origin>  (54) 
adg

>  <m_score__min__energy>  (54) 
-9.9100000000000001

>  <m_primary>  (54) 
energy

$$$$
54:0
     RDKit          3D

 48 51  0  0  1  0  0  0  0  0999 V2000
   54.8510   26.3210   45.9080 O   0  0  0  0  0  0  0  0  0  0  0  0
   56.0670   25.9930   45.7240 C   0  0  0  0  0  0  0  0  0  0  0  0
   57.0710   26.9550   46.2830 C   0  0  0  0  0  0  0  0  0  0  0  0
   57.2570   28.1060   45.3730 C   0  0  0  0  0  0  0  0  0  0  0  0
   57.9630   28.2610   44.2500 N   0  0  0  0  0  0  0  0  0  0  0  0
   57.8390   29.4670   43.7620 N   0  0  0  0  0  0  0  0  0  0  0  0
   57.0260   30.1380   44.5830 C   0  0  0  0  0  0  0  0  0  0  0  0
   56.6400   31.3220   44.4920 N   0  0  0  0  0  0  0  0  0  0  0  0
   57.5330   32.7360   44.3570 S   0  0  0  0  0  0  0  0  0  0  0  0
   58.0570   32.8810   42.9230 O   0  0  0  0  0  0  0  0  0  0  0  0
   56.6470   33.9640   44.5600 O   0  0  0  0  0  0  0  0  0  0  0  0
   58.8950   32.7940   45.4150 C   0  0  0  0  0  0  0  0  0  0  0  0
   59.3100   31.7110   46.1680 C   0  0  0  0  0  0  0  0  0  0  0  0
   60.3710   31.7940   47.0670 C   0  0  0  0  0  0  0  0  0  0  0  0
   61.0630   32.9720   47.2470 C   0  0  0  0  0  0  0  0  0  0  0  0
   62.1740   33.1170   48.1790 C   0  0  0  0  0  0  0  0  0  0  0  0
   61.9510   33.9490   49.2860 C   0  0  0  0  0  0  0  0  0  0  0  0
   62.9090   34.1690   50.2410 C   0  0  0  0  0  0  0  0  0  0  0  0
   64.1230   33.5380   50.0800 C   0  0  0  0  0  0  0  0  0  0  0  0
   64.3780   32.7130   49.0040 C   0  0  0  0  0  0  0  0  0  0  0  0
   63.3860   32.5000   48.0380 C   0  0  0  0  0  0  0  0  0  0  0  0
   60.6580   34.0730   46.4950 C   0  0  0  0  0  0  0  0  0  0  0  0
   59.6090   33.9850   45.6090 C   0  0  0  0  0  0  0  0  0  0  0  0
   56.6550   29.3020   45.5930 N   0  0  0  0  0  0  0  0  0  0  0  0
   56.4460   24.7750   45.0250 C   0  0  0  0  0  0  0  0  0  0  0  0
   55.6140   24.0900   44.1700 C   0  0  0  0  0  0  0  0  0  0  0  0
   56.0790   22.9300   43.5490 C   0  0  0  0  0  0  0  0  0  0  0  0
   57.3460   22.4440   43.7610 C   0  0  0  0  0  0  0  0  0  0  0  0
   58.1840   23.1280   44.6190 C   0  0  0  0  0  0  0  0  0  0  0  0
   57.7180   24.2770   45.2320 C   0  0  0  0  0  0  0  0  0  0  0  0
   56.7170   27.3198   47.2585 H   0  0  0  0  0  0  0  0  0  0  0  0
   58.0337   26.4349   46.3958 H   0  0  0  0  0  0  0  0  0  0  0  0
   58.2470   29.9030   42.9180 H   0  0  0  0  0  0  0  0  0  0  0  0
   58.7846   30.7514   46.0533 H   0  0  0  0  0  0  0  0  0  0  0  0
   60.6615   30.9033   47.6434 H   0  0  0  0  0  0  0  0  0  0  0  0
   60.9733   34.4420   49.3913 H   0  0  0  0  0  0  0  0  0  0  0  0
   62.7160   34.8244   51.1031 H   0  0  0  0  0  0  0  0  0  0  0  0
   64.9114   33.6964   50.8306 H   0  0  0  0  0  0  0  0  0  0  0  0
   65.3581   32.2235   48.9048 H   0  0  0  0  0  0  0  0  0  0  0  0
   63.5798   31.8442   47.1764 H   0  0  0  0  0  0  0  0  0  0  0  0
   61.1868   35.0304   46.6119 H   0  0  0  0  0  0  0  0  0  0  0  0
   59.3213   34.8778   45.0344 H   0  0  0  0  0  0  0  0  0  0  0  0
   56.0260   29.5440   46.3850 H   0  0  0  0  0  0  0  0  0  0  0  0
   54.5934   24.4526   43.9779 H   0  0  0  0  0  0  0  0  0  0  0  0
   55.4084   22.3867   42.8669 H   0  0  0  0  0  0  0  0  0  0  0  0
   57.6865   21.5275   43.2569 H   0  0  0  0  0  0  0  0  0  0  0  0
   59.2045   22.7655   44.8117 H   0  0  0  0  0  0  0  0  0  0  0  0
   58.3898   24.8182   45.9145 H   0  0  0  0  0  0  0  0  0  0  0  0
  1  2  2  0
  2  3  1  0
  3  4  1  0
  4  5  2  0
  5  6  1  0
  6  7  1  0
  7  8  2  0
  8  9  1  0
  9 10  2  0
  9 11  2  0
  9 12  1  0
 12 13  2  0
 13 14  1  0
 14 15  2  0
 15 16  1  0
 16 17  2  0
 17 18  1  0
 18 19  2  0
 19 20  1  0
 20 21  2  0
 15 22  1  0
 22 23  2  0
  7 24  1  0
  2 25  1  0
 25 26  2  0
 26 27  1  0
 27 28  2  0
 28 29  1  0
 29 30  2  0
 24  4  1  0
 30 25  1  0
 23 12  1  0
 21 16  1  0
  3 31  1  0
  3 32  1  0
  6 33  1  0
 13 34  1  0
 14 35  1  0
 17 36  1  0
 18 37  1  0
 19 38  1  0
 20 39  1  0
 21 40  1  0
 22 41  1  0
 23 42  1  0
 24 43  1  0
 26 44  1  0
 27 45  1  0
 28 46  1  0
 29 47  1  0
 30 48  1  0
M  END
>  <smiles>  (55) 
O=C(Cc1n[nH]c(=NS(=O)(=O)c2ccc(-c3ccccc3)cc2)[nH]1)c1ccccc1

>  <score_type>  (55) 
oracle

>  <origin>  (55) 
adg

>  <m_score__min__energy>  (55) 
-10.51

>  <m_primary>  (55) 
energy

$$$$
55:0
     RDKit          3D

 57 60  0  0  0  0  0  0  0  0999 V2000
   56.7500   24.4670   47.6110 C   0  0  0  0  0  0  0  0  0  0  0  0
   57.5580   25.2460   46.5650 C   0  0  0  0  0  0  0  0  0  0  0  0
   57.1830   24.7890   45.1490 C   0  0  0  0  0  0  0  0  0  0  0  0
   57.3700   26.7910   46.7360 C   0  0  0  0  0  0  0  0  0  0  0  0
   58.6970   27.3060   47.0640 N   0  0  0  0  0  0  0  0  0  0  0  0
   59.0450   28.6760   47.3390 C   0  0  0  0  0  0  0  0  0  0  0  0
   58.1840   29.4420   47.8500 O   0  0  0  0  0  0  0  0  0  0  0  0
   60.4060   29.2240   46.9710 C   0  0  1  0  0  0  0  0  0  0  0  0
   60.7130   28.9920   45.4780 C   0  0  0  0  0  0  0  0  0  0  0  0
   59.4630   28.6950   44.7010 C   0  0  0  0  0  0  0  0  0  0  0  0
   59.1120   27.4780   44.1240 C   0  0  0  0  0  0  0  0  0  0  0  0
   57.8820   27.5570   43.5680 N   0  0  0  0  0  0  0  0  0  0  0  0
   57.4500   28.8090   43.7970 C   0  0  0  0  0  0  0  0  0  0  0  0
   56.2240   29.3610   43.4270 C   0  0  0  0  0  0  0  0  0  0  0  0
   55.9690   30.6980   43.7870 C   0  0  0  0  0  0  0  0  0  0  0  0
   56.9340   31.4430   44.5030 C   0  0  0  0  0  0  0  0  0  0  0  0
   58.1620   30.8590   44.8640 C   0  0  0  0  0  0  0  0  0  0  0  0
   58.3860   29.5330   44.4900 C   0  0  0  0  0  0  0  0  0  0  0  0
   60.5420   30.6380   47.3570 N   0  0  0  0  0  0  0  0  0  0  0  0
   61.7680   31.3870   47.3720 C   0  0  0  0  0  0  0  0  0  0  0  0
   62.8400   30.8800   46.9430 O   0  0  0  0  0  0  0  0  0  0  0  0
   61.7590   32.6880   47.8790 O   0  0  0  0  0  0  0  0  0  0  0  0
   61.5390   33.8310   47.0600 C   0  0  0  0  0  0  0  0  0  0  0  0
   60.0940   33.8790   46.6580 C   0  0  0  0  0  0  0  0  0  0  0  0
   59.0960   33.4500   47.5480 C   0  0  0  0  0  0  0  0  0  0  0  0
   57.7480   33.5320   47.1850 C   0  0  0  0  0  0  0  0  0  0  0  0
   57.3870   34.0520   45.9390 C   0  0  0  0  0  0  0  0  0  0  0  0
   58.3740   34.4950   45.0550 C   0  0  0  0  0  0  0  0  0  0  0  0
   59.7240   34.4150   45.4150 C   0  0  0  0  0  0  0  0  0  0  0  0
   59.5820   26.2020   47.0670 C   0  0  0  0  0  0  0  0  0  0  0  0
   60.8150   26.2850   47.3050 O   0  0  0  0  0  0  0  0  0  0  0  0
   58.9480   25.0160   46.7790 O   0  0  0  0  0  0  0  0  0  0  0  0
   57.0659   24.7716   48.6197 H   0  0  0  0  0  0  0  0  0  0  0  0
   55.6790   24.6820   47.4816 H   0  0  0  0  0  0  0  0  0  0  0  0
   56.9258   23.3889   47.4816 H   0  0  0  0  0  0  0  0  0  0  0  0
   56.4863   23.9400   45.2102 H   0  0  0  0  0  0  0  0  0  0  0  0
   56.7026   25.6194   44.6109 H   0  0  0  0  0  0  0  0  0  0  0  0
   58.0912   24.4800   44.6109 H   0  0  0  0  0  0  0  0  0  0  0  0
   57.0023   27.2403   45.8017 H   0  0  0  0  0  0  0  0  0  0  0  0
   56.6323   27.0309   47.5160 H   0  0  0  0  0  0  0  0  0  0  0  0
   61.1613   28.6679   47.5457 H   0  0  0  0  0  0  0  0  0  0  0  0
   61.1848   29.8958   45.0650 H   0  0  0  0  0  0  0  0  0  0  0  0
   61.3867   28.1265   45.3937 H   0  0  0  0  0  0  0  0  0  0  0  0
   59.7457   26.5789   44.1208 H   0  0  0  0  0  0  0  0  0  0  0  0
   57.3690   26.7930   43.0750 H   0  0  0  0  0  0  0  0  0  0  0  0
   55.4801   28.7708   42.8717 H   0  0  0  0  0  0  0  0  0  0  0  0
   55.0130   31.1659   43.5095 H   0  0  0  0  0  0  0  0  0  0  0  0
   56.7232   32.4865   44.7798 H   0  0  0  0  0  0  0  0  0  0  0  0
   58.9200   31.4281   45.4221 H   0  0  0  0  0  0  0  0  0  0  0  0
   59.6840   31.1290   47.6960 H   0  0  0  0  0  0  0  0  0  0  0  0
   61.7950   34.7412   47.6221 H   0  0  0  0  0  0  0  0  0  0  0  0
   62.1708   33.7692   46.1616 H   0  0  0  0  0  0  0  0  0  0  0  0
   59.3753   33.0484   48.5332 H   0  0  0  0  0  0  0  0  0  0  0  0
   56.9701   33.1865   47.8817 H   0  0  0  0  0  0  0  0  0  0  0  0
   56.3262   34.1125   45.6544 H   0  0  0  0  0  0  0  0  0  0  0  0
   58.0898   34.9069   44.0754 H   0  0  0  0  0  0  0  0  0  0  0  0
   60.4982   34.7737   44.7208 H   0  0  0  0  0  0  0  0  0  0  0  0
  1  2  1  0
  2  3  1  0
  2  4  1  0
  4  5  1  0
  5  6  1  0
  6  7  2  0
  6  8  1  0
  8  9  1  0
  9 10  1  0
 10 11  2  0
 11 12  1  0
 12 13  1  0
 13 14  2  0
 14 15  1  0
 15 16  2  0
 16 17  1  0
 17 18  2  0
  8 19  1  0
 19 20  1  0
 20 21  2  0
 20 22  1  0
 22 23  1  0
 23 24  1  0
 24 25  2  0
 25 26  1  0
 26 27  2  0
 27 28  1  0
 28 29  2  0
  5 30  1  0
 30 31  2  0
 30 32  1  0
 32  2  1  0
 18 10  1  0
 29 24  1  0
 18 13  1  0
  1 33  1  0
  1 34  1  0
  1 35  1  0
  3 36  1  0
  3 37  1  0
  3 38  1  0
  4 39  1  0
  4 40  1  0
  8 41  1  1
  9 42  1  0
  9 43  1  0
 11 44  1  0
 12 45  1  0
 14 46  1  0
 15 47  1  0
 16 48  1  0
 17 49  1  0
 19 50  1  0
 23 51  1  0
 23 52  1  0
 25 53  1  0
 26 54  1  0
 27 55  1  0
 28 56  1  0
 29 57  1  0
M  END
>  <UniqueID>  (56) 
50

>  <SMILES>  (56) 
CC1(C)CN(C(=O)[C@@H](Cc2c[nH]c3ccccc23)NC(=O)OCc2ccccc2)C(=O)O1

>  <Energy>  (56) 
99.00980106843461

>  <Genealogy>  (56) 
CC1(C)CN(C(=O)[C@@H](Cc2c[nH]c3ccccc23)NC(=O)OCc2ccccc2)C(=O)O1 (chirality)
CC1(C)CN(C(=O)[C@@H](Cc2c[nH]c3ccccc23)NC(=O)OCc2ccccc2)C(=O)O1 (3D coordinates assigned)
CC1(C)CN(C(=O)[C@@H](Cc2c[nH]c3ccccc23)NC(=O)OCc2ccccc2)C(=O)O1 (nonaromatic ring conformer: 99.00980106843461 kcal/mol)

>  <smiles>  (56) 
CC1(C)CN(C(=O)C(Cc2c[nH]c3ccccc23)NC(=O)OCc2ccccc2)C(=O)O1

>  <score_type>  (56) 
oracle

>  <origin>  (56) 
adg

>  <m_score__min__energy>  (56) 
-9.2100000000000009

>  <m_primary>  (56) 
energy

$$$$
56:0
     RDKit          3D

 52 55  0  0  1  0  0  0  0  0999 V2000
   64.4770   33.0650   48.2060 N   0  0  0  0  0  0  0  0  0  0  0  0
   63.2290   33.4010   48.2450 C   0  0  0  0  0  0  0  0  0  0  0  0
   62.5200   33.4750   49.4440 C   0  0  0  0  0  0  0  0  0  0  0  0
   61.1910   33.8340   49.4760 C   0  0  0  0  0  0  0  0  0  0  0  0
   60.5530   34.1200   48.3350 N   0  0  0  0  0  0  0  0  0  0  0  0
   61.2260   34.0540   47.1580 C   0  0  0  0  0  0  0  0  0  0  0  0
   60.6870   34.3130   46.0250 N   0  0  0  0  0  0  0  0  0  0  0  0
   59.3290   34.8030   45.9460 C   0  0  0  0  0  0  0  0  0  0  0  0
   58.3920   33.6970   45.5790 C   0  0  0  0  0  0  0  0  0  0  0  0
   58.7180   32.3430   45.7150 C   0  0  0  0  0  0  0  0  0  0  0  0
   57.5740   31.6770   45.2630 C   0  0  0  0  0  0  0  0  0  0  0  0
   57.3580   30.2350   45.1850 C   0  0  0  0  0  0  0  0  0  0  0  0
   56.2360   29.7460   44.8990 O   0  0  0  0  0  0  0  0  0  0  0  0
   58.4350   29.3380   45.4360 N   0  0  0  0  0  0  0  0  0  0  0  0
   58.1660   27.9520   45.3450 C   0  0  0  0  0  0  0  0  0  0  0  0
   58.0410   27.1210   46.4330 C   0  0  0  0  0  0  0  0  0  0  0  0
   57.7780   25.7770   46.2690 C   0  0  0  0  0  0  0  0  0  0  0  0
   57.6260   25.2030   45.0000 C   0  0  0  0  0  0  0  0  0  0  0  0
   57.3860   23.7780   44.8960 C   0  0  0  0  0  0  0  0  0  0  0  0
   58.4890   23.0020   44.5170 C   0  0  0  0  0  0  0  0  0  0  0  0
   58.4000   21.6390   44.3500 C   0  0  0  0  0  0  0  0  0  0  0  0
   57.1700   21.0610   44.5720 C   0  0  0  0  0  0  0  0  0  0  0  0
   56.0870   21.8220   44.9450 C   0  0  0  0  0  0  0  0  0  0  0  0
   56.1570   23.2060   45.1210 C   0  0  0  0  0  0  0  0  0  0  0  0
   54.7520   24.0810   45.6260 S   0  0  0  0  0  0  0  0  0  0  0  0
   53.3470   23.8060   44.7160 N   0  0  0  0  0  0  0  0  0  0  0  0
   54.4840   23.7400   47.0860 O   0  0  0  0  0  0  0  0  0  0  0  0
   55.0850   25.5750   45.6390 O   0  0  0  0  0  0  0  0  0  0  0  0
   57.7580   26.0630   43.9390 C   0  0  0  0  0  0  0  0  0  0  0  0
   58.0220   27.4160   44.0800 C   0  0  0  0  0  0  0  0  0  0  0  0
   56.6670   32.6070   44.8980 N   0  0  0  0  0  0  0  0  0  0  0  0
   57.1780   33.7810   45.0950 O   0  0  0  0  0  0  0  0  0  0  0  0
   62.5400   33.6990   47.1310 N   0  0  0  0  0  0  0  0  0  0  0  0
   64.8150   32.4840   47.3930 H   0  0  0  0  0  0  0  0  0  0  0  0
   63.0353   33.2408   50.3872 H   0  0  0  0  0  0  0  0  0  0  0  0
   60.6559   33.8855   50.4357 H   0  0  0  0  0  0  0  0  0  0  0  0
   59.5510   34.3970   48.2990 H   0  0  0  0  0  0  0  0  0  0  0  0
   59.0361   35.2161   46.9225 H   0  0  0  0  0  0  0  0  0  0  0  0
   59.2775   35.5833   45.1724 H   0  0  0  0  0  0  0  0  0  0  0  0
   59.6548   31.9048   46.0897 H   0  0  0  0  0  0  0  0  0  0  0  0
   59.3870   29.7300   45.6780 H   0  0  0  0  0  0  0  0  0  0  0  0
   58.1521   27.5330   47.4468 H   0  0  0  0  0  0  0  0  0  0  0  0
   57.6850   25.1379   47.1595 H   0  0  0  0  0  0  0  0  0  0  0  0
   59.4563   23.4976   44.3476 H   0  0  0  0  0  0  0  0  0  0  0  0
   59.2721   21.0382   44.0526 H   0  0  0  0  0  0  0  0  0  0  0  0
   57.0520   19.9743   44.4491 H   0  0  0  0  0  0  0  0  0  0  0  0
   55.1232   21.3188   45.1121 H   0  0  0  0  0  0  0  0  0  0  0  0
   53.0660   24.6200   44.1180 H   0  0  0  0  0  0  0  0  0  0  0  0
   52.5490   23.4140   45.2630 H   0  0  0  0  0  0  0  0  0  0  0  0
   57.6484   25.6569   42.9226 H   0  0  0  0  0  0  0  0  0  0  0  0
   58.1161   28.0580   43.1918 H   0  0  0  0  0  0  0  0  0  0  0  0
   63.0500   33.6500   46.2120 H   0  0  0  0  0  0  0  0  0  0  0  0
  1  2  2  3
  2  3  1  0
  3  4  2  0
  4  5  1  0
  5  6  1  0
  6  7  2  0
  7  8  1  0
  8  9  1  0
  9 10  2  0
 10 11  1  0
 11 12  1  0
 12 13  2  0
 12 14  1  0
 14 15  1  0
 15 16  2  0
 16 17  1  0
 17 18  2  0
 18 19  1  0
 19 20  2  0
 20 21  1  0
 21 22  2  0
 22 23  1  0
 23 24  2  0
 24 25  1  0
 25 26  1  0
 25 27  2  0
 25 28  2  0
 18 29  1  0
 29 30  2  0
 11 31  2  0
 31 32  1  0
  6 33  1  0
 33  2  1  0
 32  9  1  0
 30 15  1  0
 24 19  1  0
  1 34  1  0
  3 35  1  0
  4 36  1  0
  5 37  1  0
  8 38  1  0
  8 39  1  0
 10 40  1  0
 14 41  1  0
 16 42  1  0
 17 43  1  0
 20 44  1  0
 21 45  1  0
 22 46  1  0
 23 47  1  0
 26 48  1  0
 26 49  1  0
 29 50  1  0
 30 51  1  0
 33 52  1  0
M  END
>  <smiles>  (57) 
N=c1cc[nH]c(=NCc2cc(C(=O)Nc3ccc(-c4ccccc4S(N)(=O)=O)cc3)no2)[nH]1

>  <score_type>  (57) 
oracle

>  <origin>  (57) 
adg

>  <m_score__min__energy>  (57) 
-10.26

>  <m_primary>  (57) 
energy

$$$$
57:0
     RDKit          3D

 36 37  0  0  0  0  0  0  0  0999 V2000
   56.6460   30.2490   54.1170 O   0  0  0  0  0  0  0  0  0  0  0  0
   56.1670   30.5000   52.9780 C   0  0  0  0  0  0  0  0  0  0  0  0
   56.9280   31.3670   52.0310 C   0  0  0  0  0  0  0  0  0  0  0  0
   57.9460   30.3140   50.9440 S   0  0  0  0  0  0  0  0  0  0  0  0
   59.3730   31.4510   50.8670 C   0  0  0  0  0  0  0  0  0  0  0  0
   59.1710   32.4780   49.7950 C   0  0  0  0  0  0  0  0  0  0  0  0
   59.2720   33.7010   50.0860 O   0  0  0  0  0  0  0  0  0  0  0  0
   58.7990   32.0670   48.4700 N   0  0  0  0  0  0  0  0  0  0  0  0
   58.7200   32.9560   47.3430 C   0  0  0  0  0  0  0  0  0  0  0  0
   57.7100   32.7670   46.3870 C   0  0  0  0  0  0  0  0  0  0  0  0
   57.6250   33.6040   45.2700 C   0  0  0  0  0  0  0  0  0  0  0  0
   58.5570   34.6290   45.0930 C   0  0  0  0  0  0  0  0  0  0  0  0
   59.5810   34.8120   46.0260 C   0  0  0  0  0  0  0  0  0  0  0  0
   59.6690   33.9770   47.1440 C   0  0  0  0  0  0  0  0  0  0  0  0
   54.8950   29.9720   52.5820 N   0  0  0  0  0  0  0  0  0  0  0  0
   53.6630   30.7000   52.4730 C   0  0  0  0  0  0  0  0  0  0  0  0
   52.7570   30.8010   53.5450 C   0  0  0  0  0  0  0  0  0  0  0  0
   51.5570   31.5010   53.3880 C   0  0  0  0  0  0  0  0  0  0  0  0
   51.2430   32.0910   52.1600 C   0  0  0  0  0  0  0  0  0  0  0  0
   50.0500   32.7870   52.0080 O   0  0  0  0  0  0  0  0  0  0  0  0
   52.1280   31.9740   51.0850 C   0  0  0  0  0  0  0  0  0  0  0  0
   53.3280   31.2740   51.2390 C   0  0  0  0  0  0  0  0  0  0  0  0
   56.2243   31.9534   51.4219 H   0  0  0  0  0  0  0  0  0  0  0  0
   57.5766   32.0526   52.5960 H   0  0  0  0  0  0  0  0  0  0  0  0
   59.4843   31.9578   51.8369 H   0  0  0  0  0  0  0  0  0  0  0  0
   60.2778   30.8698   50.6356 H   0  0  0  0  0  0  0  0  0  0  0  0
   58.4780   31.0810   48.3400 H   0  0  0  0  0  0  0  0  0  0  0  0
   56.9800   31.9546   46.5173 H   0  0  0  0  0  0  0  0  0  0  0  0
   56.8241   33.4551   44.5308 H   0  0  0  0  0  0  0  0  0  0  0  0
   58.4849   35.2926   44.2187 H   0  0  0  0  0  0  0  0  0  0  0  0
   60.3192   35.6144   45.8806 H   0  0  0  0  0  0  0  0  0  0  0  0
   60.4826   34.1182   47.8708 H   0  0  0  0  0  0  0  0  0  0  0  0
   52.9936   30.3278   54.5094 H   0  0  0  0  0  0  0  0  0  0  0  0
   50.8580   31.5878   54.2329 H   0  0  0  0  0  0  0  0  0  0  0  0
   51.8801   32.4332   50.1167 H   0  0  0  0  0  0  0  0  0  0  0  0
   54.0145   31.1729   50.3855 H   0  0  0  0  0  0  0  0  0  0  0  0
  1  2  2  0
  2  3  1  0
  3  4  1  0
  4  5  1  0
  5  6  1  0
  6  7  2  0
  6  8  1  0
  8  9  1  0
  9 10  2  0
 10 11  1  0
 11 12  2  0
 12 13  1  0
 13 14  2  0
  2 15  1  0
 15 16  1  0
 16 17  2  0
 17 18  1  0
 18 19  2  0
 19 20  1  0
 19 21  1  0
 21 22  2  0
 14  9  1  0
 22 16  1  0
  3 23  1  0
  3 24  1  0
  5 25  1  0
  5 26  1  0
  8 27  1  0
 10 28  1  0
 11 29  1  0
 12 30  1  0
 13 31  1  0
 14 32  1  0
 17 33  1  0
 18 34  1  0
 21 35  1  0
 22 36  1  0
M  CHG  2  15  -1  20  -1
M  END
>  <UniqueID>  (58) 
51

>  <SMILES>  (58) 
O=C(CSCC(=O)Nc1ccccc1)[N-]c1ccc([O-])cc1

>  <Energy>  (58) 
37.23269764795098

>  <Genealogy>  (58) 
O=C(CSCC(=O)Nc1ccccc1)[N-]c1ccc([O-])cc1 (protonated)
O=C(CSCC(=O)Nc1ccccc1)[N-]c1ccc([O-])cc1 (3D coordinates assigned)
O=C(CSCC(=O)Nc1ccccc1)[N-]c1ccc([O-])cc1 (optimized conformer: 37.23269764795098 kcal/mol)

>  <smiles>  (58) 
O=C(CSCC(=O)Nc1ccc(O)cc1)Nc1ccccc1

>  <score_type>  (58) 
oracle

>  <origin>  (58) 
adg

>  <m_score__min__energy>  (58) 
-12.19

>  <m_primary>  (58) 
energy

$$$$
58:0
     RDKit          3D

 47 48  0  0  0  0  0  0  0  0999 V2000
   57.8030   32.1100   42.4980 C   0  0  0  0  0  0  0  0  0  0  0  0
   58.5020   33.1380   43.3980 C   0  0  0  0  0  0  0  0  0  0  0  0
   58.1510   33.0490   44.9200 C   0  0  1  0  0  0  0  0  0  0  0  0
   56.9290   33.9430   45.2460 C   0  0  0  0  0  0  0  0  0  0  0  0
   57.8190   31.5890   45.2520 C   0  0  0  0  0  0  0  0  0  0  0  0
   56.6400   31.1710   45.0980 O   0  0  0  0  0  0  0  0  0  0  0  0
   58.7910   30.6510   45.7440 N   0  0  0  0  0  0  0  0  0  0  0  0
   59.2530   29.4270   45.1000 C   0  0  0  0  0  0  0  0  0  0  0  0
   58.5500   28.2530   45.7150 C   0  0  0  0  0  0  0  0  0  0  0  0
   59.2390   27.3940   46.5850 C   0  0  0  0  0  0  0  0  0  0  0  0
   58.5730   26.3250   47.1930 C   0  0  0  0  0  0  0  0  0  0  0  0
   57.2110   26.1100   46.9430 C   0  0  0  0  0  0  0  0  0  0  0  0
   56.5420   25.0450   47.5450 O   0  0  0  0  0  0  0  0  0  0  0  0
   56.5170   26.9730   46.0860 C   0  0  0  0  0  0  0  0  0  0  0  0
   55.1640   26.7710   45.8370 O   0  0  0  0  0  0  0  0  0  0  0  0
   57.1820   28.0430   45.4780 C   0  0  0  0  0  0  0  0  0  0  0  0
   59.2920   33.5090   45.8110 C   0  0  0  0  0  0  0  0  0  0  0  0
   60.4320   33.7590   45.3310 O   0  0  0  0  0  0  0  0  0  0  0  0
   59.0620   33.6800   47.2140 N   0  0  0  0  0  0  0  0  0  0  0  0
   60.0880   33.4410   48.2200 C   0  0  0  0  0  0  0  0  0  0  0  0
   60.0710   31.9920   48.6090 C   0  0  0  0  0  0  0  0  0  0  0  0
   60.9420   31.0830   47.9860 C   0  0  0  0  0  0  0  0  0  0  0  0
   60.9010   29.7260   48.3200 C   0  0  0  0  0  0  0  0  0  0  0  0
   59.9830   29.2660   49.2690 C   0  0  0  0  0  0  0  0  0  0  0  0
   59.9460   27.9490   49.5880 F   0  0  0  0  0  0  0  0  0  0  0  0
   59.1010   30.1620   49.8810 C   0  0  0  0  0  0  0  0  0  0  0  0
   58.2040   29.7160   50.7950 F   0  0  0  0  0  0  0  0  0  0  0  0
   59.1410   31.5210   49.5490 C   0  0  0  0  0  0  0  0  0  0  0  0
   57.2940   31.3615   43.1230 H   0  0  0  0  0  0  0  0  0  0  0  0
   57.0643   32.6209   41.8630 H   0  0  0  0  0  0  0  0  0  0  0  0
   58.5497   31.6108   41.8630 H   0  0  0  0  0  0  0  0  0  0  0  0
   59.5880   32.9986   43.2918 H   0  0  0  0  0  0  0  0  0  0  0  0
   58.1469   34.1238   43.0631 H   0  0  0  0  0  0  0  0  0  0  0  0
   56.8159   34.0258   46.3370 H   0  0  0  0  0  0  0  0  0  0  0  0
   57.0819   34.9440   44.8162 H   0  0  0  0  0  0  0  0  0  0  0  0
   56.0213   33.4942   44.8162 H   0  0  0  0  0  0  0  0  0  0  0  0
   59.0275   29.4691   44.0242 H   0  0  0  0  0  0  0  0  0  0  0  0
   60.3392   29.3227   45.2387 H   0  0  0  0  0  0  0  0  0  0  0  0
   60.3067   27.5621   46.7894 H   0  0  0  0  0  0  0  0  0  0  0  0
   59.1197   25.6513   47.8692 H   0  0  0  0  0  0  0  0  0  0  0  0
   55.5350   25.0500   47.6610 H   0  0  0  0  0  0  0  0  0  0  0  0
   56.6310   28.7227   44.8114 H   0  0  0  0  0  0  0  0  0  0  0  0
   61.0745   33.6995   47.8077 H   0  0  0  0  0  0  0  0  0  0  0  0
   59.8891   34.0631   49.1051 H   0  0  0  0  0  0  0  0  0  0  0  0
   61.6592   31.4402   47.2323 H   0  0  0  0  0  0  0  0  0  0  0  0
   61.5915   29.0197   47.8358 H   0  0  0  0  0  0  0  0  0  0  0  0
   58.4411   32.2226   50.0264 H   0  0  0  0  0  0  0  0  0  0  0  0
  1  2  1  0
  3  2  1  6
  3  4  1  0
  3  5  1  0
  5  6  2  0
  5  7  1  0
  7  8  1  0
  8  9  1  0
  9 10  2  0
 10 11  1  0
 11 12  2  0
 12 13  1  0
 12 14  1  0
 14 15  1  0
 14 16  2  0
  3 17  1  0
 17 18  2  0
 17 19  1  0
 19 20  1  0
 20 21  1  0
 21 22  2  0
 22 23  1  0
 23 24  2  0
 24 25  1  0
 24 26  1  0
 26 27  1  0
 26 28  2  0
 16  9  1  0
 28 21  1  0
  1 29  1  0
  1 30  1  0
  1 31  1  0
  2 32  1  0
  2 33  1  0
  4 34  1  0
  4 35  1  0
  4 36  1  0
  8 37  1  0
  8 38  1  0
 10 39  1  0
 11 40  1  0
 13 41  1  0
 16 42  1  0
 20 43  1  0
 20 44  1  0
 22 45  1  0
 23 46  1  0
 28 47  1  0
M  CHG  3   7  -1  15  -1  19  -1
M  END
>  <UniqueID>  (59) 
52

>  <SMILES>  (59) 
CC[C@@](C)(C(=O)[N-]Cc1ccc(O)c([O-])c1)C(=O)[N-]Cc1ccc(F)c(F)c1

>  <Energy>  (59) 
45.194645138910374

>  <Genealogy>  (59) 
CCC(C)(C(=O)[N-]Cc1ccc(O)c([O-])c1)C(=O)[N-]Cc1ccc(F)c(F)c1 (protonated)
CC[C@@](C)(C(=O)[N-]Cc1ccc(O)c([O-])c1)C(=O)[N-]Cc1ccc(F)c(F)c1 (chirality)
CC[C@@](C)(C(=O)[N-]Cc1ccc(O)c([O-])c1)C(=O)[N-]Cc1ccc(F)c(F)c1 (3D coordinates assigned)
CC[C@@](C)(C(=O)[N-]Cc1ccc(O)c([O-])c1)C(=O)[N-]Cc1ccc(F)c(F)c1 (optimized conformer: 45.194645138910374 kcal/mol)

>  <smiles>  (59) 
CCC(C)(C(=O)NCc1ccc(O)c(O)c1)C(=O)NCc1ccc(F)c(F)c1

>  <score_type>  (59) 
oracle

>  <origin>  (59) 
adg

>  <m_score__min__energy>  (59) 
-13.19

>  <m_primary>  (59) 
energy

$$$$
59:0
     RDKit          3D

 33 35  0  0  0  0  0  0  0  0999 V2000
   55.6800   29.7250   43.3720 C   0  0  0  0  0  0  0  0  0  0  0  0
   56.8180   30.2000   44.2280 C   0  0  0  0  0  0  0  0  0  0  0  0
   57.7270   29.2780   44.7650 C   0  0  0  0  0  0  0  0  0  0  0  0
   58.8070   29.7170   45.5310 C   0  0  0  0  0  0  0  0  0  0  0  0
   59.0000   31.0840   45.7580 C   0  0  0  0  0  0  0  0  0  0  0  0
   60.0550   31.4950   46.5060 N   0  0  0  0  0  0  0  0  0  0  0  0
   60.3030   32.8060   46.7670 C   0  0  0  0  0  0  0  0  0  0  0  0
   61.4840   33.1700   47.5920 C   0  0  0  0  0  0  0  0  0  0  0  0
   62.7740   32.7940   47.1720 C   0  0  0  0  0  0  0  0  0  0  0  0
   63.8950   33.1230   47.9410 C   0  0  0  0  0  0  0  0  0  0  0  0
   63.7410   33.8210   49.1410 C   0  0  0  0  0  0  0  0  0  0  0  0
   62.4660   34.1890   49.5750 C   0  0  0  0  0  0  0  0  0  0  0  0
   61.3420   33.8650   48.8090 C   0  0  0  0  0  0  0  0  0  0  0  0
   59.4490   33.7830   46.2290 C   0  0  0  0  0  0  0  0  0  0  0  0
   58.3420   33.4060   45.4510 C   0  0  0  0  0  0  0  0  0  0  0  0
   57.4440   34.4790   44.8890 C   0  0  0  0  0  0  0  0  0  0  0  0
   58.1060   32.0320   45.2090 C   0  0  0  0  0  0  0  0  0  0  0  0
   57.0180   31.5740   44.4360 C   0  0  0  0  0  0  0  0  0  0  0  0
   54.8563   29.3812   44.0149 H   0  0  0  0  0  0  0  0  0  0  0  0
   55.3289   30.5517   42.7369 H   0  0  0  0  0  0  0  0  0  0  0  0
   56.0209   28.8940   42.7369 H   0  0  0  0  0  0  0  0  0  0  0  0
   57.5879   28.2024   44.5814 H   0  0  0  0  0  0  0  0  0  0  0  0
   59.5093   28.9859   45.9580 H   0  0  0  0  0  0  0  0  0  0  0  0
   62.9013   32.2372   46.2319 H   0  0  0  0  0  0  0  0  0  0  0  0
   64.8995   32.8316   47.6002 H   0  0  0  0  0  0  0  0  0  0  0  0
   64.6237   34.0806   49.7438 H   0  0  0  0  0  0  0  0  0  0  0  0
   62.3454   34.7353   50.5221 H   0  0  0  0  0  0  0  0  0  0  0  0
   60.3402   34.1548   49.1590 H   0  0  0  0  0  0  0  0  0  0  0  0
   59.6481   34.8482   46.4179 H   0  0  0  0  0  0  0  0  0  0  0  0
   56.9775   35.0364   45.7147 H   0  0  0  0  0  0  0  0  0  0  0  0
   58.0384   35.1681   44.2712 H   0  0  0  0  0  0  0  0  0  0  0  0
   56.6609   34.0153   44.2712 H   0  0  0  0  0  0  0  0  0  0  0  0
   56.3205   32.2998   43.9925 H   0  0  0  0  0  0  0  0  0  0  0  0
  1  2  1  0
  2  3  2  0
  3  4  1  0
  4  5  2  0
  5  6  1  0
  6  7  2  0
  7  8  1  0
  8  9  2  0
  9 10  1  0
 10 11  2  0
 11 12  1  0
 12 13  2  0
  7 14  1  0
 14 15  2  0
 15 16  1  0
 15 17  1  0
 17 18  2  0
 18  2  1  0
 17  5  1  0
 13  8  1  0
  1 19  1  0
  1 20  1  0
  1 21  1  0
  3 22  1  0
  4 23  1  0
  9 24  1  0
 10 25  1  0
 11 26  1  0
 12 27  1  0
 13 28  1  0
 14 29  1  0
 16 30  1  0
 16 31  1  0
 16 32  1  0
 18 33  1  0
M  END
>  <UniqueID>  (60) 
53

>  <SMILES>  (60) 
Cc1ccc2nc(-c3ccccc3)cc(C)c2c1

>  <Energy>  (60) 
43.28905143209775

>  <Genealogy>  (60) 
Cc1ccc2nc(-c3ccccc3)cc(C)c2c1 (3D coordinates assigned)
Cc1ccc2nc(-c3ccccc3)cc(C)c2c1 (optimized conformer: 43.28905143209775 kcal/mol)

>  <smiles>  (60) 
Cc1ccc2nc(-c3ccccc3)cc(C)c2c1

>  <score_type>  (60) 
oracle

>  <origin>  (60) 
adg

>  <m_score__min__energy>  (60) 
-7.2999999999999998

>  <m_primary>  (60) 
energy

$$$$
60:0
     RDKit          3D

 50 52  0  0  0  0  0  0  0  0999 V2000
   58.2127   26.0302   46.2195 H   0  0  0  0  0  0  0  0  0  0  0  0
   58.0120   27.1110   46.1790 C   0  0  0  0  0  0  0  0  0  0  0  0
   56.9060   27.5720   45.5350 N   0  0  0  0  0  0  0  0  0  0  0  0
   56.6360   28.9020   45.4760 C   0  0  0  0  0  0  0  0  0  0  0  0
   55.5760   29.3440   44.8690 N   0  0  0  0  0  0  0  0  0  0  0  0
   55.5760   30.0150   43.5710 C   0  0  0  0  0  0  0  0  0  0  0  0
   55.8337   31.0750   43.7127 H   0  0  0  0  0  0  0  0  0  0  0  0
   54.5748   29.9214   43.1250 H   0  0  0  0  0  0  0  0  0  0  0  0
   56.5910   29.3750   42.6330 C   0  0  0  0  0  0  0  0  0  0  0  0
   57.3756   28.8803   43.2243 H   0  0  0  0  0  0  0  0  0  0  0  0
   56.0862   28.6315   41.9986 H   0  0  0  0  0  0  0  0  0  0  0  0
   57.0443   30.1510   41.9986 H   0  0  0  0  0  0  0  0  0  0  0  0
   57.4800   29.7830   46.0680 N   0  0  0  0  0  0  0  0  0  0  0  0
   58.6070   29.3810   46.7240 C   0  0  0  0  0  0  0  0  0  0  0  0
   59.4720   30.3760   47.3310 N   0  0  0  0  0  0  0  0  0  0  0  0
   58.8740   31.5780   47.9350 C   0  0  0  0  0  0  0  0  0  0  0  0
   57.8196   31.3771   48.1757 H   0  0  0  0  0  0  0  0  0  0  0  0
   59.4275   31.8317   48.8511 H   0  0  0  0  0  0  0  0  0  0  0  0
   58.9530   32.7380   46.9770 C   0  0  0  0  0  0  0  0  0  0  0  0
   59.2450   34.0320   47.4450 C   0  0  0  0  0  0  0  0  0  0  0  0
   59.4337   34.1984   48.5158 H   0  0  0  0  0  0  0  0  0  0  0  0
   59.2960   35.1070   46.5530 C   0  0  0  0  0  0  0  0  0  0  0  0
   59.5276   36.1169   46.9224 H   0  0  0  0  0  0  0  0  0  0  0  0
   59.0530   34.9000   45.1920 C   0  0  0  0  0  0  0  0  0  0  0  0
   59.0949   35.7504   44.4955 H   0  0  0  0  0  0  0  0  0  0  0  0
   58.7560   33.6170   44.7060 C   0  0  0  0  0  0  0  0  0  0  0  0
   58.5170   33.4610   43.3310 O   0  0  0  0  0  0  0  0  0  0  0  0
   58.0850   32.2500   42.7210 C   0  0  0  0  0  0  0  0  0  0  0  0
   57.8243   31.5193   43.5008 H   0  0  0  0  0  0  0  0  0  0  0  0
   57.2024   32.4491   42.0953 H   0  0  0  0  0  0  0  0  0  0  0  0
   58.8943   31.8456   42.0953 H   0  0  0  0  0  0  0  0  0  0  0  0
   58.7110   32.5340   45.6070 C   0  0  0  0  0  0  0  0  0  0  0  0
   58.4852   31.5233   45.2362 H   0  0  0  0  0  0  0  0  0  0  0  0
   60.9410   30.2410   47.3200 C   0  0  0  0  0  0  0  0  0  0  0  0
   61.1982   29.1749   47.2349 H   0  0  0  0  0  0  0  0  0  0  0  0
   61.3266   30.8152   46.4647 H   0  0  0  0  0  0  0  0  0  0  0  0
   61.5780   30.7990   48.5820 C   0  0  0  0  0  0  0  0  0  0  0  0
   61.3950   30.1420   49.8180 C   0  0  0  0  0  0  0  0  0  0  0  0
   60.8178   29.2065   49.8579 H   0  0  0  0  0  0  0  0  0  0  0  0
   61.9400   30.6690   50.9900 C   0  0  0  0  0  0  0  0  0  0  0  0
   61.8105   30.1359   51.9434 H   0  0  0  0  0  0  0  0  0  0  0  0
   62.6490   31.8710   50.9550 C   0  0  0  0  0  0  0  0  0  0  0  0
   63.0807   32.2802   51.8803 H   0  0  0  0  0  0  0  0  0  0  0  0
   62.8120   32.5560   49.7480 C   0  0  0  0  0  0  0  0  0  0  0  0
   63.3632   33.5078   49.7282 H   0  0  0  0  0  0  0  0  0  0  0  0
   62.2760   32.0350   48.5630 C   0  0  0  0  0  0  0  0  0  0  0  0
   62.4290   32.7980   47.3460 C   0  0  0  0  0  0  0  0  0  0  0  0
   62.5540   33.4140   46.3750 N   0  0  0  0  0  0  0  0  0  0  0  0
   58.8920   28.0050   46.7880 C   0  0  0  0  0  0  0  0  0  0  0  0
   59.7907   27.6416   47.3078 H   0  0  0  0  0  0  0  0  0  0  0  0
  1  2  1  0
  2  3  1  0
  3  4  1  0
  4  5  2  0
  5  6  1  0
  6  7  1  0
  6  8  1  0
  6  9  1  0
  9 10  1  0
  9 11  1  0
  9 12  1  0
  4 13  1  0
 13 14  2  0
 14 15  1  0
 15 16  1  0
 16 17  1  0
 16 18  1  0
 16 19  1  0
 19 20  2  0
 20 21  1  0
 20 22  1  0
 22 23  1  0
 22 24  2  0
 24 25  1  0
 24 26  1  0
 26 27  1  0
 27 28  1  0
 28 29  1  0
 28 30  1  0
 28 31  1  0
 26 32  2  0
 32 33  1  0
 15 34  1  0
 34 35  1  0
 34 36  1  0
 34 37  1  0
 37 38  2  0
 38 39  1  0
 38 40  1  0
 40 41  1  0
 40 42  2  0
 42 43  1  0
 42 44  1  0
 44 45  1  0
 44 46  2  0
 46 47  1  0
 47 48  3  0
 14 49  1  0
 49 50  1  0
 49  2  2  0
 32 19  1  0
 46 37  1  0
M  CHG  1   3  -1
M  END
>  <UniqueID>  (61) 
54

>  <SMILES>  (61) 
CC/N=c1/nc(N(Cc2cccc(OC)c2)Cc2ccccc2C#N)cc[n-]1

>  <Energy>  (61) 
50.25367077895771

>  <Genealogy>  (61) 
CCN=c1nc(N(Cc2cccc(OC)c2)Cc2ccccc2C#N)cc[n-]1 (protonated)
CC/N=c1/nc(N(Cc2cccc(OC)c2)Cc2ccccc2C#N)cc[n-]1 (cis-trans isomerization)
CC/N=c1/nc(N(Cc2cccc(OC)c2)Cc2ccccc2C#N)cc[n-]1 (3D coordinates assigned)
CC/N=c1/nc(N(Cc2cccc(OC)c2)Cc2ccccc2C#N)cc[n-]1 (optimized conformer: 50.25367077895771 kcal/mol)

>  <smiles>  (61) 
CCN=c1nc(N(Cc2cccc(OC)c2)Cc2ccccc2C#N)cc[nH]1

>  <score_type>  (61) 
oracle

>  <origin>  (61) 
adg

>  <m_score__min__energy>  (61) 
-9.3399999999999999

>  <m_primary>  (61) 
energy

$$$$
61:0
     RDKit          3D

 48 51  0  0  0  0  0  0  0  0999 V2000
   63.2090   31.5790   47.2440 N   0  0  0  0  0  0  0  0  0  0  0  0
   62.7430   33.2410   47.1550 S   0  0  0  0  0  0  0  0  0  0  0  0
   63.1460   33.9430   48.4230 O   0  0  0  0  0  0  0  0  0  0  0  0
   63.4370   33.9020   45.9970 O   0  0  0  0  0  0  0  0  0  0  0  0
   60.9990   33.3490   46.9400 C   0  0  0  0  0  0  0  0  0  0  0  0
   60.3180   34.5300   47.2590 C   0  0  0  0  0  0  0  0  0  0  0  0
   58.9340   34.6080   47.0960 C   0  0  0  0  0  0  0  0  0  0  0  0
   58.2190   33.5060   46.6190 C   0  0  0  0  0  0  0  0  0  0  0  0
   58.8850   32.3080   46.3000 C   0  0  0  0  0  0  0  0  0  0  0  0
   58.1280   31.1350   45.8010 C   0  0  0  0  0  0  0  0  0  0  0  0
   57.0680   31.3080   45.1390 O   0  0  0  0  0  0  0  0  0  0  0  0
   58.5720   29.8080   46.1140 N   0  0  0  0  0  0  0  0  0  0  0  0
   58.3080   28.6160   45.3590 C   0  0  0  0  0  0  0  0  0  0  0  0
   58.7980   28.4390   44.0530 C   0  0  0  0  0  0  0  0  0  0  0  0
   58.5350   27.2560   43.3580 C   0  0  0  0  0  0  0  0  0  0  0  0
   57.7980   26.2350   43.9650 C   0  0  0  0  0  0  0  0  0  0  0  0
   57.5380   25.0960   43.2880 N   0  0  0  0  0  0  0  0  0  0  0  0
   56.8260   24.0700   43.8280 C   0  0  0  0  0  0  0  0  0  0  0  0
   56.3780   24.1560   45.1410 N   0  0  0  0  0  0  0  0  0  0  0  0
   56.5990   25.3250   45.8430 C   0  0  0  0  0  0  0  0  0  0  0  0
   56.1400   25.4650   47.0130 O   0  0  0  0  0  0  0  0  0  0  0  0
   57.3260   26.3830   45.2730 C   0  0  0  0  0  0  0  0  0  0  0  0
   57.5900   27.5800   45.9700 C   0  0  0  0  0  0  0  0  0  0  0  0
   55.5560   23.1040   45.7990 C   0  0  0  0  0  0  0  0  0  0  0  0
   56.2490   21.7390   45.9040 C   0  0  0  0  0  0  0  0  0  0  0  0
   56.2260   20.9770   44.5750 C   0  0  0  0  0  0  0  0  0  0  0  0
   57.1970   21.5500   43.5370 C   0  0  0  0  0  0  0  0  0  0  0  0
   56.6750   22.8540   42.9340 C   0  0  0  0  0  0  0  0  0  0  0  0
   60.2810   32.2400   46.4680 C   0  0  0  0  0  0  0  0  0  0  0  0
   64.2400   31.5430   47.0800 H   0  0  0  0  0  0  0  0  0  0  0  0
   62.7580   31.0920   46.4360 H   0  0  0  0  0  0  0  0  0  0  0  0
   60.8753   35.3989   47.6392 H   0  0  0  0  0  0  0  0  0  0  0  0
   58.4044   35.5397   47.3438 H   0  0  0  0  0  0  0  0  0  0  0  0
   57.1286   33.5755   46.4921 H   0  0  0  0  0  0  0  0  0  0  0  0
   59.3902   29.2345   43.5771 H   0  0  0  0  0  0  0  0  0  0  0  0
   58.9085   27.1277   42.3313 H   0  0  0  0  0  0  0  0  0  0  0  0
   57.2291   27.7012   47.0020 H   0  0  0  0  0  0  0  0  0  0  0  0
   55.3088   23.4446   46.8153 H   0  0  0  0  0  0  0  0  0  0  0  0
   54.6653   22.9590   45.1700 H   0  0  0  0  0  0  0  0  0  0  0  0
   57.2954   21.8947   46.2055 H   0  0  0  0  0  0  0  0  0  0  0  0
   55.7043   21.1390   46.6479 H   0  0  0  0  0  0  0  0  0  0  0  0
   56.4980   19.9287   44.7677 H   0  0  0  0  0  0  0  0  0  0  0  0
   55.2110   21.0696   44.1612 H   0  0  0  0  0  0  0  0  0  0  0  0
   58.1646   21.7441   44.0229 H   0  0  0  0  0  0  0  0  0  0  0  0
   57.3040   20.8154   42.7252 H   0  0  0  0  0  0  0  0  0  0  0  0
   57.2250   23.0444   42.0006 H   0  0  0  0  0  0  0  0  0  0  0  0
   55.5950   22.7144   42.7787 H   0  0  0  0  0  0  0  0  0  0  0  0
   60.8140   31.3084   46.2269 H   0  0  0  0  0  0  0  0  0  0  0  0
  1  2  1  0
  2  3  2  0
  2  4  2  0
  2  5  1  0
  5  6  2  0
  6  7  1  0
  7  8  2  0
  8  9  1  0
  9 10  1  0
 10 11  2  0
 10 12  1  0
 12 13  1  0
 13 14  2  0
 14 15  1  0
 15 16  2  0
 16 17  1  0
 17 18  2  0
 18 19  1  0
 19 20  1  0
 20 21  2  0
 20 22  1  0
 22 23  2  0
 19 24  1  0
 24 25  1  0
 25 26  1  0
 26 27  1  0
 27 28  1  0
  9 29  2  0
 29  5  1  0
 23 13  1  0
 22 16  1  0
 28 18  1  0
  1 30  1  0
  1 31  1  0
  6 32  1  0
  7 33  1  0
  8 34  1  0
 14 35  1  0
 15 36  1  0
 23 37  1  0
 24 38  1  0
 24 39  1  0
 25 40  1  0
 25 41  1  0
 26 42  1  0
 26 43  1  0
 27 44  1  0
 27 45  1  0
 28 46  1  0
 28 47  1  0
 29 48  1  0
M  CHG  1  12  -1
M  END
>  <UniqueID>  (62) 
55

>  <SMILES>  (62) 
NS(=O)(=O)c1cccc(C(=O)[N-]c2ccc3nc4n(c(=O)c3c2)CCCCC4)c1

>  <Energy>  (62) 
70.69505116928619

>  <Genealogy>  (62) 
NS(=O)(=O)c1cccc(C(=O)[N-]c2ccc3nc4n(c(=O)c3c2)CCCCC4)c1 (protonated)
NS(=O)(=O)c1cccc(C(=O)[N-]c2ccc3nc4n(c(=O)c3c2)CCCCC4)c1 (3D coordinates assigned)
NS(=O)(=O)c1cccc(C(=O)[N-]c2ccc3nc4n(c(=O)c3c2)CCCCC4)c1 (nonaromatic ring conformer: 70.69505116928619 kcal/mol)

>  <smiles>  (62) 
NS(=O)(=O)c1cccc(C(=O)Nc2ccc3nc4n(c(=O)c3c2)CCCCC4)c1

>  <score_type>  (62) 
oracle

>  <origin>  (62) 
adg

>  <m_score__min__energy>  (62) 
-9.5199999999999996

>  <m_primary>  (62) 
energy

$$$$
62:0
     RDKit          3D

 62 65  0  0  0  0  0  0  0  0999 V2000
   60.4370   25.5299   45.5857 H   0  0  0  0  0  0  0  0  0  0  0  0
   59.6520   26.0870   46.1180 C   0  0  0  0  0  0  0  0  0  0  0  0
   59.9460   27.2090   46.7010 N   0  0  0  0  0  0  0  0  0  0  0  0
   59.1930   28.3860   46.5360 N   0  0  0  0  0  0  0  0  0  0  0  0
   58.8300   29.2330   47.5220 C   0  0  0  0  0  0  0  0  0  0  0  0
   59.2750   29.1240   48.9480 C   0  0  0  0  0  0  0  0  0  0  0  0
   60.3065   28.7434   48.9805 H   0  0  0  0  0  0  0  0  0  0  0  0
   58.6079   28.4334   49.4847 H   0  0  0  0  0  0  0  0  0  0  0  0
   59.2210   30.4770   49.6040 C   0  0  0  0  0  0  0  0  0  0  0  0
   60.2390   31.4150   49.3700 C   0  0  0  0  0  0  0  0  0  0  0  0
   61.0555   31.1743   48.6733 H   0  0  0  0  0  0  0  0  0  0  0  0
   60.2200   32.6530   50.0180 C   0  0  0  0  0  0  0  0  0  0  0  0
   61.0183   33.3840   49.8222 H   0  0  0  0  0  0  0  0  0  0  0  0
   59.1920   32.9700   50.9150 C   0  0  0  0  0  0  0  0  0  0  0  0
   59.2190   34.2240   51.5440 O   0  0  0  0  0  0  0  0  0  0  0  0
   58.5600   34.5230   52.7710 C   0  0  0  0  0  0  0  0  0  0  0  0
   59.2039   34.2309   53.6137 H   0  0  0  0  0  0  0  0  0  0  0  0
   58.3547   35.6024   52.8234 H   0  0  0  0  0  0  0  0  0  0  0  0
   57.6125   33.9666   52.8234 H   0  0  0  0  0  0  0  0  0  0  0  0
   58.1730   32.0270   51.1560 C   0  0  0  0  0  0  0  0  0  0  0  0
   57.3607   32.2652   51.8584 H   0  0  0  0  0  0  0  0  0  0  0  0
   58.1910   30.7910   50.5060 C   0  0  0  0  0  0  0  0  0  0  0  0
   57.3937   30.0589   50.7016 H   0  0  0  0  0  0  0  0  0  0  0  0
   58.1440   30.2790   47.0200 N   0  0  0  0  0  0  0  0  0  0  0  0
   57.7910   31.1110   47.5430 H   0  0  0  0  0  0  0  0  0  0  0  0
   58.0350   30.0880   45.7130 N   0  0  0  0  0  0  0  0  0  0  0  0
   57.4280   31.0440   44.7860 C   0  0  0  0  0  0  0  0  0  0  0  0
   57.5972   30.7048   43.7534 H   0  0  0  0  0  0  0  0  0  0  0  0
   56.3492   31.1048   44.9923 H   0  0  0  0  0  0  0  0  0  0  0  0
   58.0250   32.3830   44.9620 N   0  0  0  0  0  0  0  0  0  0  0  0
   57.0740   33.3200   45.6160 C   0  0  0  0  0  0  0  0  0  0  0  0
   57.1580   34.3029   45.1292 H   0  0  0  0  0  0  0  0  0  0  0  0
   56.0645   32.8966   45.5082 H   0  0  0  0  0  0  0  0  0  0  0  0
   57.3460   33.4910   47.1170 C   0  0  0  0  0  0  0  0  0  0  0  0
   56.6091   34.1906   47.5383 H   0  0  0  0  0  0  0  0  0  0  0  0
   57.2652   32.5066   47.6012 H   0  0  0  0  0  0  0  0  0  0  0  0
   58.7620   34.0430   47.3640 C   0  0  0  0  0  0  0  0  0  0  0  0
   58.7114   35.1414   47.3954 H   0  0  0  0  0  0  0  0  0  0  0  0
   59.1207   33.6260   48.3166 H   0  0  0  0  0  0  0  0  0  0  0  0
   59.7580   33.6270   46.2690 C   0  0  0  0  0  0  0  0  0  0  0  0
   59.7834   34.4048   45.4915 H   0  0  0  0  0  0  0  0  0  0  0  0
   60.7512   33.5065   46.7261 H   0  0  0  0  0  0  0  0  0  0  0  0
   59.3490   32.2950   45.6320 C   0  0  0  0  0  0  0  0  0  0  0  0
   60.1062   32.0101   44.8867 H   0  0  0  0  0  0  0  0  0  0  0  0
   59.2764   31.5433   46.4318 H   0  0  0  0  0  0  0  0  0  0  0  0
   58.6760   28.9360   45.4140 C   0  0  0  0  0  0  0  0  0  0  0  0
   58.7190   28.2590   43.9180 S   0  0  0  0  0  0  0  0  0  0  0  0
   58.2780   25.5490   46.1600 C   0  0  0  0  0  0  0  0  0  0  0  0
   58.0820   24.1690   46.3190 C   0  0  0  0  0  0  0  0  0  0  0  0
   58.9512   23.5000   46.4026 H   0  0  0  0  0  0  0  0  0  0  0  0
   56.7900   23.6380   46.3720 C   0  0  0  0  0  0  0  0  0  0  0  0
   56.6485   22.5543   46.4972 H   0  0  0  0  0  0  0  0  0  0  0  0
   55.6690   24.4830   46.2660 C   0  0  0  0  0  0  0  0  0  0  0  0
   54.3530   23.9940   46.3130 O   0  0  0  0  0  0  0  0  0  0  0  0
   53.4120   24.1130   45.2530 C   0  0  0  0  0  0  0  0  0  0  0  0
   52.4027   24.2406   45.6713 H   0  0  0  0  0  0  0  0  0  0  0  0
   53.6655   24.9862   44.6340 H   0  0  0  0  0  0  0  0  0  0  0  0
   53.4401   23.2041   44.6340 H   0  0  0  0  0  0  0  0  0  0  0  0
   55.8650   25.8620   46.1070 C   0  0  0  0  0  0  0  0  0  0  0  0
   54.7700   26.7120   46.0010 O   0  0  0  0  0  0  0  0  0  0  0  0
   57.1580   26.3920   46.0540 C   0  0  0  0  0  0  0  0  0  0  0  0
   57.2996   27.4756   45.9286 H   0  0  0  0  0  0  0  0  0  0  0  0
  1  2  1  0
  2  3  2  0
  3  4  1  0
  4  5  1  0
  5  6  1  0
  6  7  1  0
  6  8  1  0
  6  9  1  0
  9 10  2  0
 10 11  1  0
 10 12  1  0
 12 13  1  0
 12 14  2  0
 14 15  1  0
 15 16  1  0
 16 17  1  0
 16 18  1  0
 16 19  1  0
 14 20  1  0
 20 21  1  0
 20 22  2  0
 22 23  1  0
  5 24  2  0
 24 25  1  0
 24 26  1  0
 26 27  1  0
 27 28  1  0
 27 29  1  0
 27 30  1  0
 30 31  1  0
 31 32  1  0
 31 33  1  0
 31 34  1  0
 34 35  1  0
 34 36  1  0
 34 37  1  0
 37 38  1  0
 37 39  1  0
 37 40  1  0
 40 41  1  0
 40 42  1  0
 40 43  1  0
 43 44  1  0
 43 45  1  0
 26 46  1  0
 46 47  2  0
  2 48  1  0
 48 49  2  0
 49 50  1  0
 49 51  1  0
 51 52  1  0
 51 53  2  0
 53 54  1  0
 54 55  1  0
 55 56  1  0
 55 57  1  0
 55 58  1  0
 53 59  1  0
 59 60  1  0
 59 61  2  0
 61 62  1  0
 46  4  1  0
 61 48  1  0
 22  9  1  0
 43 30  1  0
M  CHG  2  24   1  60  -1
M  END
>  <UniqueID>  (63) 
56

>  <SMILES>  (63) 
COc1ccc(Cc2[nH+]n(CN3CCCCC3)c(=S)n2/N=C/c2ccc(OC)c([O-])c2)cc1

>  <Energy>  (63) 
110.69348908080835

>  <Genealogy>  (63) 
COc1ccc(Cc2[nH+]n(CN3CCCCC3)c(=S)n2N=Cc2ccc(OC)c([O-])c2)cc1 (protonated)
COc1ccc(Cc2[nH+]n(CN3CCCCC3)c(=S)n2/N=C/c2ccc(OC)c([O-])c2)cc1 (cis-trans isomerization)
COc1ccc(Cc2[nH+]n(CN3CCCCC3)c(=S)n2/N=C/c2ccc(OC)c([O-])c2)cc1 (3D coordinates assigned)
COc1ccc(Cc2[nH+]n(CN3CCCCC3)c(=S)n2/N=C/c2ccc(OC)c([O-])c2)cc1 (nonaromatic ring conformer: 110.69348908080835 kcal/mol)

>  <smiles>  (63) 
COc1ccc(Cc2nn(CN3CCCCC3)c(=S)n2N=Cc2ccc(OC)c(O)c2)cc1

>  <score_type>  (63) 
oracle

>  <origin>  (63) 
adg

>  <m_score__min__energy>  (63) 
-10.869999999999999

>  <m_primary>  (63) 
energy

$$$$
63:0
     RDKit          3D

 55 57  0  0  0  0  0  0  0  0999 V2000
   59.7710   28.6420   49.1950 C   0  0  0  0  0  0  0  0  0  0  0  0
   59.2350   29.7750   48.3640 C   0  0  0  0  0  0  0  0  0  0  0  0
   58.8540   31.0360   48.8140 C   0  0  0  0  0  0  0  0  0  0  0  0
   58.9370   31.5760   50.1390 N   0  0  0  0  0  0  0  0  0  0  0  0
   59.9700   31.2080   51.0580 C   0  0  0  0  0  0  0  0  0  0  0  0
   60.9820   30.5700   50.6570 O   0  0  0  0  0  0  0  0  0  0  0  0
   59.8640   31.5910   52.4290 N   0  0  0  0  0  0  0  0  0  0  0  0
   58.5450   32.5500   53.0040 S   0  0  0  0  0  0  0  0  0  0  0  0
   58.8360   33.0180   54.4020 O   0  0  0  0  0  0  0  0  0  0  0  0
   58.3710   33.7510   52.1160 O   0  0  0  0  0  0  0  0  0  0  0  0
   57.0790   31.5760   52.9560 C   0  0  0  0  0  0  0  0  0  0  0  0
   56.7850   30.6730   53.9870 C   0  0  0  0  0  0  0  0  0  0  0  0
   55.6580   29.8510   53.9030 C   0  0  0  0  0  0  0  0  0  0  0  0
   54.8110   29.9240   52.7850 C   0  0  0  0  0  0  0  0  0  0  0  0
   53.6330   28.9920   52.6620 C   0  0  0  0  0  0  0  0  0  0  0  0
   52.6070   29.5200   51.6560 C   0  0  0  0  0  0  0  0  0  0  0  0
   51.6050   30.3340   52.3400 N   0  0  0  0  0  0  0  0  0  0  0  0
   51.3470   31.8070   51.4570 S   0  0  0  0  0  0  0  0  0  0  0  0
   50.0530   32.7060   52.1660 N   0  0  0  0  0  0  0  0  0  0  0  0
   52.6000   32.6370   51.4690 O   0  0  0  0  0  0  0  0  0  0  0  0
   50.9950   31.4720   50.0340 O   0  0  0  0  0  0  0  0  0  0  0  0
   55.1100   30.8300   51.7540 C   0  0  0  0  0  0  0  0  0  0  0  0
   56.2370   31.6510   51.8420 C   0  0  0  0  0  0  0  0  0  0  0  0
   58.3690   31.6800   47.7020 C   0  0  0  0  0  0  0  0  0  0  0  0
   57.9270   32.8630   47.6710 O   0  0  0  0  0  0  0  0  0  0  0  0
   58.4830   30.8750   46.6260 N   0  0  0  0  0  0  0  0  0  0  0  0
   58.1530   31.2360   45.2730 C   0  0  0  0  0  0  0  0  0  0  0  0
   58.5120   32.4950   44.7660 C   0  0  0  0  0  0  0  0  0  0  0  0
   58.1660   32.8520   43.4560 C   0  0  0  0  0  0  0  0  0  0  0  0
   57.4590   31.9560   42.6500 C   0  0  0  0  0  0  0  0  0  0  0  0
   57.0930   30.7040   43.1520 C   0  0  0  0  0  0  0  0  0  0  0  0
   57.4340   30.3440   44.4610 C   0  0  0  0  0  0  0  0  0  0  0  0
   58.9970   29.7120   47.0270 N   0  0  0  0  0  0  0  0  0  0  0  0
   59.2870   28.5710   46.1530 C   0  0  0  0  0  0  0  0  0  0  0  0
   59.6566   28.8838   50.2620 H   0  0  0  0  0  0  0  0  0  0  0  0
   59.2123   27.7227   48.9654 H   0  0  0  0  0  0  0  0  0  0  0  0
   60.8361   28.4908   48.9654 H   0  0  0  0  0  0  0  0  0  0  0  0
   58.3230   32.3850   50.3870 H   0  0  0  0  0  0  0  0  0  0  0  0
   57.4440   30.6112   54.8656 H   0  0  0  0  0  0  0  0  0  0  0  0
   55.4334   29.1442   54.7154 H   0  0  0  0  0  0  0  0  0  0  0  0
   53.9893   28.0069   52.3265 H   0  0  0  0  0  0  0  0  0  0  0  0
   53.1467   28.9163   53.6457 H   0  0  0  0  0  0  0  0  0  0  0  0
   53.1204   30.1336   50.9010 H   0  0  0  0  0  0  0  0  0  0  0  0
   52.1081   28.6683   51.1705 H   0  0  0  0  0  0  0  0  0  0  0  0
   50.2550   33.7170   51.9980 H   0  0  0  0  0  0  0  0  0  0  0  0
   54.4539   30.8934   50.8734 H   0  0  0  0  0  0  0  0  0  0  0  0
   56.4630   32.3595   51.0315 H   0  0  0  0  0  0  0  0  0  0  0  0
   59.0666   33.2033   45.3991 H   0  0  0  0  0  0  0  0  0  0  0  0
   58.4512   33.8385   43.0618 H   0  0  0  0  0  0  0  0  0  0  0  0
   57.1905   32.2359   41.6206 H   0  0  0  0  0  0  0  0  0  0  0  0
   56.5356   29.9998   42.5169 H   0  0  0  0  0  0  0  0  0  0  0  0
   57.1381   29.3603   44.8544 H   0  0  0  0  0  0  0  0  0  0  0  0
   59.5118   27.6865   46.7671 H   0  0  0  0  0  0  0  0  0  0  0  0
   58.4129   28.3640   45.5181 H   0  0  0  0  0  0  0  0  0  0  0  0
   60.1539   28.8065   45.5181 H   0  0  0  0  0  0  0  0  0  0  0  0
  1  2  1  0
  2  3  2  0
  3  4  1  0
  4  5  1  0
  5  6  2  0
  5  7  1  0
  7  8  1  0
  8  9  2  0
  8 10  2  0
  8 11  1  0
 11 12  2  0
 12 13  1  0
 13 14  2  0
 14 15  1  0
 15 16  1  0
 16 17  1  0
 17 18  1  0
 18 19  1  0
 18 20  2  0
 18 21  2  0
 14 22  1  0
 22 23  2  0
  3 24  1  0
 24 25  2  0
 24 26  1  0
 26 27  1  0
 27 28  2  0
 28 29  1  0
 29 30  2  0
 30 31  1  0
 31 32  2  0
 26 33  1  0
 33 34  1  0
 33  2  1  0
 23 11  1  0
 32 27  1  0
  1 35  1  0
  1 36  1  0
  1 37  1  0
  4 38  1  0
 12 39  1  0
 13 40  1  0
 15 41  1  0
 15 42  1  0
 16 43  1  0
 16 44  1  0
 19 45  1  0
 22 46  1  0
 23 47  1  0
 28 48  1  0
 29 49  1  0
 30 50  1  0
 31 51  1  0
 32 52  1  0
 34 53  1  0
 34 54  1  0
 34 55  1  0
M  CHG  3   7  -1  17  -1  19  -1
M  END
>  <UniqueID>  (64) 
57

>  <SMILES>  (64) 
Cc1c(NC(=O)[N-]S(=O)(=O)c2ccc(CC[N-]S([NH-])(=O)=O)cc2)c(=O)n(-c2ccccc2)n1C

>  <Energy>  (64) 
94.66100065839545

>  <Genealogy>  (64) 
Cc1c(NC(=O)[N-]S(=O)(=O)c2ccc(CC[N-]S([NH-])(=O)=O)cc2)c(=O)n(-c2ccccc2)n1C (protonated)
Cc1c(NC(=O)[N-]S(=O)(=O)c2ccc(CC[N-]S([NH-])(=O)=O)cc2)c(=O)n(-c2ccccc2)n1C (3D coordinates assigned)
Cc1c(NC(=O)[N-]S(=O)(=O)c2ccc(CC[N-]S([NH-])(=O)=O)cc2)c(=O)n(-c2ccccc2)n1C (optimized conformer: 94.66100065839545 kcal/mol)

>  <smiles>  (64) 
Cc1c(NC(=O)NS(=O)(=O)c2ccc(CCNS(N)(=O)=O)cc2)c(=O)n(-c2ccccc2)n1C

>  <score_type>  (64) 
oracle

>  <origin>  (64) 
adg

>  <m_score__min__energy>  (64) 
-14.65

>  <m_primary>  (64) 
energy

$$$$
64:0
     RDKit          3D

 28 28  0  0  0  0  0  0  0  0999 V2000
   55.4740   30.0060   43.5380 C   0  0  0  0  0  0  0  0  0  0  0  0
   56.8960   29.9620   44.1390 C   0  0  0  0  0  0  0  0  0  0  0  0
   57.6520   28.7930   43.4810 C   0  0  0  0  0  0  0  0  0  0  0  0
   57.6460   31.2720   43.8020 C   0  0  0  0  0  0  0  0  0  0  0  0
   56.8780   29.7010   45.6030 N   0  0  0  0  0  0  0  0  0  0  0  0
   57.8620   28.7490   46.1530 C   0  0  0  0  0  0  0  0  0  0  0  0
   57.3260   27.3470   46.2530 C   0  0  0  0  0  0  0  0  0  0  0  0
   58.1380   26.3000   46.7160 C   0  0  0  0  0  0  0  0  0  0  0  0
   57.6090   25.0100   46.8010 C   0  0  0  0  0  0  0  0  0  0  0  0
   56.2820   24.7770   46.4360 C   0  0  0  0  0  0  0  0  0  0  0  0
   55.4990   25.8450   45.9910 C   0  0  0  0  0  0  0  0  0  0  0  0
   54.2990   25.6550   45.6620 O   0  0  0  0  0  0  0  0  0  0  0  0
   56.0320   27.0940   45.9130 N   0  0  0  0  0  0  0  0  0  0  0  0
   54.7330   30.0289   44.3507 H   0  0  0  0  0  0  0  0  0  0  0  0
   55.3659   30.9079   42.9176 H   0  0  0  0  0  0  0  0  0  0  0  0
   55.3103   29.1125   42.9176 H   0  0  0  0  0  0  0  0  0  0  0  0
   58.0727   28.1425   44.2620 H   0  0  0  0  0  0  0  0  0  0  0  0
   56.9575   28.2130   42.8555 H   0  0  0  0  0  0  0  0  0  0  0  0
   58.4659   29.1884   42.8555 H   0  0  0  0  0  0  0  0  0  0  0  0
   57.9361   31.7787   44.7343 H   0  0  0  0  0  0  0  0  0  0  0  0
   58.5471   31.0383   43.2160 H   0  0  0  0  0  0  0  0  0  0  0  0
   56.9882   31.9308   43.2160 H   0  0  0  0  0  0  0  0  0  0  0  0
   55.9140   29.4330   45.9160 H   0  0  0  0  0  0  0  0  0  0  0  0
   58.7464   28.7410   45.4990 H   0  0  0  0  0  0  0  0  0  0  0  0
   58.1099   29.0815   47.1718 H   0  0  0  0  0  0  0  0  0  0  0  0
   59.1805   26.4933   47.0090 H   0  0  0  0  0  0  0  0  0  0  0  0
   58.2371   24.1792   47.1550 H   0  0  0  0  0  0  0  0  0  0  0  0
   55.8576   23.7641   46.4980 H   0  0  0  0  0  0  0  0  0  0  0  0
  1  2  1  0
  2  3  1  0
  2  4  1  0
  2  5  1  0
  5  6  1  0
  6  7  1  0
  7  8  2  0
  8  9  1  0
  9 10  2  0
 10 11  1  0
 11 12  2  0
 11 13  1  0
 13  7  1  0
  1 14  1  0
  1 15  1  0
  1 16  1  0
  3 17  1  0
  3 18  1  0
  3 19  1  0
  4 20  1  0
  4 21  1  0
  4 22  1  0
  5 23  1  0
  6 24  1  0
  6 25  1  0
  8 26  1  0
  9 27  1  0
 10 28  1  0
M  CHG  1  13  -1
M  END
>  <UniqueID>  (65) 
58

>  <SMILES>  (65) 
CC(C)(C)NCc1cccc(=O)[n-]1

>  <Energy>  (65) 
28.31301434419714

>  <Genealogy>  (65) 
CC(C)(C)NCc1cccc(=O)[n-]1 (protonated)
CC(C)(C)NCc1cccc(=O)[n-]1 (3D coordinates assigned)
CC(C)(C)NCc1cccc(=O)[n-]1 (optimized conformer: 28.31301434419714 kcal/mol)

>  <smiles>  (65) 
CC(C)(C)NCc1cccc(=O)[nH]1

>  <score_type>  (65) 
oracle

>  <origin>  (65) 
adg

>  <m_score__min__energy>  (65) 
-8.0899999999999999

>  <m_primary>  (65) 
energy

$$$$
65:0
     RDKit          3D

 46 49  0  0  1  0  0  0  0  0999 V2000
   55.8390   23.8250   46.8870 C   0  0  0  0  0  0  0  0  0  0  0  0
   56.2000   25.2210   45.8440 S   0  0  0  0  0  0  0  0  0  0  0  0
   56.1630   24.8280   44.3870 O   0  0  0  0  0  0  0  0  0  0  0  0
   55.1300   26.2630   46.0800 O   0  0  0  0  0  0  0  0  0  0  0  0
   57.7730   25.8280   46.2740 N   0  0  0  0  0  0  0  0  0  0  0  0
   58.0550   27.1890   46.0160 C   0  0  0  0  0  0  0  0  0  0  0  0
   59.1720   27.8560   46.4130 C   0  0  0  0  0  0  0  0  0  0  0  0
   59.4170   29.1820   46.1500 C   0  0  0  0  0  0  0  0  0  0  0  0
   58.4720   29.9500   45.4180 C   0  0  0  0  0  0  0  0  0  0  0  0
   58.5610   31.2030   45.0950 N   0  0  0  0  0  0  0  0  0  0  0  0
   57.5830   31.7860   44.4040 C   0  0  0  0  0  0  0  0  0  0  0  0
   57.3990   32.9800   43.9590 N   0  0  0  0  0  0  0  0  0  0  0  0
   57.2370   34.0780   44.8810 C   0  0  0  0  0  0  0  0  0  0  0  0
   56.3150   34.9200   44.7700 O   0  0  0  0  0  0  0  0  0  0  0  0
   58.2020   34.1690   45.9630 C   0  0  0  0  0  0  0  0  0  0  0  0
   57.9570   33.4240   47.0980 C   0  0  0  0  0  0  0  0  0  0  0  0
   58.8080   33.4310   48.1860 C   0  0  0  0  0  0  0  0  0  0  0  0
   59.9450   34.2290   48.1020 C   0  0  0  0  0  0  0  0  0  0  0  0
   60.8040   34.2220   49.2240 N   0  0  0  0  0  0  0  0  0  0  0  0
   61.9990   33.7570   49.1010 C   0  0  0  0  0  0  0  0  0  0  0  0
   62.3420   33.0300   47.9710 C   0  0  0  0  0  0  0  0  0  0  0  0
   63.6090   32.5080   47.7870 C   0  0  0  0  0  0  0  0  0  0  0  0
   64.5160   32.7390   48.7690 N   0  0  0  0  0  0  0  0  0  0  0  0
   64.1710   33.4560   49.8800 C   0  0  0  0  0  0  0  0  0  0  0  0
   62.9300   33.9550   50.0380 N   0  0  0  0  0  0  0  0  0  0  0  0
   60.2250   34.9930   46.9770 C   0  0  0  0  0  0  0  0  0  0  0  0
   59.3380   34.9470   45.9180 C   0  0  0  0  0  0  0  0  0  0  0  0
   56.3360   30.4210   44.1440 S   0  0  0  0  0  0  0  0  0  0  0  0
   57.3640   29.2240   45.0450 C   0  0  0  0  0  0  0  0  0  0  0  0
   57.1140   27.9290   45.2970 C   0  0  0  0  0  0  0  0  0  0  0  0
   55.9168   24.1258   47.9422 H   0  0  0  0  0  0  0  0  0  0  0  0
   54.8190   23.4680   46.6817 H   0  0  0  0  0  0  0  0  0  0  0  0
   56.5581   23.0183   46.6817 H   0  0  0  0  0  0  0  0  0  0  0  0
   58.5010   25.2360   46.7060 H   0  0  0  0  0  0  0  0  0  0  0  0
   59.9291   27.2968   46.9822 H   0  0  0  0  0  0  0  0  0  0  0  0
   60.3464   29.6499   46.5068 H   0  0  0  0  0  0  0  0  0  0  0  0
   59.4120   31.8200   45.3630 H   0  0  0  0  0  0  0  0  0  0  0  0
   57.0509   32.8017   47.1380 H   0  0  0  0  0  0  0  0  0  0  0  0
   58.5956   32.8301   49.0826 H   0  0  0  0  0  0  0  0  0  0  0  0
   61.5805   32.8630   47.1950 H   0  0  0  0  0  0  0  0  0  0  0  0
   63.8694   31.9324   46.8865 H   0  0  0  0  0  0  0  0  0  0  0  0
   65.5010   32.3550   48.6670 H   0  0  0  0  0  0  0  0  0  0  0  0
   64.9239   33.6295   50.6630 H   0  0  0  0  0  0  0  0  0  0  0  0
   61.1288   35.6183   46.9298 H   0  0  0  0  0  0  0  0  0  0  0  0
   59.5439   35.5455   45.0184 H   0  0  0  0  0  0  0  0  0  0  0  0
   56.1843   27.4593   44.9433 H   0  0  0  0  0  0  0  0  0  0  0  0
  1  2  1  0
  2  3  2  0
  2  4  2  0
  2  5  1  0
  5  6  1  0
  6  7  2  0
  7  8  1  0
  8  9  2  0
  9 10  1  0
 10 11  1  0
 11 12  2  0
 12 13  1  0
 13 14  2  0
 13 15  1  0
 15 16  2  0
 16 17  1  0
 17 18  2  0
 18 19  1  0
 19 20  2  0
 20 21  1  0
 21 22  2  0
 22 23  1  0
 23 24  1  0
 24 25  2  0
 18 26  1  0
 26 27  2  0
 11 28  1  0
 28 29  1  0
 29 30  2  0
 30  6  1  0
 29  9  1  0
 27 15  1  0
 25 20  1  0
  1 31  1  0
  1 32  1  0
  1 33  1  0
  5 34  1  0
  7 35  1  0
  8 36  1  0
 10 37  1  0
 16 38  1  0
 17 39  1  0
 21 40  1  0
 22 41  1  0
 23 42  1  0
 24 43  1  0
 26 44  1  0
 27 45  1  0
 30 46  1  0
M  END
>  <smiles>  (66) 
CS(=O)(=O)Nc1ccc2[nH]c(=NC(=O)c3ccc(N=c4cc[nH]cn4)cc3)sc2c1

>  <score_type>  (66) 
oracle

>  <origin>  (66) 
adg

>  <m_score__min__energy>  (66) 
-9.8499999999999996

>  <m_primary>  (66) 
energy

$$$$
66:0
     RDKit          3D

 34 35  0  0  0  0  0  0  0  0999 V2000
   55.1200   24.8640   45.5120 C   0  0  0  0  0  0  0  0  0  0  0  0
   55.4690   26.0330   46.3070 N   0  0  0  0  0  0  0  0  0  0  0  0
   56.2560   27.1310   45.8310 C   0  0  0  0  0  0  0  0  0  0  0  0
   55.6780   28.0840   45.2440 O   0  0  0  0  0  0  0  0  0  0  0  0
   57.7220   27.1880   46.0250 C   0  0  0  0  0  0  0  0  0  0  0  0
   58.4750   26.0070   45.9430 C   0  0  0  0  0  0  0  0  0  0  0  0
   59.8610   26.0400   46.1040 C   0  0  0  0  0  0  0  0  0  0  0  0
   60.5800   24.8930   46.0250 F   0  0  0  0  0  0  0  0  0  0  0  0
   60.5070   27.2520   46.3510 C   0  0  0  0  0  0  0  0  0  0  0  0
   59.7740   28.4420   46.4230 C   0  0  0  0  0  0  0  0  0  0  0  0
   60.6310   29.9210   46.8350 Cl  0  0  0  0  0  0  0  0  0  0  0  0
   58.3760   28.4190   46.2320 C   0  0  0  0  0  0  0  0  0  0  0  0
   57.6020   29.6220   46.3110 N   0  0  0  0  0  0  0  0  0  0  0  0
   57.3550   30.6770   44.9590 S   0  0  0  0  0  0  0  0  0  0  0  0
   58.0100   30.0960   43.7380 O   0  0  0  0  0  0  0  0  0  0  0  0
   55.8840   30.8350   44.6890 O   0  0  0  0  0  0  0  0  0  0  0  0
   58.0470   32.2510   45.3290 C   0  0  0  0  0  0  0  0  0  0  0  0
   58.1530   32.6790   46.6600 C   0  0  0  0  0  0  0  0  0  0  0  0
   58.6840   33.9380   46.9530 C   0  0  0  0  0  0  0  0  0  0  0  0
   59.1070   34.7850   45.9180 C   0  0  0  0  0  0  0  0  0  0  0  0
   59.6480   36.0730   46.2180 N   0  0  0  0  0  0  0  0  0  0  0  0
   58.9930   34.3590   44.5880 C   0  0  0  0  0  0  0  0  0  0  0  0
   58.4640   33.0990   44.2940 C   0  0  0  0  0  0  0  0  0  0  0  0
   54.8701   24.0271   46.1807 H   0  0  0  0  0  0  0  0  0  0  0  0
   54.2525   25.0978   44.8774 H   0  0  0  0  0  0  0  0  0  0  0  0
   55.9737   24.5840   44.8774 H   0  0  0  0  0  0  0  0  0  0  0  0
   57.9698   25.0490   45.7506 H   0  0  0  0  0  0  0  0  0  0  0  0
   61.5980   27.2722   46.4898 H   0  0  0  0  0  0  0  0  0  0  0  0
   57.8173   32.0219   47.4758 H   0  0  0  0  0  0  0  0  0  0  0  0
   58.7706   34.2661   47.9994 H   0  0  0  0  0  0  0  0  0  0  0  0
   60.2590   36.5700   45.5320 H   0  0  0  0  0  0  0  0  0  0  0  0
   59.4430   36.5410   47.1290 H   0  0  0  0  0  0  0  0  0  0  0  0
   59.3213   35.0191   43.7716 H   0  0  0  0  0  0  0  0  0  0  0  0
   58.3748   32.7721   43.2475 H   0  0  0  0  0  0  0  0  0  0  0  0
  1  2  1  0
  2  3  1  0
  3  4  2  0
  3  5  1  0
  5  6  2  0
  6  7  1  0
  7  8  1  0
  7  9  2  0
  9 10  1  0
 10 11  1  0
 10 12  2  0
 12 13  1  0
 13 14  1  0
 14 15  2  0
 14 16  2  0
 14 17  1  0
 17 18  2  0
 18 19  1  0
 19 20  2  0
 20 21  1  0
 20 22  1  0
 22 23  2  0
 12  5  1  0
 23 17  1  0
  1 24  1  0
  1 25  1  0
  1 26  1  0
  6 27  1  0
  9 28  1  0
 18 29  1  0
 19 30  1  0
 21 31  1  0
 21 32  1  0
 22 33  1  0
 23 34  1  0
M  CHG  2   2  -1  13  -1
M  END
>  <UniqueID>  (67) 
59

>  <SMILES>  (67) 
C[N-]C(=O)c1cc(F)cc(Cl)c1[N-]S(=O)(=O)c1ccc(N)cc1

>  <Energy>  (67) 
47.874587667517915

>  <Genealogy>  (67) 
C[N-]C(=O)c1cc(F)cc(Cl)c1[N-]S(=O)(=O)c1ccc(N)cc1 (protonated)
C[N-]C(=O)c1cc(F)cc(Cl)c1[N-]S(=O)(=O)c1ccc(N)cc1 (3D coordinates assigned)
C[N-]C(=O)c1cc(F)cc(Cl)c1[N-]S(=O)(=O)c1ccc(N)cc1 (optimized conformer: 47.874587667517915 kcal/mol)

>  <smiles>  (67) 
CNC(=O)c1cc(F)cc(Cl)c1NS(=O)(=O)c1ccc(N)cc1

>  <score_type>  (67) 
oracle

>  <origin>  (67) 
adg

>  <m_score__min__energy>  (67) 
-11.140000000000001

>  <m_primary>  (67) 
energy

$$$$
67:0
     RDKit          3D

 32 33  0  0  0  0  0  0  0  0999 V2000
   60.5410   32.2910   49.1320 C   0  0  0  0  0  0  0  0  0  0  0  0
   59.7940   32.4800   47.8520 C   0  0  0  0  0  0  0  0  0  0  0  0
   60.4060   32.3880   46.7530 O   0  0  0  0  0  0  0  0  0  0  0  0
   58.3940   32.7870   47.8790 N   0  0  0  0  0  0  0  0  0  0  0  0
   57.6270   33.0000   46.6480 C   0  0  1  0  0  0  0  0  0  0  0  0
   58.0710   34.2810   45.8560 C   0  0  1  0  0  0  0  0  0  0  0  0
   59.3040   34.7950   46.3010 O   0  0  0  0  0  0  0  0  0  0  0  0
   58.1320   33.9320   44.4090 N   0  0  0  0  0  0  0  0  0  0  0  0
   57.4460   32.6510   44.3900 C   0  0  1  0  0  0  0  0  0  0  0  0
   57.7400   31.5840   43.3700 C   0  0  2  0  0  0  0  0  0  0  0  0
   57.0200   31.7380   42.1680 O   0  0  0  0  0  0  0  0  0  0  0  0
   57.3410   30.3230   44.2190 C   0  0  2  0  0  0  0  0  0  0  0  0
   56.0190   29.6700   43.7880 C   0  0  0  0  0  0  0  0  0  0  0  0
   55.1470   29.5680   44.8830 O   0  0  0  0  0  0  0  0  0  0  0  0
   57.2440   30.7230   45.5920 O   0  0  0  0  0  0  0  0  0  0  0  0
   57.9130   31.9500   45.6040 C   0  0  2  0  0  0  0  0  0  0  0  0
   59.8630   32.4626   49.9810 H   0  0  0  0  0  0  0  0  0  0  0  0
   60.9347   31.2649   49.1787 H   0  0  0  0  0  0  0  0  0  0  0  0
   61.3753   33.0064   49.1787 H   0  0  0  0  0  0  0  0  0  0  0  0
   57.9310   32.9110   48.8090 H   0  0  0  0  0  0  0  0  0  0  0  0
   56.5918   33.0267   47.0191 H   0  0  0  0  0  0  0  0  0  0  0  0
   57.3335   35.0781   46.0315 H   0  0  0  0  0  0  0  0  0  0  0  0
   59.9860   34.0830   46.1850 H   0  0  0  0  0  0  0  0  0  0  0  0
   59.1260   33.7860   44.1110 H   0  0  0  0  0  0  0  0  0  0  0  0
   56.4065   32.9701   44.2241 H   0  0  0  0  0  0  0  0  0  0  0  0
   58.7680   31.5670   42.9790 H   0  0  0  0  0  0  0  0  0  0  0  0
   56.8880   32.7050   41.9890 H   0  0  0  0  0  0  0  0  0  0  0  0
   58.1211   29.5638   44.0604 H   0  0  0  0  0  0  0  0  0  0  0  0
   55.5490   30.2840   43.0057 H   0  0  0  0  0  0  0  0  0  0  0  0
   56.2272   28.6616   43.4009 H   0  0  0  0  0  0  0  0  0  0  0  0
   55.5620   30.0780   45.6270 H   0  0  0  0  0  0  0  0  0  0  0  0
   58.9580   31.6392   45.7504 H   0  0  0  0  0  0  0  0  0  0  0  0
  1  2  1  0
  2  3  2  0
  2  4  1  0
  4  5  1  0
  5  6  1  0
  6  7  1  0
  6  8  1  0
  8  9  1  0
  9 10  1  0
 10 11  1  0
 10 12  1  0
 12 13  1  0
 13 14  1  0
 12 15  1  0
 15 16  1  0
 16  5  1  0
 16  9  1  0
  1 17  1  0
  1 18  1  0
  1 19  1  0
  4 20  1  0
  5 21  1  1
  6 22  1  6
  7 23  1  0
  8 24  1  0
  9 25  1  1
 10 26  1  6
 11 27  1  0
 12 28  1  1
 13 29  1  0
 13 30  1  0
 14 31  1  0
 16 32  1  6
M  END
>  <UniqueID>  (68) 
60

>  <SMILES>  (68) 
CC(=O)N[C@@H]1C2OC(CO)C(O)C2N[C@@H]1O

>  <Energy>  (68) 
63.33814490088453

>  <Genealogy>  (68) 
CC(=O)N[C@@H]1C2OC(CO)C(O)C2N[C@@H]1O (chirality)
CC(=O)N[C@@H]1C2OC(CO)C(O)C2N[C@@H]1O (3D coordinates assigned)
CC(=O)N[C@@H]1C2OC(CO)C(O)C2N[C@@H]1O (nonaromatic ring conformer: 63.33814490088453 kcal/mol)

>  <smiles>  (68) 
CC(=O)NC1C(O)NC2C(O)C(CO)OC12

>  <score_type>  (68) 
oracle

>  <origin>  (68) 
adg

>  <m_score__min__energy>  (68) 
-5.9699999999999998

>  <m_primary>  (68) 
energy

$$$$
68:0
     RDKit          3D

 25 26  0  0  0  0  0  0  0  0999 V2000
   58.1910   32.4390   43.1830 O   0  0  0  0  0  0  0  0  0  0  0  0
   57.6700   32.3420   44.3270 C   0  0  0  0  0  0  0  0  0  0  0  0
   56.4690   31.5810   44.4970 N   0  0  0  0  0  0  0  0  0  0  0  0
   56.4100   29.8680   44.2530 S   0  0  0  0  0  0  0  0  0  0  0  0
   56.3880   29.5780   42.7790 O   0  0  0  0  0  0  0  0  0  0  0  0
   55.1610   29.3220   44.8840 O   0  0  0  0  0  0  0  0  0  0  0  0
   57.8250   29.1190   44.9670 C   0  0  0  0  0  0  0  0  0  0  0  0
   59.1280   29.2560   44.5090 C   0  0  0  0  0  0  0  0  0  0  0  0
   60.0540   28.5450   45.2810 C   0  0  0  0  0  0  0  0  0  0  0  0
   59.4710   27.8550   46.3340 C   0  0  0  0  0  0  0  0  0  0  0  0
   60.3930   26.7750   47.6060 Br  0  0  0  0  0  0  0  0  0  0  0  0
   57.8100   28.1210   46.3190 S   0  0  0  0  0  0  0  0  0  0  0  0
   58.2970   33.0140   45.4880 C   0  0  0  0  0  0  0  0  0  0  0  0
   58.9010   34.2780   45.3440 C   0  0  0  0  0  0  0  0  0  0  0  0
   59.4930   34.9090   46.4430 C   0  0  0  0  0  0  0  0  0  0  0  0
   59.4910   34.2890   47.6940 C   0  0  0  0  0  0  0  0  0  0  0  0
   58.8960   33.0340   47.8510 C   0  0  0  0  0  0  0  0  0  0  0  0
   58.8940   32.2560   49.4230 Cl  0  0  0  0  0  0  0  0  0  0  0  0
   58.3020   32.3990   46.7550 C   0  0  0  0  0  0  0  0  0  0  0  0
   59.4038   29.8597   43.6318 H   0  0  0  0  0  0  0  0  0  0  0  0
   61.1343   28.5344   45.0739 H   0  0  0  0  0  0  0  0  0  0  0  0
   58.9073   34.7721   44.3612 H   0  0  0  0  0  0  0  0  0  0  0  0
   59.9616   35.8967   46.3213 H   0  0  0  0  0  0  0  0  0  0  0  0
   59.9577   34.7882   48.5560 H   0  0  0  0  0  0  0  0  0  0  0  0
   57.8351   31.4114   46.8839 H   0  0  0  0  0  0  0  0  0  0  0  0
  1  2  2  0
  2  3  1  0
  3  4  1  0
  4  5  2  0
  4  6  2  0
  4  7  1  0
  7  8  2  0
  8  9  1  0
  9 10  2  0
 10 11  1  0
 10 12  1  0
  2 13  1  0
 13 14  2  0
 14 15  1  0
 15 16  2  0
 16 17  1  0
 17 18  1  0
 17 19  2  0
 12  7  1  0
 19 13  1  0
  8 20  1  0
  9 21  1  0
 14 22  1  0
 15 23  1  0
 16 24  1  0
 19 25  1  0
M  CHG  1   3  -1
M  END
>  <UniqueID>  (69) 
61

>  <SMILES>  (69) 
O=C([N-]S(=O)(=O)c1ccc(Br)s1)c1cccc(Cl)c1

>  <Energy>  (69) 
54.53801016253589

>  <Genealogy>  (69) 
O=C([N-]S(=O)(=O)c1ccc(Br)s1)c1cccc(Cl)c1 (protonated)
O=C([N-]S(=O)(=O)c1ccc(Br)s1)c1cccc(Cl)c1 (3D coordinates assigned)
O=C([N-]S(=O)(=O)c1ccc(Br)s1)c1cccc(Cl)c1 (optimized conformer: 54.53801016253589 kcal/mol)

>  <smiles>  (69) 
O=C(NS(=O)(=O)c1ccc(Br)s1)c1cccc(Cl)c1

>  <score_type>  (69) 
oracle

>  <origin>  (69) 
adg

>  <m_score__min__energy>  (69) 
-9.7400000000000002

>  <m_primary>  (69) 
energy

$$$$
69:0
     RDKit          3D

 53 55  0  0  0  0  0  0  0  0999 V2000
   59.4370   35.3500   46.6310 C   0  0  0  0  0  0  0  0  0  0  0  0
   58.8180   34.1150   46.0350 C   0  0  0  0  0  0  0  0  0  0  0  0
   58.6320   34.0460   44.6450 C   0  0  0  0  0  0  0  0  0  0  0  0
   58.1090   32.8930   44.0550 C   0  0  0  0  0  0  0  0  0  0  0  0
   57.7630   31.7920   44.8450 C   0  0  0  0  0  0  0  0  0  0  0  0
   57.1130   30.3450   44.0800 S   0  0  0  0  0  0  0  0  0  0  0  0
   55.9000   29.9040   44.8500 O   0  0  0  0  0  0  0  0  0  0  0  0
   56.7070   30.6530   42.6640 O   0  0  0  0  0  0  0  0  0  0  0  0
   58.3350   29.0910   44.1010 N   0  0  0  0  0  0  0  0  0  0  0  0
   57.7770   27.7690   43.7420 C   0  0  0  0  0  0  0  0  0  0  0  0
   57.4970   26.8860   44.9700 C   0  0  0  0  0  0  0  0  0  0  0  0
   57.1180   27.6840   46.0690 O   0  0  0  0  0  0  0  0  0  0  0  0
   58.2230   28.4470   46.5240 C   0  0  0  0  0  0  0  0  0  0  0  0
   59.0640   29.0630   45.3810 C   0  0  0  0  0  0  0  0  0  0  0  0
   57.9270   31.8580   46.2350 C   0  0  0  0  0  0  0  0  0  0  0  0
   58.4200   33.0210   46.8390 C   0  0  0  0  0  0  0  0  0  0  0  0
   58.5530   33.0440   48.2640 N   0  0  0  0  0  0  0  0  0  0  0  0
   59.7690   32.7390   48.9570 C   0  0  0  0  0  0  0  0  0  0  0  0
   59.9980   33.2420   50.0900 O   0  0  0  0  0  0  0  0  0  0  0  0
   60.7430   31.7600   48.3700 C   0  0  0  0  0  0  0  0  0  0  0  0
   62.1350   32.1190   48.7320 N   0  0  0  0  0  0  0  0  0  0  0  0
   62.8320   33.0360   47.9630 C   0  0  0  0  0  0  0  0  0  0  0  0
   62.2320   33.6960   46.7410 C   0  0  0  0  0  0  0  0  0  0  0  0
   64.1610   33.3460   48.2730 C   0  0  0  0  0  0  0  0  0  0  0  0
   64.7840   32.7490   49.3580 C   0  0  0  0  0  0  0  0  0  0  0  0
   65.9870   33.0250   49.6120 O   0  0  0  0  0  0  0  0  0  0  0  0
   64.0810   31.8470   50.1540 C   0  0  0  0  0  0  0  0  0  0  0  0
   65.0180   31.0080   51.6170 Br  0  0  0  0  0  0  0  0  0  0  0  0
   62.7280   31.5610   49.8550 C   0  0  0  0  0  0  0  0  0  0  0  0
   61.9840   30.5760   50.7390 C   0  0  0  0  0  0  0  0  0  0  0  0
   59.4038   35.2837   47.7285 H   0  0  0  0  0  0  0  0  0  0  0  0
   60.4828   35.4322   46.3001 H   0  0  0  0  0  0  0  0  0  0  0  0
   58.8770   36.2371   46.3001 H   0  0  0  0  0  0  0  0  0  0  0  0
   58.9004   34.9072   44.0154 H   0  0  0  0  0  0  0  0  0  0  0  0
   57.9687   32.8508   42.9648 H   0  0  0  0  0  0  0  0  0  0  0  0
   56.8339   27.9220   43.1969 H   0  0  0  0  0  0  0  0  0  0  0  0
   58.5257   27.2503   43.1252 H   0  0  0  0  0  0  0  0  0  0  0  0
   56.6843   26.1832   44.7342 H   0  0  0  0  0  0  0  0  0  0  0  0
   58.4110   26.3312   45.2283 H   0  0  0  0  0  0  0  0  0  0  0  0
   57.8447   29.2638   47.1563 H   0  0  0  0  0  0  0  0  0  0  0  0
   58.8827   27.7613   47.0759 H   0  0  0  0  0  0  0  0  0  0  0  0
   59.3341   30.0931   45.6565 H   0  0  0  0  0  0  0  0  0  0  0  0
   59.9571   28.4353   45.2452 H   0  0  0  0  0  0  0  0  0  0  0  0
   57.6663   30.9889   46.8569 H   0  0  0  0  0  0  0  0  0  0  0  0
   60.5187   30.7540   48.7543 H   0  0  0  0  0  0  0  0  0  0  0  0
   60.6473   31.7822   47.2744 H   0  0  0  0  0  0  0  0  0  0  0  0
   61.5231   34.4758   47.0563 H   0  0  0  0  0  0  0  0  0  0  0  0
   63.0329   34.1502   46.1391 H   0  0  0  0  0  0  0  0  0  0  0  0
   61.7038   32.9419   46.1391 H   0  0  0  0  0  0  0  0  0  0  0  0
   64.7139   34.0668   47.6528 H   0  0  0  0  0  0  0  0  0  0  0  0
   62.1683   30.8200   51.7957 H   0  0  0  0  0  0  0  0  0  0  0  0
   60.9057   30.6385   50.5309 H   0  0  0  0  0  0  0  0  0  0  0  0
   62.3390   29.5559   50.5309 H   0  0  0  0  0  0  0  0  0  0  0  0
  1  2  1  0
  2  3  2  0
  3  4  1  0
  4  5  2  0
  5  6  1  0
  6  7  2  0
  6  8  2  0
  6  9  1  0
  9 10  1  0
 10 11  1  0
 11 12  1  0
 12 13  1  0
 13 14  1  0
  5 15  1  0
 15 16  2  0
 16 17  1  0
 17 18  1  0
 18 19  2  0
 18 20  1  0
 20 21  1  0
 21 22  1  0
 22 23  1  0
 22 24  2  0
 24 25  1  0
 25 26  2  0
 25 27  1  0
 27 28  1  0
 27 29  2  0
 29 30  1  0
 16  2  1  0
 29 21  1  0
 14  9  1  0
  1 31  1  0
  1 32  1  0
  1 33  1  0
  3 34  1  0
  4 35  1  0
 10 36  1  0
 10 37  1  0
 11 38  1  0
 11 39  1  0
 13 40  1  0
 13 41  1  0
 14 42  1  0
 14 43  1  0
 15 44  1  0
 20 45  1  0
 20 46  1  0
 23 47  1  0
 23 48  1  0
 23 49  1  0
 24 50  1  0
 30 51  1  0
 30 52  1  0
 30 53  1  0
M  CHG  1  17  -1
M  END
>  <UniqueID>  (70) 
62

>  <SMILES>  (70) 
Cc1ccc(S(=O)(=O)N2CCOCC2)cc1[N-]C(=O)Cn1c(C)cc(=O)c(Br)c1C

>  <Energy>  (70) 
79.2817171634955

>  <Genealogy>  (70) 
Cc1ccc(S(=O)(=O)N2CCOCC2)cc1[N-]C(=O)Cn1c(C)cc(=O)c(Br)c1C (protonated)
Cc1ccc(S(=O)(=O)N2CCOCC2)cc1[N-]C(=O)Cn1c(C)cc(=O)c(Br)c1C (3D coordinates assigned)
Cc1ccc(S(=O)(=O)N2CCOCC2)cc1[N-]C(=O)Cn1c(C)cc(=O)c(Br)c1C (nonaromatic ring conformer: 79.2817171634955 kcal/mol)

>  <smiles>  (70) 
Cc1ccc(S(=O)(=O)N2CCOCC2)cc1NC(=O)Cn1c(C)cc(=O)c(Br)c1C

>  <score_type>  (70) 
oracle

>  <origin>  (70) 
adg

>  <m_score__min__energy>  (70) 
-11.32

>  <m_primary>  (70) 
energy

$$$$
70:0
     RDKit          3D

 50 52  0  0  0  0  0  0  0  0999 V2000
   57.3440   21.0050   45.1940 C   0  0  0  0  0  0  0  0  0  0  0  0
   57.7870   22.4630   45.4240 C   0  0  0  0  0  0  0  0  0  0  0  0
   57.0710   23.3640   44.4070 C   0  0  0  0  0  0  0  0  0  0  0  0
   59.3090   22.6070   45.2350 C   0  0  0  0  0  0  0  0  0  0  0  0
   57.3990   22.9090   46.7320 O   0  0  0  0  0  0  0  0  0  0  0  0
   56.9240   24.1860   47.0710 C   0  0  0  0  0  0  0  0  0  0  0  0
   55.7000   24.4650   46.9880 O   0  0  0  0  0  0  0  0  0  0  0  0
   57.8250   25.1830   47.5640 N   0  0  0  0  0  0  0  0  0  0  0  0
   58.1220   26.4380   46.9360 C   0  0  0  0  0  0  0  0  0  0  0  0
   57.4350   26.7730   45.7440 C   0  0  0  0  0  0  0  0  0  0  0  0
   57.6870   27.9890   45.0850 C   0  0  0  0  0  0  0  0  0  0  0  0
   58.6490   28.8350   45.6340 C   0  0  0  0  0  0  0  0  0  0  0  0
   59.3300   28.5130   46.7690 C   0  0  0  0  0  0  0  0  0  0  0  0
   59.1050   27.3190   47.4500 C   0  0  0  0  0  0  0  0  0  0  0  0
   60.1730   29.5050   47.1100 N   0  0  0  0  0  0  0  0  0  0  0  0
   59.9690   30.4310   46.1380 C   0  0  0  0  0  0  0  0  0  0  0  0
   59.0510   30.0460   45.2180 N   0  0  0  0  0  0  0  0  0  0  0  0
   58.5000   30.8540   44.1330 C   0  0  0  0  0  0  0  0  0  0  0  0
   57.1920   31.4330   44.5660 C   0  0  0  0  0  0  0  0  0  0  0  0
   56.2330   30.6750   44.8650 O   0  0  0  0  0  0  0  0  0  0  0  0
   57.0730   32.8500   44.7180 N   0  0  0  0  0  0  0  0  0  0  0  0
   57.0320   33.4940   46.0230 C   0  0  0  0  0  0  0  0  0  0  0  0
   58.4260   33.5630   46.5860 C   0  0  0  0  0  0  0  0  0  0  0  0
   58.6710   33.1420   47.9020 C   0  0  0  0  0  0  0  0  0  0  0  0
   59.9500   33.2620   48.4540 C   0  0  0  0  0  0  0  0  0  0  0  0
   60.9890   33.8060   47.6960 C   0  0  0  0  0  0  0  0  0  0  0  0
   60.7500   34.2430   46.3910 C   0  0  0  0  0  0  0  0  0  0  0  0
   59.4710   34.1280   45.8390 C   0  0  0  0  0  0  0  0  0  0  0  0
   57.1936   20.5100   46.1648 H   0  0  0  0  0  0  0  0  0  0  0  0
   56.4017   20.9932   44.6265 H   0  0  0  0  0  0  0  0  0  0  0  0
   58.1205   20.4710   44.6265 H   0  0  0  0  0  0  0  0  0  0  0  0
   56.4728   24.1168   44.9413 H   0  0  0  0  0  0  0  0  0  0  0  0
   57.8168   23.8691   43.7756 H   0  0  0  0  0  0  0  0  0  0  0  0
   56.4105   22.7515   43.7756 H   0  0  0  0  0  0  0  0  0  0  0  0
   59.7979   22.6533   46.2193 H   0  0  0  0  0  0  0  0  0  0  0  0
   59.6925   21.7411   44.6754 H   0  0  0  0  0  0  0  0  0  0  0  0
   59.5233   23.5294   44.6754 H   0  0  0  0  0  0  0  0  0  0  0  0
   56.6950   26.0732   45.3285 H   0  0  0  0  0  0  0  0  0  0  0  0
   57.1441   28.2631   44.1684 H   0  0  0  0  0  0  0  0  0  0  0  0
   59.6727   27.0681   48.3582 H   0  0  0  0  0  0  0  0  0  0  0  0
   60.4955   31.3961   46.1009 H   0  0  0  0  0  0  0  0  0  0  0  0
   59.1992   31.6672   43.8883 H   0  0  0  0  0  0  0  0  0  0  0  0
   58.3489   30.2244   43.2437 H   0  0  0  0  0  0  0  0  0  0  0  0
   56.6269   34.5113   45.9184 H   0  0  0  0  0  0  0  0  0  0  0  0
   56.3885   32.9139   46.7008 H   0  0  0  0  0  0  0  0  0  0  0  0
   57.8534   32.7158   48.5019 H   0  0  0  0  0  0  0  0  0  0  0  0
   60.1377   32.9280   49.4851 H   0  0  0  0  0  0  0  0  0  0  0  0
   61.9974   33.8905   48.1273 H   0  0  0  0  0  0  0  0  0  0  0  0
   61.5681   34.6775   45.7978 H   0  0  0  0  0  0  0  0  0  0  0  0
   59.2828   34.4819   44.8146 H   0  0  0  0  0  0  0  0  0  0  0  0
  1  2  1  0
  2  3  1  0
  2  4  1  0
  2  5  1  0
  5  6  1  0
  6  7  2  0
  6  8  1  0
  8  9  1  0
  9 10  2  0
 10 11  1  0
 11 12  2  0
 12 13  1  0
 13 14  2  0
 13 15  1  0
 15 16  2  0
 16 17  1  0
 17 18  1  0
 18 19  1  0
 19 20  2  0
 19 21  1  0
 21 22  1  0
 22 23  1  0
 23 24  2  0
 24 25  1  0
 25 26  2  0
 26 27  1  0
 27 28  2  0
 14  9  1  0
 28 23  1  0
 17 12  1  0
  1 29  1  0
  1 30  1  0
  1 31  1  0
  3 32  1  0
  3 33  1  0
  3 34  1  0
  4 35  1  0
  4 36  1  0
  4 37  1  0
 10 38  1  0
 11 39  1  0
 14 40  1  0
 16 41  1  0
 18 42  1  0
 18 43  1  0
 22 44  1  0
 22 45  1  0
 24 46  1  0
 25 47  1  0
 26 48  1  0
 27 49  1  0
 28 50  1  0
M  CHG  2   8  -1  21  -1
M  END
>  <UniqueID>  (71) 
63

>  <SMILES>  (71) 
CC(C)(C)OC(=O)[N-]c1ccc2c(c1)ncn2CC(=O)[N-]Cc1ccccc1

>  <Energy>  (71) 
77.68249505326963

>  <Genealogy>  (71) 
CC(C)(C)OC(=O)[N-]c1ccc2c(c1)ncn2CC(=O)[N-]Cc1ccccc1 (protonated)
CC(C)(C)OC(=O)[N-]c1ccc2c(c1)ncn2CC(=O)[N-]Cc1ccccc1 (3D coordinates assigned)
CC(C)(C)OC(=O)[N-]c1ccc2c(c1)ncn2CC(=O)[N-]Cc1ccccc1 (optimized conformer: 77.68249505326963 kcal/mol)

>  <smiles>  (71) 
CC(C)(C)OC(=O)Nc1ccc2c(c1)ncn2CC(=O)NCc1ccccc1

>  <score_type>  (71) 
oracle

>  <origin>  (71) 
adg

>  <m_score__min__energy>  (71) 
-11.119999999999999

>  <m_primary>  (71) 
energy

$$$$
71:0
     RDKit          3D

 45 47  0  0  0  0  0  0  0  0999 V2000
   54.2660   25.0800   45.6250 C   0  0  0  0  0  0  0  0  0  0  0  0
   54.9260   26.3280   45.9840 N   0  0  0  0  0  0  0  0  0  0  0  0
   56.3240   26.5940   45.8130 C   0  0  0  0  0  0  0  0  0  0  0  0
   57.1250   25.6220   45.7870 O   0  0  0  0  0  0  0  0  0  0  0  0
   56.8590   27.9650   45.7060 C   0  0  0  0  0  0  0  0  0  0  0  0
   58.0210   28.3190   46.4070 C   0  0  0  0  0  0  0  0  0  0  0  0
   58.5450   29.6100   46.3030 C   0  0  0  0  0  0  0  0  0  0  0  0
   57.9260   30.5690   45.4820 C   0  0  0  0  0  0  0  0  0  0  0  0
   58.4910   31.9350   45.3830 C   0  0  0  0  0  0  0  0  0  0  0  0
   59.2340   32.6140   46.3310 C   0  0  0  0  0  0  0  0  0  0  0  0
   59.5260   33.8090   45.7900 N   0  0  0  0  0  0  0  0  0  0  0  0
   60.3610   34.8500   46.3760 C   0  0  0  0  0  0  0  0  0  0  0  0
   61.4950   34.2230   47.1390 C   0  0  0  0  0  0  0  0  0  0  0  0
   62.6560   33.8150   46.4690 C   0  0  0  0  0  0  0  0  0  0  0  0
   63.6930   33.1950   47.1690 C   0  0  0  0  0  0  0  0  0  0  0  0
   63.5780   32.9580   48.5520 C   0  0  0  0  0  0  0  0  0  0  0  0
   64.5990   32.3380   49.2890 O   0  0  0  0  0  0  0  0  0  0  0  0
   65.5200   33.0250   50.1290 C   0  0  0  0  0  0  0  0  0  0  0  0
   62.4110   33.3490   49.2280 C   0  0  0  0  0  0  0  0  0  0  0  0
   62.3200   33.0920   50.6050 O   0  0  0  0  0  0  0  0  0  0  0  0
   61.1940   33.4170   51.4130 C   0  0  0  0  0  0  0  0  0  0  0  0
   61.3710   33.9780   48.5150 C   0  0  0  0  0  0  0  0  0  0  0  0
   59.0110   33.8600   44.5730 N   0  0  0  0  0  0  0  0  0  0  0  0
   58.3690   32.7340   44.3000 N   0  0  0  0  0  0  0  0  0  0  0  0
   56.7750   30.2030   44.7610 C   0  0  0  0  0  0  0  0  0  0  0  0
   56.2510   28.9110   44.8660 C   0  0  0  0  0  0  0  0  0  0  0  0
   53.9804   24.5399   46.5397 H   0  0  0  0  0  0  0  0  0  0  0  0
   53.3657   25.2987   45.0321 H   0  0  0  0  0  0  0  0  0  0  0  0
   54.9536   24.4590   45.0321 H   0  0  0  0  0  0  0  0  0  0  0  0
   58.5232   27.5752   47.0430 H   0  0  0  0  0  0  0  0  0  0  0  0
   59.4496   29.8785   46.8683 H   0  0  0  0  0  0  0  0  0  0  0  0
   59.5269   32.2497   47.3267 H   0  0  0  0  0  0  0  0  0  0  0  0
   60.7668   35.4864   45.5758 H   0  0  0  0  0  0  0  0  0  0  0  0
   59.7543   35.4594   47.0620 H   0  0  0  0  0  0  0  0  0  0  0  0
   62.7510   33.9839   45.3862 H   0  0  0  0  0  0  0  0  0  0  0  0
   64.6058   32.8898   46.6364 H   0  0  0  0  0  0  0  0  0  0  0  0
   65.2666   32.8360   51.1826 H   0  0  0  0  0  0  0  0  0  0  0  0
   66.5396   32.6650   49.9268 H   0  0  0  0  0  0  0  0  0  0  0  0
   65.4656   34.1049   49.9268 H   0  0  0  0  0  0  0  0  0  0  0  0
   61.4695   33.3375   52.4750 H   0  0  0  0  0  0  0  0  0  0  0  0
   60.8702   34.4453   51.1942 H   0  0  0  0  0  0  0  0  0  0  0  0
   60.3721   32.7194   51.1942 H   0  0  0  0  0  0  0  0  0  0  0  0
   60.4537   34.2797   49.0419 H   0  0  0  0  0  0  0  0  0  0  0  0
   56.2829   30.9396   44.1089 H   0  0  0  0  0  0  0  0  0  0  0  0
   55.3574   28.6344   44.2872 H   0  0  0  0  0  0  0  0  0  0  0  0
  1  2  1  0
  2  3  1  0
  3  4  2  0
  3  5  1  0
  5  6  2  0
  6  7  1  0
  7  8  2  0
  8  9  1  0
  9 10  2  0
 10 11  1  0
 11 12  1  0
 12 13  1  0
 13 14  2  0
 14 15  1  0
 15 16  2  0
 16 17  1  0
 17 18  1  0
 16 19  1  0
 19 20  1  0
 20 21  1  0
 19 22  2  0
 11 23  1  0
 23 24  2  0
  8 25  1  0
 25 26  2  0
 26  5  1  0
 24  9  1  0
 22 13  1  0
  1 27  1  0
  1 28  1  0
  1 29  1  0
  6 30  1  0
  7 31  1  0
 10 32  1  0
 12 33  1  0
 12 34  1  0
 14 35  1  0
 15 36  1  0
 18 37  1  0
 18 38  1  0
 18 39  1  0
 21 40  1  0
 21 41  1  0
 21 42  1  0
 22 43  1  0
 25 44  1  0
 26 45  1  0
M  CHG  1   2  -1
M  END
>  <UniqueID>  (72) 
64

>  <SMILES>  (72) 
C[N-]C(=O)c1ccc(-c2cn(Cc3ccc(OC)c(OC)c3)nn2)cc1

>  <Energy>  (72) 
84.0002959918936

>  <Genealogy>  (72) 
C[N-]C(=O)c1ccc(-c2cn(Cc3ccc(OC)c(OC)c3)nn2)cc1 (protonated)
C[N-]C(=O)c1ccc(-c2cn(Cc3ccc(OC)c(OC)c3)nn2)cc1 (3D coordinates assigned)
C[N-]C(=O)c1ccc(-c2cn(Cc3ccc(OC)c(OC)c3)nn2)cc1 (optimized conformer: 84.0002959918936 kcal/mol)

>  <smiles>  (72) 
CNC(=O)c1ccc(-c2cn(Cc3ccc(OC)c(OC)c3)nn2)cc1

>  <score_type>  (72) 
oracle

>  <origin>  (72) 
adg

>  <m_score__min__energy>  (72) 
-9.3499999999999996

>  <m_primary>  (72) 
energy

$$$$
72:0
     RDKit          3D

 68 72  0  0  0  0  0  0  0  0999 V2000
   56.6620   29.3430   42.9190 C   0  0  0  0  0  0  0  0  0  0  0  0
   56.7630   30.3950   43.9750 C   0  0  0  0  0  0  0  0  0  0  0  0
   55.7190   30.7620   44.5780 O   0  0  0  0  0  0  0  0  0  0  0  0
   58.0210   31.0390   44.2290 N   0  0  0  0  0  0  0  0  0  0  0  0
   58.2770   31.9010   45.3510 C   0  0  0  0  0  0  0  0  0  0  0  0
   57.7860   33.2130   45.3340 C   0  0  0  0  0  0  0  0  0  0  0  0
   58.0480   34.0780   46.3970 C   0  0  0  0  0  0  0  0  0  0  0  0
   58.8170   33.6480   47.4800 C   0  0  0  0  0  0  0  0  0  0  0  0
   59.3350   32.3410   47.5190 C   0  0  0  0  0  0  0  0  0  0  0  0
   60.2400   31.9510   48.6860 C   0  0  0  0  0  0  0  0  0  0  0  0
   60.5480   33.0980   49.6860 C   0  0  0  0  0  0  0  0  0  0  0  0
   59.6580   33.0580   50.9450 C   0  0  0  0  0  0  0  0  0  0  0  0
   58.3400   32.4870   50.6160 N   0  0  0  0  0  0  0  0  0  0  0  0
   57.3620   32.7240   51.6950 C   0  0  0  0  0  0  0  0  0  0  0  0
   57.4880   31.6580   52.7500 C   0  0  0  0  0  0  0  0  0  0  0  0
   58.2530   31.9030   53.9010 C   0  0  0  0  0  0  0  0  0  0  0  0
   58.3280   30.9430   54.9130 C   0  0  0  0  0  0  0  0  0  0  0  0
   57.6440   29.7320   54.7840 C   0  0  0  0  0  0  0  0  0  0  0  0
   56.8820   29.4690   53.6340 C   0  0  0  0  0  0  0  0  0  0  0  0
   56.1380   28.1670   53.4880 C   0  0  0  0  0  0  0  0  0  0  0  0
   54.7540   28.3410   53.7910 O   0  0  0  0  0  0  0  0  0  0  0  0
   53.9070   29.3000   53.2110 C   0  0  0  0  0  0  0  0  0  0  0  0
   54.0030   29.5170   51.8320 C   0  0  0  0  0  0  0  0  0  0  0  0
   53.1900   30.4610   51.2020 C   0  0  0  0  0  0  0  0  0  0  0  0
   52.2580   31.1990   51.9460 C   0  0  0  0  0  0  0  0  0  0  0  0
   52.1440   30.9850   53.3350 C   0  0  0  0  0  0  0  0  0  0  0  0
   52.9810   30.0490   53.9630 C   0  0  0  0  0  0  0  0  0  0  0  0
   51.2060   31.8340   54.1640 C   0  0  0  0  0  0  0  0  0  0  0  0
   49.9540   32.2270   53.3670 C   0  0  0  0  0  0  0  0  0  0  0  0
   50.3260   32.7880   52.0710 N   0  0  0  0  0  0  0  0  0  0  0  0
   51.3830   32.2020   51.3080 C   0  0  0  0  0  0  0  0  0  0  0  0
   51.5650   32.5620   50.1150 O   0  0  0  0  0  0  0  0  0  0  0  0
   56.7970   30.4420   52.6250 C   0  0  0  0  0  0  0  0  0  0  0  0
   58.4410   31.0470   50.2780 C   0  0  0  0  0  0  0  0  0  0  0  0
   59.6860   30.7190   49.4250 C   0  0  0  0  0  0  0  0  0  0  0  0
   59.0650   31.4760   46.4360 C   0  0  0  0  0  0  0  0  0  0  0  0
   56.5672   28.3551   43.3935 H   0  0  0  0  0  0  0  0  0  0  0  0
   55.7782   29.5355   42.2930 H   0  0  0  0  0  0  0  0  0  0  0  0
   57.5663   29.3638   42.2930 H   0  0  0  0  0  0  0  0  0  0  0  0
   58.7760   30.9290   43.5130 H   0  0  0  0  0  0  0  0  0  0  0  0
   57.1906   33.5631   44.4779 H   0  0  0  0  0  0  0  0  0  0  0  0
   57.6473   35.1023   46.3817 H   0  0  0  0  0  0  0  0  0  0  0  0
   59.0199   34.3388   48.3116 H   0  0  0  0  0  0  0  0  0  0  0  0
   61.2069   31.7022   48.2243 H   0  0  0  0  0  0  0  0  0  0  0  0
   61.5997   33.0175   49.9980 H   0  0  0  0  0  0  0  0  0  0  0  0
   60.3433   34.0474   49.1695 H   0  0  0  0  0  0  0  0  0  0  0  0
   60.1421   32.4369   51.7130 H   0  0  0  0  0  0  0  0  0  0  0  0
   59.5223   34.0823   51.3225 H   0  0  0  0  0  0  0  0  0  0  0  0
   57.5513   33.7084   52.1479 H   0  0  0  0  0  0  0  0  0  0  0  0
   56.3464   32.6952   51.2734 H   0  0  0  0  0  0  0  0  0  0  0  0
   58.7953   32.8542   54.0065 H   0  0  0  0  0  0  0  0  0  0  0  0
   58.9273   31.1413   55.8139 H   0  0  0  0  0  0  0  0  0  0  0  0
   57.7024   28.9815   55.5861 H   0  0  0  0  0  0  0  0  0  0  0  0
   56.2389   27.8073   52.4534 H   0  0  0  0  0  0  0  0  0  0  0  0
   56.5647   27.4349   54.1894 H   0  0  0  0  0  0  0  0  0  0  0  0
   54.7261   28.9382   51.2386 H   0  0  0  0  0  0  0  0  0  0  0  0
   53.2807   30.6265   50.1183 H   0  0  0  0  0  0  0  0  0  0  0  0
   52.9131   29.8994   55.0507 H   0  0  0  0  0  0  0  0  0  0  0  0
   50.8997   31.2644   55.0538 H   0  0  0  0  0  0  0  0  0  0  0  0
   51.7355   32.7539   54.4527 H   0  0  0  0  0  0  0  0  0  0  0  0
   49.3307   31.3345   53.2093 H   0  0  0  0  0  0  0  0  0  0  0  0
   49.3951   32.9853   53.9349 H   0  0  0  0  0  0  0  0  0  0  0  0
   56.1853   30.2504   51.7311 H   0  0  0  0  0  0  0  0  0  0  0  0
   58.4931   30.4693   51.2126 H   0  0  0  0  0  0  0  0  0  0  0  0
   57.5535   30.7829   49.6843 H   0  0  0  0  0  0  0  0  0  0  0  0
   60.4709   30.3223   50.0857 H   0  0  0  0  0  0  0  0  0  0  0  0
   59.3843   29.9831   48.6652 H   0  0  0  0  0  0  0  0  0  0  0  0
   59.4765   30.4559   46.4409 H   0  0  0  0  0  0  0  0  0  0  0  0
  1  2  1  0
  2  3  2  0
  2  4  1  0
  4  5  1  0
  5  6  2  0
  6  7  1  0
  7  8  2  0
  8  9  1  0
  9 10  1  0
 10 11  1  0
 11 12  1  0
 12 13  1  0
 13 14  1  0
 14 15  1  0
 15 16  2  0
 16 17  1  0
 17 18  2  0
 18 19  1  0
 19 20  1  0
 20 21  1  0
 21 22  1  0
 22 23  2  0
 23 24  1  0
 24 25  2  0
 25 26  1  0
 26 27  2  0
 26 28  1  0
 28 29  1  0
 29 30  1  0
 30 31  1  0
 31 32  2  0
 19 33  2  0
 13 34  1  0
 34 35  1  0
  9 36  2  0
 36  5  1  0
 35 10  1  0
 33 15  1  0
 27 22  1  0
 31 25  1  0
  1 37  1  0
  1 38  1  0
  1 39  1  0
  4 40  1  0
  6 41  1  0
  7 42  1  0
  8 43  1  0
 10 44  1  0
 11 45  1  0
 11 46  1  0
 12 47  1  0
 12 48  1  0
 14 49  1  0
 14 50  1  0
 16 51  1  0
 17 52  1  0
 18 53  1  0
 20 54  1  0
 20 55  1  0
 23 56  1  0
 24 57  1  0
 27 58  1  0
 28 59  1  0
 28 60  1  0
 29 61  1  0
 29 62  1  0
 33 63  1  0
 34 64  1  0
 34 65  1  0
 35 66  1  0
 35 67  1  0
 36 68  1  0
M  CHG  1  30  -1
M  END
>  <UniqueID>  (73) 
65

>  <SMILES>  (73) 
CC(=O)Nc1cccc(C2CCN(Cc3cccc(COc4ccc5c(c4)CC[N-]C5=O)c3)CC2)c1

>  <Energy>  (73) 
80.70596247156992

>  <Genealogy>  (73) 
CC(=O)Nc1cccc(C2CCN(Cc3cccc(COc4ccc5c(c4)CC[N-]C5=O)c3)CC2)c1 (protonated)
CC(=O)Nc1cccc(C2CCN(Cc3cccc(COc4ccc5c(c4)CC[N-]C5=O)c3)CC2)c1 (3D coordinates assigned)
CC(=O)Nc1cccc(C2CCN(Cc3cccc(COc4ccc5c(c4)CC[N-]C5=O)c3)CC2)c1 (nonaromatic ring conformer: 80.70596247156992 kcal/mol)

>  <smiles>  (73) 
CC(=O)Nc1cccc(C2CCN(Cc3cccc(COc4ccc5c(c4)CCNC5=O)c3)CC2)c1

>  <score_type>  (73) 
oracle

>  <origin>  (73) 
adg

>  <m_score__min__energy>  (73) 
-13.81

>  <m_primary>  (73) 
energy

$$$$
73:0
     RDKit          3D

 36 38  0  0  0  0  0  0  0  0999 V2000
   55.3719   29.2134   43.5633 H   0  0  0  0  0  0  0  0  0  0  0  0
   56.1270   30.0090   43.6460 C   0  0  0  0  0  0  0  0  0  0  0  0
   56.6460   30.4010   44.8400 N   0  0  0  0  0  0  0  0  0  0  0  0
   57.5560   31.3890   44.6820 C   0  0  0  0  0  0  0  0  0  0  0  0
   58.1900   31.9670   45.6580 N   0  0  0  0  0  0  0  0  0  0  0  0
   58.9970   31.3080   46.6470 C   0  0  0  0  0  0  0  0  0  0  0  0
   59.9230   31.9270   47.2400 O   0  0  0  0  0  0  0  0  0  0  0  0
   58.7710   29.9170   46.9120 N   0  0  0  0  0  0  0  0  0  0  0  0
   58.0970   29.4080   46.2970 H   0  0  0  0  0  0  0  0  0  0  0  0
   59.5200   29.1670   47.8810 C   0  0  0  0  0  0  0  0  0  0  0  0
   60.1020   29.8280   48.9780 C   0  0  0  0  0  0  0  0  0  0  0  0
   60.0572   30.9253   49.0398 H   0  0  0  0  0  0  0  0  0  0  0  0
   60.7360   29.1030   49.9890 C   0  0  0  0  0  0  0  0  0  0  0  0
   61.2061   29.6313   50.8316 H   0  0  0  0  0  0  0  0  0  0  0  0
   60.7740   27.7100   49.9320 C   0  0  0  0  0  0  0  0  0  0  0  0
   61.2617   27.1398   50.7364 H   0  0  0  0  0  0  0  0  0  0  0  0
   60.1930   27.0390   48.8540 C   0  0  0  0  0  0  0  0  0  0  0  0
   60.2091   25.9395   48.8239 H   0  0  0  0  0  0  0  0  0  0  0  0
   59.5890   27.7540   47.8090 C   0  0  0  0  0  0  0  0  0  0  0  0
   59.0430   27.0050   46.7110 N   0  0  0  0  0  0  0  0  0  0  0  0
   57.6750   26.9740   46.2780 C   0  0  0  0  0  0  0  0  0  0  0  0
   57.0080   28.0420   46.3250 O   0  0  0  0  0  0  0  0  0  0  0  0
   57.0170   25.7370   45.7940 C   0  0  0  0  0  0  0  0  0  0  0  0
   57.8140   24.6500   45.3920 C   0  0  0  0  0  0  0  0  0  0  0  0
   58.9101   24.7413   45.4084 H   0  0  0  0  0  0  0  0  0  0  0  0
   57.2240   23.4550   44.9720 C   0  0  0  0  0  0  0  0  0  0  0  0
   57.8562   22.6050   44.6755 H   0  0  0  0  0  0  0  0  0  0  0  0
   55.8330   23.3380   44.9280 C   0  0  0  0  0  0  0  0  0  0  0  0
   55.3699   22.3919   44.6111 H   0  0  0  0  0  0  0  0  0  0  0  0
   55.0300   24.4240   45.2870 C   0  0  0  0  0  0  0  0  0  0  0  0
   53.9346   24.3336   45.2421 H   0  0  0  0  0  0  0  0  0  0  0  0
   55.6130   25.6250   45.7030 C   0  0  0  0  0  0  0  0  0  0  0  0
   54.7890   26.7080   45.9940 O   0  0  0  0  0  0  0  0  0  0  0  0
   57.7470   31.8180   43.0720 S   0  0  0  0  0  0  0  0  0  0  0  0
   56.6210   30.6880   42.5360 C   0  0  0  0  0  0  0  0  0  0  0  0
   56.3266   30.5159   41.4902 H   0  0  0  0  0  0  0  0  0  0  0  0
  1  2  1  0
  2  3  1  0
  3  4  1  0
  4  5  2  0
  5  6  1  0
  6  7  2  0
  6  8  1  0
  8  9  1  0
  8 10  1  0
 10 11  2  0
 11 12  1  0
 11 13  1  0
 13 14  1  0
 13 15  2  0
 15 16  1  0
 15 17  1  0
 17 18  1  0
 17 19  2  0
 19 20  1  0
 20 21  1  0
 21 22  2  0
 21 23  1  0
 23 24  2  0
 24 25  1  0
 24 26  1  0
 26 27  1  0
 26 28  2  0
 28 29  1  0
 28 30  1  0
 30 31  1  0
 30 32  2  0
 32 33  1  0
  4 34  1  0
 34 35  1  0
 35 36  1  0
 35  2  2  0
 19 10  1  0
 32 23  1  0
M  CHG  3   3  -1  20  -1  33  -1
M  END
>  <UniqueID>  (74) 
66

>  <SMILES>  (74) 
O=C(/N=c1\[n-]ccs1)Nc1ccccc1[N-]C(=O)c1ccccc1[O-]

>  <Energy>  (74) 
82.54311482046825

>  <Genealogy>  (74) 
O=C(N=c1[n-]ccs1)Nc1ccccc1[N-]C(=O)c1ccccc1[O-] (protonated)
O=C(/N=c1\[n-]ccs1)Nc1ccccc1[N-]C(=O)c1ccccc1[O-] (cis-trans isomerization)
O=C(/N=c1\[n-]ccs1)Nc1ccccc1[N-]C(=O)c1ccccc1[O-] (3D coordinates assigned)
O=C(/N=c1\[n-]ccs1)Nc1ccccc1[N-]C(=O)c1ccccc1[O-] (optimized conformer: 82.54311482046825 kcal/mol)

>  <smiles>  (74) 
O=C(N=c1[nH]ccs1)Nc1ccccc1NC(=O)c1ccccc1O

>  <score_type>  (74) 
oracle

>  <origin>  (74) 
adg

>  <m_score__min__energy>  (74) 
-14.92

>  <m_primary>  (74) 
energy

$$$$
74:0
     RDKit          3D

 71 75  0  0  0  0  0  0  0  0999 V2000
   52.5670   24.0900   45.2590 C   0  0  0  0  0  0  0  0  0  0  0  0
   54.0580   24.1170   45.2920 C   0  0  0  0  0  0  0  0  0  0  0  0
   54.6500   25.0390   45.9170 O   0  0  0  0  0  0  0  0  0  0  0  0
   54.8080   23.1160   44.5930 N   0  0  0  0  0  0  0  0  0  0  0  0
   55.2980   23.2850   43.2280 C   0  0  0  0  0  0  0  0  0  0  0  0
   56.7980   23.6010   43.2280 C   0  0  1  0  0  0  0  0  0  0  0  0
   57.1030   25.0130   43.8060 C   0  0  0  0  0  0  0  0  0  0  0  0
   57.9300   24.7720   44.9800 N   0  0  0  0  0  0  0  0  0  0  0  0
   58.4080   25.7670   45.8940 C   0  0  0  0  0  0  0  0  0  0  0  0
   57.5540   26.7880   46.3350 C   0  0  0  0  0  0  0  0  0  0  0  0
   58.0120   27.7430   47.2480 C   0  0  0  0  0  0  0  0  0  0  0  0
   59.3380   27.7050   47.7100 C   0  0  0  0  0  0  0  0  0  0  0  0
   59.8010   28.6910   48.6490 N   0  0  0  0  0  0  0  0  0  0  0  0
   60.7220   28.3120   49.7220 C   0  0  0  0  0  0  0  0  0  0  0  0
   61.5660   29.5270   50.1180 C   0  0  0  0  0  0  0  0  0  0  0  0
   60.7360   30.6690   50.5660 N   0  0  0  0  0  0  0  0  0  0  0  0
   61.5900   32.1740   50.3110 S   0  0  0  0  0  0  0  0  0  0  0  0
   63.0480   31.8960   50.0690 O   0  0  0  0  0  0  0  0  0  0  0  0
   61.4610   33.0430   51.5330 O   0  0  0  0  0  0  0  0  0  0  0  0
   60.9340   33.0150   48.9070 C   0  0  0  0  0  0  0  0  0  0  0  0
   59.8810   33.9280   49.0460 C   0  0  0  0  0  0  0  0  0  0  0  0
   59.3560   34.5740   47.9230 C   0  0  0  0  0  0  0  0  0  0  0  0
   59.8780   34.3070   46.6420 C   0  0  0  0  0  0  0  0  0  0  0  0
   59.3770   34.9170   45.4780 O   0  0  0  0  0  0  0  0  0  0  0  0
   58.1190   34.6220   44.8690 C   0  0  0  0  0  0  0  0  0  0  0  0
   57.9810   33.1410   44.6310 C   0  0  0  0  0  0  0  0  0  0  0  0
   57.9060   32.6270   43.3260 C   0  0  0  0  0  0  0  0  0  0  0  0
   57.7420   31.2540   43.1170 C   0  0  0  0  0  0  0  0  0  0  0  0
   57.6620   30.3830   44.2080 C   0  0  0  0  0  0  0  0  0  0  0  0
   57.4980   29.0530   44.0010 F   0  0  0  0  0  0  0  0  0  0  0  0
   57.7510   30.8840   45.5110 C   0  0  0  0  0  0  0  0  0  0  0  0
   57.9130   32.2580   45.7240 C   0  0  0  0  0  0  0  0  0  0  0  0
   60.9370   33.4000   46.5130 C   0  0  0  0  0  0  0  0  0  0  0  0
   61.4600   32.7540   47.6370 C   0  0  0  0  0  0  0  0  0  0  0  0
   59.3770   30.7280   49.9740 C   0  0  0  0  0  0  0  0  0  0  0  0
   59.2920   30.0690   48.5890 C   0  0  0  0  0  0  0  0  0  0  0  0
   60.1950   26.6860   47.2600 C   0  0  0  0  0  0  0  0  0  0  0  0
   61.4700   26.6060   47.7150 F   0  0  0  0  0  0  0  0  0  0  0  0
   59.7260   25.7150   46.3690 C   0  0  0  0  0  0  0  0  0  0  0  0
   58.1390   23.3780   45.0730 C   0  0  0  0  0  0  0  0  0  0  0  0
   58.8130   22.8250   45.9800 O   0  0  0  0  0  0  0  0  0  0  0  0
   57.4870   22.6860   44.0800 O   0  0  0  0  0  0  0  0  0  0  0  0
   52.1775   24.0829   46.2877 H   0  0  0  0  0  0  0  0  0  0  0  0
   52.1957   24.9816   44.7325 H   0  0  0  0  0  0  0  0  0  0  0  0
   52.2282   23.1856   44.7325 H   0  0  0  0  0  0  0  0  0  0  0  0
   55.1242   22.3567   42.6641 H   0  0  0  0  0  0  0  0  0  0  0  0
   54.7595   24.1218   42.7592 H   0  0  0  0  0  0  0  0  0  0  0  0
   57.1228   23.5356   42.1791 H   0  0  0  0  0  0  0  0  0  0  0  0
   57.6466   25.6226   43.0693 H   0  0  0  0  0  0  0  0  0  0  0  0
   56.1839   25.5635   44.0554 H   0  0  0  0  0  0  0  0  0  0  0  0
   56.5205   26.8379   45.9616 H   0  0  0  0  0  0  0  0  0  0  0  0
   57.3302   28.5283   47.6064 H   0  0  0  0  0  0  0  0  0  0  0  0
   60.1477   27.9640   50.5932 H   0  0  0  0  0  0  0  0  0  0  0  0
   61.3813   27.5036   49.3730 H   0  0  0  0  0  0  0  0  0  0  0  0
   62.2399   29.2370   50.9376 H   0  0  0  0  0  0  0  0  0  0  0  0
   62.1281   29.8492   49.2290 H   0  0  0  0  0  0  0  0  0  0  0  0
   59.4655   34.1375   50.0427 H   0  0  0  0  0  0  0  0  0  0  0  0
   58.5322   35.2935   48.0400 H   0  0  0  0  0  0  0  0  0  0  0  0
   57.3084   34.9590   45.5318 H   0  0  0  0  0  0  0  0  0  0  0  0
   58.0612   35.1440   43.9025 H   0  0  0  0  0  0  0  0  0  0  0  0
   57.9766   33.3074   42.4646 H   0  0  0  0  0  0  0  0  0  0  0  0
   57.6758   30.8586   42.0927 H   0  0  0  0  0  0  0  0  0  0  0  0
   57.6936   30.1978   46.3688 H   0  0  0  0  0  0  0  0  0  0  0  0
   57.9874   32.6486   46.7496 H   0  0  0  0  0  0  0  0  0  0  0  0
   61.3609   33.1941   45.5190 H   0  0  0  0  0  0  0  0  0  0  0  0
   62.2875   32.0384   47.5227 H   0  0  0  0  0  0  0  0  0  0  0  0
   58.6784   30.2130   50.6498 H   0  0  0  0  0  0  0  0  0  0  0  0
   59.1211   31.7903   49.8472 H   0  0  0  0  0  0  0  0  0  0  0  0
   58.2433   30.0546   48.2575 H   0  0  0  0  0  0  0  0  0  0  0  0
   59.9030   30.6462   47.8794 H   0  0  0  0  0  0  0  0  0  0  0  0
   60.3949   24.9063   46.0393 H   0  0  0  0  0  0  0  0  0  0  0  0
  1  2  1  0
  2  3  2  0
  2  4  1  0
  4  5  1  0
  5  6  1  0
  6  7  1  0
  7  8  1  0
  8  9  1  0
  9 10  2  0
 10 11  1  0
 11 12  2  0
 12 13  1  0
 13 14  1  0
 14 15  1  0
 15 16  1  0
 16 17  1  0
 17 18  2  0
 17 19  2  0
 17 20  1  0
 20 21  2  0
 21 22  1  0
 22 23  2  0
 23 24  1  0
 24 25  1  0
 25 26  1  0
 26 27  2  0
 27 28  1  0
 28 29  2  0
 29 30  1  0
 29 31  1  0
 31 32  2  0
 23 33  1  0
 33 34  2  0
 16 35  1  0
 35 36  1  0
 12 37  1  0
 37 38  1  0
 37 39  2  0
  8 40  1  0
 40 41  2  0
 40 42  1  0
 42  6  1  0
 39  9  1  0
 36 13  1  0
 34 20  1  0
 32 26  1  0
  1 43  1  0
  1 44  1  0
  1 45  1  0
  5 46  1  0
  5 47  1  0
  6 48  1  6
  7 49  1  0
  7 50  1  0
 10 51  1  0
 11 52  1  0
 14 53  1  0
 14 54  1  0
 15 55  1  0
 15 56  1  0
 21 57  1  0
 22 58  1  0
 25 59  1  0
 25 60  1  0
 27 61  1  0
 28 62  1  0
 31 63  1  0
 32 64  1  0
 33 65  1  0
 34 66  1  0
 35 67  1  0
 35 68  1  0
 36 69  1  0
 36 70  1  0
 39 71  1  0
M  CHG  1   4  -1
M  END
>  <UniqueID>  (75) 
67

>  <SMILES>  (75) 
CC(=O)[N-]C[C@H]1CN(c2ccc(N3CCN(S(=O)(=O)c4ccc(OCc5ccc(F)cc5)cc4)CC3)c(F)c2)C(=O)O1

>  <Energy>  (75) 
100.74999429903286

>  <Genealogy>  (75) 
CC(=O)[N-]CC1CN(c2ccc(N3CCN(S(=O)(=O)c4ccc(OCc5ccc(F)cc5)cc4)CC3)c(F)c2)C(=O)O1 (protonated)
CC(=O)[N-]C[C@H]1CN(c2ccc(N3CCN(S(=O)(=O)c4ccc(OCc5ccc(F)cc5)cc4)CC3)c(F)c2)C(=O)O1 (chirality)
CC(=O)[N-]C[C@H]1CN(c2ccc(N3CCN(S(=O)(=O)c4ccc(OCc5ccc(F)cc5)cc4)CC3)c(F)c2)C(=O)O1 (3D coordinates assigned)
CC(=O)[N-]C[C@H]1CN(c2ccc(N3CCN(S(=O)(=O)c4ccc(OCc5ccc(F)cc5)cc4)CC3)c(F)c2)C(=O)O1 (nonaromatic ring conformer: 100.74999429903286 kcal/mol)

>  <smiles>  (75) 
CC(=O)NCC1CN(c2ccc(N3CCN(S(=O)(=O)c4ccc(OCc5ccc(F)cc5)cc4)CC3)c(F)c2)C(=O)O1

>  <score_type>  (75) 
oracle

>  <origin>  (75) 
adg

>  <m_score__min__energy>  (75) 
-12.48

>  <m_primary>  (75) 
energy

$$$$
75:0
     RDKit          3D

 36 38  0  0  0  0  0  0  0  0999 V2000
   60.1800   34.2730   48.4190 C   0  0  0  0  0  0  0  0  0  0  0  0
   59.9820   34.9380   46.7360 S   0  0  0  0  0  0  0  0  0  0  0  0
   59.2760   33.4110   46.0750 C   0  0  0  0  0  0  0  0  0  0  0  0
   59.3010   32.3280   46.9450 C   0  0  0  0  0  0  0  0  0  0  0  0
   58.8750   31.0240   46.7540 C   0  0  0  0  0  0  0  0  0  0  0  0
   58.3350   30.4060   45.6190 C   0  0  0  0  0  0  0  0  0  0  0  0
   57.9940   31.0390   44.3960 C   0  0  0  0  0  0  0  0  0  0  0  0
   58.1740   32.3930   44.0680 C   0  0  0  0  0  0  0  0  0  0  0  0
   58.7590   33.4440   44.7750 C   0  0  0  0  0  0  0  0  0  0  0  0
   58.8160   34.5480   44.1640 O   0  0  0  0  0  0  0  0  0  0  0  0
   57.3090   30.1920   43.3270 C   0  0  0  0  0  0  0  0  0  0  0  0
   55.8350   29.9010   43.6790 C   0  0  0  0  0  0  0  0  0  0  0  0
   55.6090   29.4730   45.1440 C   0  0  0  0  0  0  0  0  0  0  0  0
   56.6720   28.5020   45.6120 C   0  0  0  0  0  0  0  0  0  0  0  0
   56.3630   27.1400   45.8030 C   0  0  0  0  0  0  0  0  0  0  0  0
   55.0670   26.6690   45.6160 O   0  0  0  0  0  0  0  0  0  0  0  0
   57.3600   26.2410   46.1810 C   0  0  0  0  0  0  0  0  0  0  0  0
   58.6750   26.6730   46.3370 C   0  0  0  0  0  0  0  0  0  0  0  0
   59.0140   28.0110   46.1220 C   0  0  0  0  0  0  0  0  0  0  0  0
   60.3620   28.3650   46.2140 O   0  0  0  0  0  0  0  0  0  0  0  0
   58.0070   28.9520   45.7920 C   0  0  0  0  0  0  0  0  0  0  0  0
   59.9463   35.0580   49.1533 H   0  0  0  0  0  0  0  0  0  0  0  0
   59.4959   33.4233   48.5603 H   0  0  0  0  0  0  0  0  0  0  0  0
   61.2175   33.9359   48.5603 H   0  0  0  0  0  0  0  0  0  0  0  0
   59.7242   32.5386   47.9382 H   0  0  0  0  0  0  0  0  0  0  0  0
   58.9769   30.3703   47.6328 H   0  0  0  0  0  0  0  0  0  0  0  0
   57.7848   32.6745   43.0784 H   0  0  0  0  0  0  0  0  0  0  0  0
   57.3459   30.7310   42.3688 H   0  0  0  0  0  0  0  0  0  0  0  0
   57.8398   29.2307   43.2625 H   0  0  0  0  0  0  0  0  0  0  0  0
   55.2487   30.8126   43.4912 H   0  0  0  0  0  0  0  0  0  0  0  0
   55.5199   29.0556   43.0497 H   0  0  0  0  0  0  0  0  0  0  0  0
   55.6350   30.3666   45.7849 H   0  0  0  0  0  0  0  0  0  0  0  0
   54.6324   28.9709   45.2087 H   0  0  0  0  0  0  0  0  0  0  0  0
   57.1065   25.1851   46.3569 H   0  0  0  0  0  0  0  0  0  0  0  0
   59.4535   25.9541   46.6321 H   0  0  0  0  0  0  0  0  0  0  0  0
   61.0230   28.2270   45.4600 H   0  0  0  0  0  0  0  0  0  0  0  0
  1  2  1  0
  2  3  1  0
  3  4  2  0
  4  5  1  0
  5  6  2  0
  6  7  1  0
  7  8  2  0
  8  9  1  0
  9 10  2  0
  7 11  1  0
 11 12  1  0
 12 13  1  0
 13 14  1  0
 14 15  2  0
 15 16  1  0
 15 17  1  0
 17 18  2  0
 18 19  1  0
 19 20  1  0
 19 21  2  0
  9  3  1  0
 21 14  1  0
 21  6  1  0
  1 22  1  0
  1 23  1  0
  1 24  1  0
  4 25  1  0
  5 26  1  0
  8 27  1  0
 11 28  1  0
 11 29  1  0
 12 30  1  0
 12 31  1  0
 13 32  1  0
 13 33  1  0
 17 34  1  0
 18 35  1  0
 20 36  1  0
M  CHG  1  16  -1
M  END
>  <UniqueID>  (76) 
68

>  <SMILES>  (76) 
CSc1ccc2c(cc1=O)CCCc1c([O-])ccc(O)c1-2

>  <Energy>  (76) 
72.80739432506739

>  <Genealogy>  (76) 
CSc1ccc2c(cc1=O)CCCc1c([O-])ccc(O)c1-2 (protonated)
CSc1ccc2c(cc1=O)CCCc1c([O-])ccc(O)c1-2 (3D coordinates assigned)
CSc1ccc2c(cc1=O)CCCc1c([O-])ccc(O)c1-2 (nonaromatic ring conformer: 72.80739432506739 kcal/mol)

>  <smiles>  (76) 
CSc1ccc2c(cc1=O)CCCc1c(O)ccc(O)c1-2

>  <score_type>  (76) 
oracle

>  <origin>  (76) 
adg

>  <m_score__min__energy>  (76) 
-8.5999999999999996

>  <m_primary>  (76) 
energy

$$$$
76:0
     RDKit          3D

 37 39  0  0  0  0  0  0  0  0999 V2000
   59.3110   30.4710   44.6670 O   0  0  0  0  0  0  0  0  0  0  0  0
   58.2000   29.9350   44.4030 C   0  0  0  0  0  0  0  0  0  0  0  0
   57.2840   30.6430   43.4420 C   0  0  0  0  0  0  0  0  0  0  0  0
   58.0830   32.1610   42.8240 S   0  0  0  0  0  0  0  0  0  0  0  0
   58.0640   32.9870   44.4120 C   0  0  0  0  0  0  0  0  0  0  0  0
   57.0000   33.0110   45.2350 N   0  0  0  0  0  0  0  0  0  0  0  0
   57.3690   33.7190   46.2910 N   0  0  0  0  0  0  0  0  0  0  0  0
   58.6470   34.0900   46.0720 C   0  0  0  0  0  0  0  0  0  0  0  0
   59.4580   34.9500   46.9940 C   0  0  0  0  0  0  0  0  0  0  0  0
   60.7310   34.2640   47.4130 C   0  0  0  0  0  0  0  0  0  0  0  0
   60.9880   34.0140   48.7720 C   0  0  0  0  0  0  0  0  0  0  0  0
   62.1540   33.3440   49.1570 C   0  0  0  0  0  0  0  0  0  0  0  0
   63.0650   32.9130   48.1890 C   0  0  0  0  0  0  0  0  0  0  0  0
   62.8110   33.1480   46.8340 C   0  0  0  0  0  0  0  0  0  0  0  0
   61.6470   33.8190   46.4470 C   0  0  0  0  0  0  0  0  0  0  0  0
   59.0780   33.6480   44.9160 O   0  0  0  0  0  0  0  0  0  0  0  0
   57.8180   28.6830   45.1050 C   0  0  0  0  0  0  0  0  0  0  0  0
   58.8240   27.8510   45.6300 C   0  0  0  0  0  0  0  0  0  0  0  0
   58.4940   26.6570   46.2750 C   0  0  0  0  0  0  0  0  0  0  0  0
   57.1550   26.2690   46.3990 C   0  0  0  0  0  0  0  0  0  0  0  0
   56.8200   25.0750   47.0340 O   0  0  0  0  0  0  0  0  0  0  0  0
   56.1460   27.0890   45.8830 C   0  0  0  0  0  0  0  0  0  0  0  0
   54.8130   26.7120   46.0040 O   0  0  0  0  0  0  0  0  0  0  0  0
   56.4730   28.2860   45.2360 C   0  0  0  0  0  0  0  0  0  0  0  0
   57.0603   29.9781   42.5948 H   0  0  0  0  0  0  0  0  0  0  0  0
   56.3522   30.9108   43.9616 H   0  0  0  0  0  0  0  0  0  0  0  0
   59.7108   35.8878   46.4777 H   0  0  0  0  0  0  0  0  0  0  0  0
   58.8601   35.1477   47.8959 H   0  0  0  0  0  0  0  0  0  0  0  0
   60.2695   34.3465   49.5357 H   0  0  0  0  0  0  0  0  0  0  0  0
   62.3539   33.1563   50.2223 H   0  0  0  0  0  0  0  0  0  0  0  0
   63.9828   32.3884   48.4931 H   0  0  0  0  0  0  0  0  0  0  0  0
   63.5270   32.8049   46.0727 H   0  0  0  0  0  0  0  0  0  0  0  0
   61.4481   33.9991   45.3802 H   0  0  0  0  0  0  0  0  0  0  0  0
   59.8798   28.1436   45.5315 H   0  0  0  0  0  0  0  0  0  0  0  0
   59.2896   26.0190   46.6872 H   0  0  0  0  0  0  0  0  0  0  0  0
   55.8560   24.7690   47.1140 H   0  0  0  0  0  0  0  0  0  0  0  0
   55.6738   28.9215   44.8268 H   0  0  0  0  0  0  0  0  0  0  0  0
  1  2  2  0
  2  3  1  0
  3  4  1  0
  4  5  1  0
  5  6  2  0
  6  7  1  0
  7  8  2  0
  8  9  1  0
  9 10  1  0
 10 11  2  0
 11 12  1  0
 12 13  2  0
 13 14  1  0
 14 15  2  0
  8 16  1  0
  2 17  1  0
 17 18  2  0
 18 19  1  0
 19 20  2  0
 20 21  1  0
 20 22  1  0
 22 23  1  0
 22 24  2  0
 16  5  1  0
 24 17  1  0
 15 10  1  0
  3 25  1  0
  3 26  1  0
  9 27  1  0
  9 28  1  0
 11 29  1  0
 12 30  1  0
 13 31  1  0
 14 32  1  0
 15 33  1  0
 18 34  1  0
 19 35  1  0
 21 36  1  0
 24 37  1  0
M  CHG  1  23  -1
M  END
>  <UniqueID>  (77) 
69

>  <SMILES>  (77) 
O=C(CSc1nnc(Cc2ccccc2)o1)c1ccc(O)c([O-])c1

>  <Energy>  (77) 
69.38581532339944

>  <Genealogy>  (77) 
O=C(CSc1nnc(Cc2ccccc2)o1)c1ccc(O)c([O-])c1 (protonated)
O=C(CSc1nnc(Cc2ccccc2)o1)c1ccc(O)c([O-])c1 (3D coordinates assigned)
O=C(CSc1nnc(Cc2ccccc2)o1)c1ccc(O)c([O-])c1 (optimized conformer: 69.38581532339944 kcal/mol)

>  <smiles>  (77) 
O=C(CSc1nnc(Cc2ccccc2)o1)c1ccc(O)c(O)c1

>  <score_type>  (77) 
oracle

>  <origin>  (77) 
adg

>  <m_score__min__energy>  (77) 
-11.949999999999999

>  <m_primary>  (77) 
energy

$$$$
77:0
     RDKit          3D

 45 47  0  0  0  0  0  0  0  0999 V2000
   55.3340   23.9000   44.2960 C   0  0  0  0  0  0  0  0  0  0  0  0
   54.4440   24.6370   45.6480 S   0  0  0  0  0  0  0  0  0  0  0  0
   54.5310   23.7570   46.8640 O   0  0  0  0  0  0  0  0  0  0  0  0
   53.0000   24.7980   45.2620 O   0  0  0  0  0  0  0  0  0  0  0  0
   55.1120   26.1930   46.0000 N   0  0  0  0  0  0  0  0  0  0  0  0
   56.4500   26.3740   46.4750 C   0  0  0  0  0  0  0  0  0  0  0  0
   56.8570   25.6870   47.4530 O   0  0  0  0  0  0  0  0  0  0  0  0
   57.3590   27.3570   45.8310 C   0  0  0  0  0  0  0  0  0  0  0  0
   58.7480   27.1230   45.8290 C   0  0  0  0  0  0  0  0  0  0  0  0
   59.6220   28.0210   45.2160 C   0  0  0  0  0  0  0  0  0  0  0  0
   59.1270   29.1610   44.5850 C   0  0  0  0  0  0  0  0  0  0  0  0
   57.7500   29.4210   44.5750 C   0  0  0  0  0  0  0  0  0  0  0  0
   57.2230   30.6160   43.8260 C   0  0  0  0  0  0  0  0  0  0  0  0
   57.4640   31.8250   44.6060 N   0  0  0  0  0  0  0  0  0  0  0  0
   57.6040   33.0760   44.1190 C   0  0  0  0  0  0  0  0  0  0  0  0
   57.8760   33.9300   45.1710 C   0  0  0  0  0  0  0  0  0  0  0  0
   57.8900   33.0990   46.2720 C   0  0  0  0  0  0  0  0  0  0  0  0
   58.1130   33.4900   47.4890 N   0  0  0  0  0  0  0  0  0  0  0  0
   59.2020   32.6700   48.5620 S   0  0  0  0  0  0  0  0  0  0  0  0
   58.9270   31.1940   48.5140 O   0  0  0  0  0  0  0  0  0  0  0  0
   58.9790   33.1570   49.9660 O   0  0  0  0  0  0  0  0  0  0  0  0
   60.8680   32.9530   48.0650 C   0  0  0  0  0  0  0  0  0  0  0  0
   61.1310   33.5540   46.8260 C   0  0  0  0  0  0  0  0  0  0  0  0
   62.4480   33.8390   46.4490 C   0  0  0  0  0  0  0  0  0  0  0  0
   63.5060   33.5310   47.3090 C   0  0  0  0  0  0  0  0  0  0  0  0
   63.2480   32.9350   48.5490 C   0  0  0  0  0  0  0  0  0  0  0  0
   64.5720   32.5720   49.6410 Cl  0  0  0  0  0  0  0  0  0  0  0  0
   61.9320   32.6440   48.9270 C   0  0  0  0  0  0  0  0  0  0  0  0
   57.6460   31.8250   45.9160 N   0  0  0  0  0  0  0  0  0  0  0  0
   56.8660   28.5170   45.1910 C   0  0  0  0  0  0  0  0  0  0  0  0
   55.5310   28.7650   45.1430 F   0  0  0  0  0  0  0  0  0  0  0  0
   56.1247   23.2452   44.6911 H   0  0  0  0  0  0  0  0  0  0  0  0
   54.6410   23.3077   43.6804 H   0  0  0  0  0  0  0  0  0  0  0  0
   55.7867   24.6912   43.6804 H   0  0  0  0  0  0  0  0  0  0  0  0
   59.1482   26.2217   46.3164 H   0  0  0  0  0  0  0  0  0  0  0  0
   60.7050   27.8289   45.2307 H   0  0  0  0  0  0  0  0  0  0  0  0
   59.8200   29.8593   44.0929 H   0  0  0  0  0  0  0  0  0  0  0  0
   57.7367   30.6967   42.8567 H   0  0  0  0  0  0  0  0  0  0  0  0
   56.1422   30.4967   43.6599 H   0  0  0  0  0  0  0  0  0  0  0  0
   57.5163   33.3671   43.0618 H   0  0  0  0  0  0  0  0  0  0  0  0
   58.0422   35.0169   45.1381 H   0  0  0  0  0  0  0  0  0  0  0  0
   60.3003   33.8020   46.1489 H   0  0  0  0  0  0  0  0  0  0  0  0
   62.6511   34.3063   45.4741 H   0  0  0  0  0  0  0  0  0  0  0  0
   64.5407   33.7568   47.0115 H   0  0  0  0  0  0  0  0  0  0  0  0
   61.7314   32.1727   49.9005 H   0  0  0  0  0  0  0  0  0  0  0  0
  1  2  1  0
  2  3  2  0
  2  4  2  0
  2  5  1  0
  5  6  1  0
  6  7  2  0
  6  8  1  0
  8  9  2  0
  9 10  1  0
 10 11  2  0
 11 12  1  0
 12 13  1  0
 13 14  1  0
 14 15  1  0
 15 16  2  0
 16 17  1  0
 17 18  2  3
 18 19  1  0
 19 20  2  0
 19 21  2  0
 19 22  1  0
 22 23  2  0
 23 24  1  0
 24 25  2  0
 25 26  1  0
 26 27  1  0
 26 28  2  0
 17 29  1  0
 12 30  2  0
 30 31  1  0
 30  8  1  0
 29 14  1  0
 28 22  1  0
  1 32  1  0
  1 33  1  0
  1 34  1  0
  9 35  1  0
 10 36  1  0
 11 37  1  0
 13 38  1  0
 13 39  1  0
 15 40  1  0
 16 41  1  0
 23 42  1  0
 24 43  1  0
 25 44  1  0
 28 45  1  0
M  CHG  2   5  -1  29  -1
M  END
>  <UniqueID>  (78) 
70

>  <SMILES>  (78) 
CS(=O)(=O)[N-]C(=O)c1cccc(Cn2ccc(=NS(=O)(=O)c3cccc(Cl)c3)[n-]2)c1F

>  <Energy>  (78) 
77.45442179174069

>  <Genealogy>  (78) 
CS(=O)(=O)[N-]C(=O)c1cccc(Cn2ccc(=NS(=O)(=O)c3cccc(Cl)c3)[n-]2)c1F (protonated)
CS(=O)(=O)[N-]C(=O)c1cccc(Cn2ccc(=NS(=O)(=O)c3cccc(Cl)c3)[n-]2)c1F (3D coordinates assigned)
CS(=O)(=O)[N-]C(=O)c1cccc(Cn2ccc(=NS(=O)(=O)c3cccc(Cl)c3)[n-]2)c1F (optimized conformer: 77.45442179174069 kcal/mol)

>  <smiles>  (78) 
CS(=O)(=O)NC(=O)c1cccc(Cn2ccc(=NS(=O)(=O)c3cccc(Cl)c3)[nH]2)c1F

>  <score_type>  (78) 
oracle

>  <origin>  (78) 
adg

>  <m_score__min__energy>  (78) 
-13.460000000000001

>  <m_primary>  (78) 
energy

$$$$
78:0
     RDKit          3D

 51 53  0  0  0  0  0  0  0  0999 V2000
   58.0505   29.3773   43.3871 H   0  0  0  0  0  0  0  0  0  0  0  0
   57.2330   30.0850   43.5890 C   0  0  0  0  0  0  0  0  0  0  0  0
   55.9500   29.5240   44.0620 C   0  0  0  0  0  0  0  0  0  0  0  0
   54.9130   29.7120   43.3700 O   0  0  0  0  0  0  0  0  0  0  0  0
   55.8810   28.7220   45.2470 N   0  0  0  0  0  0  0  0  0  0  0  0
   56.8560   27.6950   45.5990 C   0  0  0  0  0  0  0  0  0  0  0  0
   56.4889   27.1309   46.4691 H   0  0  0  0  0  0  0  0  0  0  0  0
   56.9895   27.0227   44.7387 H   0  0  0  0  0  0  0  0  0  0  0  0
   58.1830   28.3190   45.9380 C   0  0  0  0  0  0  0  0  0  0  0  0
   58.3440   29.0600   47.1190 C   0  0  0  0  0  0  0  0  0  0  0  0
   57.4953   29.1863   47.8073 H   0  0  0  0  0  0  0  0  0  0  0  0
   59.5800   29.6380   47.4230 C   0  0  0  0  0  0  0  0  0  0  0  0
   59.7029   30.2138   48.3522 H   0  0  0  0  0  0  0  0  0  0  0  0
   60.6600   29.4860   46.5490 C   0  0  0  0  0  0  0  0  0  0  0  0
   61.6313   29.9409   46.7931 H   0  0  0  0  0  0  0  0  0  0  0  0
   60.5090   28.7560   45.3630 C   0  0  0  0  0  0  0  0  0  0  0  0
   61.6080   28.6160   44.4600 N   0  0  0  0  0  0  0  0  0  0  0  0
   62.5820   28.8440   44.7620 H   0  0  0  0  0  0  0  0  0  0  0  0
   61.4640   28.2470   43.4940 H   0  0  0  0  0  0  0  0  0  0  0  0
   59.2710   28.1700   45.0640 C   0  0  0  0  0  0  0  0  0  0  0  0
   59.1515   27.5891   44.1375 H   0  0  0  0  0  0  0  0  0  0  0  0
   57.4810   31.3880   43.3860 C   0  0  0  0  0  0  0  0  0  0  0  0
   57.3830   31.7800   42.3629 H   0  0  0  0  0  0  0  0  0  0  0  0
   57.8760   32.3230   44.4500 C   0  0  0  0  0  0  0  0  0  0  0  0
   57.7010   31.9760   45.7970 C   0  0  0  0  0  0  0  0  0  0  0  0
   57.2054   31.0298   46.0597 H   0  0  0  0  0  0  0  0  0  0  0  0
   58.1540   32.8280   46.8060 C   0  0  0  0  0  0  0  0  0  0  0  0
   57.9982   32.5571   47.8607 H   0  0  0  0  0  0  0  0  0  0  0  0
   58.8080   34.0300   46.4830 C   0  0  0  0  0  0  0  0  0  0  0  0
   59.4270   34.8200   47.5170 N   0  0  0  0  0  0  0  0  0  0  0  0
   58.8080   34.8340   48.3620 H   0  0  0  0  0  0  0  0  0  0  0  0
   59.5490   35.8130   47.2070 H   0  0  0  0  0  0  0  0  0  0  0  0
   60.7160   34.2540   47.8350 C   0  0  0  0  0  0  0  0  0  0  0  0
   61.1720   34.2250   49.1640 C   0  0  0  0  0  0  0  0  0  0  0  0
   60.5047   34.5466   49.9772 H   0  0  0  0  0  0  0  0  0  0  0  0
   62.4660   33.7910   49.4600 C   0  0  0  0  0  0  0  0  0  0  0  0
   62.8096   33.7712   50.5048 H   0  0  0  0  0  0  0  0  0  0  0  0
   63.3290   33.3810   48.4370 C   0  0  0  0  0  0  0  0  0  0  0  0
   64.6320   32.9910   48.7810 O   0  0  0  0  0  0  0  0  0  0  0  0
   64.9900   32.3990   50.0250 C   0  0  0  0  0  0  0  0  0  0  0  0
   64.6132   33.0221   50.8495 H   0  0  0  0  0  0  0  0  0  0  0  0
   64.5482   31.3940   50.0934 H   0  0  0  0  0  0  0  0  0  0  0  0
   66.0853   32.3235   50.0934 H   0  0  0  0  0  0  0  0  0  0  0  0
   62.8680   33.3820   47.1070 C   0  0  0  0  0  0  0  0  0  0  0  0
   63.5299   33.0397   46.2978 H   0  0  0  0  0  0  0  0  0  0  0  0
   61.5730   33.8160   46.8100 C   0  0  0  0  0  0  0  0  0  0  0  0
   61.2220   33.8149   45.7675 H   0  0  0  0  0  0  0  0  0  0  0  0
   58.9450   34.3910   45.1290 C   0  0  0  0  0  0  0  0  0  0  0  0
   59.4311   35.3412   44.8629 H   0  0  0  0  0  0  0  0  0  0  0  0
   58.4670   33.5490   44.1210 C   0  0  0  0  0  0  0  0  0  0  0  0
   58.5553   33.8502   43.0667 H   0  0  0  0  0  0  0  0  0  0  0  0
  1  2  1  0
  2  3  1  0
  3  4  2  0
  3  5  1  0
  5  6  1  0
  6  7  1  0
  6  8  1  0
  6  9  1  0
  9 10  2  0
 10 11  1  0
 10 12  1  0
 12 13  1  0
 12 14  2  0
 14 15  1  0
 14 16  1  0
 16 17  1  0
 17 18  1  0
 17 19  1  0
 16 20  2  0
 20 21  1  0
  2 22  2  0
 22 23  1  0
 22 24  1  0
 24 25  2  0
 25 26  1  0
 25 27  1  0
 27 28  1  0
 27 29  2  0
 29 30  1  0
 30 31  1  0
 30 32  1  0
 30 33  1  0
 33 34  2  0
 34 35  1  0
 34 36  1  0
 36 37  1  0
 36 38  2  0
 38 39  1  0
 39 40  1  0
 40 41  1  0
 40 42  1  0
 40 43  1  0
 38 44  1  0
 44 45  1  0
 44 46  2  0
 46 47  1  0
 29 48  1  0
 48 49  1  0
 48 50  2  0
 50 51  1  0
 20  9  1  0
 50 24  1  0
 46 33  1  0
M  CHG  2   5  -1  30   1
M  END
>  <UniqueID>  (79) 
71

>  <SMILES>  (79) 
COc1ccc([NH2+]c2ccc(/C=C\C(=O)[N-]Cc3cccc(N)c3)cc2)cc1

>  <Energy>  (79) 
53.85393050453492

>  <Genealogy>  (79) 
COc1ccc([NH2+]c2ccc(C=CC(=O)[N-]Cc3cccc(N)c3)cc2)cc1 (protonated)
COc1ccc([NH2+]c2ccc(/C=C\C(=O)[N-]Cc3cccc(N)c3)cc2)cc1 (cis-trans isomerization)
COc1ccc([NH2+]c2ccc(/C=C\C(=O)[N-]Cc3cccc(N)c3)cc2)cc1 (3D coordinates assigned)
COc1ccc([NH2+]c2ccc(/C=C\C(=O)[N-]Cc3cccc(N)c3)cc2)cc1 (optimized conformer: 53.85393050453492 kcal/mol)

>  <smiles>  (79) 
COc1ccc(Nc2ccc(C=CC(=O)NCc3cccc(N)c3)cc2)cc1

>  <score_type>  (79) 
oracle

>  <origin>  (79) 
adg

>  <m_score__min__energy>  (79) 
-9.2599999999999998

>  <m_primary>  (79) 
energy

$$$$
79:0
     RDKit          3D

 42 44  0  0  0  0  0  0  0  0999 V2000
   63.5430   32.2650   47.5510 N   0  0  0  0  0  0  0  0  0  0  0  0
   62.8030   33.3690   47.0230 C   0  0  0  0  0  0  0  0  0  0  0  0
   63.4290   34.3070   46.4590 O   0  0  0  0  0  0  0  0  0  0  0  0
   61.3220   33.4230   47.1090 C   0  0  0  0  0  0  0  0  0  0  0  0
   60.6880   33.3190   48.3600 C   0  0  0  0  0  0  0  0  0  0  0  0
   59.2960   33.3740   48.4560 C   0  0  0  0  0  0  0  0  0  0  0  0
   58.5190   33.5170   47.3060 C   0  0  0  0  0  0  0  0  0  0  0  0
   59.1310   33.5880   46.0440 C   0  0  0  0  0  0  0  0  0  0  0  0
   58.3850   33.7350   44.8650 O   0  0  0  0  0  0  0  0  0  0  0  0
   57.7810   32.6900   44.1490 C   0  0  0  0  0  0  0  0  0  0  0  0
   57.9050   32.6710   42.7560 C   0  0  0  0  0  0  0  0  0  0  0  0
   57.3390   31.6340   42.0120 C   0  0  0  0  0  0  0  0  0  0  0  0
   56.6450   30.6050   42.6540 C   0  0  0  0  0  0  0  0  0  0  0  0
   56.5070   30.6120   44.0540 C   0  0  0  0  0  0  0  0  0  0  0  0
   55.8380   29.5560   44.7590 N   0  0  0  0  0  0  0  0  0  0  0  0
   56.4460   28.3890   45.3280 C   0  0  0  0  0  0  0  0  0  0  0  0
   55.7420   27.3850   45.6220 O   0  0  0  0  0  0  0  0  0  0  0  0
   57.9060   28.3710   45.5680 C   0  0  0  0  0  0  0  0  0  0  0  0
   58.3840   28.8320   46.8080 C   0  0  0  0  0  0  0  0  0  0  0  0
   59.7540   28.9070   47.0620 C   0  0  0  0  0  0  0  0  0  0  0  0
   60.6690   28.5210   46.0830 C   0  0  0  0  0  0  0  0  0  0  0  0
   60.2150   28.0440   44.8530 C   0  0  0  0  0  0  0  0  0  0  0  0
   58.8390   27.9450   44.5860 C   0  0  0  0  0  0  0  0  0  0  0  0
   58.4210   27.3630   43.3440 N   0  0  0  0  0  0  0  0  0  0  0  0
   57.1010   31.6420   44.7960 C   0  0  0  0  0  0  0  0  0  0  0  0
   60.5280   33.5550   45.9540 C   0  0  0  0  0  0  0  0  0  0  0  0
   63.0720   31.3960   47.8820 H   0  0  0  0  0  0  0  0  0  0  0  0
   64.5870   32.2820   47.5290 H   0  0  0  0  0  0  0  0  0  0  0  0
   61.2933   33.1934   49.2699 H   0  0  0  0  0  0  0  0  0  0  0  0
   58.8108   33.3044   49.4408 H   0  0  0  0  0  0  0  0  0  0  0  0
   57.4236   33.5743   47.3881 H   0  0  0  0  0  0  0  0  0  0  0  0
   58.4511   33.4770   42.2441 H   0  0  0  0  0  0  0  0  0  0  0  0
   57.4397   31.6270   40.9166 H   0  0  0  0  0  0  0  0  0  0  0  0
   56.2056   29.7876   42.0634 H   0  0  0  0  0  0  0  0  0  0  0  0
   57.6694   29.1370   47.5866 H   0  0  0  0  0  0  0  0  0  0  0  0
   60.1128   29.2712   48.0360 H   0  0  0  0  0  0  0  0  0  0  0  0
   61.7487   28.5926   46.2805 H   0  0  0  0  0  0  0  0  0  0  0  0
   60.9417   27.7423   44.0843 H   0  0  0  0  0  0  0  0  0  0  0  0
   57.4270   27.1190   43.1530 H   0  0  0  0  0  0  0  0  0  0  0  0
   59.1310   27.0420   42.6470 H   0  0  0  0  0  0  0  0  0  0  0  0
   57.0350   31.6309   45.8940 H   0  0  0  0  0  0  0  0  0  0  0  0
   61.0109   33.6332   44.9688 H   0  0  0  0  0  0  0  0  0  0  0  0
  1  2  1  0
  2  3  2  0
  2  4  1  0
  4  5  2  0
  5  6  1  0
  6  7  2  0
  7  8  1  0
  8  9  1  0
  9 10  1  0
 10 11  2  0
 11 12  1  0
 12 13  2  0
 13 14  1  0
 14 15  1  0
 15 16  1  0
 16 17  2  0
 16 18  1  0
 18 19  2  0
 19 20  1  0
 20 21  2  0
 21 22  1  0
 22 23  2  0
 23 24  1  0
 14 25  2  0
  8 26  2  0
 26  4  1  0
 25 10  1  0
 23 18  1  0
  1 27  1  0
  1 28  1  0
  5 29  1  0
  6 30  1  0
  7 31  1  0
 11 32  1  0
 12 33  1  0
 13 34  1  0
 19 35  1  0
 20 36  1  0
 21 37  1  0
 22 38  1  0
 24 39  1  0
 24 40  1  0
 25 41  1  0
 26 42  1  0
M  CHG  1  15  -1
M  END
>  <UniqueID>  (80) 
72

>  <SMILES>  (80) 
NC(=O)c1cccc(Oc2cccc([N-]C(=O)c3ccccc3N)c2)c1

>  <Energy>  (80) 
61.39894027481489

>  <Genealogy>  (80) 
NC(=O)c1cccc(Oc2cccc([N-]C(=O)c3ccccc3N)c2)c1 (protonated)
NC(=O)c1cccc(Oc2cccc([N-]C(=O)c3ccccc3N)c2)c1 (3D coordinates assigned)
NC(=O)c1cccc(Oc2cccc([N-]C(=O)c3ccccc3N)c2)c1 (optimized conformer: 61.39894027481489 kcal/mol)

>  <smiles>  (80) 
NC(=O)c1cccc(Oc2cccc(NC(=O)c3ccccc3N)c2)c1

>  <score_type>  (80) 
oracle

>  <origin>  (80) 
adg

>  <m_score__min__energy>  (80) 
-10.84

>  <m_primary>  (80) 
energy

$$$$
80:0
     RDKit          3D

 51 54  0  0  0  0  0  0  0  0999 V2000
   56.5230   34.6130   44.8760 O   0  0  0  0  0  0  0  0  0  0  0  0
   57.2850   33.6460   45.1390 C   0  0  0  0  0  0  0  0  0  0  0  0
   57.3170   32.5300   44.2370 N   0  0  0  0  0  0  0  0  0  0  0  0
   57.4060   31.1470   44.6070 C   0  0  0  0  0  0  0  0  0  0  0  0
   56.3140   30.3080   44.3590 C   0  0  0  0  0  0  0  0  0  0  0  0
   56.3670   28.9550   44.7080 C   0  0  0  0  0  0  0  0  0  0  0  0
   57.5090   28.4250   45.3330 C   0  0  0  0  0  0  0  0  0  0  0  0
   57.5680   26.9870   45.6870 C   0  0  0  0  0  0  0  0  0  0  0  0
   58.8050   26.3180   45.6840 C   0  0  0  0  0  0  0  0  0  0  0  0
   58.8820   24.9650   46.0260 C   0  0  0  0  0  0  0  0  0  0  0  0
   57.7250   24.2640   46.3730 C   0  0  0  0  0  0  0  0  0  0  0  0
   56.4880   24.9140   46.3720 C   0  0  0  0  0  0  0  0  0  0  0  0
   56.4020   26.2670   46.0270 C   0  0  0  0  0  0  0  0  0  0  0  0
   55.1530   26.8800   46.0020 O   0  0  0  0  0  0  0  0  0  0  0  0
   58.5970   29.2730   45.6000 C   0  0  0  0  0  0  0  0  0  0  0  0
   58.5420   30.6260   45.2500 C   0  0  0  0  0  0  0  0  0  0  0  0
   58.1530   33.7090   46.3380 C   0  0  0  0  0  0  0  0  0  0  0  0
   59.1900   34.6530   46.4260 C   0  0  0  0  0  0  0  0  0  0  0  0
   60.0200   34.6910   47.5490 C   0  0  0  0  0  0  0  0  0  0  0  0
   59.8200   33.7920   48.6080 C   0  0  0  0  0  0  0  0  0  0  0  0
   60.7470   33.8100   49.7940 C   0  0  0  0  0  0  0  0  0  0  0  0
   62.1540   33.7340   49.3500 N   0  0  0  0  0  0  0  0  0  0  0  0
   62.3260   32.7350   48.2790 C   0  0  0  0  0  0  0  0  0  0  0  0
   63.8000   32.6980   47.8200 C   0  0  0  0  0  0  0  0  0  0  0  0
   64.6460   33.4600   48.6620 O   0  0  0  0  0  0  0  0  0  0  0  0
   64.4600   33.0680   50.0070 C   0  0  0  0  0  0  0  0  0  0  0  0
   63.0360   33.4070   50.4890 C   0  0  0  0  0  0  0  0  0  0  0  0
   58.7720   32.8620   48.5320 C   0  0  0  0  0  0  0  0  0  0  0  0
   57.9410   32.8260   47.4090 C   0  0  0  0  0  0  0  0  0  0  0  0
   55.4081   30.7154   43.8865 H   0  0  0  0  0  0  0  0  0  0  0  0
   55.5093   28.3011   44.4920 H   0  0  0  0  0  0  0  0  0  0  0  0
   59.7197   26.8642   45.4102 H   0  0  0  0  0  0  0  0  0  0  0  0
   59.8549   24.4518   46.0219 H   0  0  0  0  0  0  0  0  0  0  0  0
   57.7874   23.2005   46.6470 H   0  0  0  0  0  0  0  0  0  0  0  0
   55.5778   24.3593   46.6437 H   0  0  0  0  0  0  0  0  0  0  0  0
   59.4973   28.8704   46.0872 H   0  0  0  0  0  0  0  0  0  0  0  0
   59.3920   31.2856   45.4791 H   0  0  0  0  0  0  0  0  0  0  0  0
   59.3494   35.3672   45.6047 H   0  0  0  0  0  0  0  0  0  0  0  0
   60.8340   35.4289   47.6035 H   0  0  0  0  0  0  0  0  0  0  0  0
   60.5950   34.7418   50.3585 H   0  0  0  0  0  0  0  0  0  0  0  0
   60.5270   32.9411   50.4317 H   0  0  0  0  0  0  0  0  0  0  0  0
   62.0376   31.7430   48.6569 H   0  0  0  0  0  0  0  0  0  0  0  0
   61.6896   33.0095   47.4248 H   0  0  0  0  0  0  0  0  0  0  0  0
   64.1453   31.6536   47.8239 H   0  0  0  0  0  0  0  0  0  0  0  0
   63.8487   33.1344   46.8114 H   0  0  0  0  0  0  0  0  0  0  0  0
   64.6194   31.9828   50.0908 H   0  0  0  0  0  0  0  0  0  0  0  0
   65.1812   33.6129   50.6339 H   0  0  0  0  0  0  0  0  0  0  0  0
   62.6227   32.5409   51.0266 H   0  0  0  0  0  0  0  0  0  0  0  0
   63.0903   34.2829   51.1522 H   0  0  0  0  0  0  0  0  0  0  0  0
   58.6038   32.1580   49.3603 H   0  0  0  0  0  0  0  0  0  0  0  0
   57.1151   32.1009   47.3637 H   0  0  0  0  0  0  0  0  0  0  0  0
  1  2  2  0
  2  3  1  0
  3  4  1  0
  4  5  2  0
  5  6  1  0
  6  7  2  0
  7  8  1  0
  8  9  2  0
  9 10  1  0
 10 11  2  0
 11 12  1  0
 12 13  2  0
 13 14  1  0
  7 15  1  0
 15 16  2  0
  2 17  1  0
 17 18  2  0
 18 19  1  0
 19 20  2  0
 20 21  1  0
 21 22  1  0
 22 23  1  0
 23 24  1  0
 24 25  1  0
 25 26  1  0
 26 27  1  0
 20 28  1  0
 28 29  2  0
 16  4  1  0
 29 17  1  0
 13  8  1  0
 27 22  1  0
  5 30  1  0
  6 31  1  0
  9 32  1  0
 10 33  1  0
 11 34  1  0
 12 35  1  0
 15 36  1  0
 16 37  1  0
 18 38  1  0
 19 39  1  0
 21 40  1  0
 21 41  1  0
 23 42  1  0
 23 43  1  0
 24 44  1  0
 24 45  1  0
 26 46  1  0
 26 47  1  0
 27 48  1  0
 27 49  1  0
 28 50  1  0
 29 51  1  0
M  CHG  2   3  -1  14  -1
M  END
>  <UniqueID>  (81) 
73

>  <SMILES>  (81) 
O=C([N-]c1ccc(-c2ccccc2[O-])cc1)c1ccc(CN2CCOCC2)cc1

>  <Energy>  (81) 
76.70896532010808

>  <Genealogy>  (81) 
O=C([N-]c1ccc(-c2ccccc2[O-])cc1)c1ccc(CN2CCOCC2)cc1 (protonated)
O=C([N-]c1ccc(-c2ccccc2[O-])cc1)c1ccc(CN2CCOCC2)cc1 (3D coordinates assigned)
O=C([N-]c1ccc(-c2ccccc2[O-])cc1)c1ccc(CN2CCOCC2)cc1 (nonaromatic ring conformer: 76.70896532010808 kcal/mol)

>  <smiles>  (81) 
O=C(Nc1ccc(-c2ccccc2O)cc1)c1ccc(CN2CCOCC2)cc1

>  <score_type>  (81) 
oracle

>  <origin>  (81) 
adg

>  <m_score__min__energy>  (81) 
-14.1

>  <m_primary>  (81) 
energy

$$$$
81:0
     RDKit          3D

 46 48  0  0  0  0  0  0  0  0999 V2000
   53.7370   24.4450   46.0010 O   0  0  0  0  0  0  0  0  0  0  0  0
   54.8740   24.9230   45.7440 C   0  0  0  0  0  0  0  0  0  0  0  0
   55.0980   26.3220   45.9730 N   0  0  0  0  0  0  0  0  0  0  0  0
   56.3730   26.9720   46.0600 C   0  0  0  0  0  0  0  0  0  0  0  0
   57.3320   26.4640   46.9390 C   0  0  0  0  0  0  0  0  0  0  0  0
   58.5820   27.0750   47.0550 C   0  0  0  0  0  0  0  0  0  0  0  0
   58.9050   28.1980   46.2690 C   0  0  0  0  0  0  0  0  0  0  0  0
   60.1310   28.8750   46.4010 O   0  0  0  0  0  0  0  0  0  0  0  0
   60.4700   29.7920   47.4410 C   0  0  0  0  0  0  0  0  0  0  0  0
   59.9820   31.1770   47.1110 C   0  0  0  0  0  0  0  0  0  0  0  0
   58.6110   31.4720   47.1800 C   0  0  0  0  0  0  0  0  0  0  0  0
   58.1490   32.7570   46.8760 C   0  0  0  0  0  0  0  0  0  0  0  0
   59.0530   33.7570   46.5110 C   0  0  0  0  0  0  0  0  0  0  0  0
   60.4210   33.4760   46.4540 C   0  0  0  0  0  0  0  0  0  0  0  0
   60.8860   32.1930   46.7570 C   0  0  0  0  0  0  0  0  0  0  0  0
   57.9590   28.6770   45.3390 C   0  0  0  0  0  0  0  0  0  0  0  0
   58.2440   29.8130   44.5080 N   0  0  0  0  0  0  0  0  0  0  0  0
   57.2270   30.7130   44.0430 C   0  0  0  0  0  0  0  0  0  0  0  0
   56.0580   30.6470   44.5110 O   0  0  0  0  0  0  0  0  0  0  0  0
   57.5750   31.7920   43.0660 C   0  0  0  0  0  0  0  0  0  0  0  0
   58.8690   31.6260   42.6050 F   0  0  0  0  0  0  0  0  0  0  0  0
   56.7020   31.7410   41.9960 F   0  0  0  0  0  0  0  0  0  0  0  0
   57.4730   33.0280   43.6780 F   0  0  0  0  0  0  0  0  0  0  0  0
   56.6980   28.0720   45.2500 C   0  0  0  0  0  0  0  0  0  0  0  0
   55.9180   24.0420   45.1700 C   0  0  0  0  0  0  0  0  0  0  0  0
   55.8840   23.6740   43.8120 C   0  0  0  0  0  0  0  0  0  0  0  0
   56.8760   22.8440   43.2800 C   0  0  0  0  0  0  0  0  0  0  0  0
   57.9020   22.3640   44.0980 C   0  0  0  0  0  0  0  0  0  0  0  0
   57.9350   22.7090   45.4510 C   0  0  0  0  0  0  0  0  0  0  0  0
   56.9460   23.5400   45.9870 C   0  0  0  0  0  0  0  0  0  0  0  0
   57.1007   25.5754   47.5448 H   0  0  0  0  0  0  0  0  0  0  0  0
   59.3204   26.6760   47.7660 H   0  0  0  0  0  0  0  0  0  0  0  0
   60.0047   29.4599   48.3808 H   0  0  0  0  0  0  0  0  0  0  0  0
   61.5647   29.8189   47.5450 H   0  0  0  0  0  0  0  0  0  0  0  0
   57.8968   30.6890   47.4745 H   0  0  0  0  0  0  0  0  0  0  0  0
   57.0729   32.9799   46.9245 H   0  0  0  0  0  0  0  0  0  0  0  0
   58.6883   34.7660   46.2683 H   0  0  0  0  0  0  0  0  0  0  0  0
   61.1326   34.2654   46.1704 H   0  0  0  0  0  0  0  0  0  0  0  0
   61.9640   31.9778   46.7182 H   0  0  0  0  0  0  0  0  0  0  0  0
   59.2440   30.0810   44.3640 H   0  0  0  0  0  0  0  0  0  0  0  0
   55.9555   28.4627   44.5386 H   0  0  0  0  0  0  0  0  0  0  0  0
   55.0731   24.0411   43.1657 H   0  0  0  0  0  0  0  0  0  0  0  0
   56.8484   22.5685   42.2154 H   0  0  0  0  0  0  0  0  0  0  0  0
   58.6835   21.7146   43.6766 H   0  0  0  0  0  0  0  0  0  0  0  0
   58.7399   22.3266   46.0959 H   0  0  0  0  0  0  0  0  0  0  0  0
   56.9727   23.8025   47.0549 H   0  0  0  0  0  0  0  0  0  0  0  0
  1  2  2  0
  2  3  1  0
  3  4  1  0
  4  5  2  0
  5  6  1  0
  6  7  2  0
  7  8  1  0
  8  9  1  0
  9 10  1  0
 10 11  2  0
 11 12  1  0
 12 13  2  0
 13 14  1  0
 14 15  2  0
  7 16  1  0
 16 17  1  0
 17 18  1  0
 18 19  2  0
 18 20  1  0
 20 21  1  0
 20 22  1  0
 20 23  1  0
 16 24  2  0
  2 25  1  0
 25 26  2  0
 26 27  1  0
 27 28  2  0
 28 29  1  0
 29 30  2  0
 24  4  1  0
 30 25  1  0
 15 10  1  0
  5 31  1  0
  6 32  1  0
  9 33  1  0
  9 34  1  0
 11 35  1  0
 12 36  1  0
 13 37  1  0
 14 38  1  0
 15 39  1  0
 17 40  1  0
 24 41  1  0
 26 42  1  0
 27 43  1  0
 28 44  1  0
 29 45  1  0
 30 46  1  0
M  CHG  1   3  -1
M  END
>  <UniqueID>  (82) 
74

>  <SMILES>  (82) 
O=C([N-]c1ccc(OCc2ccccc2)c(NC(=O)C(F)(F)F)c1)c1ccccc1

>  <Energy>  (82) 
58.25863854982112

>  <Genealogy>  (82) 
O=C([N-]c1ccc(OCc2ccccc2)c(NC(=O)C(F)(F)F)c1)c1ccccc1 (protonated)
O=C([N-]c1ccc(OCc2ccccc2)c(NC(=O)C(F)(F)F)c1)c1ccccc1 (3D coordinates assigned)
O=C([N-]c1ccc(OCc2ccccc2)c(NC(=O)C(F)(F)F)c1)c1ccccc1 (optimized conformer: 58.25863854982112 kcal/mol)

>  <smiles>  (82) 
O=C(Nc1ccc(OCc2ccccc2)c(NC(=O)C(F)(F)F)c1)c1ccccc1

>  <score_type>  (82) 
oracle

>  <origin>  (82) 
adg

>  <m_score__min__energy>  (82) 
-10.07

>  <m_primary>  (82) 
energy

$$$$
82:0
     RDKit          3D

 65 69  0  0  0  0  0  0  0  0999 V2000
   52.3284   28.2188   52.8917 H   0  0  0  0  0  0  0  0  0  0  0  0
   53.1630   28.9200   52.7440 C   0  0  0  0  0  0  0  0  0  0  0  0
   54.3340   28.7800   53.4930 C   0  0  0  0  0  0  0  0  0  0  0  0
   54.4212   27.9669   54.2288 H   0  0  0  0  0  0  0  0  0  0  0  0
   55.3960   29.6720   53.3090 C   0  0  0  0  0  0  0  0  0  0  0  0
   56.3123   29.5646   53.9081 H   0  0  0  0  0  0  0  0  0  0  0  0
   55.2960   30.7040   52.3620 C   0  0  0  0  0  0  0  0  0  0  0  0
   56.4230   31.6860   52.1870 C   0  0  0  0  0  0  0  0  0  0  0  0
   56.6573   32.1473   53.1578 H   0  0  0  0  0  0  0  0  0  0  0  0
   56.1167   32.4601   51.4680 H   0  0  0  0  0  0  0  0  0  0  0  0
   57.6390   30.9880   51.6650 C   0  0  0  0  0  0  0  0  0  0  0  0
   57.5410   29.8000   51.2500 O   0  0  0  0  0  0  0  0  0  0  0  0
   58.8990   31.6770   51.6710 N   0  0  0  0  0  0  0  0  0  0  0  0
   59.3660   32.4780   50.7600 C   0  0  0  0  0  0  0  0  0  0  0  0
   60.2530   33.4520   51.0540 N   0  0  0  0  0  0  0  0  0  0  0  0
   60.5790   34.2040   50.0040 N   0  0  0  0  0  0  0  0  0  0  0  0
   59.9510   33.8350   48.8650 C   0  0  0  0  0  0  0  0  0  0  0  0
   60.1130   34.5510   47.5620 C   0  0  0  0  0  0  0  0  0  0  0  0
   60.9879   34.1406   47.0364 H   0  0  0  0  0  0  0  0  0  0  0  0
   60.2464   35.6221   47.7742 H   0  0  0  0  0  0  0  0  0  0  0  0
   58.8780   34.3920   46.6690 C   0  0  0  0  0  0  0  0  0  0  0  0
   58.0814   35.0520   47.0429 H   0  0  0  0  0  0  0  0  0  0  0  0
   58.5671   33.3373   46.7017 H   0  0  0  0  0  0  0  0  0  0  0  0
   59.2360   34.8250   44.9240 S   0  0  0  0  0  0  0  0  0  0  0  0
   58.5020   33.3270   44.1630 C   0  0  0  0  0  0  0  0  0  0  0  0
   59.2305   32.5042   44.2109 H   0  0  0  0  0  0  0  0  0  0  0  0
   58.2467   33.5518   43.1169 H   0  0  0  0  0  0  0  0  0  0  0  0
   57.2270   32.9120   44.9010 C   0  0  0  0  0  0  0  0  0  0  0  0
   56.3644   33.3876   44.4113 H   0  0  0  0  0  0  0  0  0  0  0  0
   57.3244   33.2356   45.9478 H   0  0  0  0  0  0  0  0  0  0  0  0
   57.0240   31.4260   44.8980 C   0  0  0  0  0  0  0  0  0  0  0  0
   55.8250   30.8380   44.6870 N   0  0  0  0  0  0  0  0  0  0  0  0
   55.8890   29.5080   44.6180 N   0  0  0  0  0  0  0  0  0  0  0  0
   57.1410   29.0250   44.7630 C   0  0  0  0  0  0  0  0  0  0  0  0
   57.4100   27.7550   44.6660 N   0  0  0  0  0  0  0  0  0  0  0  0
   58.3870   27.0230   45.4210 C   0  0  0  0  0  0  0  0  0  0  0  0
   58.7250   25.8520   45.0900 O   0  0  0  0  0  0  0  0  0  0  0  0
   59.0000   27.6300   46.6080 C   0  0  0  0  0  0  0  0  0  0  0  0
   58.6390   27.3520   47.8730 N   0  0  0  0  0  0  0  0  0  0  0  0
   59.3590   28.1420   48.6570 N   0  0  0  0  0  0  0  0  0  0  0  0
   60.1530   28.9200   47.9360 N   0  0  0  0  0  0  0  0  0  0  0  0
   61.0450   29.9030   48.5000 C   0  0  0  0  0  0  0  0  0  0  0  0
   61.6110   30.8910   47.6730 C   0  0  0  0  0  0  0  0  0  0  0  0
   61.3588   30.9154   46.6026 H   0  0  0  0  0  0  0  0  0  0  0  0
   62.4910   31.8420   48.1990 C   0  0  0  0  0  0  0  0  0  0  0  0
   62.9272   32.6080   47.5409 H   0  0  0  0  0  0  0  0  0  0  0  0
   62.8190   31.8230   49.5600 C   0  0  0  0  0  0  0  0  0  0  0  0
   63.9320   33.0110   50.2330 S   0  0  0  0  0  0  0  0  0  0  0  0
   64.7040   32.3900   51.3640 O   0  0  0  0  0  0  0  0  0  0  0  0
   64.8990   33.4710   49.1780 O   0  0  0  0  0  0  0  0  0  0  0  0
   63.0500   34.3800   50.8150 N   0  0  0  0  0  0  0  0  0  0  0  0
   62.2530   34.0150   51.3820 H   0  0  0  0  0  0  0  0  0  0  0  0
   62.6380   34.8520   49.9790 H   0  0  0  0  0  0  0  0  0  0  0  0
   62.2590   30.8450   50.3900 C   0  0  0  0  0  0  0  0  0  0  0  0
   62.5120   30.8255   51.4603 H   0  0  0  0  0  0  0  0  0  0  0  0
   61.3800   29.8930   49.8660 C   0  0  0  0  0  0  0  0  0  0  0  0
   60.9463   29.1290   50.5279 H   0  0  0  0  0  0  0  0  0  0  0  0
   59.9550   28.6240   46.6360 C   0  0  0  0  0  0  0  0  0  0  0  0
   60.4552   29.0835   45.7707 H   0  0  0  0  0  0  0  0  0  0  0  0
   58.2570   30.2770   44.9710 S   0  0  0  0  0  0  0  0  0  0  0  0
   58.9370   32.5130   49.1230 S   0  0  0  0  0  0  0  0  0  0  0  0
   54.1120   30.8440   51.6190 C   0  0  0  0  0  0  0  0  0  0  0  0
   54.0182   31.6592   50.8864 H   0  0  0  0  0  0  0  0  0  0  0  0
   53.0520   29.9510   51.8070 C   0  0  0  0  0  0  0  0  0  0  0  0
   52.1302   30.0603   51.2168 H   0  0  0  0  0  0  0  0  0  0  0  0
  1  2  1  0
  2  3  2  0
  3  4  1  0
  3  5  1  0
  5  6  1  0
  5  7  2  0
  7  8  1  0
  8  9  1  0
  8 10  1  0
  8 11  1  0
 11 12  2  0
 11 13  1  0
 13 14  2  0
 14 15  1  0
 15 16  1  0
 16 17  2  0
 17 18  1  0
 18 19  1  0
 18 20  1  0
 18 21  1  0
 21 22  1  0
 21 23  1  0
 21 24  1  0
 24 25  1  0
 25 26  1  0
 25 27  1  0
 25 28  1  0
 28 29  1  0
 28 30  1  0
 28 31  1  0
 31 32  2  0
 32 33  1  0
 33 34  1  0
 34 35  2  3
 35 36  1  0
 36 37  2  0
 36 38  1  0
 38 39  1  0
 39 40  2  0
 40 41  1  0
 41 42  1  0
 42 43  2  0
 43 44  1  0
 43 45  1  0
 45 46  1  0
 45 47  2  0
 47 48  1  0
 48 49  2  0
 48 50  2  0
 48 51  1  0
 51 52  1  0
 51 53  1  0
 47 54  1  0
 54 55  1  0
 54 56  2  0
 56 57  1  0
 41 58  1  0
 58 59  1  0
 34 60  1  0
 17 61  1  0
  7 62  1  0
 62 63  1  0
 62 64  2  0
 64 65  1  0
 64  2  1  0
 61 14  1  0
 60 31  1  0
 58 38  2  0
 56 42  1  0
M  CHG  2  15  -1  33  -1
M  END
>  <UniqueID>  (83) 
75

>  <SMILES>  (83) 
NS(=O)(=O)c1ccc(-n2cc(C(=O)N=c3[n-]nc(CCSCCc4n[n-]/c(=N/C(=O)Cc5ccccc5)s4)s3)nn2)cc1

>  <Energy>  (83) 
172.14011312949427

>  <Genealogy>  (83) 
NS(=O)(=O)c1ccc(-n2cc(C(=O)N=c3[n-]nc(CCSCCc4n[n-]c(=NC(=O)Cc5ccccc5)s4)s3)nn2)cc1 (protonated)
NS(=O)(=O)c1ccc(-n2cc(C(=O)N=c3[n-]nc(CCSCCc4n[n-]/c(=N/C(=O)Cc5ccccc5)s4)s3)nn2)cc1 (cis-trans isomerization)
NS(=O)(=O)c1ccc(-n2cc(C(=O)N=c3[n-]nc(CCSCCc4n[n-]/c(=N/C(=O)Cc5ccccc5)s4)s3)nn2)cc1 (3D coordinates assigned)
NS(=O)(=O)c1ccc(-n2cc(C(=O)N=c3[n-]nc(CCSCCc4n[n-]/c(=N/C(=O)Cc5ccccc5)s4)s3)nn2)cc1 (optimized conformer: 172.14011312949427 kcal/mol)

>  <smiles>  (83) 
NS(=O)(=O)c1ccc(-n2cc(C(=O)N=c3[nH]nc(CCSCCc4n[nH]c(=NC(=O)Cc5ccccc5)s4)s3)nn2)cc1

>  <score_type>  (83) 
oracle

>  <origin>  (83) 
adg

>  <m_score__min__energy>  (83) 
-11.699999999999999

>  <m_primary>  (83) 
energy

$$$$
83:0
     RDKit          3D

 34 35  0  0  0  0  0  0  0  0999 V2000
   57.3910   31.2570   42.7770 C   0  0  0  0  0  0  0  0  0  0  0  0
   56.9000   31.1790   44.4790 S   0  0  0  0  0  0  0  0  0  0  0  0
   57.8930   30.3240   45.2120 O   0  0  0  0  0  0  0  0  0  0  0  0
   55.5730   30.4970   44.5240 O   0  0  0  0  0  0  0  0  0  0  0  0
   56.8870   32.7210   45.2240 N   0  0  0  0  0  0  0  0  0  0  0  0
   57.9350   33.1630   46.1000 C   0  0  0  0  0  0  0  0  0  0  0  0
   58.1930   32.5060   47.2870 C   0  0  0  0  0  0  0  0  0  0  0  0
   59.2020   32.9240   48.1390 C   0  0  0  0  0  0  0  0  0  0  0  0
   59.9610   34.0250   47.7870 C   0  0  0  0  0  0  0  0  0  0  0  0
   61.0630   34.5550   48.6270 C   0  0  0  0  0  0  0  0  0  0  0  0
   62.2910   33.7730   48.3580 C   0  0  0  0  0  0  0  0  0  0  0  0
   63.1480   33.1590   49.2730 C   0  0  0  0  0  0  0  0  0  0  0  0
   62.9540   33.1920   50.7580 C   0  0  0  0  0  0  0  0  0  0  0  0
   63.2740   34.4210   51.2630 F   0  0  0  0  0  0  0  0  0  0  0  0
   61.6710   32.8340   51.0770 F   0  0  0  0  0  0  0  0  0  0  0  0
   63.8370   32.2700   51.3010 F   0  0  0  0  0  0  0  0  0  0  0  0
   64.1360   32.5610   48.5740 N   0  0  0  0  0  0  0  0  0  0  0  0
   63.9650   32.7530   47.2790 N   0  0  0  0  0  0  0  0  0  0  0  0
   62.8520   33.4860   47.1150 C   0  0  0  0  0  0  0  0  0  0  0  0
   62.4190   33.8390   45.9840 O   0  0  0  0  0  0  0  0  0  0  0  0
   59.7140   34.7000   46.5960 C   0  0  0  0  0  0  0  0  0  0  0  0
   58.6950   34.2620   45.7530 C   0  0  0  0  0  0  0  0  0  0  0  0
   58.4757   31.4293   42.7158 H   0  0  0  0  0  0  0  0  0  0  0  0
   57.1419   30.3080   42.2796 H   0  0  0  0  0  0  0  0  0  0  0  0
   56.8600   32.0821   42.2796 H   0  0  0  0  0  0  0  0  0  0  0  0
   56.1100   33.4310   45.0810 H   0  0  0  0  0  0  0  0  0  0  0  0
   57.5842   31.6320   47.5618 H   0  0  0  0  0  0  0  0  0  0  0  0
   59.3963   32.3889   49.0802 H   0  0  0  0  0  0  0  0  0  0  0  0
   61.2380   35.6129   48.3817 H   0  0  0  0  0  0  0  0  0  0  0  0
   60.7939   34.4714   49.6903 H   0  0  0  0  0  0  0  0  0  0  0  0
   64.9160   32.0260   49.0030 H   0  0  0  0  0  0  0  0  0  0  0  0
   64.6170   32.3750   46.5330 H   0  0  0  0  0  0  0  0  0  0  0  0
   60.3205   35.5756   46.3211 H   0  0  0  0  0  0  0  0  0  0  0  0
   58.4958   34.7923   44.8101 H   0  0  0  0  0  0  0  0  0  0  0  0
  1  2  1  0
  2  3  2  0
  2  4  2  0
  2  5  1  0
  5  6  1  0
  6  7  2  0
  7  8  1  0
  8  9  2  0
  9 10  1  0
 10 11  1  0
 11 12  2  0
 12 13  1  0
 13 14  1  0
 13 15  1  0
 13 16  1  0
 12 17  1  0
 17 18  1  0
 18 19  1  0
 19 20  2  0
  9 21  1  0
 21 22  2  0
 22  6  1  0
 19 11  1  0
  1 23  1  0
  1 24  1  0
  1 25  1  0
  5 26  1  0
  7 27  1  0
  8 28  1  0
 10 29  1  0
 10 30  1  0
 17 31  1  0
 18 32  1  0
 21 33  1  0
 22 34  1  0
M  END
>  <smiles>  (84) 
CS(=O)(=O)Nc1ccc(Cc2c(C(F)(F)F)[nH][nH]c2=O)cc1

>  <score_type>  (84) 
oracle

>  <origin>  (84) 
adg

>  <m_score__min__energy>  (84) 
-7.29

>  <m_primary>  (84) 
energy

$$$$
84:0
     RDKit          3D

 32 34  0  0  0  0  0  0  0  0999 V2000
   60.9560   30.8070   46.7440 C   0  0  0  0  0  0  0  0  0  0  0  0
   60.2060   29.6110   47.1130 N   0  0  0  0  0  0  0  0  0  0  0  0
   60.1160   29.0800   48.3480 C   0  0  0  0  0  0  0  0  0  0  0  0
   59.3670   27.9250   48.2690 C   0  0  0  0  0  0  0  0  0  0  0  0
   59.0070   27.7300   46.9860 N   0  0  0  0  0  0  0  0  0  0  0  0
   59.5390   28.7610   46.3040 C   0  0  0  0  0  0  0  0  0  0  0  0
   59.3210   28.9830   44.5340 S   0  0  0  0  0  0  0  0  0  0  0  0
   57.8320   30.0320   44.6680 C   0  0  0  0  0  0  0  0  0  0  0  0
   56.6340   29.2130   45.0730 C   0  0  0  0  0  0  0  0  0  0  0  0
   55.4980   29.6030   44.6940 O   0  0  0  0  0  0  0  0  0  0  0  0
   56.6990   28.0770   45.9510 N   0  0  0  0  0  0  0  0  0  0  0  0
   56.3590   26.8420   45.7240 C   0  0  0  0  0  0  0  0  0  0  0  0
   55.1260   26.3330   45.9830 N   0  0  0  0  0  0  0  0  0  0  0  0
   55.2620   25.0480   45.6280 C   0  0  0  0  0  0  0  0  0  0  0  0
   54.2990   24.0430   45.6740 C   0  0  0  0  0  0  0  0  0  0  0  0
   54.6770   22.7560   45.2500 C   0  0  0  0  0  0  0  0  0  0  0  0
   55.9940   22.5110   44.7960 C   0  0  0  0  0  0  0  0  0  0  0  0
   56.9410   23.5530   44.7620 C   0  0  0  0  0  0  0  0  0  0  0  0
   56.5290   24.8140   45.1880 C   0  0  0  0  0  0  0  0  0  0  0  0
   57.2540   25.9400   45.2410 N   0  0  0  0  0  0  0  0  0  0  0  0
   61.2838   31.3297   47.6547 H   0  0  0  0  0  0  0  0  0  0  0  0
   61.8357   30.5193   46.1496 H   0  0  0  0  0  0  0  0  0  0  0  0
   60.3139   31.4736   46.1496 H   0  0  0  0  0  0  0  0  0  0  0  0
   60.5634   29.4965   49.2626 H   0  0  0  0  0  0  0  0  0  0  0  0
   59.1066   27.2710   49.1142 H   0  0  0  0  0  0  0  0  0  0  0  0
   58.4410   26.9410   46.6030 H   0  0  0  0  0  0  0  0  0  0  0  0
   58.0074   30.8121   45.4235 H   0  0  0  0  0  0  0  0  0  0  0  0
   57.6322   30.4868   43.6866 H   0  0  0  0  0  0  0  0  0  0  0  0
   53.2785   24.2484   46.0294 H   0  0  0  0  0  0  0  0  0  0  0  0
   53.9444   21.9358   45.2717 H   0  0  0  0  0  0  0  0  0  0  0  0
   56.2802   21.5009   44.4676 H   0  0  0  0  0  0  0  0  0  0  0  0
   57.9689   23.3776   44.4117 H   0  0  0  0  0  0  0  0  0  0  0  0
  1  2  1  0
  2  3  1  0
  3  4  2  0
  4  5  1  0
  5  6  2  0
  6  7  1  0
  7  8  1  0
  8  9  1  0
  9 10  2  0
  9 11  1  0
 11 12  2  3
 12 13  1  0
 13 14  1  0
 14 15  2  0
 15 16  1  0
 16 17  2  0
 17 18  1  0
 18 19  2  0
 19 20  1  0
  6  2  1  0
 20 12  1  0
 19 14  1  0
  1 21  1  0
  1 22  1  0
  1 23  1  0
  3 24  1  0
  4 25  1  0
  5 26  1  0
  8 27  1  0
  8 28  1  0
 15 29  1  0
 16 30  1  0
 17 31  1  0
 18 32  1  0
M  CHG  3   5   1  13  -1  20  -1
M  END
>  <UniqueID>  (85) 
76

>  <SMILES>  (85) 
Cn1cc[nH+]c1SCC(=O)N=c1[n-]c2ccccc2[n-]1

>  <Energy>  (85) 
98.1522463108498

>  <Genealogy>  (85) 
Cn1cc[nH+]c1SCC(=O)N=c1[n-]c2ccccc2[n-]1 (protonated)
Cn1cc[nH+]c1SCC(=O)N=c1[n-]c2ccccc2[n-]1 (3D coordinates assigned)
Cn1cc[nH+]c1SCC(=O)N=c1[n-]c2ccccc2[n-]1 (optimized conformer: 98.1522463108498 kcal/mol)

>  <smiles>  (85) 
Cn1ccnc1SCC(=O)N=c1[nH]c2ccccc2[nH]1

>  <score_type>  (85) 
oracle

>  <origin>  (85) 
adg

>  <m_score__min__energy>  (85) 
-9.4600000000000009

>  <m_primary>  (85) 
energy

$$$$
85:0
     RDKit          3D

 58 61  0  0  0  0  0  0  0  0999 V2000
   56.6910   21.4360   42.7280 C   0  0  0  0  0  0  0  0  0  0  0  0
   57.3980   22.3330   43.6990 C   0  0  0  0  0  0  0  0  0  0  0  0
   58.5090   21.8560   44.4100 C   0  0  0  0  0  0  0  0  0  0  0  0
   59.1900   22.6960   45.2960 C   0  0  0  0  0  0  0  0  0  0  0  0
   58.7740   24.0180   45.4700 C   0  0  0  0  0  0  0  0  0  0  0  0
   57.6740   24.5130   44.7530 C   0  0  0  0  0  0  0  0  0  0  0  0
   57.2040   25.9270   44.9570 C   0  0  0  0  0  0  0  0  0  0  0  0
   58.1010   27.0760   43.8550 S   0  0  0  0  0  0  0  0  0  0  0  0
   58.9510   27.9330   45.1940 C   0  0  0  0  0  0  0  0  0  0  0  0
   59.5100   27.1780   46.1740 N   0  0  0  0  0  0  0  0  0  0  0  0
   60.1730   27.7390   47.2130 C   0  0  0  0  0  0  0  0  0  0  0  0
   60.6840   27.0020   48.0970 O   0  0  0  0  0  0  0  0  0  0  0  0
   60.2840   29.1260   47.3010 C   0  0  0  0  0  0  0  0  0  0  0  0
   60.9760   29.6930   48.3830 O   0  0  0  0  0  0  0  0  0  0  0  0
   60.7500   31.0070   48.8840 C   0  0  0  0  0  0  0  0  0  0  0  0
   61.8080   31.9280   48.3500 C   0  0  0  0  0  0  0  0  0  0  0  0
   61.6160   32.5830   47.1220 C   0  0  0  0  0  0  0  0  0  0  0  0
   62.5880   33.4610   46.6320 C   0  0  0  0  0  0  0  0  0  0  0  0
   63.7530   33.7010   47.3710 C   0  0  0  0  0  0  0  0  0  0  0  0
   63.9440   33.0660   48.6020 C   0  0  0  0  0  0  0  0  0  0  0  0
   62.9730   32.1860   49.0950 C   0  0  0  0  0  0  0  0  0  0  0  0
   59.6880   29.8980   46.2920 C   0  0  0  0  0  0  0  0  0  0  0  0
   59.0370   29.3030   45.2480 N   0  0  0  0  0  0  0  0  0  0  0  0
   58.3780   30.1600   44.2440 C   0  0  0  0  0  0  0  0  0  0  0  0
   56.9960   30.5540   44.6810 C   0  0  0  0  0  0  0  0  0  0  0  0
   56.1250   29.6720   44.9140 O   0  0  0  0  0  0  0  0  0  0  0  0
   56.6990   31.9420   44.8770 N   0  0  0  0  0  0  0  0  0  0  0  0
   57.5960   32.9320   45.4010 C   0  0  0  0  0  0  0  0  0  0  0  0
   58.3380   33.7830   44.5590 C   0  0  0  0  0  0  0  0  0  0  0  0
   59.2050   34.7340   45.1100 C   0  0  0  0  0  0  0  0  0  0  0  0
   59.3490   34.8320   46.4970 C   0  0  0  0  0  0  0  0  0  0  0  0
   58.6370   33.9720   47.3360 C   0  0  0  0  0  0  0  0  0  0  0  0
   57.7710   33.0170   46.7890 C   0  0  0  0  0  0  0  0  0  0  0  0
   56.9920   23.6670   43.8650 C   0  0  0  0  0  0  0  0  0  0  0  0
   56.1023   20.6890   43.2806 H   0  0  0  0  0  0  0  0  0  0  0  0
   56.0206   22.0364   42.0954 H   0  0  0  0  0  0  0  0  0  0  0  0
   57.4314   20.9244   42.0954 H   0  0  0  0  0  0  0  0  0  0  0  0
   58.8454   20.8181   44.2701 H   0  0  0  0  0  0  0  0  0  0  0  0
   60.0557   22.3149   45.8576 H   0  0  0  0  0  0  0  0  0  0  0  0
   59.3106   24.6735   46.1717 H   0  0  0  0  0  0  0  0  0  0  0  0
   56.1275   25.9841   44.7380 H   0  0  0  0  0  0  0  0  0  0  0  0
   57.3989   26.2157   46.0004 H   0  0  0  0  0  0  0  0  0  0  0  0
   59.7591   31.3585   48.5608 H   0  0  0  0  0  0  0  0  0  0  0  0
   60.7909   30.9953   49.9832 H   0  0  0  0  0  0  0  0  0  0  0  0
   60.6975   32.4045   46.5437 H   0  0  0  0  0  0  0  0  0  0  0  0
   62.4373   33.9635   45.6652 H   0  0  0  0  0  0  0  0  0  0  0  0
   64.5182   34.3894   46.9829 H   0  0  0  0  0  0  0  0  0  0  0  0
   64.8578   33.2580   49.1835 H   0  0  0  0  0  0  0  0  0  0  0  0
   63.1216   31.6948   50.0680 H   0  0  0  0  0  0  0  0  0  0  0  0
   59.7455   30.9954   46.3420 H   0  0  0  0  0  0  0  0  0  0  0  0
   58.9801   31.0691   44.0990 H   0  0  0  0  0  0  0  0  0  0  0  0
   58.2953   29.5923   43.3054 H   0  0  0  0  0  0  0  0  0  0  0  0
   58.2361   33.7002   43.4669 H   0  0  0  0  0  0  0  0  0  0  0  0
   59.7741   35.4055   44.4502 H   0  0  0  0  0  0  0  0  0  0  0  0
   60.0234   35.5868   46.9278 H   0  0  0  0  0  0  0  0  0  0  0  0
   58.7565   34.0448   48.4271 H   0  0  0  0  0  0  0  0  0  0  0  0
   57.2252   32.3299   47.4523 H   0  0  0  0  0  0  0  0  0  0  0  0
   56.1334   24.0515   43.2950 H   0  0  0  0  0  0  0  0  0  0  0  0
  1  2  1  0
  2  3  2  0
  3  4  1  0
  4  5  2  0
  5  6  1  0
  6  7  1  0
  7  8  1  0
  8  9  1  0
  9 10  2  0
 10 11  1  0
 11 12  2  0
 11 13  1  0
 13 14  1  0
 14 15  1  0
 15 16  1  0
 16 17  2  0
 17 18  1  0
 18 19  2  0
 19 20  1  0
 20 21  2  0
 13 22  2  0
 22 23  1  0
 23 24  1  0
 24 25  1  0
 25 26  2  0
 25 27  1  0
 27 28  1  0
 28 29  2  0
 29 30  1  0
 30 31  2  0
 31 32  1  0
 32 33  2  0
  6 34  2  0
 34  2  1  0
 23  9  1  0
 33 28  1  0
 21 16  1  0
  1 35  1  0
  1 36  1  0
  1 37  1  0
  3 38  1  0
  4 39  1  0
  5 40  1  0
  7 41  1  0
  7 42  1  0
 15 43  1  0
 15 44  1  0
 17 45  1  0
 18 46  1  0
 19 47  1  0
 20 48  1  0
 21 49  1  0
 22 50  1  0
 24 51  1  0
 24 52  1  0
 29 53  1  0
 30 54  1  0
 31 55  1  0
 32 56  1  0
 33 57  1  0
 34 58  1  0
M  CHG  1  27  -1
M  END
>  <UniqueID>  (86) 
77

>  <SMILES>  (86) 
Cc1cccc(CSc2nc(=O)c(OCc3ccccc3)cn2CC(=O)[N-]c2ccccc2)c1

>  <Energy>  (86) 
62.01101922922035

>  <Genealogy>  (86) 
Cc1cccc(CSc2nc(=O)c(OCc3ccccc3)cn2CC(=O)[N-]c2ccccc2)c1 (protonated)
Cc1cccc(CSc2nc(=O)c(OCc3ccccc3)cn2CC(=O)[N-]c2ccccc2)c1 (3D coordinates assigned)
Cc1cccc(CSc2nc(=O)c(OCc3ccccc3)cn2CC(=O)[N-]c2ccccc2)c1 (optimized conformer: 62.01101922922035 kcal/mol)

>  <smiles>  (86) 
Cc1cccc(CSc2nc(=O)c(OCc3ccccc3)cn2CC(=O)Nc2ccccc2)c1

>  <score_type>  (86) 
oracle

>  <origin>  (86) 
adg

>  <m_score__min__energy>  (86) 
-11.539999999999999

>  <m_primary>  (86) 
energy

$$$$
86:0
     RDKit          3D

 63 66  0  0  0  0  0  0  0  0999 V2000
   59.0770   33.9170   45.8840 C   0  0  0  0  0  0  0  0  0  0  0  0
   60.1830   34.5700   46.4990 O   0  0  0  0  0  0  0  0  0  0  0  0
   61.1680   33.9210   47.2640 C   0  0  0  0  0  0  0  0  0  0  0  0
   62.3780   33.4760   46.6950 C   0  0  0  0  0  0  0  0  0  0  0  0
   63.3410   32.8430   47.4850 C   0  0  0  0  0  0  0  0  0  0  0  0
   63.1100   32.6490   48.8480 C   0  0  0  0  0  0  0  0  0  0  0  0
   61.9150   33.0860   49.4250 C   0  0  0  0  0  0  0  0  0  0  0  0
   60.9330   33.7110   48.6400 C   0  0  0  0  0  0  0  0  0  0  0  0
   59.6670   34.2080   49.2830 C   0  0  0  0  0  0  0  0  0  0  0  0
   59.5300   33.6060   50.6020 N   0  0  0  0  0  0  0  0  0  0  0  0
   58.9490   32.3200   50.8130 C   0  0  0  0  0  0  0  0  0  0  0  0
   57.8130   32.0490   50.3390 O   0  0  0  0  0  0  0  0  0  0  0  0
   59.6710   31.3160   51.6570 C   0  0  0  0  0  0  0  0  0  0  0  0
   60.6610   30.6200   50.8970 O   0  0  0  0  0  0  0  0  0  0  0  0
   60.4030   29.7950   49.7900 C   0  0  0  0  0  0  0  0  0  0  0  0
   60.9570   28.5180   49.6510 C   0  0  0  0  0  0  0  0  0  0  0  0
   60.6690   27.7380   48.5300 C   0  0  0  0  0  0  0  0  0  0  0  0
   59.7920   28.2000   47.5130 C   0  0  0  0  0  0  0  0  0  0  0  0
   59.2770   29.5160   47.6390 C   0  0  0  0  0  0  0  0  0  0  0  0
   59.5700   30.2840   48.7850 C   0  0  0  0  0  0  0  0  0  0  0  0
   58.4950   30.0520   46.6120 C   0  0  0  0  0  0  0  0  0  0  0  0
   58.0080   31.2120   46.7320 O   0  0  0  0  0  0  0  0  0  0  0  0
   58.2640   29.3160   45.4420 C   0  0  0  0  0  0  0  0  0  0  0  0
   57.4310   29.9470   44.3330 C   0  0  0  0  0  0  0  0  0  0  0  0
   55.9700   29.7470   44.5840 C   0  0  0  0  0  0  0  0  0  0  0  0
   55.1320   30.6010   44.1870 O   0  0  0  0  0  0  0  0  0  0  0  0
   55.5270   28.6090   45.2450 O   0  0  0  0  0  0  0  0  0  0  0  0
   58.7550   27.9860   45.3500 C   0  0  0  0  0  0  0  0  0  0  0  0
   58.5120   27.2270   44.0500 C   0  0  0  0  0  0  0  0  0  0  0  0
   59.4570   27.4260   46.4100 N   0  0  0  0  0  0  0  0  0  0  0  0
   59.7660   25.9720   46.3930 C   0  0  0  0  0  0  0  0  0  0  0  0
   58.5310   25.0940   46.2840 C   0  0  0  0  0  0  0  0  0  0  0  0
   57.3140   25.5910   46.7900 C   0  0  0  0  0  0  0  0  0  0  0  0
   56.1500   24.8230   46.7290 C   0  0  0  0  0  0  0  0  0  0  0  0
   56.1850   23.5410   46.1790 C   0  0  0  0  0  0  0  0  0  0  0  0
   57.3880   23.0220   45.6970 C   0  0  0  0  0  0  0  0  0  0  0  0
   58.5600   23.7850   45.7510 C   0  0  0  0  0  0  0  0  0  0  0  0
   59.7030   23.2350   45.2750 F   0  0  0  0  0  0  0  0  0  0  0  0
   58.4065   33.5211   46.6610 H   0  0  0  0  0  0  0  0  0  0  0  0
   58.5284   34.6361   45.2580 H   0  0  0  0  0  0  0  0  0  0  0  0
   59.4417   33.0893   45.2580 H   0  0  0  0  0  0  0  0  0  0  0  0
   62.5656   33.6280   45.6218 H   0  0  0  0  0  0  0  0  0  0  0  0
   64.2821   32.4972   47.0325 H   0  0  0  0  0  0  0  0  0  0  0  0
   63.8698   32.1514   49.4685 H   0  0  0  0  0  0  0  0  0  0  0  0
   61.7424   32.9394   50.5014 H   0  0  0  0  0  0  0  0  0  0  0  0
   59.7097   35.3028   49.3812 H   0  0  0  0  0  0  0  0  0  0  0  0
   58.8036   33.9318   48.6599 H   0  0  0  0  0  0  0  0  0  0  0  0
   60.1606   31.8360   52.4936 H   0  0  0  0  0  0  0  0  0  0  0  0
   58.9398   30.5841   52.0306 H   0  0  0  0  0  0  0  0  0  0  0  0
   61.6251   28.1254   50.4317 H   0  0  0  0  0  0  0  0  0  0  0  0
   61.1310   26.7445   48.4322 H   0  0  0  0  0  0  0  0  0  0  0  0
   59.1328   31.2881   48.8877 H   0  0  0  0  0  0  0  0  0  0  0  0
   57.6450   31.0252   44.2907 H   0  0  0  0  0  0  0  0  0  0  0  0
   57.6931   29.4659   43.3791 H   0  0  0  0  0  0  0  0  0  0  0  0
   58.1840   26.2024   44.2794 H   0  0  0  0  0  0  0  0  0  0  0  0
   57.7330   27.7394   43.4664 H   0  0  0  0  0  0  0  0  0  0  0  0
   59.4437   27.1917   43.4664 H   0  0  0  0  0  0  0  0  0  0  0  0
   60.4186   25.7643   45.5322 H   0  0  0  0  0  0  0  0  0  0  0  0
   60.2516   25.7320   47.3504 H   0  0  0  0  0  0  0  0  0  0  0  0
   57.2805   26.5951   47.2380 H   0  0  0  0  0  0  0  0  0  0  0  0
   55.2034   25.2291   47.1152 H   0  0  0  0  0  0  0  0  0  0  0  0
   55.2654   22.9398   46.1253 H   0  0  0  0  0  0  0  0  0  0  0  0
   57.4149   22.0076   45.2724 H   0  0  0  0  0  0  0  0  0  0  0  0
  1  2  1  0
  2  3  1  0
  3  4  2  0
  4  5  1  0
  5  6  2  0
  6  7  1  0
  7  8  2  0
  8  9  1  0
  9 10  1  0
 10 11  1  0
 11 12  2  0
 11 13  1  0
 13 14  1  0
 14 15  1  0
 15 16  2  0
 16 17  1  0
 17 18  2  0
 18 19  1  0
 19 20  2  0
 19 21  1  0
 21 22  2  0
 21 23  1  0
 23 24  1  0
 24 25  1  0
 25 26  2  0
 25 27  1  0
 23 28  2  0
 28 29  1  0
 28 30  1  0
 30 31  1  0
 31 32  1  0
 32 33  2  0
 33 34  1  0
 34 35  2  0
 35 36  1  0
 36 37  2  0
 37 38  1  0
  8  3  1  0
 20 15  1  0
 37 32  1  0
 30 18  1  0
  1 39  1  0
  1 40  1  0
  1 41  1  0
  4 42  1  0
  5 43  1  0
  6 44  1  0
  7 45  1  0
  9 46  1  0
  9 47  1  0
 13 48  1  0
 13 49  1  0
 16 50  1  0
 17 51  1  0
 20 52  1  0
 24 53  1  0
 24 54  1  0
 29 55  1  0
 29 56  1  0
 29 57  1  0
 31 58  1  0
 31 59  1  0
 33 60  1  0
 34 61  1  0
 35 62  1  0
 36 63  1  0
M  CHG  2  10  -1  27  -1
M  END
>  <UniqueID>  (87) 
78

>  <SMILES>  (87) 
COc1ccccc1C[N-]C(=O)COc1ccc2c(c1)c(=O)c(CC(=O)[O-])c(C)n2Cc1ccccc1F

>  <Energy>  (87) 
86.82194948588837

>  <Genealogy>  (87) 
COc1ccccc1C[N-]C(=O)COc1ccc2c(c1)c(=O)c(CC(=O)[O-])c(C)n2Cc1ccccc1F (protonated)
COc1ccccc1C[N-]C(=O)COc1ccc2c(c1)c(=O)c(CC(=O)[O-])c(C)n2Cc1ccccc1F (3D coordinates assigned)
COc1ccccc1C[N-]C(=O)COc1ccc2c(c1)c(=O)c(CC(=O)[O-])c(C)n2Cc1ccccc1F (optimized conformer: 86.82194948588837 kcal/mol)

>  <smiles>  (87) 
COc1ccccc1CNC(=O)COc1ccc2c(c1)c(=O)c(CC(=O)O)c(C)n2Cc1ccccc1F

>  <score_type>  (87) 
oracle

>  <origin>  (87) 
adg

>  <m_score__min__energy>  (87) 
-12.359999999999999

>  <m_primary>  (87) 
energy

$$$$
87:0
     RDKit          3D

 56 58  0  0  0  0  0  0  0  0999 V2000
   65.2570   32.8220   49.7420 C   0  0  0  0  0  0  0  0  0  0  0  0
   63.9390   33.1590   49.1090 C   0  0  0  0  0  0  0  0  0  0  0  0
   62.9040   33.7330   49.8630 C   0  0  0  0  0  0  0  0  0  0  0  0
   61.6750   34.0260   49.2650 C   0  0  0  0  0  0  0  0  0  0  0  0
   61.4640   33.7520   47.9020 C   0  0  0  0  0  0  0  0  0  0  0  0
   60.1610   34.0570   47.2770 C   0  0  0  0  0  0  0  0  0  0  0  0
   60.0120   35.1480   46.6630 O   0  0  0  0  0  0  0  0  0  0  0  0
   59.0730   33.1230   47.3590 N   0  0  0  0  0  0  0  0  0  0  0  0
   57.6970   33.4770   47.0080 C   0  0  0  0  0  0  0  0  0  0  0  0
   57.5750   33.8880   45.5370 C   0  0  0  0  0  0  0  0  0  0  0  0
   57.4150   32.6970   44.6360 C   0  0  0  0  0  0  0  0  0  0  0  0
   57.9460   32.6980   43.3380 C   0  0  0  0  0  0  0  0  0  0  0  0
   57.7320   31.5930   42.5130 C   0  0  0  0  0  0  0  0  0  0  0  0
   57.0110   30.4960   42.9870 C   0  0  0  0  0  0  0  0  0  0  0  0
   56.5410   30.5030   44.3080 C   0  0  0  0  0  0  0  0  0  0  0  0
   55.7490   29.3510   44.8480 C   0  0  0  0  0  0  0  0  0  0  0  0
   56.5740   28.1490   44.9210 N   0  0  0  0  0  0  0  0  0  0  0  0
   56.5860   27.1790   45.9780 C   0  0  0  0  0  0  0  0  0  0  0  0
   55.5370   26.5140   46.1920 O   0  0  0  0  0  0  0  0  0  0  0  0
   57.8010   26.9050   46.8260 C   0  0  0  0  0  0  0  0  0  0  0  0
   58.7710   28.0620   46.8110 C   0  0  0  0  0  0  0  0  0  0  0  0
   59.5050   28.3570   45.6490 C   0  0  0  0  0  0  0  0  0  0  0  0
   60.4410   29.3940   45.6490 C   0  0  0  0  0  0  0  0  0  0  0  0
   60.6790   30.1260   46.8130 C   0  0  0  0  0  0  0  0  0  0  0  0
   59.9590   29.8430   47.9830 C   0  0  0  0  0  0  0  0  0  0  0  0
   60.2410   30.5910   49.2540 C   0  0  0  0  0  0  0  0  0  0  0  0
   59.0160   28.8040   47.9810 C   0  0  0  0  0  0  0  0  0  0  0  0
   56.7380   31.6040   45.0850 N   0  0  0  0  0  0  0  0  0  0  0  0
   62.4950   33.1610   47.1550 C   0  0  0  0  0  0  0  0  0  0  0  0
   63.7240   32.8670   47.7550 C   0  0  0  0  0  0  0  0  0  0  0  0
   65.1552   32.8480   50.8370 H   0  0  0  0  0  0  0  0  0  0  0  0
   65.5685   31.8153   49.4265 H   0  0  0  0  0  0  0  0  0  0  0  0
   66.0135   33.5556   49.4265 H   0  0  0  0  0  0  0  0  0  0  0  0
   63.0605   33.9533   50.9293 H   0  0  0  0  0  0  0  0  0  0  0  0
   60.8682   34.4735   49.8641 H   0  0  0  0  0  0  0  0  0  0  0  0
   59.2450   32.1680   47.7480 H   0  0  0  0  0  0  0  0  0  0  0  0
   57.0478   32.6079   47.1903 H   0  0  0  0  0  0  0  0  0  0  0  0
   57.3940   34.3327   47.6293 H   0  0  0  0  0  0  0  0  0  0  0  0
   56.6980   34.5420   45.4217 H   0  0  0  0  0  0  0  0  0  0  0  0
   58.4992   34.4114   45.2507 H   0  0  0  0  0  0  0  0  0  0  0  0
   58.5246   33.5600   42.9743 H   0  0  0  0  0  0  0  0  0  0  0  0
   58.1319   31.5866   41.4883 H   0  0  0  0  0  0  0  0  0  0  0  0
   56.8136   29.6352   42.3313 H   0  0  0  0  0  0  0  0  0  0  0  0
   55.3866   29.6024   45.8557 H   0  0  0  0  0  0  0  0  0  0  0  0
   54.9004   29.1581   44.1753 H   0  0  0  0  0  0  0  0  0  0  0  0
   57.4782   26.7250   47.8621 H   0  0  0  0  0  0  0  0  0  0  0  0
   58.3142   26.0247   46.4117 H   0  0  0  0  0  0  0  0  0  0  0  0
   59.3414   27.7679   44.7345 H   0  0  0  0  0  0  0  0  0  0  0  0
   60.9925   29.6344   44.7281 H   0  0  0  0  0  0  0  0  0  0  0  0
   61.4331   30.9269   46.8130 H   0  0  0  0  0  0  0  0  0  0  0  0
   60.0002   29.9522   50.1165 H   0  0  0  0  0  0  0  0  0  0  0  0
   61.3051   30.8676   49.2883 H   0  0  0  0  0  0  0  0  0  0  0  0
   59.6243   31.5012   49.2883 H   0  0  0  0  0  0  0  0  0  0  0  0
   58.4634   28.5675   48.9023 H   0  0  0  0  0  0  0  0  0  0  0  0
   62.3357   32.9277   46.0919 H   0  0  0  0  0  0  0  0  0  0  0  0
   64.5259   32.4042   47.1611 H   0  0  0  0  0  0  0  0  0  0  0  0
  1  2  1  0
  2  3  2  0
  3  4  1  0
  4  5  2  0
  5  6  1  0
  6  7  2  0
  6  8  1  0
  8  9  1  0
  9 10  1  0
 10 11  1  0
 11 12  2  0
 12 13  1  0
 13 14  2  0
 14 15  1  0
 15 16  1  0
 16 17  1  0
 17 18  1  0
 18 19  2  0
 18 20  1  0
 20 21  1  0
 21 22  2  0
 22 23  1  0
 23 24  2  0
 24 25  1  0
 25 26  1  0
 25 27  2  0
 15 28  2  0
  5 29  1  0
 29 30  2  0
 30  2  1  0
 28 11  1  0
 27 21  1  0
  1 31  1  0
  1 32  1  0
  1 33  1  0
  3 34  1  0
  4 35  1  0
  8 36  1  0
  9 37  1  0
  9 38  1  0
 10 39  1  0
 10 40  1  0
 12 41  1  0
 13 42  1  0
 14 43  1  0
 16 44  1  0
 16 45  1  0
 20 46  1  0
 20 47  1  0
 22 48  1  0
 23 49  1  0
 24 50  1  0
 26 51  1  0
 26 52  1  0
 26 53  1  0
 27 54  1  0
 29 55  1  0
 30 56  1  0
M  CHG  1  17  -1
M  END
>  <UniqueID>  (88) 
79

>  <SMILES>  (88) 
Cc1ccc(C(=O)NCCc2cccc(C[N-]C(=O)Cc3cccc(C)c3)n2)cc1

>  <Energy>  (88) 
47.032900336330485

>  <Genealogy>  (88) 
Cc1ccc(C(=O)NCCc2cccc(C[N-]C(=O)Cc3cccc(C)c3)n2)cc1 (protonated)
Cc1ccc(C(=O)NCCc2cccc(C[N-]C(=O)Cc3cccc(C)c3)n2)cc1 (3D coordinates assigned)
Cc1ccc(C(=O)NCCc2cccc(C[N-]C(=O)Cc3cccc(C)c3)n2)cc1 (optimized conformer: 47.032900336330485 kcal/mol)

>  <smiles>  (88) 
Cc1ccc(C(=O)NCCc2cccc(CNC(=O)Cc3cccc(C)c3)n2)cc1

>  <score_type>  (88) 
oracle

>  <origin>  (88) 
adg

>  <m_score__min__energy>  (88) 
-12.23

>  <m_primary>  (88) 
energy

$$$$
88:0
     RDKit          3D

 44 46  0  0  0  0  0  0  0  0999 V2000
   57.9740   26.7390   44.9820 C   0  0  0  0  0  0  0  0  0  0  0  0
   58.6020   27.8150   44.1040 C   0  0  0  0  0  0  0  0  0  0  0  0
   57.8570   29.0720   44.2270 N   0  0  0  0  0  0  0  0  0  0  0  0
   57.0010   29.5730   43.3100 C   0  0  0  0  0  0  0  0  0  0  0  0
   56.6310   28.9600   42.2740 O   0  0  0  0  0  0  0  0  0  0  0  0
   56.6210   30.8550   43.6520 C   0  0  0  0  0  0  0  0  0  0  0  0
   57.3230   31.0960   44.8240 C   0  0  0  0  0  0  0  0  0  0  0  0
   57.3170   32.2780   45.5760 O   0  0  0  0  0  0  0  0  0  0  0  0
   57.6950   33.5470   45.0500 C   0  0  0  0  0  0  0  0  0  0  0  0
   58.8670   34.0930   45.8080 C   0  0  0  0  0  0  0  0  0  0  0  0
   59.3150   35.2360   45.5230 O   0  0  0  0  0  0  0  0  0  0  0  0
   59.4380   33.3330   46.8830 N   0  0  0  0  0  0  0  0  0  0  0  0
   60.7890   33.4900   47.3470 C   0  0  0  0  0  0  0  0  0  0  0  0
   61.8360   33.5420   46.4130 C   0  0  0  0  0  0  0  0  0  0  0  0
   63.1550   33.7250   46.8380 C   0  0  0  0  0  0  0  0  0  0  0  0
   63.4380   33.8730   48.1980 C   0  0  0  0  0  0  0  0  0  0  0  0
   62.4030   33.8450   49.1340 C   0  0  0  0  0  0  0  0  0  0  0  0
   61.0810   33.6600   48.7140 C   0  0  0  0  0  0  0  0  0  0  0  0
   58.0550   30.0090   45.1490 N   0  0  0  0  0  0  0  0  0  0  0  0
   58.9710   29.9260   46.2510 C   0  0  0  0  0  0  0  0  0  0  0  0
   58.5260   29.5060   47.5140 C   0  0  0  0  0  0  0  0  0  0  0  0
   59.4210   29.4390   48.5870 C   0  0  0  0  0  0  0  0  0  0  0  0
   60.7580   29.8010   48.4060 C   0  0  0  0  0  0  0  0  0  0  0  0
   61.2040   30.2330   47.1540 C   0  0  0  0  0  0  0  0  0  0  0  0
   60.3130   30.3010   46.0790 C   0  0  0  0  0  0  0  0  0  0  0  0
   58.1241   26.9961   46.0409 H   0  0  0  0  0  0  0  0  0  0  0  0
   56.8967   26.6749   44.7694 H   0  0  0  0  0  0  0  0  0  0  0  0
   58.4480   25.7694   44.7694 H   0  0  0  0  0  0  0  0  0  0  0  0
   59.6432   27.9781   44.4190 H   0  0  0  0  0  0  0  0  0  0  0  0
   58.5727   27.4831   43.0557 H   0  0  0  0  0  0  0  0  0  0  0  0
   55.9278   31.5250   43.1223 H   0  0  0  0  0  0  0  0  0  0  0  0
   57.9681   33.4344   43.9904 H   0  0  0  0  0  0  0  0  0  0  0  0
   56.8486   34.2427   45.1478 H   0  0  0  0  0  0  0  0  0  0  0  0
   58.8310   32.6250   47.3560 H   0  0  0  0  0  0  0  0  0  0  0  0
   61.6169   33.4381   45.3401 H   0  0  0  0  0  0  0  0  0  0  0  0
   63.9710   33.7525   46.1008 H   0  0  0  0  0  0  0  0  0  0  0  0
   64.4771   34.0117   48.5314 H   0  0  0  0  0  0  0  0  0  0  0  0
   62.6269   33.9686   50.2039 H   0  0  0  0  0  0  0  0  0  0  0  0
   60.2673   33.6473   49.4541 H   0  0  0  0  0  0  0  0  0  0  0  0
   57.4716   29.2290   47.6604 H   0  0  0  0  0  0  0  0  0  0  0  0
   59.0718   29.1011   49.5738 H   0  0  0  0  0  0  0  0  0  0  0  0
   61.4609   29.7459   49.2503 H   0  0  0  0  0  0  0  0  0  0  0  0
   62.2568   30.5197   47.0144 H   0  0  0  0  0  0  0  0  0  0  0  0
   60.6640   30.6490   45.0963 H   0  0  0  0  0  0  0  0  0  0  0  0
  1  2  1  0
  2  3  1  0
  3  4  1  0
  4  5  2  0
  4  6  1  0
  6  7  2  0
  7  8  1  0
  8  9  1  0
  9 10  1  0
 10 11  2  0
 10 12  1  0
 12 13  1  0
 13 14  2  0
 14 15  1  0
 15 16  2  0
 16 17  1  0
 17 18  2  0
  7 19  1  0
 19 20  1  0
 20 21  2  0
 21 22  1  0
 22 23  2  0
 23 24  1  0
 24 25  2  0
 19  3  1  0
 25 20  1  0
 18 13  1  0
  1 26  1  0
  1 27  1  0
  1 28  1  0
  2 29  1  0
  2 30  1  0
  6 31  1  0
  9 32  1  0
  9 33  1  0
 12 34  1  0
 14 35  1  0
 15 36  1  0
 16 37  1  0
 17 38  1  0
 18 39  1  0
 21 40  1  0
 22 41  1  0
 23 42  1  0
 24 43  1  0
 25 44  1  0
M  END
>  <UniqueID>  (89) 
80

>  <SMILES>  (89) 
CCn1c(=O)cc(OCC(=O)Nc2ccccc2)n1-c1ccccc1

>  <Energy>  (89) 
82.96221851952566

>  <Genealogy>  (89) 
CCn1c(=O)cc(OCC(=O)Nc2ccccc2)n1-c1ccccc1 (3D coordinates assigned)
CCn1c(=O)cc(OCC(=O)Nc2ccccc2)n1-c1ccccc1 (optimized conformer: 82.96221851952566 kcal/mol)

>  <smiles>  (89) 
CCn1c(=O)cc(OCC(=O)Nc2ccccc2)n1-c1ccccc1

>  <score_type>  (89) 
oracle

>  <origin>  (89) 
adg

>  <m_score__min__energy>  (89) 
-7.9100000000000001

>  <m_primary>  (89) 
energy

$$$$
89:0
     RDKit          3D

 38 40  0  0  0  0  0  0  0  0999 V2000
   62.5710   33.1060   47.1360 C   0  0  0  0  0  0  0  0  0  0  0  0
   61.5670   32.1150   47.6430 C   0  0  0  0  0  0  0  0  0  0  0  0
   61.3460   31.9640   49.0330 C   0  0  0  0  0  0  0  0  0  0  0  0
   60.4350   31.0060   49.5120 C   0  0  0  0  0  0  0  0  0  0  0  0
   59.7820   30.2180   48.5690 C   0  0  0  0  0  0  0  0  0  0  0  0
   58.8900   29.2390   48.7960 N   0  0  0  0  0  0  0  0  0  0  0  0
   58.5360   28.7420   47.6160 N   0  0  0  0  0  0  0  0  0  0  0  0
   59.2300   29.4370   46.6830 C   0  0  0  0  0  0  0  0  0  0  0  0
   59.1110   29.1390   44.9180 S   0  0  0  0  0  0  0  0  0  0  0  0
   57.4350   28.4210   45.0040 C   0  0  0  0  0  0  0  0  0  0  0  0
   56.4010   29.4700   44.7480 C   0  0  0  0  0  0  0  0  0  0  0  0
   55.2460   29.3380   45.2340 O   0  0  0  0  0  0  0  0  0  0  0  0
   56.7620   30.6490   44.0190 N   0  0  0  0  0  0  0  0  0  0  0  0
   57.4570   31.7950   44.5390 C   0  0  0  0  0  0  0  0  0  0  0  0
   57.4390   32.1010   45.9120 C   0  0  0  0  0  0  0  0  0  0  0  0
   58.1050   33.2310   46.3940 C   0  0  0  0  0  0  0  0  0  0  0  0
   58.7850   34.0720   45.5120 C   0  0  0  0  0  0  0  0  0  0  0  0
   58.7920   33.7930   44.1440 C   0  0  0  0  0  0  0  0  0  0  0  0
   58.1220   32.6620   43.6450 C   0  0  0  0  0  0  0  0  0  0  0  0
   58.1410   32.3700   42.1700 C   0  0  0  0  0  0  0  0  0  0  0  0
   60.0140   30.3650   47.2600 N   0  0  0  0  0  0  0  0  0  0  0  0
   60.8820   31.2730   46.7440 C   0  0  0  0  0  0  0  0  0  0  0  0
   63.0662   33.5948   47.9880 H   0  0  0  0  0  0  0  0  0  0  0  0
   63.3227   32.5860   46.5240 H   0  0  0  0  0  0  0  0  0  0  0  0
   62.0608   33.8644   46.5240 H   0  0  0  0  0  0  0  0  0  0  0  0
   61.8915   32.6014   49.7444 H   0  0  0  0  0  0  0  0  0  0  0  0
   60.2461   30.8843   50.5888 H   0  0  0  0  0  0  0  0  0  0  0  0
   58.5290   28.9100   49.7190 H   0  0  0  0  0  0  0  0  0  0  0  0
   57.3416   27.6286   44.2468 H   0  0  0  0  0  0  0  0  0  0  0  0
   57.2778   28.0053   46.0102 H   0  0  0  0  0  0  0  0  0  0  0  0
   56.8972   31.4466   46.6107 H   0  0  0  0  0  0  0  0  0  0  0  0
   58.0933   33.4580   47.4703 H   0  0  0  0  0  0  0  0  0  0  0  0
   59.3161   34.9558   45.8951 H   0  0  0  0  0  0  0  0  0  0  0  0
   59.3249   34.4621   43.4524 H   0  0  0  0  0  0  0  0  0  0  0  0
   58.2117   31.2837   42.0122 H   0  0  0  0  0  0  0  0  0  0  0  0
   57.2164   32.7480   41.7094 H   0  0  0  0  0  0  0  0  0  0  0  0
   59.0089   32.8647   41.7094 H   0  0  0  0  0  0  0  0  0  0  0  0
   61.0453   31.3489   45.6588 H   0  0  0  0  0  0  0  0  0  0  0  0
  1  2  1  0
  2  3  1  0
  3  4  2  0
  4  5  1  0
  5  6  2  0
  6  7  1  0
  7  8  2  0
  8  9  1  0
  9 10  1  0
 10 11  1  0
 11 12  2  0
 11 13  1  0
 13 14  1  0
 14 15  2  0
 15 16  1  0
 16 17  2  0
 17 18  1  0
 18 19  2  0
 19 20  1  0
  8 21  1  0
 21 22  1  0
 22  2  2  0
 21  5  1  0
 19 14  1  0
  1 23  1  0
  1 24  1  0
  1 25  1  0
  3 26  1  0
  4 27  1  0
  6 28  1  0
 10 29  1  0
 10 30  1  0
 15 31  1  0
 16 32  1  0
 17 33  1  0
 18 34  1  0
 20 35  1  0
 20 36  1  0
 20 37  1  0
 22 38  1  0
M  CHG  2   6   1  13  -1
M  END
>  <UniqueID>  (90) 
81

>  <SMILES>  (90) 
Cc1ccc2[nH+]nc(SCC(=O)[N-]c3ccccc3C)n2c1

>  <Energy>  (90) 
79.65046413752609

>  <Genealogy>  (90) 
Cc1ccc2[nH+]nc(SCC(=O)[N-]c3ccccc3C)n2c1 (protonated)
Cc1ccc2[nH+]nc(SCC(=O)[N-]c3ccccc3C)n2c1 (3D coordinates assigned)
Cc1ccc2[nH+]nc(SCC(=O)[N-]c3ccccc3C)n2c1 (optimized conformer: 79.65046413752609 kcal/mol)

>  <smiles>  (90) 
Cc1ccc2nnc(SCC(=O)Nc3ccccc3C)n2c1

>  <score_type>  (90) 
oracle

>  <origin>  (90) 
adg

>  <m_score__min__energy>  (90) 
-8.3300000000000001

>  <m_primary>  (90) 
energy

$$$$
90:0
     RDKit          3D

 60 63  0  0  0  0  0  0  0  0999 V2000
   62.0515   27.9013   52.8658 H   0  0  0  0  0  0  0  0  0  0  0  0
   61.6290   28.2960   51.9300 C   0  0  0  0  0  0  0  0  0  0  0  0
   61.4970   29.6360   51.7580 N   0  0  0  0  0  0  0  0  0  0  0  0
   60.9580   30.1270   50.6120 C   0  0  0  0  0  0  0  0  0  0  0  0
   60.8430   31.5470   50.4140 N   0  0  0  0  0  0  0  0  0  0  0  0
   62.0310   32.3280   50.0340 C   0  0  0  0  0  0  0  0  0  0  0  0
   62.6535   32.4883   50.9266 H   0  0  0  0  0  0  0  0  0  0  0  0
   62.5825   31.7646   49.2669 H   0  0  0  0  0  0  0  0  0  0  0  0
   61.6450   33.6920   49.4440 C   0  0  0  0  0  0  0  0  0  0  0  0
   61.3646   34.3761   50.2585 H   0  0  0  0  0  0  0  0  0  0  0  0
   62.5023   34.1049   48.8921 H   0  0  0  0  0  0  0  0  0  0  0  0
   60.4550   33.5260   48.4840 C   0  0  0  0  0  0  0  0  0  0  0  0
   60.7541   32.8117   47.7027 H   0  0  0  0  0  0  0  0  0  0  0  0
   60.1210   34.7810   47.9080 O   0  0  0  0  0  0  0  0  0  0  0  0
   60.0640   34.7100   46.4950 C   0  0  0  0  0  0  0  0  0  0  0  0
   59.7069   35.6738   46.1030 H   0  0  0  0  0  0  0  0  0  0  0  0
   61.0732   34.4839   46.1204 H   0  0  0  0  0  0  0  0  0  0  0  0
   59.1320   33.6170   46.0320 C   0  0  0  0  0  0  0  0  0  0  0  0
   57.8120   33.9230   45.6670 C   0  0  0  0  0  0  0  0  0  0  0  0
   57.4538   34.9612   45.7286 H   0  0  0  0  0  0  0  0  0  0  0  0
   56.9510   32.9160   45.2260 C   0  0  0  0  0  0  0  0  0  0  0  0
   55.9187   33.1682   44.9417 H   0  0  0  0  0  0  0  0  0  0  0  0
   57.3880   31.5890   45.1420 C   0  0  0  0  0  0  0  0  0  0  0  0
   56.4820   30.6230   44.6740 O   0  0  0  0  0  0  0  0  0  0  0  0
   56.3830   30.1720   43.3290 C   0  0  0  0  0  0  0  0  0  0  0  0
   57.2920   29.1540   43.0980 F   0  0  0  0  0  0  0  0  0  0  0  0
   55.1020   29.7250   43.0670 F   0  0  0  0  0  0  0  0  0  0  0  0
   56.6670   31.2270   42.4840 F   0  0  0  0  0  0  0  0  0  0  0  0
   58.7080   31.2780   45.5220 C   0  0  0  0  0  0  0  0  0  0  0  0
   59.0639   30.2387   45.4644 H   0  0  0  0  0  0  0  0  0  0  0  0
   59.5680   32.2840   45.9720 C   0  0  0  0  0  0  0  0  0  0  0  0
   60.5926   32.0295   46.2810 H   0  0  0  0  0  0  0  0  0  0  0  0
   59.2090   32.9730   49.2200 C   0  0  0  0  0  0  0  0  0  0  0  0
   58.5466   33.8167   49.4639 H   0  0  0  0  0  0  0  0  0  0  0  0
   58.7321   32.2472   48.5448 H   0  0  0  0  0  0  0  0  0  0  0  0
   59.5420   32.2260   50.5200 C   0  0  0  0  0  0  0  0  0  0  0  0
   59.5777   32.9462   51.3507 H   0  0  0  0  0  0  0  0  0  0  0  0
   58.7637   31.4702   50.7016 H   0  0  0  0  0  0  0  0  0  0  0  0
   60.5660   29.2630   49.6390 N   0  0  0  0  0  0  0  0  0  0  0  0
   60.7170   27.9210   49.7940 C   0  0  0  0  0  0  0  0  0  0  0  0
   60.3390   27.0870   48.8690 N   0  0  0  0  0  0  0  0  0  0  0  0
   59.7360   27.4160   47.6040 C   0  0  0  0  0  0  0  0  0  0  0  0
   60.4770   27.9760   46.5450 C   0  0  0  0  0  0  0  0  0  0  0  0
   61.5476   28.1908   46.6776 H   0  0  0  0  0  0  0  0  0  0  0  0
   59.8550   28.2590   45.3270 C   0  0  0  0  0  0  0  0  0  0  0  0
   60.4349   28.7076   44.5070 H   0  0  0  0  0  0  0  0  0  0  0  0
   58.5010   27.9750   45.1460 C   0  0  0  0  0  0  0  0  0  0  0  0
   58.0169   28.2081   44.1862 H   0  0  0  0  0  0  0  0  0  0  0  0
   57.7550   27.3950   46.1790 C   0  0  0  0  0  0  0  0  0  0  0  0
   56.3610   27.1340   45.9590 N   0  0  0  0  0  0  0  0  0  0  0  0
   55.6390   25.5610   45.8710 S   0  0  0  0  0  0  0  0  0  0  0  0
   54.1610   25.6880   45.6200 O   0  0  0  0  0  0  0  0  0  0  0  0
   55.8810   24.8180   47.1540 O   0  0  0  0  0  0  0  0  0  0  0  0
   56.3810   24.6550   44.5280 C   0  0  0  0  0  0  0  0  0  0  0  0
   57.0290   23.8638   44.9332 H   0  0  0  0  0  0  0  0  0  0  0  0
   55.5912   24.2019   43.9108 H   0  0  0  0  0  0  0  0  0  0  0  0
   56.9809   25.3400   43.9108 H   0  0  0  0  0  0  0  0  0  0  0  0
   58.3860   27.0990   47.4020 C   0  0  0  0  0  0  0  0  0  0  0  0
   57.8139   26.6142   48.2068 H   0  0  0  0  0  0  0  0  0  0  0  0
   61.2400   27.4420   50.9480 N   0  0  0  0  0  0  0  0  0  0  0  0
  1  2  1  0
  2  3  2  0
  3  4  1  0
  4  5  1  0
  5  6  1  0
  6  7  1  0
  6  8  1  0
  6  9  1  0
  9 10  1  0
  9 11  1  0
  9 12  1  0
 12 13  1  0
 12 14  1  0
 14 15  1  0
 15 16  1  0
 15 17  1  0
 15 18  1  0
 18 19  2  0
 19 20  1  0
 19 21  1  0
 21 22  1  0
 21 23  2  0
 23 24  1  0
 24 25  1  0
 25 26  1  0
 25 27  1  0
 25 28  1  0
 23 29  1  0
 29 30  1  0
 29 31  2  0
 31 32  1  0
 12 33  1  0
 33 34  1  0
 33 35  1  0
 33 36  1  0
 36 37  1  0
 36 38  1  0
  4 39  2  0
 39 40  1  0
 40 41  2  0
 41 42  1  0
 42 43  2  0
 43 44  1  0
 43 45  1  0
 45 46  1  0
 45 47  2  0
 47 48  1  0
 47 49  1  0
 49 50  1  0
 50 51  1  0
 51 52  2  0
 51 53  2  0
 51 54  1  0
 54 55  1  0
 54 56  1  0
 54 57  1  0
 49 58  2  0
 58 59  1  0
 40 60  1  0
 60  2  1  0
 36  5  1  0
 58 42  1  0
 31 18  1  0
M  CHG  2  50  -1  60  -1
M  END
>  <UniqueID>  (91) 
82

>  <SMILES>  (91) 
CS(=O)(=O)[N-]c1cccc(/N=c2\nc(N3CCC(OCc4ccc(OC(F)(F)F)cc4)CC3)nc[n-]2)c1

>  <Energy>  (91) 
74.76288478039253

>  <Genealogy>  (91) 
CS(=O)(=O)[N-]c1cccc(N=c2nc(N3CCC(OCc4ccc(OC(F)(F)F)cc4)CC3)nc[n-]2)c1 (protonated)
CS(=O)(=O)[N-]c1cccc(/N=c2\nc(N3CCC(OCc4ccc(OC(F)(F)F)cc4)CC3)nc[n-]2)c1 (cis-trans isomerization)
CS(=O)(=O)[N-]c1cccc(/N=c2\nc(N3CCC(OCc4ccc(OC(F)(F)F)cc4)CC3)nc[n-]2)c1 (3D coordinates assigned)
CS(=O)(=O)[N-]c1cccc(/N=c2\nc(N3CCC(OCc4ccc(OC(F)(F)F)cc4)CC3)nc[n-]2)c1 (nonaromatic ring conformer: 74.76288478039253 kcal/mol)

>  <smiles>  (91) 
CS(=O)(=O)Nc1cccc(N=c2nc(N3CCC(OCc4ccc(OC(F)(F)F)cc4)CC3)nc[nH]2)c1

>  <score_type>  (91) 
oracle

>  <origin>  (91) 
adg

>  <m_score__min__energy>  (91) 
-12.470000000000001

>  <m_primary>  (91) 
energy

$$$$
91:0
     RDKit          3D

 51 53  0  0  0  0  0  0  0  0999 V2000
   58.4830   20.1070   45.5120 H   0  0  0  0  0  0  0  0  0  0  0  0
   58.1970   21.1040   45.6380 N   0  0  0  0  0  0  0  0  0  0  0  0
   57.2190   21.6290   44.9660 C   0  0  0  0  0  0  0  0  0  0  0  0
   56.8990   23.0680   45.1410 C   0  0  0  0  0  0  0  0  0  0  0  0
   55.5960   23.4840   45.4690 C   0  0  0  0  0  0  0  0  0  0  0  0
   54.8005   22.7353   45.5982 H   0  0  0  0  0  0  0  0  0  0  0  0
   55.3040   24.8410   45.6320 C   0  0  0  0  0  0  0  0  0  0  0  0
   54.2783   25.1527   45.8787 H   0  0  0  0  0  0  0  0  0  0  0  0
   56.3050   25.8050   45.4840 C   0  0  0  0  0  0  0  0  0  0  0  0
   55.9750   27.1580   45.6490 O   0  0  0  0  0  0  0  0  0  0  0  0
   56.8520   28.2360   45.4450 C   0  0  0  0  0  0  0  0  0  0  0  0
   58.1560   28.2300   45.9750 C   0  0  0  0  0  0  0  0  0  0  0  0
   58.5146   27.3509   46.5305 H   0  0  0  0  0  0  0  0  0  0  0  0
   59.0030   29.3360   45.8010 C   0  0  0  0  0  0  0  0  0  0  0  0
   60.3630   29.3440   46.3770 C   0  0  0  0  0  0  0  0  0  0  0  0
   61.3490   29.4960   45.6100 O   0  0  0  0  0  0  0  0  0  0  0  0
   60.5990   29.2180   47.7880 N   0  0  0  0  0  0  0  0  0  0  0  0
   60.5200   30.2960   48.7700 C   0  0  0  0  0  0  0  0  0  0  0  0
   60.3358   29.8643   49.7648 H   0  0  0  0  0  0  0  0  0  0  0  0
   61.4705   30.8497   48.7617 H   0  0  0  0  0  0  0  0  0  0  0  0
   59.3850   31.2660   48.4260 C   0  0  0  0  0  0  0  0  0  0  0  0
   58.8154   30.8652   47.5746 H   0  0  0  0  0  0  0  0  0  0  0  0
   58.7370   31.3729   49.3084 H   0  0  0  0  0  0  0  0  0  0  0  0
   59.9340   32.6470   48.0550 C   0  0  0  0  0  0  0  0  0  0  0  0
   59.8664   33.3101   48.9301 H   0  0  0  0  0  0  0  0  0  0  0  0
   60.9823   32.5393   47.7398 H   0  0  0  0  0  0  0  0  0  0  0  0
   59.1440   33.2430   46.9200 C   0  0  0  0  0  0  0  0  0  0  0  0
   59.7770   34.0490   45.9580 C   0  0  0  0  0  0  0  0  0  0  0  0
   60.8628   34.2167   46.0123 H   0  0  0  0  0  0  0  0  0  0  0  0
   59.0320   34.6380   44.9330 C   0  0  0  0  0  0  0  0  0  0  0  0
   59.5337   35.2590   44.1763 H   0  0  0  0  0  0  0  0  0  0  0  0
   57.6500   34.4390   44.8680 C   0  0  0  0  0  0  0  0  0  0  0  0
   57.0654   34.9025   44.0597 H   0  0  0  0  0  0  0  0  0  0  0  0
   57.0100   33.6510   45.8300 C   0  0  0  0  0  0  0  0  0  0  0  0
   55.9217   33.4987   45.7807 H   0  0  0  0  0  0  0  0  0  0  0  0
   57.7530   33.0570   46.8540 C   0  0  0  0  0  0  0  0  0  0  0  0
   57.2464   32.4411   47.6116 H   0  0  0  0  0  0  0  0  0  0  0  0
   58.5540   30.4350   45.0580 C   0  0  0  0  0  0  0  0  0  0  0  0
   59.2253   31.2887   44.8832 H   0  0  0  0  0  0  0  0  0  0  0  0
   57.2580   30.4520   44.5380 C   0  0  0  0  0  0  0  0  0  0  0  0
   56.9091   31.3259   43.9683 H   0  0  0  0  0  0  0  0  0  0  0  0
   56.4010   29.3650   44.7370 C   0  0  0  0  0  0  0  0  0  0  0  0
   55.1080   29.4200   44.2170 O   0  0  0  0  0  0  0  0  0  0  0  0
   54.3810   28.7790   44.5120 H   0  0  0  0  0  0  0  0  0  0  0  0
   57.6030   25.4000   45.1290 C   0  0  0  0  0  0  0  0  0  0  0  0
   58.3915   26.1532   44.9843 H   0  0  0  0  0  0  0  0  0  0  0  0
   57.8960   24.0440   44.9590 C   0  0  0  0  0  0  0  0  0  0  0  0
   58.9150   23.7371   44.6805 H   0  0  0  0  0  0  0  0  0  0  0  0
   56.4420   20.8060   44.0860 N   0  0  0  0  0  0  0  0  0  0  0  0
   55.5620   21.1580   43.6490 H   0  0  0  0  0  0  0  0  0  0  0  0
   56.7000   19.8060   43.9300 H   0  0  0  0  0  0  0  0  0  0  0  0
  1  2  1  0
  2  3  2  0
  3  4  1  0
  4  5  2  0
  5  6  1  0
  5  7  1  0
  7  8  1  0
  7  9  2  0
  9 10  1  0
 10 11  1  0
 11 12  2  0
 12 13  1  0
 12 14  1  0
 14 15  1  0
 15 16  2  0
 15 17  1  0
 17 18  1  0
 18 19  1  0
 18 20  1  0
 18 21  1  0
 21 22  1  0
 21 23  1  0
 21 24  1  0
 24 25  1  0
 24 26  1  0
 24 27  1  0
 27 28  2  0
 28 29  1  0
 28 30  1  0
 30 31  1  0
 30 32  2  0
 32 33  1  0
 32 34  1  0
 34 35  1  0
 34 36  2  0
 36 37  1  0
 14 38  2  0
 38 39  1  0
 38 40  1  0
 40 41  1  0
 40 42  2  0
 42 43  1  0
 43 44  1  0
  9 45  1  0
 45 46  1  0
 45 47  2  0
 47 48  1  0
  3 49  1  0
 49 50  1  0
 49 51  1  0
 47  4  1  0
 42 11  1  0
 36 27  1  0
M  CHG  1  17  -1
M  END
>  <UniqueID>  (92) 
83

>  <SMILES>  (92) 
[H]/N=C(\N)c1ccc(Oc2cc(C(=O)[N-]CCCc3ccccc3)ccc2O)cc1

>  <Energy>  (92) 
60.08789418100027

>  <Genealogy>  (92) 
N=C(N)c1ccc(Oc2cc(C(=O)[N-]CCCc3ccccc3)ccc2O)cc1 (protonated)
[H]/N=C(\N)c1ccc(Oc2cc(C(=O)[N-]CCCc3ccccc3)ccc2O)cc1 (cis-trans isomerization)
[H]/N=C(\N)c1ccc(Oc2cc(C(=O)[N-]CCCc3ccccc3)ccc2O)cc1 (3D coordinates assigned)
[H]/N=C(\N)c1ccc(Oc2cc(C(=O)[N-]CCCc3ccccc3)ccc2O)cc1 (optimized conformer: 60.08789418100027 kcal/mol)

>  <smiles>  (92) 
N=C(N)c1ccc(Oc2cc(C(=O)NCCCc3ccccc3)ccc2O)cc1

>  <score_type>  (92) 
oracle

>  <origin>  (92) 
adg

>  <m_score__min__energy>  (92) 
-10.550000000000001

>  <m_primary>  (92) 
energy

$$$$
92:0
     RDKit          3D

 52 54  0  0  0  0  0  0  0  0999 V2000
   57.3540   32.5920   52.3450 C   0  0  0  0  0  0  0  0  0  0  0  0
   58.7680   32.9940   52.3080 N   0  0  0  0  0  0  0  0  0  0  0  0
   58.9610   34.2590   53.0380 C   0  0  0  0  0  0  0  0  0  0  0  0
   59.2090   33.1190   50.9320 C   0  0  0  0  0  0  0  0  0  0  0  0
   59.2800   34.2640   50.4020 O   0  0  0  0  0  0  0  0  0  0  0  0
   59.5420   31.9260   50.1030 C   0  0  0  0  0  0  0  0  0  0  0  0
   58.6170   30.8860   49.8980 C   0  0  0  0  0  0  0  0  0  0  0  0
   58.9590   29.7700   49.1290 C   0  0  0  0  0  0  0  0  0  0  0  0
   60.2270   29.6740   48.5390 C   0  0  0  0  0  0  0  0  0  0  0  0
   60.6060   28.4500   47.7430 C   0  0  0  0  0  0  0  0  0  0  0  0
   59.4550   27.9500   46.9630 N   0  0  0  0  0  0  0  0  0  0  0  0
   58.8650   26.7540   47.2830 C   0  0  0  0  0  0  0  0  0  0  0  0
   59.2950   26.0510   48.2380 O   0  0  0  0  0  0  0  0  0  0  0  0
   57.7740   26.2920   46.5530 C   0  0  0  0  0  0  0  0  0  0  0  0
   57.3030   27.0550   45.4960 C   0  0  0  0  0  0  0  0  0  0  0  0
   57.9020   28.2370   45.1760 N   0  0  0  0  0  0  0  0  0  0  0  0
   57.3640   29.0270   44.0560 C   0  0  0  0  0  0  0  0  0  0  0  0
   56.2300   29.8820   44.5230 C   0  0  0  0  0  0  0  0  0  0  0  0
   55.1410   29.3440   44.8640 O   0  0  0  0  0  0  0  0  0  0  0  0
   56.3850   31.3030   44.5760 N   0  0  0  0  0  0  0  0  0  0  0  0
   57.5670   32.0010   44.0850 C   0  0  0  0  0  0  0  0  0  0  0  0
   58.1190   32.8840   45.1570 C   0  0  0  0  0  0  0  0  0  0  0  0
   57.8580   32.7660   46.5150 C   0  0  0  0  0  0  0  0  0  0  0  0
   58.4710   33.7640   47.2820 C   0  0  0  0  0  0  0  0  0  0  0  0
   59.1940   34.6800   46.5290 C   0  0  0  0  0  0  0  0  0  0  0  0
   59.0760   34.2450   44.9090 S   0  0  0  0  0  0  0  0  0  0  0  0
   58.9600   28.6960   45.9200 C   0  0  0  0  0  0  0  0  0  0  0  0
   59.4820   29.8130   45.6420 O   0  0  0  0  0  0  0  0  0  0  0  0
   61.1440   30.7210   48.7150 C   0  0  0  0  0  0  0  0  0  0  0  0
   60.8060   31.8330   49.4920 C   0  0  0  0  0  0  0  0  0  0  0  0
   57.0265   32.4989   53.3910 H   0  0  0  0  0  0  0  0  0  0  0  0
   56.7433   33.3521   51.8358 H   0  0  0  0  0  0  0  0  0  0  0  0
   57.2345   31.6243   51.8358 H   0  0  0  0  0  0  0  0  0  0  0  0
   59.3400   32.2730   52.8060 H   0  0  0  0  0  0  0  0  0  0  0  0
   58.9315   34.0658   54.1205 H   0  0  0  0  0  0  0  0  0  0  0  0
   59.9357   34.6924   52.7693 H   0  0  0  0  0  0  0  0  0  0  0  0
   58.1599   34.9633   52.7693 H   0  0  0  0  0  0  0  0  0  0  0  0
   57.6150   30.9517   50.3472 H   0  0  0  0  0  0  0  0  0  0  0  0
   58.2276   28.9610   48.9857 H   0  0  0  0  0  0  0  0  0  0  0  0
   61.4234   28.7079   47.0535 H   0  0  0  0  0  0  0  0  0  0  0  0
   60.9257   27.6623   48.4411 H   0  0  0  0  0  0  0  0  0  0  0  0
   57.2932   25.3368   46.8106 H   0  0  0  0  0  0  0  0  0  0  0  0
   56.4398   26.7043   44.9113 H   0  0  0  0  0  0  0  0  0  0  0  0
   58.1593   29.6691   43.6495 H   0  0  0  0  0  0  0  0  0  0  0  0
   56.9987   28.3416   43.2770 H   0  0  0  0  0  0  0  0  0  0  0  0
   58.3293   31.2646   43.7907 H   0  0  0  0  0  0  0  0  0  0  0  0
   57.2892   32.6164   43.2166 H   0  0  0  0  0  0  0  0  0  0  0  0
   57.2331   31.9694   46.9449 H   0  0  0  0  0  0  0  0  0  0  0  0
   58.3878   33.8176   48.3775 H   0  0  0  0  0  0  0  0  0  0  0  0
   59.7493   35.5431   46.9249 H   0  0  0  0  0  0  0  0  0  0  0  0
   62.1342   30.6667   48.2391 H   0  0  0  0  0  0  0  0  0  0  0  0
   61.5364   32.6443   49.6272 H   0  0  0  0  0  0  0  0  0  0  0  0
  1  2  1  0
  2  3  1  0
  2  4  1  0
  4  5  2  0
  4  6  1  0
  6  7  2  0
  7  8  1  0
  8  9  2  0
  9 10  1  0
 10 11  1  0
 11 12  1  0
 12 13  2  0
 12 14  1  0
 14 15  2  0
 15 16  1  0
 16 17  1  0
 17 18  1  0
 18 19  2  0
 18 20  1  0
 20 21  1  0
 21 22  1  0
 22 23  2  0
 23 24  1  0
 24 25  2  0
 25 26  1  0
 16 27  1  0
 27 28  2  0
  9 29  1  0
 29 30  2  0
 30  6  1  0
 27 11  1  0
 26 22  1  0
  1 31  1  0
  1 32  1  0
  1 33  1  0
  2 34  1  0
  3 35  1  0
  3 36  1  0
  3 37  1  0
  7 38  1  0
  8 39  1  0
 10 40  1  0
 10 41  1  0
 14 42  1  0
 15 43  1  0
 17 44  1  0
 17 45  1  0
 21 46  1  0
 21 47  1  0
 23 48  1  0
 24 49  1  0
 25 50  1  0
 29 51  1  0
 30 52  1  0
M  CHG  2   2   1  20  -1
M  END
>  <UniqueID>  (93) 
84

>  <SMILES>  (93) 
C[NH+](C)C(=O)c1ccc(Cn2c(=O)ccn(CC(=O)[N-]Cc3cccs3)c2=O)cc1

>  <Energy>  (93) 
80.47541935479128

>  <Genealogy>  (93) 
C[NH+](C)C(=O)c1ccc(Cn2c(=O)ccn(CC(=O)[N-]Cc3cccs3)c2=O)cc1 (protonated)
C[NH+](C)C(=O)c1ccc(Cn2c(=O)ccn(CC(=O)[N-]Cc3cccs3)c2=O)cc1 (3D coordinates assigned)
C[NH+](C)C(=O)c1ccc(Cn2c(=O)ccn(CC(=O)[N-]Cc3cccs3)c2=O)cc1 (optimized conformer: 80.47541935479128 kcal/mol)

>  <smiles>  (93) 
CN(C)C(=O)c1ccc(Cn2c(=O)ccn(CC(=O)NCc3cccs3)c2=O)cc1

>  <score_type>  (93) 
oracle

>  <origin>  (93) 
adg

>  <m_score__min__energy>  (93) 
-10.34

>  <m_primary>  (93) 
energy

$$$$
93:0
     RDKit          3D

 52 54  0  0  0  0  0  0  0  0999 V2000
   62.2070   30.4970   50.7550 C   0  0  0  0  0  0  0  0  0  0  0  0
   60.6830   30.4810   50.7710 C   0  0  0  0  0  0  0  0  0  0  0  0
   60.1710   30.2560   49.3920 N   0  0  0  0  0  0  0  0  0  0  0  0
   58.8860   30.9500   49.1620 C   0  0  0  0  0  0  0  0  0  0  0  0
   59.1100   32.4640   49.0830 C   0  0  0  0  0  0  0  0  0  0  0  0
   59.6250   32.8520   47.7600 N   0  0  0  0  0  0  0  0  0  0  0  0
   58.6650   33.3550   46.8150 C   0  0  0  0  0  0  0  0  0  0  0  0
   58.0400   34.4170   47.0880 O   0  0  0  0  0  0  0  0  0  0  0  0
   58.3690   32.6310   45.5500 C   0  0  0  0  0  0  0  0  0  0  0  0
   58.4620   33.3110   44.3200 C   0  0  0  0  0  0  0  0  0  0  0  0
   58.1440   32.6610   43.1240 C   0  0  0  0  0  0  0  0  0  0  0  0
   57.7410   31.3260   43.1360 C   0  0  0  0  0  0  0  0  0  0  0  0
   57.6500   30.6360   44.3450 C   0  0  0  0  0  0  0  0  0  0  0  0
   57.9620   31.2770   45.5500 C   0  0  0  0  0  0  0  0  0  0  0  0
   57.8270   30.5810   46.7050 F   0  0  0  0  0  0  0  0  0  0  0  0
   61.0410   32.8150   47.4260 C   0  0  0  0  0  0  0  0  0  0  0  0
   61.6710   33.8970   46.7750 C   0  0  0  0  0  0  0  0  0  0  0  0
   63.0350   33.8410   46.4860 C   0  0  0  0  0  0  0  0  0  0  0  0
   63.7720   32.7130   46.8300 C   0  0  0  0  0  0  0  0  0  0  0  0
   63.1340   31.6520   47.4660 C   0  0  0  0  0  0  0  0  0  0  0  0
   61.8020   31.7160   47.7440 N   0  0  0  0  0  0  0  0  0  0  0  0
   60.0580   28.8150   49.0750 C   0  0  0  0  0  0  0  0  0  0  0  0
   60.0170   28.5990   47.5890 C   0  0  0  0  0  0  0  0  0  0  0  0
   59.2110   27.5930   47.0400 C   0  0  0  0  0  0  0  0  0  0  0  0
   59.1750   27.4240   45.6540 C   0  0  0  0  0  0  0  0  0  0  0  0
   59.9380   28.2570   44.8330 C   0  0  0  0  0  0  0  0  0  0  0  0
   60.7250   29.2550   45.4140 C   0  0  0  0  0  0  0  0  0  0  0  0
   60.7470   29.4030   46.7660 N   0  0  0  0  0  0  0  0  0  0  0  0
   62.5845   30.5010   51.7882 H   0  0  0  0  0  0  0  0  0  0  0  0
   62.5776   29.6027   50.2326 H   0  0  0  0  0  0  0  0  0  0  0  0
   62.5588   31.3989   50.2326 H   0  0  0  0  0  0  0  0  0  0  0  0
   60.3324   29.6715   51.4282 H   0  0  0  0  0  0  0  0  0  0  0  0
   60.3117   31.4465   51.1452 H   0  0  0  0  0  0  0  0  0  0  0  0
   58.4466   30.5977   48.2171 H   0  0  0  0  0  0  0  0  0  0  0  0
   58.2046   30.7307   49.9972 H   0  0  0  0  0  0  0  0  0  0  0  0
   58.1547   32.9789   49.2625 H   0  0  0  0  0  0  0  0  0  0  0  0
   59.8503   32.7493   49.8450 H   0  0  0  0  0  0  0  0  0  0  0  0
   58.7874   34.3616   44.3004 H   0  0  0  0  0  0  0  0  0  0  0  0
   58.2119   33.2044   42.1700 H   0  0  0  0  0  0  0  0  0  0  0  0
   57.4949   30.8172   42.1923 H   0  0  0  0  0  0  0  0  0  0  0  0
   57.3316   29.5831   44.3516 H   0  0  0  0  0  0  0  0  0  0  0  0
   61.0862   34.7856   46.4951 H   0  0  0  0  0  0  0  0  0  0  0  0
   63.5270   34.6886   45.9864 H   0  0  0  0  0  0  0  0  0  0  0  0
   64.8468   32.6599   46.6021 H   0  0  0  0  0  0  0  0  0  0  0  0
   63.7086   30.7567   47.7457 H   0  0  0  0  0  0  0  0  0  0  0  0
   61.3740   30.8820   48.2000 H   0  0  0  0  0  0  0  0  0  0  0  0
   60.9261   28.2843   49.4931 H   0  0  0  0  0  0  0  0  0  0  0  0
   59.1263   28.4287   49.5140 H   0  0  0  0  0  0  0  0  0  0  0  0
   58.6122   26.9424   47.6944 H   0  0  0  0  0  0  0  0  0  0  0  0
   58.5474   26.6370   45.2104 H   0  0  0  0  0  0  0  0  0  0  0  0
   59.9197   28.1290   43.7406 H   0  0  0  0  0  0  0  0  0  0  0  0
   61.3267   29.9209   44.7780 H   0  0  0  0  0  0  0  0  0  0  0  0
  1  2  1  0
  2  3  1  0
  3  4  1  0
  4  5  1  0
  5  6  1  0
  6  7  1  0
  7  8  2  0
  7  9  1  0
  9 10  2  0
 10 11  1  0
 11 12  2  0
 12 13  1  0
 13 14  2  0
 14 15  1  0
  6 16  1  0
 16 17  2  0
 17 18  1  0
 18 19  2  0
 19 20  1  0
 20 21  2  0
  3 22  1  0
 22 23  1  0
 23 24  2  0
 24 25  1  0
 25 26  2  0
 26 27  1  0
 27 28  2  0
 14  9  1  0
 21 16  1  0
 28 23  1  0
  1 29  1  0
  1 30  1  0
  1 31  1  0
  2 32  1  0
  2 33  1  0
  4 34  1  0
  4 35  1  0
  5 36  1  0
  5 37  1  0
 10 38  1  0
 11 39  1  0
 12 40  1  0
 13 41  1  0
 17 42  1  0
 18 43  1  0
 19 44  1  0
 20 45  1  0
 21 46  1  0
 22 47  1  0
 22 48  1  0
 24 49  1  0
 25 50  1  0
 26 51  1  0
 27 52  1  0
M  CHG  1  21   1
M  END
>  <UniqueID>  (94) 
85

>  <SMILES>  (94) 
CCN(CCN(C(=O)c1ccccc1F)c1cccc[nH+]1)Cc1ccccn1

>  <Energy>  (94) 
65.57512588331053

>  <Genealogy>  (94) 
CCN(CCN(C(=O)c1ccccc1F)c1cccc[nH+]1)Cc1ccccn1 (protonated)
CCN(CCN(C(=O)c1ccccc1F)c1cccc[nH+]1)Cc1ccccn1 (3D coordinates assigned)
CCN(CCN(C(=O)c1ccccc1F)c1cccc[nH+]1)Cc1ccccn1 (optimized conformer: 65.57512588331053 kcal/mol)

>  <smiles>  (94) 
CCN(CCN(C(=O)c1ccccc1F)c1ccccn1)Cc1ccccn1

>  <score_type>  (94) 
oracle

>  <origin>  (94) 
adg

>  <m_score__min__energy>  (94) 
-6.3899999999999997

>  <m_primary>  (94) 
energy

$$$$
