0:0
     RDKit          3D

 60 63  0  0  0  0  0  0  0  0999 V2000
   55.1390   27.5700   45.3110 H   0  0  0  0  0  0  0  0  0  0  0  0
   55.6720   27.0510   45.9970 O   0  0  0  0  0  0  0  0  0  0  0  0
   57.0540   27.0300   46.0170 N   0  0  0  0  0  0  0  0  0  0  0  0
   57.8160   28.0380   46.3430 C   0  0  0  0  0  0  0  0  0  0  0  0
   58.1490   28.2880   47.8030 C   0  0  0  0  0  0  0  0  0  0  0  0
   58.6607   27.3991   48.2005 H   0  0  0  0  0  0  0  0  0  0  0  0
   57.2000   28.4898   48.3214 H   0  0  0  0  0  0  0  0  0  0  0  0
   59.0590   29.5170   48.0260 C   0  0  1  0  0  0  0  0  0  0  0  0
   58.4303   30.4131   47.9178 H   0  0  0  0  0  0  0  0  0  0  0  0
   59.6350   29.6880   49.4880 C   0  0  1  0  0  0  0  0  0  0  0  0
   60.5740   28.5060   49.8630 C   0  0  0  0  0  0  0  0  0  0  0  0
   60.6398   28.4231   50.9579 H   0  0  0  0  0  0  0  0  0  0  0  0
   60.1699   27.5708   49.4481 H   0  0  0  0  0  0  0  0  0  0  0  0
   61.5764   28.6882   49.4481 H   0  0  0  0  0  0  0  0  0  0  0  0
   60.4460   30.9970   49.4810 C   0  0  0  0  0  0  0  0  0  0  0  0
   61.2420   31.2890   48.4300 C   0  0  0  0  0  0  0  0  0  0  0  0
   61.7760   32.2507   48.4237 H   0  0  0  0  0  0  0  0  0  0  0  0
   61.4280   30.3540   47.2690 C   0  0  0  0  0  0  0  0  0  0  0  0
   62.2638   29.6773   47.5003 H   0  0  0  0  0  0  0  0  0  0  0  0
   61.6215   30.9790   46.3847 H   0  0  0  0  0  0  0  0  0  0  0  0
   60.1750   29.4910   46.9450 C   0  0  2  0  0  0  0  0  0  0  0  0
   60.5737   28.4658   46.9411 H   0  0  0  0  0  0  0  0  0  0  0  0
   59.5760   29.7970   45.5480 C   0  0  2  0  0  0  0  0  0  0  0  0
   60.3776   29.4668   44.8709 H   0  0  0  0  0  0  0  0  0  0  0  0
   59.2680   31.2920   45.3210 C   0  0  0  0  0  0  0  0  0  0  0  0
   60.0610   31.7565   44.7165 H   0  0  0  0  0  0  0  0  0  0  0  0
   59.2168   31.8383   46.2744 H   0  0  0  0  0  0  0  0  0  0  0  0
   57.9450   31.3480   44.5830 C   0  0  0  0  0  0  0  0  0  0  0  0
   58.1046   31.2994   43.4957 H   0  0  0  0  0  0  0  0  0  0  0  0
   57.3994   32.2835   44.7756 H   0  0  0  0  0  0  0  0  0  0  0  0
   57.1800   30.1220   45.0700 C   0  0  1  0  0  0  0  0  0  0  0  0
   56.6838   30.3234   46.0308 H   0  0  0  0  0  0  0  0  0  0  0  0
   55.9710   29.7430   44.2260 C   0  0  0  0  0  0  0  0  0  0  0  0
   54.9450   29.3970   44.7920 O   0  0  0  0  0  0  0  0  0  0  0  0
   55.9800   29.7950   42.7240 C   0  0  0  0  0  0  0  0  0  0  0  0
   56.1589   30.8290   42.3940 H   0  0  0  0  0  0  0  0  0  0  0  0
   56.7788   29.1439   42.3393 H   0  0  0  0  0  0  0  0  0  0  0  0
   55.0088   29.4502   42.3393 H   0  0  0  0  0  0  0  0  0  0  0  0
   58.2530   29.0080   45.2320 C   0  0  2  0  0  0  0  0  0  0  0  0
   58.4690   28.2270   43.9030 C   0  0  0  0  0  0  0  0  0  0  0  0
   58.7559   27.1896   44.1298 H   0  0  0  0  0  0  0  0  0  0  0  0
   57.5362   28.2303   43.3200 H   0  0  0  0  0  0  0  0  0  0  0  0
   59.2675   28.7092   43.3200 H   0  0  0  0  0  0  0  0  0  0  0  0
   60.3270   32.0260   50.6040 C   0  0  2  0  0  0  0  0  0  0  0  0
   60.5946   33.0130   50.1988 H   0  0  0  0  0  0  0  0  0  0  0  0
   61.3340   31.6890   51.7180 C   0  0  0  0  0  0  0  0  0  0  0  0
   60.8620   31.8469   52.6990 H   0  0  0  0  0  0  0  0  0  0  0  0
   61.6448   30.6379   51.6256 H   0  0  0  0  0  0  0  0  0  0  0  0
   62.2149   32.3413   51.6256 H   0  0  0  0  0  0  0  0  0  0  0  0
   58.8600   32.2410   51.1070 C   0  0  2  0  0  0  0  0  0  0  0  0
   58.5456   33.2062   50.6833 H   0  0  0  0  0  0  0  0  0  0  0  0
   58.8120   32.2950   52.5130 O   0  0  0  0  0  0  0  0  0  0  0  0
   59.0860   31.4020   52.8500 H   0  0  0  0  0  0  0  0  0  0  0  0
   57.8610   31.1830   50.5930 C   0  0  0  0  0  0  0  0  0  0  0  0
   56.9852   31.1677   51.2583 H   0  0  0  0  0  0  0  0  0  0  0  0
   57.5738   31.4549   49.5666 H   0  0  0  0  0  0  0  0  0  0  0  0
   58.4830   29.7790   50.5580 C   0  0  2  0  0  0  0  0  0  0  0  0
   57.7111   29.0543   50.2596 H   0  0  0  0  0  0  0  0  0  0  0  0
   58.9550   29.4480   51.8430 O   0  0  0  0  0  0  0  0  0  0  0  0
   58.5970   30.1300   52.4720 H   0  0  0  0  0  0  0  0  0  0  0  0
  1  2  1  0
  2  3  1  0
  3  4  2  0
  4  5  1  0
  5  6  1  0
  5  7  1  0
  5  8  1  0
  8  9  1  6
  8 10  1  0
 10 11  1  1
 11 12  1  0
 11 13  1  0
 11 14  1  0
 10 15  1  0
 15 16  2  0
 16 17  1  0
 16 18  1  0
 18 19  1  0
 18 20  1  0
 18 21  1  0
 21 22  1  6
 21 23  1  0
 23 24  1  6
 23 25  1  0
 25 26  1  0
 25 27  1  0
 25 28  1  0
 28 29  1  0
 28 30  1  0
 28 31  1  0
 31 32  1  1
 31 33  1  0
 33 34  2  0
 33 35  1  0
 35 36  1  0
 35 37  1  0
 35 38  1  0
 31 39  1  0
 39 40  1  6
 40 41  1  0
 40 42  1  0
 40 43  1  0
 15 44  1  0
 44 45  1  6
 44 46  1  0
 46 47  1  0
 46 48  1  0
 46 49  1  0
 44 50  1  0
 50 51  1  6
 50 52  1  0
 52 53  1  0
 50 54  1  0
 54 55  1  0
 54 56  1  0
 54 57  1  0
 57 58  1  6
 57 59  1  0
 59 60  1  0
 39  4  1  0
 21  8  1  0
 39 23  1  0
 57 10  1  0
M  END
>  <UniqueID>  (1) 
1

>  <SMILES>  (1) 
CC(=O)[C@@H]1CC[C@H]2C3CC=C4C(C)C(O)CC(O)C4(C)C3C/C(=N\O)C12C

>  <Energy>  (1) 
92.53600939054405

>  <Genealogy>  (1) 
CC(=O)[C@@H]1CC[C@H]2C3CC=C4C(C)C(O)CC(O)C4(C)C3CC(=NO)C12C (chirality)
CC(=O)[C@@H]1CC[C@H]2C3CC=C4C(C)C(O)CC(O)C4(C)C3C/C(=N\O)C12C (cis-trans isomerization)
CC(=O)[C@@H]1CC[C@H]2C3CC=C4C(C)C(O)CC(O)C4(C)C3C/C(=N\O)C12C (3D coordinates assigned)
CC(=O)[C@@H]1CC[C@H]2C3CC=C4C(C)C(O)CC(O)C4(C)C3C/C(=N\O)C12C (nonaromatic ring conformer: 92.53600939054405 kcal/mol)

>  <smiles>  (1) 
CC(=O)C1CCC2C3CC=C4C(C)C(O)CC(O)C4(C)C3CC(=NO)C12C

>  <score_type>  (1) 
oracle

>  <origin>  (1) 
adg

>  <m_score__min__energy>  (1) 
-8.6099999999999994

>  <m_primary>  (1) 
energy

$$$$
1:0
     RDKit          3D

 36 37  0  0  0  0  0  0  0  0999 V2000
   55.1450   28.6060   45.6390 H   0  0  0  0  0  0  0  0  0  0  0  0
   55.1430   29.2450   44.8140 N   0  0  0  0  0  0  0  0  0  0  0  0
   56.3170   29.9580   44.4370 C   0  0  0  0  0  0  0  0  0  0  0  0
   56.3420   31.2160   44.5150 O   0  0  0  0  0  0  0  0  0  0  0  0
   57.5270   29.2120   43.9750 C   0  0  0  0  0  0  0  0  0  0  0  0
   57.2181   28.4106   43.2877 H   0  0  0  0  0  0  0  0  0  0  0  0
   58.2025   29.9117   43.4611 H   0  0  0  0  0  0  0  0  0  0  0  0
   58.4050   28.4790   45.3970 S   0  0  0  0  0  0  0  0  0  0  0  0
   58.7290   30.0550   46.2050 C   0  0  0  0  0  0  0  0  0  0  0  0
   57.7740   30.6540   46.7630 O   0  0  0  0  0  0  0  0  0  0  0  0
   60.0770   30.6500   46.2610 C   0  0  0  0  0  0  0  0  0  0  0  0
   60.5569   30.9515   45.3183 H   0  0  0  0  0  0  0  0  0  0  0  0
   60.7430   30.8400   47.4050 C   0  0  0  0  0  0  0  0  0  0  0  0
   60.5400   30.1745   48.2570 H   0  0  0  0  0  0  0  0  0  0  0  0
   61.7400   31.9130   47.5590 C   0  0  0  0  0  0  0  0  0  0  0  0
   63.1020   31.7090   47.4580 C   0  0  0  0  0  0  0  0  0  0  0  0
   63.6091   30.7689   47.1950 H   0  0  0  0  0  0  0  0  0  0  0  0
   63.7020   32.9170   47.7520 C   0  0  0  0  0  0  0  0  0  0  0  0
   64.7810   33.1311   47.7533 H   0  0  0  0  0  0  0  0  0  0  0  0
   62.6860   33.8040   48.0440 C   0  0  0  0  0  0  0  0  0  0  0  0
   62.8309   34.8567   48.3283 H   0  0  0  0  0  0  0  0  0  0  0  0
   61.4890   33.1920   47.9300 N   0  0  0  0  0  0  0  0  0  0  0  0
   60.2060   33.7930   48.3160 C   0  0  0  0  0  0  0  0  0  0  0  0
   59.7248   33.1594   49.0756 H   0  0  0  0  0  0  0  0  0  0  0  0
   60.3948   34.7985   48.7203 H   0  0  0  0  0  0  0  0  0  0  0  0
   59.2930   33.9150   47.1240 C   0  0  0  0  0  0  0  0  0  0  0  0
   57.9580   33.4820   47.1970 C   0  0  0  0  0  0  0  0  0  0  0  0
   57.5772   33.0344   48.1269 H   0  0  0  0  0  0  0  0  0  0  0  0
   57.1120   33.6180   46.0920 C   0  0  0  0  0  0  0  0  0  0  0  0
   56.0666   33.2818   46.1562 H   0  0  0  0  0  0  0  0  0  0  0  0
   57.5920   34.1800   44.9070 C   0  0  0  0  0  0  0  0  0  0  0  0
   56.9245   34.2881   44.0394 H   0  0  0  0  0  0  0  0  0  0  0  0
   58.9210   34.6050   44.8240 C   0  0  0  0  0  0  0  0  0  0  0  0
   59.2993   35.0450   43.8895 H   0  0  0  0  0  0  0  0  0  0  0  0
   59.7700   34.4720   45.9260 C   0  0  0  0  0  0  0  0  0  0  0  0
   60.8160   34.8048   45.8550 H   0  0  0  0  0  0  0  0  0  0  0  0
  1  2  1  0
  2  3  1  0
  3  4  2  0
  3  5  1  0
  5  6  1  0
  5  7  1  0
  5  8  1  0
  8  9  1  0
  9 10  2  0
  9 11  1  0
 11 12  1  0
 11 13  2  0
 13 14  1  0
 13 15  1  0
 15 16  2  0
 16 17  1  0
 16 18  1  0
 18 19  1  0
 18 20  2  0
 20 21  1  0
 20 22  1  0
 22 23  1  0
 23 24  1  0
 23 25  1  0
 23 26  1  0
 26 27  2  0
 27 28  1  0
 27 29  1  0
 29 30  1  0
 29 31  2  0
 31 32  1  0
 31 33  1  0
 33 34  1  0
 33 35  2  0
 35 36  1  0
 22 15  1  0
 35 26  1  0
M  CHG  1   2  -1
M  END
>  <UniqueID>  (2) 
2

>  <SMILES>  (2) 
[NH-]C(=O)CSC(=O)/C=C/c1cccn1Cc1ccccc1

>  <Energy>  (2) 
58.51950207901394

>  <Genealogy>  (2) 
[NH-]C(=O)CSC(=O)C=Cc1cccn1Cc1ccccc1 (protonated)
[NH-]C(=O)CSC(=O)/C=C/c1cccn1Cc1ccccc1 (cis-trans isomerization)
[NH-]C(=O)CSC(=O)/C=C/c1cccn1Cc1ccccc1 (3D coordinates assigned)
[NH-]C(=O)CSC(=O)/C=C/c1cccn1Cc1ccccc1 (optimized conformer: 58.51950207901394 kcal/mol)

>  <smiles>  (2) 
NC(=O)CSC(=O)C=Cc1cccn1Cc1ccccc1

>  <score_type>  (2) 
oracle

>  <origin>  (2) 
adg

>  <m_score__min__energy>  (2) 
-11.199999999999999

>  <m_primary>  (2) 
energy

$$$$
2:0
     RDKit          3D

 36 38  0  0  0  0  0  0  0  0999 V2000
   62.6200   32.2950   47.6050 C   0  0  0  0  0  0  0  0  0  0  0  0
   61.2830   32.7090   47.0610 C   0  0  0  0  0  0  0  0  0  0  0  0
   61.0900   34.0270   46.6240 C   0  0  0  0  0  0  0  0  0  0  0  0
   59.8580   34.4240   46.0870 C   0  0  0  0  0  0  0  0  0  0  0  0
   59.6410   35.8470   45.6630 C   0  0  0  0  0  0  0  0  0  0  0  0
   58.8060   33.4990   46.0150 C   0  0  0  0  0  0  0  0  0  0  0  0
   58.9860   32.1780   46.4400 C   0  0  0  0  0  0  0  0  0  0  0  0
   57.8830   31.2680   46.3320 N   0  0  0  0  0  0  0  0  0  0  0  0
   57.5660   30.2300   44.9790 S   0  0  0  0  0  0  0  0  0  0  0  0
   58.5350   30.5500   43.8740 O   0  0  0  0  0  0  0  0  0  0  0  0
   56.1540   30.4460   44.5100 O   0  0  0  0  0  0  0  0  0  0  0  0
   57.7650   28.5370   45.4480 C   0  0  0  0  0  0  0  0  0  0  0  0
   56.6290   27.7510   45.7010 C   0  0  0  0  0  0  0  0  0  0  0  0
   56.7690   26.4110   46.0770 C   0  0  0  0  0  0  0  0  0  0  0  0
   55.6740   25.6430   46.3240 N   0  0  0  0  0  0  0  0  0  0  0  0
   55.7960   24.3400   46.6890 C   0  0  0  0  0  0  0  0  0  0  0  0
   54.7640   23.6520   46.9120 O   0  0  0  0  0  0  0  0  0  0  0  0
   57.0740   23.7740   46.8130 C   0  0  0  0  0  0  0  0  0  0  0  0
   57.2150   22.5680   47.1480 O   0  0  0  0  0  0  0  0  0  0  0  0
   58.1700   24.5390   46.5670 N   0  0  0  0  0  0  0  0  0  0  0  0
   58.0510   25.8440   46.2020 C   0  0  0  0  0  0  0  0  0  0  0  0
   59.1850   26.6210   45.9510 C   0  0  0  0  0  0  0  0  0  0  0  0
   59.0500   27.9620   45.5740 C   0  0  0  0  0  0  0  0  0  0  0  0
   60.5160   28.8890   45.2670 Cl  0  0  0  0  0  0  0  0  0  0  0  0
   60.2330   31.7830   46.9580 C   0  0  0  0  0  0  0  0  0  0  0  0
   62.5876   32.3050   48.7045 H   0  0  0  0  0  0  0  0  0  0  0  0
   62.8603   31.2804   47.2545 H   0  0  0  0  0  0  0  0  0  0  0  0
   63.3916   32.9963   47.2545 H   0  0  0  0  0  0  0  0  0  0  0  0
   61.9112   34.7545   46.7032 H   0  0  0  0  0  0  0  0  0  0  0  0
   59.5438   36.4844   46.5542 H   0  0  0  0  0  0  0  0  0  0  0  0
   60.4979   36.1853   45.0620 H   0  0  0  0  0  0  0  0  0  0  0  0
   58.7222   35.9145   45.0620 H   0  0  0  0  0  0  0  0  0  0  0  0
   57.8292   33.8154   45.6203 H   0  0  0  0  0  0  0  0  0  0  0  0
   55.6255   28.1907   45.6031 H   0  0  0  0  0  0  0  0  0  0  0  0
   60.1867   26.1773   46.0500 H   0  0  0  0  0  0  0  0  0  0  0  0
   60.3859   30.7436   47.2839 H   0  0  0  0  0  0  0  0  0  0  0  0
  1  2  1  0
  2  3  2  0
  3  4  1  0
  4  5  1  0
  4  6  2  0
  6  7  1  0
  7  8  1  0
  8  9  1  0
  9 10  2  0
  9 11  2  0
  9 12  1  0
 12 13  2  0
 13 14  1  0
 14 15  1  0
 15 16  1  0
 16 17  2  0
 16 18  1  0
 18 19  2  0
 18 20  1  0
 20 21  1  0
 21 22  1  0
 22 23  2  0
 23 24  1  0
  7 25  2  0
 25  2  1  0
 23 12  1  0
 21 14  2  0
  1 26  1  0
  1 27  1  0
  1 28  1  0
  3 29  1  0
  5 30  1  0
  5 31  1  0
  5 32  1  0
  6 33  1  0
 13 34  1  0
 22 35  1  0
 25 36  1  0
M  CHG  3   8  -1  15  -1  20  -1
M  END
>  <UniqueID>  (3) 
3

>  <SMILES>  (3) 
Cc1cc(C)cc([N-]S(=O)(=O)c2cc3[n-]c(=O)c(=O)[n-]c3cc2Cl)c1

>  <Energy>  (3) 
47.499267515910226

>  <Genealogy>  (3) 
Cc1cc(C)cc([N-]S(=O)(=O)c2cc3[n-]c(=O)c(=O)[n-]c3cc2Cl)c1 (protonated)
Cc1cc(C)cc([N-]S(=O)(=O)c2cc3[n-]c(=O)c(=O)[n-]c3cc2Cl)c1 (3D coordinates assigned)
Cc1cc(C)cc([N-]S(=O)(=O)c2cc3[n-]c(=O)c(=O)[n-]c3cc2Cl)c1 (optimized conformer: 47.499267515910226 kcal/mol)

>  <smiles>  (3) 
Cc1cc(C)cc(NS(=O)(=O)c2cc3[nH]c(=O)c(=O)[nH]c3cc2Cl)c1

>  <score_type>  (3) 
oracle

>  <origin>  (3) 
adg

>  <m_score__min__energy>  (3) 
-13.08

>  <m_primary>  (3) 
energy

$$$$
3:0
     RDKit          3D

 41 44  0  0  0  0  0  0  0  0999 V2000
   58.0230   30.6700   55.8770 C   0  0  0  0  0  0  0  0  0  0  0  0
   58.2170   30.6540   54.4660 O   0  0  0  0  0  0  0  0  0  0  0  0
   58.3700   31.8000   53.6690 C   0  0  0  0  0  0  0  0  0  0  0  0
   58.5290   33.0820   54.2330 C   0  0  0  0  0  0  0  0  0  0  0  0
   58.6790   34.2010   53.4120 C   0  0  0  0  0  0  0  0  0  0  0  0
   58.6730   34.0570   52.0240 C   0  0  0  0  0  0  0  0  0  0  0  0
   58.5180   32.7930   51.4520 C   0  0  0  0  0  0  0  0  0  0  0  0
   58.3660   31.6610   52.2670 C   0  0  0  0  0  0  0  0  0  0  0  0
   58.1700   30.0660   51.5350 S   0  0  0  0  0  0  0  0  0  0  0  0
   57.8160   30.2340   50.0840 O   0  0  0  0  0  0  0  0  0  0  0  0
   59.4590   29.3060   51.6700 O   0  0  0  0  0  0  0  0  0  0  0  0
   56.9030   29.1910   52.3350 N   0  0  0  0  0  0  0  0  0  0  0  0
   55.5920   29.7020   52.6080 C   0  0  0  0  0  0  0  0  0  0  0  0
   54.8730   29.3430   53.7870 C   0  0  0  0  0  0  0  0  0  0  0  0
   53.5900   29.8730   54.0220 C   0  0  0  0  0  0  0  0  0  0  0  0
   53.0630   30.7180   53.0630 C   0  0  0  0  0  0  0  0  0  0  0  0
   53.7280   31.0680   51.9270 C   0  0  0  0  0  0  0  0  0  0  0  0
   55.0060   30.5780   51.6640 C   0  0  0  0  0  0  0  0  0  0  0  0
   52.8860   31.8980   51.2060 C   0  0  0  0  0  0  0  0  0  0  0  0
   51.7310   31.9930   51.9840 C   0  0  0  0  0  0  0  0  0  0  0  0
   50.5930   32.7110   51.6390 O   0  0  0  0  0  0  0  0  0  0  0  0
   51.8570   31.2820   53.1270 N   0  0  0  0  0  0  0  0  0  0  0  0
   50.8930   31.0170   54.1930 C   0  0  0  0  0  0  0  0  0  0  0  0
   51.6370   30.5710   55.4760 C   0  0  0  0  0  0  0  0  0  0  0  0
   52.7190   29.4940   55.1960 C   0  0  0  0  0  0  0  0  0  0  0  0
   58.9969   30.5897   56.3820 H   0  0  0  0  0  0  0  0  0  0  0  0
   57.5349   31.6114   56.1694 H   0  0  0  0  0  0  0  0  0  0  0  0
   57.3873   29.8212   56.1694 H   0  0  0  0  0  0  0  0  0  0  0  0
   58.5349   33.2014   55.3265 H   0  0  0  0  0  0  0  0  0  0  0  0
   58.8022   35.1981   53.8600 H   0  0  0  0  0  0  0  0  0  0  0  0
   58.7906   34.9407   51.3797 H   0  0  0  0  0  0  0  0  0  0  0  0
   58.5150   32.6840   50.3574 H   0  0  0  0  0  0  0  0  0  0  0  0
   55.3222   28.6505   54.5141 H   0  0  0  0  0  0  0  0  0  0  0  0
   55.5440   30.8643   50.7482 H   0  0  0  0  0  0  0  0  0  0  0  0
   53.0836   32.3764   50.2354 H   0  0  0  0  0  0  0  0  0  0  0  0
   50.3202   31.9323   54.4028 H   0  0  0  0  0  0  0  0  0  0  0  0
   50.2097   30.2165   53.8732 H   0  0  0  0  0  0  0  0  0  0  0  0
   52.1229   31.4499   55.9248 H   0  0  0  0  0  0  0  0  0  0  0  0
   50.8935   30.1271   56.1544 H   0  0  0  0  0  0  0  0  0  0  0  0
   53.3518   29.3832   56.0889 H   0  0  0  0  0  0  0  0  0  0  0  0
   52.2097   28.5491   54.9556 H   0  0  0  0  0  0  0  0  0  0  0  0
  1  2  1  0
  2  3  1  0
  3  4  2  0
  4  5  1  0
  5  6  2  0
  6  7  1  0
  7  8  2  0
  8  9  1  0
  9 10  2  0
  9 11  2  0
  9 12  1  0
 12 13  1  0
 13 14  2  0
 14 15  1  0
 15 16  2  0
 16 17  1  0
 17 18  2  0
 17 19  1  0
 19 20  2  0
 20 21  1  0
 20 22  1  0
 22 23  1  0
 23 24  1  0
 24 25  1  0
  8  3  1  0
 18 13  1  0
 25 15  1  0
 22 16  1  0
  1 26  1  0
  1 27  1  0
  1 28  1  0
  4 29  1  0
  5 30  1  0
  6 31  1  0
  7 32  1  0
 14 33  1  0
 18 34  1  0
 19 35  1  0
 23 36  1  0
 23 37  1  0
 24 38  1  0
 24 39  1  0
 25 40  1  0
 25 41  1  0
M  CHG  2  12  -1  21  -1
M  END
>  <UniqueID>  (4) 
4

>  <SMILES>  (4) 
COc1ccccc1S(=O)(=O)[N-]c1cc2c3c(c1)cc([O-])n3CCC2

>  <Energy>  (4) 
86.27751899204073

>  <Genealogy>  (4) 
COc1ccccc1S(=O)(=O)[N-]c1cc2c3c(c1)cc([O-])n3CCC2 (protonated)
COc1ccccc1S(=O)(=O)[N-]c1cc2c3c(c1)cc([O-])n3CCC2 (3D coordinates assigned)
COc1ccccc1S(=O)(=O)[N-]c1cc2c3c(c1)cc([O-])n3CCC2 (nonaromatic ring conformer: 86.27751899204073 kcal/mol)

>  <smiles>  (4) 
COc1ccccc1S(=O)(=O)Nc1cc2c3c(c1)cc(O)n3CCC2

>  <score_type>  (4) 
oracle

>  <origin>  (4) 
adg

>  <m_score__min__energy>  (4) 
-11.59

>  <m_primary>  (4) 
energy

$$$$
4:0
     RDKit          3D

 38 40  0  0  0  0  0  0  0  0999 V2000
   61.7310   30.0890   50.3430 C   0  0  0  0  0  0  0  0  0  0  0  0
   61.3600   30.8480   49.1970 O   0  0  0  0  0  0  0  0  0  0  0  0
   62.1520   31.8540   48.6170 C   0  0  0  0  0  0  0  0  0  0  0  0
   62.9650   31.6020   47.4940 C   0  0  0  0  0  0  0  0  0  0  0  0
   63.7440   32.6210   46.9420 C   0  0  0  0  0  0  0  0  0  0  0  0
   63.7260   33.8980   47.5020 C   0  0  0  0  0  0  0  0  0  0  0  0
   62.9250   34.1630   48.6150 C   0  0  0  0  0  0  0  0  0  0  0  0
   62.1310   33.1490   49.1790 C   0  0  0  0  0  0  0  0  0  0  0  0
   61.2520   33.4600   50.3670 C   0  0  0  0  0  0  0  0  0  0  0  0
   59.8260   33.6670   49.9350 C   0  0  0  0  0  0  0  0  0  0  0  0
   58.9410   33.8260   50.8180 O   0  0  0  0  0  0  0  0  0  0  0  0
   59.4250   33.6440   48.5160 C   0  0  0  0  0  0  0  0  0  0  0  0
   59.4580   34.7050   47.6140 C   0  0  0  0  0  0  0  0  0  0  0  0
   59.0110   34.3640   46.3310 C   0  0  0  0  0  0  0  0  0  0  0  0
   58.6170   33.0300   46.2070 C   0  0  0  0  0  0  0  0  0  0  0  0
   58.1000   32.3610   44.9850 C   0  0  0  0  0  0  0  0  0  0  0  0
   57.4270   31.1270   45.0810 C   0  0  0  0  0  0  0  0  0  0  0  0
   56.9370   30.4920   43.9350 C   0  0  0  0  0  0  0  0  0  0  0  0
   57.1100   31.0800   42.6810 C   0  0  0  0  0  0  0  0  0  0  0  0
   57.7710   32.3040   42.5700 C   0  0  0  0  0  0  0  0  0  0  0  0
   58.2620   32.9430   43.7120 C   0  0  0  0  0  0  0  0  0  0  0  0
   58.8350   32.2930   47.7090 S   0  0  0  0  0  0  0  0  0  0  0  0
   61.4600   30.6435   51.2535 H   0  0  0  0  0  0  0  0  0  0  0  0
   61.2029   29.1241   50.3304 H   0  0  0  0  0  0  0  0  0  0  0  0
   62.8167   29.9130   50.3304 H   0  0  0  0  0  0  0  0  0  0  0  0
   62.9861   30.5961   47.0493 H   0  0  0  0  0  0  0  0  0  0  0  0
   64.3733   32.4159   46.0634 H   0  0  0  0  0  0  0  0  0  0  0  0
   64.3434   34.6975   47.0666 H   0  0  0  0  0  0  0  0  0  0  0  0
   62.9153   35.1719   49.0533 H   0  0  0  0  0  0  0  0  0  0  0  0
   61.2957   32.6215   51.0776 H   0  0  0  0  0  0  0  0  0  0  0  0
   61.6145   34.3833   50.8425 H   0  0  0  0  0  0  0  0  0  0  0  0
   59.8023   35.7144   47.8835 H   0  0  0  0  0  0  0  0  0  0  0  0
   58.9738   35.0811   45.4977 H   0  0  0  0  0  0  0  0  0  0  0  0
   57.2856   30.6586   46.0662 H   0  0  0  0  0  0  0  0  0  0  0  0
   56.4146   29.5279   44.0222 H   0  0  0  0  0  0  0  0  0  0  0  0
   56.7254   30.5787   41.7805 H   0  0  0  0  0  0  0  0  0  0  0  0
   57.9059   32.7670   41.5814 H   0  0  0  0  0  0  0  0  0  0  0  0
   58.7795   33.9089   43.6161 H   0  0  0  0  0  0  0  0  0  0  0  0
  1  2  1  0
  2  3  1  0
  3  4  2  0
  4  5  1  0
  5  6  2  0
  6  7  1  0
  7  8  2  0
  8  9  1  0
  9 10  1  0
 10 11  2  0
 10 12  1  0
 12 13  2  0
 13 14  1  0
 14 15  2  0
 15 16  1  0
 16 17  2  0
 17 18  1  0
 18 19  2  0
 19 20  1  0
 20 21  2  0
 15 22  1  0
  8  3  1  0
 22 12  1  0
 21 16  1  0
  1 23  1  0
  1 24  1  0
  1 25  1  0
  4 26  1  0
  5 27  1  0
  6 28  1  0
  7 29  1  0
  9 30  1  0
  9 31  1  0
 13 32  1  0
 14 33  1  0
 17 34  1  0
 18 35  1  0
 19 36  1  0
 20 37  1  0
 21 38  1  0
M  END
>  <UniqueID>  (5) 
5

>  <SMILES>  (5) 
COc1ccccc1CC(=O)c1ccc(-c2ccccc2)s1

>  <Energy>  (5) 
67.20430115254712

>  <Genealogy>  (5) 
COc1ccccc1CC(=O)c1ccc(-c2ccccc2)s1 (3D coordinates assigned)
COc1ccccc1CC(=O)c1ccc(-c2ccccc2)s1 (optimized conformer: 67.20430115254712 kcal/mol)

>  <smiles>  (5) 
COc1ccccc1CC(=O)c1ccc(-c2ccccc2)s1

>  <score_type>  (5) 
oracle

>  <origin>  (5) 
adg

>  <m_score__min__energy>  (5) 
-8.2699999999999996

>  <m_primary>  (5) 
energy

$$$$
5:0
     RDKit          3D

 34 36  0  0  0  0  0  0  0  0999 V2000
   55.2750   29.4720   45.1650 O   0  0  0  0  0  0  0  0  0  0  0  0
   56.1300   29.3790   44.0530 C   0  0  1  0  0  0  0  0  0  0  0  0
   56.4700   30.8300   43.5640 C   0  0  2  0  0  0  0  0  0  0  0  0
   57.0550   30.7400   42.2870 O   0  0  0  0  0  0  0  0  0  0  0  0
   57.4100   31.6250   44.5520 C   0  0  2  0  0  0  0  0  0  0  0  0
   58.3250   32.4290   43.8520 O   0  0  0  0  0  0  0  0  0  0  0  0
   58.1650   30.6470   45.4720 C   0  0  2  0  0  0  0  0  0  0  0  0
   59.4690   30.9960   46.1270 C   0  0  0  0  0  0  0  0  0  0  0  0
   59.7750   32.2310   46.8810 C   0  0  0  0  0  0  0  0  0  0  0  0
   60.9040   32.3110   47.7160 C   0  0  0  0  0  0  0  0  0  0  0  0
   61.1780   33.4850   48.4240 C   0  0  0  0  0  0  0  0  0  0  0  0
   60.3330   34.5900   48.3030 C   0  0  0  0  0  0  0  0  0  0  0  0
   59.2150   34.5260   47.4680 C   0  0  0  0  0  0  0  0  0  0  0  0
   58.9380   33.3540   46.7580 C   0  0  0  0  0  0  0  0  0  0  0  0
   60.2470   29.9580   46.1510 N   0  0  0  0  0  0  0  0  0  0  0  0
   59.6790   28.9430   45.4160 O   0  0  0  0  0  0  0  0  0  0  0  0
   58.5970   29.4400   44.6570 C   0  0  1  0  0  0  0  0  0  0  0  0
   57.3950   28.5180   44.4220 C   0  0  2  0  0  0  0  0  0  0  0  0
   57.6810   27.6280   43.3750 O   0  0  0  0  0  0  0  0  0  0  0  0
   55.8360   29.7340   45.9400 H   0  0  0  0  0  0  0  0  0  0  0  0
   55.6457   28.8570   43.2145 H   0  0  0  0  0  0  0  0  0  0  0  0
   55.5319   31.4033   43.5281 H   0  0  0  0  0  0  0  0  0  0  0  0
   58.0370   30.8040   42.4090 H   0  0  0  0  0  0  0  0  0  0  0  0
   56.7757   32.2829   45.1642 H   0  0  0  0  0  0  0  0  0  0  0  0
   57.9320   32.5900   42.9540 H   0  0  0  0  0  0  0  0  0  0  0  0
   57.4089   30.5639   46.2666 H   0  0  0  0  0  0  0  0  0  0  0  0
   61.5752   31.4449   47.8125 H   0  0  0  0  0  0  0  0  0  0  0  0
   62.0611   33.5383   49.0777 H   0  0  0  0  0  0  0  0  0  0  0  0
   60.5477   35.5108   48.8652 H   0  0  0  0  0  0  0  0  0  0  0  0
   58.5522   35.3983   47.3691 H   0  0  0  0  0  0  0  0  0  0  0  0
   58.0588   33.3101   46.0983 H   0  0  0  0  0  0  0  0  0  0  0  0
   58.9355   29.6180   43.6256 H   0  0  0  0  0  0  0  0  0  0  0  0
   57.1906   27.9472   45.3398 H   0  0  0  0  0  0  0  0  0  0  0  0
   57.0000   26.9070   43.4180 H   0  0  0  0  0  0  0  0  0  0  0  0
  1  2  1  0
  2  3  1  0
  3  4  1  0
  3  5  1  0
  5  6  1  0
  5  7  1  0
  7  8  1  0
  8  9  1  0
  9 10  2  0
 10 11  1  0
 11 12  2  0
 12 13  1  0
 13 14  2  0
  8 15  2  0
 15 16  1  0
 16 17  1  0
 17 18  1  0
 18 19  1  0
 18  2  1  0
 17  7  1  0
 14  9  1  0
  1 20  1  0
  2 21  1  6
  3 22  1  6
  4 23  1  0
  5 24  1  1
  6 25  1  0
  7 26  1  1
 10 27  1  0
 11 28  1  0
 12 29  1  0
 13 30  1  0
 14 31  1  0
 17 32  1  6
 18 33  1  1
 19 34  1  0
M  END
>  <UniqueID>  (6) 
6

>  <SMILES>  (6) 
OC1C2ON=C(c3ccccc3)C2C(O)[C@@H](O)[C@@H]1O

>  <Energy>  (6) 
75.05179468932894

>  <Genealogy>  (6) 
OC1C2ON=C(c3ccccc3)C2C(O)[C@@H](O)[C@@H]1O (chirality)
OC1C2ON=C(c3ccccc3)C2C(O)[C@@H](O)[C@@H]1O (3D coordinates assigned)
OC1C2ON=C(c3ccccc3)C2C(O)[C@@H](O)[C@@H]1O (nonaromatic ring conformer: 75.05179468932894 kcal/mol)

>  <smiles>  (6) 
OC1C(O)C(O)C2C(c3ccccc3)=NOC2C1O

>  <score_type>  (6) 
oracle

>  <origin>  (6) 
adg

>  <m_score__min__energy>  (6) 
-7.1200000000000001

>  <m_primary>  (6) 
energy

$$$$
6:0
     RDKit          3D

 35 37  0  0  0  0  0  0  0  0999 V2000
   59.8853   27.2660   47.1790 H   0  0  0  0  0  0  0  0  0  0  0  0
   58.9540   27.4820   46.6350 C   0  0  0  0  0  0  0  0  0  0  0  0
   57.8410   26.6530   46.8020 C   0  0  0  0  0  0  0  0  0  0  0  0
   57.8999   25.7843   47.4743 H   0  0  0  0  0  0  0  0  0  0  0  0
   56.6450   26.9270   46.1120 C   0  0  0  0  0  0  0  0  0  0  0  0
   55.4990   26.1280   46.2480 O   0  0  0  0  0  0  0  0  0  0  0  0
   55.3260   24.8590   45.6280 C   0  0  0  0  0  0  0  0  0  0  0  0
   55.2204   24.0843   46.4017 H   0  0  0  0  0  0  0  0  0  0  0  0
   54.4220   24.8772   45.0015 H   0  0  0  0  0  0  0  0  0  0  0  0
   56.2019   24.6345   45.0015 H   0  0  0  0  0  0  0  0  0  0  0  0
   56.5860   28.0340   45.2560 C   0  0  0  0  0  0  0  0  0  0  0  0
   55.6520   28.2579   44.7197 H   0  0  0  0  0  0  0  0  0  0  0  0
   57.7060   28.8610   45.0750 C   0  0  0  0  0  0  0  0  0  0  0  0
   57.6360   30.0570   44.1600 C   0  0  0  0  0  0  0  0  0  0  0  0
   58.6573   30.3640   43.8902 H   0  0  0  0  0  0  0  0  0  0  0  0
   57.0677   29.7778   43.2605 H   0  0  0  0  0  0  0  0  0  0  0  0
   56.9560   31.1770   44.8130 N   0  0  0  0  0  0  0  0  0  0  0  0
   57.5080   32.2320   45.3440 C   0  0  0  0  0  0  0  0  0  0  0  0
   58.0040   32.1390   46.6130 N   0  0  0  0  0  0  0  0  0  0  0  0
   58.5700   33.2080   47.1670 N   0  0  0  0  0  0  0  0  0  0  0  0
   59.1340   33.3740   48.3740 C   0  0  0  0  0  0  0  0  0  0  0  0
   59.2940   32.3020   49.4000 C   0  0  0  0  0  0  0  0  0  0  0  0
   59.2281   32.7438   50.4052 H   0  0  0  0  0  0  0  0  0  0  0  0
   58.4976   31.5535   49.2755 H   0  0  0  0  0  0  0  0  0  0  0  0
   60.2742   31.8186   49.2755 H   0  0  0  0  0  0  0  0  0  0  0  0
   59.6150   34.6350   48.4980 N   0  0  0  0  0  0  0  0  0  0  0  0
   59.3300   35.2650   47.3600 N   0  0  0  0  0  0  0  0  0  0  0  0
   59.5730   36.2580   47.1460 H   0  0  0  0  0  0  0  0  0  0  0  0
   58.6990   34.3870   46.5630 C   0  0  0  0  0  0  0  0  0  0  0  0
   58.2240   34.5760   45.2750 C   0  0  0  0  0  0  0  0  0  0  0  0
   58.3218   35.5443   44.7623 H   0  0  0  0  0  0  0  0  0  0  0  0
   57.6120   33.4750   44.6540 C   0  0  0  0  0  0  0  0  0  0  0  0
   57.2124   33.5720   43.6338 H   0  0  0  0  0  0  0  0  0  0  0  0
   58.8870   28.5830   45.7800 C   0  0  0  0  0  0  0  0  0  0  0  0
   59.7639   29.2358   45.6582 H   0  0  0  0  0  0  0  0  0  0  0  0
  1  2  1  0
  2  3  2  0
  3  4  1  0
  3  5  1  0
  5  6  1  0
  6  7  1  0
  7  8  1  0
  7  9  1  0
  7 10  1  0
  5 11  2  0
 11 12  1  0
 11 13  1  0
 13 14  1  0
 14 15  1  0
 14 16  1  0
 14 17  1  0
 17 18  2  0
 18 19  1  0
 19 20  1  0
 20 21  1  0
 21 22  1  0
 22 23  1  0
 22 24  1  0
 22 25  1  0
 21 26  2  0
 26 27  1  0
 27 28  1  0
 27 29  2  0
 29 30  1  0
 30 31  1  0
 30 32  2  0
 32 33  1  0
 13 34  2  0
 34 35  1  0
 34  2  1  0
 32 18  1  0
 29 20  1  0
M  CHG  2  19  -1  27   1
M  END
>  <UniqueID>  (7) 
7

>  <SMILES>  (7) 
COc1cccc(C/N=c2\ccc3[nH+]nc(C)n3[n-]2)c1

>  <Energy>  (7) 
80.98341283708

>  <Genealogy>  (7) 
COc1cccc(CN=c2ccc3[nH+]nc(C)n3[n-]2)c1 (protonated)
COc1cccc(C/N=c2\ccc3[nH+]nc(C)n3[n-]2)c1 (cis-trans isomerization)
COc1cccc(C/N=c2\ccc3[nH+]nc(C)n3[n-]2)c1 (3D coordinates assigned)
COc1cccc(C/N=c2\ccc3[nH+]nc(C)n3[n-]2)c1 (optimized conformer: 80.98341283708 kcal/mol)

>  <smiles>  (7) 
COc1cccc(CN=c2ccc3nnc(C)n3[nH]2)c1

>  <score_type>  (7) 
oracle

>  <origin>  (7) 
adg

>  <m_score__min__energy>  (7) 
-7.3899999999999997

>  <m_primary>  (7) 
energy

$$$$
7:0
     RDKit          3D

 31 32  0  0  0  0  0  0  0  0999 V2000
   61.9520   33.8180   49.7490 C   0  0  0  0  0  0  0  0  0  0  0  0
   62.2600   33.5790   48.3340 N   0  0  0  0  0  0  0  0  0  0  0  0
   63.6210   33.8420   47.8480 C   0  0  0  0  0  0  0  0  0  0  0  0
   61.2330   33.0890   47.4330 C   0  0  0  0  0  0  0  0  0  0  0  0
   60.4100   33.9780   46.7210 C   0  0  0  0  0  0  0  0  0  0  0  0
   59.4370   33.4810   45.8600 C   0  0  0  0  0  0  0  0  0  0  0  0
   59.2820   32.0980   45.7190 C   0  0  0  0  0  0  0  0  0  0  0  0
   58.2640   31.5060   44.8120 C   0  0  0  0  0  0  0  0  0  0  0  0
   58.0630   32.0060   43.5110 C   0  0  0  0  0  0  0  0  0  0  0  0
   57.0950   31.4410   42.6770 C   0  0  0  0  0  0  0  0  0  0  0  0
   56.3120   30.3760   43.1290 C   0  0  0  0  0  0  0  0  0  0  0  0
   56.4910   29.8730   44.4230 C   0  0  0  0  0  0  0  0  0  0  0  0
   55.6860   28.7840   44.8870 N   0  0  0  0  0  0  0  0  0  0  0  0
   57.4610   30.4410   45.2610 C   0  0  0  0  0  0  0  0  0  0  0  0
   60.1070   31.2780   46.4230 N   0  0  0  0  0  0  0  0  0  0  0  0
   61.0450   31.7470   47.2500 N   0  0  0  0  0  0  0  0  0  0  0  0
   62.6650   33.2647   50.3780 H   0  0  0  0  0  0  0  0  0  0  0  0
   62.0307   34.8938   49.9648 H   0  0  0  0  0  0  0  0  0  0  0  0
   60.9295   33.4746   49.9648 H   0  0  0  0  0  0  0  0  0  0  0  0
   64.2976   33.9728   48.7054 H   0  0  0  0  0  0  0  0  0  0  0  0
   63.9627   32.9933   47.2373 H   0  0  0  0  0  0  0  0  0  0  0  0
   63.6219   34.7569   47.2373 H   0  0  0  0  0  0  0  0  0  0  0  0
   60.5348   35.0639   46.8442 H   0  0  0  0  0  0  0  0  0  0  0  0
   58.7939   34.1709   45.2939 H   0  0  0  0  0  0  0  0  0  0  0  0
   58.6723   32.8472   43.1489 H   0  0  0  0  0  0  0  0  0  0  0  0
   56.9489   31.8361   41.6609 H   0  0  0  0  0  0  0  0  0  0  0  0
   55.5538   29.9321   42.4672 H   0  0  0  0  0  0  0  0  0  0  0  0
   54.7620   28.9590   45.3420 H   0  0  0  0  0  0  0  0  0  0  0  0
   56.0070   27.7970   44.7770 H   0  0  0  0  0  0  0  0  0  0  0  0
   57.5958   30.0500   46.2803 H   0  0  0  0  0  0  0  0  0  0  0  0
   61.6250   31.0500   47.7620 H   0  0  0  0  0  0  0  0  0  0  0  0
  1  2  1  0
  2  3  1  0
  2  4  1  0
  4  5  2  0
  5  6  1  0
  6  7  2  0
  7  8  1  0
  8  9  2  0
  9 10  1  0
 10 11  2  0
 11 12  1  0
 12 13  1  0
 12 14  2  0
  7 15  1  0
 15 16  2  0
 16  4  1  0
 14  8  1  0
  1 17  1  0
  1 18  1  0
  1 19  1  0
  3 20  1  0
  3 21  1  0
  3 22  1  0
  5 23  1  0
  6 24  1  0
  9 25  1  0
 10 26  1  0
 11 27  1  0
 13 28  1  0
 13 29  1  0
 14 30  1  0
 16 31  1  0
M  CHG  1  16   1
M  END
>  <UniqueID>  (8) 
8

>  <SMILES>  (8) 
CN(C)c1ccc(-c2cccc(N)c2)n[nH+]1

>  <Energy>  (8) 
35.52522319478996

>  <Genealogy>  (8) 
CN(C)c1ccc(-c2cccc(N)c2)n[nH+]1 (protonated)
CN(C)c1ccc(-c2cccc(N)c2)n[nH+]1 (3D coordinates assigned)
CN(C)c1ccc(-c2cccc(N)c2)n[nH+]1 (optimized conformer: 35.52522319478996 kcal/mol)

>  <smiles>  (8) 
CN(C)c1ccc(-c2cccc(N)c2)nn1

>  <score_type>  (8) 
oracle

>  <origin>  (8) 
adg

>  <m_score__min__energy>  (8) 
-5.2300000000000004

>  <m_primary>  (8) 
energy

$$$$
8:0
     RDKit          3D

 29 30  0  0  0  0  0  0  0  0999 V2000
   58.7890   34.2120   44.4980 C   0  0  0  0  0  0  0  0  0  0  0  0
   58.1040   32.9150   44.7960 C   0  0  0  0  0  0  0  0  0  0  0  0
   57.5680   32.0600   43.8550 C   0  0  0  0  0  0  0  0  0  0  0  0
   57.1320   30.9710   44.5940 C   0  0  0  0  0  0  0  0  0  0  0  0
   56.4840   29.7530   44.0770 C   0  0  0  0  0  0  0  0  0  0  0  0
   57.0860   28.9690   43.0450 N   0  0  0  0  0  0  0  0  0  0  0  0
   55.3740   29.3970   44.5540 O   0  0  0  0  0  0  0  0  0  0  0  0
   57.4080   31.1640   45.8990 N   0  0  0  0  0  0  0  0  0  0  0  0
   57.9930   32.3460   46.0160 N   0  0  0  0  0  0  0  0  0  0  0  0
   58.4970   32.8670   47.2860 C   0  0  0  0  0  0  0  0  0  0  0  0
   59.9960   32.7580   47.3350 C   0  0  0  0  0  0  0  0  0  0  0  0
   60.6200   31.5000   47.3990 C   0  0  0  0  0  0  0  0  0  0  0  0
   62.0140   31.4070   47.4660 C   0  0  0  0  0  0  0  0  0  0  0  0
   62.7940   32.5680   47.4710 C   0  0  0  0  0  0  0  0  0  0  0  0
   64.1450   32.4750   47.5360 F   0  0  0  0  0  0  0  0  0  0  0  0
   62.1800   33.8220   47.4100 C   0  0  0  0  0  0  0  0  0  0  0  0
   60.7870   33.9190   47.3440 C   0  0  0  0  0  0  0  0  0  0  0  0
   59.0532   34.7123   45.4413 H   0  0  0  0  0  0  0  0  0  0  0  0
   59.7028   34.0190   43.9168 H   0  0  0  0  0  0  0  0  0  0  0  0
   58.1144   34.8579   43.9168 H   0  0  0  0  0  0  0  0  0  0  0  0
   57.5018   32.2085   42.7671 H   0  0  0  0  0  0  0  0  0  0  0  0
   58.0000   29.2310   42.6170 H   0  0  0  0  0  0  0  0  0  0  0  0
   56.6060   28.1090   42.6970 H   0  0  0  0  0  0  0  0  0  0  0  0
   58.2062   33.9231   47.3863 H   0  0  0  0  0  0  0  0  0  0  0  0
   58.0677   32.2788   48.1104 H   0  0  0  0  0  0  0  0  0  0  0  0
   60.0095   30.5850   47.3964 H   0  0  0  0  0  0  0  0  0  0  0  0
   62.4972   30.4200   47.5148 H   0  0  0  0  0  0  0  0  0  0  0  0
   62.7941   34.7346   47.4139 H   0  0  0  0  0  0  0  0  0  0  0  0
   60.3083   34.9083   47.2989 H   0  0  0  0  0  0  0  0  0  0  0  0
  1  2  1  0
  2  3  2  0
  3  4  1  0
  4  5  1  0
  5  6  1  0
  5  7  2  0
  4  8  2  0
  8  9  1  0
  9 10  1  0
 10 11  1  0
 11 12  2  0
 12 13  1  0
 13 14  2  0
 14 15  1  0
 14 16  1  0
 16 17  2  0
  9  2  1  0
 17 11  1  0
  1 18  1  0
  1 19  1  0
  1 20  1  0
  3 21  1  0
  6 22  1  0
  6 23  1  0
 10 24  1  0
 10 25  1  0
 12 26  1  0
 13 27  1  0
 16 28  1  0
 17 29  1  0
M  END
>  <UniqueID>  (9) 
9

>  <SMILES>  (9) 
Cc1cc(C(N)=O)nn1Cc1ccc(F)cc1

>  <Energy>  (9) 
54.70048957436646

>  <Genealogy>  (9) 
Cc1cc(C(N)=O)nn1Cc1ccc(F)cc1 (3D coordinates assigned)
Cc1cc(C(N)=O)nn1Cc1ccc(F)cc1 (optimized conformer: 54.70048957436646 kcal/mol)

>  <smiles>  (9) 
Cc1cc(C(N)=O)nn1Cc1ccc(F)cc1

>  <score_type>  (9) 
oracle

>  <origin>  (9) 
adg

>  <m_score__min__energy>  (9) 
-7.1600000000000001

>  <m_primary>  (9) 
energy

$$$$
9:0
     RDKit          3D

 34 36  0  0  0  0  0  0  0  0999 V2000
   56.2256   28.8267   42.4903 H   0  0  0  0  0  0  0  0  0  0  0  0
   56.5060   29.6990   43.0990 C   0  0  0  0  0  0  0  0  0  0  0  0
   56.3540   29.6680   44.4960 C   0  0  0  0  0  0  0  0  0  0  0  0
   55.8700   28.5350   45.1640 O   0  0  0  0  0  0  0  0  0  0  0  0
   56.6600   27.4900   45.6690 C   0  0  0  0  0  0  0  0  0  0  0  0
   56.1070   26.2460   46.0290 C   0  0  0  0  0  0  0  0  0  0  0  0
   55.0287   26.0680   45.9042 H   0  0  0  0  0  0  0  0  0  0  0  0
   56.9260   25.2360   46.5450 C   0  0  0  0  0  0  0  0  0  0  0  0
   56.4925   24.2621   46.8164 H   0  0  0  0  0  0  0  0  0  0  0  0
   58.2940   25.4630   46.7160 C   0  0  0  0  0  0  0  0  0  0  0  0
   58.9381   24.6662   47.1165 H   0  0  0  0  0  0  0  0  0  0  0  0
   58.8440   26.7030   46.3780 C   0  0  0  0  0  0  0  0  0  0  0  0
   59.9203   26.8829   46.5168 H   0  0  0  0  0  0  0  0  0  0  0  0
   58.0280   27.7140   45.8640 C   0  0  0  0  0  0  0  0  0  0  0  0
   58.4632   28.6920   45.6110 H   0  0  0  0  0  0  0  0  0  0  0  0
   56.7300   30.7500   45.2310 N   0  0  0  0  0  0  0  0  0  0  0  0
   57.2210   31.8870   44.6600 C   0  0  0  0  0  0  0  0  0  0  0  0
   57.5890   32.9030   45.3860 N   0  0  0  0  0  0  0  0  0  0  0  0
   58.8820   33.1200   45.9770 C   0  0  0  0  0  0  0  0  0  0  0  0
   59.6120   32.0100   46.4210 C   0  0  0  0  0  0  0  0  0  0  0  0
   59.1793   31.0023   46.3349 H   0  0  0  0  0  0  0  0  0  0  0  0
   60.8870   32.1730   46.9730 C   0  0  0  0  0  0  0  0  0  0  0  0
   61.4457   31.2968   47.3336 H   0  0  0  0  0  0  0  0  0  0  0  0
   61.4530   33.4510   47.0670 C   0  0  0  0  0  0  0  0  0  0  0  0
   62.7650   33.6190   47.6320 C   0  0  0  0  0  0  0  0  0  0  0  0
   63.8210   33.7550   48.0870 N   0  0  0  0  0  0  0  0  0  0  0  0
   60.7420   34.5620   46.5950 C   0  0  0  0  0  0  0  0  0  0  0  0
   61.1880   35.5656   46.6576 H   0  0  0  0  0  0  0  0  0  0  0  0
   59.4680   34.3990   46.0450 C   0  0  0  0  0  0  0  0  0  0  0  0
   58.9203   35.2733   45.6634 H   0  0  0  0  0  0  0  0  0  0  0  0
   57.3770   31.9470   43.2710 C   0  0  0  0  0  0  0  0  0  0  0  0
   57.7809   32.8537   42.7969 H   0  0  0  0  0  0  0  0  0  0  0  0
   57.0160   30.8470   42.4920 C   0  0  0  0  0  0  0  0  0  0  0  0
   57.1336   30.8850   41.3990 H   0  0  0  0  0  0  0  0  0  0  0  0
  1  2  1  0
  2  3  2  0
  3  4  1  0
  4  5  1  0
  5  6  2  0
  6  7  1  0
  6  8  1  0
  8  9  1  0
  8 10  2  0
 10 11  1  0
 10 12  1  0
 12 13  1  0
 12 14  2  0
 14 15  1  0
  3 16  1  0
 16 17  1  0
 17 18  2  0
 18 19  1  0
 19 20  2  0
 20 21  1  0
 20 22  1  0
 22 23  1  0
 22 24  2  0
 24 25  1  0
 25 26  3  0
 24 27  1  0
 27 28  1  0
 27 29  2  0
 29 30  1  0
 17 31  1  0
 31 32  1  0
 31 33  2  0
 33 34  1  0
 33  2  1  0
 14  5  1  0
 29 19  1  0
M  CHG  1  16  -1
M  END
>  <UniqueID>  (10) 
10

>  <SMILES>  (10) 
N#Cc1ccc(/N=c2/cccc(Oc3ccccc3)[n-]2)cc1

>  <Energy>  (10) 
49.76646393487867

>  <Genealogy>  (10) 
N#Cc1ccc(N=c2cccc(Oc3ccccc3)[n-]2)cc1 (protonated)
N#Cc1ccc(/N=c2/cccc(Oc3ccccc3)[n-]2)cc1 (cis-trans isomerization)
N#Cc1ccc(/N=c2/cccc(Oc3ccccc3)[n-]2)cc1 (3D coordinates assigned)
N#Cc1ccc(/N=c2/cccc(Oc3ccccc3)[n-]2)cc1 (optimized conformer: 49.76646393487867 kcal/mol)

>  <smiles>  (10) 
N#Cc1ccc(N=c2cccc(Oc3ccccc3)[nH]2)cc1

>  <score_type>  (10) 
oracle

>  <origin>  (10) 
adg

>  <m_score__min__energy>  (10) 
-9.2699999999999996

>  <m_primary>  (10) 
energy

$$$$
10:0
     RDKit          3D

 49 52  0  0  0  0  0  0  0  0999 V2000
   54.2320   24.4340   45.6340 C   0  0  0  0  0  0  0  0  0  0  0  0
   55.5580   25.1270   45.6530 C   0  0  0  0  0  0  0  0  0  0  0  0
   55.7420   26.3400   46.2070 N   0  0  0  0  0  0  0  0  0  0  0  0
   57.0430   26.6000   45.9630 C   0  0  0  0  0  0  0  0  0  0  0  0
   57.7320   27.8590   46.4030 C   0  0  1  0  0  0  0  0  0  0  0  0
   59.1820   27.5800   46.7990 C   0  0  0  0  0  0  0  0  0  0  0  0
   60.0210   27.9780   45.5880 C   0  0  0  0  0  0  0  0  0  0  0  0
   59.1730   28.9770   44.8100 C   0  0  0  0  0  0  0  0  0  0  0  0
   57.8120   28.7980   45.2940 N   0  0  0  0  0  0  0  0  0  0  0  0
   56.6650   29.4900   44.7620 C   0  0  0  0  0  0  0  0  0  0  0  0
   55.5190   28.9770   44.8820 O   0  0  0  0  0  0  0  0  0  0  0  0
   56.8060   30.7850   44.0090 C   0  0  0  0  0  0  0  0  0  0  0  0
   56.6360   31.9010   44.8840 O   0  0  0  0  0  0  0  0  0  0  0  0
   57.6790   32.6820   45.4060 C   0  0  0  0  0  0  0  0  0  0  0  0
   57.9380   33.9260   44.8150 C   0  0  0  0  0  0  0  0  0  0  0  0
   58.9650   34.7420   45.2980 C   0  0  0  0  0  0  0  0  0  0  0  0
   59.7430   34.3220   46.3790 C   0  0  0  0  0  0  0  0  0  0  0  0
   59.4970   33.0840   46.9770 C   0  0  0  0  0  0  0  0  0  0  0  0
   58.4710   32.2630   46.4960 C   0  0  0  0  0  0  0  0  0  0  0  0
   57.6450   25.6290   45.3130 O   0  0  0  0  0  0  0  0  0  0  0  0
   56.7570   24.6890   45.1080 C   0  0  0  0  0  0  0  0  0  0  0  0
   57.0590   23.4290   44.3950 C   0  0  0  0  0  0  0  0  0  0  0  0
   56.3360   23.1020   43.2390 C   0  0  0  0  0  0  0  0  0  0  0  0
   56.6180   21.9250   42.5440 C   0  0  0  0  0  0  0  0  0  0  0  0
   57.6330   21.0870   43.0040 C   0  0  0  0  0  0  0  0  0  0  0  0
   58.3450   21.4220   44.1130 N   0  0  0  0  0  0  0  0  0  0  0  0
   58.0880   22.5640   44.8070 C   0  0  0  0  0  0  0  0  0  0  0  0
   53.8954   24.2581   46.6664 H   0  0  0  0  0  0  0  0  0  0  0  0
   53.4969   25.0632   45.1108 H   0  0  0  0  0  0  0  0  0  0  0  0
   54.3289   23.4712   45.1108 H   0  0  0  0  0  0  0  0  0  0  0  0
   57.1534   28.2585   47.2490 H   0  0  0  0  0  0  0  0  0  0  0  0
   59.4633   28.1818   47.6758 H   0  0  0  0  0  0  0  0  0  0  0  0
   59.3342   26.5251   47.0712 H   0  0  0  0  0  0  0  0  0  0  0  0
   60.9636   28.4442   45.9108 H   0  0  0  0  0  0  0  0  0  0  0  0
   60.2868   27.1053   44.9734 H   0  0  0  0  0  0  0  0  0  0  0  0
   59.5167   30.0040   45.0025 H   0  0  0  0  0  0  0  0  0  0  0  0
   59.2435   28.8116   43.7248 H   0  0  0  0  0  0  0  0  0  0  0  0
   57.8071   30.8314   43.5555 H   0  0  0  0  0  0  0  0  0  0  0  0
   56.0306   30.8263   43.2298 H   0  0  0  0  0  0  0  0  0  0  0  0
   57.3280   34.2631   43.9639 H   0  0  0  0  0  0  0  0  0  0  0  0
   59.1606   35.7162   44.8260 H   0  0  0  0  0  0  0  0  0  0  0  0
   60.5495   34.9661   46.7595 H   0  0  0  0  0  0  0  0  0  0  0  0
   60.1110   32.7537   47.8278 H   0  0  0  0  0  0  0  0  0  0  0  0
   58.2814   31.2882   46.9690 H   0  0  0  0  0  0  0  0  0  0  0  0
   55.5441   23.7752   42.8788 H   0  0  0  0  0  0  0  0  0  0  0  0
   56.0454   21.6612   41.6426 H   0  0  0  0  0  0  0  0  0  0  0  0
   57.8583   20.1529   42.4686 H   0  0  0  0  0  0  0  0  0  0  0  0
   59.1140   20.7920   44.4350 H   0  0  0  0  0  0  0  0  0  0  0  0
   58.6884   22.8116   45.6948 H   0  0  0  0  0  0  0  0  0  0  0  0
  1  2  1  0
  2  3  1  0
  3  4  2  0
  4  5  1  0
  5  6  1  0
  6  7  1  0
  7  8  1  0
  8  9  1  0
  9 10  1  0
 10 11  2  0
 10 12  1  0
 12 13  1  0
 13 14  1  0
 14 15  2  0
 15 16  1  0
 16 17  2  0
 17 18  1  0
 18 19  2  0
  4 20  1  0
 20 21  1  0
 21 22  1  0
 22 23  2  0
 23 24  1  0
 24 25  2  0
 25 26  1  0
 26 27  2  0
 21  2  2  0
 27 22  1  0
  9  5  1  0
 19 14  1  0
  1 28  1  0
  1 29  1  0
  1 30  1  0
  5 31  1  1
  6 32  1  0
  6 33  1  0
  7 34  1  0
  7 35  1  0
  8 36  1  0
  8 37  1  0
 12 38  1  0
 12 39  1  0
 15 40  1  0
 16 41  1  0
 17 42  1  0
 18 43  1  0
 19 44  1  0
 23 45  1  0
 24 46  1  0
 25 47  1  0
 26 48  1  0
 27 49  1  0
M  CHG  1  26   1
M  END
>  <UniqueID>  (11) 
11

>  <SMILES>  (11) 
Cc1nc([C@H]2CCCN2C(=O)COc2ccccc2)oc1-c1ccc[nH+]c1

>  <Energy>  (11) 
82.59464152230976

>  <Genealogy>  (11) 
Cc1nc(C2CCCN2C(=O)COc2ccccc2)oc1-c1ccc[nH+]c1 (protonated)
Cc1nc([C@H]2CCCN2C(=O)COc2ccccc2)oc1-c1ccc[nH+]c1 (chirality)
Cc1nc([C@H]2CCCN2C(=O)COc2ccccc2)oc1-c1ccc[nH+]c1 (3D coordinates assigned)
Cc1nc([C@H]2CCCN2C(=O)COc2ccccc2)oc1-c1ccc[nH+]c1 (nonaromatic ring conformer: 82.59464152230976 kcal/mol)

>  <smiles>  (11) 
Cc1nc(C2CCCN2C(=O)COc2ccccc2)oc1-c1cccnc1

>  <score_type>  (11) 
oracle

>  <origin>  (11) 
adg

>  <m_score__min__energy>  (11) 
-9

>  <m_primary>  (11) 
energy

$$$$
11:0
     RDKit          3D

 28 30  0  0  0  0  0  0  0  0999 V2000
   60.4220   34.5590   47.6540 C   0  0  0  0  0  0  0  0  0  0  0  0
   60.9780   33.3310   48.0130 C   0  0  0  0  0  0  0  0  0  0  0  0
   60.3170   32.1430   47.6900 C   0  0  0  0  0  0  0  0  0  0  0  0
   59.1000   32.1710   46.9900 C   0  0  0  0  0  0  0  0  0  0  0  0
   58.5260   33.4090   46.6570 C   0  0  0  0  0  0  0  0  0  0  0  0
   59.2010   34.6000   46.9780 C   0  0  0  0  0  0  0  0  0  0  0  0
   57.2280   33.4500   45.9160 C   0  0  0  0  0  0  0  0  0  0  0  0
   57.4390   32.9020   44.5080 C   0  0  0  0  0  0  0  0  0  0  0  0
   57.4300   31.3900   44.4240 C   0  0  0  0  0  0  0  0  0  0  0  0
   56.9710   30.8370   43.2100 C   0  0  0  0  0  0  0  0  0  0  0  0
   56.9140   29.4590   43.0190 C   0  0  0  0  0  0  0  0  0  0  0  0
   57.3220   28.6000   44.0320 C   0  0  0  0  0  0  0  0  0  0  0  0
   57.8030   29.1170   45.2330 C   0  0  0  0  0  0  0  0  0  0  0  0
   57.8880   30.5060   45.4510 C   0  0  0  0  0  0  0  0  0  0  0  0
   58.4190   30.9370   46.7250 N   0  0  0  0  0  0  0  0  0  0  0  0
   60.9450   35.4941   47.9032 H   0  0  0  0  0  0  0  0  0  0  0  0
   61.9371   33.2979   48.5506 H   0  0  0  0  0  0  0  0  0  0  0  0
   60.7536   31.1779   47.9865 H   0  0  0  0  0  0  0  0  0  0  0  0
   58.7647   35.5693   46.6950 H   0  0  0  0  0  0  0  0  0  0  0  0
   56.4836   32.8349   46.4428 H   0  0  0  0  0  0  0  0  0  0  0  0
   56.8664   34.4873   45.8594 H   0  0  0  0  0  0  0  0  0  0  0  0
   56.6359   33.2884   43.8632 H   0  0  0  0  0  0  0  0  0  0  0  0
   58.4382   33.2311   44.1865 H   0  0  0  0  0  0  0  0  0  0  0  0
   56.6519   31.5076   42.3985 H   0  0  0  0  0  0  0  0  0  0  0  0
   56.5460   29.0505   42.0663 H   0  0  0  0  0  0  0  0  0  0  0  0
   57.2652   27.5113   43.8857 H   0  0  0  0  0  0  0  0  0  0  0  0
   58.1229   28.4264   46.0272 H   0  0  0  0  0  0  0  0  0  0  0  0
   58.5430   30.1970   47.4550 H   0  0  0  0  0  0  0  0  0  0  0  0
  1  2  2  0
  2  3  1  0
  3  4  2  0
  4  5  1  0
  5  6  2  0
  5  7  1  0
  7  8  1  0
  8  9  1  0
  9 10  2  0
 10 11  1  0
 11 12  2  0
 12 13  1  0
 13 14  2  0
 14 15  1  0
  6  1  1  0
 14  9  1  0
 15  4  1  0
  1 16  1  0
  2 17  1  0
  3 18  1  0
  6 19  1  0
  7 20  1  0
  7 21  1  0
  8 22  1  0
  8 23  1  0
 10 24  1  0
 11 25  1  0
 12 26  1  0
 13 27  1  0
 15 28  1  0
M  END
>  <UniqueID>  (12) 
12

>  <SMILES>  (12) 
c1ccc2c(c1)CCc1ccccc1N2

>  <Energy>  (12) 
43.97463593811683

>  <Genealogy>  (12) 
c1ccc2c(c1)CCc1ccccc1N2 (3D coordinates assigned)
c1ccc2c(c1)CCc1ccccc1N2 (nonaromatic ring conformer: 43.97463593811683 kcal/mol)

>  <smiles>  (12) 
c1ccc2c(c1)CCc1ccccc1N2

>  <score_type>  (12) 
oracle

>  <origin>  (12) 
adg

>  <m_score__min__energy>  (12) 
-5.0499999999999998

>  <m_primary>  (12) 
energy

$$$$
12:0
     RDKit          3D

 42 44  0  0  0  0  0  0  0  0999 V2000
   56.6560   30.6630   45.1870 O   0  0  0  0  0  0  0  0  0  0  0  0
   57.9110   30.7360   45.2780 C   0  0  0  0  0  0  0  0  0  0  0  0
   58.5420   32.1190   45.2680 C   0  0  1  0  0  0  0  0  0  0  0  0
   57.7200   33.1120   44.4030 C   0  0  0  0  0  0  0  0  0  0  0  0
   57.8390   34.5710   44.8770 C   0  0  0  0  0  0  0  0  0  0  0  0
   59.2540   34.8810   45.3770 C   0  0  0  0  0  0  0  0  0  0  0  0
   59.6590   34.0050   46.5830 C   0  0  0  0  0  0  0  0  0  0  0  0
   58.8610   32.6800   46.6830 C   0  0  2  0  0  0  0  0  0  0  0  0
   59.5960   31.6840   47.5660 C   0  0  0  0  0  0  0  0  0  0  0  0
   58.8930   30.7710   48.3780 C   0  0  0  0  0  0  0  0  0  0  0  0
   59.5850   29.8570   49.1790 C   0  0  0  0  0  0  0  0  0  0  0  0
   60.9810   29.8350   49.1720 C   0  0  0  0  0  0  0  0  0  0  0  0
   61.6880   30.7210   48.3570 C   0  0  0  0  0  0  0  0  0  0  0  0
   61.0030   31.6370   47.5540 C   0  0  0  0  0  0  0  0  0  0  0  0
   58.6690   29.5170   45.4350 N   0  0  0  0  0  0  0  0  0  0  0  0
   58.0300   28.2600   45.7930 C   0  0  0  0  0  0  0  0  0  0  0  0
   59.1030   27.1890   45.6590 C   0  0  0  0  0  0  0  0  0  0  0  0
   60.4300   27.9380   45.6210 C   0  0  0  0  0  0  0  0  0  0  0  0
   60.0910   29.3520   45.1750 C   0  0  0  0  0  0  0  0  0  0  0  0
   59.5255   31.9985   44.7903 H   0  0  0  0  0  0  0  0  0  0  0  0
   58.0788   33.0513   43.3649 H   0  0  0  0  0  0  0  0  0  0  0  0
   56.6619   32.8247   44.4920 H   0  0  0  0  0  0  0  0  0  0  0  0
   57.6009   35.2409   44.0376 H   0  0  0  0  0  0  0  0  0  0  0  0
   57.1358   34.7239   45.7089 H   0  0  0  0  0  0  0  0  0  0  0  0
   59.9651   34.7030   44.5568 H   0  0  0  0  0  0  0  0  0  0  0  0
   59.2706   35.9308   45.7052 H   0  0  0  0  0  0  0  0  0  0  0  0
   60.7278   33.7613   46.4925 H   0  0  0  0  0  0  0  0  0  0  0  0
   59.4376   34.5844   47.4915 H   0  0  0  0  0  0  0  0  0  0  0  0
   57.8916   32.8767   47.1641 H   0  0  0  0  0  0  0  0  0  0  0  0
   57.7930   30.7775   48.3816 H   0  0  0  0  0  0  0  0  0  0  0  0
   59.0282   29.1539   49.8159 H   0  0  0  0  0  0  0  0  0  0  0  0
   61.5234   29.1201   49.8082 H   0  0  0  0  0  0  0  0  0  0  0  0
   62.7877   30.6980   48.3469 H   0  0  0  0  0  0  0  0  0  0  0  0
   61.5671   32.3260   46.9081 H   0  0  0  0  0  0  0  0  0  0  0  0
   57.6588   28.3014   46.8276 H   0  0  0  0  0  0  0  0  0  0  0  0
   57.1672   28.0483   45.1444 H   0  0  0  0  0  0  0  0  0  0  0  0
   59.0727   26.5057   46.5205 H   0  0  0  0  0  0  0  0  0  0  0  0
   58.9559   26.5772   44.7568 H   0  0  0  0  0  0  0  0  0  0  0  0
   60.8920   27.9509   46.6192 H   0  0  0  0  0  0  0  0  0  0  0  0
   61.1480   27.4582   44.9396 H   0  0  0  0  0  0  0  0  0  0  0  0
   60.6738   30.0859   45.7510 H   0  0  0  0  0  0  0  0  0  0  0  0
   60.3306   29.5111   44.1132 H   0  0  0  0  0  0  0  0  0  0  0  0
  1  2  2  0
  2  3  1  0
  3  4  1  0
  4  5  1  0
  5  6  1  0
  6  7  1  0
  7  8  1  0
  8  9  1  0
  9 10  2  0
 10 11  1  0
 11 12  2  0
 12 13  1  0
 13 14  2  0
  2 15  1  0
 15 16  1  0
 16 17  1  0
 17 18  1  0
 18 19  1  0
  8  3  1  0
 14  9  1  0
 19 15  1  0
  3 20  1  6
  4 21  1  0
  4 22  1  0
  5 23  1  0
  5 24  1  0
  6 25  1  0
  6 26  1  0
  7 27  1  0
  7 28  1  0
  8 29  1  1
 10 30  1  0
 11 31  1  0
 12 32  1  0
 13 33  1  0
 14 34  1  0
 16 35  1  0
 16 36  1  0
 17 37  1  0
 17 38  1  0
 18 39  1  0
 18 40  1  0
 19 41  1  0
 19 42  1  0
M  END
>  <UniqueID>  (13) 
13

>  <SMILES>  (13) 
O=C([C@H]1CCCC[C@@H]1c1ccccc1)N1CCCC1

>  <Energy>  (13) 
47.31272658112956

>  <Genealogy>  (13) 
O=C([C@H]1CCCC[C@@H]1c1ccccc1)N1CCCC1 (chirality)
O=C([C@H]1CCCC[C@@H]1c1ccccc1)N1CCCC1 (3D coordinates assigned)
O=C([C@H]1CCCC[C@@H]1c1ccccc1)N1CCCC1 (nonaromatic ring conformer: 47.31272658112956 kcal/mol)

>  <smiles>  (13) 
O=C(C1CCCCC1c1ccccc1)N1CCCC1

>  <score_type>  (13) 
oracle

>  <origin>  (13) 
adg

>  <m_score__min__energy>  (13) 
-7.2999999999999998

>  <m_primary>  (13) 
energy

$$$$
13:0
     RDKit          3D

 37 39  0  0  0  0  0  0  0  0999 V2000
   58.1122   32.4460   42.7498 H   0  0  0  0  0  0  0  0  0  0  0  0
   57.7680   32.3050   43.7850 C   0  0  0  0  0  0  0  0  0  0  0  0
   57.5710   33.3420   44.5420 N   0  0  0  0  0  0  0  0  0  0  0  0
   58.5700   33.9410   45.3760 C   0  0  0  0  0  0  0  0  0  0  0  0
   59.2750   35.1150   45.1690 C   0  0  0  0  0  0  0  0  0  0  0  0
   59.1605   35.7901   44.3081 H   0  0  0  0  0  0  0  0  0  0  0  0
   60.1250   35.2910   46.2000 N   0  0  0  0  0  0  0  0  0  0  0  0
   59.9640   34.2750   47.0370 N   0  0  0  0  0  0  0  0  0  0  0  0
   60.7520   34.0900   48.2500 C   0  0  0  0  0  0  0  0  0  0  0  0
   60.0875   33.7930   49.0747 H   0  0  0  0  0  0  0  0  0  0  0  0
   61.2572   35.0343   48.5009 H   0  0  0  0  0  0  0  0  0  0  0  0
   61.7830   33.0210   48.0320 C   0  0  0  0  0  0  0  0  0  0  0  0
   61.8960   31.8050   48.6870 C   0  0  0  0  0  0  0  0  0  0  0  0
   60.9530   31.2390   49.6970 C   0  0  0  0  0  0  0  0  0  0  0  0
   61.3229   31.4610   50.7089 H   0  0  0  0  0  0  0  0  0  0  0  0
   59.9585   31.6896   49.5631 H   0  0  0  0  0  0  0  0  0  0  0  0
   60.8829   30.1494   49.5631 H   0  0  0  0  0  0  0  0  0  0  0  0
   62.9980   31.2110   48.2890 O   0  0  0  0  0  0  0  0  0  0  0  0
   63.6270   31.9510   47.4240 N   0  0  0  0  0  0  0  0  0  0  0  0
   64.5400   31.7060   46.9810 H   0  0  0  0  0  0  0  0  0  0  0  0
   62.9140   33.0780   47.2340 C   0  0  0  0  0  0  0  0  0  0  0  0
   63.3670   34.2270   46.3920 C   0  0  0  0  0  0  0  0  0  0  0  0
   63.6924   35.0523   47.0424 H   0  0  0  0  0  0  0  0  0  0  0  0
   64.2065   33.9077   45.7570 H   0  0  0  0  0  0  0  0  0  0  0  0
   62.5354   34.5665   45.7570 H   0  0  0  0  0  0  0  0  0  0  0  0
   59.0290   33.4280   46.5650 C   0  0  0  0  0  0  0  0  0  0  0  0
   58.6942   32.4960   47.0439 H   0  0  0  0  0  0  0  0  0  0  0  0
   57.5360   30.9400   44.2960 C   0  0  0  0  0  0  0  0  0  0  0  0
   56.2260   30.4530   44.4130 C   0  0  0  0  0  0  0  0  0  0  0  0
   55.3775   31.0905   44.1238 H   0  0  0  0  0  0  0  0  0  0  0  0
   55.9990   29.1970   44.8820 N   0  0  0  0  0  0  0  0  0  0  0  0
   57.0180   28.3770   45.2510 C   0  0  0  0  0  0  0  0  0  0  0  0
   56.8014   27.3666   45.6280 H   0  0  0  0  0  0  0  0  0  0  0  0
   58.3390   28.8160   45.1520 C   0  0  0  0  0  0  0  0  0  0  0  0
   59.1674   28.1554   45.4476 H   0  0  0  0  0  0  0  0  0  0  0  0
   58.5990   30.1020   44.6740 C   0  0  0  0  0  0  0  0  0  0  0  0
   59.6362   30.4593   44.5933 H   0  0  0  0  0  0  0  0  0  0  0  0
  1  2  1  0
  2  3  2  0
  3  4  1  0
  4  5  1  0
  5  6  1  0
  5  7  2  0
  7  8  1  0
  8  9  1  0
  9 10  1  0
  9 11  1  0
  9 12  1  0
 12 13  2  0
 13 14  1  0
 14 15  1  0
 14 16  1  0
 14 17  1  0
 13 18  1  0
 18 19  1  0
 19 20  1  0
 19 21  2  0
 21 22  1  0
 22 23  1  0
 22 24  1  0
 22 25  1  0
  8 26  1  0
 26 27  1  0
  2 28  1  0
 28 29  2  0
 29 30  1  0
 29 31  1  0
 31 32  2  0
 32 33  1  0
 32 34  1  0
 34 35  1  0
 34 36  2  0
 36 37  1  0
 26  4  2  0
 36 28  1  0
 21 12  1  0
M  CHG  1  19   1
M  END
>  <UniqueID>  (14) 
14

>  <SMILES>  (14) 
Cc1[nH+]oc(C)c1Cn1cc(/N=C/c2cccnc2)cn1

>  <Energy>  (14) 
97.91281556806705

>  <Genealogy>  (14) 
Cc1[nH+]oc(C)c1Cn1cc(N=Cc2cccnc2)cn1 (protonated)
Cc1[nH+]oc(C)c1Cn1cc(/N=C/c2cccnc2)cn1 (cis-trans isomerization)
Cc1[nH+]oc(C)c1Cn1cc(/N=C/c2cccnc2)cn1 (3D coordinates assigned)
Cc1[nH+]oc(C)c1Cn1cc(/N=C/c2cccnc2)cn1 (optimized conformer: 97.91281556806705 kcal/mol)

>  <smiles>  (14) 
Cc1noc(C)c1Cn1cc(N=Cc2cccnc2)cn1

>  <score_type>  (14) 
oracle

>  <origin>  (14) 
adg

>  <m_score__min__energy>  (14) 
-6.2800000000000002

>  <m_primary>  (14) 
energy

$$$$
14:0
     RDKit          3D

 43 46  0  0  1  0  0  0  0  0999 V2000
   63.1070   34.2740   50.3780 C   0  0  0  0  0  0  0  0  0  0  0  0
   62.5520   34.2180   49.0970 O   0  0  0  0  0  0  0  0  0  0  0  0
   61.9580   33.0450   48.6550 C   0  0  0  0  0  0  0  0  0  0  0  0
   62.5390   32.4160   47.5750 C   0  0  0  0  0  0  0  0  0  0  0  0
   61.9640   31.2550   47.1290 C   0  0  0  0  0  0  0  0  0  0  0  0
   60.8260   30.6970   47.7240 C   0  0  0  0  0  0  0  0  0  0  0  0
   60.3940   29.4670   47.1920 N   0  0  0  0  0  0  0  0  0  0  0  0
   59.6180   29.2590   46.2250 C   0  0  0  0  0  0  0  0  0  0  0  0
   59.7030   28.0940   45.5370 C   0  0  0  0  0  0  0  0  0  0  0  0
   58.9020   27.8050   44.4850 C   0  0  0  0  0  0  0  0  0  0  0  0
   57.9740   28.7340   44.1140 C   0  0  0  0  0  0  0  0  0  0  0  0
   57.1800   28.4500   43.0740 N   0  0  0  0  0  0  0  0  0  0  0  0
   56.2650   29.3400   42.6900 C   0  0  0  0  0  0  0  0  0  0  0  0
   56.1730   30.4910   43.3610 N   0  0  0  0  0  0  0  0  0  0  0  0
   56.9660   30.8030   44.4200 C   0  0  0  0  0  0  0  0  0  0  0  0
   56.8220   31.8730   44.9850 N   0  0  0  0  0  0  0  0  0  0  0  0
   57.5720   32.9140   45.3930 C   0  0  0  0  0  0  0  0  0  0  0  0
   57.6980   33.1780   46.7790 C   0  0  0  0  0  0  0  0  0  0  0  0
   58.5770   34.1310   47.2280 C   0  0  0  0  0  0  0  0  0  0  0  0
   59.3270   34.8200   46.3070 C   0  0  0  0  0  0  0  0  0  0  0  0
   60.2410   35.7750   46.6600 F   0  0  0  0  0  0  0  0  0  0  0  0
   59.2290   34.5900   44.9330 C   0  0  0  0  0  0  0  0  0  0  0  0
   58.3470   33.6340   44.4810 C   0  0  0  0  0  0  0  0  0  0  0  0
   57.9200   29.9090   44.8410 C   0  0  0  0  0  0  0  0  0  0  0  0
   58.6970   30.2060   45.8720 N   0  0  0  0  0  0  0  0  0  0  0  0
   60.2440   31.3290   48.8040 C   0  0  0  0  0  0  0  0  0  0  0  0
   60.8350   32.4960   49.2410 C   0  0  0  0  0  0  0  0  0  0  0  0
   62.3066   34.1932   51.1282 H   0  0  0  0  0  0  0  0  0  0  0  0
   63.8158   33.4428   50.5071 H   0  0  0  0  0  0  0  0  0  0  0  0
   63.6355   35.2300   50.5071 H   0  0  0  0  0  0  0  0  0  0  0  0
   63.4334   32.8317   47.0879 H   0  0  0  0  0  0  0  0  0  0  0  0
   62.4151   30.7401   46.2680 H   0  0  0  0  0  0  0  0  0  0  0  0
   60.4543   27.3526   45.8467 H   0  0  0  0  0  0  0  0  0  0  0  0
   58.9962   26.8508   43.9458 H   0  0  0  0  0  0  0  0  0  0  0  0
   57.2720   27.5420   42.5650 H   0  0  0  0  0  0  0  0  0  0  0  0
   55.6002   29.1310   41.8389 H   0  0  0  0  0  0  0  0  0  0  0  0
   57.0871   32.6152   47.5001 H   0  0  0  0  0  0  0  0  0  0  0  0
   58.6788   34.3388   48.3034 H   0  0  0  0  0  0  0  0  0  0  0  0
   59.8455   35.1624   44.2243 H   0  0  0  0  0  0  0  0  0  0  0  0
   58.2529   33.4376   43.4028 H   0  0  0  0  0  0  0  0  0  0  0  0
   58.7370   31.0240   46.4620 H   0  0  0  0  0  0  0  0  0  0  0  0
   59.3484   30.9201   49.2946 H   0  0  0  0  0  0  0  0  0  0  0  0
   60.3884   33.0163   50.1011 H   0  0  0  0  0  0  0  0  0  0  0  0
  1  2  1  0
  2  3  1  0
  3  4  2  0
  4  5  1  0
  5  6  2  0
  6  7  1  0
  7  8  2  0
  8  9  1  0
  9 10  2  0
 10 11  1  0
 11 12  1  0
 12 13  1  0
 13 14  2  0
 14 15  1  0
 15 16  2  0
 16 17  1  0
 17 18  2  0
 18 19  1  0
 19 20  2  0
 20 21  1  0
 20 22  1  0
 22 23  2  0
 15 24  1  0
 24 25  1  0
  6 26  1  0
 26 27  2  0
 27  3  1  0
 25  8  1  0
 24 11  2  0
 23 17  1  0
  1 28  1  0
  1 29  1  0
  1 30  1  0
  4 31  1  0
  5 32  1  0
  9 33  1  0
 10 34  1  0
 12 35  1  0
 13 36  1  0
 18 37  1  0
 19 38  1  0
 22 39  1  0
 23 40  1  0
 25 41  1  0
 26 42  1  0
 27 43  1  0
M  END
>  <smiles>  (15) 
COc1ccc(N=c2ccc3[nH]cnc(=Nc4ccc(F)cc4)c3[nH]2)cc1

>  <score_type>  (15) 
oracle

>  <origin>  (15) 
adg

>  <m_score__min__energy>  (15) 
-7.8600000000000003

>  <m_primary>  (15) 
energy

$$$$
15:0
     RDKit          3D

 27 29  0  0  0  0  0  0  0  0999 V2000
   56.0826   23.2211   46.6235 H   0  0  0  0  0  0  0  0  0  0  0  0
   55.9500   24.2910   46.4050 C   0  0  0  0  0  0  0  0  0  0  0  0
   54.7650   24.9080   46.2300 N   0  0  0  0  0  0  0  0  0  0  0  0
   54.9900   26.1890   45.9840 N   0  0  0  0  0  0  0  0  0  0  0  0
   56.3210   26.3940   46.0020 C   0  0  0  0  0  0  0  0  0  0  0  0
   56.9550   27.6970   45.7690 C   0  0  0  0  0  0  0  0  0  0  0  0
   58.1550   27.8710   46.1150 O   0  0  0  0  0  0  0  0  0  0  0  0
   56.2000   28.7520   45.1500 N   0  0  0  0  0  0  0  0  0  0  0  0
   56.6820   29.8660   44.6860 C   0  0  0  0  0  0  0  0  0  0  0  0
   57.2810   30.8130   45.4400 N   0  0  0  0  0  0  0  0  0  0  0  0
   57.6910   31.8760   44.6930 C   0  0  0  0  0  0  0  0  0  0  0  0
   58.3700   33.0430   45.3170 C   0  0  0  0  0  0  0  0  0  0  0  0
   58.6540   34.1830   44.5410 C   0  0  0  0  0  0  0  0  0  0  0  0
   58.3720   34.2027   43.4779 H   0  0  0  0  0  0  0  0  0  0  0  0
   59.2910   35.2900   45.1090 C   0  0  0  0  0  0  0  0  0  0  0  0
   59.5106   36.1734   44.4914 H   0  0  0  0  0  0  0  0  0  0  0  0
   59.6490   35.2770   46.4580 C   0  0  0  0  0  0  0  0  0  0  0  0
   60.1525   36.1485   46.9018 H   0  0  0  0  0  0  0  0  0  0  0  0
   59.3680   34.1580   47.2440 C   0  0  0  0  0  0  0  0  0  0  0  0
   59.8100   34.1480   48.9420 Cl  0  0  0  0  0  0  0  0  0  0  0  0
   58.7310   33.0450   46.6810 C   0  0  0  0  0  0  0  0  0  0  0  0
   58.5108   32.1670   47.3060 H   0  0  0  0  0  0  0  0  0  0  0  0
   57.4060   31.7640   43.3260 C   0  0  0  0  0  0  0  0  0  0  0  0
   57.6497   32.5088   42.5541 H   0  0  0  0  0  0  0  0  0  0  0  0
   56.6270   30.2950   43.0670 S   0  0  0  0  0  0  0  0  0  0  0  0
   56.9700   25.2070   46.2680 C   0  0  0  0  0  0  0  0  0  0  0  0
   58.0527   25.0317   46.3516 H   0  0  0  0  0  0  0  0  0  0  0  0
  1  2  1  0
  2  3  1  0
  3  4  1  0
  4  5  2  0
  5  6  1  0
  6  7  2  0
  6  8  1  0
  8  9  2  0
  9 10  1  0
 10 11  1  0
 11 12  1  0
 12 13  2  0
 13 14  1  0
 13 15  1  0
 15 16  1  0
 15 17  2  0
 17 18  1  0
 17 19  1  0
 19 20  1  0
 19 21  2  0
 21 22  1  0
 11 23  2  0
 23 24  1  0
 23 25  1  0
  5 26  1  0
 26 27  1  0
 26  2  2  0
 25  9  1  0
 21 12  1  0
M  CHG  2   3  -1  10  -1
M  END
>  <UniqueID>  (16) 
15

>  <SMILES>  (16) 
O=C(/N=c1\[n-]c(-c2cccc(Cl)c2)cs1)c1cc[n-]n1

>  <Energy>  (16) 
91.80831027099964

>  <Genealogy>  (16) 
O=C(N=c1[n-]c(-c2cccc(Cl)c2)cs1)c1cc[n-]n1 (protonated)
O=C(/N=c1\[n-]c(-c2cccc(Cl)c2)cs1)c1cc[n-]n1 (cis-trans isomerization)
O=C(/N=c1\[n-]c(-c2cccc(Cl)c2)cs1)c1cc[n-]n1 (3D coordinates assigned)
O=C(/N=c1\[n-]c(-c2cccc(Cl)c2)cs1)c1cc[n-]n1 (optimized conformer: 91.80831027099964 kcal/mol)

>  <smiles>  (16) 
O=C(N=c1[nH]c(-c2cccc(Cl)c2)cs1)c1cc[nH]n1

>  <score_type>  (16) 
oracle

>  <origin>  (16) 
adg

>  <m_score__min__energy>  (16) 
-12.16

>  <m_primary>  (16) 
energy

$$$$
16:0
     RDKit          3D

 39 41  0  0  0  0  0  0  0  0999 V2000
   58.4824   34.5198   47.8994 H   0  0  0  0  0  0  0  0  0  0  0  0
   58.4100   33.9280   46.9750 C   0  0  0  0  0  0  0  0  0  0  0  0
   59.2690   32.8440   46.7690 C   0  0  0  0  0  0  0  0  0  0  0  0
   60.0187   32.5852   47.5312 H   0  0  0  0  0  0  0  0  0  0  0  0
   59.1770   32.0890   45.5970 C   0  0  0  0  0  0  0  0  0  0  0  0
   59.8586   31.2406   45.4372 H   0  0  0  0  0  0  0  0  0  0  0  0
   58.2170   32.4090   44.6210 C   0  0  0  0  0  0  0  0  0  0  0  0
   58.1410   31.6230   43.3420 C   0  0  0  0  0  0  0  0  0  0  0  0
   59.0294   30.9800   43.2568 H   0  0  0  0  0  0  0  0  0  0  0  0
   58.1010   32.3208   42.4926 H   0  0  0  0  0  0  0  0  0  0  0  0
   56.9110   30.7710   43.3340 C   0  0  0  0  0  0  0  0  0  0  0  0
   56.4710   30.3110   42.2460 O   0  0  0  0  0  0  0  0  0  0  0  0
   56.2600   30.4610   44.5670 N   0  0  0  0  0  0  0  0  0  0  0  0
   55.8150   29.2950   44.8030 N   0  0  0  0  0  0  0  0  0  0  0  0
   56.6460   28.2620   45.3420 C   0  0  0  0  0  0  0  0  0  0  0  0
   56.1890   27.0760   45.8890 C   0  0  0  0  0  0  0  0  0  0  0  0
   54.8530   26.7120   46.0000 O   0  0  0  0  0  0  0  0  0  0  0  0
   57.2220   26.3020   46.2980 N   0  0  0  0  0  0  0  0  0  0  0  0
   57.1270   24.9560   46.8660 C   0  0  0  0  0  0  0  0  0  0  0  0
   56.2888   24.9209   47.5774 H   0  0  0  0  0  0  0  0  0  0  0  0
   58.0693   24.7181   47.3812 H   0  0  0  0  0  0  0  0  0  0  0  0
   56.8930   23.9300   45.7620 C   0  0  0  0  0  0  0  0  0  0  0  0
   56.6698   22.9515   46.2122 H   0  0  0  0  0  0  0  0  0  0  0  0
   56.0445   24.2490   45.1388 H   0  0  0  0  0  0  0  0  0  0  0  0
   57.7959   23.8496   45.1388 H   0  0  0  0  0  0  0  0  0  0  0  0
   58.3430   26.9920   45.9870 C   0  0  0  0  0  0  0  0  0  0  0  0
   59.6720   26.5980   46.1780 C   0  0  0  0  0  0  0  0  0  0  0  0
   59.9143   25.6280   46.6367 H   0  0  0  0  0  0  0  0  0  0  0  0
   60.6880   27.4770   45.7670 C   0  0  0  0  0  0  0  0  0  0  0  0
   61.7423   27.1966   45.9077 H   0  0  0  0  0  0  0  0  0  0  0  0
   60.3660   28.7170   45.1750 C   0  0  0  0  0  0  0  0  0  0  0  0
   61.1717   29.3963   44.8597 H   0  0  0  0  0  0  0  0  0  0  0  0
   59.0260   29.0910   44.9850 C   0  0  0  0  0  0  0  0  0  0  0  0
   58.7672   30.0539   44.5204 H   0  0  0  0  0  0  0  0  0  0  0  0
   58.0300   28.2030   45.4040 C   0  0  0  0  0  0  0  0  0  0  0  0
   57.3660   33.5070   44.8300 C   0  0  0  0  0  0  0  0  0  0  0  0
   56.6227   33.7765   44.0653 H   0  0  0  0  0  0  0  0  0  0  0  0
   57.4590   34.2590   46.0050 C   0  0  0  0  0  0  0  0  0  0  0  0
   56.7833   35.1119   46.1665 H   0  0  0  0  0  0  0  0  0  0  0  0
  1  2  1  0
  2  3  2  0
  3  4  1  0
  3  5  1  0
  5  6  1  0
  5  7  2  0
  7  8  1  0
  8  9  1  0
  8 10  1  0
  8 11  1  0
 11 12  2  0
 11 13  1  0
 13 14  2  0
 14 15  1  0
 15 16  2  0
 16 17  1  0
 16 18  1  0
 18 19  1  0
 19 20  1  0
 19 21  1  0
 19 22  1  0
 22 23  1  0
 22 24  1  0
 22 25  1  0
 18 26  1  0
 26 27  2  0
 27 28  1  0
 27 29  1  0
 29 30  1  0
 29 31  2  0
 31 32  1  0
 31 33  1  0
 33 34  1  0
 33 35  2  0
  7 36  1  0
 36 37  1  0
 36 38  2  0
 38 39  1  0
 38  2  1  0
 35 15  1  0
 35 26  1  0
M  CHG  1  17  -1
M  END
>  <UniqueID>  (17) 
16

>  <SMILES>  (17) 
CCn1c([O-])c(/N=N/C(=O)Cc2ccccc2)c2ccccc21

>  <Energy>  (17) 
71.33437906626507

>  <Genealogy>  (17) 
CCn1c([O-])c(N=NC(=O)Cc2ccccc2)c2ccccc21 (protonated)
CCn1c([O-])c(/N=N/C(=O)Cc2ccccc2)c2ccccc21 (cis-trans isomerization)
CCn1c([O-])c(/N=N/C(=O)Cc2ccccc2)c2ccccc21 (3D coordinates assigned)
CCn1c([O-])c(/N=N/C(=O)Cc2ccccc2)c2ccccc21 (optimized conformer: 71.33437906626507 kcal/mol)

>  <smiles>  (17) 
CCn1c(O)c(N=NC(=O)Cc2ccccc2)c2ccccc21

>  <score_type>  (17) 
oracle

>  <origin>  (17) 
adg

>  <m_score__min__energy>  (17) 
-12.300000000000001

>  <m_primary>  (17) 
energy

$$$$
17:0
     RDKit          3D

 28 31  0  0  0  0  0  0  0  0999 V2000
   57.9750   33.9050   46.7130 C   0  0  0  0  0  0  0  0  0  0  0  0
   57.7560   34.4830   45.4460 C   0  0  0  0  0  0  0  0  0  0  0  0
   57.8040   33.6890   44.2870 C   0  0  0  0  0  0  0  0  0  0  0  0
   58.0720   32.3260   44.4280 C   0  0  0  0  0  0  0  0  0  0  0  0
   58.2790   31.7690   45.6560 C   0  0  0  0  0  0  0  0  0  0  0  0
   58.2410   32.5300   46.8250 C   0  0  0  0  0  0  0  0  0  0  0  0
   58.5310   30.3850   45.5590 N   0  0  0  0  0  0  0  0  0  0  0  0
   58.5180   30.0070   44.1410 C   0  0  2  0  0  0  0  0  0  0  0  0
   58.1630   31.2790   43.3690 C   0  0  1  0  0  0  0  0  0  0  0  0
   56.9090   31.1180   42.7430 O   0  0  0  0  0  0  0  0  0  0  0  0
   56.3910   29.9020   43.1080 N   0  0  2  0  0  0  0  0  0  0  0  0
   55.3320   30.0770   44.1140 C   0  0  0  0  0  0  0  0  0  0  0  0
   55.5930   29.2680   45.2420 O   0  0  0  0  0  0  0  0  0  0  0  0
   56.6370   28.4050   44.8800 C   0  0  0  0  0  0  0  0  0  0  0  0
   57.3900   29.0730   43.7480 C   0  0  2  0  0  0  0  0  0  0  0  0
   57.9375   34.5320   47.6160 H   0  0  0  0  0  0  0  0  0  0  0  0
   57.5467   35.5598   45.3640 H   0  0  0  0  0  0  0  0  0  0  0  0
   57.6347   34.1305   43.2938 H   0  0  0  0  0  0  0  0  0  0  0  0
   58.4145   32.0661   47.8072 H   0  0  0  0  0  0  0  0  0  0  0  0
   58.8350   29.7770   46.3510 H   0  0  0  0  0  0  0  0  0  0  0  0
   59.4891   29.5319   43.9378 H   0  0  0  0  0  0  0  0  0  0  0  0
   58.8933   31.5272   42.5848 H   0  0  0  0  0  0  0  0  0  0  0  0
   56.0110   29.4300   42.2530 H   0  0  0  0  0  0  0  0  0  0  0  0
   54.3643   29.7898   43.6768 H   0  0  0  0  0  0  0  0  0  0  0  0
   55.3044   31.1312   44.4268 H   0  0  0  0  0  0  0  0  0  0  0  0
   56.2303   27.4393   44.5453 H   0  0  0  0  0  0  0  0  0  0  0  0
   57.3021   28.2126   45.7348 H   0  0  0  0  0  0  0  0  0  0  0  0
   57.8606   28.2794   43.1491 H   0  0  0  0  0  0  0  0  0  0  0  0
  1  2  2  0
  2  3  1  0
  3  4  2  0
  4  5  1  0
  5  6  2  0
  5  7  1  0
  7  8  1  0
  8  9  1  0
  9 10  1  0
 10 11  1  0
 11 12  1  0
 12 13  1  0
 13 14  1  0
 14 15  1  0
  6  1  1  0
 15  8  1  0
  9  4  1  0
 15 11  1  0
  1 16  1  0
  2 17  1  0
  3 18  1  0
  6 19  1  0
  7 20  1  0
  8 21  1  6
  9 22  1  6
 11 23  1  6
 12 24  1  0
 12 25  1  0
 14 26  1  0
 14 27  1  0
 15 28  1  6
M  CHG  1  11   1
M  END
>  <UniqueID>  (18) 
17

>  <SMILES>  (18) 
c1ccc2c(c1)N[C@H]1C3COC[NH+]3O[C@@H]21

>  <Energy>  (18) 
52.39486977439449

>  <Genealogy>  (18) 
c1ccc2c(c1)NC1C2O[NH+]2COCC12 (protonated)
c1ccc2c(c1)N[C@H]1C3COC[NH+]3O[C@@H]21 (chirality)
c1ccc2c(c1)N[C@H]1C3COC[NH+]3O[C@@H]21 (3D coordinates assigned)
c1ccc2c(c1)N[C@H]1C3COC[NH+]3O[C@@H]21 (nonaromatic ring conformer: 52.39486977439449 kcal/mol)

>  <smiles>  (18) 
c1ccc2c(c1)NC1C2ON2COCC12

>  <score_type>  (18) 
oracle

>  <origin>  (18) 
adg

>  <m_score__min__energy>  (18) 
-4.5499999999999998

>  <m_primary>  (18) 
energy

$$$$
18:0
     RDKit          3D

 29 31  0  0  0  0  0  0  0  0999 V2000
   55.3650   26.6540   45.9940 O   0  0  0  0  0  0  0  0  0  0  0  0
   56.2720   27.4670   45.6740 C   0  0  0  0  0  0  0  0  0  0  0  0
   55.9300   28.6750   45.1520 N   0  0  0  0  0  0  0  0  0  0  0  0
   56.8600   29.6010   44.7910 C   0  0  0  0  0  0  0  0  0  0  0  0
   56.4120   30.8980   44.1840 C   0  0  0  0  0  0  0  0  0  0  0  0
   57.3150   32.0190   44.6280 C   0  0  0  0  0  0  0  0  0  0  0  0
   57.3960   32.3530   45.9900 C   0  0  0  0  0  0  0  0  0  0  0  0
   58.2040   33.4130   46.4110 C   0  0  0  0  0  0  0  0  0  0  0  0
   58.9300   34.1550   45.4740 C   0  0  0  0  0  0  0  0  0  0  0  0
   59.7130   35.1830   45.8840 F   0  0  0  0  0  0  0  0  0  0  0  0
   58.8470   33.8380   44.1160 C   0  0  0  0  0  0  0  0  0  0  0  0
   58.0410   32.7780   43.6890 C   0  0  0  0  0  0  0  0  0  0  0  0
   57.9680   32.4940   42.3640 F   0  0  0  0  0  0  0  0  0  0  0  0
   58.2230   29.3120   44.9360 C   0  0  0  0  0  0  0  0  0  0  0  0
   58.6140   28.0770   45.4700 C   0  0  0  0  0  0  0  0  0  0  0  0
   59.9340   27.7720   45.6270 N   0  0  0  0  0  0  0  0  0  0  0  0
   60.3130   26.5730   46.1450 C   0  0  0  0  0  0  0  0  0  0  0  0
   59.3790   25.6590   46.5140 N   0  0  0  0  0  0  0  0  0  0  0  0
   58.0530   25.9150   46.3760 C   0  0  0  0  0  0  0  0  0  0  0  0
   57.6300   27.1410   45.8460 C   0  0  0  0  0  0  0  0  0  0  0  0
   56.4456   30.8169   43.0875 H   0  0  0  0  0  0  0  0  0  0  0  0
   55.3846   31.1126   44.5132 H   0  0  0  0  0  0  0  0  0  0  0  0
   56.8203   31.7771   46.7295 H   0  0  0  0  0  0  0  0  0  0  0  0
   58.2689   33.6637   47.4801 H   0  0  0  0  0  0  0  0  0  0  0  0
   59.4174   34.4240   43.3803 H   0  0  0  0  0  0  0  0  0  0  0  0
   58.9809   30.0493   44.6328 H   0  0  0  0  0  0  0  0  0  0  0  0
   60.6730   28.4580   45.3510 H   0  0  0  0  0  0  0  0  0  0  0  0
   61.3818   26.3424   46.2657 H   0  0  0  0  0  0  0  0  0  0  0  0
   57.3118   25.1611   46.6798 H   0  0  0  0  0  0  0  0  0  0  0  0
  1  2  2  0
  2  3  1  0
  3  4  1  0
  4  5  1  0
  5  6  1  0
  6  7  2  0
  7  8  1  0
  8  9  2  0
  9 10  1  0
  9 11  1  0
 11 12  2  0
 12 13  1  0
  4 14  2  0
 14 15  1  0
 15 16  2  0
 16 17  1  0
 17 18  2  0
 18 19  1  0
 19 20  2  0
 20  2  1  0
 12  6  1  0
 20 15  1  0
  5 21  1  0
  5 22  1  0
  7 23  1  0
  8 24  1  0
 11 25  1  0
 14 26  1  0
 16 27  1  0
 17 28  1  0
 19 29  1  0
M  CHG  2   3  -1  16   1
M  END
>  <UniqueID>  (19) 
18

>  <SMILES>  (19) 
O=c1[n-]c(Cc2ccc(F)cc2F)cc2[nH+]cncc12

>  <Energy>  (19) 
36.16032185981168

>  <Genealogy>  (19) 
O=c1[n-]c(Cc2ccc(F)cc2F)cc2[nH+]cncc12 (protonated)
O=c1[n-]c(Cc2ccc(F)cc2F)cc2[nH+]cncc12 (3D coordinates assigned)
O=c1[n-]c(Cc2ccc(F)cc2F)cc2[nH+]cncc12 (optimized conformer: 36.16032185981168 kcal/mol)

>  <smiles>  (19) 
O=c1[nH]c(Cc2ccc(F)cc2F)cc2ncncc12

>  <score_type>  (19) 
oracle

>  <origin>  (19) 
adg

>  <m_score__min__energy>  (19) 
-7.3799999999999999

>  <m_primary>  (19) 
energy

$$$$
19:0
     RDKit          3D

 44 46  0  0  0  0  0  0  0  0999 V2000
   62.6770   31.8150   48.4000 C   0  0  0  0  0  0  0  0  0  0  0  0
   62.0230   33.1540   48.7240 C   0  0  0  0  0  0  0  0  0  0  0  0
   60.8640   33.3920   47.8380 N   0  0  0  0  0  0  0  0  0  0  0  0
   59.5730   33.3520   48.3130 C   0  0  0  0  0  0  0  0  0  0  0  0
   59.2550   33.0000   49.7080 C   0  0  0  0  0  0  0  0  0  0  0  0
   59.6540   33.8450   50.7550 C   0  0  0  0  0  0  0  0  0  0  0  0
   59.3310   33.5240   52.0770 C   0  0  0  0  0  0  0  0  0  0  0  0
   58.5990   32.3660   52.3580 C   0  0  0  0  0  0  0  0  0  0  0  0
   58.1860   31.5300   51.3180 C   0  0  0  0  0  0  0  0  0  0  0  0
   58.5060   31.8470   49.9940 C   0  0  0  0  0  0  0  0  0  0  0  0
   58.5350   33.6290   47.4850 N   0  0  0  0  0  0  0  0  0  0  0  0
   58.7530   33.9410   46.1880 C   0  0  0  0  0  0  0  0  0  0  0  0
   57.3720   34.2170   45.0810 S   0  0  0  0  0  0  0  0  0  0  0  0
   57.7200   32.7710   44.0160 C   0  0  0  0  0  0  0  0  0  0  0  0
   57.8670   31.5180   44.8260 C   0  0  0  0  0  0  0  0  0  0  0  0
   56.9120   30.6970   44.8680 O   0  0  0  0  0  0  0  0  0  0  0  0
   59.1220   31.2230   45.4670 N   0  0  0  0  0  0  0  0  0  0  0  0
   59.4050   30.0020   46.1690 C   0  0  0  0  0  0  0  0  0  0  0  0
   60.0240   28.9120   45.5310 C   0  0  0  0  0  0  0  0  0  0  0  0
   60.2750   27.7310   46.2380 C   0  0  0  0  0  0  0  0  0  0  0  0
   59.8990   27.6240   47.5800 C   0  0  0  0  0  0  0  0  0  0  0  0
   60.1420   26.4780   48.2630 F   0  0  0  0  0  0  0  0  0  0  0  0
   59.2620   28.6940   48.2130 C   0  0  0  0  0  0  0  0  0  0  0  0
   59.0080   29.8750   47.5090 C   0  0  0  0  0  0  0  0  0  0  0  0
   60.0170   33.9980   45.7130 N   0  0  0  0  0  0  0  0  0  0  0  0
   61.0700   33.7390   46.5260 C   0  0  0  0  0  0  0  0  0  0  0  0
   62.2360   33.8190   46.0520 O   0  0  0  0  0  0  0  0  0  0  0  0
   62.9309   31.2951   49.3355 H   0  0  0  0  0  0  0  0  0  0  0  0
   61.9789   31.1979   47.8154 H   0  0  0  0  0  0  0  0  0  0  0  0
   63.5929   31.9862   47.8154 H   0  0  0  0  0  0  0  0  0  0  0  0
   61.6834   33.1472   49.7703 H   0  0  0  0  0  0  0  0  0  0  0  0
   62.7595   33.9563   48.5695 H   0  0  0  0  0  0  0  0  0  0  0  0
   60.2217   34.7612   50.5353 H   0  0  0  0  0  0  0  0  0  0  0  0
   59.6530   34.1830   52.8968 H   0  0  0  0  0  0  0  0  0  0  0  0
   58.3483   32.1133   53.3988 H   0  0  0  0  0  0  0  0  0  0  0  0
   57.6082   30.6209   51.5407 H   0  0  0  0  0  0  0  0  0  0  0  0
   58.1707   31.1926   49.1759 H   0  0  0  0  0  0  0  0  0  0  0  0
   56.8906   32.6423   43.3050 H   0  0  0  0  0  0  0  0  0  0  0  0
   58.6656   32.9523   43.4840 H   0  0  0  0  0  0  0  0  0  0  0  0
   59.9260   31.8640   45.2720 H   0  0  0  0  0  0  0  0  0  0  0  0
   60.3119   28.9883   44.4721 H   0  0  0  0  0  0  0  0  0  0  0  0
   60.7690   26.8854   45.7370 H   0  0  0  0  0  0  0  0  0  0  0  0
   58.9597   28.6073   49.2671 H   0  0  0  0  0  0  0  0  0  0  0  0
   58.4940   30.7095   48.0084 H   0  0  0  0  0  0  0  0  0  0  0  0
  1  2  1  0
  2  3  1  0
  3  4  1  0
  4  5  1  0
  5  6  2  0
  6  7  1  0
  7  8  2  0
  8  9  1  0
  9 10  2  0
  4 11  2  0
 11 12  1  0
 12 13  1  0
 13 14  1  0
 14 15  1  0
 15 16  2  0
 15 17  1  0
 17 18  1  0
 18 19  2  0
 19 20  1  0
 20 21  2  0
 21 22  1  0
 21 23  1  0
 23 24  2  0
 12 25  2  0
 25 26  1  0
 26 27  2  0
 26  3  1  0
 10  5  1  0
 24 18  1  0
  1 28  1  0
  1 29  1  0
  1 30  1  0
  2 31  1  0
  2 32  1  0
  6 33  1  0
  7 34  1  0
  8 35  1  0
  9 36  1  0
 10 37  1  0
 14 38  1  0
 14 39  1  0
 17 40  1  0
 19 41  1  0
 20 42  1  0
 23 43  1  0
 24 44  1  0
M  END
>  <UniqueID>  (20) 
19

>  <SMILES>  (20) 
CCn1c(-c2ccccc2)nc(SCC(=O)Nc2ccc(F)cc2)nc1=O

>  <Energy>  (20) 
51.805127008923726

>  <Genealogy>  (20) 
CCn1c(-c2ccccc2)nc(SCC(=O)Nc2ccc(F)cc2)nc1=O (3D coordinates assigned)
CCn1c(-c2ccccc2)nc(SCC(=O)Nc2ccc(F)cc2)nc1=O (optimized conformer: 51.805127008923726 kcal/mol)

>  <smiles>  (20) 
CCn1c(-c2ccccc2)nc(SCC(=O)Nc2ccc(F)cc2)nc1=O

>  <score_type>  (20) 
oracle

>  <origin>  (20) 
adg

>  <m_score__min__energy>  (20) 
-7.8200000000000003

>  <m_primary>  (20) 
energy

$$$$
20:0
     RDKit          3D

 31 34  0  0  0  0  0  0  0  0999 V2000
   56.1815   29.7294   41.4291 H   0  0  0  0  0  0  0  0  0  0  0  0
   56.6430   30.2740   42.2660 C   0  0  0  0  0  0  0  0  0  0  0  0
   56.8650   29.6730   43.8310 S   0  0  0  0  0  0  0  0  0  0  0  0
   57.6130   31.0560   44.4340 C   0  0  0  0  0  0  0  0  0  0  0  0
   58.0370   31.3360   45.7320 C   0  0  0  0  0  0  0  0  0  0  0  0
   57.7750   30.4490   46.6580 N   0  0  0  0  0  0  0  0  0  0  0  0
   58.5250   29.3010   47.0730 C   0  0  0  0  0  0  0  0  0  0  0  0
   58.5020   28.1150   46.3170 C   0  0  0  0  0  0  0  0  0  0  0  0
   57.8665   28.0465   45.4218 H   0  0  0  0  0  0  0  0  0  0  0  0
   59.2860   27.0230   46.7020 C   0  0  0  0  0  0  0  0  0  0  0  0
   59.2489   26.0885   46.1230 H   0  0  0  0  0  0  0  0  0  0  0  0
   60.1160   27.1180   47.8210 C   0  0  0  0  0  0  0  0  0  0  0  0
   60.7270   26.2559   48.1268 H   0  0  0  0  0  0  0  0  0  0  0  0
   60.1710   28.3080   48.5530 C   0  0  0  0  0  0  0  0  0  0  0  0
   60.8318   28.3843   49.4291 H   0  0  0  0  0  0  0  0  0  0  0  0
   59.3860   29.4020   48.1720 C   0  0  0  0  0  0  0  0  0  0  0  0
   59.4457   30.3436   48.7375 H   0  0  0  0  0  0  0  0  0  0  0  0
   58.6830   32.6000   45.9350 C   0  0  0  0  0  0  0  0  0  0  0  0
   59.4100   32.9460   47.0970 C   0  0  0  0  0  0  0  0  0  0  0  0
   59.5261   32.2088   47.9051 H   0  0  0  0  0  0  0  0  0  0  0  0
   59.9830   34.2140   47.2310 C   0  0  0  0  0  0  0  0  0  0  0  0
   60.5134   34.4785   48.1577 H   0  0  0  0  0  0  0  0  0  0  0  0
   59.8870   35.1450   46.1990 C   0  0  0  0  0  0  0  0  0  0  0  0
   60.3087   36.1529   46.3268 H   0  0  0  0  0  0  0  0  0  0  0  0
   59.2570   34.8000   45.0050 C   0  0  0  0  0  0  0  0  0  0  0  0
   59.2064   35.5294   44.1832 H   0  0  0  0  0  0  0  0  0  0  0  0
   58.6890   33.5330   44.8450 C   0  0  0  0  0  0  0  0  0  0  0  0
   58.1820   33.2040   43.6570 O   0  0  0  0  0  0  0  0  0  0  0  0
   57.6750   32.0030   43.4320 C   0  0  0  0  0  0  0  0  0  0  0  0
   57.1420   31.5740   42.2130 C   0  0  0  0  0  0  0  0  0  0  0  0
   57.0870   32.5680   40.7700 Cl  0  0  0  0  0  0  0  0  0  0  0  0
  1  2  1  0
  2  3  1  0
  3  4  1  0
  4  5  1  0
  5  6  2  0
  6  7  1  0
  7  8  2  0
  8  9  1  0
  8 10  1  0
 10 11  1  0
 10 12  2  0
 12 13  1  0
 12 14  1  0
 14 15  1  0
 14 16  2  0
 16 17  1  0
  5 18  1  0
 18 19  2  0
 19 20  1  0
 19 21  1  0
 21 22  1  0
 21 23  2  0
 23 24  1  0
 23 25  1  0
 25 26  1  0
 25 27  2  0
 27 28  1  0
 28 29  1  0
 29 30  1  0
 30 31  1  0
 30  2  2  0
 29  4  2  0
 16  7  1  0
 27 18  1  0
M  END
>  <UniqueID>  (21) 
20

>  <SMILES>  (21) 
Clc1csc2/c(=N/c3ccccc3)c3ccccc3oc12

>  <Energy>  (21) 
90.44204978571894

>  <Genealogy>  (21) 
Clc1csc2/c(=N/c3ccccc3)c3ccccc3oc12 (cis-trans isomerization)
Clc1csc2/c(=N/c3ccccc3)c3ccccc3oc12 (3D coordinates assigned)
Clc1csc2/c(=N/c3ccccc3)c3ccccc3oc12 (optimized conformer: 90.44204978571894 kcal/mol)

>  <smiles>  (21) 
Clc1csc2c(=Nc3ccccc3)c3ccccc3oc12

>  <score_type>  (21) 
oracle

>  <origin>  (21) 
adg

>  <m_score__min__energy>  (21) 
-7.2999999999999998

>  <m_primary>  (21) 
energy

$$$$
21:0
     RDKit          3D

 39 41  0  0  0  0  0  0  0  0999 V2000
   60.2330   33.8150   49.6240 C   0  0  0  0  0  0  0  0  0  0  0  0
   60.7660   34.5220   48.4470 N   0  0  0  0  0  0  0  0  0  0  0  0
   61.8130   33.7350   47.7610 C   0  0  0  0  0  0  0  0  0  0  0  0
   61.2320   32.4840   47.0800 C   0  0  0  0  0  0  0  0  0  0  0  0
   59.9390   32.7810   46.4540 N   0  0  0  0  0  0  0  0  0  0  0  0
   59.1150   31.7020   45.9750 C   0  0  0  0  0  0  0  0  0  0  0  0
   59.3110   30.4000   46.2850 N   0  0  0  0  0  0  0  0  0  0  0  0
   58.4250   29.5700   45.6630 C   0  0  0  0  0  0  0  0  0  0  0  0
   58.5190   28.1040   45.8260 C   0  0  0  0  0  0  0  0  0  0  0  0
   59.7660   27.4570   45.7940 C   0  0  0  0  0  0  0  0  0  0  0  0
   59.8470   26.0740   45.9830 C   0  0  0  0  0  0  0  0  0  0  0  0
   58.6880   25.3300   46.2190 C   0  0  0  0  0  0  0  0  0  0  0  0
   57.4470   25.9690   46.2730 C   0  0  0  0  0  0  0  0  0  0  0  0
   57.3610   27.3530   46.0840 C   0  0  0  0  0  0  0  0  0  0  0  0
   57.4930   30.2310   44.8440 C   0  0  0  0  0  0  0  0  0  0  0  0
   56.3470   29.6560   44.1150 C   0  0  0  0  0  0  0  0  0  0  0  0
   55.1500   29.3380   44.8170 N   0  0  0  0  0  0  0  0  0  0  0  0
   56.4260   29.4110   42.8820 O   0  0  0  0  0  0  0  0  0  0  0  0
   57.8320   31.8810   44.9020 S   0  0  0  0  0  0  0  0  0  0  0  0
   59.5780   34.1840   46.2270 C   0  0  0  0  0  0  0  0  0  0  0  0
   59.6810   34.9820   47.5400 C   0  0  0  0  0  0  0  0  0  0  0  0
   60.5992   34.3008   50.5405 H   0  0  0  0  0  0  0  0  0  0  0  0
   59.1337   33.8488   49.6053 H   0  0  0  0  0  0  0  0  0  0  0  0
   60.5680   32.7674   49.6053 H   0  0  0  0  0  0  0  0  0  0  0  0
   62.2907   34.3667   46.9976 H   0  0  0  0  0  0  0  0  0  0  0  0
   62.5433   33.4062   48.5150 H   0  0  0  0  0  0  0  0  0  0  0  0
   61.9340   32.1353   46.3083 H   0  0  0  0  0  0  0  0  0  0  0  0
   61.0823   31.7062   47.8433 H   0  0  0  0  0  0  0  0  0  0  0  0
   60.0920   30.0510   46.8830 H   0  0  0  0  0  0  0  0  0  0  0  0
   60.6819   28.0408   45.6196 H   0  0  0  0  0  0  0  0  0  0  0  0
   60.8245   25.5709   45.9459 H   0  0  0  0  0  0  0  0  0  0  0  0
   58.7528   24.2413   46.3622 H   0  0  0  0  0  0  0  0  0  0  0  0
   56.5358   25.3833   46.4644 H   0  0  0  0  0  0  0  0  0  0  0  0
   56.3832   27.8540   46.1377 H   0  0  0  0  0  0  0  0  0  0  0  0
   55.1620   28.6830   45.6300 H   0  0  0  0  0  0  0  0  0  0  0  0
   60.2621   34.6189   45.4835 H   0  0  0  0  0  0  0  0  0  0  0  0
   58.5422   34.2318   45.8597 H   0  0  0  0  0  0  0  0  0  0  0  0
   59.8646   36.0372   47.2893 H   0  0  0  0  0  0  0  0  0  0  0  0
   58.7332   34.8315   48.0777 H   0  0  0  0  0  0  0  0  0  0  0  0
  1  2  1  0
  2  3  1  0
  3  4  1  0
  4  5  1  0
  5  6  1  0
  6  7  2  0
  7  8  1  0
  8  9  1  0
  9 10  2  0
 10 11  1  0
 11 12  2  0
 12 13  1  0
 13 14  2  0
  8 15  2  0
 15 16  1  0
 16 17  1  0
 16 18  2  0
 15 19  1  0
  5 20  1  0
 20 21  1  0
 21  2  1  0
 19  6  1  0
 14  9  1  0
  1 22  1  0
  1 23  1  0
  1 24  1  0
  3 25  1  0
  3 26  1  0
  4 27  1  0
  4 28  1  0
  7 29  1  0
 10 30  1  0
 11 31  1  0
 12 32  1  0
 13 33  1  0
 14 34  1  0
 17 35  1  0
 20 36  1  0
 20 37  1  0
 21 38  1  0
 21 39  1  0
M  CHG  2   7   1  17  -1
M  END
>  <UniqueID>  (22) 
21

>  <SMILES>  (22) 
CN1CCN(c2[nH+]c(-c3ccccc3)c(C([NH-])=O)s2)CC1

>  <Energy>  (22) 
84.93006350644397

>  <Genealogy>  (22) 
CN1CCN(c2[nH+]c(-c3ccccc3)c(C([NH-])=O)s2)CC1 (protonated)
CN1CCN(c2[nH+]c(-c3ccccc3)c(C([NH-])=O)s2)CC1 (3D coordinates assigned)
CN1CCN(c2[nH+]c(-c3ccccc3)c(C([NH-])=O)s2)CC1 (nonaromatic ring conformer: 84.93006350644397 kcal/mol)

>  <smiles>  (22) 
CN1CCN(c2nc(-c3ccccc3)c(C(N)=O)s2)CC1

>  <score_type>  (22) 
oracle

>  <origin>  (22) 
adg

>  <m_score__min__energy>  (22) 
-8.9399999999999995

>  <m_primary>  (22) 
energy

$$$$
22:0
     RDKit          3D

 44 47  0  0  0  0  0  0  0  0999 V2000
   56.7310   29.6010   42.9480 C   0  0  0  0  0  0  0  0  0  0  0  0
   57.2250   30.3380   44.1530 C   0  0  0  0  0  0  0  0  0  0  0  0
   57.0530   31.7230   44.2530 C   0  0  0  0  0  0  0  0  0  0  0  0
   57.5190   32.4040   45.3820 C   0  0  0  0  0  0  0  0  0  0  0  0
   57.2730   34.1860   45.4630 S   0  0  0  0  0  0  0  0  0  0  0  0
   58.9450   34.5660   44.8490 C   0  0  0  0  0  0  0  0  0  0  0  0
   59.8860   34.6570   46.0050 C   0  0  0  0  0  0  0  0  0  0  0  0
   59.6010   35.4050   46.9790 O   0  0  0  0  0  0  0  0  0  0  0  0
   61.1080   33.9020   45.9930 N   0  0  0  0  0  0  0  0  0  0  0  0
   61.9660   33.7370   47.1350 C   0  0  0  0  0  0  0  0  0  0  0  0
   63.2890   33.3020   46.9440 C   0  0  0  0  0  0  0  0  0  0  0  0
   64.1420   33.1190   48.0380 C   0  0  0  0  0  0  0  0  0  0  0  0
   63.6740   33.3550   49.3320 C   0  0  0  0  0  0  0  0  0  0  0  0
   62.3420   33.7390   49.5370 C   0  0  0  0  0  0  0  0  0  0  0  0
   61.4920   33.9390   48.4450 C   0  0  0  0  0  0  0  0  0  0  0  0
   61.8790   33.9130   50.8460 O   0  0  0  0  0  0  0  0  0  0  0  0
   62.6400   33.4530   51.9650 C   0  0  0  0  0  0  0  0  0  0  0  0
   64.1360   33.6950   51.7270 C   0  0  0  0  0  0  0  0  0  0  0  0
   64.5170   33.2070   50.4380 O   0  0  0  0  0  0  0  0  0  0  0  0
   58.1550   31.6830   46.4160 C   0  0  0  0  0  0  0  0  0  0  0  0
   58.6470   32.3040   47.5810 C   0  0  0  0  0  0  0  0  0  0  0  0
   59.2720   31.5450   48.5740 C   0  0  0  0  0  0  0  0  0  0  0  0
   59.4150   30.1640   48.4210 C   0  0  0  0  0  0  0  0  0  0  0  0
   58.9330   29.5330   47.2730 C   0  0  0  0  0  0  0  0  0  0  0  0
   58.3050   30.2820   46.2700 C   0  0  0  0  0  0  0  0  0  0  0  0
   57.8420   29.6580   45.1550 N   0  0  0  0  0  0  0  0  0  0  0  0
   56.1450   28.7267   43.2677 H   0  0  0  0  0  0  0  0  0  0  0  0
   56.0964   30.2673   42.3453 H   0  0  0  0  0  0  0  0  0  0  0  0
   57.5885   29.2672   42.3453 H   0  0  0  0  0  0  0  0  0  0  0  0
   56.5518   32.2755   43.4445 H   0  0  0  0  0  0  0  0  0  0  0  0
   59.2762   33.7687   44.1674 H   0  0  0  0  0  0  0  0  0  0  0  0
   58.9305   35.5243   44.3091 H   0  0  0  0  0  0  0  0  0  0  0  0
   61.4290   33.5110   45.0780 H   0  0  0  0  0  0  0  0  0  0  0  0
   63.6567   33.1039   45.9264 H   0  0  0  0  0  0  0  0  0  0  0  0
   65.1794   32.7898   47.8788 H   0  0  0  0  0  0  0  0  0  0  0  0
   60.4512   34.2547   48.6098 H   0  0  0  0  0  0  0  0  0  0  0  0
   62.3235   33.9967   52.8673 H   0  0  0  0  0  0  0  0  0  0  0  0
   62.4683   32.3743   52.0954 H   0  0  0  0  0  0  0  0  0  0  0  0
   64.3427   34.7740   51.7826 H   0  0  0  0  0  0  0  0  0  0  0  0
   64.7125   33.1616   52.4972 H   0  0  0  0  0  0  0  0  0  0  0  0
   58.5387   33.3911   47.7095 H   0  0  0  0  0  0  0  0  0  0  0  0
   59.6533   32.0376   49.4807 H   0  0  0  0  0  0  0  0  0  0  0  0
   59.9083   29.5727   49.2065 H   0  0  0  0  0  0  0  0  0  0  0  0
   59.0466   28.4452   47.1559 H   0  0  0  0  0  0  0  0  0  0  0  0
  1  2  1  0
  2  3  2  0
  3  4  1  0
  4  5  1  0
  5  6  1  0
  6  7  1  0
  7  8  2  0
  7  9  1  0
  9 10  1  0
 10 11  2  0
 11 12  1  0
 12 13  2  0
 13 14  1  0
 14 15  2  0
 14 16  1  0
 16 17  1  0
 17 18  1  0
 18 19  1  0
  4 20  2  0
 20 21  1  0
 21 22  2  0
 22 23  1  0
 23 24  2  0
 24 25  1  0
 25 26  2  0
 26  2  1  0
 15 10  1  0
 25 20  1  0
 19 13  1  0
  1 27  1  0
  1 28  1  0
  1 29  1  0
  3 30  1  0
  6 31  1  0
  6 32  1  0
  9 33  1  0
 11 34  1  0
 12 35  1  0
 15 36  1  0
 17 37  1  0
 17 38  1  0
 18 39  1  0
 18 40  1  0
 21 41  1  0
 22 42  1  0
 23 43  1  0
 24 44  1  0
M  END
>  <UniqueID>  (23) 
22

>  <SMILES>  (23) 
Cc1cc(SCC(=O)Nc2ccc3c(c2)OCCO3)c2ccccc2n1

>  <Energy>  (23) 
49.81275037461741

>  <Genealogy>  (23) 
Cc1cc(SCC(=O)Nc2ccc3c(c2)OCCO3)c2ccccc2n1 (3D coordinates assigned)
Cc1cc(SCC(=O)Nc2ccc3c(c2)OCCO3)c2ccccc2n1 (nonaromatic ring conformer: 49.81275037461741 kcal/mol)

>  <smiles>  (23) 
Cc1cc(SCC(=O)Nc2ccc3c(c2)OCCO3)c2ccccc2n1

>  <score_type>  (23) 
oracle

>  <origin>  (23) 
adg

>  <m_score__min__energy>  (23) 
-8.3699999999999992

>  <m_primary>  (23) 
energy

$$$$
23:0
     RDKit          3D

 40 41  0  0  0  0  0  0  0  0999 V2000
   60.0270   26.3250   46.8380 C   0  0  0  0  0  0  0  0  0  0  0  0
   59.1100   25.9050   45.6950 C   0  0  0  0  0  0  0  0  0  0  0  0
   57.7970   26.5420   45.8360 N   0  0  0  0  0  0  0  0  0  0  0  0
   57.6610   27.9600   45.6520 C   0  0  0  0  0  0  0  0  0  0  0  0
   57.0510   28.4690   44.4960 C   0  0  0  0  0  0  0  0  0  0  0  0
   56.9200   29.8500   44.3200 C   0  0  0  0  0  0  0  0  0  0  0  0
   57.4070   30.7380   45.2850 C   0  0  0  0  0  0  0  0  0  0  0  0
   57.2440   32.1150   45.0770 O   0  0  0  0  0  0  0  0  0  0  0  0
   58.1040   33.1160   45.5540 C   0  0  0  0  0  0  0  0  0  0  0  0
   58.6030   34.1300   44.7170 C   0  0  0  0  0  0  0  0  0  0  0  0
   59.4520   35.1130   45.2310 C   0  0  0  0  0  0  0  0  0  0  0  0
   59.7940   35.1050   46.5860 C   0  0  0  0  0  0  0  0  0  0  0  0
   59.2710   34.1230   47.4400 C   0  0  0  0  0  0  0  0  0  0  0  0
   59.6590   34.0960   48.8890 C   0  0  0  0  0  0  0  0  0  0  0  0
   58.4340   33.1260   46.9160 C   0  0  0  0  0  0  0  0  0  0  0  0
   58.0000   30.2260   46.4540 C   0  0  0  0  0  0  0  0  0  0  0  0
   58.1300   28.8460   46.6310 C   0  0  0  0  0  0  0  0  0  0  0  0
   56.3620   25.5870   46.0790 S   0  0  0  0  0  0  0  0  0  0  0  0
   56.2840   24.3220   44.8300 C   0  0  0  0  0  0  0  0  0  0  0  0
   55.1430   26.4620   45.9890 O   0  0  0  0  0  0  0  0  0  0  0  0
   56.3880   24.9330   47.4320 O   0  0  0  0  0  0  0  0  0  0  0  0
   59.5406   26.1022   47.7991 H   0  0  0  0  0  0  0  0  0  0  0  0
   60.9751   25.7714   46.7698 H   0  0  0  0  0  0  0  0  0  0  0  0
   60.2271   27.4045   46.7698 H   0  0  0  0  0  0  0  0  0  0  0  0
   59.5600   26.2089   44.7383 H   0  0  0  0  0  0  0  0  0  0  0  0
   58.9826   24.8127   45.7213 H   0  0  0  0  0  0  0  0  0  0  0  0
   56.6746   27.7798   43.7257 H   0  0  0  0  0  0  0  0  0  0  0  0
   56.4303   30.2411   43.4160 H   0  0  0  0  0  0  0  0  0  0  0  0
   58.3236   34.1491   43.6532 H   0  0  0  0  0  0  0  0  0  0  0  0
   59.8520   35.8945   44.5682 H   0  0  0  0  0  0  0  0  0  0  0  0
   60.4755   35.8713   46.9840 H   0  0  0  0  0  0  0  0  0  0  0  0
   58.7546   34.1589   49.5120 H   0  0  0  0  0  0  0  0  0  0  0  0
   60.1911   33.1587   49.1087 H   0  0  0  0  0  0  0  0  0  0  0  0
   60.3158   34.9506   49.1087 H   0  0  0  0  0  0  0  0  0  0  0  0
   58.0335   32.3457   47.5799 H   0  0  0  0  0  0  0  0  0  0  0  0
   58.3625   30.9147   47.2313 H   0  0  0  0  0  0  0  0  0  0  0  0
   58.6028   28.4533   47.5433 H   0  0  0  0  0  0  0  0  0  0  0  0
   56.2231   23.3348   45.3113 H   0  0  0  0  0  0  0  0  0  0  0  0
   55.3939   24.4799   44.2033 H   0  0  0  0  0  0  0  0  0  0  0  0
   57.1868   24.3693   44.2033 H   0  0  0  0  0  0  0  0  0  0  0  0
  1  2  1  0
  2  3  1  0
  3  4  1  0
  4  5  2  0
  5  6  1  0
  6  7  2  0
  7  8  1  0
  8  9  1  0
  9 10  2  0
 10 11  1  0
 11 12  2  0
 12 13  1  0
 13 14  1  0
 13 15  2  0
  7 16  1  0
 16 17  2  0
  3 18  1  0
 18 19  1  0
 18 20  2  0
 18 21  2  0
 17  4  1  0
 15  9  1  0
  1 22  1  0
  1 23  1  0
  1 24  1  0
  2 25  1  0
  2 26  1  0
  5 27  1  0
  6 28  1  0
 10 29  1  0
 11 30  1  0
 12 31  1  0
 14 32  1  0
 14 33  1  0
 14 34  1  0
 15 35  1  0
 16 36  1  0
 17 37  1  0
 19 38  1  0
 19 39  1  0
 19 40  1  0
M  END
>  <UniqueID>  (24) 
23

>  <SMILES>  (24) 
CCN(c1ccc(Oc2cccc(C)c2)cc1)S(C)(=O)=O

>  <Energy>  (24) 
44.39061477794427

>  <Genealogy>  (24) 
CCN(c1ccc(Oc2cccc(C)c2)cc1)S(C)(=O)=O (3D coordinates assigned)
CCN(c1ccc(Oc2cccc(C)c2)cc1)S(C)(=O)=O (optimized conformer: 44.39061477794427 kcal/mol)

>  <smiles>  (24) 
CCN(c1ccc(Oc2cccc(C)c2)cc1)S(C)(=O)=O

>  <score_type>  (24) 
oracle

>  <origin>  (24) 
adg

>  <m_score__min__energy>  (24) 
-7.7199999999999998

>  <m_primary>  (24) 
energy

$$$$
24:0
     RDKit          3D

 52 56  0  0  0  0  0  0  0  0999 V2000
   60.3080   30.3490   49.4640 C   0  0  0  0  0  0  0  0  0  0  0  0
   59.7420   31.0550   48.4070 C   0  0  0  0  0  0  0  0  0  0  0  0
   60.4850   32.0610   47.7660 C   0  0  0  0  0  0  0  0  0  0  0  0
   59.9090   32.8160   46.5780 C   0  0  2  0  0  0  0  0  0  0  0  0
   60.2280   34.3380   46.6470 C   0  0  0  0  0  0  0  0  0  0  0  0
   59.2420   35.1700   46.0480 O   0  0  0  0  0  0  0  0  0  0  0  0
   58.7270   34.5780   44.8750 C   0  0  0  0  0  0  0  0  0  0  0  0
   57.8100   33.3970   45.2550 C   0  0  1  0  0  0  0  0  0  0  0  0
   57.5960   32.4040   44.1040 C   0  0  0  0  0  0  0  0  0  0  0  0
   58.1430   31.1080   44.5340 N   0  0  0  0  0  0  0  0  0  0  0  0
   57.3720   29.9780   43.9830 C   0  0  0  0  0  0  0  0  0  0  0  0
   55.8920   30.2740   43.8730 C   0  0  0  0  0  0  0  0  0  0  0  0
   55.5580   29.3460   44.8790 O   0  0  0  0  0  0  0  0  0  0  0  0
   56.9130   29.0090   45.0520 C   0  0  0  0  0  0  0  0  0  0  0  0
   58.0820   31.1320   45.9980 C   0  0  0  0  0  0  0  0  0  0  0  0
   58.3850   32.5680   46.4120 C   0  0  1  0  0  0  0  0  0  0  0  0
   61.7550   32.3320   48.1930 N   0  0  0  0  0  0  0  0  0  0  0  0
   62.3390   31.6480   49.2260 C   0  0  0  0  0  0  0  0  0  0  0  0
   63.6950   31.9540   49.6360 N   0  0  0  0  0  0  0  0  0  0  0  0
   64.3830   31.2700   50.7220 C   0  0  0  0  0  0  0  0  0  0  0  0
   65.8000   31.8240   50.7400 C   0  0  0  0  0  0  0  0  0  0  0  0
   65.7720   33.0870   49.8820 C   0  0  0  0  0  0  0  0  0  0  0  0
   64.5150   32.9930   49.0290 C   0  0  0  0  0  0  0  0  0  0  0  0
   61.6050   30.6390   49.8790 C   0  0  0  0  0  0  0  0  0  0  0  0
   59.7309   29.5620   49.9716 H   0  0  0  0  0  0  0  0  0  0  0  0
   58.7184   30.8269   48.0749 H   0  0  0  0  0  0  0  0  0  0  0  0
   60.4050   32.4148   45.6819 H   0  0  0  0  0  0  0  0  0  0  0  0
   60.3224   34.6227   47.7053 H   0  0  0  0  0  0  0  0  0  0  0  0
   61.1573   34.4914   46.0788 H   0  0  0  0  0  0  0  0  0  0  0  0
   58.1486   35.3246   44.3110 H   0  0  0  0  0  0  0  0  0  0  0  0
   59.5578   34.2121   44.2538 H   0  0  0  0  0  0  0  0  0  0  0  0
   56.8609   33.8791   45.5323 H   0  0  0  0  0  0  0  0  0  0  0  0
   56.5221   32.3056   43.8871 H   0  0  0  0  0  0  0  0  0  0  0  0
   58.0988   32.7540   43.1904 H   0  0  0  0  0  0  0  0  0  0  0  0
   58.0132   29.7059   43.1316 H   0  0  0  0  0  0  0  0  0  0  0  0
   55.6330   31.3114   44.1313 H   0  0  0  0  0  0  0  0  0  0  0  0
   55.4057   30.1886   42.8900 H   0  0  0  0  0  0  0  0  0  0  0  0
   57.2987   29.2484   46.0540 H   0  0  0  0  0  0  0  0  0  0  0  0
   57.2107   27.9530   44.9732 H   0  0  0  0  0  0  0  0  0  0  0  0
   57.0794   30.8390   46.3429 H   0  0  0  0  0  0  0  0  0  0  0  0
   58.8004   30.4266   46.4411 H   0  0  0  0  0  0  0  0  0  0  0  0
   57.9507   32.8255   47.3893 H   0  0  0  0  0  0  0  0  0  0  0  0
   62.2950   33.0770   47.7000 H   0  0  0  0  0  0  0  0  0  0  0  0
   63.8815   31.4735   51.6796 H   0  0  0  0  0  0  0  0  0  0  0  0
   64.3799   30.1798   50.5758 H   0  0  0  0  0  0  0  0  0  0  0  0
   66.1013   32.0684   51.7693 H   0  0  0  0  0  0  0  0  0  0  0  0
   66.5230   31.0910   50.3526 H   0  0  0  0  0  0  0  0  0  0  0  0
   65.7331   33.9814   50.5211 H   0  0  0  0  0  0  0  0  0  0  0  0
   66.6745   33.1681   49.2584 H   0  0  0  0  0  0  0  0  0  0  0  0
   63.9787   33.9534   49.0315 H   0  0  0  0  0  0  0  0  0  0  0  0
   64.7553   32.7564   47.9820 H   0  0  0  0  0  0  0  0  0  0  0  0
   62.0548   30.0819   50.7141 H   0  0  0  0  0  0  0  0  0  0  0  0
  1  2  2  0
  2  3  1  0
  3  4  1  0
  4  5  1  0
  5  6  1  0
  6  7  1  0
  7  8  1  0
  8  9  1  0
  9 10  1  0
 10 11  1  0
 11 12  1  0
 12 13  1  0
 13 14  1  0
 10 15  1  0
 15 16  1  0
  3 17  2  0
 17 18  1  0
 18 19  1  0
 19 20  1  0
 20 21  1  0
 21 22  1  0
 22 23  1  0
 18 24  2  0
 24  1  1  0
 16  4  1  0
 23 19  1  0
 16  8  1  0
 14 11  1  0
  1 25  1  0
  2 26  1  0
  4 27  1  6
  5 28  1  0
  5 29  1  0
  7 30  1  0
  7 31  1  0
  8 32  1  1
  9 33  1  0
  9 34  1  0
 11 35  1  0
 12 36  1  0
 12 37  1  0
 14 38  1  0
 14 39  1  0
 15 40  1  0
 15 41  1  0
 16 42  1  1
 17 43  1  0
 20 44  1  0
 20 45  1  0
 21 46  1  0
 21 47  1  0
 22 48  1  0
 22 49  1  0
 23 50  1  0
 23 51  1  0
 24 52  1  0
M  CHG  1  17   1
M  END
>  <UniqueID>  (25) 
24

>  <SMILES>  (25) 
c1cc([C@@H]2COC[C@H]3CN(C4COC4)CC32)[nH+]c(N2CCCC2)c1

>  <Energy>  (25) 
131.63983697343713

>  <Genealogy>  (25) 
c1cc(C2COCC3CN(C4COC4)CC32)[nH+]c(N2CCCC2)c1 (protonated)
c1cc([C@@H]2COC[C@H]3CN(C4COC4)CC32)[nH+]c(N2CCCC2)c1 (chirality)
c1cc([C@@H]2COC[C@H]3CN(C4COC4)CC32)[nH+]c(N2CCCC2)c1 (3D coordinates assigned)
c1cc([C@@H]2COC[C@H]3CN(C4COC4)CC32)[nH+]c(N2CCCC2)c1 (nonaromatic ring conformer: 131.63983697343713 kcal/mol)

>  <smiles>  (25) 
c1cc(C2COCC3CN(C4COC4)CC32)nc(N2CCCC2)c1

>  <score_type>  (25) 
oracle

>  <origin>  (25) 
adg

>  <m_score__min__energy>  (25) 
-7.1399999999999997

>  <m_primary>  (25) 
energy

$$$$
25:0
     RDKit          3D

 63 66  0  0  1  0  0  0  0  0999 V2000
   55.8920   29.7340   43.0110 C   0  0  0  0  0  0  0  0  0  0  0  0
   55.6640   29.3580   44.3450 O   0  0  0  0  0  0  0  0  0  0  0  0
   56.7890   29.1810   45.1710 C   0  0  0  0  0  0  0  0  0  0  0  0
   57.1570   27.9070   45.5340 C   0  0  0  0  0  0  0  0  0  0  0  0
   58.2400   27.6710   46.3340 C   0  0  0  0  0  0  0  0  0  0  0  0
   58.6450   26.4480   46.7180 N   0  0  0  0  0  0  0  0  0  0  0  0
   59.7050   26.2350   47.5010 C   0  0  0  0  0  0  0  0  0  0  0  0
   60.4260   27.2870   47.9430 N   0  0  0  0  0  0  0  0  0  0  0  0
   60.0650   28.5380   47.5880 C   0  0  0  0  0  0  0  0  0  0  0  0
   60.7020   29.5870   47.9760 N   0  0  0  0  0  0  0  0  0  0  0  0
   60.4830   30.1070   49.2720 C   0  0  0  0  0  0  0  0  0  0  0  0
   61.5160   30.0990   50.1860 C   0  0  0  0  0  0  0  0  0  0  0  0
   61.3970   30.5850   51.4700 C   0  0  0  0  0  0  0  0  0  0  0  0
   60.1770   31.1150   51.8830 C   0  0  0  0  0  0  0  0  0  0  0  0
   59.1440   31.1230   50.9700 C   0  0  0  0  0  0  0  0  0  0  0  0
   57.4800   31.8550   51.5460 Br  0  0  0  0  0  0  0  0  0  0  0  0
   59.2640   30.6350   49.6820 C   0  0  0  0  0  0  0  0  0  0  0  0
   58.9600   28.7580   46.7730 C   0  0  0  0  0  0  0  0  0  0  0  0
   58.5840   30.0500   46.4030 C   0  0  0  0  0  0  0  0  0  0  0  0
   57.5060   30.3120   45.6040 C   0  0  0  0  0  0  0  0  0  0  0  0
   57.0570   31.5100   45.1850 O   0  0  0  0  0  0  0  0  0  0  0  0
   57.6370   32.7140   44.8890 C   0  0  0  0  0  0  0  0  0  0  0  0
   57.5240   33.7790   45.9550 C   0  0  0  0  0  0  0  0  0  0  0  0
   58.2970   33.2900   47.1730 C   0  0  0  0  0  0  0  0  0  0  0  0
   59.4990   34.0280   47.2870 N   0  0  0  0  0  0  0  0  0  0  0  0
   60.0510   34.2140   48.5720 C   0  0  0  0  0  0  0  0  0  0  0  0
   61.1780   33.2450   48.7570 C   0  0  0  0  0  0  0  0  0  0  0  0
   62.1870   33.2940   47.6720 C   0  0  0  0  0  0  0  0  0  0  0  0
   63.4280   33.9980   48.2460 C   0  0  0  0  0  0  0  0  0  0  0  0
   62.6680   31.8420   47.4940 C   0  0  0  0  0  0  0  0  0  0  0  0
   61.7870   33.8720   46.3760 C   0  0  0  0  0  0  0  0  0  0  0  0
   60.3380   34.1280   46.1630 C   0  0  0  0  0  0  0  0  0  0  0  0
   56.4622   30.6744   42.9874 H   0  0  0  0  0  0  0  0  0  0  0  0
   56.4642   28.9454   42.5004 H   0  0  0  0  0  0  0  0  0  0  0  0
   54.9282   29.8767   42.5004 H   0  0  0  0  0  0  0  0  0  0  0  0
   56.5640   27.0547   45.1709 H   0  0  0  0  0  0  0  0  0  0  0  0
   59.9886   25.2105   47.7837 H   0  0  0  0  0  0  0  0  0  0  0  0
   61.2640   27.1880   48.5570 H   0  0  0  0  0  0  0  0  0  0  0  0
   62.4853   29.6830   49.8737 H   0  0  0  0  0  0  0  0  0  0  0  0
   62.2537   30.5548   52.1593 H   0  0  0  0  0  0  0  0  0  0  0  0
   60.0427   31.5124   52.8999 H   0  0  0  0  0  0  0  0  0  0  0  0
   58.4078   30.6641   48.9920 H   0  0  0  0  0  0  0  0  0  0  0  0
   59.1824   30.8964   46.7711 H   0  0  0  0  0  0  0  0  0  0  0  0
   58.7063   32.5364   44.7016 H   0  0  0  0  0  0  0  0  0  0  0  0
   57.0885   33.1035   44.0187 H   0  0  0  0  0  0  0  0  0  0  0  0
   57.9553   34.7229   45.5903 H   0  0  0  0  0  0  0  0  0  0  0  0
   56.4699   33.9604   46.2118 H   0  0  0  0  0  0  0  0  0  0  0  0
   57.6886   33.4353   48.0778 H   0  0  0  0  0  0  0  0  0  0  0  0
   58.5287   32.2207   47.0594 H   0  0  0  0  0  0  0  0  0  0  0  0
   60.4284   35.2428   48.6670 H   0  0  0  0  0  0  0  0  0  0  0  0
   59.2808   34.0428   49.3384 H   0  0  0  0  0  0  0  0  0  0  0  0
   61.6797   33.4728   49.7090 H   0  0  0  0  0  0  0  0  0  0  0  0
   60.7408   32.2357   48.7455 H   0  0  0  0  0  0  0  0  0  0  0  0
   63.3872   33.9749   49.3450 H   0  0  0  0  0  0  0  0  0  0  0  0
   64.3354   33.4801   47.9018 H   0  0  0  0  0  0  0  0  0  0  0  0
   63.4491   35.0425   47.9018 H   0  0  0  0  0  0  0  0  0  0  0  0
   62.8202   31.3825   48.4818 H   0  0  0  0  0  0  0  0  0  0  0  0
   61.9111   31.2707   46.9365 H   0  0  0  0  0  0  0  0  0  0  0  0
   63.6163   31.8356   46.9365 H   0  0  0  0  0  0  0  0  0  0  0  0
   62.3121   34.8323   46.2661 H   0  0  0  0  0  0  0  0  0  0  0  0
   62.0516   33.1069   45.6312 H   0  0  0  0  0  0  0  0  0  0  0  0
   60.2367   35.1478   45.7632 H   0  0  0  0  0  0  0  0  0  0  0  0
   60.0037   33.3283   45.4856 H   0  0  0  0  0  0  0  0  0  0  0  0
  1  2  1  0
  2  3  1  0
  3  4  2  0
  4  5  1  0
  5  6  1  0
  6  7  2  0
  7  8  1  0
  8  9  1  0
  9 10  2  0
 10 11  1  0
 11 12  2  0
 12 13  1  0
 13 14  2  0
 14 15  1  0
 15 16  1  0
 15 17  2  0
  9 18  1  0
 18 19  1  0
 19 20  2  0
 20 21  1  0
 21 22  1  0
 22 23  1  0
 23 24  1  0
 24 25  1  0
 25 26  1  0
 26 27  1  0
 27 28  1  0
 28 29  1  0
 28 30  1  0
 28 31  1  0
 31 32  1  0
 20  3  1  0
 32 25  1  0
 18  5  2  0
 17 11  1  0
  1 33  1  0
  1 34  1  0
  1 35  1  0
  4 36  1  0
  7 37  1  0
  8 38  1  0
 12 39  1  0
 13 40  1  0
 14 41  1  0
 17 42  1  0
 19 43  1  0
 22 44  1  0
 22 45  1  0
 23 46  1  0
 23 47  1  0
 24 48  1  0
 24 49  1  0
 26 50  1  0
 26 51  1  0
 27 52  1  0
 27 53  1  0
 29 54  1  0
 29 55  1  0
 29 56  1  0
 30 57  1  0
 30 58  1  0
 30 59  1  0
 31 60  1  0
 31 61  1  0
 32 62  1  0
 32 63  1  0
M  END
>  <smiles>  (26) 
COc1cc2nc[nH]c(=Nc3cccc(Br)c3)c2cc1OCCCN1CCC(C)(C)CC1

>  <score_type>  (26) 
oracle

>  <origin>  (26) 
adg

>  <m_score__min__energy>  (26) 
-9.6199999999999992

>  <m_primary>  (26) 
energy

$$$$
26:0
     RDKit          3D

 41 43  0  0  0  0  0  0  0  0999 V2000
   59.3877   35.3717   44.8171 H   0  0  0  0  0  0  0  0  0  0  0  0
   59.0650   34.3530   45.0780 C   0  0  0  0  0  0  0  0  0  0  0  0
   59.2100   33.8890   46.3880 C   0  0  0  0  0  0  0  0  0  0  0  0
   59.6494   34.5416   47.1568 H   0  0  0  0  0  0  0  0  0  0  0  0
   58.7970   32.5960   46.7220 C   0  0  0  0  0  0  0  0  0  0  0  0
   58.9123   32.2356   47.7549 H   0  0  0  0  0  0  0  0  0  0  0  0
   58.2340   31.7510   45.7450 C   0  0  0  0  0  0  0  0  0  0  0  0
   57.7830   30.3460   46.0980 C   0  0  2  0  0  0  0  0  0  0  0  0
   57.0484   30.4100   46.9143 H   0  0  0  0  0  0  0  0  0  0  0  0
   58.9610   29.5080   46.6390 C   0  0  0  0  0  0  0  0  0  0  0  0
   59.7406   29.4293   45.8670 H   0  0  0  0  0  0  0  0  0  0  0  0
   59.3789   29.9951   47.5323 H   0  0  0  0  0  0  0  0  0  0  0  0
   58.4730   28.1380   46.9980 C   0  0  0  0  0  0  0  0  0  0  0  0
   58.8930   27.5600   48.0370 O   0  0  0  0  0  0  0  0  0  0  0  0
   57.5120   27.4810   46.1020 C   0  0  0  0  0  0  0  0  0  0  0  0
   57.0350   26.3100   46.4240 N   0  0  0  0  0  0  0  0  0  0  0  0
   56.7120   25.2400   45.5270 C   0  0  0  0  0  0  0  0  0  0  0  0
   55.3980   24.7570   45.4210 C   0  0  0  0  0  0  0  0  0  0  0  0
   54.5915   25.2328   45.9983 H   0  0  0  0  0  0  0  0  0  0  0  0
   55.1100   23.6740   44.5850 C   0  0  0  0  0  0  0  0  0  0  0  0
   54.0746   23.3148   44.4906 H   0  0  0  0  0  0  0  0  0  0  0  0
   56.1410   23.0410   43.8630 C   0  0  0  0  0  0  0  0  0  0  0  0
   55.9040   21.9530   43.0120 O   0  0  0  0  0  0  0  0  0  0  0  0
   56.6810   20.7600   42.9960 C   0  0  0  0  0  0  0  0  0  0  0  0
   56.8875   20.4430   44.0289 H   0  0  0  0  0  0  0  0  0  0  0  0
   56.1253   19.9675   42.4734 H   0  0  0  0  0  0  0  0  0  0  0  0
   57.6305   20.9478   42.4734 H   0  0  0  0  0  0  0  0  0  0  0  0
   57.4540   23.5060   44.0020 C   0  0  0  0  0  0  0  0  0  0  0  0
   58.2677   23.0139   43.4490 H   0  0  0  0  0  0  0  0  0  0  0  0
   57.7410   24.5900   44.8370 C   0  0  0  0  0  0  0  0  0  0  0  0
   58.7798   24.9331   44.9519 H   0  0  0  0  0  0  0  0  0  0  0  0
   57.2690   28.1490   44.7670 C   0  0  0  0  0  0  0  0  0  0  0  0
   58.1465   27.9851   44.1242 H   0  0  0  0  0  0  0  0  0  0  0  0
   56.3625   27.7063   44.3286 H   0  0  0  0  0  0  0  0  0  0  0  0
   57.0330   29.6690   44.9080 C   0  0  0  0  0  0  0  0  0  0  0  0
   57.3629   30.1533   43.9771 H   0  0  0  0  0  0  0  0  0  0  0  0
   55.9591   29.7957   45.1097 H   0  0  0  0  0  0  0  0  0  0  0  0
   58.0980   32.2300   44.4290 C   0  0  0  0  0  0  0  0  0  0  0  0
   57.6639   31.5815   43.6537 H   0  0  0  0  0  0  0  0  0  0  0  0
   58.5110   33.5250   44.1000 C   0  0  0  0  0  0  0  0  0  0  0  0
   58.3992   33.8918   43.0690 H   0  0  0  0  0  0  0  0  0  0  0  0
  1  2  1  0
  2  3  2  0
  3  4  1  0
  3  5  1  0
  5  6  1  0
  5  7  2  0
  7  8  1  0
  8  9  1  1
  8 10  1  0
 10 11  1  0
 10 12  1  0
 10 13  1  0
 13 14  2  0
 13 15  1  0
 15 16  2  0
 16 17  1  0
 17 18  2  0
 18 19  1  0
 18 20  1  0
 20 21  1  0
 20 22  2  0
 22 23  1  0
 23 24  1  0
 24 25  1  0
 24 26  1  0
 24 27  1  0
 22 28  1  0
 28 29  1  0
 28 30  2  0
 30 31  1  0
 15 32  1  0
 32 33  1  0
 32 34  1  0
 32 35  1  0
 35 36  1  0
 35 37  1  0
  7 38  1  0
 38 39  1  0
 38 40  2  0
 40 41  1  0
 40  2  1  0
 35  8  1  0
 30 17  1  0
M  END
>  <UniqueID>  (27) 
25

>  <SMILES>  (27) 
COc1ccc(/N=C2\CC[C@H](c3ccccc3)CC2=O)cc1

>  <Energy>  (27) 
55.469428618790886

>  <Genealogy>  (27) 
COc1ccc(N=C2CC[C@H](c3ccccc3)CC2=O)cc1 (chirality)
COc1ccc(/N=C2\CC[C@H](c3ccccc3)CC2=O)cc1 (cis-trans isomerization)
COc1ccc(/N=C2\CC[C@H](c3ccccc3)CC2=O)cc1 (3D coordinates assigned)
COc1ccc(/N=C2\CC[C@H](c3ccccc3)CC2=O)cc1 (nonaromatic ring conformer: 55.469428618790886 kcal/mol)

>  <smiles>  (27) 
COc1ccc(N=C2CCC(c3ccccc3)CC2=O)cc1

>  <score_type>  (27) 
oracle

>  <origin>  (27) 
adg

>  <m_score__min__energy>  (27) 
-7.5099999999999998

>  <m_primary>  (27) 
energy

$$$$
27:0
     RDKit          3D

 28 29  0  0  0  0  0  0  0  0999 V2000
   59.6082   27.0860   45.2892 H   0  0  0  0  0  0  0  0  0  0  0  0
   58.5200   27.0850   45.4500 C   0  0  0  0  0  0  0  0  0  0  0  0
   57.7770   28.1590   45.0820 N   0  0  0  0  0  0  0  0  0  0  0  0
   56.4300   28.1920   45.2680 C   0  0  0  0  0  0  0  0  0  0  0  0
   55.7830   29.2610   44.8930 N   0  0  0  0  0  0  0  0  0  0  0  0
   56.2480   30.4450   44.1570 C   0  0  0  0  0  0  0  0  0  0  0  0
   55.3969   31.1368   44.0727 H   0  0  0  0  0  0  0  0  0  0  0  0
   57.3280   31.2420   44.9360 C   0  0  0  0  0  0  0  0  0  0  0  0
   56.8388   32.0753   45.4617 H   0  0  0  0  0  0  0  0  0  0  0  0
   57.8124   30.5455   45.6362 H   0  0  0  0  0  0  0  0  0  0  0  0
   58.4230   31.8140   44.0210 C   0  0  0  0  0  0  0  0  0  0  0  0
   58.9665   32.6039   44.5601 H   0  0  0  0  0  0  0  0  0  0  0  0
   59.1073   30.9998   43.7403 H   0  0  0  0  0  0  0  0  0  0  0  0
   57.8150   32.4050   42.7440 C   0  0  0  0  0  0  0  0  0  0  0  0
   57.1205   33.2106   43.0245 H   0  0  0  0  0  0  0  0  0  0  0  0
   58.6422   32.7805   42.1237 H   0  0  0  0  0  0  0  0  0  0  0  0
   57.0450   31.3550   41.9120 C   0  0  0  0  0  0  0  0  0  0  0  0
   56.1292   31.8249   41.5241 H   0  0  0  0  0  0  0  0  0  0  0  0
   57.7229   31.0239   41.1115 H   0  0  0  0  0  0  0  0  0  0  0  0
   56.6450   30.0970   42.7060 C   0  0  0  0  0  0  0  0  0  0  0  0
   55.7904   29.6165   42.2073 H   0  0  0  0  0  0  0  0  0  0  0  0
   57.5113   29.4200   42.7386 H   0  0  0  0  0  0  0  0  0  0  0  0
   55.8070   27.1120   45.8350 N   0  0  0  0  0  0  0  0  0  0  0  0
   54.7760   27.0860   45.9780 H   0  0  0  0  0  0  0  0  0  0  0  0
   56.5210   26.0160   46.2170 C   0  0  0  0  0  0  0  0  0  0  0  0
   55.9320   25.0300   46.7360 O   0  0  0  0  0  0  0  0  0  0  0  0
   57.9020   25.9830   46.0310 C   0  0  0  0  0  0  0  0  0  0  0  0
   58.6330   24.9020   46.4040 F   0  0  0  0  0  0  0  0  0  0  0  0
  1  2  1  0
  2  3  1  0
  3  4  1  0
  4  5  2  0
  5  6  1  0
  6  7  1  0
  6  8  1  0
  8  9  1  0
  8 10  1  0
  8 11  1  0
 11 12  1  0
 11 13  1  0
 11 14  1  0
 14 15  1  0
 14 16  1  0
 14 17  1  0
 17 18  1  0
 17 19  1  0
 17 20  1  0
 20 21  1  0
 20 22  1  0
  4 23  1  0
 23 24  1  0
 23 25  1  0
 25 26  2  0
 25 27  1  0
 27 28  1  0
 27  2  2  0
 20  6  1  0
M  CHG  1   3  -1
M  END
>  <UniqueID>  (28) 
26

>  <SMILES>  (28) 
O=c1[nH]/c(=N\C2CCCCC2)[n-]cc1F

>  <Energy>  (28) 
35.82483078291751

>  <Genealogy>  (28) 
O=c1[nH]c(=NC2CCCCC2)[n-]cc1F (protonated)
O=c1[nH]/c(=N\C2CCCCC2)[n-]cc1F (cis-trans isomerization)
O=c1[nH]/c(=N\C2CCCCC2)[n-]cc1F (3D coordinates assigned)
O=c1[nH]/c(=N\C2CCCCC2)[n-]cc1F (nonaromatic ring conformer: 35.82483078291751 kcal/mol)

>  <smiles>  (28) 
O=c1[nH]c(=NC2CCCCC2)[nH]cc1F

>  <score_type>  (28) 
oracle

>  <origin>  (28) 
adg

>  <m_score__min__energy>  (28) 
-8.1899999999999995

>  <m_primary>  (28) 
energy

$$$$
28:0
     RDKit          3D

 42 45  0  0  0  0  0  0  0  0999 V2000
   55.7800   30.3880   44.4500 O   0  0  0  0  0  0  0  0  0  0  0  0
   56.6110   29.6200   45.0040 C   0  0  0  0  0  0  0  0  0  0  0  0
   56.3460   28.2590   45.2590 N   0  0  0  0  0  0  0  0  0  0  0  0
   57.5230   27.7110   45.9220 C   0  0  0  0  0  0  0  0  0  0  0  0
   58.5470   28.8670   46.0300 C   0  0  0  0  0  0  0  0  0  0  0  0
   57.9000   30.0230   45.4240 N   0  0  0  0  0  0  0  0  0  0  0  0
   58.4600   31.3810   45.4010 C   0  0  1  0  0  0  0  0  0  0  0  0
   57.4610   32.3870   46.0470 C   0  0  0  0  0  0  0  0  0  0  0  0
   57.5550   33.8400   45.5540 C   0  0  0  0  0  0  0  0  0  0  0  0
   58.8230   34.5740   46.0120 C   0  0  0  0  0  0  0  0  0  0  0  0
   60.1380   33.9020   45.5960 C   0  0  0  0  0  0  0  0  0  0  0  0
   60.4030   32.6900   46.3850 N   0  0  0  0  0  0  0  0  0  0  0  0
   61.2980   32.7810   47.5040 C   0  0  0  0  0  0  0  0  0  0  0  0
   62.6340   32.5310   47.3450 N   0  0  0  0  0  0  0  0  0  0  0  0
   63.5060   32.6150   48.4010 C   0  0  0  0  0  0  0  0  0  0  0  0
   63.0600   32.9620   49.6450 N   0  0  0  0  0  0  0  0  0  0  0  0
   61.7400   33.2140   49.8080 C   0  0  0  0  0  0  0  0  0  0  0  0
   61.1450   33.6090   50.9430 N   0  0  0  0  0  0  0  0  0  0  0  0
   59.8440   33.7920   50.6200 C   0  0  0  0  0  0  0  0  0  0  0  0
   59.6230   33.5110   49.2730 C   0  0  0  0  0  0  0  0  0  0  0  0
   60.8530   33.1360   48.7780 C   0  0  0  0  0  0  0  0  0  0  0  0
   59.8820   31.3590   46.0140 C   0  0  0  0  0  0  0  0  0  0  0  0
   57.2577   27.3439   46.9244 H   0  0  0  0  0  0  0  0  0  0  0  0
   57.9387   26.8638   45.3568 H   0  0  0  0  0  0  0  0  0  0  0  0
   58.7866   29.0702   47.0842 H   0  0  0  0  0  0  0  0  0  0  0  0
   59.4932   28.6203   45.5263 H   0  0  0  0  0  0  0  0  0  0  0  0
   58.5898   31.7460   44.3715 H   0  0  0  0  0  0  0  0  0  0  0  0
   56.4417   32.0274   45.8425 H   0  0  0  0  0  0  0  0  0  0  0  0
   57.7211   32.4187   47.1153 H   0  0  0  0  0  0  0  0  0  0  0  0
   57.5371   33.8339   44.4542 H   0  0  0  0  0  0  0  0  0  0  0  0
   56.7005   34.3794   45.9886 H   0  0  0  0  0  0  0  0  0  0  0  0
   58.8057   35.5873   45.5844 H   0  0  0  0  0  0  0  0  0  0  0  0
   58.8054   34.5682   47.1118 H   0  0  0  0  0  0  0  0  0  0  0  0
   60.0776   33.6287   44.5322 H   0  0  0  0  0  0  0  0  0  0  0  0
   60.9579   34.6133   45.7745 H   0  0  0  0  0  0  0  0  0  0  0  0
   63.0020   32.2630   46.4040 H   0  0  0  0  0  0  0  0  0  0  0  0
   64.5736   32.4011   48.2447 H   0  0  0  0  0  0  0  0  0  0  0  0
   61.5910   33.7660   51.8730 H   0  0  0  0  0  0  0  0  0  0  0  0
   59.0657   34.1185   51.3254 H   0  0  0  0  0  0  0  0  0  0  0  0
   58.6721   33.5748   48.7237 H   0  0  0  0  0  0  0  0  0  0  0  0
   60.5677   30.9131   45.2784 H   0  0  0  0  0  0  0  0  0  0  0  0
   59.8157   30.7755   46.9441 H   0  0  0  0  0  0  0  0  0  0  0  0
  1  2  2  0
  2  3  1  0
  3  4  1  0
  4  5  1  0
  5  6  1  0
  6  7  1  0
  7  8  1  0
  8  9  1  0
  9 10  1  0
 10 11  1  0
 11 12  1  0
 12 13  1  0
 13 14  2  0
 14 15  1  0
 15 16  2  0
 16 17  1  0
 17 18  1  0
 18 19  1  0
 19 20  2  0
 20 21  1  0
 12 22  1  0
  6  2  1  0
 22  7  1  0
 21 13  1  0
 21 17  2  0
  4 23  1  0
  4 24  1  0
  5 25  1  0
  5 26  1  0
  7 27  1  6
  8 28  1  0
  8 29  1  0
  9 30  1  0
  9 31  1  0
 10 32  1  0
 10 33  1  0
 11 34  1  0
 11 35  1  0
 14 36  1  0
 15 37  1  0
 18 38  1  0
 19 39  1  0
 20 40  1  0
 22 41  1  0
 22 42  1  0
M  CHG  2   3  -1  14   1
M  END
>  <UniqueID>  (29) 
27

>  <SMILES>  (29) 
O=C1[N-]CCN1[C@H]1CCCCN(c2[nH+]cnc3[nH]ccc23)C1

>  <Energy>  (29) 
102.71397773783119

>  <Genealogy>  (29) 
O=C1[N-]CCN1C1CCCCN(c2[nH+]cnc3[nH]ccc23)C1 (protonated)
O=C1[N-]CCN1[C@H]1CCCCN(c2[nH+]cnc3[nH]ccc23)C1 (chirality)
O=C1[N-]CCN1[C@H]1CCCCN(c2[nH+]cnc3[nH]ccc23)C1 (3D coordinates assigned)
O=C1[N-]CCN1[C@H]1CCCCN(c2[nH+]cnc3[nH]ccc23)C1 (nonaromatic ring conformer: 102.71397773783119 kcal/mol)

>  <smiles>  (29) 
O=C1NCCN1C1CCCCN(c2ncnc3[nH]ccc23)C1

>  <score_type>  (29) 
oracle

>  <origin>  (29) 
adg

>  <m_score__min__energy>  (29) 
-6.3300000000000001

>  <m_primary>  (29) 
energy

$$$$
29:0
     RDKit          3D

 16 17  0  0  0  0  0  0  0  0999 V2000
   57.5360   27.5010   46.1610 C   0  0  0  0  0  0  0  0  0  0  0  0
   56.4810   26.4860   45.8710 C   0  0  0  0  0  0  0  0  0  0  0  0
   55.1490   26.6980   46.0140 N   0  0  0  0  0  0  0  0  0  0  0  0
   54.4910   25.6080   45.6260 N   0  0  0  0  0  0  0  0  0  0  0  0
   55.4130   24.7170   45.2300 C   0  0  0  0  0  0  0  0  0  0  0  0
   55.1800   23.4720   44.7460 N   0  0  0  0  0  0  0  0  0  0  0  0
   56.2470   22.6990   44.3760 C   0  0  0  0  0  0  0  0  0  0  0  0
   57.5690   23.1910   44.4940 C   0  0  0  0  0  0  0  0  0  0  0  0
   57.7910   24.4870   44.9970 C   0  0  0  0  0  0  0  0  0  0  0  0
   56.6680   25.2230   45.3600 C   0  0  0  0  0  0  0  0  0  0  0  0
   57.6500   27.6106   47.2496 H   0  0  0  0  0  0  0  0  0  0  0  0
   58.4905   27.1730   45.7236 H   0  0  0  0  0  0  0  0  0  0  0  0
   57.2451   28.4675   45.7236 H   0  0  0  0  0  0  0  0  0  0  0  0
   56.0757   21.6859   43.9832 H   0  0  0  0  0  0  0  0  0  0  0  0
   58.4203   22.5626   44.1936 H   0  0  0  0  0  0  0  0  0  0  0  0
   58.8060   24.8987   45.0983 H   0  0  0  0  0  0  0  0  0  0  0  0
  1  2  1  0
  2  3  1  0
  3  4  1  0
  4  5  2  0
  5  6  1  0
  6  7  2  0
  7  8  1  0
  8  9  2  0
  9 10  1  0
 10  2  2  0
 10  5  1  0
  1 11  1  0
  1 12  1  0
  1 13  1  0
  7 14  1  0
  8 15  1  0
  9 16  1  0
M  CHG  1   3  -1
M  END
>  <UniqueID>  (30) 
28

>  <SMILES>  (30) 
Cc1[n-]nc2ncccc12

>  <Energy>  (30) 
55.79697828546802

>  <Genealogy>  (30) 
Cc1[n-]nc2ncccc12 (protonated)
Cc1[n-]nc2ncccc12 (3D coordinates assigned)
Cc1[n-]nc2ncccc12 (optimized conformer: 55.79697828546802 kcal/mol)

>  <smiles>  (30) 
Cc1[nH]nc2ncccc12

>  <score_type>  (30) 
oracle

>  <origin>  (30) 
adg

>  <m_score__min__energy>  (30) 
-7.7999999999999998

>  <m_primary>  (30) 
energy

$$$$
30:0
     RDKit          3D

 29 29  0  0  0  0  0  0  0  0999 V2000
   59.5850   34.9660   46.0100 C   0  0  0  0  0  0  0  0  0  0  0  0
   58.6890   34.2240   46.6680 C   0  0  0  0  0  0  0  0  0  0  0  0
   57.3840   33.8260   46.0370 C   0  0  0  0  0  0  0  0  0  0  0  0
   57.4850   32.4910   45.4110 N   0  0  0  0  0  0  0  0  0  0  0  0
   58.4710   31.6390   46.1160 C   0  0  0  0  0  0  0  0  0  0  0  0
   58.8910   30.4140   45.2720 C   0  0  0  0  0  0  0  0  0  0  0  0
   57.9050   30.0960   44.2200 N   0  0  0  0  0  0  0  0  0  0  0  0
   56.6280   29.5980   44.7790 C   0  0  0  0  0  0  0  0  0  0  0  0
   55.5150   29.7370   43.7450 C   0  0  0  0  0  0  0  0  0  0  0  0
   57.7200   31.2370   43.2910 C   0  0  0  0  0  0  0  0  0  0  0  0
   57.8330   32.6110   43.9860 C   0  0  0  0  0  0  0  0  0  0  0  0
   60.5324   35.2432   46.4954 H   0  0  0  0  0  0  0  0  0  0  0  0
   59.3750   35.2995   44.9830 H   0  0  0  0  0  0  0  0  0  0  0  0
   58.9116   33.8972   47.6945 H   0  0  0  0  0  0  0  0  0  0  0  0
   56.6025   33.8025   46.8107 H   0  0  0  0  0  0  0  0  0  0  0  0
   57.1323   34.5607   45.2580 H   0  0  0  0  0  0  0  0  0  0  0  0
   59.3651   32.2404   46.3374 H   0  0  0  0  0  0  0  0  0  0  0  0
   57.9999   31.2688   47.0385 H   0  0  0  0  0  0  0  0  0  0  0  0
   59.8598   30.6269   44.7966 H   0  0  0  0  0  0  0  0  0  0  0  0
   58.9571   29.5469   45.9456 H   0  0  0  0  0  0  0  0  0  0  0  0
   56.7394   28.5387   45.0538 H   0  0  0  0  0  0  0  0  0  0  0  0
   56.3690   30.1898   45.6693 H   0  0  0  0  0  0  0  0  0  0  0  0
   54.5500   29.8575   44.2590 H   0  0  0  0  0  0  0  0  0  0  0  0
   55.7075   30.6181   43.1152 H   0  0  0  0  0  0  0  0  0  0  0  0
   55.4849   28.8356   43.1152 H   0  0  0  0  0  0  0  0  0  0  0  0
   58.4889   31.1776   42.5066 H   0  0  0  0  0  0  0  0  0  0  0  0
   56.7030   31.1616   42.8788 H   0  0  0  0  0  0  0  0  0  0  0  0
   58.8649   32.9807   43.8940 H   0  0  0  0  0  0  0  0  0  0  0  0
   57.1373   33.3143   43.5050 H   0  0  0  0  0  0  0  0  0  0  0  0
  1  2  2  0
  2  3  1  0
  3  4  1  0
  4  5  1  0
  5  6  1  0
  6  7  1  0
  7  8  1  0
  8  9  1  0
  7 10  1  0
 10 11  1  0
 11  4  1  0
  1 12  1  0
  1 13  1  0
  2 14  1  0
  3 15  1  0
  3 16  1  0
  5 17  1  0
  5 18  1  0
  6 19  1  0
  6 20  1  0
  8 21  1  0
  8 22  1  0
  9 23  1  0
  9 24  1  0
  9 25  1  0
 10 26  1  0
 10 27  1  0
 11 28  1  0
 11 29  1  0
M  END
>  <UniqueID>  (31) 
29

>  <SMILES>  (31) 
C=CCN1CCN(CC)CC1

>  <Energy>  (31) 
31.952000709664567

>  <Genealogy>  (31) 
C=CCN1CCN(CC)CC1 (3D coordinates assigned)
C=CCN1CCN(CC)CC1 (nonaromatic ring conformer: 31.952000709664567 kcal/mol)

>  <smiles>  (31) 
C=CCN1CCN(CC)CC1

>  <score_type>  (31) 
oracle

>  <origin>  (31) 
adg

>  <m_score__min__energy>  (31) 
-4.4199999999999999

>  <m_primary>  (31) 
energy

$$$$
31:0
     RDKit          3D

 39 42  0  0  1  0  0  0  0  0999 V2000
   65.7240   32.3420   50.0880 C   0  0  0  0  0  0  0  0  0  0  0  0
   64.4110   32.8960   49.8200 N   0  0  0  0  0  0  0  0  0  0  0  0
   63.5930   32.4300   48.8550 C   0  0  0  0  0  0  0  0  0  0  0  0
   62.4720   33.2140   48.9330 C   0  0  0  0  0  0  0  0  0  0  0  0
   61.3220   33.0540   48.0580 C   0  0  0  0  0  0  0  0  0  0  0  0
   60.6930   31.8450   48.0900 C   0  0  0  0  0  0  0  0  0  0  0  0
   59.5790   31.7070   47.2450 C   0  0  0  0  0  0  0  0  0  0  0  0
   59.2060   32.7630   46.4660 C   0  0  0  0  0  0  0  0  0  0  0  0
   58.1220   32.6530   45.6350 C   0  0  0  0  0  0  0  0  0  0  0  0
   57.4410   31.6460   45.5730 N   0  0  0  0  0  0  0  0  0  0  0  0
   57.5270   30.4550   44.9230 C   0  0  0  0  0  0  0  0  0  0  0  0
   58.5710   29.5160   45.1380 C   0  0  0  0  0  0  0  0  0  0  0  0
   58.6380   28.4040   44.3680 N   0  0  0  0  0  0  0  0  0  0  0  0
   57.7130   28.1800   43.3890 C   0  0  0  0  0  0  0  0  0  0  0  0
   57.8300   27.0870   42.6760 N   0  0  0  0  0  0  0  0  0  0  0  0
   56.7100   29.0520   43.1580 N   0  0  0  0  0  0  0  0  0  0  0  0
   56.5870   30.1820   43.8950 C   0  0  0  0  0  0  0  0  0  0  0  0
   57.7740   33.7550   44.8520 C   0  0  0  0  0  0  0  0  0  0  0  0
   58.4660   34.9420   44.8760 C   0  0  0  0  0  0  0  0  0  0  0  0
   59.5190   35.0200   45.7020 N   0  0  0  0  0  0  0  0  0  0  0  0
   59.8650   33.9650   46.4600 C   0  0  0  0  0  0  0  0  0  0  0  0
   60.9550   34.1200   47.2790 C   0  0  0  0  0  0  0  0  0  0  0  0
   62.6230   34.1550   49.9510 C   0  0  0  0  0  0  0  0  0  0  0  0
   63.8410   33.9050   50.4600 N   0  0  0  0  0  0  0  0  0  0  0  0
   65.8794   32.2764   51.1750 H   0  0  0  0  0  0  0  0  0  0  0  0
   65.7952   31.3372   49.6462 H   0  0  0  0  0  0  0  0  0  0  0  0
   66.4935   32.9922   49.6462 H   0  0  0  0  0  0  0  0  0  0  0  0
   63.7839   31.6013   48.1573 H   0  0  0  0  0  0  0  0  0  0  0  0
   61.0372   31.0261   48.7388 H   0  0  0  0  0  0  0  0  0  0  0  0
   59.0164   30.7623   47.2121 H   0  0  0  0  0  0  0  0  0  0  0  0
   59.3199   29.6909   45.9245 H   0  0  0  0  0  0  0  0  0  0  0  0
   57.0020   26.4820   42.4650 H   0  0  0  0  0  0  0  0  0  0  0  0
   56.0060   28.8810   42.4130 H   0  0  0  0  0  0  0  0  0  0  0  0
   55.7634   30.8840   43.6979 H   0  0  0  0  0  0  0  0  0  0  0  0
   56.9044   33.6691   44.1839 H   0  0  0  0  0  0  0  0  0  0  0  0
   58.1686   35.7920   44.2443 H   0  0  0  0  0  0  0  0  0  0  0  0
   60.0400   35.9220   45.7180 H   0  0  0  0  0  0  0  0  0  0  0  0
   61.5145   35.0666   47.3092 H   0  0  0  0  0  0  0  0  0  0  0  0
   61.9064   34.9278   50.2662 H   0  0  0  0  0  0  0  0  0  0  0  0
  1  2  1  0
  2  3  1  0
  3  4  2  0
  4  5  1  0
  5  6  2  0
  6  7  1  0
  7  8  2  0
  8  9  1  0
  9 10  2  0
 10 11  1  0
 11 12  1  0
 12 13  2  0
 13 14  1  0
 14 15  2  3
 14 16  1  0
 16 17  1  0
  9 18  1  0
 18 19  2  0
 19 20  1  0
 20 21  1  0
 21 22  2  0
  4 23  1  0
 23 24  2  0
 24  2  1  0
 22  5  1  0
 21  8  1  0
 17 11  2  0
  1 25  1  0
  1 26  1  0
  1 27  1  0
  3 28  1  0
  6 29  1  0
  7 30  1  0
 12 31  1  0
 15 32  1  0
 16 33  1  0
 17 34  1  0
 18 35  1  0
 19 36  1  0
 20 37  1  0
 22 38  1  0
 23 39  1  0
M  END
>  <smiles>  (32) 
Cn1cc(-c2ccc3c(=Nc4cnc(=N)[nH]c4)cc[nH]c3c2)cn1

>  <score_type>  (32) 
oracle

>  <origin>  (32) 
adg

>  <m_score__min__energy>  (32) 
-8.0299999999999994

>  <m_primary>  (32) 
energy

$$$$
32:0
     RDKit          3D

 40 43  0  0  0  0  0  0  0  0999 V2000
   54.3923   24.2105   46.0332 H   0  0  0  0  0  0  0  0  0  0  0  0
   55.2710   24.8490   45.8590 C   0  0  0  0  0  0  0  0  0  0  0  0
   55.2270   26.2030   45.9920 N   0  0  0  0  0  0  0  0  0  0  0  0
   56.4190   26.7740   45.7230 C   0  0  0  0  0  0  0  0  0  0  0  0
   56.6000   28.0620   45.8050 N   0  0  0  0  0  0  0  0  0  0  0  0
   57.8030   28.7920   45.5190 C   0  0  0  0  0  0  0  0  0  0  0  0
   58.9300   28.3320   45.8460 O   0  0  0  0  0  0  0  0  0  0  0  0
   57.7070   30.0620   44.7730 C   0  0  0  0  0  0  0  0  0  0  0  0
   57.3070   30.1670   43.4400 C   0  0  0  0  0  0  0  0  0  0  0  0
   56.9984   29.3203   42.8092 H   0  0  0  0  0  0  0  0  0  0  0  0
   57.3520   31.4550   43.0330 N   0  0  0  0  0  0  0  0  0  0  0  0
   57.0740   31.9500   41.6860 C   0  0  0  0  0  0  0  0  0  0  0  0
   56.8476   31.0996   41.0261 H   0  0  0  0  0  0  0  0  0  0  0  0
   56.2137   32.6344   41.7260 H   0  0  0  0  0  0  0  0  0  0  0  0
   58.2820   32.7020   41.1410 C   0  0  0  0  0  0  0  0  0  0  0  0
   58.8876   33.0790   41.9783 H   0  0  0  0  0  0  0  0  0  0  0  0
   58.8899   32.0225   40.5256 H   0  0  0  0  0  0  0  0  0  0  0  0
   57.9406   33.5474   40.5256 H   0  0  0  0  0  0  0  0  0  0  0  0
   57.7840   32.1640   44.0890 C   0  0  0  0  0  0  0  0  0  0  0  0
   57.9870   33.5060   44.1160 N   0  0  0  0  0  0  0  0  0  0  0  0
   58.4120   34.1020   45.2680 C   0  0  0  0  0  0  0  0  0  0  0  0
   58.5847   35.1881   45.2903 H   0  0  0  0  0  0  0  0  0  0  0  0
   58.6320   33.3300   46.4350 C   0  0  0  0  0  0  0  0  0  0  0  0
   59.0490   33.8950   47.6510 C   0  0  0  0  0  0  0  0  0  0  0  0
   59.2670   35.1330   47.7490 O   0  0  0  0  0  0  0  0  0  0  0  0
   59.2190   33.1010   48.7410 N   0  0  0  0  0  0  0  0  0  0  0  0
   58.9860   31.7620   48.6860 C   0  0  0  0  0  0  0  0  0  0  0  0
   59.2020   30.9120   49.8990 C   0  0  0  0  0  0  0  0  0  0  0  0
   58.3534   31.0406   50.5869 H   0  0  0  0  0  0  0  0  0  0  0  0
   60.1371   31.2216   50.3886 H   0  0  0  0  0  0  0  0  0  0  0  0
   59.3130   29.4420   49.5080 C   0  0  0  0  0  0  0  0  0  0  0  0
   59.3597   28.8235   50.4164 H   0  0  0  0  0  0  0  0  0  0  0  0
   58.4341   29.1535   48.9128 H   0  0  0  0  0  0  0  0  0  0  0  0
   60.2253   29.2888   48.9128 H   0  0  0  0  0  0  0  0  0  0  0  0
   58.5960   31.1880   47.5160 N   0  0  0  0  0  0  0  0  0  0  0  0
   58.4180   31.9300   46.3940 C   0  0  0  0  0  0  0  0  0  0  0  0
   58.0050   31.3630   45.1820 C   0  0  0  0  0  0  0  0  0  0  0  0
   57.5780   25.6170   45.3150 S   0  0  0  0  0  0  0  0  0  0  0  0
   56.5070   24.3310   45.4870 C   0  0  0  0  0  0  0  0  0  0  0  0
   56.7428   23.2677   45.3325 H   0  0  0  0  0  0  0  0  0  0  0  0
  1  2  1  0
  2  3  1  0
  3  4  1  0
  4  5  2  0
  5  6  1  0
  6  7  2  0
  6  8  1  0
  8  9  2  0
  9 10  1  0
  9 11  1  0
 11 12  1  0
 12 13  1  0
 12 14  1  0
 12 15  1  0
 15 16  1  0
 15 17  1  0
 15 18  1  0
 11 19  1  0
 19 20  2  0
 20 21  1  0
 21 22  1  0
 21 23  2  0
 23 24  1  0
 24 25  2  0
 24 26  1  0
 26 27  2  0
 27 28  1  0
 28 29  1  0
 28 30  1  0
 28 31  1  0
 31 32  1  0
 31 33  1  0
 31 34  1  0
 27 35  1  0
 35 36  1  0
 36 37  2  0
  4 38  1  0
 38 39  1  0
 39 40  1  0
 39  2  2  0
 37  8  1  0
 37 19  1  0
 36 23  1  0
M  CHG  2   3  -1  35  -1
M  END
>  <UniqueID>  (33) 
30

>  <SMILES>  (33) 
CCc1nc(=O)c2cnc3c(c(C(=O)/N=c4/[n-]ccs4)cn3CC)c2[n-]1

>  <Energy>  (33) 
112.8507475498725

>  <Genealogy>  (33) 
CCc1nc(=O)c2cnc3c(c(C(=O)N=c4[n-]ccs4)cn3CC)c2[n-]1 (protonated)
CCc1nc(=O)c2cnc3c(c(C(=O)/N=c4/[n-]ccs4)cn3CC)c2[n-]1 (cis-trans isomerization)
CCc1nc(=O)c2cnc3c(c(C(=O)/N=c4/[n-]ccs4)cn3CC)c2[n-]1 (3D coordinates assigned)
CCc1nc(=O)c2cnc3c(c(C(=O)/N=c4/[n-]ccs4)cn3CC)c2[n-]1 (optimized conformer: 112.8507475498725 kcal/mol)

>  <smiles>  (33) 
CCc1nc(=O)c2cnc3c(c(C(=O)N=c4[nH]ccs4)cn3CC)c2[nH]1

>  <score_type>  (33) 
oracle

>  <origin>  (33) 
adg

>  <m_score__min__energy>  (33) 
-10.57

>  <m_primary>  (33) 
energy

$$$$
33:0
     RDKit          3D

 24 26  0  0  0  0  0  0  0  0999 V2000
   57.4180   25.5880   44.5070 C   0  0  0  0  0  0  0  0  0  0  0  0
   57.9610   26.4090   43.5170 C   0  0  0  0  0  0  0  0  0  0  0  0
   58.1240   27.7780   43.7520 C   0  0  0  0  0  0  0  0  0  0  0  0
   57.7440   28.3380   44.9860 C   0  0  0  0  0  0  0  0  0  0  0  0
   57.9150   29.7870   45.2370 C   0  0  0  0  0  0  0  0  0  0  0  0
   56.9810   30.7140   44.8880 N   0  0  0  0  0  0  0  0  0  0  0  0
   57.5390   31.8620   45.2940 C   0  0  0  0  0  0  0  0  0  0  0  0
   57.0170   33.1500   45.1880 C   0  0  0  0  0  0  0  0  0  0  0  0
   57.7910   34.2120   45.6920 C   0  0  0  0  0  0  0  0  0  0  0  0
   59.0510   33.9610   46.2820 C   0  0  0  0  0  0  0  0  0  0  0  0
   59.5450   32.6450   46.3710 C   0  0  0  0  0  0  0  0  0  0  0  0
   58.7510   31.6210   45.8610 C   0  0  0  0  0  0  0  0  0  0  0  0
   59.0190   30.3080   45.8400 N   0  0  0  0  0  0  0  0  0  0  0  0
   57.1980   27.5010   45.9760 C   0  0  0  0  0  0  0  0  0  0  0  0
   57.0370   26.1330   45.7360 C   0  0  0  0  0  0  0  0  0  0  0  0
   57.2900   24.5117   44.3195 H   0  0  0  0  0  0  0  0  0  0  0  0
   58.2612   25.9783   42.5503 H   0  0  0  0  0  0  0  0  0  0  0  0
   58.5515   28.4205   42.9682 H   0  0  0  0  0  0  0  0  0  0  0  0
   56.0348   33.3301   44.7267 H   0  0  0  0  0  0  0  0  0  0  0  0
   57.4134   35.2431   45.6265 H   0  0  0  0  0  0  0  0  0  0  0  0
   59.6485   34.7975   46.6735 H   0  0  0  0  0  0  0  0  0  0  0  0
   60.5234   32.4336   46.8272 H   0  0  0  0  0  0  0  0  0  0  0  0
   56.8959   27.9253   46.9449 H   0  0  0  0  0  0  0  0  0  0  0  0
   56.6099   25.4850   46.5156 H   0  0  0  0  0  0  0  0  0  0  0  0
  1  2  2  0
  2  3  1  0
  3  4  2  0
  4  5  1  0
  5  6  2  0
  6  7  1  0
  7  8  2  0
  8  9  1  0
  9 10  2  0
 10 11  1  0
 11 12  2  0
 12 13  1  0
  4 14  1  0
 14 15  2  0
 15  1  1  0
 13  5  1  0
 12  7  1  0
  1 16  1  0
  2 17  1  0
  3 18  1  0
  8 19  1  0
  9 20  1  0
 10 21  1  0
 11 22  1  0
 14 23  1  0
 15 24  1  0
M  CHG  1  13  -1
M  END
>  <UniqueID>  (34) 
31

>  <SMILES>  (34) 
c1ccc(-c2nc3ccccc3[n-]2)cc1

>  <Energy>  (34) 
62.28655460411332

>  <Genealogy>  (34) 
c1ccc(-c2nc3ccccc3[n-]2)cc1 (protonated)
c1ccc(-c2nc3ccccc3[n-]2)cc1 (3D coordinates assigned)
c1ccc(-c2nc3ccccc3[n-]2)cc1 (optimized conformer: 62.28655460411332 kcal/mol)

>  <smiles>  (34) 
c1ccc(-c2nc3ccccc3[nH]2)cc1

>  <score_type>  (34) 
oracle

>  <origin>  (34) 
adg

>  <m_score__min__energy>  (34) 
-6.9299999999999997

>  <m_primary>  (34) 
energy

$$$$
34:0
     RDKit          3D

 26 28  0  0  0  0  0  0  0  0999 V2000
   56.2600   30.8680   44.4950 O   0  0  0  0  0  0  0  0  0  0  0  0
   57.3940   31.0450   45.0150 C   0  0  0  0  0  0  0  0  0  0  0  0
   57.9310   32.2570   45.3840 C   0  0  0  0  0  0  0  0  0  0  0  0
   57.4700   33.5680   45.2950 C   0  0  0  0  0  0  0  0  0  0  0  0
   58.3080   34.5840   45.7920 C   0  0  0  0  0  0  0  0  0  0  0  0
   59.5640   34.2660   46.3600 C   0  0  0  0  0  0  0  0  0  0  0  0
   59.9970   32.9280   46.4380 C   0  0  0  0  0  0  0  0  0  0  0  0
   59.1460   31.9450   45.9370 C   0  0  0  0  0  0  0  0  0  0  0  0
   59.3380   30.6130   45.9060 N   0  0  0  0  0  0  0  0  0  0  0  0
   58.2680   30.0580   45.3370 N   0  0  0  0  0  0  0  0  0  0  0  0
   58.1040   28.6420   45.1330 C   0  0  0  0  0  0  0  0  0  0  0  0
   58.2830   28.0870   43.8540 C   0  0  0  0  0  0  0  0  0  0  0  0
   58.1190   26.7140   43.6500 C   0  0  0  0  0  0  0  0  0  0  0  0
   57.7690   25.8830   44.7170 C   0  0  0  0  0  0  0  0  0  0  0  0
   57.5820   26.4250   45.9900 C   0  0  0  0  0  0  0  0  0  0  0  0
   57.7450   27.7980   46.2000 C   0  0  0  0  0  0  0  0  0  0  0  0
   56.4896   33.8005   44.8537 H   0  0  0  0  0  0  0  0  0  0  0  0
   57.9836   35.6337   45.7383 H   0  0  0  0  0  0  0  0  0  0  0  0
   60.2081   35.0707   46.7441 H   0  0  0  0  0  0  0  0  0  0  0  0
   60.9711   32.6686   46.8782 H   0  0  0  0  0  0  0  0  0  0  0  0
   60.1810   30.0980   46.2460 H   0  0  0  0  0  0  0  0  0  0  0  0
   58.5537   28.7369   43.0088 H   0  0  0  0  0  0  0  0  0  0  0  0
   58.2659   26.2868   42.6470 H   0  0  0  0  0  0  0  0  0  0  0  0
   57.6409   24.8027   44.5544 H   0  0  0  0  0  0  0  0  0  0  0  0
   57.3058   25.7705   46.8298 H   0  0  0  0  0  0  0  0  0  0  0  0
   57.5918   28.2201   47.2042 H   0  0  0  0  0  0  0  0  0  0  0  0
  1  2  2  0
  2  3  1  0
  3  4  2  0
  4  5  1  0
  5  6  2  0
  6  7  1  0
  7  8  2  0
  8  9  1  0
  9 10  1  0
 10 11  1  0
 11 12  2  0
 12 13  1  0
 13 14  2  0
 14 15  1  0
 15 16  2  0
 10  2  1  0
 16 11  1  0
  8  3  1  0
  4 17  1  0
  5 18  1  0
  6 19  1  0
  7 20  1  0
  9 21  1  0
 12 22  1  0
 13 23  1  0
 14 24  1  0
 15 25  1  0
 16 26  1  0
M  END
>  <UniqueID>  (35) 
32

>  <SMILES>  (35) 
O=c1c2ccccc2[nH]n1-c1ccccc1

>  <Energy>  (35) 
75.13342922385596

>  <Genealogy>  (35) 
O=c1c2ccccc2[nH]n1-c1ccccc1 (3D coordinates assigned)
O=c1c2ccccc2[nH]n1-c1ccccc1 (optimized conformer: 75.13342922385596 kcal/mol)

>  <smiles>  (35) 
O=c1c2ccccc2[nH]n1-c1ccccc1

>  <score_type>  (35) 
oracle

>  <origin>  (35) 
adg

>  <m_score__min__energy>  (35) 
-6.1299999999999999

>  <m_primary>  (35) 
energy

$$$$
35:0
     RDKit          3D

 30 32  0  0  1  0  0  0  0  0999 V2000
   60.3960   27.2310   47.6920 N   0  0  0  0  0  0  0  0  0  0  0  0
   59.5260   27.5420   46.5990 C   0  0  0  0  0  0  0  0  0  0  0  0
   59.2830   26.6060   45.6170 C   0  0  0  0  0  0  0  0  0  0  0  0
   58.4380   26.9730   44.5940 C   0  0  0  0  0  0  0  0  0  0  0  0
   57.8570   28.2340   44.5600 C   0  0  0  0  0  0  0  0  0  0  0  0
   57.0190   28.6050   43.5550 N   0  0  0  0  0  0  0  0  0  0  0  0
   56.4590   29.8490   43.5400 C   0  0  0  0  0  0  0  0  0  0  0  0
   56.7060   30.7520   44.5060 N   0  0  0  0  0  0  0  0  0  0  0  0
   57.5330   30.4200   45.5220 C   0  0  0  0  0  0  0  0  0  0  0  0
   57.7750   31.2690   46.4460 N   0  0  0  0  0  0  0  0  0  0  0  0
   58.5210   32.4660   46.2500 C   0  0  0  0  0  0  0  0  0  0  0  0
   58.0280   33.5860   45.6570 C   0  0  0  0  0  0  0  0  0  0  0  0
   58.8480   34.7040   45.5170 C   0  0  0  0  0  0  0  0  0  0  0  0
   60.1530   34.6830   45.9760 C   0  0  0  0  0  0  0  0  0  0  0  0
   60.6740   33.5380   46.5880 C   0  0  0  0  0  0  0  0  0  0  0  0
   62.4660   33.4740   47.2300 Br  0  0  0  0  0  0  0  0  0  0  0  0
   59.8410   32.4410   46.7160 C   0  0  0  0  0  0  0  0  0  0  0  0
   58.1130   29.1640   45.5580 C   0  0  0  0  0  0  0  0  0  0  0  0
   58.9610   28.7980   46.5840 C   0  0  0  0  0  0  0  0  0  0  0  0
   60.0750   27.4800   48.6340 H   0  0  0  0  0  0  0  0  0  0  0  0
   61.3310   26.7650   47.5500 H   0  0  0  0  0  0  0  0  0  0  0  0
   59.7446   25.6081   45.6493 H   0  0  0  0  0  0  0  0  0  0  0  0
   58.2192   26.2552   43.7897 H   0  0  0  0  0  0  0  0  0  0  0  0
   56.8130   27.9070   42.7860 H   0  0  0  0  0  0  0  0  0  0  0  0
   55.7858   30.1216   42.7138 H   0  0  0  0  0  0  0  0  0  0  0  0
   56.9909   33.6093   45.2910 H   0  0  0  0  0  0  0  0  0  0  0  0
   58.4539   35.6119   45.0370 H   0  0  0  0  0  0  0  0  0  0  0  0
   60.7865   35.5746   45.8587 H   0  0  0  0  0  0  0  0  0  0  0  0
   60.2246   31.5280   47.1949 H   0  0  0  0  0  0  0  0  0  0  0  0
   59.1859   29.5108   47.3911 H   0  0  0  0  0  0  0  0  0  0  0  0
  1  2  1  0
  2  3  2  0
  3  4  1  0
  4  5  2  0
  5  6  1  0
  6  7  1  0
  7  8  2  0
  8  9  1  0
  9 10  2  0
 10 11  1  0
 11 12  2  0
 12 13  1  0
 13 14  2  0
 14 15  1  0
 15 16  1  0
 15 17  2  0
  9 18  1  0
 18 19  2  0
 19  2  1  0
 18  5  1  0
 17 11  1  0
  1 20  1  0
  1 21  1  0
  3 22  1  0
  4 23  1  0
  6 24  1  0
  7 25  1  0
 12 26  1  0
 13 27  1  0
 14 28  1  0
 17 29  1  0
 19 30  1  0
M  END
>  <smiles>  (36) 
Nc1ccc2[nH]cnc(=Nc3cccc(Br)c3)c2c1

>  <score_type>  (36) 
oracle

>  <origin>  (36) 
adg

>  <m_score__min__energy>  (36) 
-7.5300000000000002

>  <m_primary>  (36) 
energy

$$$$
36:0
     RDKit          3D

 34 35  0  0  0  0  0  0  0  0999 V2000
   60.5780   26.4100   46.5470 C   0  0  0  0  0  0  0  0  0  0  0  0
   59.0550   26.5720   46.6080 C   0  0  0  0  0  0  0  0  0  0  0  0
   58.3460   25.3200   46.0800 C   0  0  0  0  0  0  0  0  0  0  0  0
   58.6070   27.8120   45.8570 C   0  0  0  0  0  0  0  0  0  0  0  0
   59.5410   28.7520   45.3860 C   0  0  0  0  0  0  0  0  0  0  0  0
   59.1150   29.8900   44.7000 C   0  0  0  0  0  0  0  0  0  0  0  0
   57.7530   30.1170   44.4760 C   0  0  0  0  0  0  0  0  0  0  0  0
   57.2660   31.6200   43.6150 S   0  0  0  0  0  0  0  0  0  0  0  0
   57.9640   32.6870   44.8770 C   0  0  0  0  0  0  0  0  0  0  0  0
   58.7070   33.8160   44.5070 C   0  0  0  0  0  0  0  0  0  0  0  0
   59.2560   34.6470   45.4890 C   0  0  0  0  0  0  0  0  0  0  0  0
   59.0590   34.3550   46.8430 C   0  0  0  0  0  0  0  0  0  0  0  0
   58.3120   33.2340   47.2150 C   0  0  0  0  0  0  0  0  0  0  0  0
   57.7620   32.4010   46.2340 C   0  0  0  0  0  0  0  0  0  0  0  0
   56.8040   29.1760   44.9260 C   0  0  0  0  0  0  0  0  0  0  0  0
   55.4020   29.3520   44.6850 N   0  0  0  0  0  0  0  0  0  0  0  0
   57.2400   28.0350   45.6180 C   0  0  0  0  0  0  0  0  0  0  0  0
   60.9834   26.3669   47.5687 H   0  0  0  0  0  0  0  0  0  0  0  0
   60.8268   25.4803   46.0143 H   0  0  0  0  0  0  0  0  0  0  0  0
   61.0168   27.2665   46.0143 H   0  0  0  0  0  0  0  0  0  0  0  0
   58.7720   26.6985   47.6634 H   0  0  0  0  0  0  0  0  0  0  0  0
   58.0003   24.7096   46.9273 H   0  0  0  0  0  0  0  0  0  0  0  0
   57.4829   25.6185   45.4669 H   0  0  0  0  0  0  0  0  0  0  0  0
   59.0459   24.7333   45.4669 H   0  0  0  0  0  0  0  0  0  0  0  0
   60.6149   28.5890   45.5596 H   0  0  0  0  0  0  0  0  0  0  0  0
   59.8564   30.6146   44.3323 H   0  0  0  0  0  0  0  0  0  0  0  0
   58.8587   34.0490   43.4427 H   0  0  0  0  0  0  0  0  0  0  0  0
   59.8428   35.5303   45.1967 H   0  0  0  0  0  0  0  0  0  0  0  0
   59.4922   35.0080   47.6150 H   0  0  0  0  0  0  0  0  0  0  0  0
   58.1562   33.0061   48.2798 H   0  0  0  0  0  0  0  0  0  0  0  0
   57.1708   31.5213   46.5283 H   0  0  0  0  0  0  0  0  0  0  0  0
   54.7670   28.5470   44.4920 H   0  0  0  0  0  0  0  0  0  0  0  0
   54.9720   30.3020   44.7310 H   0  0  0  0  0  0  0  0  0  0  0  0
   56.5008   27.3046   45.9786 H   0  0  0  0  0  0  0  0  0  0  0  0
  1  2  1  0
  2  3  1  0
  2  4  1  0
  4  5  2  0
  5  6  1  0
  6  7  2  0
  7  8  1  0
  8  9  1  0
  9 10  2  0
 10 11  1  0
 11 12  2  0
 12 13  1  0
 13 14  2  0
  7 15  1  0
 15 16  1  0
 15 17  2  0
 17  4  1  0
 14  9  1  0
  1 18  1  0
  1 19  1  0
  1 20  1  0
  2 21  1  0
  3 22  1  0
  3 23  1  0
  3 24  1  0
  5 25  1  0
  6 26  1  0
 10 27  1  0
 11 28  1  0
 12 29  1  0
 13 30  1  0
 14 31  1  0
 16 32  1  0
 16 33  1  0
 17 34  1  0
M  END
>  <UniqueID>  (37) 
33

>  <SMILES>  (37) 
CC(C)c1ccc(Sc2ccccc2)c(N)c1

>  <Energy>  (37) 
26.53220870327467

>  <Genealogy>  (37) 
CC(C)c1ccc(Sc2ccccc2)c(N)c1 (3D coordinates assigned)
CC(C)c1ccc(Sc2ccccc2)c(N)c1 (optimized conformer: 26.53220870327467 kcal/mol)

>  <smiles>  (37) 
CC(C)c1ccc(Sc2ccccc2)c(N)c1

>  <score_type>  (37) 
oracle

>  <origin>  (37) 
adg

>  <m_score__min__energy>  (37) 
-7.71

>  <m_primary>  (37) 
energy

$$$$
37:0
     RDKit          3D

 38 40  0  0  0  0  0  0  0  0999 V2000
   56.7610   34.2350   45.2400 C   0  0  0  0  0  0  0  0  0  0  0  0
   57.8580   33.2680   45.1360 N   0  0  0  0  0  0  0  0  0  0  0  0
   59.2480   33.7370   45.0300 C   0  0  0  0  0  0  0  0  0  0  0  0
   59.8970   33.7690   46.3890 C   0  0  0  0  0  0  0  0  0  0  0  0
   61.2660   33.4890   46.5370 C   0  0  0  0  0  0  0  0  0  0  0  0
   61.8540   33.4970   47.8050 C   0  0  0  0  0  0  0  0  0  0  0  0
   61.0820   33.7890   48.9330 C   0  0  0  0  0  0  0  0  0  0  0  0
   59.7200   34.0730   48.7940 C   0  0  0  0  0  0  0  0  0  0  0  0
   59.1280   34.0630   47.5270 C   0  0  0  0  0  0  0  0  0  0  0  0
   57.5640   31.8560   45.1470 C   0  0  0  0  0  0  0  0  0  0  0  0
   56.4640   31.3760   44.5050 N   0  0  0  0  0  0  0  0  0  0  0  0
   56.1700   30.0510   44.5090 C   0  0  0  0  0  0  0  0  0  0  0  0
   55.1500   29.6350   43.9000 O   0  0  0  0  0  0  0  0  0  0  0  0
   56.9990   29.1550   45.1870 C   0  0  0  0  0  0  0  0  0  0  0  0
   58.1270   29.6540   45.8550 C   0  0  0  0  0  0  0  0  0  0  0  0
   59.0550   28.7680   46.6030 C   0  0  0  0  0  0  0  0  0  0  0  0
   59.4420   29.1060   47.9130 C   0  0  0  0  0  0  0  0  0  0  0  0
   60.3010   28.2750   48.6380 C   0  0  0  0  0  0  0  0  0  0  0  0
   60.7790   27.0940   48.0680 C   0  0  0  0  0  0  0  0  0  0  0  0
   60.3950   26.7400   46.7730 C   0  0  0  0  0  0  0  0  0  0  0  0
   59.5370   27.5670   46.0430 C   0  0  0  0  0  0  0  0  0  0  0  0
   58.3810   30.9900   45.8080 N   0  0  0  0  0  0  0  0  0  0  0  0
   56.5418   34.4282   46.3005 H   0  0  0  0  0  0  0  0  0  0  0  0
   57.0529   35.1749   44.7488 H   0  0  0  0  0  0  0  0  0  0  0  0
   55.8651   33.8274   44.7488 H   0  0  0  0  0  0  0  0  0  0  0  0
   59.8114   33.0558   44.3754 H   0  0  0  0  0  0  0  0  0  0  0  0
   59.2503   34.7535   44.6097 H   0  0  0  0  0  0  0  0  0  0  0  0
   61.8776   33.2625   45.6512 H   0  0  0  0  0  0  0  0  0  0  0  0
   62.9253   33.2733   47.9153 H   0  0  0  0  0  0  0  0  0  0  0  0
   61.5460   33.7954   49.9303 H   0  0  0  0  0  0  0  0  0  0  0  0
   59.1136   34.3045   49.6820 H   0  0  0  0  0  0  0  0  0  0  0  0
   58.0561   34.2862   47.4213 H   0  0  0  0  0  0  0  0  0  0  0  0
   56.7719   28.0787   45.1971 H   0  0  0  0  0  0  0  0  0  0  0  0
   59.0652   30.0326   48.3707 H   0  0  0  0  0  0  0  0  0  0  0  0
   60.6007   28.5523   49.6594 H   0  0  0  0  0  0  0  0  0  0  0  0
   61.4576   26.4427   48.6384 H   0  0  0  0  0  0  0  0  0  0  0  0
   60.7691   25.8071   46.3260 H   0  0  0  0  0  0  0  0  0  0  0  0
   59.2357   27.2792   45.0250 H   0  0  0  0  0  0  0  0  0  0  0  0
  1  2  1  0
  2  3  1  0
  3  4  1  0
  4  5  2  0
  5  6  1  0
  6  7  2  0
  7  8  1  0
  8  9  2  0
  2 10  1  0
 10 11  2  0
 11 12  1  0
 12 13  2  0
 12 14  1  0
 14 15  2  0
 15 16  1  0
 16 17  2  0
 17 18  1  0
 18 19  2  0
 19 20  1  0
 20 21  2  0
 15 22  1  0
  9  4  1  0
 22 10  1  0
 21 16  1  0
  1 23  1  0
  1 24  1  0
  1 25  1  0
  3 26  1  0
  3 27  1  0
  5 28  1  0
  6 29  1  0
  7 30  1  0
  8 31  1  0
  9 32  1  0
 14 33  1  0
 17 34  1  0
 18 35  1  0
 19 36  1  0
 20 37  1  0
 21 38  1  0
M  CHG  1  22  -1
M  END
>  <UniqueID>  (38) 
34

>  <SMILES>  (38) 
CN(Cc1ccccc1)c1nc(=O)cc(-c2ccccc2)[n-]1

>  <Energy>  (38) 
41.59205887107974

>  <Genealogy>  (38) 
CN(Cc1ccccc1)c1nc(=O)cc(-c2ccccc2)[n-]1 (protonated)
CN(Cc1ccccc1)c1nc(=O)cc(-c2ccccc2)[n-]1 (3D coordinates assigned)
CN(Cc1ccccc1)c1nc(=O)cc(-c2ccccc2)[n-]1 (optimized conformer: 41.59205887107974 kcal/mol)

>  <smiles>  (38) 
CN(Cc1ccccc1)c1nc(=O)cc(-c2ccccc2)[nH]1

>  <score_type>  (38) 
oracle

>  <origin>  (38) 
adg

>  <m_score__min__energy>  (38) 
-8.7699999999999996

>  <m_primary>  (38) 
energy

$$$$
38:0
     RDKit          3D

 31 33  0  0  0  0  0  0  0  0999 V2000
   56.2180   29.6960   43.1910 C   0  0  0  0  0  0  0  0  0  0  0  0
   56.8870   30.8300   43.8940 C   0  0  0  0  0  0  0  0  0  0  0  0
   57.1190   30.8330   45.2330 N   0  0  0  0  0  0  0  0  0  0  0  0
   57.7770   31.9930   45.4160 C   0  0  0  0  0  0  0  0  0  0  0  0
   58.2700   32.5150   46.6090 C   0  0  0  0  0  0  0  0  0  0  0  0
   58.9420   33.7570   46.5600 C   0  0  0  0  0  0  0  0  0  0  0  0
   59.5290   34.3460   47.8140 C   0  0  0  0  0  0  0  0  0  0  0  0
   60.9940   34.0180   47.9040 C   0  0  0  0  0  0  0  0  0  0  0  0
   61.6620   34.0890   49.1390 C   0  0  0  0  0  0  0  0  0  0  0  0
   63.0320   33.8190   49.2150 C   0  0  0  0  0  0  0  0  0  0  0  0
   63.7450   33.4870   48.0610 C   0  0  0  0  0  0  0  0  0  0  0  0
   63.0920   33.4260   46.8280 C   0  0  0  0  0  0  0  0  0  0  0  0
   61.7210   33.6950   46.7460 C   0  0  0  0  0  0  0  0  0  0  0  0
   59.1130   34.4190   45.3150 C   0  0  0  0  0  0  0  0  0  0  0  0
   58.6030   33.8580   44.1290 C   0  0  0  0  0  0  0  0  0  0  0  0
   57.9370   32.6410   44.2280 C   0  0  0  0  0  0  0  0  0  0  0  0
   57.3830   31.9140   43.2500 N   0  0  0  0  0  0  0  0  0  0  0  0
   55.8054   28.9967   43.9332 H   0  0  0  0  0  0  0  0  0  0  0  0
   55.4042   30.0841   42.5609 H   0  0  0  0  0  0  0  0  0  0  0  0
   56.9513   29.1714   42.5609 H   0  0  0  0  0  0  0  0  0  0  0  0
   58.1404   31.9773   47.5598 H   0  0  0  0  0  0  0  0  0  0  0  0
   59.4014   35.4384   47.7969 H   0  0  0  0  0  0  0  0  0  0  0  0
   59.0114   33.9217   48.6869 H   0  0  0  0  0  0  0  0  0  0  0  0
   61.1051   34.3579   50.0487 H   0  0  0  0  0  0  0  0  0  0  0  0
   63.5486   33.8682   50.1849 H   0  0  0  0  0  0  0  0  0  0  0  0
   64.8222   33.2733   48.1233 H   0  0  0  0  0  0  0  0  0  0  0  0
   63.6560   33.1662   45.9200 H   0  0  0  0  0  0  0  0  0  0  0  0
   61.2112   33.6534   45.7721 H   0  0  0  0  0  0  0  0  0  0  0  0
   59.6489   35.3789   45.2773 H   0  0  0  0  0  0  0  0  0  0  0  0
   58.7266   34.3634   43.1598 H   0  0  0  0  0  0  0  0  0  0  0  0
   57.3510   32.1280   42.2270 H   0  0  0  0  0  0  0  0  0  0  0  0
  1  2  1  0
  2  3  2  0
  3  4  1  0
  4  5  2  0
  5  6  1  0
  6  7  1  0
  7  8  1  0
  8  9  2  0
  9 10  1  0
 10 11  2  0
 11 12  1  0
 12 13  2  0
  6 14  2  0
 14 15  1  0
 15 16  2  0
 16 17  1  0
 17  2  1  0
 16  4  1  0
 13  8  1  0
  1 18  1  0
  1 19  1  0
  1 20  1  0
  5 21  1  0
  7 22  1  0
  7 23  1  0
  9 24  1  0
 10 25  1  0
 11 26  1  0
 12 27  1  0
 13 28  1  0
 14 29  1  0
 15 30  1  0
 17 31  1  0
M  END
>  <UniqueID>  (39) 
35

>  <SMILES>  (39) 
Cc1nc2cc(Cc3ccccc3)ccc2[nH]1

>  <Energy>  (39) 
66.47971016201915

>  <Genealogy>  (39) 
Cc1nc2cc(Cc3ccccc3)ccc2[nH]1 (3D coordinates assigned)
Cc1nc2cc(Cc3ccccc3)ccc2[nH]1 (optimized conformer: 66.47971016201915 kcal/mol)

>  <smiles>  (39) 
Cc1nc2cc(Cc3ccccc3)ccc2[nH]1

>  <score_type>  (39) 
oracle

>  <origin>  (39) 
adg

>  <m_score__min__energy>  (39) 
-7.3799999999999999

>  <m_primary>  (39) 
energy

$$$$
39:0
     RDKit          3D

 63 66  0  0  0  0  0  0  0  0999 V2000
   59.4080   35.5310   46.5390 C   0  0  0  0  0  0  0  0  0  0  0  0
   58.7980   34.3430   45.8580 C   0  0  0  0  0  0  0  0  0  0  0  0
   58.0110   33.4410   46.5910 C   0  0  0  0  0  0  0  0  0  0  0  0
   57.4680   32.3120   45.9690 C   0  0  0  0  0  0  0  0  0  0  0  0
   57.7100   32.0710   44.6090 C   0  0  0  0  0  0  0  0  0  0  0  0
   57.0160   30.6590   43.8130 S   0  0  0  0  0  0  0  0  0  0  0  0
   55.7280   30.3110   44.5040 O   0  0  0  0  0  0  0  0  0  0  0  0
   56.7130   30.9710   42.3720 O   0  0  0  0  0  0  0  0  0  0  0  0
   58.1120   29.2970   43.9250 N   0  0  1  0  0  0  0  0  0  0  0  0
   59.5080   29.7040   44.1290 C   0  0  0  0  0  0  0  0  0  0  0  0
   60.2230   28.6030   44.7860 N   0  0  0  0  0  0  0  0  0  0  0  0
   59.2140   27.5680   45.0260 C   0  0  1  0  0  0  0  0  0  0  0  0
   59.5310   26.7240   46.2700 C   0  0  0  0  0  0  0  0  0  0  0  0
   57.8520   28.2850   44.9660 C   0  0  1  0  0  0  0  0  0  0  0  0
   57.4110   28.8950   46.3370 C   0  0  0  0  0  0  0  0  0  0  0  0
   58.5490   29.4730   47.1440 C   0  0  0  0  0  0  0  0  0  0  0  0
   59.3660   30.2590   46.5950 O   0  0  0  0  0  0  0  0  0  0  0  0
   58.7880   29.0900   48.5040 N   0  0  0  0  0  0  0  0  0  0  0  0
   59.1500   29.9670   49.6180 C   0  0  1  0  0  0  0  0  0  0  0  0
   59.4960   29.1170   50.8560 C   0  0  0  0  0  0  0  0  0  0  0  0
   60.9100   28.4820   50.7900 C   0  0  0  0  0  0  0  0  0  0  0  0
   60.9890   27.3630   49.7340 C   0  0  0  0  0  0  0  0  0  0  0  0
   61.2640   27.8910   52.1640 C   0  0  0  0  0  0  0  0  0  0  0  0
   61.8800   29.4820   50.4750 O   0  0  0  0  0  0  0  0  0  0  0  0
   61.6170   30.5700   49.6340 C   0  0  0  0  0  0  0  0  0  0  0  0
   62.6760   31.3930   49.2360 C   0  0  0  0  0  0  0  0  0  0  0  0
   62.4390   32.4980   48.4160 C   0  0  0  0  0  0  0  0  0  0  0  0
   63.7730   33.5220   47.9150 Cl  0  0  0  0  0  0  0  0  0  0  0  0
   61.1380   32.7900   47.9970 C   0  0  0  0  0  0  0  0  0  0  0  0
   60.0750   31.9770   48.3940 C   0  0  0  0  0  0  0  0  0  0  0  0
   60.3020   30.8580   49.2130 C   0  0  0  0  0  0  0  0  0  0  0  0
   58.5140   32.9580   43.8830 C   0  0  0  0  0  0  0  0  0  0  0  0
   59.0590   34.0860   44.5040 C   0  0  0  0  0  0  0  0  0  0  0  0
   59.3420   35.4025   47.6295 H   0  0  0  0  0  0  0  0  0  0  0  0
   60.4638   35.6209   46.2436 H   0  0  0  0  0  0  0  0  0  0  0  0
   58.8658   36.4414   46.2436 H   0  0  0  0  0  0  0  0  0  0  0  0
   57.8205   33.6228   47.6590 H   0  0  0  0  0  0  0  0  0  0  0  0
   56.8492   31.6110   46.5485 H   0  0  0  0  0  0  0  0  0  0  0  0
   58.0610   28.8120   42.9960 H   0  0  0  0  0  0  0  0  0  0  0  0
   59.9762   29.9234   43.1581 H   0  0  0  0  0  0  0  0  0  0  0  0
   59.5495   30.6073   44.7554 H   0  0  0  0  0  0  0  0  0  0  0  0
   60.5890   28.9570   45.7030 H   0  0  0  0  0  0  0  0  0  0  0  0
   59.2004   26.7805   44.2581 H   0  0  0  0  0  0  0  0  0  0  0  0
   59.3114   27.3087   47.1755 H   0  0  0  0  0  0  0  0  0  0  0  0
   58.9135   25.8137   46.2626 H   0  0  0  0  0  0  0  0  0  0  0  0
   60.5951   26.4453   46.2626 H   0  0  0  0  0  0  0  0  0  0  0  0
   57.0053   27.6209   44.7379 H   0  0  0  0  0  0  0  0  0  0  0  0
   56.6831   29.6962   46.1415 H   0  0  0  0  0  0  0  0  0  0  0  0
   56.9846   28.0725   46.9300 H   0  0  0  0  0  0  0  0  0  0  0  0
   58.2989   30.6135   49.8781 H   0  0  0  0  0  0  0  0  0  0  0  0
   59.4436   29.7603   51.7467 H   0  0  0  0  0  0  0  0  0  0  0  0
   58.7702   28.2915   50.8970 H   0  0  0  0  0  0  0  0  0  0  0  0
   61.0579   26.3876   50.2378 H   0  0  0  0  0  0  0  0  0  0  0  0
   60.0869   27.3880   49.1051 H   0  0  0  0  0  0  0  0  0  0  0  0
   61.8787   27.5145   49.1051 H   0  0  0  0  0  0  0  0  0  0  0  0
   60.8721   28.5453   52.9566 H   0  0  0  0  0  0  0  0  0  0  0  0
   60.8161   26.8908   52.2594 H   0  0  0  0  0  0  0  0  0  0  0  0
   62.3571   27.8139   52.2594 H   0  0  0  0  0  0  0  0  0  0  0  0
   63.6996   31.1686   49.5705 H   0  0  0  0  0  0  0  0  0  0  0  0
   60.9514   33.6621   47.3532 H   0  0  0  0  0  0  0  0  0  0  0  0
   59.0529   32.2139   48.0635 H   0  0  0  0  0  0  0  0  0  0  0  0
   58.7179   32.7666   42.8191 H   0  0  0  0  0  0  0  0  0  0  0  0
   59.6950   34.7746   43.9284 H   0  0  0  0  0  0  0  0  0  0  0  0
  1  2  1  0
  2  3  2  0
  3  4  1  0
  4  5  2  0
  5  6  1  0
  6  7  2  0
  6  8  2  0
  6  9  1  0
  9 10  1  0
 10 11  1  0
 11 12  1  0
 12 13  1  0
 12 14  1  0
 14 15  1  0
 15 16  1  0
 16 17  2  0
 16 18  1  0
 18 19  1  0
 19 20  1  0
 20 21  1  0
 21 22  1  0
 21 23  1  0
 21 24  1  0
 24 25  1  0
 25 26  2  0
 26 27  1  0
 27 28  1  0
 27 29  2  0
 29 30  1  0
 30 31  2  0
  5 32  1  0
 32 33  2  0
 33  2  1  0
 14  9  1  0
 31 19  1  0
 31 25  1  0
  1 34  1  0
  1 35  1  0
  1 36  1  0
  3 37  1  0
  4 38  1  0
  9 39  1  6
 10 40  1  0
 10 41  1  0
 11 42  1  0
 12 43  1  6
 13 44  1  0
 13 45  1  0
 13 46  1  0
 14 47  1  6
 15 48  1  0
 15 49  1  0
 19 50  1  1
 20 51  1  0
 20 52  1  0
 22 53  1  0
 22 54  1  0
 22 55  1  0
 23 56  1  0
 23 57  1  0
 23 58  1  0
 26 59  1  0
 29 60  1  0
 30 61  1  0
 32 62  1  0
 33 63  1  0
M  CHG  2   9   1  18  -1
M  END
>  <UniqueID>  (40) 
36

>  <SMILES>  (40) 
Cc1ccc(S(=O)(=O)[N@H+]2CN[C@@H](C)C2CC(=O)[N-]C2CC(C)(C)Oc3cc(Cl)ccc32)cc1

>  <Energy>  (40) 
74.97848764322985

>  <Genealogy>  (40) 
Cc1ccc(S(=O)(=O)[NH+]2CNC(C)C2CC(=O)[N-]C2CC(C)(C)Oc3cc(Cl)ccc32)cc1 (protonated)
Cc1ccc(S(=O)(=O)[N@H+]2CN[C@@H](C)C2CC(=O)[N-]C2CC(C)(C)Oc3cc(Cl)ccc32)cc1 (chirality)
Cc1ccc(S(=O)(=O)[N@H+]2CN[C@@H](C)C2CC(=O)[N-]C2CC(C)(C)Oc3cc(Cl)ccc32)cc1 (3D coordinates assigned)
Cc1ccc(S(=O)(=O)[N@H+]2CN[C@@H](C)C2CC(=O)[N-]C2CC(C)(C)Oc3cc(Cl)ccc32)cc1 (nonaromatic ring conformer: 74.97848764322985 kcal/mol)

>  <smiles>  (40) 
Cc1ccc(S(=O)(=O)N2CNC(C)C2CC(=O)NC2CC(C)(C)Oc3cc(Cl)ccc32)cc1

>  <score_type>  (40) 
oracle

>  <origin>  (40) 
adg

>  <m_score__min__energy>  (40) 
-8.9399999999999995

>  <m_primary>  (40) 
energy

$$$$
40:0
     RDKit          3D

 16 16  0  0  0  0  0  0  0  0999 V2000
   54.4230   27.8800   52.9420 N   0  0  0  0  0  0  0  0  0  0  0  0
   53.6600   29.0000   52.4850 C   0  0  0  0  0  0  0  0  0  0  0  0
   54.2910   30.0620   51.8250 C   0  0  0  0  0  0  0  0  0  0  0  0
   53.5460   31.1570   51.3790 C   0  0  0  0  0  0  0  0  0  0  0  0
   52.1550   31.2060   51.5850 C   0  0  0  0  0  0  0  0  0  0  0  0
   51.3620   32.3620   51.1150 C   0  0  0  0  0  0  0  0  0  0  0  0
   51.3910   32.7090   49.9040 O   0  0  0  0  0  0  0  0  0  0  0  0
   50.5720   33.0830   52.0030 O   0  0  0  0  0  0  0  0  0  0  0  0
   51.5280   30.1370   52.2480 C   0  0  0  0  0  0  0  0  0  0  0  0
   52.2750   29.0420   52.6940 C   0  0  0  0  0  0  0  0  0  0  0  0
   54.3820   26.9640   52.4410 H   0  0  0  0  0  0  0  0  0  0  0  0
   55.0370   27.9580   53.7840 H   0  0  0  0  0  0  0  0  0  0  0  0
   55.3777   30.0341   51.6570 H   0  0  0  0  0  0  0  0  0  0  0  0
   54.0509   31.9869   50.8630 H   0  0  0  0  0  0  0  0  0  0  0  0
   50.4414   30.1618   52.4174 H   0  0  0  0  0  0  0  0  0  0  0  0
   51.7734   28.2105   53.2108 H   0  0  0  0  0  0  0  0  0  0  0  0
  1  2  1  0
  2  3  2  0
  3  4  1  0
  4  5  2  0
  5  6  1  0
  6  7  2  0
  6  8  1  0
  5  9  1  0
  9 10  2  0
 10  2  1  0
  1 11  1  0
  1 12  1  0
  3 13  1  0
  4 14  1  0
  9 15  1  0
 10 16  1  0
M  CHG  1   8  -1
M  END
>  <UniqueID>  (41) 
37

>  <SMILES>  (41) 
Nc1ccc(C(=O)[O-])cc1

>  <Energy>  (41) 
14.272305349064236

>  <Genealogy>  (41) 
Nc1ccc(C(=O)[O-])cc1 (protonated)
Nc1ccc(C(=O)[O-])cc1 (3D coordinates assigned)
Nc1ccc(C(=O)[O-])cc1 (optimized conformer: 14.272305349064236 kcal/mol)

>  <smiles>  (41) 
Nc1ccc(C(=O)O)cc1

>  <score_type>  (41) 
oracle

>  <origin>  (41) 
adg

>  <m_score__min__energy>  (41) 
-8.2100000000000009

>  <m_primary>  (41) 
energy

$$$$
41:0
     RDKit          3D

 39 41  0  0  0  0  0  0  0  0999 V2000
   57.7760   28.2040   43.7510 C   0  0  0  0  0  0  0  0  0  0  0  0
   56.7980   29.3700   43.6480 C   0  0  0  0  0  0  0  0  0  0  0  0
   56.7420   30.0920   44.8780 O   0  0  0  0  0  0  0  0  0  0  0  0
   57.3940   31.3080   45.1500 C   0  0  0  0  0  0  0  0  0  0  0  0
   57.0220   32.5160   44.5240 C   0  0  0  0  0  0  0  0  0  0  0  0
   57.6920   33.7040   44.8260 C   0  0  0  0  0  0  0  0  0  0  0  0
   58.7370   33.7040   45.7500 C   0  0  0  0  0  0  0  0  0  0  0  0
   59.6510   35.3320   46.1590 Br  0  0  0  0  0  0  0  0  0  0  0  0
   59.1140   32.5150   46.3780 C   0  0  0  0  0  0  0  0  0  0  0  0
   58.4480   31.3160   46.0840 C   0  0  0  0  0  0  0  0  0  0  0  0
   58.9350   29.8170   46.8820 S   0  0  0  0  0  0  0  0  0  0  0  0
   60.1580   29.2750   46.1990 O   0  0  0  0  0  0  0  0  0  0  0  0
   57.8080   28.8270   46.7900 O   0  0  0  0  0  0  0  0  0  0  0  0
   59.2990   30.1230   48.5500 N   0  0  0  0  0  0  0  0  0  0  0  0
   59.8130   31.3520   49.0830 C   0  0  0  0  0  0  0  0  0  0  0  0
   59.1020   32.0840   50.0530 C   0  0  0  0  0  0  0  0  0  0  0  0
   59.6150   33.2780   50.5610 C   0  0  0  0  0  0  0  0  0  0  0  0
   60.8430   33.7640   50.1150 C   0  0  0  0  0  0  0  0  0  0  0  0
   61.5700   33.0540   49.1510 C   0  0  0  0  0  0  0  0  0  0  0  0
   62.8050   33.5300   48.6930 C   0  0  0  0  0  0  0  0  0  0  0  0
   63.5140   32.8110   47.7340 C   0  0  0  0  0  0  0  0  0  0  0  0
   62.9840   31.6200   47.2370 C   0  0  0  0  0  0  0  0  0  0  0  0
   61.7830   31.1600   47.6840 N   0  0  0  0  0  0  0  0  0  0  0  0
   61.0590   31.8400   48.6270 C   0  0  0  0  0  0  0  0  0  0  0  0
   57.9661   27.9774   44.8105 H   0  0  0  0  0  0  0  0  0  0  0  0
   57.3455   27.3197   43.2584 H   0  0  0  0  0  0  0  0  0  0  0  0
   58.7217   28.4741   43.2584 H   0  0  0  0  0  0  0  0  0  0  0  0
   57.1271   30.0475   42.8463 H   0  0  0  0  0  0  0  0  0  0  0  0
   55.7967   28.9729   43.4252 H   0  0  0  0  0  0  0  0  0  0  0  0
   56.1994   32.5226   43.7937 H   0  0  0  0  0  0  0  0  0  0  0  0
   57.3948   34.6418   44.3339 H   0  0  0  0  0  0  0  0  0  0  0  0
   59.9376   32.5187   47.1071 H   0  0  0  0  0  0  0  0  0  0  0  0
   58.1323   31.7108   50.4140 H   0  0  0  0  0  0  0  0  0  0  0  0
   59.0471   33.8390   51.3178 H   0  0  0  0  0  0  0  0  0  0  0  0
   61.2414   34.7058   50.5204 H   0  0  0  0  0  0  0  0  0  0  0  0
   63.2144   34.4705   49.0903 H   0  0  0  0  0  0  0  0  0  0  0  0
   64.4848   33.1794   47.3710 H   0  0  0  0  0  0  0  0  0  0  0  0
   63.5401   31.0488   46.4790 H   0  0  0  0  0  0  0  0  0  0  0  0
   61.4300   30.2630   47.2810 H   0  0  0  0  0  0  0  0  0  0  0  0
  1  2  1  0
  2  3  1  0
  3  4  1  0
  4  5  2  0
  5  6  1  0
  6  7  2  0
  7  8  1  0
  7  9  1  0
  9 10  2  0
 10 11  1  0
 11 12  2  0
 11 13  2  0
 11 14  1  0
 14 15  1  0
 15 16  2  0
 16 17  1  0
 17 18  2  0
 18 19  1  0
 19 20  2  0
 20 21  1  0
 21 22  2  0
 22 23  1  0
 23 24  2  0
 10  4  1  0
 24 15  1  0
 24 19  1  0
  1 25  1  0
  1 26  1  0
  1 27  1  0
  2 28  1  0
  2 29  1  0
  5 30  1  0
  6 31  1  0
  9 32  1  0
 16 33  1  0
 17 34  1  0
 18 35  1  0
 20 36  1  0
 21 37  1  0
 22 38  1  0
 23 39  1  0
M  CHG  2  14  -1  23   1
M  END
>  <UniqueID>  (42) 
38

>  <SMILES>  (42) 
CCOc1ccc(Br)cc1S(=O)(=O)[N-]c1cccc2ccc[nH+]c12

>  <Energy>  (42) 
48.01396358743399

>  <Genealogy>  (42) 
CCOc1ccc(Br)cc1S(=O)(=O)[N-]c1cccc2ccc[nH+]c12 (protonated)
CCOc1ccc(Br)cc1S(=O)(=O)[N-]c1cccc2ccc[nH+]c12 (3D coordinates assigned)
CCOc1ccc(Br)cc1S(=O)(=O)[N-]c1cccc2ccc[nH+]c12 (optimized conformer: 48.01396358743399 kcal/mol)

>  <smiles>  (42) 
CCOc1ccc(Br)cc1S(=O)(=O)Nc1cccc2cccnc12

>  <score_type>  (42) 
oracle

>  <origin>  (42) 
adg

>  <m_score__min__energy>  (42) 
-7.9800000000000004

>  <m_primary>  (42) 
energy

$$$$
42:0
     RDKit          3D

 30 31  0  0  0  0  0  0  0  0999 V2000
   59.2020   30.6740   48.3380 C   0  0  0  0  0  0  0  0  0  0  0  0
   58.2800   31.3630   47.5020 O   0  0  0  0  0  0  0  0  0  0  0  0
   58.6390   32.3200   46.5400 C   0  0  0  0  0  0  0  0  0  0  0  0
   59.7990   33.1100   46.6660 C   0  0  0  0  0  0  0  0  0  0  0  0
   60.1180   34.0550   45.6860 C   0  0  0  0  0  0  0  0  0  0  0  0
   59.2880   34.2220   44.5760 C   0  0  0  0  0  0  0  0  0  0  0  0
   58.1380   33.4400   44.4400 C   0  0  0  0  0  0  0  0  0  0  0  0
   57.8140   32.4880   45.4130 C   0  0  0  0  0  0  0  0  0  0  0  0
   56.6510   31.6790   45.2450 N   0  0  0  0  0  0  0  0  0  0  0  0
   56.7460   30.1550   44.4320 S   0  0  0  0  0  0  0  0  0  0  0  0
   56.8870   30.3800   42.9540 O   0  0  0  0  0  0  0  0  0  0  0  0
   55.4790   29.3850   44.6820 O   0  0  0  0  0  0  0  0  0  0  0  0
   58.1210   29.2380   45.0380 C   0  0  0  0  0  0  0  0  0  0  0  0
   57.9460   28.2760   46.0450 C   0  0  0  0  0  0  0  0  0  0  0  0
   59.0500   27.5880   46.5580 C   0  0  0  0  0  0  0  0  0  0  0  0
   60.3320   27.8610   46.0720 C   0  0  0  0  0  0  0  0  0  0  0  0
   60.5120   28.8210   45.0720 C   0  0  0  0  0  0  0  0  0  0  0  0
   59.4100   29.5090   44.5570 C   0  0  0  0  0  0  0  0  0  0  0  0
   58.9514   30.8612   49.3926 H   0  0  0  0  0  0  0  0  0  0  0  0
   59.1461   29.5945   48.1339 H   0  0  0  0  0  0  0  0  0  0  0  0
   60.2214   31.0334   48.1339 H   0  0  0  0  0  0  0  0  0  0  0  0
   60.4562   32.9828   47.5388 H   0  0  0  0  0  0  0  0  0  0  0  0
   61.0252   34.6683   45.7899 H   0  0  0  0  0  0  0  0  0  0  0  0
   59.5392   34.9690   43.8086 H   0  0  0  0  0  0  0  0  0  0  0  0
   57.4850   33.5733   43.5649 H   0  0  0  0  0  0  0  0  0  0  0  0
   56.9384   28.0629   46.4314 H   0  0  0  0  0  0  0  0  0  0  0  0
   58.9096   26.8317   47.3443 H   0  0  0  0  0  0  0  0  0  0  0  0
   61.1999   27.3199   46.4769 H   0  0  0  0  0  0  0  0  0  0  0  0
   61.5213   29.0349   44.6904 H   0  0  0  0  0  0  0  0  0  0  0  0
   59.5542   30.2656   43.7717 H   0  0  0  0  0  0  0  0  0  0  0  0
  1  2  1  0
  2  3  1  0
  3  4  2  0
  4  5  1  0
  5  6  2  0
  6  7  1  0
  7  8  2  0
  8  9  1  0
  9 10  1  0
 10 11  2  0
 10 12  2  0
 10 13  1  0
 13 14  2  0
 14 15  1  0
 15 16  2  0
 16 17  1  0
 17 18  2  0
  8  3  1  0
 18 13  1  0
  1 19  1  0
  1 20  1  0
  1 21  1  0
  4 22  1  0
  5 23  1  0
  6 24  1  0
  7 25  1  0
 14 26  1  0
 15 27  1  0
 16 28  1  0
 17 29  1  0
 18 30  1  0
M  CHG  1   9  -1
M  END
>  <UniqueID>  (43) 
39

>  <SMILES>  (43) 
COc1ccccc1[N-]S(=O)(=O)c1ccccc1

>  <Energy>  (43) 
38.170461821324366

>  <Genealogy>  (43) 
COc1ccccc1[N-]S(=O)(=O)c1ccccc1 (protonated)
COc1ccccc1[N-]S(=O)(=O)c1ccccc1 (3D coordinates assigned)
COc1ccccc1[N-]S(=O)(=O)c1ccccc1 (optimized conformer: 38.170461821324366 kcal/mol)

>  <smiles>  (43) 
COc1ccccc1NS(=O)(=O)c1ccccc1

>  <score_type>  (43) 
oracle

>  <origin>  (43) 
adg

>  <m_score__min__energy>  (43) 
-9.0299999999999994

>  <m_primary>  (43) 
energy

$$$$
43:0
     RDKit          3D

 47 49  0  0  0  0  0  0  0  0999 V2000
   62.8580   33.0390   50.6050 C   0  0  0  0  0  0  0  0  0  0  0  0
   63.7920   33.4960   49.5630 N   0  0  0  0  0  0  0  0  0  0  0  0
   64.8230   32.4650   49.3480 C   0  0  0  0  0  0  0  0  0  0  0  0
   63.0550   33.7790   48.3110 C   0  0  0  0  0  0  0  0  0  0  0  0
   63.0970   32.5990   47.3230 C   0  0  0  0  0  0  0  0  0  0  0  0
   62.3030   31.3360   47.7420 C   0  0  0  0  0  0  0  0  0  0  0  0
   60.7530   31.3570   47.5830 C   0  0  1  0  0  0  0  0  0  0  0  0
   60.0860   31.7910   48.8990 C   0  0  0  0  0  0  0  0  0  0  0  0
   59.5420   30.8660   49.8170 C   0  0  0  0  0  0  0  0  0  0  0  0
   58.9010   31.3070   50.9800 C   0  0  0  0  0  0  0  0  0  0  0  0
   58.7760   32.6730   51.2380 C   0  0  0  0  0  0  0  0  0  0  0  0
   58.1520   33.0960   52.3650 F   0  0  0  0  0  0  0  0  0  0  0  0
   59.2820   33.6010   50.3290 C   0  0  0  0  0  0  0  0  0  0  0  0
   59.9230   33.1680   49.1650 C   0  0  0  0  0  0  0  0  0  0  0  0
   60.3280   32.2040   46.3470 C   0  0  0  0  0  0  0  0  0  0  0  0
   58.8220   32.0730   46.0570 C   0  0  0  0  0  0  0  0  0  0  0  0
   58.3780   30.6360   46.0530 C   0  0  0  0  0  0  0  0  0  0  0  0
   57.1620   30.2740   45.4540 C   0  0  0  0  0  0  0  0  0  0  0  0
   56.7420   28.9390   45.4670 C   0  0  0  0  0  0  0  0  0  0  0  0
   55.5410   28.5820   44.8670 O   0  0  0  0  0  0  0  0  0  0  0  0
   57.5310   27.9630   46.0860 C   0  0  0  0  0  0  0  0  0  0  0  0
   58.7360   28.3210   46.6980 C   0  0  0  0  0  0  0  0  0  0  0  0
   59.1550   29.6560   46.6940 C   0  0  0  0  0  0  0  0  0  0  0  0
   60.3630   30.0010   47.3120 O   0  0  0  0  0  0  0  0  0  0  0  0
   63.2848   33.2478   51.5971 H   0  0  0  0  0  0  0  0  0  0  0  0
   61.9009   33.5706   50.4983 H   0  0  0  0  0  0  0  0  0  0  0  0
   62.6904   31.9571   50.4983 H   0  0  0  0  0  0  0  0  0  0  0  0
   65.1865   32.1015   50.3205 H   0  0  0  0  0  0  0  0  0  0  0  0
   64.3909   31.6269   48.7815 H   0  0  0  0  0  0  0  0  0  0  0  0
   65.6611   32.8971   48.7815 H   0  0  0  0  0  0  0  0  0  0  0  0
   62.0053   33.9933   48.5603 H   0  0  0  0  0  0  0  0  0  0  0  0
   63.5389   34.6392   47.8253 H   0  0  0  0  0  0  0  0  0  0  0  0
   62.6907   32.9491   46.3626 H   0  0  0  0  0  0  0  0  0  0  0  0
   64.1507   32.2864   47.2778 H   0  0  0  0  0  0  0  0  0  0  0  0
   62.6818   30.4973   47.1394 H   0  0  0  0  0  0  0  0  0  0  0  0
   62.4657   31.2581   48.8271 H   0  0  0  0  0  0  0  0  0  0  0  0
   59.6230   29.7876   49.6157 H   0  0  0  0  0  0  0  0  0  0  0  0
   58.4943   30.5749   51.6932 H   0  0  0  0  0  0  0  0  0  0  0  0
   59.1764   34.6776   50.5286 H   0  0  0  0  0  0  0  0  0  0  0  0
   60.3051   33.9090   48.4474 H   0  0  0  0  0  0  0  0  0  0  0  0
   60.5629   33.2609   46.5414 H   0  0  0  0  0  0  0  0  0  0  0  0
   60.8793   31.8321   45.4708 H   0  0  0  0  0  0  0  0  0  0  0  0
   58.2614   32.6169   46.8315 H   0  0  0  0  0  0  0  0  0  0  0  0
   58.6275   32.4942   45.0596 H   0  0  0  0  0  0  0  0  0  0  0  0
   56.5373   31.0412   44.9731 H   0  0  0  0  0  0  0  0  0  0  0  0
   57.2028   26.9131   46.0911 H   0  0  0  0  0  0  0  0  0  0  0  0
   59.3554   27.5523   47.1832 H   0  0  0  0  0  0  0  0  0  0  0  0
  1  2  1  0
  2  3  1  0
  2  4  1  0
  4  5  1  0
  5  6  1  0
  7  6  1  1
  7  8  1  0
  8  9  2  0
  9 10  1  0
 10 11  2  0
 11 12  1  0
 11 13  1  0
 13 14  2  0
  7 15  1  0
 15 16  1  0
 16 17  1  0
 17 18  2  0
 18 19  1  0
 19 20  1  0
 19 21  2  0
 21 22  1  0
 22 23  2  0
 23 24  1  0
 24  7  1  0
 14  8  1  0
 23 17  1  0
  1 25  1  0
  1 26  1  0
  1 27  1  0
  3 28  1  0
  3 29  1  0
  3 30  1  0
  4 31  1  0
  4 32  1  0
  5 33  1  0
  5 34  1  0
  6 35  1  0
  6 36  1  0
  9 37  1  0
 10 38  1  0
 13 39  1  0
 14 40  1  0
 15 41  1  0
 15 42  1  0
 16 43  1  0
 16 44  1  0
 18 45  1  0
 21 46  1  0
 22 47  1  0
M  CHG  1  20  -1
M  END
>  <UniqueID>  (44) 
40

>  <SMILES>  (44) 
CN(C)CCC[C@@]1(c2ccc(F)cc2)CCc2cc([O-])ccc2O1

>  <Energy>  (44) 
54.29768529161406

>  <Genealogy>  (44) 
CN(C)CCCC1(c2ccc(F)cc2)CCc2cc([O-])ccc2O1 (protonated)
CN(C)CCC[C@@]1(c2ccc(F)cc2)CCc2cc([O-])ccc2O1 (chirality)
CN(C)CCC[C@@]1(c2ccc(F)cc2)CCc2cc([O-])ccc2O1 (3D coordinates assigned)
CN(C)CCC[C@@]1(c2ccc(F)cc2)CCc2cc([O-])ccc2O1 (nonaromatic ring conformer: 54.29768529161406 kcal/mol)

>  <smiles>  (44) 
CN(C)CCCC1(c2ccc(F)cc2)CCc2cc(O)ccc2O1

>  <score_type>  (44) 
oracle

>  <origin>  (44) 
adg

>  <m_score__min__energy>  (44) 
-9.6699999999999999

>  <m_primary>  (44) 
energy

$$$$
44:0
     RDKit          3D

 36 38  0  0  0  0  0  0  0  0999 V2000
   59.3640   32.6540   47.9660 C   0  0  0  0  0  0  0  0  0  0  0  0
   58.7760   32.4260   46.6020 C   0  0  0  0  0  0  0  0  0  0  0  0
   58.1620   31.1980   46.3010 C   0  0  0  0  0  0  0  0  0  0  0  0
   57.5910   30.9690   45.0380 C   0  0  0  0  0  0  0  0  0  0  0  0
   56.9380   29.6710   44.7450 C   0  0  0  0  0  0  0  0  0  0  0  0
   56.6080   29.4000   43.5590 O   0  0  0  0  0  0  0  0  0  0  0  0
   56.6460   28.7140   45.7740 N   0  0  0  0  0  0  0  0  0  0  0  0
   57.0870   27.3470   45.8040 C   0  0  0  0  0  0  0  0  0  0  0  0
   58.4520   27.0040   45.6870 C   0  0  0  0  0  0  0  0  0  0  0  0
   59.4360   28.0330   45.4290 C   0  0  0  0  0  0  0  0  0  0  0  0
   60.2230   28.8560   45.2220 N   0  0  0  0  0  0  0  0  0  0  0  0
   58.8320   25.6870   45.7540 N   0  0  0  0  0  0  0  0  0  0  0  0
   60.1660   25.3280   45.6650 O   0  0  0  0  0  0  0  0  0  0  0  0
   57.8930   24.7030   45.9060 C   0  0  0  0  0  0  0  0  0  0  0  0
   58.2670   23.3450   45.9800 C   0  0  0  0  0  0  0  0  0  0  0  0
   57.2980   22.3490   46.1250 C   0  0  0  0  0  0  0  0  0  0  0  0
   57.7780   20.6650   46.2140 Cl  0  0  0  0  0  0  0  0  0  0  0  0
   55.9470   22.6930   46.1960 C   0  0  0  0  0  0  0  0  0  0  0  0
   55.5580   24.0310   46.1260 C   0  0  0  0  0  0  0  0  0  0  0  0
   56.5220   25.0470   45.9820 C   0  0  0  0  0  0  0  0  0  0  0  0
   56.1560   26.3610   45.9190 N   0  0  0  0  0  0  0  0  0  0  0  0
   54.8250   26.7130   46.0010 O   0  0  0  0  0  0  0  0  0  0  0  0
   57.6690   31.9750   44.0610 C   0  0  0  0  0  0  0  0  0  0  0  0
   58.2780   33.1970   44.3520 C   0  0  0  0  0  0  0  0  0  0  0  0
   58.8270   33.4320   45.6160 C   0  0  0  0  0  0  0  0  0  0  0  0
   59.6460   35.1340   45.9490 Br  0  0  0  0  0  0  0  0  0  0  0  0
   58.6298   32.3693   48.7340 H   0  0  0  0  0  0  0  0  0  0  0  0
   60.2710   32.0424   48.0812 H   0  0  0  0  0  0  0  0  0  0  0  0
   59.6216   33.7172   48.0812 H   0  0  0  0  0  0  0  0  0  0  0  0
   58.1281   30.4063   47.0639 H   0  0  0  0  0  0  0  0  0  0  0  0
   60.9230   26.0000   45.6870 H   0  0  0  0  0  0  0  0  0  0  0  0
   59.3300   23.0679   45.9231 H   0  0  0  0  0  0  0  0  0  0  0  0
   55.1863   21.9063   46.3075 H   0  0  0  0  0  0  0  0  0  0  0  0
   54.4914   24.2938   46.1837 H   0  0  0  0  0  0  0  0  0  0  0  0
   57.2476   31.7989   43.0603 H   0  0  0  0  0  0  0  0  0  0  0  0
   58.3262   33.9804   43.5813 H   0  0  0  0  0  0  0  0  0  0  0  0
  1  2  1  0
  2  3  2  0
  3  4  1  0
  4  5  1  0
  5  6  2  0
  5  7  1  0
  7  8  1  0
  8  9  2  0
  9 10  1  0
 10 11  3  0
  9 12  1  0
 12 13  1  0
 12 14  2  0
 14 15  1  0
 15 16  2  0
 16 17  1  0
 16 18  1  0
 18 19  2  0
 19 20  1  0
 20 21  2  0
 21 22  1  0
  4 23  2  0
 23 24  1  0
 24 25  2  0
 25 26  1  0
 25  2  1  0
 21  8  1  0
 20 14  1  0
  1 27  1  0
  1 28  1  0
  1 29  1  0
  3 30  1  0
 13 31  1  0
 15 32  1  0
 18 33  1  0
 19 34  1  0
 23 35  1  0
 24 36  1  0
M  CHG  4   7  -1  12   1  21   1  22  -1
M  END
>  <UniqueID>  (45) 
41

>  <SMILES>  (45) 
Cc1cc(C(=O)[N-]c2c(C#N)[n+](O)c3cc(Cl)ccc3[n+]2[O-])ccc1Br

>  <Energy>  (45) 
56.886170879908526

>  <Genealogy>  (45) 
Cc1cc(C(=O)[N-]c2c(C#N)[n+](O)c3cc(Cl)ccc3[n+]2[O-])ccc1Br (protonated)
Cc1cc(C(=O)[N-]c2c(C#N)[n+](O)c3cc(Cl)ccc3[n+]2[O-])ccc1Br (3D coordinates assigned)
Cc1cc(C(=O)[N-]c2c(C#N)[n+](O)c3cc(Cl)ccc3[n+]2[O-])ccc1Br (optimized conformer: 56.886170879908526 kcal/mol)

>  <smiles>  (45) 
Cc1cc(C(=O)Nc2c(C#N)[n+]([O-])c3cc(Cl)ccc3[n+]2[O-])ccc1Br

>  <score_type>  (45) 
oracle

>  <origin>  (45) 
adg

>  <m_score__min__energy>  (45) 
-9.8100000000000005

>  <m_primary>  (45) 
energy

$$$$
45:0
     RDKit          3D

 30 32  0  0  0  0  0  0  0  0999 V2000
   57.7250   32.3510   42.3070 O   0  0  0  0  0  0  0  0  0  0  0  0
   57.8000   31.7620   43.4040 C   0  0  0  0  0  0  0  0  0  0  0  0
   57.7620   30.4130   43.4620 N   0  0  0  0  0  0  0  0  0  0  0  0
   57.8380   29.7250   44.6140 C   0  0  0  0  0  0  0  0  0  0  0  0
   57.7980   28.3220   44.6840 N   0  0  0  0  0  0  0  0  0  0  0  0
   58.5800   27.4730   43.7720 C   0  0  0  0  0  0  0  0  0  0  0  0
   57.7700   26.1770   43.6630 C   0  0  0  0  0  0  0  0  0  0  0  0
   57.9250   25.5040   44.8640 O   0  0  0  0  0  0  0  0  0  0  0  0
   57.6700   26.2900   45.9740 C   0  0  0  0  0  0  0  0  0  0  0  0
   56.9850   27.5980   45.6560 C   0  0  0  0  0  0  0  0  0  0  0  0
   57.9570   30.4140   45.7570 N   0  0  0  0  0  0  0  0  0  0  0  0
   58.0010   31.7590   45.7610 C   0  0  0  0  0  0  0  0  0  0  0  0
   58.1250   32.4950   46.9280 C   0  0  0  0  0  0  0  0  0  0  0  0
   58.1640   33.8740   46.8800 C   0  0  0  0  0  0  0  0  0  0  0  0
   58.0850   34.5790   45.6810 C   0  0  0  0  0  0  0  0  0  0  0  0
   57.9610   33.8280   44.5150 C   0  0  0  0  0  0  0  0  0  0  0  0
   57.9230   32.4690   44.5800 C   0  0  0  0  0  0  0  0  0  0  0  0
   57.6680   29.9130   42.5620 H   0  0  0  0  0  0  0  0  0  0  0  0
   58.6818   27.9517   42.7868 H   0  0  0  0  0  0  0  0  0  0  0  0
   59.6022   27.2972   44.1383 H   0  0  0  0  0  0  0  0  0  0  0  0
   56.7080   26.4077   43.4929 H   0  0  0  0  0  0  0  0  0  0  0  0
   58.1198   25.5635   42.8196 H   0  0  0  0  0  0  0  0  0  0  0  0
   57.0265   25.7205   46.6607 H   0  0  0  0  0  0  0  0  0  0  0  0
   58.6450   26.5408   46.4173 H   0  0  0  0  0  0  0  0  0  0  0  0
   55.9885   27.4019   45.2336 H   0  0  0  0  0  0  0  0  0  0  0  0
   56.8708   28.1962   46.5720 H   0  0  0  0  0  0  0  0  0  0  0  0
   58.1927   31.9785   47.8968 H   0  0  0  0  0  0  0  0  0  0  0  0
   58.2608   34.4356   47.8209 H   0  0  0  0  0  0  0  0  0  0  0  0
   58.1190   35.6782   45.6565 H   0  0  0  0  0  0  0  0  0  0  0  0
   57.8937   34.3336   43.5404 H   0  0  0  0  0  0  0  0  0  0  0  0
  1  2  2  0
  2  3  1  0
  3  4  1  0
  4  5  1  0
  5  6  1  0
  6  7  1  0
  7  8  1  0
  8  9  1  0
  9 10  1  0
  4 11  2  0
 11 12  1  0
 12 13  2  0
 13 14  1  0
 14 15  2  0
 15 16  1  0
 16 17  2  0
 17  2  1  0
 10  5  1  0
 17 12  1  0
  3 18  1  0
  6 19  1  0
  6 20  1  0
  7 21  1  0
  7 22  1  0
  9 23  1  0
  9 24  1  0
 10 25  1  0
 10 26  1  0
 13 27  1  0
 14 28  1  0
 15 29  1  0
 16 30  1  0
M  END
>  <smiles>  (46) 
O=c1[nH]c(N2CCOCC2)nc2ccccc12

>  <score_type>  (46) 
oracle

>  <origin>  (46) 
adg

>  <m_score__min__energy>  (46) 
-5.9699999999999998

>  <m_primary>  (46) 
energy

$$$$
46:0
     RDKit          3D

 31 33  0  0  0  0  0  0  0  0999 V2000
   56.0630   25.4520   46.6110 O   0  0  0  0  0  0  0  0  0  0  0  0
   56.5750   26.5720   46.3550 C   0  0  0  0  0  0  0  0  0  0  0  0
   57.8420   26.8950   46.8550 C   0  0  0  0  0  0  0  0  0  0  0  0
   58.3990   28.1420   46.5620 C   0  0  0  0  0  0  0  0  0  0  0  0
   57.6870   29.0550   45.7740 C   0  0  0  0  0  0  0  0  0  0  0  0
   58.2170   30.3150   45.4620 C   0  0  0  0  0  0  0  0  0  0  0  0
   57.4790   31.2140   44.6770 C   0  0  0  0  0  0  0  0  0  0  0  0
   58.1390   32.8030   44.3030 S   0  0  0  0  0  0  0  0  0  0  0  0
   57.1320   33.8780   44.6040 O   0  0  0  0  0  0  0  0  0  0  0  0
   58.4880   32.8520   42.8430 O   0  0  0  0  0  0  0  0  0  0  0  0
   59.5710   33.0910   45.2380 N   0  0  0  0  0  0  0  0  0  0  0  0
   59.6020   33.3180   46.6540 C   0  0  0  0  0  0  0  0  0  0  0  0
   60.3150   34.3900   47.2260 C   0  0  0  0  0  0  0  0  0  0  0  0
   60.3080   34.5780   48.6110 C   0  0  0  0  0  0  0  0  0  0  0  0
   59.5970   33.7030   49.4350 C   0  0  0  0  0  0  0  0  0  0  0  0
   58.8890   32.6350   48.8740 C   0  0  0  0  0  0  0  0  0  0  0  0
   58.1990   31.7860   49.6740 F   0  0  0  0  0  0  0  0  0  0  0  0
   58.8930   32.4450   47.4890 C   0  0  0  0  0  0  0  0  0  0  0  0
   56.2160   30.8430   44.1940 C   0  0  0  0  0  0  0  0  0  0  0  0
   55.6840   29.5860   44.5010 C   0  0  0  0  0  0  0  0  0  0  0  0
   56.4120   28.6900   45.2900 C   0  0  0  0  0  0  0  0  0  0  0  0
   55.8950   27.4680   45.5900 N   0  0  0  0  0  0  0  0  0  0  0  0
   58.3945   26.1726   47.4737 H   0  0  0  0  0  0  0  0  0  0  0  0
   59.3942   28.4062   46.9491 H   0  0  0  0  0  0  0  0  0  0  0  0
   59.2127   30.5992   45.8331 H   0  0  0  0  0  0  0  0  0  0  0  0
   60.8784   35.0805   46.5813 H   0  0  0  0  0  0  0  0  0  0  0  0
   60.8642   35.4177   49.0532 H   0  0  0  0  0  0  0  0  0  0  0  0
   59.5937   33.8535   50.5246 H   0  0  0  0  0  0  0  0  0  0  0  0
   58.3353   31.6037   47.0517 H   0  0  0  0  0  0  0  0  0  0  0  0
   55.6408   31.5435   43.5708 H   0  0  0  0  0  0  0  0  0  0  0  0
   54.6915   29.3021   44.1211 H   0  0  0  0  0  0  0  0  0  0  0  0
  1  2  2  0
  2  3  1  0
  3  4  2  0
  4  5  1  0
  5  6  2  0
  6  7  1  0
  7  8  1  0
  8  9  2  0
  8 10  2  0
  8 11  1  0
 11 12  1  0
 12 13  2  0
 13 14  1  0
 14 15  2  0
 15 16  1  0
 16 17  1  0
 16 18  2  0
  7 19  2  0
 19 20  1  0
 20 21  2  0
 21 22  1  0
 22  2  1  0
 21  5  1  0
 18 12  1  0
  3 23  1  0
  4 24  1  0
  6 25  1  0
 13 26  1  0
 14 27  1  0
 15 28  1  0
 18 29  1  0
 19 30  1  0
 20 31  1  0
M  CHG  2  11  -1  22  -1
M  END
>  <UniqueID>  (47) 
42

>  <SMILES>  (47) 
O=c1ccc2cc(S(=O)(=O)[N-]c3cccc(F)c3)ccc2[n-]1

>  <Energy>  (47) 
40.19849531955962

>  <Genealogy>  (47) 
O=c1ccc2cc(S(=O)(=O)[N-]c3cccc(F)c3)ccc2[n-]1 (protonated)
O=c1ccc2cc(S(=O)(=O)[N-]c3cccc(F)c3)ccc2[n-]1 (3D coordinates assigned)
O=c1ccc2cc(S(=O)(=O)[N-]c3cccc(F)c3)ccc2[n-]1 (optimized conformer: 40.19849531955962 kcal/mol)

>  <smiles>  (47) 
O=c1ccc2cc(S(=O)(=O)Nc3cccc(F)c3)ccc2[nH]1

>  <score_type>  (47) 
oracle

>  <origin>  (47) 
adg

>  <m_score__min__energy>  (47) 
-10.16

>  <m_primary>  (47) 
energy

$$$$
47:0
     RDKit          3D

 41 43  0  0  0  0  0  0  0  0999 V2000
   57.9730   26.4210   45.5560 O   0  0  0  0  0  0  0  0  0  0  0  0
   56.7250   26.5680   45.6310 C   0  0  0  0  0  0  0  0  0  0  0  0
   55.8720   25.3950   46.0160 C   0  0  0  0  0  0  0  0  0  0  0  0
   56.8980   24.1350   46.8530 S   0  0  0  0  0  0  0  0  0  0  0  0
   57.0870   23.1010   45.4010 C   0  0  0  0  0  0  0  0  0  0  0  0
   56.4960   23.4680   44.1920 C   0  0  0  0  0  0  0  0  0  0  0  0
   56.6380   22.6330   43.0870 C   0  0  0  0  0  0  0  0  0  0  0  0
   57.3790   21.4590   43.2150 C   0  0  0  0  0  0  0  0  0  0  0  0
   57.9470   21.1510   44.4120 N   0  0  0  0  0  0  0  0  0  0  0  0
   57.8040   21.9490   45.4730 N   0  0  0  0  0  0  0  0  0  0  0  0
   56.1530   27.8290   45.2520 N   0  0  0  0  0  0  0  0  0  0  0  0
   56.8100   29.0980   45.3390 C   0  0  0  0  0  0  0  0  0  0  0  0
   56.4580   30.1580   44.4960 C   0  0  0  0  0  0  0  0  0  0  0  0
   57.1250   31.3820   44.5810 C   0  0  0  0  0  0  0  0  0  0  0  0
   58.1560   31.5870   45.5280 C   0  0  0  0  0  0  0  0  0  0  0  0
   58.8880   32.8500   45.5890 N   0  0  0  0  0  0  0  0  0  0  0  0
   58.3560   34.0290   44.8730 C   0  0  0  0  0  0  0  0  0  0  0  0
   59.2820   35.2440   44.9300 C   0  0  0  0  0  0  0  0  0  0  0  0
   59.8710   35.3660   46.2020 O   0  0  0  0  0  0  0  0  0  0  0  0
   60.7900   34.3120   46.3660 C   0  0  0  0  0  0  0  0  0  0  0  0
   60.0730   32.9610   46.4650 C   0  0  0  0  0  0  0  0  0  0  0  0
   58.4490   30.5240   46.4160 C   0  0  0  0  0  0  0  0  0  0  0  0
   57.7780   29.3010   46.3230 C   0  0  0  0  0  0  0  0  0  0  0  0
   55.0760   25.7298   46.6974 H   0  0  0  0  0  0  0  0  0  0  0  0
   55.4244   24.9578   45.1113 H   0  0  0  0  0  0  0  0  0  0  0  0
   55.9252   24.4049   44.1126 H   0  0  0  0  0  0  0  0  0  0  0  0
   56.1719   22.8960   42.1260 H   0  0  0  0  0  0  0  0  0  0  0  0
   57.5035   20.7862   42.3537 H   0  0  0  0  0  0  0  0  0  0  0  0
   58.5040   20.2720   44.5060 H   0  0  0  0  0  0  0  0  0  0  0  0
   55.6502   30.0262   43.7611 H   0  0  0  0  0  0  0  0  0  0  0  0
   56.8443   32.1997   43.9009 H   0  0  0  0  0  0  0  0  0  0  0  0
   58.2031   33.7565   43.8183 H   0  0  0  0  0  0  0  0  0  0  0  0
   57.4167   34.3135   45.3698 H   0  0  0  0  0  0  0  0  0  0  0  0
   60.0742   35.1290   44.1756 H   0  0  0  0  0  0  0  0  0  0  0  0
   58.6888   36.1482   44.7287 H   0  0  0  0  0  0  0  0  0  0  0  0
   61.4723   34.2936   45.5034 H   0  0  0  0  0  0  0  0  0  0  0  0
   61.3482   34.4790   47.2990 H   0  0  0  0  0  0  0  0  0  0  0  0
   60.7847   32.1694   46.1879 H   0  0  0  0  0  0  0  0  0  0  0  0
   59.7165   32.8622   47.5009 H   0  0  0  0  0  0  0  0  0  0  0  0
   59.2168   30.6625   47.1914 H   0  0  0  0  0  0  0  0  0  0  0  0
   58.0150   28.4930   47.0308 H   0  0  0  0  0  0  0  0  0  0  0  0
  1  2  2  0
  2  3  1  0
  3  4  1  0
  4  5  1  0
  5  6  2  0
  6  7  1  0
  7  8  2  0
  8  9  1  0
  9 10  2  0
  2 11  1  0
 11 12  1  0
 12 13  2  0
 13 14  1  0
 14 15  2  0
 15 16  1  0
 16 17  1  0
 17 18  1  0
 18 19  1  0
 19 20  1  0
 20 21  1  0
 15 22  1  0
 22 23  2  0
 10  5  1  0
 23 12  1  0
 21 16  1  0
  3 24  1  0
  3 25  1  0
  6 26  1  0
  7 27  1  0
  8 28  1  0
  9 29  1  0
 13 30  1  0
 14 31  1  0
 17 32  1  0
 17 33  1  0
 18 34  1  0
 18 35  1  0
 20 36  1  0
 20 37  1  0
 21 38  1  0
 21 39  1  0
 22 40  1  0
 23 41  1  0
M  CHG  2   9   1  11  -1
M  END
>  <UniqueID>  (48) 
43

>  <SMILES>  (48) 
O=C(CSc1ccc[nH+]n1)[N-]c1ccc(N2CCOCC2)cc1

>  <Energy>  (48) 
49.9206895815939

>  <Genealogy>  (48) 
O=C(CSc1ccc[nH+]n1)[N-]c1ccc(N2CCOCC2)cc1 (protonated)
O=C(CSc1ccc[nH+]n1)[N-]c1ccc(N2CCOCC2)cc1 (3D coordinates assigned)
O=C(CSc1ccc[nH+]n1)[N-]c1ccc(N2CCOCC2)cc1 (nonaromatic ring conformer: 49.9206895815939 kcal/mol)

>  <smiles>  (48) 
O=C(CSc1cccnn1)Nc1ccc(N2CCOCC2)cc1

>  <score_type>  (48) 
oracle

>  <origin>  (48) 
adg

>  <m_score__min__energy>  (48) 
-9.3599999999999994

>  <m_primary>  (48) 
energy

$$$$
48:0
     RDKit          3D

 39 41  0  0  0  0  0  0  0  0999 V2000
   60.0590   28.3400   48.7810 C   0  0  0  0  0  0  0  0  0  0  0  0
   60.7030   27.2260   47.9610 C   0  0  0  0  0  0  0  0  0  0  0  0
   60.6440   27.5350   46.4610 C   0  0  0  0  0  0  0  0  0  0  0  0
   59.2830   27.9380   46.0790 N   0  0  0  0  0  0  0  0  0  0  0  0
   59.0610   29.2000   45.5870 C   0  0  0  0  0  0  0  0  0  0  0  0
   57.7720   29.6100   45.1790 C   0  0  0  0  0  0  0  0  0  0  0  0
   57.5150   31.2490   44.5770 S   0  0  0  0  0  0  0  0  0  0  0  0
   58.0880   31.3990   43.1950 O   0  0  0  0  0  0  0  0  0  0  0  0
   56.0400   31.5310   44.5030 O   0  0  0  0  0  0  0  0  0  0  0  0
   58.3070   32.3870   45.6590 C   0  0  0  0  0  0  0  0  0  0  0  0
   58.5290   32.0560   47.0050 C   0  0  0  0  0  0  0  0  0  0  0  0
   59.1760   32.9610   47.8520 C   0  0  0  0  0  0  0  0  0  0  0  0
   59.6070   34.1960   47.3590 C   0  0  0  0  0  0  0  0  0  0  0  0
   59.3930   34.5270   46.0190 C   0  0  0  0  0  0  0  0  0  0  0  0
   58.7470   33.6240   45.1690 C   0  0  0  0  0  0  0  0  0  0  0  0
   56.6990   28.7060   45.2820 C   0  0  0  0  0  0  0  0  0  0  0  0
   55.5290   29.0320   44.9410 O   0  0  0  0  0  0  0  0  0  0  0  0
   56.9630   27.4340   45.7730 C   0  0  0  0  0  0  0  0  0  0  0  0
   55.9150   26.1380   45.9850 S   0  0  0  0  0  0  0  0  0  0  0  0
   57.1510   25.1480   46.5820 C   0  0  0  0  0  0  0  0  0  0  0  0
   56.9760   23.7150   46.9520 C   0  0  0  0  0  0  0  0  0  0  0  0
   58.3500   25.7780   46.6040 N   0  0  0  0  0  0  0  0  0  0  0  0
   58.2370   27.0590   46.1590 C   0  0  0  0  0  0  0  0  0  0  0  0
   60.1832   28.1252   49.8526 H   0  0  0  0  0  0  0  0  0  0  0  0
   60.5423   29.2985   48.5408 H   0  0  0  0  0  0  0  0  0  0  0  0
   58.9872   28.3995   48.5408 H   0  0  0  0  0  0  0  0  0  0  0  0
   61.7551   27.1200   48.2641 H   0  0  0  0  0  0  0  0  0  0  0  0
   60.1495   26.2936   48.1460 H   0  0  0  0  0  0  0  0  0  0  0  0
   61.3431   28.3524   46.2306 H   0  0  0  0  0  0  0  0  0  0  0  0
   60.9227   26.6324   45.8973 H   0  0  0  0  0  0  0  0  0  0  0  0
   59.9019   29.9049   45.5090 H   0  0  0  0  0  0  0  0  0  0  0  0
   58.1935   31.0833   47.3939 H   0  0  0  0  0  0  0  0  0  0  0  0
   59.3460   32.7009   48.9072 H   0  0  0  0  0  0  0  0  0  0  0  0
   60.1149   34.9075   48.0267 H   0  0  0  0  0  0  0  0  0  0  0  0
   59.7330   35.4989   45.6320 H   0  0  0  0  0  0  0  0  0  0  0  0
   58.5838   33.8853   44.1130 H   0  0  0  0  0  0  0  0  0  0  0  0
   56.9642   23.6180   48.0477 H   0  0  0  0  0  0  0  0  0  0  0  0
   56.0258   23.3435   46.5407 H   0  0  0  0  0  0  0  0  0  0  0  0
   57.8089   23.1258   46.5407 H   0  0  0  0  0  0  0  0  0  0  0  0
  1  2  1  0
  2  3  1  0
  3  4  1  0
  4  5  1  0
  5  6  2  0
  6  7  1  0
  7  8  2  0
  7  9  2  0
  7 10  1  0
 10 11  2  0
 11 12  1  0
 12 13  2  0
 13 14  1  0
 14 15  2  0
  6 16  1  0
 16 17  2  0
 16 18  1  0
 18 19  1  0
 19 20  1  0
 20 21  1  0
 20 22  2  0
 22 23  1  0
 23  4  1  0
 15 10  1  0
 23 18  2  0
  1 24  1  0
  1 25  1  0
  1 26  1  0
  2 27  1  0
  2 28  1  0
  3 29  1  0
  3 30  1  0
  5 31  1  0
 11 32  1  0
 12 33  1  0
 13 34  1  0
 14 35  1  0
 15 36  1  0
 21 37  1  0
 21 38  1  0
 21 39  1  0
M  END
>  <UniqueID>  (49) 
44

>  <SMILES>  (49) 
CCCn1cc(S(=O)(=O)c2ccccc2)c(=O)c2sc(C)nc21

>  <Energy>  (49) 
73.4184411097668

>  <Genealogy>  (49) 
CCCn1cc(S(=O)(=O)c2ccccc2)c(=O)c2sc(C)nc21 (3D coordinates assigned)
CCCn1cc(S(=O)(=O)c2ccccc2)c(=O)c2sc(C)nc21 (optimized conformer: 73.4184411097668 kcal/mol)

>  <smiles>  (49) 
CCCn1cc(S(=O)(=O)c2ccccc2)c(=O)c2sc(C)nc21

>  <score_type>  (49) 
oracle

>  <origin>  (49) 
adg

>  <m_score__min__energy>  (49) 
-7.8499999999999996

>  <m_primary>  (49) 
energy

$$$$
49:0
     RDKit          3D

 35 36  0  0  0  0  0  0  0  0999 V2000
   59.9280   28.5420   47.9810 C   0  0  0  0  0  0  0  0  0  0  0  0
   59.0170   29.5110   47.5160 O   0  0  0  0  0  0  0  0  0  0  0  0
   59.3240   29.8450   46.1800 C   0  0  0  0  0  0  0  0  0  0  0  0
   58.0390   29.9700   45.3860 C   0  0  0  0  0  0  0  0  0  0  0  0
   57.3610   28.8210   44.8950 C   0  0  0  0  0  0  0  0  0  0  0  0
   57.9390   27.4280   44.9510 C   0  0  0  0  0  0  0  0  0  0  0  0
   56.9960   26.3980   46.0650 S   0  0  0  0  0  0  0  0  0  0  0  0
   57.1550   24.6840   45.6110 C   0  0  0  0  0  0  0  0  0  0  0  0
   55.5470   26.7900   45.9860 O   0  0  0  0  0  0  0  0  0  0  0  0
   57.4790   26.5810   47.4760 O   0  0  0  0  0  0  0  0  0  0  0  0
   56.1530   28.9670   44.2890 N   0  0  0  0  0  0  0  0  0  0  0  0
   55.5780   30.1820   44.1280 C   0  0  0  0  0  0  0  0  0  0  0  0
   56.2260   31.2970   44.5360 N   0  0  0  0  0  0  0  0  0  0  0  0
   57.4430   31.2350   45.1370 C   0  0  0  0  0  0  0  0  0  0  0  0
   58.0960   32.5140   45.4920 C   0  0  0  0  0  0  0  0  0  0  0  0
   58.3670   32.8410   46.8300 C   0  0  0  0  0  0  0  0  0  0  0  0
   59.0120   34.0400   47.1380 C   0  0  0  0  0  0  0  0  0  0  0  0
   59.3960   34.8950   46.1030 C   0  0  0  0  0  0  0  0  0  0  0  0
   59.1470   34.5550   44.8100 N   0  0  0  0  0  0  0  0  0  0  0  0
   58.5190   33.3930   44.4850 C   0  0  0  0  0  0  0  0  0  0  0  0
   59.9306   28.5392   49.0810 H   0  0  0  0  0  0  0  0  0  0  0  0
   59.6279   27.5499   47.6125 H   0  0  0  0  0  0  0  0  0  0  0  0
   60.9367   28.7803   47.6125 H   0  0  0  0  0  0  0  0  0  0  0  0
   59.8653   30.8023   46.1558 H   0  0  0  0  0  0  0  0  0  0  0  0
   59.9540   29.0583   45.7393 H   0  0  0  0  0  0  0  0  0  0  0  0
   57.9156   26.9865   43.9438 H   0  0  0  0  0  0  0  0  0  0  0  0
   58.9746   27.4891   45.3167 H   0  0  0  0  0  0  0  0  0  0  0  0
   57.2122   24.0676   46.5203 H   0  0  0  0  0  0  0  0  0  0  0  0
   56.2812   24.3797   45.0161 H   0  0  0  0  0  0  0  0  0  0  0  0
   58.0698   24.5456   45.0161 H   0  0  0  0  0  0  0  0  0  0  0  0
   54.5834   30.2625   43.6652 H   0  0  0  0  0  0  0  0  0  0  0  0
   58.0712   32.1527   47.6354 H   0  0  0  0  0  0  0  0  0  0  0  0
   59.2156   34.3085   48.1851 H   0  0  0  0  0  0  0  0  0  0  0  0
   59.9006   35.8448   46.3338 H   0  0  0  0  0  0  0  0  0  0  0  0
   58.3425   33.1421   43.4286 H   0  0  0  0  0  0  0  0  0  0  0  0
  1  2  1  0
  2  3  1  0
  3  4  1  0
  4  5  2  0
  5  6  1  0
  6  7  1  0
  7  8  1  0
  7  9  2  0
  7 10  2  0
  5 11  1  0
 11 12  2  0
 12 13  1  0
 13 14  2  0
 14 15  1  0
 15 16  2  0
 16 17  1  0
 17 18  2  0
 18 19  1  0
 19 20  2  0
 14  4  1  0
 20 15  1  0
  1 21  1  0
  1 22  1  0
  1 23  1  0
  3 24  1  0
  3 25  1  0
  6 26  1  0
  6 27  1  0
  8 28  1  0
  8 29  1  0
  8 30  1  0
 12 31  1  0
 16 32  1  0
 17 33  1  0
 18 34  1  0
 20 35  1  0
M  END
>  <UniqueID>  (50) 
45

>  <SMILES>  (50) 
COCc1c(CS(C)(=O)=O)ncnc1-c1cccnc1

>  <Energy>  (50) 
39.58010711072929

>  <Genealogy>  (50) 
COCc1c(CS(C)(=O)=O)ncnc1-c1cccnc1 (3D coordinates assigned)
COCc1c(CS(C)(=O)=O)ncnc1-c1cccnc1 (optimized conformer: 39.58010711072929 kcal/mol)

>  <smiles>  (50) 
COCc1c(CS(C)(=O)=O)ncnc1-c1cccnc1

>  <score_type>  (50) 
oracle

>  <origin>  (50) 
adg

>  <m_score__min__energy>  (50) 
-6.8799999999999999

>  <m_primary>  (50) 
energy

$$$$
50:0
     RDKit          3D

 16 16  0  0  0  0  0  0  0  0999 V2000
   54.0920   28.9350   52.0440 N   0  0  0  0  0  0  0  0  0  0  0  0
   53.1100   29.9740   52.0200 C   0  0  0  0  0  0  0  0  0  0  0  0
   52.6960   30.5790   53.2120 C   0  0  0  0  0  0  0  0  0  0  0  0
   51.7370   31.5930   53.1880 C   0  0  0  0  0  0  0  0  0  0  0  0
   51.1820   32.0140   51.9750 C   0  0  0  0  0  0  0  0  0  0  0  0
   50.2300   33.0280   51.9960 O   0  0  0  0  0  0  0  0  0  0  0  0
   51.5880   31.4150   50.7600 C   0  0  0  0  0  0  0  0  0  0  0  0
   51.0380   31.8240   49.4890 N   0  0  0  0  0  0  0  0  0  0  0  0
   50.9950   33.0270   49.1610 O   0  0  0  0  0  0  0  0  0  0  0  0
   50.5440   30.8870   48.6100 O   0  0  0  0  0  0  0  0  0  0  0  0
   52.5570   30.3930   50.8010 C   0  0  0  0  0  0  0  0  0  0  0  0
   55.1080   29.1640   52.1310 H   0  0  0  0  0  0  0  0  0  0  0  0
   53.8140   27.9310   51.9760 H   0  0  0  0  0  0  0  0  0  0  0  0
   53.1275   30.2546   54.1705 H   0  0  0  0  0  0  0  0  0  0  0  0
   51.4157   32.0639   54.1288 H   0  0  0  0  0  0  0  0  0  0  0  0
   52.8842   29.9174   49.8646 H   0  0  0  0  0  0  0  0  0  0  0  0
  1  2  1  0
  2  3  2  0
  3  4  1  0
  4  5  2  0
  5  6  1  0
  5  7  1  0
  7  8  1  0
  8  9  2  0
  8 10  1  0
  7 11  2  0
 11  2  1  0
  1 12  1  0
  1 13  1  0
  3 14  1  0
  4 15  1  0
 11 16  1  0
M  CHG  3   6  -1   8   1  10  -1
M  END
>  <UniqueID>  (51) 
46

>  <SMILES>  (51) 
Nc1ccc([O-])c([N+](=O)[O-])c1

>  <Energy>  (51) 
16.6443322347013

>  <Genealogy>  (51) 
Nc1ccc([O-])c([N+](=O)[O-])c1 (protonated)
Nc1ccc([O-])c([N+](=O)[O-])c1 (3D coordinates assigned)
Nc1ccc([O-])c([N+](=O)[O-])c1 (optimized conformer: 16.6443322347013 kcal/mol)

>  <smiles>  (51) 
Nc1ccc(O)c([N+](=O)[O-])c1

>  <score_type>  (51) 
oracle

>  <origin>  (51) 
adg

>  <m_score__min__energy>  (51) 
-10.33

>  <m_primary>  (51) 
energy

$$$$
51:0
     RDKit          3D

 33 34  0  0  0  0  0  0  0  0999 V2000
   59.5080   34.9670   47.0600 C   0  0  0  0  0  0  0  0  0  0  0  0
   58.8930   33.8650   46.2500 C   0  0  0  0  0  0  0  0  0  0  0  0
   58.7570   32.5790   46.7950 C   0  0  0  0  0  0  0  0  0  0  0  0
   58.1510   31.5600   46.0530 C   0  0  0  0  0  0  0  0  0  0  0  0
   57.6660   31.8190   44.7650 C   0  0  0  0  0  0  0  0  0  0  0  0
   56.9270   30.5200   43.8340 S   0  0  0  0  0  0  0  0  0  0  0  0
   55.6330   30.1330   44.4920 O   0  0  0  0  0  0  0  0  0  0  0  0
   56.6460   30.9640   42.4250 O   0  0  0  0  0  0  0  0  0  0  0  0
   57.9860   29.1460   43.7960 N   0  0  0  0  0  0  0  0  0  0  0  0
   58.1180   28.2300   44.9000 C   0  0  0  0  0  0  0  0  0  0  0  0
   57.0200   27.4510   45.3110 C   0  0  0  0  0  0  0  0  0  0  0  0
   57.1370   26.5630   46.3840 C   0  0  0  0  0  0  0  0  0  0  0  0
   56.0710   25.8200   46.7660 F   0  0  0  0  0  0  0  0  0  0  0  0
   58.3470   26.4480   47.0660 C   0  0  0  0  0  0  0  0  0  0  0  0
   59.4450   27.2170   46.6770 C   0  0  0  0  0  0  0  0  0  0  0  0
   59.3470   28.1070   45.5930 C   0  0  0  0  0  0  0  0  0  0  0  0
   60.5560   28.9080   45.1890 C   0  0  0  0  0  0  0  0  0  0  0  0
   57.7800   33.1080   44.2280 C   0  0  0  0  0  0  0  0  0  0  0  0
   58.3840   34.1280   44.9680 C   0  0  0  0  0  0  0  0  0  0  0  0
   59.3854   34.7473   48.1308 H   0  0  0  0  0  0  0  0  0  0  0  0
   60.5792   35.0434   46.8217 H   0  0  0  0  0  0  0  0  0  0  0  0
   59.0106   35.9187   46.8217 H   0  0  0  0  0  0  0  0  0  0  0  0
   59.1284   32.3716   47.8094 H   0  0  0  0  0  0  0  0  0  0  0  0
   58.0550   30.5519   46.4825 H   0  0  0  0  0  0  0  0  0  0  0  0
   58.4490   28.9390   42.8840 H   0  0  0  0  0  0  0  0  0  0  0  0
   56.0598   27.5421   44.7822 H   0  0  0  0  0  0  0  0  0  0  0  0
   58.4368   25.7504   47.9118 H   0  0  0  0  0  0  0  0  0  0  0  0
   60.3954   27.1259   47.2234 H   0  0  0  0  0  0  0  0  0  0  0  0
   61.0825   29.2568   46.0897 H   0  0  0  0  0  0  0  0  0  0  0  0
   61.2305   28.2775   44.5911 H   0  0  0  0  0  0  0  0  0  0  0  0
   60.2384   29.7750   44.5911 H   0  0  0  0  0  0  0  0  0  0  0  0
   57.3926   33.3179   43.2201 H   0  0  0  0  0  0  0  0  0  0  0  0
   58.4610   35.1404   44.5448 H   0  0  0  0  0  0  0  0  0  0  0  0
  1  2  1  0
  2  3  2  0
  3  4  1  0
  4  5  2  0
  5  6  1  0
  6  7  2  0
  6  8  2  0
  6  9  1  0
  9 10  1  0
 10 11  2  0
 11 12  1  0
 12 13  1  0
 12 14  2  0
 14 15  1  0
 15 16  2  0
 16 17  1  0
  5 18  1  0
 18 19  2  0
 19  2  1  0
 16 10  1  0
  1 20  1  0
  1 21  1  0
  1 22  1  0
  3 23  1  0
  4 24  1  0
  9 25  1  0
 11 26  1  0
 14 27  1  0
 15 28  1  0
 17 29  1  0
 17 30  1  0
 17 31  1  0
 18 32  1  0
 19 33  1  0
M  END
>  <UniqueID>  (52) 
47

>  <SMILES>  (52) 
Cc1ccc(S(=O)(=O)Nc2cc(F)ccc2C)cc1

>  <Energy>  (52) 
36.284471678911736

>  <Genealogy>  (52) 
Cc1ccc(S(=O)(=O)Nc2cc(F)ccc2C)cc1 (3D coordinates assigned)
Cc1ccc(S(=O)(=O)Nc2cc(F)ccc2C)cc1 (optimized conformer: 36.284471678911736 kcal/mol)

>  <smiles>  (52) 
Cc1ccc(S(=O)(=O)Nc2cc(F)ccc2C)cc1

>  <score_type>  (52) 
oracle

>  <origin>  (52) 
adg

>  <m_score__min__energy>  (52) 
-7.9400000000000004

>  <m_primary>  (52) 
energy

$$$$
52:0
     RDKit          3D

 39 41  0  0  0  0  0  0  0  0999 V2000
   55.1440   25.2960   46.0900 O   0  0  0  0  0  0  0  0  0  0  0  0
   56.1080   26.1050   46.0820 C   0  0  0  0  0  0  0  0  0  0  0  0
   57.4450   25.6930   46.6330 C   0  0  0  0  0  0  0  0  0  0  0  0
   58.5030   26.5200   46.1340 O   0  0  0  0  0  0  0  0  0  0  0  0
   58.3140   27.8530   45.7480 C   0  0  0  0  0  0  0  0  0  0  0  0
   59.4130   28.6980   45.5780 C   0  0  0  0  0  0  0  0  0  0  0  0
   59.2220   30.0270   45.1830 C   0  0  0  0  0  0  0  0  0  0  0  0
   57.9260   30.5140   44.9520 C   0  0  0  0  0  0  0  0  0  0  0  0
   57.6770   32.1780   44.4260 S   0  0  0  0  0  0  0  0  0  0  0  0
   57.3840   32.1870   42.9530 O   0  0  0  0  0  0  0  0  0  0  0  0
   56.5020   32.7770   45.1480 O   0  0  0  0  0  0  0  0  0  0  0  0
   59.0990   33.1290   44.7320 N   0  0  0  0  0  0  0  0  0  0  0  0
   58.7330   34.3490   45.4550 C   0  0  0  0  0  0  0  0  0  0  0  0
   58.7850   34.1050   46.9590 C   0  0  0  0  0  0  0  0  0  0  0  0
   59.5290   32.9190   47.2300 O   0  0  0  0  0  0  0  0  0  0  0  0
   60.9300   32.8450   47.2340 C   0  0  0  0  0  0  0  0  0  0  0  0
   61.7420   33.8540   46.6790 C   0  0  0  0  0  0  0  0  0  0  0  0
   63.1350   33.7320   46.7090 C   0  0  0  0  0  0  0  0  0  0  0  0
   63.7270   32.6080   47.2910 C   0  0  0  0  0  0  0  0  0  0  0  0
   62.9280   31.6040   47.8420 C   0  0  0  0  0  0  0  0  0  0  0  0
   61.5350   31.7230   47.8140 C   0  0  0  0  0  0  0  0  0  0  0  0
   56.8260   29.6590   45.1050 C   0  0  0  0  0  0  0  0  0  0  0  0
   57.0190   28.3330   45.5040 C   0  0  0  0  0  0  0  0  0  0  0  0
   55.9100   27.4420   45.6190 N   0  0  0  0  0  0  0  0  0  0  0  0
   57.4180   25.7723   47.7298 H   0  0  0  0  0  0  0  0  0  0  0  0
   57.6414   24.6580   46.3165 H   0  0  0  0  0  0  0  0  0  0  0  0
   60.4302   28.3184   45.7548 H   0  0  0  0  0  0  0  0  0  0  0  0
   60.0892   30.6912   45.0533 H   0  0  0  0  0  0  0  0  0  0  0  0
   59.7180   32.5560   45.3520 H   0  0  0  0  0  0  0  0  0  0  0  0
   59.4374   35.1521   45.1926 H   0  0  0  0  0  0  0  0  0  0  0  0
   57.7102   34.6399   45.1736 H   0  0  0  0  0  0  0  0  0  0  0  0
   59.2699   34.9609   47.4514 H   0  0  0  0  0  0  0  0  0  0  0  0
   57.7612   33.9876   47.3437 H   0  0  0  0  0  0  0  0  0  0  0  0
   61.2789   34.7403   46.2207 H   0  0  0  0  0  0  0  0  0  0  0  0
   63.7652   34.5217   46.2740 H   0  0  0  0  0  0  0  0  0  0  0  0
   64.8227   32.5140   47.3151 H   0  0  0  0  0  0  0  0  0  0  0  0
   63.3948   30.7187   48.2985 H   0  0  0  0  0  0  0  0  0  0  0  0
   60.9101   30.9299   48.2505 H   0  0  0  0  0  0  0  0  0  0  0  0
   55.8094   30.0317   44.9109 H   0  0  0  0  0  0  0  0  0  0  0  0
  1  2  2  0
  2  3  1  0
  3  4  1  0
  4  5  1  0
  5  6  2  0
  6  7  1  0
  7  8  2  0
  8  9  1  0
  9 10  2  0
  9 11  2  0
  9 12  1  0
 12 13  1  0
 13 14  1  0
 14 15  1  0
 15 16  1  0
 16 17  2  0
 17 18  1  0
 18 19  2  0
 19 20  1  0
 20 21  2  0
  8 22  1  0
 22 23  2  0
 23 24  1  0
 24  2  1  0
 23  5  1  0
 21 16  1  0
  3 25  1  0
  3 26  1  0
  6 27  1  0
  7 28  1  0
 12 29  1  0
 13 30  1  0
 13 31  1  0
 14 32  1  0
 14 33  1  0
 17 34  1  0
 18 35  1  0
 19 36  1  0
 20 37  1  0
 21 38  1  0
 22 39  1  0
M  CHG  1  24  -1
M  END
>  <UniqueID>  (53) 
48

>  <SMILES>  (53) 
O=C1COc2ccc(S(=O)(=O)NCCOc3ccccc3)cc2[N-]1

>  <Energy>  (53) 
37.662033044363035

>  <Genealogy>  (53) 
O=C1COc2ccc(S(=O)(=O)NCCOc3ccccc3)cc2[N-]1 (protonated)
O=C1COc2ccc(S(=O)(=O)NCCOc3ccccc3)cc2[N-]1 (3D coordinates assigned)
O=C1COc2ccc(S(=O)(=O)NCCOc3ccccc3)cc2[N-]1 (nonaromatic ring conformer: 37.662033044363035 kcal/mol)

>  <smiles>  (53) 
O=C1COc2ccc(S(=O)(=O)NCCOc3ccccc3)cc2N1

>  <score_type>  (53) 
oracle

>  <origin>  (53) 
adg

>  <m_score__min__energy>  (53) 
-9.7899999999999991

>  <m_primary>  (53) 
energy

$$$$
53:0
     RDKit          3D

 47 49  0  0  0  0  0  0  0  0999 V2000
   57.6874   30.4470   43.2435 H   0  0  0  0  0  0  0  0  0  0  0  0
   57.9880   30.5650   44.2950 C   0  0  0  0  0  0  0  0  0  0  0  0
   57.4060   31.6830   45.0710 C   0  0  0  0  0  0  0  0  0  0  0  0
   56.3490   31.5959   45.3630 H   0  0  0  0  0  0  0  0  0  0  0  0
   59.4320   29.7580   46.1730 C   0  0  0  0  0  0  0  0  0  0  0  0
   58.6840   29.2570   47.2510 C   0  0  0  0  0  0  0  0  0  0  0  0
   57.7019   28.7963   47.0685 H   0  0  0  0  0  0  0  0  0  0  0  0
   59.1820   29.3410   48.5560 C   0  0  0  0  0  0  0  0  0  0  0  0
   58.5974   28.9338   49.3941 H   0  0  0  0  0  0  0  0  0  0  0  0
   60.4200   29.9410   48.7960 C   0  0  0  0  0  0  0  0  0  0  0  0
   60.8134   29.9987   49.8216 H   0  0  0  0  0  0  0  0  0  0  0  0
   61.1590   30.4680   47.7340 C   0  0  0  0  0  0  0  0  0  0  0  0
   62.1306   30.9468   47.9256 H   0  0  0  0  0  0  0  0  0  0  0  0
   60.6660   30.3880   46.4280 C   0  0  0  0  0  0  0  0  0  0  0  0
   61.2437   30.8185   45.5968 H   0  0  0  0  0  0  0  0  0  0  0  0
   58.8630   29.6890   44.8090 C   0  0  0  0  0  0  0  0  0  0  0  0
   59.1825   28.8547   44.1672 H   0  0  0  0  0  0  0  0  0  0  0  0
   58.0610   32.8000   45.4510 C   0  0  0  0  0  0  0  0  0  0  0  0
   58.3520   33.1570   46.8690 C   0  0  0  0  0  0  0  0  0  0  0  0
   57.6190   32.7430   47.8060 O   0  0  0  0  0  0  0  0  0  0  0  0
   59.4630   34.1040   47.1630 C   0  0  0  0  0  0  0  0  0  0  0  0
   60.0970   34.1520   48.3540 C   0  0  0  0  0  0  0  0  0  0  0  0
   59.5217   34.5152   49.2184 H   0  0  0  0  0  0  0  0  0  0  0  0
   61.5020   33.7560   48.5910 C   0  0  0  0  0  0  0  0  0  0  0  0
   62.3640   33.4590   47.5210 C   0  0  0  0  0  0  0  0  0  0  0  0
   61.9851   33.4871   46.4887 H   0  0  0  0  0  0  0  0  0  0  0  0
   63.7010   33.1280   47.7630 C   0  0  0  0  0  0  0  0  0  0  0  0
   64.3644   32.8784   46.9218 H   0  0  0  0  0  0  0  0  0  0  0  0
   64.2010   33.1130   49.0780 C   0  0  0  0  0  0  0  0  0  0  0  0
   65.5330   32.7850   49.3720 O   0  0  0  0  0  0  0  0  0  0  0  0
   65.9400   31.9980   50.4860 C   0  0  0  0  0  0  0  0  0  0  0  0
   65.6720   32.5162   51.4185 H   0  0  0  0  0  0  0  0  0  0  0  0
   65.4335   31.0222   50.4502 H   0  0  0  0  0  0  0  0  0  0  0  0
   67.0291   31.8474   50.4502 H   0  0  0  0  0  0  0  0  0  0  0  0
   63.3470   33.4410   50.1370 C   0  0  0  0  0  0  0  0  0  0  0  0
   63.7310   33.4392   51.1678 H   0  0  0  0  0  0  0  0  0  0  0  0
   62.0100   33.7710   49.8960 C   0  0  0  0  0  0  0  0  0  0  0  0
   61.3538   34.0438   50.7356 H   0  0  0  0  0  0  0  0  0  0  0  0
   59.9380   35.0350   46.0700 C   0  0  0  0  0  0  0  0  0  0  0  0
   60.0247   36.0504   46.4840 H   0  0  0  0  0  0  0  0  0  0  0  0
   60.9082   34.6620   45.7101 H   0  0  0  0  0  0  0  0  0  0  0  0
   58.9790   35.0710   44.8750 C   0  0  0  0  0  0  0  0  0  0  0  0
   58.0381   35.5501   45.1835 H   0  0  0  0  0  0  0  0  0  0  0  0
   59.4539   35.6403   44.0624 H   0  0  0  0  0  0  0  0  0  0  0  0
   58.6780   33.6570   44.3680 C   0  0  0  0  0  0  0  0  0  0  0  0
   57.9785   33.7220   43.5216 H   0  0  0  0  0  0  0  0  0  0  0  0
   59.6256   33.1923   44.0578 H   0  0  0  0  0  0  0  0  0  0  0  0
  1  2  1  0
  2  3  2  0
  3  4  1  0
  3  5  1  0
  5  6  2  0
  6  7  1  0
  6  8  1  0
  8  9  1  0
  8 10  2  0
 10 11  1  0
 10 12  1  0
 12 13  1  0
 12 14  2  0
 14 15  1  0
  2 16  1  0
 16 17  1  0
 16 18  2  0
 18 19  1  0
 19 20  2  0
 19 21  1  0
 21 22  2  0
 22 23  1  0
 22 24  1  0
 24 25  2  0
 25 26  1  0
 25 27  1  0
 27 28  1  0
 27 29  2  0
 29 30  1  0
 30 31  1  0
 31 32  1  0
 31 33  1  0
 31 34  1  0
 29 35  1  0
 35 36  1  0
 35 37  2  0
 37 38  1  0
 21 39  1  0
 39 40  1  0
 39 41  1  0
 39 42  1  0
 42 43  1  0
 42 44  1  0
 42 45  1  0
 45 46  1  0
 45 47  1  0
 14  5  1  0
 45 18  1  0
 37 24  1  0
M  END
>  <UniqueID>  (54) 
49

>  <SMILES>  (54) 
COc1ccc(/C=C2/CCC/C(=C/C=Cc3ccccc3)C2=O)cc1

>  <Energy>  (54) 
67.39420403789737

>  <Genealogy>  (54) 
COc1ccc(/C=C2/CCC/C(=C/C=Cc3ccccc3)C2=O)cc1 (cis-trans isomerization)
COc1ccc(/C=C2/CCC/C(=C/C=Cc3ccccc3)C2=O)cc1 (3D coordinates assigned)
COc1ccc(/C=C2/CCC/C(=C/C=Cc3ccccc3)C2=O)cc1 (nonaromatic ring conformer: 67.39420403789737 kcal/mol)

>  <smiles>  (54) 
COc1ccc(C=C2CCCC(=CC=Cc3ccccc3)C2=O)cc1

>  <score_type>  (54) 
oracle

>  <origin>  (54) 
adg

>  <m_score__min__energy>  (54) 
-9.8599999999999994

>  <m_primary>  (54) 
energy

$$$$
54:0
     RDKit          3D

 37 40  0  0  1  0  0  0  0  0999 V2000
   58.5590   34.1810   44.5470 Cl  0  0  0  0  0  0  0  0  0  0  0  0
   57.8170   32.7290   43.8990 C   0  0  0  0  0  0  0  0  0  0  0  0
   57.7640   32.5090   42.5350 C   0  0  0  0  0  0  0  0  0  0  0  0
   57.1760   31.3610   42.0630 C   0  0  0  0  0  0  0  0  0  0  0  0
   56.6250   30.4010   42.9080 C   0  0  0  0  0  0  0  0  0  0  0  0
   56.6810   30.6300   44.3070 C   0  0  0  0  0  0  0  0  0  0  0  0
   56.2750   29.7150   45.2150 N   0  0  0  0  0  0  0  0  0  0  0  0
   56.7990   28.7060   45.6790 C   0  0  0  0  0  0  0  0  0  0  0  0
   56.1170   27.5400   45.6360 N   0  0  0  0  0  0  0  0  0  0  0  0
   56.5700   26.3740   46.1040 C   0  0  0  0  0  0  0  0  0  0  0  0
   57.7900   26.3600   46.6570 N   0  0  0  0  0  0  0  0  0  0  0  0
   58.5030   27.4990   46.7200 C   0  0  0  0  0  0  0  0  0  0  0  0
   59.7430   27.4180   47.2990 C   0  0  0  0  0  0  0  0  0  0  0  0
   60.4810   28.5730   47.3700 C   0  0  0  0  0  0  0  0  0  0  0  0
   60.0820   29.7940   46.9140 C   0  0  0  0  0  0  0  0  0  0  0  0
   60.9240   30.9790   47.0250 C   0  0  0  0  0  0  0  0  0  0  0  0
   60.3940   32.2350   46.7470 C   0  0  0  0  0  0  0  0  0  0  0  0
   61.1600   33.3750   46.8400 C   0  0  0  0  0  0  0  0  0  0  0  0
   62.4590   33.2640   47.2110 N   0  0  0  0  0  0  0  0  0  0  0  0
   63.0150   32.0730   47.4910 C   0  0  0  0  0  0  0  0  0  0  0  0
   62.2410   30.9290   47.3950 C   0  0  0  0  0  0  0  0  0  0  0  0
   58.8040   29.8450   46.3250 C   0  0  0  0  0  0  0  0  0  0  0  0
   58.0450   28.7130   46.2390 C   0  0  0  0  0  0  0  0  0  0  0  0
   57.2950   31.8240   44.7670 C   0  0  0  0  0  0  0  0  0  0  0  0
   58.1879   33.2449   41.8359 H   0  0  0  0  0  0  0  0  0  0  0  0
   57.1389   31.1936   40.9764 H   0  0  0  0  0  0  0  0  0  0  0  0
   56.1594   29.4907   42.5022 H   0  0  0  0  0  0  0  0  0  0  0  0
   55.1450   27.5090   45.2060 H   0  0  0  0  0  0  0  0  0  0  0  0
   55.9635   25.4587   46.0378 H   0  0  0  0  0  0  0  0  0  0  0  0
   60.1307   26.4660   47.6907 H   0  0  0  0  0  0  0  0  0  0  0  0
   61.4766   28.5080   47.8331 H   0  0  0  0  0  0  0  0  0  0  0  0
   59.3393   32.3190   46.4462 H   0  0  0  0  0  0  0  0  0  0  0  0
   60.7249   34.3603   46.6168 H   0  0  0  0  0  0  0  0  0  0  0  0
   64.0709   32.0079   47.7924 H   0  0  0  0  0  0  0  0  0  0  0  0
   62.6966   29.9539   47.6221 H   0  0  0  0  0  0  0  0  0  0  0  0
   58.4167   30.7974   45.9339 H   0  0  0  0  0  0  0  0  0  0  0  0
   57.3492   32.0204   45.8480 H   0  0  0  0  0  0  0  0  0  0  0  0
  1  2  1  0
  2  3  2  0
  3  4  1  0
  4  5  2  0
  5  6  1  0
  6  7  1  0
  7  8  2  0
  8  9  1  0
  9 10  1  0
 10 11  2  0
 11 12  1  0
 12 13  2  0
 13 14  1  0
 14 15  2  0
 15 16  1  0
 16 17  2  0
 17 18  1  0
 18 19  2  0
 19 20  1  0
 20 21  2  0
 15 22  1  0
 22 23  2  0
  6 24  2  0
 24  2  1  0
 23  8  1  0
 23 12  1  0
 21 16  1  0
  3 25  1  0
  4 26  1  0
  5 27  1  0
  9 28  1  0
 10 29  1  0
 13 30  1  0
 14 31  1  0
 17 32  1  0
 18 33  1  0
 20 34  1  0
 21 35  1  0
 22 36  1  0
 24 37  1  0
M  END
>  <smiles>  (55) 
Clc1cccc(N=c2[nH]cnc3ccc(-c4ccncc4)cc23)c1

>  <score_type>  (55) 
oracle

>  <origin>  (55) 
adg

>  <m_score__min__energy>  (55) 
-8.6099999999999994

>  <m_primary>  (55) 
energy

$$$$
55:0
     RDKit          3D

 28 29  0  0  0  0  0  0  0  0999 V2000
   60.2960   25.7250   46.3940 C   0  0  0  0  0  0  0  0  0  0  0  0
   58.8020   25.8270   46.3170 C   0  0  0  0  0  0  0  0  0  0  0  0
   57.9960   24.7310   46.6490 C   0  0  0  0  0  0  0  0  0  0  0  0
   56.6430   24.8130   46.5290 N   0  0  0  0  0  0  0  0  0  0  0  0
   56.0300   25.9450   46.0850 C   0  0  0  0  0  0  0  0  0  0  0  0
   54.7730   25.9770   45.9900 O   0  0  0  0  0  0  0  0  0  0  0  0
   56.7940   27.0730   45.7410 C   0  0  0  0  0  0  0  0  0  0  0  0
   56.1530   28.2580   45.2330 N   0  0  0  0  0  0  0  0  0  0  0  0
   56.8070   29.5300   45.0840 C   0  0  0  0  0  0  0  0  0  0  0  0
   56.4450   30.3720   44.0210 C   0  0  0  0  0  0  0  0  0  0  0  0
   57.0480   31.6230   43.8690 C   0  0  0  0  0  0  0  0  0  0  0  0
   58.0110   32.0540   44.7900 C   0  0  0  0  0  0  0  0  0  0  0  0
   58.6330   33.3440   44.6350 C   0  0  0  0  0  0  0  0  0  0  0  0
   59.1320   34.3800   44.5110 N   0  0  0  0  0  0  0  0  0  0  0  0
   58.3620   31.2310   45.8660 C   0  0  0  0  0  0  0  0  0  0  0  0
   57.7580   29.9790   46.0180 C   0  0  0  0  0  0  0  0  0  0  0  0
   58.1930   26.9930   45.8390 C   0  0  0  0  0  0  0  0  0  0  0  0
   60.6082   25.7037   47.4486 H   0  0  0  0  0  0  0  0  0  0  0  0
   60.6267   24.8022   45.8950 H   0  0  0  0  0  0  0  0  0  0  0  0
   60.7491   26.5943   45.8950 H   0  0  0  0  0  0  0  0  0  0  0  0
   58.4585   23.7999   47.0083 H   0  0  0  0  0  0  0  0  0  0  0  0
   56.0650   23.9790   46.7830 H   0  0  0  0  0  0  0  0  0  0  0  0
   55.1510   28.1870   44.9420 H   0  0  0  0  0  0  0  0  0  0  0  0
   55.6801   30.0442   43.3016 H   0  0  0  0  0  0  0  0  0  0  0  0
   56.7662   32.2700   43.0252 H   0  0  0  0  0  0  0  0  0  0  0  0
   59.1144   31.5696   46.5935 H   0  0  0  0  0  0  0  0  0  0  0  0
   58.0281   29.3417   46.8729 H   0  0  0  0  0  0  0  0  0  0  0  0
   58.8128   27.8507   45.5387 H   0  0  0  0  0  0  0  0  0  0  0  0
  1  2  1  0
  2  3  2  0
  3  4  1  0
  4  5  1  0
  5  6  2  0
  5  7  1  0
  7  8  1  0
  8  9  1  0
  9 10  2  0
 10 11  1  0
 11 12  2  0
 12 13  1  0
 13 14  3  0
 12 15  1  0
 15 16  2  0
  7 17  2  0
 17  2  1  0
 16  9  1  0
  1 18  1  0
  1 19  1  0
  1 20  1  0
  3 21  1  0
  4 22  1  0
  8 23  1  0
 10 24  1  0
 11 25  1  0
 15 26  1  0
 16 27  1  0
 17 28  1  0
M  END
>  <UniqueID>  (56) 
50

>  <SMILES>  (56) 
Cc1c[nH]c(=O)c(Nc2ccc(C#N)cc2)c1

>  <Energy>  (56) 
33.26180874097232

>  <Genealogy>  (56) 
Cc1c[nH]c(=O)c(Nc2ccc(C#N)cc2)c1 (3D coordinates assigned)
Cc1c[nH]c(=O)c(Nc2ccc(C#N)cc2)c1 (optimized conformer: 33.26180874097232 kcal/mol)

>  <smiles>  (56) 
Cc1c[nH]c(=O)c(Nc2ccc(C#N)cc2)c1

>  <score_type>  (56) 
oracle

>  <origin>  (56) 
adg

>  <m_score__min__energy>  (56) 
-6.6100000000000003

>  <m_primary>  (56) 
energy

$$$$
56:0
     RDKit          3D

 38 40  0  0  0  0  0  0  0  0999 V2000
   56.2620   28.9770   42.2450 N   0  0  0  0  0  0  0  0  0  0  0  0
   56.8410   29.9360   43.1360 C   0  0  0  0  0  0  0  0  0  0  0  0
   57.1310   29.5850   44.4570 C   0  0  0  0  0  0  0  0  0  0  0  0
   57.6960   30.5190   45.3290 C   0  0  0  0  0  0  0  0  0  0  0  0
   57.9930   31.8370   44.9020 C   0  0  0  0  0  0  0  0  0  0  0  0
   58.5850   32.8170   45.8140 N   0  0  0  0  0  0  0  0  0  0  0  0
   58.3730   32.6420   47.2750 C   0  0  0  0  0  0  0  0  0  0  0  0
   59.0110   33.7140   48.1710 C   0  0  0  0  0  0  0  0  0  0  0  0
   60.1890   34.2830   47.5340 N   0  0  0  0  0  0  0  0  0  0  0  0
   61.5260   33.9620   47.9660 C   0  0  0  0  0  0  0  0  0  0  0  0
   62.4600   33.4550   47.0460 C   0  0  0  0  0  0  0  0  0  0  0  0
   63.7590   33.1380   47.4590 C   0  0  0  0  0  0  0  0  0  0  0  0
   64.1340   33.3240   48.7910 C   0  0  0  0  0  0  0  0  0  0  0  0
   63.2140   33.8260   49.7130 C   0  0  0  0  0  0  0  0  0  0  0  0
   61.9150   34.1450   49.3060 C   0  0  0  0  0  0  0  0  0  0  0  0
   59.9410   34.9090   46.2470 C   0  0  0  0  0  0  0  0  0  0  0  0
   59.5010   33.8390   45.2530 C   0  0  0  0  0  0  0  0  0  0  0  0
   57.6820   32.1700   43.5600 C   0  0  0  0  0  0  0  0  0  0  0  0
   57.1190   31.2320   42.6940 C   0  0  0  0  0  0  0  0  0  0  0  0
   56.5080   27.9650   42.3160 H   0  0  0  0  0  0  0  0  0  0  0  0
   55.5830   29.2740   41.5090 H   0  0  0  0  0  0  0  0  0  0  0  0
   56.9131   28.5671   44.8126 H   0  0  0  0  0  0  0  0  0  0  0  0
   57.9144   30.2257   46.3664 H   0  0  0  0  0  0  0  0  0  0  0  0
   57.2891   32.6454   47.4625 H   0  0  0  0  0  0  0  0  0  0  0  0
   58.8671   31.6955   47.5396 H   0  0  0  0  0  0  0  0  0  0  0  0
   58.2783   34.5136   48.3549 H   0  0  0  0  0  0  0  0  0  0  0  0
   59.3132   33.2472   49.1201 H   0  0  0  0  0  0  0  0  0  0  0  0
   62.1683   33.3066   45.9958 H   0  0  0  0  0  0  0  0  0  0  0  0
   64.4851   32.7420   46.7337 H   0  0  0  0  0  0  0  0  0  0  0  0
   65.1555   33.0747   49.1142 H   0  0  0  0  0  0  0  0  0  0  0  0
   63.5116   33.9709   50.7620 H   0  0  0  0  0  0  0  0  0  0  0  0
   61.1939   34.5407   50.0364 H   0  0  0  0  0  0  0  0  0  0  0  0
   59.1485   35.6648   46.3507 H   0  0  0  0  0  0  0  0  0  0  0  0
   60.8589   35.3968   45.8871 H   0  0  0  0  0  0  0  0  0  0  0  0
   58.9889   34.3371   44.4166 H   0  0  0  0  0  0  0  0  0  0  0  0
   60.4122   33.3060   44.9439 H   0  0  0  0  0  0  0  0  0  0  0  0
   57.8883   33.1867   43.1944 H   0  0  0  0  0  0  0  0  0  0  0  0
   56.8923   31.5149   41.6555 H   0  0  0  0  0  0  0  0  0  0  0  0
  1  2  1  0
  2  3  2  0
  3  4  1  0
  4  5  2  0
  5  6  1  0
  6  7  1  0
  7  8  1  0
  8  9  1  0
  9 10  1  0
 10 11  2  0
 11 12  1  0
 12 13  2  0
 13 14  1  0
 14 15  2  0
  9 16  1  0
 16 17  1  0
  5 18  1  0
 18 19  2  0
 19  2  1  0
 17  6  1  0
 15 10  1  0
  1 20  1  0
  1 21  1  0
  3 22  1  0
  4 23  1  0
  7 24  1  0
  7 25  1  0
  8 26  1  0
  8 27  1  0
 11 28  1  0
 12 29  1  0
 13 30  1  0
 14 31  1  0
 15 32  1  0
 16 33  1  0
 16 34  1  0
 17 35  1  0
 17 36  1  0
 18 37  1  0
 19 38  1  0
M  END
>  <UniqueID>  (57) 
51

>  <SMILES>  (57) 
Nc1ccc(N2CCN(c3ccccc3)CC2)cc1

>  <Energy>  (57) 
51.954614262813394

>  <Genealogy>  (57) 
Nc1ccc(N2CCN(c3ccccc3)CC2)cc1 (3D coordinates assigned)
Nc1ccc(N2CCN(c3ccccc3)CC2)cc1 (nonaromatic ring conformer: 51.954614262813394 kcal/mol)

>  <smiles>  (57) 
Nc1ccc(N2CCN(c3ccccc3)CC2)cc1

>  <score_type>  (57) 
oracle

>  <origin>  (57) 
adg

>  <m_score__min__energy>  (57) 
-7.4900000000000002

>  <m_primary>  (57) 
energy

$$$$
57:0
     RDKit          3D

 38 40  0  0  0  0  0  0  0  0999 V2000
   60.0180   35.5050   46.3570 C   0  0  0  0  0  0  0  0  0  0  0  0
   60.3340   34.2080   46.4680 C   0  0  0  0  0  0  0  0  0  0  0  0
   59.3640   33.1680   46.0420 C   0  0  0  0  0  0  0  0  0  0  0  0
   58.2540   33.5200   45.2540 C   0  0  0  0  0  0  0  0  0  0  0  0
   57.3260   32.5520   44.8600 C   0  0  0  0  0  0  0  0  0  0  0  0
   57.4940   31.2100   45.2480 C   0  0  0  0  0  0  0  0  0  0  0  0
   56.5900   30.2010   44.8800 O   0  0  0  0  0  0  0  0  0  0  0  0
   56.4090   29.7330   43.5470 C   0  0  0  0  0  0  0  0  0  0  0  0
   58.5990   30.8580   46.0300 C   0  0  0  0  0  0  0  0  0  0  0  0
   59.5280   31.8250   46.4250 C   0  0  0  0  0  0  0  0  0  0  0  0
   61.6340   33.8180   47.0640 C   0  0  0  0  0  0  0  0  0  0  0  0
   62.7930   33.4630   46.3730 C   0  0  0  0  0  0  0  0  0  0  0  0
   63.7980   33.1910   47.2350 N   0  0  0  0  0  0  0  0  0  0  0  0
   63.2880   33.3620   48.4660 C   0  0  0  0  0  0  0  0  0  0  0  0
   63.9480   33.1810   49.6800 C   0  0  0  0  0  0  0  0  0  0  0  0
   63.2290   33.3880   50.8720 C   0  0  0  0  0  0  0  0  0  0  0  0
   63.8990   33.2070   52.0900 O   0  0  0  0  0  0  0  0  0  0  0  0
   64.9520   34.0430   52.5610 C   0  0  0  0  0  0  0  0  0  0  0  0
   61.8590   33.7660   50.8080 C   0  0  0  0  0  0  0  0  0  0  0  0
   61.2210   33.9390   49.5670 C   0  0  0  0  0  0  0  0  0  0  0  0
   61.9720   33.7420   48.4080 C   0  0  0  0  0  0  0  0  0  0  0  0
   60.7370   36.2753   46.6728 H   0  0  0  0  0  0  0  0  0  0  0  0
   59.0395   35.7998   45.9501 H   0  0  0  0  0  0  0  0  0  0  0  0
   58.1147   34.5664   44.9449 H   0  0  0  0  0  0  0  0  0  0  0  0
   56.4612   32.8403   44.2444 H   0  0  0  0  0  0  0  0  0  0  0  0
   56.0123   28.7073   43.5692 H   0  0  0  0  0  0  0  0  0  0  0  0
   55.6998   30.3891   43.0212 H   0  0  0  0  0  0  0  0  0  0  0  0
   57.3751   29.7412   43.0212 H   0  0  0  0  0  0  0  0  0  0  0  0
   58.7382   29.8109   46.3369 H   0  0  0  0  0  0  0  0  0  0  0  0
   60.3927   31.5335   47.0393 H   0  0  0  0  0  0  0  0  0  0  0  0
   62.8773   33.4116   45.2774 H   0  0  0  0  0  0  0  0  0  0  0  0
   64.7710   32.9040   46.9890 H   0  0  0  0  0  0  0  0  0  0  0  0
   65.0066   32.8832   49.7060 H   0  0  0  0  0  0  0  0  0  0  0  0
   64.9545   34.0450   53.6610 H   0  0  0  0  0  0  0  0  0  0  0  0
   65.9157   33.6613   52.1928 H   0  0  0  0  0  0  0  0  0  0  0  0
   64.7988   35.0682   52.1928 H   0  0  0  0  0  0  0  0  0  0  0  0
   61.2935   33.9244   51.7381 H   0  0  0  0  0  0  0  0  0  0  0  0
   60.1594   34.2218   49.5116 H   0  0  0  0  0  0  0  0  0  0  0  0
  1  2  2  0
  2  3  1  0
  3  4  2  0
  4  5  1  0
  5  6  2  0
  6  7  1  0
  7  8  1  0
  6  9  1  0
  9 10  2  0
  2 11  1  0
 11 12  2  0
 12 13  1  0
 13 14  1  0
 14 15  2  0
 15 16  1  0
 16 17  1  0
 17 18  1  0
 16 19  2  0
 19 20  1  0
 20 21  2  0
 10  3  1  0
 21 11  1  0
 21 14  1  0
  1 22  1  0
  1 23  1  0
  4 24  1  0
  5 25  1  0
  8 26  1  0
  8 27  1  0
  8 28  1  0
  9 29  1  0
 10 30  1  0
 12 31  1  0
 13 32  1  0
 15 33  1  0
 18 34  1  0
 18 35  1  0
 18 36  1  0
 19 37  1  0
 20 38  1  0
M  END
>  <UniqueID>  (58) 
52

>  <SMILES>  (58) 
C=C(c1ccc(OC)cc1)c1c[nH]c2cc(OC)ccc12

>  <Energy>  (58) 
78.63331627802997

>  <Genealogy>  (58) 
C=C(c1ccc(OC)cc1)c1c[nH]c2cc(OC)ccc12 (3D coordinates assigned)
C=C(c1ccc(OC)cc1)c1c[nH]c2cc(OC)ccc12 (optimized conformer: 78.63331627802997 kcal/mol)

>  <smiles>  (58) 
C=C(c1ccc(OC)cc1)c1c[nH]c2cc(OC)ccc12

>  <score_type>  (58) 
oracle

>  <origin>  (58) 
adg

>  <m_score__min__energy>  (58) 
-7.4400000000000004

>  <m_primary>  (58) 
energy

$$$$
58:0
     RDKit          3D

 37 40  0  0  0  0  0  0  0  0999 V2000
   61.1787   34.7421   45.5413 H   0  0  0  0  0  0  0  0  0  0  0  0
   60.8770   34.2040   46.4520 C   0  0  0  0  0  0  0  0  0  0  0  0
   59.6210   33.9680   46.6800 N   0  0  0  0  0  0  0  0  0  0  0  0
   58.8970   32.9220   46.0680 N   0  0  0  0  0  0  0  0  0  0  0  0
   58.5970   31.8020   46.8050 C   0  0  0  0  0  0  0  0  0  0  0  0
   58.9790   31.6790   48.2310 C   0  0  0  0  0  0  0  0  0  0  0  0
   59.8070   30.6300   48.6710 C   0  0  0  0  0  0  0  0  0  0  0  0
   60.1711   29.8813   47.9520 H   0  0  0  0  0  0  0  0  0  0  0  0
   60.1690   30.5350   50.0180 C   0  0  0  0  0  0  0  0  0  0  0  0
   60.8079   29.7065   50.3577 H   0  0  0  0  0  0  0  0  0  0  0  0
   59.7210   31.4900   50.9330 C   0  0  0  0  0  0  0  0  0  0  0  0
   60.0024   31.4099   51.9934 H   0  0  0  0  0  0  0  0  0  0  0  0
   58.9150   32.5480   50.5020 C   0  0  0  0  0  0  0  0  0  0  0  0
   58.5686   33.3038   51.2222 H   0  0  0  0  0  0  0  0  0  0  0  0
   58.5490   32.6460   49.1560 C   0  0  0  0  0  0  0  0  0  0  0  0
   57.9213   33.4842   48.8193 H   0  0  0  0  0  0  0  0  0  0  0  0
   57.9660   30.7510   46.2170 N   0  0  0  0  0  0  0  0  0  0  0  0
   57.5800   30.7870   44.9200 C   0  0  0  0  0  0  0  0  0  0  0  0
   56.9300   29.6840   44.3520 C   0  0  0  0  0  0  0  0  0  0  0  0
   56.7467   28.7832   44.9560 H   0  0  0  0  0  0  0  0  0  0  0  0
   56.5140   29.7270   43.0180 C   0  0  0  0  0  0  0  0  0  0  0  0
   56.0052   28.8592   42.5729 H   0  0  0  0  0  0  0  0  0  0  0  0
   56.7440   30.8720   42.2490 C   0  0  0  0  0  0  0  0  0  0  0  0
   56.4128   30.9040   41.2005 H   0  0  0  0  0  0  0  0  0  0  0  0
   57.3940   31.9770   42.8090 C   0  0  0  0  0  0  0  0  0  0  0  0
   57.5733   32.8756   42.2004 H   0  0  0  0  0  0  0  0  0  0  0  0
   57.8190   31.9400   44.1510 C   0  0  0  0  0  0  0  0  0  0  0  0
   58.4800   33.0190   44.7630 C   0  0  0  0  0  0  0  0  0  0  0  0
   58.6700   34.0840   44.1130 O   0  0  0  0  0  0  0  0  0  0  0  0
   61.8930   33.7540   47.4070 C   0  0  0  0  0  0  0  0  0  0  0  0
   61.9570   34.1520   49.0420 S   0  0  0  0  0  0  0  0  0  0  0  0
   63.3460   33.2680   49.3870 C   0  0  0  0  0  0  0  0  0  0  0  0
   63.8331   33.1924   50.3704 H   0  0  0  0  0  0  0  0  0  0  0  0
   63.7730   32.6500   48.2190 C   0  0  0  0  0  0  0  0  0  0  0  0
   64.6655   32.0089   48.1695 H   0  0  0  0  0  0  0  0  0  0  0  0
   62.9620   32.9190   47.1110 C   0  0  0  0  0  0  0  0  0  0  0  0
   63.1520   32.5105   46.1075 H   0  0  0  0  0  0  0  0  0  0  0  0
  1  2  1  0
  2  3  2  0
  3  4  1  0
  4  5  1  0
  5  6  1  0
  6  7  2  0
  7  8  1  0
  7  9  1  0
  9 10  1  0
  9 11  2  0
 11 12  1  0
 11 13  1  0
 13 14  1  0
 13 15  2  0
 15 16  1  0
  5 17  2  0
 17 18  1  0
 18 19  2  0
 19 20  1  0
 19 21  1  0
 21 22  1  0
 21 23  2  0
 23 24  1  0
 23 25  1  0
 25 26  1  0
 25 27  2  0
 27 28  1  0
 28 29  2  0
  2 30  1  0
 30 31  1  0
 31 32  1  0
 32 33  1  0
 32 34  2  0
 34 35  1  0
 34 36  1  0
 36 37  1  0
 28  4  1  0
 36 30  2  0
 15  6  1  0
 27 18  1  0
M  END
>  <UniqueID>  (59) 
53

>  <SMILES>  (59) 
O=c1c2ccccc2nc(-c2ccccc2)n1/N=C/c1cccs1

>  <Energy>  (59) 
83.78755519997253

>  <Genealogy>  (59) 
O=c1c2ccccc2nc(-c2ccccc2)n1/N=C/c1cccs1 (cis-trans isomerization)
O=c1c2ccccc2nc(-c2ccccc2)n1/N=C/c1cccs1 (3D coordinates assigned)
O=c1c2ccccc2nc(-c2ccccc2)n1/N=C/c1cccs1 (optimized conformer: 83.78755519997253 kcal/mol)

>  <smiles>  (59) 
O=c1c2ccccc2nc(-c2ccccc2)n1N=Cc1cccs1

>  <score_type>  (59) 
oracle

>  <origin>  (59) 
adg

>  <m_score__min__energy>  (59) 
-7.5899999999999999

>  <m_primary>  (59) 
energy

$$$$
59:0
     RDKit          3D

 40 43  0  0  0  0  0  0  0  0999 V2000
   57.8990   24.0540   44.6520 C   0  0  0  0  0  0  0  0  0  0  0  0
   57.6710   25.5350   44.7280 C   0  0  0  0  0  0  0  0  0  0  0  0
   57.1900   26.1160   45.9110 C   0  0  0  0  0  0  0  0  0  0  0  0
   57.0130   27.5000   45.9950 C   0  0  0  0  0  0  0  0  0  0  0  0
   57.3290   28.3270   44.9030 C   0  0  0  0  0  0  0  0  0  0  0  0
   57.1420   29.7910   44.9930 C   0  0  0  0  0  0  0  0  0  0  0  0
   56.0620   30.4420   44.5120 N   0  0  0  0  0  0  0  0  0  0  0  0
   56.2730   31.6920   44.7880 O   0  0  0  0  0  0  0  0  0  0  0  0
   57.4230   31.8180   45.4020 C   0  0  0  0  0  0  0  0  0  0  0  0
   57.9730   33.1170   45.8970 C   0  0  0  0  0  0  0  0  0  0  0  0
   59.3480   32.9500   46.3640 N   0  0  0  0  0  0  0  0  0  0  0  0
   60.0610   34.0320   46.9820 C   0  0  0  0  0  0  0  0  0  0  0  0
   59.5510   35.1870   46.9890 O   0  0  0  0  0  0  0  0  0  0  0  0
   61.3940   33.8250   47.5960 C   0  0  0  0  0  0  0  0  0  0  0  0
   62.4930   33.3530   46.8250 C   0  0  0  0  0  0  0  0  0  0  0  0
   63.7520   33.1530   47.4180 C   0  0  0  0  0  0  0  0  0  0  0  0
   63.8830   33.4260   48.7750 C   0  0  0  0  0  0  0  0  0  0  0  0
   62.8410   33.8660   49.5220 C   0  0  0  0  0  0  0  0  0  0  0  0
   61.5780   34.0760   48.9770 C   0  0  0  0  0  0  0  0  0  0  0  0
   63.2550   34.0480   50.8280 O   0  0  0  0  0  0  0  0  0  0  0  0
   64.6450   33.7000   50.9040 C   0  0  0  0  0  0  0  0  0  0  0  0
   65.0050   33.3080   49.5730 O   0  0  0  0  0  0  0  0  0  0  0  0
   58.0300   30.6290   45.5720 N   0  0  0  0  0  0  0  0  0  0  0  0
   57.8270   27.7430   43.7260 C   0  0  0  0  0  0  0  0  0  0  0  0
   58.0040   26.3580   43.6430 C   0  0  0  0  0  0  0  0  0  0  0  0
   57.9627   23.6402   45.6692 H   0  0  0  0  0  0  0  0  0  0  0  0
   57.0630   23.5814   44.1155 H   0  0  0  0  0  0  0  0  0  0  0  0
   58.8384   23.8547   44.1155 H   0  0  0  0  0  0  0  0  0  0  0  0
   56.9512   25.4798   46.7760 H   0  0  0  0  0  0  0  0  0  0  0  0
   56.6236   27.9453   46.9224 H   0  0  0  0  0  0  0  0  0  0  0  0
   57.9561   33.8519   45.0786 H   0  0  0  0  0  0  0  0  0  0  0  0
   57.3539   33.4670   46.7362 H   0  0  0  0  0  0  0  0  0  0  0  0
   59.8400   32.0420   46.1930 H   0  0  0  0  0  0  0  0  0  0  0  0
   62.3561   33.1425   45.7541 H   0  0  0  0  0  0  0  0  0  0  0  0
   64.6065   32.7919   46.8269 H   0  0  0  0  0  0  0  0  0  0  0  0
   60.7445   34.4278   49.6028 H   0  0  0  0  0  0  0  0  0  0  0  0
   65.2426   34.5652   51.2267 H   0  0  0  0  0  0  0  0  0  0  0  0
   64.8299   32.8982   51.6341 H   0  0  0  0  0  0  0  0  0  0  0  0
   58.0792   28.3789   42.8646 H   0  0  0  0  0  0  0  0  0  0  0  0
   58.4066   25.9122   42.7215 H   0  0  0  0  0  0  0  0  0  0  0  0
  1  2  1  0
  2  3  2  0
  3  4  1  0
  4  5  2  0
  5  6  1  0
  6  7  2  0
  7  8  1  0
  8  9  1  0
  9 10  1  0
 10 11  1  0
 11 12  1  0
 12 13  2  0
 12 14  1  0
 14 15  2  0
 15 16  1  0
 16 17  2  0
 17 18  1  0
 18 19  2  0
 18 20  1  0
 20 21  1  0
 21 22  1  0
  9 23  2  0
  5 24  1  0
 24 25  2  0
 25  2  1  0
 23  6  1  0
 19 14  1  0
 22 17  1  0
  1 26  1  0
  1 27  1  0
  1 28  1  0
  3 29  1  0
  4 30  1  0
 10 31  1  0
 10 32  1  0
 11 33  1  0
 15 34  1  0
 16 35  1  0
 19 36  1  0
 21 37  1  0
 21 38  1  0
 24 39  1  0
 25 40  1  0
M  END
>  <UniqueID>  (60) 
54

>  <SMILES>  (60) 
Cc1ccc(-c2noc(CNC(=O)c3ccc4c(c3)OCO4)n2)cc1

>  <Energy>  (60) 
104.26315499279642

>  <Genealogy>  (60) 
Cc1ccc(-c2noc(CNC(=O)c3ccc4c(c3)OCO4)n2)cc1 (3D coordinates assigned)
Cc1ccc(-c2noc(CNC(=O)c3ccc4c(c3)OCO4)n2)cc1 (nonaromatic ring conformer: 104.26315499279642 kcal/mol)

>  <smiles>  (60) 
Cc1ccc(-c2noc(CNC(=O)c3ccc4c(c3)OCO4)n2)cc1

>  <score_type>  (60) 
oracle

>  <origin>  (60) 
adg

>  <m_score__min__energy>  (60) 
-8.0899999999999999

>  <m_primary>  (60) 
energy

$$$$
60:0
     RDKit          3D

 39 41  0  0  0  0  0  0  0  0999 V2000
   62.6025   31.2324   49.0165 H   0  0  0  0  0  0  0  0  0  0  0  0
   62.4540   32.0830   48.3350 C   0  0  0  0  0  0  0  0  0  0  0  0
   61.3080   32.8140   48.3200 N   0  0  0  0  0  0  0  0  0  0  0  0
   61.3620   33.8040   47.4040 C   0  0  0  0  0  0  0  0  0  0  0  0
   60.0320   34.9660   47.1240 S   0  0  0  0  0  0  0  0  0  0  0  0
   59.0010   33.7250   46.3440 C   0  0  0  0  0  0  0  0  0  0  0  0
   57.8200   34.1050   45.6970 C   0  0  0  0  0  0  0  0  0  0  0  0
   57.5230   35.1639   45.6746 H   0  0  0  0  0  0  0  0  0  0  0  0
   57.0180   33.1440   45.0800 C   0  0  0  0  0  0  0  0  0  0  0  0
   56.0908   33.4480   44.5722 H   0  0  0  0  0  0  0  0  0  0  0  0
   57.3890   31.7950   45.1050 C   0  0  0  0  0  0  0  0  0  0  0  0
   56.6010   30.8700   44.4980 N   0  0  0  0  0  0  0  0  0  0  0  0
   56.9190   29.5520   44.4930 C   0  0  0  0  0  0  0  0  0  0  0  0
   56.2572   28.8314   43.9903 H   0  0  0  0  0  0  0  0  0  0  0  0
   58.0810   29.1050   45.1220 C   0  0  0  0  0  0  0  0  0  0  0  0
   58.3319   28.0340   45.1163 H   0  0  0  0  0  0  0  0  0  0  0  0
   58.9340   30.0250   45.7650 C   0  0  0  0  0  0  0  0  0  0  0  0
   60.0320   29.6470   46.3660 N   0  0  0  0  0  0  0  0  0  0  0  0
   60.1910   28.5760   47.3510 C   0  0  0  0  0  0  0  0  0  0  0  0
   61.2544   28.3034   47.4203 H   0  0  0  0  0  0  0  0  0  0  0  0
   59.5962   27.7079   47.0307 H   0  0  0  0  0  0  0  0  0  0  0  0
   59.6950   29.0350   48.7340 C   0  0  0  0  0  0  0  0  0  0  0  0
   60.4622   28.7898   49.4832 H   0  0  0  0  0  0  0  0  0  0  0  0
   58.7482   28.5141   48.9393 H   0  0  0  0  0  0  0  0  0  0  0  0
   59.4300   30.4810   48.7860 N   0  0  0  0  0  0  0  0  0  0  0  0
   60.1050   30.9790   48.1580 H   0  0  0  0  0  0  0  0  0  0  0  0
   59.5500   31.0200   50.1460 C   0  0  0  0  0  0  0  0  0  0  0  0
   60.5958   31.3035   50.3354 H   0  0  0  0  0  0  0  0  0  0  0  0
   59.2369   30.2529   50.8695 H   0  0  0  0  0  0  0  0  0  0  0  0
   58.6580   32.2470   50.2960 C   0  0  0  0  0  0  0  0  0  0  0  0
   58.5035   32.4596   51.3641 H   0  0  0  0  0  0  0  0  0  0  0  0
   59.1399   33.1115   49.8161 H   0  0  0  0  0  0  0  0  0  0  0  0
   57.6870   32.0553   49.8161 H   0  0  0  0  0  0  0  0  0  0  0  0
   58.5800   31.3960   45.7590 C   0  0  0  0  0  0  0  0  0  0  0  0
   59.3790   32.3780   46.3800 C   0  0  0  0  0  0  0  0  0  0  0  0
   60.3049   32.0836   46.8958 H   0  0  0  0  0  0  0  0  0  0  0  0
   62.8240   33.8120   46.5780 S   0  0  0  0  0  0  0  0  0  0  0  0
   63.4250   32.4890   47.4260 C   0  0  0  0  0  0  0  0  0  0  0  0
   64.4130   32.0262   47.2859 H   0  0  0  0  0  0  0  0  0  0  0  0
  1  2  1  0
  2  3  1  0
  3  4  2  0
  4  5  1  0
  5  6  1  0
  6  7  2  0
  7  8  1  0
  7  9  1  0
  9 10  1  0
  9 11  2  0
 11 12  1  0
 12 13  1  0
 13 14  1  0
 13 15  2  0
 15 16  1  0
 15 17  1  0
 17 18  2  0
 18 19  1  0
 19 20  1  0
 19 21  1  0
 19 22  1  0
 22 23  1  0
 22 24  1  0
 22 25  1  0
 25 26  1  0
 25 27  1  0
 27 28  1  0
 27 29  1  0
 27 30  1  0
 30 31  1  0
 30 32  1  0
 30 33  1  0
 17 34  1  0
 34 35  2  0
 35 36  1  0
  4 37  1  0
 37 38  1  0
 38 39  1  0
 38  2  2  0
 35  6  1  0
 34 11  1  0
M  CHG  1  12  -1
M  END
>  <UniqueID>  (61) 
55

>  <SMILES>  (61) 
CCNCC/N=c1\cc[n-]c2ccc(Sc3nccs3)cc12

>  <Energy>  (61) 
69.43902573092713

>  <Genealogy>  (61) 
CCNCCN=c1cc[n-]c2ccc(Sc3nccs3)cc12 (protonated)
CCNCC/N=c1\cc[n-]c2ccc(Sc3nccs3)cc12 (cis-trans isomerization)
CCNCC/N=c1\cc[n-]c2ccc(Sc3nccs3)cc12 (3D coordinates assigned)
CCNCC/N=c1\cc[n-]c2ccc(Sc3nccs3)cc12 (optimized conformer: 69.43902573092713 kcal/mol)

>  <smiles>  (61) 
CCNCCN=c1cc[nH]c2ccc(Sc3nccs3)cc12

>  <score_type>  (61) 
oracle

>  <origin>  (61) 
adg

>  <m_score__min__energy>  (61) 
-8.5299999999999994

>  <m_primary>  (61) 
energy

$$$$
61:0
     RDKit          3D

 17 16  0  0  0  0  0  0  0  0999 V2000
   58.1360   34.2020   45.2540 C   0  0  0  0  0  0  0  0  0  0  0  0
   57.4060   33.0830   45.2560 C   0  0  0  0  0  0  0  0  0  0  0  0
   57.6480   31.9760   44.2640 C   0  0  0  0  0  0  0  0  0  0  0  0
   57.4130   30.5870   44.8730 C   0  0  0  0  0  0  0  0  0  0  0  0
   56.2750   29.8660   44.1990 C   0  0  0  0  0  0  0  0  0  0  0  0
   56.2700   29.6800   42.7110 C   0  0  0  0  0  0  0  0  0  0  0  0
   55.3430   29.4440   44.8650 O   0  0  0  0  0  0  0  0  0  0  0  0
   57.9338   34.9919   45.9923 H   0  0  0  0  0  0  0  0  0  0  0  0
   58.9392   34.3334   44.5140 H   0  0  0  0  0  0  0  0  0  0  0  0
   56.6065   32.9671   46.0025 H   0  0  0  0  0  0  0  0  0  0  0  0
   56.9651   32.1089   43.4120 H   0  0  0  0  0  0  0  0  0  0  0  0
   58.7001   32.0313   43.9478 H   0  0  0  0  0  0  0  0  0  0  0  0
   58.3296   29.9893   44.7607 H   0  0  0  0  0  0  0  0  0  0  0  0
   57.1541   30.7182   45.9340 H   0  0  0  0  0  0  0  0  0  0  0  0
   56.2411   28.6058   42.4758 H   0  0  0  0  0  0  0  0  0  0  0  0
   55.3848   30.1730   42.2828 H   0  0  0  0  0  0  0  0  0  0  0  0
   57.1804   30.1247   42.2828 H   0  0  0  0  0  0  0  0  0  0  0  0
  1  2  2  0
  2  3  1  0
  3  4  1  0
  4  5  1  0
  5  6  1  0
  5  7  2  0
  1  8  1  0
  1  9  1  0
  2 10  1  0
  3 11  1  0
  3 12  1  0
  4 13  1  0
  4 14  1  0
  6 15  1  0
  6 16  1  0
  6 17  1  0
M  END
>  <UniqueID>  (62) 
56

>  <SMILES>  (62) 
C=CCCC(C)=O

>  <Energy>  (62) 
4.535898912351231

>  <Genealogy>  (62) 
C=CCCC(C)=O (3D coordinates assigned)
C=CCCC(C)=O (optimized conformer: 4.535898912351231 kcal/mol)

>  <smiles>  (62) 
C=CCCC(C)=O

>  <score_type>  (62) 
oracle

>  <origin>  (62) 
adg

>  <m_score__min__energy>  (62) 
-3.9700000000000002

>  <m_primary>  (62) 
energy

$$$$
62:0
     RDKit          3D

 46 48  0  0  0  0  0  0  0  0999 V2000
   58.5830   33.0130   43.0350 O   0  0  0  0  0  0  0  0  0  0  0  0
   57.7410   32.6050   43.8250 C   0  0  0  0  0  0  0  0  0  0  0  0
   57.1870   31.2180   43.6100 C   0  0  0  0  0  0  0  0  0  0  0  0
   56.6970   30.6970   44.8840 N   0  0  0  0  0  0  0  0  0  0  0  0
   57.1360   29.0250   45.0610 S   0  0  0  0  0  0  0  0  0  0  0  0
   57.8600   28.5520   43.8300 O   0  0  0  0  0  0  0  0  0  0  0  0
   55.8900   28.2080   45.2450 O   0  0  0  0  0  0  0  0  0  0  0  0
   58.1630   28.8230   46.4770 C   0  0  0  0  0  0  0  0  0  0  0  0
   58.5590   27.5410   46.8840 C   0  0  0  0  0  0  0  0  0  0  0  0
   59.3870   27.3820   47.9990 C   0  0  0  0  0  0  0  0  0  0  0  0
   59.8350   28.5050   48.7040 C   0  0  0  0  0  0  0  0  0  0  0  0
   60.9540   28.2880   50.2350 Br  0  0  0  0  0  0  0  0  0  0  0  0
   59.4570   29.7860   48.2900 C   0  0  0  0  0  0  0  0  0  0  0  0
   58.6200   29.9460   47.1810 C   0  0  0  0  0  0  0  0  0  0  0  0
   57.3730   33.4380   44.9610 N   0  0  0  0  0  0  0  0  0  0  0  0
   57.4840   32.7340   46.2740 C   0  0  0  0  0  0  0  0  0  0  0  0
   58.4450   33.4110   47.2640 C   0  0  0  0  0  0  0  0  0  0  0  0
   59.6600   33.8500   46.5700 N   0  0  0  0  0  0  0  0  0  0  0  0
   60.9700   33.5160   47.0750 C   0  0  0  0  0  0  0  0  0  0  0  0
   62.1240   33.8460   46.3400 C   0  0  0  0  0  0  0  0  0  0  0  0
   63.3920   33.5180   46.8290 C   0  0  0  0  0  0  0  0  0  0  0  0
   63.5240   32.8720   48.0600 C   0  0  0  0  0  0  0  0  0  0  0  0
   62.3870   32.5500   48.8040 C   0  0  0  0  0  0  0  0  0  0  0  0
   61.1160   32.8700   48.3170 C   0  0  0  0  0  0  0  0  0  0  0  0
   59.5250   34.6730   45.3630 C   0  0  0  0  0  0  0  0  0  0  0  0
   58.0620   34.7490   44.8990 C   0  0  0  0  0  0  0  0  0  0  0  0
   56.3597   31.2597   42.8863 H   0  0  0  0  0  0  0  0  0  0  0  0
   57.9768   30.5596   43.2191 H   0  0  0  0  0  0  0  0  0  0  0  0
   58.2171   26.6579   46.3243 H   0  0  0  0  0  0  0  0  0  0  0  0
   59.6865   26.3742   48.3223 H   0  0  0  0  0  0  0  0  0  0  0  0
   59.8184   30.6691   48.8373 H   0  0  0  0  0  0  0  0  0  0  0  0
   58.3198   30.9546   46.8606 H   0  0  0  0  0  0  0  0  0  0  0  0
   56.3540   33.6600   44.8400 H   0  0  0  0  0  0  0  0  0  0  0  0
   56.4847   32.6960   46.7322 H   0  0  0  0  0  0  0  0  0  0  0  0
   57.8916   31.7336   46.0666 H   0  0  0  0  0  0  0  0  0  0  0  0
   57.9482   34.2832   47.7139 H   0  0  0  0  0  0  0  0  0  0  0  0
   58.7199   32.6898   48.0478 H   0  0  0  0  0  0  0  0  0  0  0  0
   62.0277   34.3651   45.3750 H   0  0  0  0  0  0  0  0  0  0  0  0
   64.2880   33.7694   46.2426 H   0  0  0  0  0  0  0  0  0  0  0  0
   64.5230   32.6170   48.4434 H   0  0  0  0  0  0  0  0  0  0  0  0
   62.4915   32.0437   49.7749 H   0  0  0  0  0  0  0  0  0  0  0  0
   60.2242   32.6152   48.9084 H   0  0  0  0  0  0  0  0  0  0  0  0
   59.8851   35.6894   45.5804 H   0  0  0  0  0  0  0  0  0  0  0  0
   60.1199   34.2123   44.5606 H   0  0  0  0  0  0  0  0  0  0  0  0
   57.5247   35.4597   45.5442 H   0  0  0  0  0  0  0  0  0  0  0  0
   58.0634   35.0741   43.8481 H   0  0  0  0  0  0  0  0  0  0  0  0
  1  2  2  0
  2  3  1  0
  3  4  1  0
  4  5  1  0
  5  6  2  0
  5  7  2  0
  5  8  1  0
  8  9  2  0
  9 10  1  0
 10 11  2  0
 11 12  1  0
 11 13  1  0
 13 14  2  0
  2 15  1  0
 15 16  1  0
 16 17  1  0
 17 18  1  0
 18 19  1  0
 19 20  2  0
 20 21  1  0
 21 22  2  0
 22 23  1  0
 23 24  2  0
 18 25  1  0
 25 26  1  0
 14  8  1  0
 26 15  1  0
 24 19  1  0
  3 27  1  0
  3 28  1  0
  9 29  1  0
 10 30  1  0
 13 31  1  0
 14 32  1  0
 15 33  1  0
 16 34  1  0
 16 35  1  0
 17 36  1  0
 17 37  1  0
 20 38  1  0
 21 39  1  0
 22 40  1  0
 23 41  1  0
 24 42  1  0
 25 43  1  0
 25 44  1  0
 26 45  1  0
 26 46  1  0
M  CHG  2   4  -1  15   1
M  END
>  <UniqueID>  (63) 
57

>  <SMILES>  (63) 
O=C(C[N-]S(=O)(=O)c1ccc(Br)cc1)[NH+]1CCN(c2ccccc2)CC1

>  <Energy>  (63) 
55.329859298876215

>  <Genealogy>  (63) 
O=C(C[N-]S(=O)(=O)c1ccc(Br)cc1)[NH+]1CCN(c2ccccc2)CC1 (protonated)
O=C(C[N-]S(=O)(=O)c1ccc(Br)cc1)[NH+]1CCN(c2ccccc2)CC1 (3D coordinates assigned)
O=C(C[N-]S(=O)(=O)c1ccc(Br)cc1)[NH+]1CCN(c2ccccc2)CC1 (nonaromatic ring conformer: 55.329859298876215 kcal/mol)

>  <smiles>  (63) 
O=C(CNS(=O)(=O)c1ccc(Br)cc1)N1CCN(c2ccccc2)CC1

>  <score_type>  (63) 
oracle

>  <origin>  (63) 
adg

>  <m_score__min__energy>  (63) 
-8.6699999999999999

>  <m_primary>  (63) 
energy

$$$$
63:0
     RDKit          3D

 38 40  0  0  0  0  0  0  0  0999 V2000
   56.2850   30.0520   43.5280 C   0  0  0  0  0  0  0  0  0  0  0  0
   56.6440   30.2620   44.8760 O   0  0  0  0  0  0  0  0  0  0  0  0
   58.0200   29.9760   45.0870 C   0  0  1  0  0  0  0  0  0  0  0  0
   58.4670   30.6620   46.4140 C   0  0  2  0  0  0  0  0  0  0  0  0
   58.6220   32.1630   46.2440 C   0  0  0  0  0  0  0  0  0  0  0  0
   57.9400   32.8290   45.2080 C   0  0  0  0  0  0  0  0  0  0  0  0
   58.0860   34.2090   45.0340 C   0  0  0  0  0  0  0  0  0  0  0  0
   58.9130   34.9390   45.8900 C   0  0  0  0  0  0  0  0  0  0  0  0
   59.5970   34.2920   46.9200 C   0  0  0  0  0  0  0  0  0  0  0  0
   59.4560   32.9120   47.0980 C   0  0  0  0  0  0  0  0  0  0  0  0
   59.7390   30.0190   47.0400 C   0  0  0  0  0  0  0  0  0  0  0  0
   59.7570   28.4750   46.8660 C   0  0  1  0  0  0  0  0  0  0  0  0
   58.5080   27.8450   47.4980 C   0  0  0  0  0  0  0  0  0  0  0  0
   57.4820   27.8160   46.3520 C   0  0  0  0  0  0  0  0  0  0  0  0
   58.2330   28.4280   45.1570 C   0  0  2  0  0  0  0  0  0  0  0  0
   59.6270   28.1000   45.4590 N   0  0  0  0  0  0  0  0  0  0  0  0
   60.6560   28.6000   44.5310 C   0  0  0  0  0  0  0  0  0  0  0  0
   55.3363   29.4971   43.4834 H   0  0  0  0  0  0  0  0  0  0  0  0
   56.1659   31.0229   43.0247 H   0  0  0  0  0  0  0  0  0  0  0  0
   57.0729   29.4723   43.0247 H   0  0  0  0  0  0  0  0  0  0  0  0
   58.6268   30.3637   44.2555 H   0  0  0  0  0  0  0  0  0  0  0  0
   57.6543   30.4880   47.1346 H   0  0  0  0  0  0  0  0  0  0  0  0
   57.2872   32.2595   44.5301 H   0  0  0  0  0  0  0  0  0  0  0  0
   57.5485   34.7200   44.2216 H   0  0  0  0  0  0  0  0  0  0  0  0
   59.0254   36.0246   45.7524 H   0  0  0  0  0  0  0  0  0  0  0  0
   60.2484   34.8686   47.5933 H   0  0  0  0  0  0  0  0  0  0  0  0
   59.9999   32.4077   47.9103 H   0  0  0  0  0  0  0  0  0  0  0  0
   60.6284   30.4419   46.5501 H   0  0  0  0  0  0  0  0  0  0  0  0
   59.7356   30.2393   48.1177 H   0  0  0  0  0  0  0  0  0  0  0  0
   60.7009   28.1377   47.3190 H   0  0  0  0  0  0  0  0  0  0  0  0
   58.7225   26.8272   47.8560 H   0  0  0  0  0  0  0  0  0  0  0  0
   58.1483   28.4066   48.3727 H   0  0  0  0  0  0  0  0  0  0  0  0
   57.1729   26.7837   46.1312 H   0  0  0  0  0  0  0  0  0  0  0  0
   56.5612   28.3657   46.5970 H   0  0  0  0  0  0  0  0  0  0  0  0
   57.8925   28.0464   44.1831 H   0  0  0  0  0  0  0  0  0  0  0  0
   61.4998   29.0100   45.1054 H   0  0  0  0  0  0  0  0  0  0  0  0
   61.0108   27.7739   43.8973 H   0  0  0  0  0  0  0  0  0  0  0  0
   60.2258   29.3895   43.8973 H   0  0  0  0  0  0  0  0  0  0  0  0
  1  2  1  0
  2  3  1  0
  3  4  1  0
  4  5  1  0
  5  6  2  0
  6  7  1  0
  7  8  2  0
  8  9  1  0
  9 10  2  0
  4 11  1  0
 11 12  1  0
 12 13  1  0
 13 14  1  0
 14 15  1  0
 15 16  1  0
 16 17  1  0
 15  3  1  0
 10  5  1  0
 16 12  1  0
  1 18  1  0
  1 19  1  0
  1 20  1  0
  3 21  1  6
  4 22  1  1
  6 23  1  0
  7 24  1  0
  8 25  1  0
  9 26  1  0
 10 27  1  0
 11 28  1  0
 11 29  1  0
 12 30  1  1
 13 31  1  0
 13 32  1  0
 14 33  1  0
 14 34  1  0
 15 35  1  6
 17 36  1  0
 17 37  1  0
 17 38  1  0
M  END
>  <UniqueID>  (64) 
58

>  <SMILES>  (64) 
CO[C@@H]1C2CCC(C[C@H]1c1ccccc1)N2C

>  <Energy>  (64) 
59.763743060191295

>  <Genealogy>  (64) 
CO[C@@H]1C2CCC(C[C@H]1c1ccccc1)N2C (chirality)
CO[C@@H]1C2CCC(C[C@H]1c1ccccc1)N2C (3D coordinates assigned)
CO[C@@H]1C2CCC(C[C@H]1c1ccccc1)N2C (nonaromatic ring conformer: 59.763743060191295 kcal/mol)

>  <smiles>  (64) 
COC1C(c2ccccc2)CC2CCC1N2C

>  <score_type>  (64) 
oracle

>  <origin>  (64) 
adg

>  <m_score__min__energy>  (64) 
-6.8099999999999996

>  <m_primary>  (64) 
energy

$$$$
64:0
     RDKit          3D

 35 37  0  0  0  0  0  0  0  0999 V2000
   57.1290   26.4630   45.8760 H   0  0  0  0  0  0  0  0  0  0  0  0
   56.7310   27.3080   45.4110 N   0  0  0  0  0  0  0  0  0  0  0  0
   57.1740   28.5050   45.6400 C   0  0  0  0  0  0  0  0  0  0  0  0
   58.1440   28.8410   46.5530 C   0  0  0  0  0  0  0  0  0  0  0  0
   58.9030   28.1200   47.4680 C   0  0  0  0  0  0  0  0  0  0  0  0
   58.7970   26.8700   47.5730 O   0  0  0  0  0  0  0  0  0  0  0  0
   59.7920   28.8440   48.2780 C   0  0  0  0  0  0  0  0  0  0  0  0
   60.4171   28.3191   49.0154 H   0  0  0  0  0  0  0  0  0  0  0  0
   59.8830   30.2480   48.1450 C   0  0  0  0  0  0  0  0  0  0  0  0
   60.5788   30.8090   48.7863 H   0  0  0  0  0  0  0  0  0  0  0  0
   59.1140   30.9240   47.2250 N   0  0  0  0  0  0  0  0  0  0  0  0
   59.2150   32.3560   47.1020 C   0  0  0  0  0  0  0  0  0  0  0  0
   59.3940   33.1560   48.2460 C   0  0  0  0  0  0  0  0  0  0  0  0
   59.4547   32.6859   49.2386 H   0  0  0  0  0  0  0  0  0  0  0  0
   59.4950   34.5450   48.1270 C   0  0  0  0  0  0  0  0  0  0  0  0
   59.6322   35.1644   49.0256 H   0  0  0  0  0  0  0  0  0  0  0  0
   59.4220   35.1480   46.8690 C   0  0  0  0  0  0  0  0  0  0  0  0
   59.5007   36.2414   46.7778 H   0  0  0  0  0  0  0  0  0  0  0  0
   59.2490   34.3620   45.7260 C   0  0  0  0  0  0  0  0  0  0  0  0
   59.1840   34.9480   44.5050 F   0  0  0  0  0  0  0  0  0  0  0  0
   59.1480   32.9720   45.8390 C   0  0  0  0  0  0  0  0  0  0  0  0
   59.0156   32.3574   44.9364 H   0  0  0  0  0  0  0  0  0  0  0  0
   58.2590   30.2010   46.4440 C   0  0  0  0  0  0  0  0  0  0  0  0
   57.4000   30.6830   45.5220 N   0  0  0  0  0  0  0  0  0  0  0  0
   56.7450   29.6380   45.0250 N   0  0  0  0  0  0  0  0  0  0  0  0
   55.6900   29.7640   44.0190 C   0  0  0  0  0  0  0  0  0  0  0  0
   55.0700   28.8555   44.0334 H   0  0  0  0  0  0  0  0  0  0  0  0
   55.0843   30.6505   44.2584 H   0  0  0  0  0  0  0  0  0  0  0  0
   56.2810   29.9440   42.6160 C   0  0  0  0  0  0  0  0  0  0  0  0
   56.9281   29.0834   42.3911 H   0  0  0  0  0  0  0  0  0  0  0  0
   55.4454   30.0136   41.9041 H   0  0  0  0  0  0  0  0  0  0  0  0
   57.1060   31.2240   42.4970 C   0  0  0  0  0  0  0  0  0  0  0  0
   57.3478   31.5992   43.5024 H   0  0  0  0  0  0  0  0  0  0  0  0
   58.0371   31.0107   41.9515 H   0  0  0  0  0  0  0  0  0  0  0  0
   56.5272   31.9839   41.9515 H   0  0  0  0  0  0  0  0  0  0  0  0
  1  2  1  0
  2  3  2  0
  3  4  1  0
  4  5  1  0
  5  6  2  0
  5  7  1  0
  7  8  1  0
  7  9  2  0
  9 10  1  0
  9 11  1  0
 11 12  1  0
 12 13  2  0
 13 14  1  0
 13 15  1  0
 15 16  1  0
 15 17  2  0
 17 18  1  0
 17 19  1  0
 19 20  1  0
 19 21  2  0
 21 22  1  0
 11 23  1  0
 23 24  1  0
 24 25  1  0
 25 26  1  0
 26 27  1  0
 26 28  1  0
 26 29  1  0
 29 30  1  0
 29 31  1  0
 29 32  1  0
 32 33  1  0
 32 34  1  0
 32 35  1  0
 25  3  1  0
 23  4  2  0
 21 12  1  0
M  CHG  1  24  -1
M  END
>  <UniqueID>  (65) 
59

>  <SMILES>  (65) 
[H]/N=c1/c2c(=O)ccn(-c3cccc(F)c3)c2[n-]n1CCC

>  <Energy>  (65) 
81.78647790982218

>  <Genealogy>  (65) 
CCCn1[n-]c2c(c(=O)ccn2-c2cccc(F)c2)c1=N (protonated)
[H]/N=c1/c2c(=O)ccn(-c3cccc(F)c3)c2[n-]n1CCC (cis-trans isomerization)
[H]/N=c1/c2c(=O)ccn(-c3cccc(F)c3)c2[n-]n1CCC (3D coordinates assigned)
[H]/N=c1/c2c(=O)ccn(-c3cccc(F)c3)c2[n-]n1CCC (optimized conformer: 81.78647790982218 kcal/mol)

>  <smiles>  (65) 
CCCn1[nH]c2c(c(=O)ccn2-c2cccc(F)c2)c1=N

>  <score_type>  (65) 
oracle

>  <origin>  (65) 
adg

>  <m_score__min__energy>  (65) 
-7.7599999999999998

>  <m_primary>  (65) 
energy

$$$$
65:0
     RDKit          3D

 45 47  0  0  0  0  0  0  0  0999 V2000
   60.0720   33.8350   50.0990 C   0  0  0  0  0  0  0  0  0  0  0  0
   60.9570   33.8020   48.8810 C   0  0  0  0  0  0  0  0  0  0  0  0
   62.3500   33.7290   49.0620 C   0  0  0  0  0  0  0  0  0  0  0  0
   63.2090   33.7010   47.9630 C   0  0  0  0  0  0  0  0  0  0  0  0
   62.6920   33.7520   46.6720 C   0  0  0  0  0  0  0  0  0  0  0  0
   61.3140   33.8390   46.4720 C   0  0  0  0  0  0  0  0  0  0  0  0
   60.4280   33.8780   47.5650 C   0  0  0  0  0  0  0  0  0  0  0  0
   58.9390   33.9910   47.2910 C   0  0  0  0  0  0  0  0  0  0  0  0
   58.5380   33.2120   46.0970 N   0  0  0  0  0  0  0  0  0  0  0  0
   58.4680   33.8090   44.8630 C   0  0  0  0  0  0  0  0  0  0  0  0
   58.7430   35.0320   44.7140 O   0  0  0  0  0  0  0  0  0  0  0  0
   58.0880   33.0740   43.7450 C   0  0  0  0  0  0  0  0  0  0  0  0
   57.7660   31.7350   43.9010 C   0  0  0  0  0  0  0  0  0  0  0  0
   57.8140   31.1500   45.1300 N   0  0  0  0  0  0  0  0  0  0  0  0
   57.4200   29.7380   45.2610 C   0  0  0  0  0  0  0  0  0  0  0  0
   58.4680   28.8500   44.6390 C   0  0  0  0  0  0  0  0  0  0  0  0
   59.6360   28.5240   45.2110 C   0  0  0  0  0  0  0  0  0  0  0  0
   60.1110   29.0380   46.5090 C   0  0  0  0  0  0  0  0  0  0  0  0
   61.0060   30.1170   46.5390 C   0  0  0  0  0  0  0  0  0  0  0  0
   61.4330   30.6460   47.7610 C   0  0  0  0  0  0  0  0  0  0  0  0
   60.9520   30.1130   48.9600 C   0  0  0  0  0  0  0  0  0  0  0  0
   60.0370   29.0570   48.9380 C   0  0  0  0  0  0  0  0  0  0  0  0
   59.6070   28.5270   47.7180 C   0  0  0  0  0  0  0  0  0  0  0  0
   58.1720   31.8900   46.2300 C   0  0  0  0  0  0  0  0  0  0  0  0
   58.1580   31.3550   47.3740 O   0  0  0  0  0  0  0  0  0  0  0  0
   60.6947   33.8118   51.0055 H   0  0  0  0  0  0  0  0  0  0  0  0
   59.4709   34.7562   50.0906 H   0  0  0  0  0  0  0  0  0  0  0  0
   59.4039   32.9611   50.0906 H   0  0  0  0  0  0  0  0  0  0  0  0
   62.7660   33.6937   50.0797 H   0  0  0  0  0  0  0  0  0  0  0  0
   64.2963   33.6385   48.1172 H   0  0  0  0  0  0  0  0  0  0  0  0
   63.3713   33.7237   45.8073 H   0  0  0  0  0  0  0  0  0  0  0  0
   60.9151   33.8776   45.4476 H   0  0  0  0  0  0  0  0  0  0  0  0
   58.3868   33.6135   48.1642 H   0  0  0  0  0  0  0  0  0  0  0  0
   58.7058   35.0493   47.1025 H   0  0  0  0  0  0  0  0  0  0  0  0
   58.0438   33.5477   42.7532 H   0  0  0  0  0  0  0  0  0  0  0  0
   57.4692   31.1398   43.0249 H   0  0  0  0  0  0  0  0  0  0  0  0
   57.3153   29.4864   46.3267 H   0  0  0  0  0  0  0  0  0  0  0  0
   56.4614   29.5813   44.7446 H   0  0  0  0  0  0  0  0  0  0  0  0
   58.2584   28.4386   43.6406 H   0  0  0  0  0  0  0  0  0  0  0  0
   60.2883   27.8210   44.6721 H   0  0  0  0  0  0  0  0  0  0  0  0
   61.3740   30.5494   45.5968 H   0  0  0  0  0  0  0  0  0  0  0  0
   62.1477   31.4820   47.7785 H   0  0  0  0  0  0  0  0  0  0  0  0
   61.2937   30.5247   49.9211 H   0  0  0  0  0  0  0  0  0  0  0  0
   59.6545   28.6421   49.8822 H   0  0  0  0  0  0  0  0  0  0  0  0
   58.8726   27.7082   47.7039 H   0  0  0  0  0  0  0  0  0  0  0  0
  1  2  1  0
  2  3  2  0
  3  4  1  0
  4  5  2  0
  5  6  1  0
  6  7  2  0
  7  8  1  0
  8  9  1  0
  9 10  1  0
 10 11  2  0
 10 12  1  0
 12 13  2  0
 13 14  1  0
 14 15  1  0
 15 16  1  0
 16 17  2  3
 17 18  1  0
 18 19  2  0
 19 20  1  0
 20 21  2  0
 21 22  1  0
 22 23  2  0
 14 24  1  0
 24 25  2  0
  7  2  1  0
 24  9  1  0
 23 18  1  0
  1 26  1  0
  1 27  1  0
  1 28  1  0
  3 29  1  0
  4 30  1  0
  5 31  1  0
  6 32  1  0
  8 33  1  0
  8 34  1  0
 12 35  1  0
 13 36  1  0
 15 37  1  0
 15 38  1  0
 16 39  1  0
 17 40  1  0
 19 41  1  0
 20 42  1  0
 21 43  1  0
 22 44  1  0
 23 45  1  0
M  END
>  <UniqueID>  (66) 
60

>  <SMILES>  (66) 
Cc1ccccc1Cn1c(=O)ccn(CC=Cc2ccccc2)c1=O

>  <Energy>  (66) 
61.803258870668515

>  <Genealogy>  (66) 
Cc1ccccc1Cn1c(=O)ccn(CC=Cc2ccccc2)c1=O (3D coordinates assigned)
Cc1ccccc1Cn1c(=O)ccn(CC=Cc2ccccc2)c1=O (optimized conformer: 61.803258870668515 kcal/mol)

>  <smiles>  (66) 
Cc1ccccc1Cn1c(=O)ccn(CC=Cc2ccccc2)c1=O

>  <score_type>  (66) 
oracle

>  <origin>  (66) 
adg

>  <m_score__min__energy>  (66) 
-7.46

>  <m_primary>  (66) 
energy

$$$$
66:0
     RDKit          3D

 43 45  0  0  0  0  0  0  0  0999 V2000
   59.7380   34.0300   49.2600 C   0  0  0  0  0  0  0  0  0  0  0  0
   60.8370   34.1390   48.5030 C   0  0  0  0  0  0  0  0  0  0  0  0
   61.0830   33.2560   47.2790 C   0  0  0  0  0  0  0  0  0  0  0  0
   59.8040   33.2700   46.4180 C   0  0  0  0  0  0  0  0  0  0  0  0
   59.4100   34.4770   45.8010 C   0  0  0  0  0  0  0  0  0  0  0  0
   58.2630   34.5370   45.0080 C   0  0  0  0  0  0  0  0  0  0  0  0
   57.4780   33.4010   44.8220 C   0  0  0  0  0  0  0  0  0  0  0  0
   57.8290   32.1950   45.4330 C   0  0  0  0  0  0  0  0  0  0  0  0
   57.0170   31.0720   45.2170 O   0  0  0  0  0  0  0  0  0  0  0  0
   57.4820   29.7670   44.9890 C   0  0  0  0  0  0  0  0  0  0  0  0
   58.0940   29.0780   46.0430 C   0  0  0  0  0  0  0  0  0  0  0  0
   58.5800   27.7800   45.8530 C   0  0  0  0  0  0  0  0  0  0  0  0
   58.4670   27.1670   44.6020 C   0  0  0  0  0  0  0  0  0  0  0  0
   57.8750   27.8540   43.5370 C   0  0  0  0  0  0  0  0  0  0  0  0
   57.7790   27.2650   42.3210 F   0  0  0  0  0  0  0  0  0  0  0  0
   57.3890   29.1530   43.7260 C   0  0  0  0  0  0  0  0  0  0  0  0
   59.0020   32.1250   46.2060 C   0  0  0  0  0  0  0  0  0  0  0  0
   62.2570   33.8410   46.4190 C   0  0  0  0  0  0  0  0  0  0  0  0
   63.6600   33.2970   46.7720 C   0  0  0  0  0  0  0  0  0  0  0  0
   63.7770   32.9130   48.2480 C   0  0  0  0  0  0  0  0  0  0  0  0
   62.7570   31.8290   48.6420 C   0  0  0  0  0  0  0  0  0  0  0  0
   61.4870   31.8300   47.7630 C   0  0  0  0  0  0  0  0  0  0  0  0
   59.6033   34.6870   50.1319 H   0  0  0  0  0  0  0  0  0  0  0  0
   58.9698   33.2834   49.0100 H   0  0  0  0  0  0  0  0  0  0  0  0
   61.5919   34.8926   48.7719 H   0  0  0  0  0  0  0  0  0  0  0  0
   60.0158   35.3834   45.9473 H   0  0  0  0  0  0  0  0  0  0  0  0
   57.9777   35.4848   44.5280 H   0  0  0  0  0  0  0  0  0  0  0  0
   56.5782   33.4541   44.1914 H   0  0  0  0  0  0  0  0  0  0  0  0
   58.1933   29.5603   47.0266 H   0  0  0  0  0  0  0  0  0  0  0  0
   59.0513   27.2416   46.6885 H   0  0  0  0  0  0  0  0  0  0  0  0
   58.8437   26.1440   44.4549 H   0  0  0  0  0  0  0  0  0  0  0  0
   56.9330   29.6956   42.8848 H   0  0  0  0  0  0  0  0  0  0  0  0
   59.3000   31.1648   46.6524 H   0  0  0  0  0  0  0  0  0  0  0  0
   62.0560   33.6068   45.3632 H   0  0  0  0  0  0  0  0  0  0  0  0
   62.2840   34.9203   46.6298 H   0  0  0  0  0  0  0  0  0  0  0  0
   63.8595   32.4067   46.1576 H   0  0  0  0  0  0  0  0  0  0  0  0
   64.3911   34.0941   46.5718 H   0  0  0  0  0  0  0  0  0  0  0  0
   64.7915   32.5322   48.4370 H   0  0  0  0  0  0  0  0  0  0  0  0
   63.5713   33.8098   48.8508 H   0  0  0  0  0  0  0  0  0  0  0  0
   63.2418   30.8456   48.5524 H   0  0  0  0  0  0  0  0  0  0  0  0
   62.4377   32.0442   49.6724 H   0  0  0  0  0  0  0  0  0  0  0  0
   61.6707   31.1992   46.8808 H   0  0  0  0  0  0  0  0  0  0  0  0
   60.6605   31.4446   48.3781 H   0  0  0  0  0  0  0  0  0  0  0  0
  1  2  2  0
  2  3  1  0
  3  4  1  0
  4  5  2  0
  5  6  1  0
  6  7  2  0
  7  8  1  0
  8  9  1  0
  9 10  1  0
 10 11  2  0
 11 12  1  0
 12 13  2  0
 13 14  1  0
 14 15  1  0
 14 16  2  0
  8 17  2  0
  3 18  1  0
 18 19  1  0
 19 20  1  0
 20 21  1  0
 21 22  1  0
 22  3  1  0
 17  4  1  0
 16 10  1  0
  1 23  1  0
  1 24  1  0
  2 25  1  0
  5 26  1  0
  6 27  1  0
  7 28  1  0
 11 29  1  0
 12 30  1  0
 13 31  1  0
 16 32  1  0
 17 33  1  0
 18 34  1  0
 18 35  1  0
 19 36  1  0
 19 37  1  0
 20 38  1  0
 20 39  1  0
 21 40  1  0
 21 41  1  0
 22 42  1  0
 22 43  1  0
M  END
>  <UniqueID>  (67) 
61

>  <SMILES>  (67) 
C=CC1(c2cccc(Oc3cccc(F)c3)c2)CCCCC1

>  <Energy>  (67) 
59.11569843579584

>  <Genealogy>  (67) 
C=CC1(c2cccc(Oc3cccc(F)c3)c2)CCCCC1 (3D coordinates assigned)
C=CC1(c2cccc(Oc3cccc(F)c3)c2)CCCCC1 (nonaromatic ring conformer: 59.11569843579584 kcal/mol)

>  <smiles>  (67) 
C=CC1(c2cccc(Oc3cccc(F)c3)c2)CCCCC1

>  <score_type>  (67) 
oracle

>  <origin>  (67) 
adg

>  <m_score__min__energy>  (67) 
-8.5299999999999994

>  <m_primary>  (67) 
energy

$$$$
67:0
     RDKit          3D

 38 38  0  0  0  0  0  0  0  0999 V2000
   60.0750   33.7320   49.1230 C   0  0  0  0  0  0  0  0  0  0  0  0
   58.8430   33.4610   48.4620 O   0  0  0  0  0  0  0  0  0  0  0  0
   58.6980   33.3310   47.0720 C   0  0  0  0  0  0  0  0  0  0  0  0
   58.3490   32.1080   46.4640 C   0  0  0  0  0  0  0  0  0  0  0  0
   58.2170   32.0180   45.0690 C   0  0  0  0  0  0  0  0  0  0  0  0
   57.8790   30.6960   44.4240 C   0  0  0  0  0  0  0  0  0  0  0  0
   56.6160   30.7890   43.5550 C   0  0  0  0  0  0  0  0  0  0  0  0
   55.5930   29.6980   43.8960 C   0  0  0  0  0  0  0  0  0  0  0  0
   55.8370   29.1730   45.2350 N   0  0  0  0  0  0  0  0  0  0  0  0
   56.3340   27.8550   45.4890 C   0  0  0  0  0  0  0  0  0  0  0  0
   55.5460   26.9350   45.8420 O   0  0  0  0  0  0  0  0  0  0  0  0
   57.8030   27.5740   45.3370 C   0  0  0  0  0  0  0  0  0  0  0  0
   58.1430   27.2730   43.8740 C   0  0  0  0  0  0  0  0  0  0  0  0
   58.2270   26.4190   46.2480 C   0  0  0  0  0  0  0  0  0  0  0  0
   58.4430   33.1540   44.2800 C   0  0  0  0  0  0  0  0  0  0  0  0
   58.7860   34.3690   44.8770 C   0  0  0  0  0  0  0  0  0  0  0  0
   58.9140   34.4600   46.2700 C   0  0  0  0  0  0  0  0  0  0  0  0
   59.2590   35.6730   46.8650 O   0  0  0  0  0  0  0  0  0  0  0  0
   59.9221   33.6984   50.2118 H   0  0  0  0  0  0  0  0  0  0  0  0
   60.8202   32.9763   48.8339 H   0  0  0  0  0  0  0  0  0  0  0  0
   60.4343   34.7307   48.8339 H   0  0  0  0  0  0  0  0  0  0  0  0
   58.1788   31.2176   47.0870 H   0  0  0  0  0  0  0  0  0  0  0  0
   58.7231   30.3825   43.7922 H   0  0  0  0  0  0  0  0  0  0  0  0
   57.6894   29.9650   45.2238 H   0  0  0  0  0  0  0  0  0  0  0  0
   56.1498   31.7728   43.7127 H   0  0  0  0  0  0  0  0  0  0  0  0
   56.9182   30.6510   42.5064 H   0  0  0  0  0  0  0  0  0  0  0  0
   54.5800   30.1247   43.8530 H   0  0  0  0  0  0  0  0  0  0  0  0
   55.6891   28.8786   43.1684 H   0  0  0  0  0  0  0  0  0  0  0  0
   58.3640   28.4702   45.6407 H   0  0  0  0  0  0  0  0  0  0  0  0
   58.9660   26.5444   43.8312 H   0  0  0  0  0  0  0  0  0  0  0  0
   57.2582   26.8567   43.3701 H   0  0  0  0  0  0  0  0  0  0  0  0
   58.4489   28.2017   43.3701 H   0  0  0  0  0  0  0  0  0  0  0  0
   58.1159   26.7217   47.2997 H   0  0  0  0  0  0  0  0  0  0  0  0
   57.5918   25.5432   46.0495 H   0  0  0  0  0  0  0  0  0  0  0  0
   59.2780   26.1622   46.0495 H   0  0  0  0  0  0  0  0  0  0  0  0
   58.3498   33.0883   43.1859 H   0  0  0  0  0  0  0  0  0  0  0  0
   58.9564   35.2579   44.2518 H   0  0  0  0  0  0  0  0  0  0  0  0
   59.1550   35.8230   47.8620 H   0  0  0  0  0  0  0  0  0  0  0  0
  1  2  1  0
  2  3  1  0
  3  4  2  0
  4  5  1  0
  5  6  1  0
  6  7  1  0
  7  8  1  0
  8  9  1  0
  9 10  1  0
 10 11  2  0
 10 12  1  0
 12 13  1  0
 12 14  1  0
  5 15  2  0
 15 16  1  0
 16 17  2  0
 17 18  1  0
 17  3  1  0
  1 19  1  0
  1 20  1  0
  1 21  1  0
  4 22  1  0
  6 23  1  0
  6 24  1  0
  7 25  1  0
  7 26  1  0
  8 27  1  0
  8 28  1  0
 12 29  1  0
 13 30  1  0
 13 31  1  0
 13 32  1  0
 14 33  1  0
 14 34  1  0
 14 35  1  0
 15 36  1  0
 16 37  1  0
 18 38  1  0
M  CHG  1   9  -1
M  END
>  <UniqueID>  (68) 
62

>  <SMILES>  (68) 
COc1cc(CCC[N-]C(=O)C(C)C)ccc1O

>  <Energy>  (68) 
23.082195721505226

>  <Genealogy>  (68) 
COc1cc(CCC[N-]C(=O)C(C)C)ccc1O (protonated)
COc1cc(CCC[N-]C(=O)C(C)C)ccc1O (3D coordinates assigned)
COc1cc(CCC[N-]C(=O)C(C)C)ccc1O (optimized conformer: 23.082195721505226 kcal/mol)

>  <smiles>  (68) 
COc1cc(CCCNC(=O)C(C)C)ccc1O

>  <score_type>  (68) 
oracle

>  <origin>  (68) 
adg

>  <m_score__min__energy>  (68) 
-7.8799999999999999

>  <m_primary>  (68) 
energy

$$$$
68:0
     RDKit          3D

 32 33  0  0  0  0  0  0  0  0999 V2000
   54.7670   26.3250   45.9950 N   0  0  0  0  0  0  0  0  0  0  0  0
   56.3720   25.6840   46.0030 S   0  0  0  0  0  0  0  0  0  0  0  0
   56.6110   24.9380   47.2850 O   0  0  0  0  0  0  0  0  0  0  0  0
   56.5370   24.7310   44.8520 O   0  0  0  0  0  0  0  0  0  0  0  0
   57.5280   27.0030   45.8570 C   0  0  0  0  0  0  0  0  0  0  0  0
   58.6590   27.0440   46.6820 C   0  0  0  0  0  0  0  0  0  0  0  0
   59.5870   28.0810   46.5500 C   0  0  0  0  0  0  0  0  0  0  0  0
   59.3910   29.0820   45.5950 C   0  0  0  0  0  0  0  0  0  0  0  0
   58.2580   29.0560   44.7630 C   0  0  0  0  0  0  0  0  0  0  0  0
   58.0730   30.0680   43.7530 N   0  0  0  0  0  0  0  0  0  0  0  0
   57.0740   31.0490   44.2010 C   0  0  0  0  0  0  0  0  0  0  0  0
   57.7450   32.2060   44.8930 C   0  0  0  0  0  0  0  0  0  0  0  0
   58.2860   33.2630   44.1430 C   0  0  0  0  0  0  0  0  0  0  0  0
   58.8790   34.3530   44.7880 C   0  0  0  0  0  0  0  0  0  0  0  0
   58.9250   34.4010   46.1840 C   0  0  0  0  0  0  0  0  0  0  0  0
   58.3750   33.3600   46.9380 C   0  0  0  0  0  0  0  0  0  0  0  0
   57.7820   32.2680   46.2970 C   0  0  0  0  0  0  0  0  0  0  0  0
   57.3350   28.0030   44.8930 C   0  0  0  0  0  0  0  0  0  0  0  0
   54.7390   27.0830   46.7140 H   0  0  0  0  0  0  0  0  0  0  0  0
   58.8174   26.2584   47.4355 H   0  0  0  0  0  0  0  0  0  0  0  0
   60.4741   28.1091   47.1998 H   0  0  0  0  0  0  0  0  0  0  0  0
   60.1263   29.8938   45.4937 H   0  0  0  0  0  0  0  0  0  0  0  0
   58.9840   30.5520   43.5670 H   0  0  0  0  0  0  0  0  0  0  0  0
   57.7550   29.6230   42.8600 H   0  0  0  0  0  0  0  0  0  0  0  0
   56.5168   31.4223   43.3291 H   0  0  0  0  0  0  0  0  0  0  0  0
   56.3878   30.5605   44.9085 H   0  0  0  0  0  0  0  0  0  0  0  0
   58.2431   33.2334   43.0442 H   0  0  0  0  0  0  0  0  0  0  0  0
   59.3098   35.1737   44.1957 H   0  0  0  0  0  0  0  0  0  0  0  0
   59.3940   35.2580   46.6896 H   0  0  0  0  0  0  0  0  0  0  0  0
   58.4088   33.4001   48.0367 H   0  0  0  0  0  0  0  0  0  0  0  0
   57.3429   31.4546   46.8933 H   0  0  0  0  0  0  0  0  0  0  0  0
   56.4553   27.9635   44.2338 H   0  0  0  0  0  0  0  0  0  0  0  0
  1  2  1  0
  2  3  2  0
  2  4  2  0
  2  5  1  0
  5  6  2  0
  6  7  1  0
  7  8  2  0
  8  9  1  0
  9 10  1  0
 10 11  1  0
 11 12  1  0
 12 13  2  0
 13 14  1  0
 14 15  2  0
 15 16  1  0
 16 17  2  0
  9 18  2  0
 18  5  1  0
 17 12  1  0
  1 19  1  0
  6 20  1  0
  7 21  1  0
  8 22  1  0
 10 23  1  0
 10 24  1  0
 11 25  1  0
 11 26  1  0
 13 27  1  0
 14 28  1  0
 15 29  1  0
 16 30  1  0
 17 31  1  0
 18 32  1  0
M  CHG  2   1  -1  10   1
M  END
>  <UniqueID>  (69) 
63

>  <SMILES>  (69) 
[NH-]S(=O)(=O)c1cccc([NH2+]Cc2ccccc2)c1

>  <Energy>  (69) 
32.20956671825387

>  <Genealogy>  (69) 
[NH-]S(=O)(=O)c1cccc([NH2+]Cc2ccccc2)c1 (protonated)
[NH-]S(=O)(=O)c1cccc([NH2+]Cc2ccccc2)c1 (3D coordinates assigned)
[NH-]S(=O)(=O)c1cccc([NH2+]Cc2ccccc2)c1 (optimized conformer: 32.20956671825387 kcal/mol)

>  <smiles>  (69) 
NS(=O)(=O)c1cccc(NCc2ccccc2)c1

>  <score_type>  (69) 
oracle

>  <origin>  (69) 
adg

>  <m_score__min__energy>  (69) 
-9.1300000000000008

>  <m_primary>  (69) 
energy

$$$$
69:0
     RDKit          3D

 33 35  0  0  0  0  0  0  0  0999 V2000
   60.0775   35.8517   46.0408 H   0  0  0  0  0  0  0  0  0  0  0  0
   59.5940   34.8680   45.9480 C   0  0  0  0  0  0  0  0  0  0  0  0
   58.7400   34.6080   44.8750 C   0  0  0  0  0  0  0  0  0  0  0  0
   58.5481   35.3890   44.1246 H   0  0  0  0  0  0  0  0  0  0  0  0
   58.1280   33.3570   44.7520 C   0  0  0  0  0  0  0  0  0  0  0  0
   57.4538   33.1603   43.9054 H   0  0  0  0  0  0  0  0  0  0  0  0
   58.3680   32.3460   45.7040 C   0  0  0  0  0  0  0  0  0  0  0  0
   57.7060   31.0230   45.5590 C   0  0  0  0  0  0  0  0  0  0  0  0
   56.6270   30.8660   44.7420 N   0  0  0  0  0  0  0  0  0  0  0  0
   56.2020   29.2620   44.8470 S   0  0  0  0  0  0  0  0  0  0  0  0
   57.3620   28.7420   45.9260 C   0  0  0  0  0  0  0  0  0  0  0  0
   57.5790   27.5350   46.3600 N   0  0  0  0  0  0  0  0  0  0  0  0
   57.0310   26.3260   45.8160 C   0  0  0  0  0  0  0  0  0  0  0  0
   55.9840   25.8530   46.3300 O   0  0  0  0  0  0  0  0  0  0  0  0
   57.5900   25.7190   44.6400 N   0  0  0  0  0  0  0  0  0  0  0  0
   58.0740   26.3440   43.9560 H   0  0  0  0  0  0  0  0  0  0  0  0
   57.3940   24.3420   44.2790 C   0  0  0  0  0  0  0  0  0  0  0  0
   56.4110   23.9590   43.3460 C   0  0  0  0  0  0  0  0  0  0  0  0
   55.7872   24.7253   42.8626 H   0  0  0  0  0  0  0  0  0  0  0  0
   56.2240   22.6090   43.0310 C   0  0  0  0  0  0  0  0  0  0  0  0
   55.4607   22.3171   42.2946 H   0  0  0  0  0  0  0  0  0  0  0  0
   57.0060   21.6310   43.6510 C   0  0  0  0  0  0  0  0  0  0  0  0
   56.8635   20.5703   43.3967 H   0  0  0  0  0  0  0  0  0  0  0  0
   57.9690   22.0000   44.5940 C   0  0  0  0  0  0  0  0  0  0  0  0
   58.5791   21.2286   45.0866 H   0  0  0  0  0  0  0  0  0  0  0  0
   58.1580   23.3470   44.9120 C   0  0  0  0  0  0  0  0  0  0  0  0
   58.9100   23.6307   45.6630 H   0  0  0  0  0  0  0  0  0  0  0  0
   58.1430   29.8460   46.2240 C   0  0  0  0  0  0  0  0  0  0  0  0
   59.0084   29.8150   46.9024 H   0  0  0  0  0  0  0  0  0  0  0  0
   59.2250   32.6260   46.7870 C   0  0  0  0  0  0  0  0  0  0  0  0
   59.4161   31.8534   47.5463 H   0  0  0  0  0  0  0  0  0  0  0  0
   59.8340   33.8790   46.9030 C   0  0  0  0  0  0  0  0  0  0  0  0
   60.5047   34.0861   47.7499 H   0  0  0  0  0  0  0  0  0  0  0  0
  1  2  1  0
  2  3  2  0
  3  4  1  0
  3  5  1  0
  5  6  1  0
  5  7  2  0
  7  8  1  0
  8  9  1  0
  9 10  1  0
 10 11  1  0
 11 12  2  0
 12 13  1  0
 13 14  2  0
 13 15  1  0
 15 16  1  0
 15 17  1  0
 17 18  2  0
 18 19  1  0
 18 20  1  0
 20 21  1  0
 20 22  2  0
 22 23  1  0
 22 24  1  0
 24 25  1  0
 24 26  2  0
 26 27  1  0
 11 28  1  0
 28 29  1  0
  7 30  1  0
 30 31  1  0
 30 32  2  0
 32 33  1  0
 32  2  1  0
 28  8  2  0
 26 17  1  0
M  CHG  1   9  -1
M  END
>  <UniqueID>  (70) 
64

>  <SMILES>  (70) 
O=C(/N=c1/cc(-c2ccccc2)[n-]s1)Nc1ccccc1

>  <Energy>  (70) 
79.9868575325895

>  <Genealogy>  (70) 
O=C(N=c1cc(-c2ccccc2)[n-]s1)Nc1ccccc1 (protonated)
O=C(/N=c1/cc(-c2ccccc2)[n-]s1)Nc1ccccc1 (cis-trans isomerization)
O=C(/N=c1/cc(-c2ccccc2)[n-]s1)Nc1ccccc1 (3D coordinates assigned)
O=C(/N=c1/cc(-c2ccccc2)[n-]s1)Nc1ccccc1 (optimized conformer: 79.9868575325895 kcal/mol)

>  <smiles>  (70) 
O=C(N=c1cc(-c2ccccc2)[nH]s1)Nc1ccccc1

>  <score_type>  (70) 
oracle

>  <origin>  (70) 
adg

>  <m_score__min__energy>  (70) 
-9.1899999999999995

>  <m_primary>  (70) 
energy

$$$$
70:0
     RDKit          3D

 37 38  0  0  0  0  0  0  0  0999 V2000
   58.8730   34.9060   45.3960 C   0  0  0  0  0  0  0  0  0  0  0  0
   59.6110   33.6740   45.9210 C   0  0  0  0  0  0  0  0  0  0  0  0
   60.1070   33.9090   47.3500 C   0  0  0  0  0  0  0  0  0  0  0  0
   58.5640   32.2180   45.8430 S   0  0  0  0  0  0  0  0  0  0  0  0
   59.3420   31.0220   46.3130 O   0  0  0  0  0  0  0  0  0  0  0  0
   57.4070   32.4050   46.7860 O   0  0  0  0  0  0  0  0  0  0  0  0
   57.9320   31.9730   44.2000 C   0  0  0  0  0  0  0  0  0  0  0  0
   58.4290   32.8020   43.1800 C   0  0  0  0  0  0  0  0  0  0  0  0
   58.0390   32.6150   41.8530 C   0  0  0  0  0  0  0  0  0  0  0  0
   57.1530   31.5920   41.5220 C   0  0  0  0  0  0  0  0  0  0  0  0
   56.6470   30.7580   42.5200 C   0  0  0  0  0  0  0  0  0  0  0  0
   57.0170   30.9420   43.8620 C   0  0  0  0  0  0  0  0  0  0  0  0
   56.4220   30.0460   44.8630 C   0  0  0  0  0  0  0  0  0  0  0  0
   55.1960   29.7630   44.7900 O   0  0  0  0  0  0  0  0  0  0  0  0
   57.2050   29.6260   45.9870 N   0  0  0  0  0  0  0  0  0  0  0  0
   57.7780   28.3260   46.1870 C   0  0  0  0  0  0  0  0  0  0  0  0
   58.8100   28.1850   47.1250 C   0  0  0  0  0  0  0  0  0  0  0  0
   59.4130   26.9390   47.3330 C   0  0  0  0  0  0  0  0  0  0  0  0
   60.6930   26.7730   48.5210 Cl  0  0  0  0  0  0  0  0  0  0  0  0
   58.9980   25.8290   46.5920 C   0  0  0  0  0  0  0  0  0  0  0  0
   57.9860   25.9650   45.6360 C   0  0  0  0  0  0  0  0  0  0  0  0
   57.4860   24.5770   44.6870 Cl  0  0  0  0  0  0  0  0  0  0  0  0
   57.3810   27.2100   45.4280 C   0  0  0  0  0  0  0  0  0  0  0  0
   58.5131   35.5069   46.2442 H   0  0  0  0  0  0  0  0  0  0  0  0
   59.5580   35.5102   44.7831 H   0  0  0  0  0  0  0  0  0  0  0  0
   58.0170   34.5872   44.7831 H   0  0  0  0  0  0  0  0  0  0  0  0
   60.4853   33.4995   45.2767 H   0  0  0  0  0  0  0  0  0  0  0  0
   59.3509   33.5508   48.0641 H   0  0  0  0  0  0  0  0  0  0  0  0
   61.0478   33.3609   47.5064 H   0  0  0  0  0  0  0  0  0  0  0  0
   60.2787   34.9842   47.5064 H   0  0  0  0  0  0  0  0  0  0  0  0
   59.1341   33.6083   43.4305 H   0  0  0  0  0  0  0  0  0  0  0  0
   58.4319   33.2766   41.0669 H   0  0  0  0  0  0  0  0  0  0  0  0
   56.8525   31.4418   40.4746 H   0  0  0  0  0  0  0  0  0  0  0  0
   55.9516   29.9487   42.2528 H   0  0  0  0  0  0  0  0  0  0  0  0
   59.1481   29.0589   47.7012 H   0  0  0  0  0  0  0  0  0  0  0  0
   59.4672   24.8485   46.7606 H   0  0  0  0  0  0  0  0  0  0  0  0
   56.5924   27.3161   44.6685 H   0  0  0  0  0  0  0  0  0  0  0  0
  1  2  1  0
  2  3  1  0
  2  4  1  0
  4  5  2  0
  4  6  2  0
  4  7  1  0
  7  8  2  0
  8  9  1  0
  9 10  2  0
 10 11  1  0
 11 12  2  0
 12 13  1  0
 13 14  2  0
 13 15  1  0
 15 16  1  0
 16 17  2  0
 17 18  1  0
 18 19  1  0
 18 20  2  0
 20 21  1  0
 21 22  1  0
 21 23  2  0
 12  7  1  0
 23 16  1  0
  1 24  1  0
  1 25  1  0
  1 26  1  0
  2 27  1  0
  3 28  1  0
  3 29  1  0
  3 30  1  0
  8 31  1  0
  9 32  1  0
 10 33  1  0
 11 34  1  0
 17 35  1  0
 20 36  1  0
 23 37  1  0
M  CHG  1  15  -1
M  END
>  <UniqueID>  (71) 
65

>  <SMILES>  (71) 
CC(C)S(=O)(=O)c1ccccc1C(=O)[N-]c1cc(Cl)cc(Cl)c1

>  <Energy>  (71) 
41.792614337208136

>  <Genealogy>  (71) 
CC(C)S(=O)(=O)c1ccccc1C(=O)[N-]c1cc(Cl)cc(Cl)c1 (protonated)
CC(C)S(=O)(=O)c1ccccc1C(=O)[N-]c1cc(Cl)cc(Cl)c1 (3D coordinates assigned)
CC(C)S(=O)(=O)c1ccccc1C(=O)[N-]c1cc(Cl)cc(Cl)c1 (optimized conformer: 41.792614337208136 kcal/mol)

>  <smiles>  (71) 
CC(C)S(=O)(=O)c1ccccc1C(=O)Nc1cc(Cl)cc(Cl)c1

>  <score_type>  (71) 
oracle

>  <origin>  (71) 
adg

>  <m_score__min__energy>  (71) 
-9.8300000000000001

>  <m_primary>  (71) 
energy

$$$$
71:0
     RDKit          3D

 46 47  0  0  0  0  0  0  0  0999 V2000
   56.3070   29.7180   42.6420 C   0  0  0  0  0  0  0  0  0  0  0  0
   57.0760   30.2770   43.8030 C   0  0  0  0  0  0  0  0  0  0  0  0
   56.9960   31.6400   44.1050 C   0  0  0  0  0  0  0  0  0  0  0  0
   57.7430   32.1690   45.1580 C   0  0  0  0  0  0  0  0  0  0  0  0
   57.6500   33.9210   45.5300 S   0  0  0  0  0  0  0  0  0  0  0  0
   59.1640   33.8850   46.4900 C   0  0  0  0  0  0  0  0  0  0  0  0
   59.1070   33.8490   47.8860 C   0  0  0  0  0  0  0  0  0  0  0  0
   60.2860   33.8050   48.6360 C   0  0  0  0  0  0  0  0  0  0  0  0
   61.5470   33.7990   48.0010 C   0  0  0  0  0  0  0  0  0  0  0  0
   62.7720   33.7510   48.7790 N   0  0  0  0  0  0  0  0  0  0  0  0
   62.8110   34.2860   50.1460 C   0  0  0  0  0  0  0  0  0  0  0  0
   63.9920   33.1630   48.2120 C   0  0  0  0  0  0  0  0  0  0  0  0
   61.5840   33.8420   46.5910 C   0  0  0  0  0  0  0  0  0  0  0  0
   60.4020   33.8850   45.8460 C   0  0  0  0  0  0  0  0  0  0  0  0
   58.5760   31.3390   45.9140 C   0  0  0  0  0  0  0  0  0  0  0  0
   58.6990   29.9630   45.6190 C   0  0  0  0  0  0  0  0  0  0  0  0
   59.6570   29.0920   46.4570 C   0  0  0  0  0  0  0  0  0  0  0  0
   60.3960   28.0210   45.6180 C   0  0  0  0  0  0  0  0  0  0  0  0
   58.8590   28.3560   47.5550 C   0  0  0  0  0  0  0  0  0  0  0  0
   60.7270   29.9910   47.1150 C   0  0  0  0  0  0  0  0  0  0  0  0
   57.9340   29.4490   44.5430 C   0  0  0  0  0  0  0  0  0  0  0  0
   55.4701   29.1096   43.0154 H   0  0  0  0  0  0  0  0  0  0  0  0
   55.9155   30.5438   42.0298 H   0  0  0  0  0  0  0  0  0  0  0  0
   56.9717   29.0908   42.0298 H   0  0  0  0  0  0  0  0  0  0  0  0
   56.3429   32.2964   43.5112 H   0  0  0  0  0  0  0  0  0  0  0  0
   58.1323   33.8553   48.3958 H   0  0  0  0  0  0  0  0  0  0  0  0
   60.2305   33.7747   49.7342 H   0  0  0  0  0  0  0  0  0  0  0  0
   62.7505   33.4567   50.8662 H   0  0  0  0  0  0  0  0  0  0  0  0
   63.7516   34.8357   50.2979 H   0  0  0  0  0  0  0  0  0  0  0  0
   61.9601   34.9663   50.2979 H   0  0  0  0  0  0  0  0  0  0  0  0
   64.6575   32.8423   49.0270 H   0  0  0  0  0  0  0  0  0  0  0  0
   63.7263   32.2940   47.5921 H   0  0  0  0  0  0  0  0  0  0  0  0
   64.5062   33.9122   47.5921 H   0  0  0  0  0  0  0  0  0  0  0  0
   62.5540   33.8417   46.0723 H   0  0  0  0  0  0  0  0  0  0  0  0
   60.4479   33.9190   44.7475 H   0  0  0  0  0  0  0  0  0  0  0  0
   59.1456   31.7648   46.7532 H   0  0  0  0  0  0  0  0  0  0  0  0
   60.8902   27.3048   46.2909 H   0  0  0  0  0  0  0  0  0  0  0  0
   59.6722   27.4886   44.9835 H   0  0  0  0  0  0  0  0  0  0  0  0
   61.1507   28.5087   44.9835 H   0  0  0  0  0  0  0  0  0  0  0  0
   59.2116   28.6812   48.5449 H   0  0  0  0  0  0  0  0  0  0  0  0
   57.7895   28.5914   47.4512 H   0  0  0  0  0  0  0  0  0  0  0  0
   59.0074   27.2710   47.4512 H   0  0  0  0  0  0  0  0  0  0  0  0
   60.6427   29.9202   48.2095 H   0  0  0  0  0  0  0  0  0  0  0  0
   61.7279   29.6588   46.8020 H   0  0  0  0  0  0  0  0  0  0  0  0
   60.5724   31.0341   46.8020 H   0  0  0  0  0  0  0  0  0  0  0  0
   58.0139   28.3831   44.2833 H   0  0  0  0  0  0  0  0  0  0  0  0
  1  2  1  0
  2  3  2  0
  3  4  1  0
  4  5  1  0
  5  6  1  0
  6  7  2  0
  7  8  1  0
  8  9  2  0
  9 10  1  0
 10 11  1  0
 10 12  1  0
  9 13  1  0
 13 14  2  0
  4 15  2  0
 15 16  1  0
 16 17  1  0
 17 18  1  0
 17 19  1  0
 17 20  1  0
 16 21  2  0
 21  2  1  0
 14  6  1  0
  1 22  1  0
  1 23  1  0
  1 24  1  0
  3 25  1  0
  7 26  1  0
  8 27  1  0
 11 28  1  0
 11 29  1  0
 11 30  1  0
 12 31  1  0
 12 32  1  0
 12 33  1  0
 13 34  1  0
 14 35  1  0
 15 36  1  0
 18 37  1  0
 18 38  1  0
 18 39  1  0
 19 40  1  0
 19 41  1  0
 19 42  1  0
 20 43  1  0
 20 44  1  0
 20 45  1  0
 21 46  1  0
M  END
>  <UniqueID>  (72) 
66

>  <SMILES>  (72) 
Cc1cc(Sc2ccc(N(C)C)cc2)cc(C(C)(C)C)c1

>  <Energy>  (72) 
42.02335411085237

>  <Genealogy>  (72) 
Cc1cc(Sc2ccc(N(C)C)cc2)cc(C(C)(C)C)c1 (3D coordinates assigned)
Cc1cc(Sc2ccc(N(C)C)cc2)cc(C(C)(C)C)c1 (optimized conformer: 42.02335411085237 kcal/mol)

>  <smiles>  (72) 
Cc1cc(Sc2ccc(N(C)C)cc2)cc(C(C)(C)C)c1

>  <score_type>  (72) 
oracle

>  <origin>  (72) 
adg

>  <m_score__min__energy>  (72) 
-7.6299999999999999

>  <m_primary>  (72) 
energy

$$$$
72:0
     RDKit          3D

 50 54  0  0  0  0  0  0  0  0999 V2000
   56.4376   21.0555   43.8405 H   0  0  0  0  0  0  0  0  0  0  0  0
   56.2450   22.0300   44.3130 C   0  0  0  0  0  0  0  0  0  0  0  0
   56.7230   23.2020   43.7200 C   0  0  0  0  0  0  0  0  0  0  0  0
   57.2850   23.1500   42.7758 H   0  0  0  0  0  0  0  0  0  0  0  0
   56.4880   24.4400   44.3250 C   0  0  0  0  0  0  0  0  0  0  0  0
   56.8517   25.3605   43.8451 H   0  0  0  0  0  0  0  0  0  0  0  0
   55.7920   24.5160   45.5390 C   0  0  0  0  0  0  0  0  0  0  0  0
   55.5430   25.8130   46.1110 N   0  0  0  0  0  0  0  0  0  0  0  0
   56.2930   26.8710   46.0020 C   0  0  0  0  0  0  0  0  0  0  0  0
   57.4580   26.9280   46.6940 N   0  0  0  0  0  0  0  0  0  0  0  0
   58.2780   28.0130   46.6520 C   0  0  0  0  0  0  0  0  0  0  0  0
   59.4890   27.9710   47.4980 C   0  0  0  0  0  0  0  0  0  0  0  0
   60.4550   27.2130   47.2070 O   0  0  0  0  0  0  0  0  0  0  0  0
   59.5730   28.8330   48.6390 N   0  0  0  0  0  0  0  0  0  0  0  0
   60.6430   29.7480   48.9080 C   0  0  0  0  0  0  0  0  0  0  0  0
   61.3530   29.7210   50.1270 C   0  0  0  0  0  0  0  0  0  0  0  0
   61.0240   28.7500   51.0870 O   0  0  0  0  0  0  0  0  0  0  0  0
   61.1280   27.3440   50.8890 C   0  0  0  0  0  0  0  0  0  0  0  0
   61.1654   26.8380   51.8650 H   0  0  0  0  0  0  0  0  0  0  0  0
   60.2538   26.9876   50.3245 H   0  0  0  0  0  0  0  0  0  0  0  0
   62.0452   27.1201   50.3245 H   0  0  0  0  0  0  0  0  0  0  0  0
   62.3930   30.6470   50.3420 C   0  0  0  0  0  0  0  0  0  0  0  0
   62.9297   30.6510   51.3022 H   0  0  0  0  0  0  0  0  0  0  0  0
   62.7500   31.5640   49.3420 C   0  0  0  0  0  0  0  0  0  0  0  0
   62.0630   31.5530   48.1100 C   0  0  0  0  0  0  0  0  0  0  0  0
   62.4370   32.4650   47.1150 C   0  0  0  0  0  0  0  0  0  0  0  0
   61.9146   32.4701   46.1470 H   0  0  0  0  0  0  0  0  0  0  0  0
   63.4740   33.3670   47.3550 C   0  0  0  0  0  0  0  0  0  0  0  0
   63.7724   34.0876   46.5793 H   0  0  0  0  0  0  0  0  0  0  0  0
   64.1300   33.3480   48.5870 C   0  0  0  0  0  0  0  0  0  0  0  0
   64.9486   34.0565   48.7819 H   0  0  0  0  0  0  0  0  0  0  0  0
   63.7620   32.4570   49.5490 N   0  0  0  0  0  0  0  0  0  0  0  0
   64.2760   32.4690   50.4590 H   0  0  0  0  0  0  0  0  0  0  0  0
   61.0220   30.6400   47.8980 C   0  0  0  0  0  0  0  0  0  0  0  0
   60.4985   30.6239   46.9307 H   0  0  0  0  0  0  0  0  0  0  0  0
   57.9170   29.1150   45.8350 C   0  0  0  0  0  0  0  0  0  0  0  0
   58.7340   30.2500   45.6430 C   0  0  0  0  0  0  0  0  0  0  0  0
   59.7161   30.3068   46.1351 H   0  0  0  0  0  0  0  0  0  0  0  0
   58.3010   31.3030   44.8300 C   0  0  0  0  0  0  0  0  0  0  0  0
   58.9391   32.1888   44.6956 H   0  0  0  0  0  0  0  0  0  0  0  0
   57.0640   31.2350   44.1890 C   0  0  0  0  0  0  0  0  0  0  0  0
   56.7240   32.0722   43.5617 H   0  0  0  0  0  0  0  0  0  0  0  0
   56.2570   30.1070   44.3420 C   0  0  0  0  0  0  0  0  0  0  0  0
   55.2858   30.0530   43.8283 H   0  0  0  0  0  0  0  0  0  0  0  0
   56.6810   29.0440   45.1480 C   0  0  0  0  0  0  0  0  0  0  0  0
   55.9050   27.9360   45.2530 N   0  0  0  0  0  0  0  0  0  0  0  0
   55.2850   23.3350   46.1160 C   0  0  0  0  0  0  0  0  0  0  0  0
   54.7016   23.3856   47.0472 H   0  0  0  0  0  0  0  0  0  0  0  0
   55.5220   22.0980   45.5070 C   0  0  0  0  0  0  0  0  0  0  0  0
   55.1383   21.1765   45.9692 H   0  0  0  0  0  0  0  0  0  0  0  0
  1  2  1  0
  2  3  2  0
  3  4  1  0
  3  5  1  0
  5  6  1  0
  5  7  2  0
  7  8  1  0
  8  9  2  0
  9 10  1  0
 10 11  2  0
 11 12  1  0
 12 13  2  0
 12 14  1  0
 14 15  1  0
 15 16  2  0
 16 17  1  0
 17 18  1  0
 18 19  1  0
 18 20  1  0
 18 21  1  0
 16 22  1  0
 22 23  1  0
 22 24  2  0
 24 25  1  0
 25 26  1  0
 26 27  1  0
 26 28  2  0
 28 29  1  0
 28 30  1  0
 30 31  1  0
 30 32  2  0
 32 33  1  0
 25 34  2  0
 34 35  1  0
 11 36  1  0
 36 37  2  0
 37 38  1  0
 37 39  1  0
 39 40  1  0
 39 41  2  0
 41 42  1  0
 41 43  1  0
 43 44  1  0
 43 45  2  0
 45 46  1  0
  7 47  1  0
 47 48  1  0
 47 49  2  0
 49 50  1  0
 49  2  1  0
 46  9  1  0
 34 15  1  0
 45 36  1  0
 32 24  1  0
M  CHG  3  14  -1  32   1  46  -1
M  END
>  <UniqueID>  (73) 
67

>  <SMILES>  (73) 
COc1cc2[nH+]cccc2cc1[N-]C(=O)c1n/c(=N/c2ccccc2)[n-]c2ccccc12

>  <Energy>  (73) 
80.68545472974917

>  <Genealogy>  (73) 
COc1cc2[nH+]cccc2cc1[N-]C(=O)c1nc(=Nc2ccccc2)[n-]c2ccccc12 (protonated)
COc1cc2[nH+]cccc2cc1[N-]C(=O)c1n/c(=N/c2ccccc2)[n-]c2ccccc12 (cis-trans isomerization)
COc1cc2[nH+]cccc2cc1[N-]C(=O)c1n/c(=N/c2ccccc2)[n-]c2ccccc12 (3D coordinates assigned)
COc1cc2[nH+]cccc2cc1[N-]C(=O)c1n/c(=N/c2ccccc2)[n-]c2ccccc12 (optimized conformer: 80.68545472974917 kcal/mol)

>  <smiles>  (73) 
COc1cc2ncccc2cc1NC(=O)c1nc(=Nc2ccccc2)[nH]c2ccccc12

>  <score_type>  (73) 
oracle

>  <origin>  (73) 
adg

>  <m_score__min__energy>  (73) 
-10.960000000000001

>  <m_primary>  (73) 
energy

$$$$
73:0
     RDKit          3D

 47 49  0  0  0  0  0  0  0  0999 V2000
   56.5150   29.9140   43.2530 C   0  0  0  0  0  0  0  0  0  0  0  0
   56.4000   30.5060   44.5430 O   0  0  0  0  0  0  0  0  0  0  0  0
   57.3500   31.3720   45.1040 C   0  0  0  0  0  0  0  0  0  0  0  0
   58.6090   30.9240   45.5490 C   0  0  0  0  0  0  0  0  0  0  0  0
   59.5290   31.8290   46.0850 C   0  0  0  0  0  0  0  0  0  0  0  0
   59.2080   33.1890   46.1820 C   0  0  0  0  0  0  0  0  0  0  0  0
   60.4090   34.3330   46.7730 S   0  0  0  0  0  0  0  0  0  0  0  0
   59.8890   35.7300   46.5740 O   0  0  0  0  0  0  0  0  0  0  0  0
   61.6920   34.1910   46.0040 O   0  0  0  0  0  0  0  0  0  0  0  0
   60.7240   34.0350   48.4580 N   0  0  0  0  0  0  0  0  0  0  0  0
   59.6430   34.2090   49.4350 C   0  0  0  0  0  0  0  0  0  0  0  0
   59.2090   32.8730   49.9820 C   0  0  0  0  0  0  0  0  0  0  0  0
   59.4180   31.6970   49.2440 C   0  0  0  0  0  0  0  0  0  0  0  0
   58.9650   30.4670   49.7330 C   0  0  0  0  0  0  0  0  0  0  0  0
   58.3130   30.4010   50.9690 C   0  0  0  0  0  0  0  0  0  0  0  0
   58.1190   31.5630   51.7190 C   0  0  0  0  0  0  0  0  0  0  0  0
   58.5660   32.7950   51.2310 C   0  0  0  0  0  0  0  0  0  0  0  0
   62.0340   33.6270   48.8850 C   0  0  0  0  0  0  0  0  0  0  0  0
   62.6300   34.2240   50.0060 C   0  0  0  0  0  0  0  0  0  0  0  0
   63.9130   33.8440   50.4100 C   0  0  0  0  0  0  0  0  0  0  0  0
   64.6220   32.8690   49.6910 C   0  0  0  0  0  0  0  0  0  0  0  0
   65.9840   32.4340   50.1440 C   0  0  0  0  0  0  0  0  0  0  0  0
   64.0190   32.2590   48.5820 C   0  0  0  0  0  0  0  0  0  0  0  0
   62.7360   32.6410   48.1770 C   0  0  0  0  0  0  0  0  0  0  0  0
   57.9510   33.6340   45.7510 C   0  0  0  0  0  0  0  0  0  0  0  0
   57.0300   32.7290   45.2170 C   0  0  0  0  0  0  0  0  0  0  0  0
   56.7238   28.8393   43.3600 H   0  0  0  0  0  0  0  0  0  0  0  0
   55.5734   30.0514   42.7012 H   0  0  0  0  0  0  0  0  0  0  0  0
   57.3367   30.3940   42.7012 H   0  0  0  0  0  0  0  0  0  0  0  0
   58.8690   29.8578   45.4743 H   0  0  0  0  0  0  0  0  0  0  0  0
   60.5097   31.4718   46.4323 H   0  0  0  0  0  0  0  0  0  0  0  0
   60.0000   34.8406   50.2619 H   0  0  0  0  0  0  0  0  0  0  0  0
   58.7859   34.6864   48.9376 H   0  0  0  0  0  0  0  0  0  0  0  0
   59.9403   31.7430   48.2770 H   0  0  0  0  0  0  0  0  0  0  0  0
   59.1217   29.5507   49.1449 H   0  0  0  0  0  0  0  0  0  0  0  0
   57.9532   29.4339   51.3501 H   0  0  0  0  0  0  0  0  0  0  0  0
   57.6140   31.5091   52.6947 H   0  0  0  0  0  0  0  0  0  0  0  0
   58.4142   33.7073   51.8265 H   0  0  0  0  0  0  0  0  0  0  0  0
   62.0848   34.9952   50.5699 H   0  0  0  0  0  0  0  0  0  0  0  0
   64.3691   34.3111   51.2953 H   0  0  0  0  0  0  0  0  0  0  0  0
   66.0186   32.4230   51.2434 H   0  0  0  0  0  0  0  0  0  0  0  0
   66.1929   31.4244   49.7604 H   0  0  0  0  0  0  0  0  0  0  0  0
   66.7394   33.1356   49.7604 H   0  0  0  0  0  0  0  0  0  0  0  0
   64.5576   31.4762   48.0278 H   0  0  0  0  0  0  0  0  0  0  0  0
   62.2752   32.1655   47.2986 H   0  0  0  0  0  0  0  0  0  0  0  0
   57.6886   34.6991   45.8333 H   0  0  0  0  0  0  0  0  0  0  0  0
   56.0450   33.0867   44.8827 H   0  0  0  0  0  0  0  0  0  0  0  0
  1  2  1  0
  2  3  1  0
  3  4  2  0
  4  5  1  0
  5  6  2  0
  6  7  1  0
  7  8  2  0
  7  9  2  0
  7 10  1  0
 10 11  1  0
 11 12  1  0
 12 13  2  0
 13 14  1  0
 14 15  2  0
 15 16  1  0
 16 17  2  0
 10 18  1  0
 18 19  2  0
 19 20  1  0
 20 21  2  0
 21 22  1  0
 21 23  1  0
 23 24  2  0
  6 25  1  0
 25 26  2  0
 26  3  1  0
 17 12  1  0
 24 18  1  0
  1 27  1  0
  1 28  1  0
  1 29  1  0
  4 30  1  0
  5 31  1  0
 11 32  1  0
 11 33  1  0
 13 34  1  0
 14 35  1  0
 15 36  1  0
 16 37  1  0
 17 38  1  0
 19 39  1  0
 20 40  1  0
 22 41  1  0
 22 42  1  0
 22 43  1  0
 23 44  1  0
 24 45  1  0
 25 46  1  0
 26 47  1  0
M  END
>  <UniqueID>  (74) 
68

>  <SMILES>  (74) 
COc1ccc(S(=O)(=O)N(Cc2ccccc2)c2ccc(C)cc2)cc1

>  <Energy>  (74) 
49.90126121220502

>  <Genealogy>  (74) 
COc1ccc(S(=O)(=O)N(Cc2ccccc2)c2ccc(C)cc2)cc1 (3D coordinates assigned)
COc1ccc(S(=O)(=O)N(Cc2ccccc2)c2ccc(C)cc2)cc1 (optimized conformer: 49.90126121220502 kcal/mol)

>  <smiles>  (74) 
COc1ccc(S(=O)(=O)N(Cc2ccccc2)c2ccc(C)cc2)cc1

>  <score_type>  (74) 
oracle

>  <origin>  (74) 
adg

>  <m_score__min__energy>  (74) 
-8.0299999999999994

>  <m_primary>  (74) 
energy

$$$$
74:0
     RDKit          3D

 21 22  0  0  0  0  0  0  0  0999 V2000
   60.0540   34.1710   48.5010 C   0  0  0  0  0  0  0  0  0  0  0  0
   58.7990   34.2160   47.8290 O   0  0  0  0  0  0  0  0  0  0  0  0
   58.5750   33.7270   46.5330 C   0  0  0  0  0  0  0  0  0  0  0  0
   59.1090   34.3530   45.3880 C   0  0  0  0  0  0  0  0  0  0  0  0
   58.8610   33.8320   44.1150 C   0  0  0  0  0  0  0  0  0  0  0  0
   58.0770   32.6800   43.9700 C   0  0  0  0  0  0  0  0  0  0  0  0
   57.8110   32.1340   42.7070 C   0  0  0  0  0  0  0  0  0  0  0  0
   57.0250   30.9840   42.5990 C   0  0  0  0  0  0  0  0  0  0  0  0
   56.5130   30.3910   43.7560 C   0  0  0  0  0  0  0  0  0  0  0  0
   56.7770   30.9300   44.9760 N   0  0  0  0  0  0  0  0  0  0  0  0
   57.5390   32.0490   45.1130 C   0  0  0  0  0  0  0  0  0  0  0  0
   57.7920   32.5760   46.3840 C   0  0  0  0  0  0  0  0  0  0  0  0
   59.8881   34.1770   49.5884 H   0  0  0  0  0  0  0  0  0  0  0  0
   60.5894   33.2531   48.2168 H   0  0  0  0  0  0  0  0  0  0  0  0
   60.6538   35.0482   48.2168 H   0  0  0  0  0  0  0  0  0  0  0  0
   59.7251   35.2577   45.4974 H   0  0  0  0  0  0  0  0  0  0  0  0
   59.2814   34.3265   43.2269 H   0  0  0  0  0  0  0  0  0  0  0  0
   58.2199   32.6095   41.8033 H   0  0  0  0  0  0  0  0  0  0  0  0
   56.8110   30.5491   41.6115 H   0  0  0  0  0  0  0  0  0  0  0  0
   55.8941   29.4848   43.6795 H   0  0  0  0  0  0  0  0  0  0  0  0
   57.3726   32.0823   47.2730 H   0  0  0  0  0  0  0  0  0  0  0  0
  1  2  1  0
  2  3  1  0
  3  4  2  0
  4  5  1  0
  5  6  2  0
  6  7  1  0
  7  8  2  0
  8  9  1  0
  9 10  2  0
 10 11  1  0
 11 12  2  0
 12  3  1  0
 11  6  1  0
  1 13  1  0
  1 14  1  0
  1 15  1  0
  4 16  1  0
  5 17  1  0
  7 18  1  0
  8 19  1  0
  9 20  1  0
 12 21  1  0
M  END
>  <UniqueID>  (75) 
69

>  <SMILES>  (75) 
COc1ccc2cccnc2c1

>  <Energy>  (75) 
24.233816022732018

>  <Genealogy>  (75) 
COc1ccc2cccnc2c1 (3D coordinates assigned)
COc1ccc2cccnc2c1 (optimized conformer: 24.233816022732018 kcal/mol)

>  <smiles>  (75) 
COc1ccc2cccnc2c1

>  <score_type>  (75) 
oracle

>  <origin>  (75) 
adg

>  <m_score__min__energy>  (75) 
-5.2800000000000002

>  <m_primary>  (75) 
energy

$$$$
75:0
     RDKit          3D

 34 37  0  0  0  0  0  0  0  0999 V2000
   58.8198   24.6213   47.5035 H   0  0  0  0  0  0  0  0  0  0  0  0
   58.2160   25.4130   47.0360 C   0  0  0  0  0  0  0  0  0  0  0  0
   58.7420   26.7000   46.8920 C   0  0  0  0  0  0  0  0  0  0  0  0
   59.7629   26.9183   47.2386 H   0  0  0  0  0  0  0  0  0  0  0  0
   57.9720   27.7100   46.3080 C   0  0  0  0  0  0  0  0  0  0  0  0
   58.3966   28.7164   46.1777 H   0  0  0  0  0  0  0  0  0  0  0  0
   56.6620   27.4460   45.8880 C   0  0  0  0  0  0  0  0  0  0  0  0
   55.9120   28.4860   45.2390 N   0  0  0  0  0  0  0  0  0  0  0  0
   56.3770   29.4670   44.5180 C   0  0  0  0  0  0  0  0  0  0  0  0
   57.0230   30.4900   45.1510 N   0  0  0  0  0  0  0  0  0  0  0  0
   57.4830   31.5140   44.4380 N   0  0  0  0  0  0  0  0  0  0  0  0
   58.1830   32.6020   44.8020 C   0  0  0  0  0  0  0  0  0  0  0  0
   58.5950   32.9630   46.1790 C   0  0  0  0  0  0  0  0  0  0  0  0
   58.5280   31.9980   47.1990 C   0  0  0  0  0  0  0  0  0  0  0  0
   58.1669   30.9847   46.9693 H   0  0  0  0  0  0  0  0  0  0  0  0
   58.9170   32.3170   48.5030 C   0  0  0  0  0  0  0  0  0  0  0  0
   58.8526   31.5576   49.2962 H   0  0  0  0  0  0  0  0  0  0  0  0
   59.3870   33.5970   48.8010 C   0  0  0  0  0  0  0  0  0  0  0  0
   59.6872   33.8474   49.8292 H   0  0  0  0  0  0  0  0  0  0  0  0
   59.4760   34.5600   47.7930 C   0  0  0  0  0  0  0  0  0  0  0  0
   59.8535   35.5663   48.0269 H   0  0  0  0  0  0  0  0  0  0  0  0
   59.0860   34.2470   46.4870 C   0  0  0  0  0  0  0  0  0  0  0  0
   59.1630   35.0075   45.6960 H   0  0  0  0  0  0  0  0  0  0  0  0
   58.4970   33.3300   43.7040 N   0  0  0  0  0  0  0  0  0  0  0  0
   57.9890   32.7070   42.6410 N   0  0  0  0  0  0  0  0  0  0  0  0
   57.3810   31.6050   43.1120 C   0  0  0  0  0  0  0  0  0  0  0  0
   56.7290   30.6200   42.3850 C   0  0  0  0  0  0  0  0  0  0  0  0
   56.6269   30.6859   41.2917 H   0  0  0  0  0  0  0  0  0  0  0  0
   56.2050   29.5350   43.1060 C   0  0  0  0  0  0  0  0  0  0  0  0
   55.6611   28.7368   42.5796 H   0  0  0  0  0  0  0  0  0  0  0  0
   56.1510   26.1420   46.0030 C   0  0  0  0  0  0  0  0  0  0  0  0
   55.1402   25.9149   45.6332 H   0  0  0  0  0  0  0  0  0  0  0  0
   56.9230   25.1320   46.5860 C   0  0  0  0  0  0  0  0  0  0  0  0
   56.5127   24.1168   46.6903 H   0  0  0  0  0  0  0  0  0  0  0  0
  1  2  1  0
  2  3  2  0
  3  4  1  0
  3  5  1  0
  5  6  1  0
  5  7  2  0
  7  8  1  0
  8  9  2  0
  9 10  1  0
 10 11  1  0
 11 12  1  0
 12 13  1  0
 13 14  2  0
 14 15  1  0
 14 16  1  0
 16 17  1  0
 16 18  2  0
 18 19  1  0
 18 20  1  0
 20 21  1  0
 20 22  2  0
 22 23  1  0
 12 24  2  0
 24 25  1  0
 25 26  2  0
 26 27  1  0
 27 28  1  0
 27 29  2  0
 29 30  1  0
  7 31  1  0
 31 32  1  0
 31 33  2  0
 33 34  1  0
 33  2  1  0
 29  9  1  0
 26 11  1  0
 22 13  1  0
M  CHG  1  10  -1
M  END
>  <UniqueID>  (76) 
70

>  <SMILES>  (76) 
c1ccc(/N=c2\ccc3nnc(-c4ccccc4)n3[n-]2)cc1

>  <Energy>  (76) 
94.9593591810691

>  <Genealogy>  (76) 
c1ccc(N=c2ccc3nnc(-c4ccccc4)n3[n-]2)cc1 (protonated)
c1ccc(/N=c2\ccc3nnc(-c4ccccc4)n3[n-]2)cc1 (cis-trans isomerization)
c1ccc(/N=c2\ccc3nnc(-c4ccccc4)n3[n-]2)cc1 (3D coordinates assigned)
c1ccc(/N=c2\ccc3nnc(-c4ccccc4)n3[n-]2)cc1 (optimized conformer: 94.9593591810691 kcal/mol)

>  <smiles>  (76) 
c1ccc(N=c2ccc3nnc(-c4ccccc4)n3[nH]2)cc1

>  <score_type>  (76) 
oracle

>  <origin>  (76) 
adg

>  <m_score__min__energy>  (76) 
-9.9199999999999999

>  <m_primary>  (76) 
energy

$$$$
76:0
     RDKit          3D

 14 14  0  0  0  0  0  0  0  0999 V2000
   54.7690   27.4670   46.3640 H   0  0  0  0  0  0  0  0  0  0  0  0
   55.3800   26.7020   45.9980 N   0  0  0  0  0  0  0  0  0  0  0  0
   56.6580   26.8580   45.8640 C   0  0  0  0  0  0  0  0  0  0  0  0
   57.4870   25.8150   46.1520 N   0  0  0  0  0  0  0  0  0  0  0  0
   58.8350   25.9040   46.0220 C   0  0  0  0  0  0  0  0  0  0  0  0
   59.4694   25.0395   46.2675 H   0  0  0  0  0  0  0  0  0  0  0  0
   59.4150   27.0890   45.5780 C   0  0  0  0  0  0  0  0  0  0  0  0
   60.5068   27.1656   45.4680 H   0  0  0  0  0  0  0  0  0  0  0  0
   58.5990   28.1780   45.2740 C   0  0  0  0  0  0  0  0  0  0  0  0
   59.0514   29.1164   44.9209 H   0  0  0  0  0  0  0  0  0  0  0  0
   57.2010   28.0870   45.4150 C   0  0  0  0  0  0  0  0  0  0  0  0
   56.3720   29.2270   45.0990 N   0  0  0  0  0  0  0  0  0  0  0  0
   55.1510   29.0790   44.8850 O   0  0  0  0  0  0  0  0  0  0  0  0
   56.9030   30.4920   44.9910 O   0  0  0  0  0  0  0  0  0  0  0  0
  1  2  1  0
  2  3  2  0
  3  4  1  0
  4  5  1  0
  5  6  1  0
  5  7  2  0
  7  8  1  0
  7  9  1  0
  9 10  1  0
  9 11  2  0
 11 12  1  0
 12 13  2  0
 12 14  1  0
 11  3  1  0
M  CHG  3   4  -1  12   1  14  -1
M  END
>  <UniqueID>  (77) 
71

>  <SMILES>  (77) 
[H]/N=c1\[n-]cccc1[N+](=O)[O-]

>  <Energy>  (77) 
16.934625107435348

>  <Genealogy>  (77) 
N=c1[n-]cccc1[N+](=O)[O-] (protonated)
[H]/N=c1\[n-]cccc1[N+](=O)[O-] (cis-trans isomerization)
[H]/N=c1\[n-]cccc1[N+](=O)[O-] (3D coordinates assigned)
[H]/N=c1\[n-]cccc1[N+](=O)[O-] (optimized conformer: 16.934625107435348 kcal/mol)

>  <smiles>  (77) 
N=c1[nH]cccc1[N+](=O)[O-]

>  <score_type>  (77) 
oracle

>  <origin>  (77) 
adg

>  <m_score__min__energy>  (77) 
-8.0800000000000001

>  <m_primary>  (77) 
energy

$$$$
77:0
     RDKit          3D

 28 29  0  0  0  0  0  0  0  0999 V2000
   55.1590   27.4620   45.2750 H   0  0  0  0  0  0  0  0  0  0  0  0
   55.9570   26.8940   45.6380 N   0  0  0  0  0  0  0  0  0  0  0  0
   57.0540   27.4550   46.0370 C   0  0  0  0  0  0  0  0  0  0  0  0
   57.8270   27.0750   47.4930 S   0  0  0  0  0  0  0  0  0  0  0  0
   59.0380   28.2060   47.2210 C   0  0  0  0  0  0  0  0  0  0  0  0
   60.1200   28.5160   48.0420 C   0  0  0  0  0  0  0  0  0  0  0  0
   60.2758   27.9879   48.9943 H   0  0  0  0  0  0  0  0  0  0  0  0
   61.0050   29.5190   47.6220 C   0  0  0  0  0  0  0  0  0  0  0  0
   61.8697   29.7830   48.2485 H   0  0  0  0  0  0  0  0  0  0  0  0
   60.7930   30.1900   46.4030 C   0  0  0  0  0  0  0  0  0  0  0  0
   61.4922   30.9771   46.0844 H   0  0  0  0  0  0  0  0  0  0  0  0
   59.6950   29.8620   45.5900 C   0  0  0  0  0  0  0  0  0  0  0  0
   59.5282   30.3881   44.6385 H   0  0  0  0  0  0  0  0  0  0  0  0
   58.8140   28.8530   46.0100 C   0  0  0  0  0  0  0  0  0  0  0  0
   57.7030   28.4240   45.3350 N   0  0  0  0  0  0  0  0  0  0  0  0
   57.2270   28.9740   44.0580 C   0  0  0  0  0  0  0  0  0  0  0  0
   58.0306   29.5645   43.5938 H   0  0  0  0  0  0  0  0  0  0  0  0
   56.9401   28.1459   43.3933 H   0  0  0  0  0  0  0  0  0  0  0  0
   56.0390   29.8510   44.2890 C   0  0  0  0  0  0  0  0  0  0  0  0
   54.8780   29.3570   44.2570 O   0  0  0  0  0  0  0  0  0  0  0  0
   56.2290   31.2200   44.5060 O   0  0  0  0  0  0  0  0  0  0  0  0
   57.4780   31.8790   44.3100 C   0  0  0  0  0  0  0  0  0  0  0  0
   57.4382   32.8745   44.7762 H   0  0  0  0  0  0  0  0  0  0  0  0
   58.2734   31.2741   44.7699 H   0  0  0  0  0  0  0  0  0  0  0  0
   57.7770   32.0340   42.8240 C   0  0  0  0  0  0  0  0  0  0  0  0
   58.7469   32.5368   42.6956 H   0  0  0  0  0  0  0  0  0  0  0  0
   57.8133   31.0412   42.3518 H   0  0  0  0  0  0  0  0  0  0  0  0
   56.9866   32.6359   42.3518 H   0  0  0  0  0  0  0  0  0  0  0  0
  1  2  1  0
  2  3  2  0
  3  4  1  0
  4  5  1  0
  5  6  2  0
  6  7  1  0
  6  8  1  0
  8  9  1  0
  8 10  2  0
 10 11  1  0
 10 12  1  0
 12 13  1  0
 12 14  2  0
 14 15  1  0
 15 16  1  0
 16 17  1  0
 16 18  1  0
 16 19  1  0
 19 20  2  0
 19 21  1  0
 21 22  1  0
 22 23  1  0
 22 24  1  0
 22 25  1  0
 25 26  1  0
 25 27  1  0
 25 28  1  0
 15  3  1  0
 14  5  1  0
M  END
>  <UniqueID>  (78) 
72

>  <SMILES>  (78) 
[H]/N=c1\sc2ccccc2n1CC(=O)OCC

>  <Energy>  (78) 
59.205829030806086

>  <Genealogy>  (78) 
[H]/N=c1\sc2ccccc2n1CC(=O)OCC (cis-trans isomerization)
[H]/N=c1\sc2ccccc2n1CC(=O)OCC (3D coordinates assigned)
[H]/N=c1\sc2ccccc2n1CC(=O)OCC (optimized conformer: 59.205829030806086 kcal/mol)

>  <smiles>  (78) 
CCOC(=O)Cn1c(=N)sc2ccccc21

>  <score_type>  (78) 
oracle

>  <origin>  (78) 
adg

>  <m_score__min__energy>  (78) 
-5.4299999999999997

>  <m_primary>  (78) 
energy

$$$$
78:0
     RDKit          3D

 33 34  0  0  0  0  0  0  0  0999 V2000
   61.5517   34.3132   48.2536 H   0  0  0  0  0  0  0  0  0  0  0  0
   61.4640   33.4790   47.5420 C   0  0  0  0  0  0  0  0  0  0  0  0
   60.3380   33.4390   46.8000 C   0  0  0  0  0  0  0  0  0  0  0  0
   59.8500   32.2130   46.2550 N   0  0  0  0  0  0  0  0  0  0  0  0
   58.7680   32.4690   45.5810 C   0  0  0  0  0  0  0  0  0  0  0  0
   58.0220   31.4040   44.8750 C   0  0  0  0  0  0  0  0  0  0  0  0
   57.5560   31.5970   43.5630 C   0  0  0  0  0  0  0  0  0  0  0  0
   57.7365   32.5551   43.0536 H   0  0  0  0  0  0  0  0  0  0  0  0
   56.8640   30.5770   42.9020 C   0  0  0  0  0  0  0  0  0  0  0  0
   56.4956   30.7375   41.8780 H   0  0  0  0  0  0  0  0  0  0  0  0
   56.6400   29.3550   43.5400 C   0  0  0  0  0  0  0  0  0  0  0  0
   56.0906   28.5558   43.0209 H   0  0  0  0  0  0  0  0  0  0  0  0
   57.1140   29.1480   44.8380 C   0  0  0  0  0  0  0  0  0  0  0  0
   56.9418   28.1836   45.3383 H   0  0  0  0  0  0  0  0  0  0  0  0
   57.8070   30.1650   45.5020 C   0  0  0  0  0  0  0  0  0  0  0  0
   58.1858   29.9942   46.5205 H   0  0  0  0  0  0  0  0  0  0  0  0
   58.3930   33.8550   45.5930 N   0  0  0  0  0  0  0  0  0  0  0  0
   57.0980   34.4370   45.2490 C   0  0  0  0  0  0  0  0  0  0  0  0
   56.5502   34.6832   46.1706 H   0  0  0  0  0  0  0  0  0  0  0  0
   57.2525   35.3522   44.6587 H   0  0  0  0  0  0  0  0  0  0  0  0
   56.5162   33.7138   44.6587 H   0  0  0  0  0  0  0  0  0  0  0  0
   59.3990   34.4750   46.3750 C   0  0  0  0  0  0  0  0  0  0  0  0
   59.4100   35.7020   46.6510 O   0  0  0  0  0  0  0  0  0  0  0  0
   62.5710   32.5440   47.5050 N   0  0  0  0  0  0  0  0  0  0  0  0
   62.2430   31.7390   46.9190 H   0  0  0  0  0  0  0  0  0  0  0  0
   63.7570   33.0790   46.8170 C   0  0  0  0  0  0  0  0  0  0  0  0
   64.4944   33.4116   47.5624 H   0  0  0  0  0  0  0  0  0  0  0  0
   64.2008   32.2939   46.1872 H   0  0  0  0  0  0  0  0  0  0  0  0
   63.4622   33.9313   46.1872 H   0  0  0  0  0  0  0  0  0  0  0  0
   62.8790   31.9730   48.8260 C   0  0  0  0  0  0  0  0  0  0  0  0
   62.5138   32.6500   49.6123 H   0  0  0  0  0  0  0  0  0  0  0  0
   62.3862   30.9947   48.9265 H   0  0  0  0  0  0  0  0  0  0  0  0
   63.9672   31.8475   48.9265 H   0  0  0  0  0  0  0  0  0  0  0  0
  1  2  1  0
  2  3  2  0
  3  4  1  0
  4  5  2  0
  5  6  1  0
  6  7  2  0
  7  8  1  0
  7  9  1  0
  9 10  1  0
  9 11  2  0
 11 12  1  0
 11 13  1  0
 13 14  1  0
 13 15  2  0
 15 16  1  0
  5 17  1  0
 17 18  1  0
 18 19  1  0
 18 20  1  0
 18 21  1  0
 17 22  1  0
 22 23  2  0
  2 24  1  0
 24 25  1  0
 24 26  1  0
 26 27  1  0
 26 28  1  0
 26 29  1  0
 24 30  1  0
 30 31  1  0
 30 32  1  0
 30 33  1  0
 22  3  1  0
 15  6  1  0
M  CHG  1  24   1
M  END
>  <UniqueID>  (79) 
73

>  <SMILES>  (79) 
CN1C(=O)/C(=C\[NH+](C)C)N=C1c1ccccc1

>  <Energy>  (79) 
73.8607070541669

>  <Genealogy>  (79) 
CN1C(=O)C(=C[NH+](C)C)N=C1c1ccccc1 (protonated)
CN1C(=O)/C(=C\[NH+](C)C)N=C1c1ccccc1 (cis-trans isomerization)
CN1C(=O)/C(=C\[NH+](C)C)N=C1c1ccccc1 (3D coordinates assigned)
CN1C(=O)/C(=C\[NH+](C)C)N=C1c1ccccc1 (nonaromatic ring conformer: 73.8607070541669 kcal/mol)

>  <smiles>  (79) 
CN(C)C=C1N=C(c2ccccc2)N(C)C1=O

>  <score_type>  (79) 
oracle

>  <origin>  (79) 
adg

>  <m_score__min__energy>  (79) 
-5.04

>  <m_primary>  (79) 
energy

$$$$
79:0
     RDKit          3D

 46 48  0  0  0  0  0  0  0  0999 V2000
   65.3030   32.3260   50.1370 C   0  0  0  0  0  0  0  0  0  0  0  0
   65.0570   33.2100   49.0500 O   0  0  0  0  0  0  0  0  0  0  0  0
   63.7950   33.4360   48.4820 C   0  0  0  0  0  0  0  0  0  0  0  0
   63.5440   33.2690   47.1060 C   0  0  0  0  0  0  0  0  0  0  0  0
   62.2660   33.5060   46.5900 C   0  0  0  0  0  0  0  0  0  0  0  0
   61.2250   33.9060   47.4360 C   0  0  0  0  0  0  0  0  0  0  0  0
   59.6200   34.1990   46.7750 S   0  0  0  0  0  0  0  0  0  0  0  0
   58.9690   35.3490   47.4950 O   0  0  0  0  0  0  0  0  0  0  0  0
   59.7540   34.5410   45.3170 O   0  0  0  0  0  0  0  0  0  0  0  0
   58.6350   32.7680   46.9640 N   0  0  0  0  0  0  0  0  0  0  0  0
   57.9240   32.4380   45.7020 C   0  0  0  0  0  0  0  0  0  0  0  0
   58.4250   31.1530   45.0260 C   0  0  0  0  0  0  0  0  0  0  0  0
   58.4220   30.0430   45.9880 N   0  0  0  0  0  0  0  0  0  0  0  0
   58.1950   28.6860   45.5480 C   0  0  0  0  0  0  0  0  0  0  0  0
   57.8970   27.6710   46.4770 C   0  0  0  0  0  0  0  0  0  0  0  0
   57.6820   26.3590   46.0490 C   0  0  0  0  0  0  0  0  0  0  0  0
   57.7550   26.0420   44.6910 C   0  0  0  0  0  0  0  0  0  0  0  0
   58.0290   27.0410   43.7480 C   0  0  0  0  0  0  0  0  0  0  0  0
   58.1470   26.6940   42.2930 C   0  0  0  0  0  0  0  0  0  0  0  0
   58.2620   28.3560   44.1810 C   0  0  0  0  0  0  0  0  0  0  0  0
   58.7460   30.3210   47.3940 C   0  0  0  0  0  0  0  0  0  0  0  0
   59.4550   31.6720   47.5200 C   0  0  0  0  0  0  0  0  0  0  0  0
   61.4730   34.0790   48.8040 C   0  0  0  0  0  0  0  0  0  0  0  0
   62.7500   33.8420   49.3220 C   0  0  0  0  0  0  0  0  0  0  0  0
   65.1539   32.8616   51.0862 H   0  0  0  0  0  0  0  0  0  0  0  0
   64.6074   31.4756   50.0827 H   0  0  0  0  0  0  0  0  0  0  0  0
   66.3379   31.9572   50.0827 H   0  0  0  0  0  0  0  0  0  0  0  0
   64.3558   32.9512   46.4352 H   0  0  0  0  0  0  0  0  0  0  0  0
   62.0779   33.3774   45.5139 H   0  0  0  0  0  0  0  0  0  0  0  0
   56.8544   32.3166   45.9281 H   0  0  0  0  0  0  0  0  0  0  0  0
   58.1150   33.2641   45.0012 H   0  0  0  0  0  0  0  0  0  0  0  0
   57.7649   30.9047   44.1818 H   0  0  0  0  0  0  0  0  0  0  0  0
   59.4513   31.3131   44.6638 H   0  0  0  0  0  0  0  0  0  0  0  0
   57.8330   27.9131   47.5481 H   0  0  0  0  0  0  0  0  0  0  0  0
   57.4544   25.5729   46.7840 H   0  0  0  0  0  0  0  0  0  0  0  0
   57.5969   25.0047   44.3608 H   0  0  0  0  0  0  0  0  0  0  0  0
   58.4996   25.6571   42.1908 H   0  0  0  0  0  0  0  0  0  0  0  0
   57.1636   26.7961   41.8108 H   0  0  0  0  0  0  0  0  0  0  0  0
   58.8643   27.3744   41.8108 H   0  0  0  0  0  0  0  0  0  0  0  0
   58.4996   29.1372   43.4439 H   0  0  0  0  0  0  0  0  0  0  0  0
   57.8171   30.3426   47.9828 H   0  0  0  0  0  0  0  0  0  0  0  0
   59.4128   29.5311   47.7699 H   0  0  0  0  0  0  0  0  0  0  0  0
   59.6500   31.8755   48.5833 H   0  0  0  0  0  0  0  0  0  0  0  0
   60.3956   31.6224   46.9518 H   0  0  0  0  0  0  0  0  0  0  0  0
   60.6611   34.4021   49.4722 H   0  0  0  0  0  0  0  0  0  0  0  0
   62.9356   33.9755   50.3980 H   0  0  0  0  0  0  0  0  0  0  0  0
  1  2  1  0
  2  3  1  0
  3  4  2  0
  4  5  1  0
  5  6  2  0
  6  7  1  0
  7  8  2  0
  7  9  2  0
  7 10  1  0
 10 11  1  0
 11 12  1  0
 12 13  1  0
 13 14  1  0
 14 15  2  0
 15 16  1  0
 16 17  2  0
 17 18  1  0
 18 19  1  0
 18 20  2  0
 13 21  1  0
 21 22  1  0
  6 23  1  0
 23 24  2  0
 24  3  1  0
 22 10  1  0
 20 14  1  0
  1 25  1  0
  1 26  1  0
  1 27  1  0
  4 28  1  0
  5 29  1  0
 11 30  1  0
 11 31  1  0
 12 32  1  0
 12 33  1  0
 15 34  1  0
 16 35  1  0
 17 36  1  0
 19 37  1  0
 19 38  1  0
 19 39  1  0
 20 40  1  0
 21 41  1  0
 21 42  1  0
 22 43  1  0
 22 44  1  0
 23 45  1  0
 24 46  1  0
M  END
>  <UniqueID>  (80) 
74

>  <SMILES>  (80) 
COc1ccc(S(=O)(=O)N2CCN(c3cccc(C)c3)CC2)cc1

>  <Energy>  (80) 
54.11553796700851

>  <Genealogy>  (80) 
COc1ccc(S(=O)(=O)N2CCN(c3cccc(C)c3)CC2)cc1 (3D coordinates assigned)
COc1ccc(S(=O)(=O)N2CCN(c3cccc(C)c3)CC2)cc1 (nonaromatic ring conformer: 54.11553796700851 kcal/mol)

>  <smiles>  (80) 
COc1ccc(S(=O)(=O)N2CCN(c3cccc(C)c3)CC2)cc1

>  <score_type>  (80) 
oracle

>  <origin>  (80) 
adg

>  <m_score__min__energy>  (80) 
-7.8600000000000003

>  <m_primary>  (80) 
energy

$$$$
80:0
     RDKit          3D

 82 86  0  0  0  0  0  0  0  0999 V2000
   62.6210   29.7130   50.6830 C   0  0  0  0  0  0  0  0  0  0  0  0
   63.6230   30.6200   50.2390 O   0  0  0  0  0  0  0  0  0  0  0  0
   63.4380   31.5880   49.2430 C   0  0  0  0  0  0  0  0  0  0  0  0
   63.0000   31.2470   47.9480 C   0  0  0  0  0  0  0  0  0  0  0  0
   62.8500   32.2350   46.9710 C   0  0  0  0  0  0  0  0  0  0  0  0
   63.1420   33.5660   47.2700 C   0  0  0  0  0  0  0  0  0  0  0  0
   63.5790   33.9160   48.5500 C   0  0  0  0  0  0  0  0  0  0  0  0
   63.7230   32.9370   49.5440 C   0  0  0  0  0  0  0  0  0  0  0  0
   64.2050   33.3080   50.8500 N   0  0  0  0  0  0  0  0  0  0  0  0
   65.4750   32.7550   51.3340 C   0  0  0  0  0  0  0  0  0  0  0  0
   65.5140   32.6780   52.8770 C   0  0  0  0  0  0  0  0  0  0  0  0
   64.1870   32.8770   53.5040 N   0  0  0  0  0  0  0  0  0  0  0  0
   63.2430   31.7570   53.2270 C   0  0  0  0  0  0  0  0  0  0  0  0
   62.1210   31.6610   54.2790 C   0  0  0  0  0  0  0  0  0  0  0  0
   60.7390   31.9780   53.6780 C   0  0  0  0  0  0  0  0  0  0  0  0
   60.7130   31.8780   52.1390 C   0  0  0  0  0  0  0  0  0  0  0  0
   59.3260   31.9470   51.6200 N   0  0  0  0  0  0  0  0  0  0  0  0
   59.0160   33.3160   51.1320 C   0  0  0  0  0  0  0  0  0  0  0  0
   60.1290   33.8930   50.2400 C   0  0  0  0  0  0  0  0  0  0  0  0
   59.8880   33.5360   48.7950 C   0  0  0  0  0  0  0  0  0  0  0  0
   59.6410   34.5570   47.8610 C   0  0  0  0  0  0  0  0  0  0  0  0
   59.3730   34.2460   46.5290 C   0  0  0  0  0  0  0  0  0  0  0  0
   59.3450   32.9160   46.1140 C   0  0  0  0  0  0  0  0  0  0  0  0
   59.5790   31.8900   47.0310 C   0  0  0  0  0  0  0  0  0  0  0  0
   59.8370   32.1770   48.3890 C   0  0  0  0  0  0  0  0  0  0  0  0
   60.1350   31.0520   49.3860 C   0  0  2  0  0  0  0  0  0  0  0  0
   60.1860   29.7960   48.7170 O   0  0  0  0  0  0  0  0  0  0  0  0
   58.9190   29.1740   48.6420 C   0  0  0  0  0  0  0  0  0  0  0  0
   58.8550   28.2900   47.4320 C   0  0  0  0  0  0  0  0  0  0  0  0
   59.8460   27.5740   47.1300 O   0  0  0  0  0  0  0  0  0  0  0  0
   57.7030   28.3420   46.5800 N   0  0  0  0  0  0  0  0  0  0  0  0
   57.5380   29.1450   45.4030 C   0  0  0  0  0  0  0  0  0  0  0  0
   56.3080   29.1070   44.7320 C   0  0  0  0  0  0  0  0  0  0  0  0
   56.1060   29.8740   43.5810 C   0  0  0  0  0  0  0  0  0  0  0  0
   57.1400   30.6740   43.0830 C   0  0  0  0  0  0  0  0  0  0  0  0
   56.9430   31.4210   41.9670 F   0  0  0  0  0  0  0  0  0  0  0  0
   58.3790   30.6990   43.7320 C   0  0  0  0  0  0  0  0  0  0  0  0
   58.5830   29.9330   44.8850 C   0  0  0  0  0  0  0  0  0  0  0  0
   59.1070   30.9360   50.5540 C   0  0  0  0  0  0  0  0  0  0  0  0
   63.6330   34.1940   53.1110 C   0  0  0  0  0  0  0  0  0  0  0  0
   63.5610   34.4040   51.5800 C   0  0  0  0  0  0  0  0  0  0  0  0
   62.6027   29.6964   51.7827 H   0  0  0  0  0  0  0  0  0  0  0  0
   61.6400   30.0365   50.3048 H   0  0  0  0  0  0  0  0  0  0  0  0
   62.8455   28.7047   50.3048 H   0  0  0  0  0  0  0  0  0  0  0  0
   62.7750   30.1981   47.7048 H   0  0  0  0  0  0  0  0  0  0  0  0
   62.5009   31.9626   45.9641 H   0  0  0  0  0  0  0  0  0  0  0  0
   63.0281   34.3406   46.4973 H   0  0  0  0  0  0  0  0  0  0  0  0
   63.8117   34.9663   48.7797 H   0  0  0  0  0  0  0  0  0  0  0  0
   65.6025   31.7426   50.9232 H   0  0  0  0  0  0  0  0  0  0  0  0
   66.2866   33.4198   51.0033 H   0  0  0  0  0  0  0  0  0  0  0  0
   65.8935   31.6875   53.1683 H   0  0  0  0  0  0  0  0  0  0  0  0
   66.1673   33.4901   53.2288 H   0  0  0  0  0  0  0  0  0  0  0  0
   64.3420   32.9260   54.5410 H   0  0  0  0  0  0  0  0  0  0  0  0
   62.7877   31.9151   52.2382 H   0  0  0  0  0  0  0  0  0  0  0  0
   63.8162   30.8188   53.2613 H   0  0  0  0  0  0  0  0  0  0  0  0
   62.1046   30.6403   54.6887 H   0  0  0  0  0  0  0  0  0  0  0  0
   62.3279   32.4018   55.0654 H   0  0  0  0  0  0  0  0  0  0  0  0
   60.0071   31.2664   54.0878 H   0  0  0  0  0  0  0  0  0  0  0  0
   60.4953   33.0171   53.9441 H   0  0  0  0  0  0  0  0  0  0  0  0
   61.2961   32.7091   51.7157 H   0  0  0  0  0  0  0  0  0  0  0  0
   61.1466   30.9106   51.8457 H   0  0  0  0  0  0  0  0  0  0  0  0
   58.0825   33.2799   50.5513 H   0  0  0  0  0  0  0  0  0  0  0  0
   58.9220   33.9697   52.0117 H   0  0  0  0  0  0  0  0  0  0  0  0
   60.1450   34.9879   50.3443 H   0  0  0  0  0  0  0  0  0  0  0  0
   61.0931   33.4672   50.5550 H   0  0  0  0  0  0  0  0  0  0  0  0
   59.6593   35.6085   48.1835 H   0  0  0  0  0  0  0  0  0  0  0  0
   59.1833   35.0516   45.8044 H   0  0  0  0  0  0  0  0  0  0  0  0
   59.1380   32.6741   45.0611 H   0  0  0  0  0  0  0  0  0  0  0  0
   59.5622   30.8440   46.6911 H   0  0  0  0  0  0  0  0  0  0  0  0
   61.1070   31.3163   49.8281 H   0  0  0  0  0  0  0  0  0  0  0  0
   58.7562   28.5680   49.5454 H   0  0  0  0  0  0  0  0  0  0  0  0
   58.1400   29.9470   48.5673 H   0  0  0  0  0  0  0  0  0  0  0  0
   55.4967   28.4697   45.1135 H   0  0  0  0  0  0  0  0  0  0  0  0
   55.1339   29.8486   43.0668 H   0  0  0  0  0  0  0  0  0  0  0  0
   59.1942   31.3219   43.3352 H   0  0  0  0  0  0  0  0  0  0  0  0
   59.5615   29.9466   45.3874 H   0  0  0  0  0  0  0  0  0  0  0  0
   58.0947   31.0708   50.1452 H   0  0  0  0  0  0  0  0  0  0  0  0
   59.2359   29.9431   51.0095 H   0  0  0  0  0  0  0  0  0  0  0  0
   62.6163   34.2802   53.5220 H   0  0  0  0  0  0  0  0  0  0  0  0
   64.3122   34.9617   53.5102 H   0  0  0  0  0  0  0  0  0  0  0  0
   62.5049   34.4613   51.2776 H   0  0  0  0  0  0  0  0  0  0  0  0
   64.0926   35.3359   51.3370 H   0  0  0  0  0  0  0  0  0  0  0  0
  1  2  1  0
  2  3  1  0
  3  4  2  0
  4  5  1  0
  5  6  2  0
  6  7  1  0
  7  8  2  0
  8  9  1  0
  9 10  1  0
 10 11  1  0
 11 12  1  0
 12 13  1  0
 13 14  1  0
 14 15  1  0
 15 16  1  0
 16 17  1  0
 17 18  1  0
 18 19  1  0
 19 20  1  0
 20 21  2  0
 21 22  1  0
 22 23  2  0
 23 24  1  0
 24 25  2  0
 25 26  1  0
 26 27  1  0
 27 28  1  0
 28 29  1  0
 29 30  2  0
 29 31  1  0
 31 32  1  0
 32 33  2  0
 33 34  1  0
 34 35  2  0
 35 36  1  0
 35 37  1  0
 37 38  2  0
 26 39  1  0
 12 40  1  0
 40 41  1  0
  8  3  1  0
 41  9  1  0
 39 17  1  0
 25 20  1  0
 38 32  1  0
  1 42  1  0
  1 43  1  0
  1 44  1  0
  4 45  1  0
  5 46  1  0
  6 47  1  0
  7 48  1  0
 10 49  1  0
 10 50  1  0
 11 51  1  0
 11 52  1  0
 12 53  1  0
 13 54  1  0
 13 55  1  0
 14 56  1  0
 14 57  1  0
 15 58  1  0
 15 59  1  0
 16 60  1  0
 16 61  1  0
 18 62  1  0
 18 63  1  0
 19 64  1  0
 19 65  1  0
 21 66  1  0
 22 67  1  0
 23 68  1  0
 24 69  1  0
 26 70  1  1
 28 71  1  0
 28 72  1  0
 33 73  1  0
 34 74  1  0
 37 75  1  0
 38 76  1  0
 39 77  1  0
 39 78  1  0
 40 79  1  0
 40 80  1  0
 41 81  1  0
 41 82  1  0
M  CHG  2  12   1  31  -1
M  END
>  <UniqueID>  (81) 
75

>  <SMILES>  (81) 
COc1ccccc1N1CC[NH+](CCCCN2CCc3ccccc3[C@H](OCC(=O)[N-]c3ccc(F)cc3)C2)CC1

>  <Energy>  (81) 
116.60993884260233

>  <Genealogy>  (81) 
COc1ccccc1N1CC[NH+](CCCCN2CCc3ccccc3C(OCC(=O)[N-]c3ccc(F)cc3)C2)CC1 (protonated)
COc1ccccc1N1CC[NH+](CCCCN2CCc3ccccc3[C@H](OCC(=O)[N-]c3ccc(F)cc3)C2)CC1 (chirality)
COc1ccccc1N1CC[NH+](CCCCN2CCc3ccccc3[C@H](OCC(=O)[N-]c3ccc(F)cc3)C2)CC1 (3D coordinates assigned)
COc1ccccc1N1CC[NH+](CCCCN2CCc3ccccc3[C@H](OCC(=O)[N-]c3ccc(F)cc3)C2)CC1 (nonaromatic ring conformer: 116.60993884260233 kcal/mol)

>  <smiles>  (81) 
COc1ccccc1N1CCN(CCCCN2CCc3ccccc3C(OCC(=O)Nc3ccc(F)cc3)C2)CC1

>  <score_type>  (81) 
oracle

>  <origin>  (81) 
adg

>  <m_score__min__energy>  (81) 
-7.9199999999999999

>  <m_primary>  (81) 
energy

$$$$
81:0
     RDKit          3D

 30 31  0  0  0  0  0  0  0  0999 V2000
   54.7670   28.5030   44.5010 H   0  0  0  0  0  0  0  0  0  0  0  0
   55.3720   29.3510   44.5270 N   0  0  0  0  0  0  0  0  0  0  0  0
   56.5690   29.3520   45.0250 C   0  0  0  0  0  0  0  0  0  0  0  0
   57.2060   28.2960   45.6710 C   0  0  0  0  0  0  0  0  0  0  0  0
   56.7650   26.8980   45.8320 C   0  0  0  0  0  0  0  0  0  0  0  0
   55.5300   26.4970   45.6320 O   0  0  0  0  0  0  0  0  0  0  0  0
   55.4640   25.2100   45.8860 C   0  0  0  0  0  0  0  0  0  0  0  0
   54.2140   24.4030   45.7920 C   0  0  0  0  0  0  0  0  0  0  0  0
   53.8516   24.1691   46.8039 H   0  0  0  0  0  0  0  0  0  0  0  0
   53.4469   24.9768   45.2514 H   0  0  0  0  0  0  0  0  0  0  0  0
   54.4212   23.4677   45.2514 H   0  0  0  0  0  0  0  0  0  0  0  0
   56.6990   24.7400   46.2820 C   0  0  0  0  0  0  0  0  0  0  0  0
   56.9572   23.7092   46.5661 H   0  0  0  0  0  0  0  0  0  0  0  0
   57.5420   25.8290   46.2480 C   0  0  0  0  0  0  0  0  0  0  0  0
   58.6127   25.8463   46.4996 H   0  0  0  0  0  0  0  0  0  0  0  0
   58.4020   28.8540   46.1200 C   0  0  0  0  0  0  0  0  0  0  0  0
   59.5170   28.1510   46.8400 C   0  0  0  0  0  0  0  0  0  0  0  0
   60.0907   28.8871   47.4223 H   0  0  0  0  0  0  0  0  0  0  0  0
   59.0824   27.3906   47.5055 H   0  0  0  0  0  0  0  0  0  0  0  0
   60.4500   27.4590   45.8510 C   0  0  0  0  0  0  0  0  0  0  0  0
   61.2142   26.8922   46.4030 H   0  0  0  0  0  0  0  0  0  0  0  0
   59.8692   26.7716   45.2185 H   0  0  0  0  0  0  0  0  0  0  0  0
   60.9393   28.2143   45.2185 H   0  0  0  0  0  0  0  0  0  0  0  0
   58.4640   30.1440   45.7300 N   0  0  0  0  0  0  0  0  0  0  0  0
   59.2450   30.8120   45.9180 H   0  0  0  0  0  0  0  0  0  0  0  0
   57.3600   30.4430   45.0610 N   0  0  0  0  0  0  0  0  0  0  0  0
   57.0350   31.7770   44.5670 C   0  0  0  0  0  0  0  0  0  0  0  0
   56.8702   32.4533   45.4187 H   0  0  0  0  0  0  0  0  0  0  0  0
   57.8675   32.1542   43.9549 H   0  0  0  0  0  0  0  0  0  0  0  0
   56.1223   31.7291   43.9549 H   0  0  0  0  0  0  0  0  0  0  0  0
  1  2  1  0
  2  3  2  0
  3  4  1  0
  4  5  1  0
  5  6  1  0
  6  7  1  0
  7  8  1  0
  8  9  1  0
  8 10  1  0
  8 11  1  0
  7 12  2  0
 12 13  1  0
 12 14  1  0
 14 15  1  0
  4 16  2  0
 16 17  1  0
 17 18  1  0
 17 19  1  0
 17 20  1  0
 20 21  1  0
 20 22  1  0
 20 23  1  0
 16 24  1  0
 24 25  1  0
 24 26  1  0
 26 27  1  0
 27 28  1  0
 27 29  1  0
 27 30  1  0
 26  3  1  0
 14  5  2  0
M  END
>  <UniqueID>  (82) 
76

>  <SMILES>  (82) 
[H]/N=c1\c(-c2ccc(C)o2)c(CC)[nH]n1C

>  <Energy>  (82) 
86.09264290232908

>  <Genealogy>  (82) 
[H]/N=c1\c(-c2ccc(C)o2)c(CC)[nH]n1C (cis-trans isomerization)
[H]/N=c1\c(-c2ccc(C)o2)c(CC)[nH]n1C (3D coordinates assigned)
[H]/N=c1\c(-c2ccc(C)o2)c(CC)[nH]n1C (optimized conformer: 86.09264290232908 kcal/mol)

>  <smiles>  (82) 
CCc1[nH]n(C)c(=N)c1-c1ccc(C)o1

>  <score_type>  (82) 
oracle

>  <origin>  (82) 
adg

>  <m_score__min__energy>  (82) 
-5.5899999999999999

>  <m_primary>  (82) 
energy

$$$$
82:0
     RDKit          3D

 53 55  0  0  0  0  0  0  0  0999 V2000
   65.2280   33.0420   49.5970 C   0  0  0  0  0  0  0  0  0  0  0  0
   63.9350   33.3930   48.9230 C   0  0  0  0  0  0  0  0  0  0  0  0
   62.8830   33.9600   49.6580 C   0  0  0  0  0  0  0  0  0  0  0  0
   61.6800   34.2880   49.0270 C   0  0  0  0  0  0  0  0  0  0  0  0
   61.5080   34.0320   47.6600 C   0  0  0  0  0  0  0  0  0  0  0  0
   60.0290   34.5540   46.8610 S   0  0  0  0  0  0  0  0  0  0  0  0
   58.9720   34.9010   47.8730 O   0  0  0  0  0  0  0  0  0  0  0  0
   60.3190   35.7690   46.0250 O   0  0  0  0  0  0  0  0  0  0  0  0
   59.4790   33.2600   45.8410 N   0  0  0  0  0  0  0  0  0  0  0  0
   58.0270   33.0420   45.9810 C   0  0  2  0  0  0  0  0  0  0  0  0
   57.7770   32.1660   47.2220 C   0  0  0  0  0  0  0  0  0  0  0  0
   59.0820   31.6370   47.7590 C   0  0  0  0  0  0  0  0  0  0  0  0
   59.4590   31.8820   49.0900 C   0  0  0  0  0  0  0  0  0  0  0  0
   60.6370   31.3270   49.6020 C   0  0  0  0  0  0  0  0  0  0  0  0
   61.4410   30.5170   48.7930 C   0  0  0  0  0  0  0  0  0  0  0  0
   61.0640   30.2550   47.4730 C   0  0  0  0  0  0  0  0  0  0  0  0
   59.8900   30.8120   46.9560 C   0  0  0  0  0  0  0  0  0  0  0  0
   57.3970   32.4190   44.7420 C   0  0  0  0  0  0  0  0  0  0  0  0
   57.5100   32.9800   43.6190 O   0  0  0  0  0  0  0  0  0  0  0  0
   56.7340   31.1480   44.7990 N   0  0  0  0  0  0  0  0  0  0  0  0
   57.3760   29.8670   44.8480 C   0  0  0  0  0  0  0  0  0  0  0  0
   58.6930   29.7480   44.3900 C   0  0  0  0  0  0  0  0  0  0  0  0
   59.3460   28.5150   44.4410 C   0  0  0  0  0  0  0  0  0  0  0  0
   58.6790   27.3880   44.9270 C   0  0  0  0  0  0  0  0  0  0  0  0
   57.3470   27.4850   45.3480 C   0  0  0  0  0  0  0  0  0  0  0  0
   56.5250   26.0560   45.9630 S   0  0  0  0  0  0  0  0  0  0  0  0
   54.8200   26.3390   45.9890 N   0  0  0  0  0  0  0  0  0  0  0  0
   57.0080   25.7640   47.3570 O   0  0  0  0  0  0  0  0  0  0  0  0
   56.8220   24.8680   45.0930 O   0  0  0  0  0  0  0  0  0  0  0  0
   56.6940   28.7260   45.2990 C   0  0  0  0  0  0  0  0  0  0  0  0
   62.5470   33.4400   46.9290 C   0  0  0  0  0  0  0  0  0  0  0  0
   63.7500   33.1120   47.5610 C   0  0  0  0  0  0  0  0  0  0  0  0
   65.0943   33.0783   50.6882 H   0  0  0  0  0  0  0  0  0  0  0  0
   65.5337   32.0284   49.2985 H   0  0  0  0  0  0  0  0  0  0  0  0
   66.0043   33.7619   49.2985 H   0  0  0  0  0  0  0  0  0  0  0  0
   63.0056   34.1471   50.7350 H   0  0  0  0  0  0  0  0  0  0  0  0
   60.8655   34.7486   49.6052 H   0  0  0  0  0  0  0  0  0  0  0  0
   59.7660   33.4450   44.8530 H   0  0  0  0  0  0  0  0  0  0  0  0
   57.5443   34.0230   46.1018 H   0  0  0  0  0  0  0  0  0  0  0  0
   57.2826   32.7686   47.9982 H   0  0  0  0  0  0  0  0  0  0  0  0
   57.1361   31.3181   46.9388 H   0  0  0  0  0  0  0  0  0  0  0  0
   58.8259   32.5123   49.7318 H   0  0  0  0  0  0  0  0  0  0  0  0
   60.9314   31.5280   50.6426 H   0  0  0  0  0  0  0  0  0  0  0  0
   62.3697   30.0864   49.1957 H   0  0  0  0  0  0  0  0  0  0  0  0
   61.6913   29.6101   46.8401 H   0  0  0  0  0  0  0  0  0  0  0  0
   59.5971   30.6039   45.9163 H   0  0  0  0  0  0  0  0  0  0  0  0
   59.2155   30.6288   43.9885 H   0  0  0  0  0  0  0  0  0  0  0  0
   60.3877   28.4309   44.0978 H   0  0  0  0  0  0  0  0  0  0  0  0
   59.2016   26.4215   44.9792 H   0  0  0  0  0  0  0  0  0  0  0  0
   54.6480   27.1020   46.6810 H   0  0  0  0  0  0  0  0  0  0  0  0
   55.6434   28.8051   45.6153 H   0  0  0  0  0  0  0  0  0  0  0  0
   62.4157   33.2332   45.8566 H   0  0  0  0  0  0  0  0  0  0  0  0
   64.5559   32.6310   46.9873 H   0  0  0  0  0  0  0  0  0  0  0  0
  1  2  1  0
  2  3  2  0
  3  4  1  0
  4  5  2  0
  5  6  1  0
  6  7  2  0
  6  8  2  0
  6  9  1  0
  9 10  1  0
 10 11  1  0
 11 12  1  0
 12 13  2  0
 13 14  1  0
 14 15  2  0
 15 16  1  0
 16 17  2  0
 10 18  1  0
 18 19  2  0
 18 20  1  0
 20 21  1  0
 21 22  2  0
 22 23  1  0
 23 24  2  0
 24 25  1  0
 25 26  1  0
 26 27  1  0
 26 28  2  0
 26 29  2  0
 25 30  2  0
  5 31  1  0
 31 32  2  0
 32  2  1  0
 17 12  1  0
 30 21  1  0
  1 33  1  0
  1 34  1  0
  1 35  1  0
  3 36  1  0
  4 37  1  0
  9 38  1  0
 10 39  1  1
 11 40  1  0
 11 41  1  0
 13 42  1  0
 14 43  1  0
 15 44  1  0
 16 45  1  0
 17 46  1  0
 22 47  1  0
 23 48  1  0
 24 49  1  0
 27 50  1  0
 30 51  1  0
 31 52  1  0
 32 53  1  0
M  CHG  2  20  -1  27  -1
M  END
>  <UniqueID>  (83) 
77

>  <SMILES>  (83) 
Cc1ccc(S(=O)(=O)N[C@H](Cc2ccccc2)C(=O)[N-]c2cccc(S([NH-])(=O)=O)c2)cc1

>  <Energy>  (83) 
51.04818024434035

>  <Genealogy>  (83) 
Cc1ccc(S(=O)(=O)NC(Cc2ccccc2)C(=O)[N-]c2cccc(S([NH-])(=O)=O)c2)cc1 (protonated)
Cc1ccc(S(=O)(=O)N[C@H](Cc2ccccc2)C(=O)[N-]c2cccc(S([NH-])(=O)=O)c2)cc1 (chirality)
Cc1ccc(S(=O)(=O)N[C@H](Cc2ccccc2)C(=O)[N-]c2cccc(S([NH-])(=O)=O)c2)cc1 (3D coordinates assigned)
Cc1ccc(S(=O)(=O)N[C@H](Cc2ccccc2)C(=O)[N-]c2cccc(S([NH-])(=O)=O)c2)cc1 (optimized conformer: 51.04818024434035 kcal/mol)

>  <smiles>  (83) 
Cc1ccc(S(=O)(=O)NC(Cc2ccccc2)C(=O)Nc2cccc(S(N)(=O)=O)c2)cc1

>  <score_type>  (83) 
oracle

>  <origin>  (83) 
adg

>  <m_score__min__energy>  (83) 
-14.529999999999999

>  <m_primary>  (83) 
energy

$$$$
83:0
     RDKit          3D

 40 43  0  0  0  0  0  0  0  0999 V2000
   57.1820   28.5780   43.4970 N   0  0  0  0  0  0  0  0  0  0  0  0
   58.0680   28.2580   44.3770 C   0  0  0  0  0  0  0  0  0  0  0  0
   58.4470   26.9350   44.6110 C   0  0  0  0  0  0  0  0  0  0  0  0
   57.7050   25.6170   43.6700 S   0  0  0  0  0  0  0  0  0  0  0  0
   57.3110   24.2890   44.7970 C   0  0  0  0  0  0  0  0  0  0  0  0
   58.1040   23.1520   44.8530 C   0  0  0  0  0  0  0  0  0  0  0  0
   57.8430   22.0980   45.7050 C   0  0  0  0  0  0  0  0  0  0  0  0
   56.7560   22.1360   46.5530 C   0  0  0  0  0  0  0  0  0  0  0  0
   55.9660   23.2640   46.4980 C   0  0  0  0  0  0  0  0  0  0  0  0
   56.2260   24.3180   45.6460 C   0  0  0  0  0  0  0  0  0  0  0  0
   55.3090   25.4480   45.6320 C   0  0  0  0  0  0  0  0  0  0  0  0
   54.0630   25.2550   45.6200 O   0  0  0  0  0  0  0  0  0  0  0  0
   55.7300   26.7670   45.6290 O   0  0  0  0  0  0  0  0  0  0  0  0
   59.3970   26.7490   45.5860 C   0  0  0  0  0  0  0  0  0  0  0  0
   59.9360   27.7840   46.2790 N   0  0  0  0  0  0  0  0  0  0  0  0
   59.5390   29.0410   46.0170 C   0  0  0  0  0  0  0  0  0  0  0  0
   59.9410   30.2330   46.5840 C   0  0  0  0  0  0  0  0  0  0  0  0
   59.2100   31.2070   45.9370 C   0  0  0  0  0  0  0  0  0  0  0  0
   59.3290   32.6250   46.2360 C   0  0  0  0  0  0  0  0  0  0  0  0
   59.1450   33.6080   45.2890 C   0  0  0  0  0  0  0  0  0  0  0  0
   59.2630   34.9400   45.5970 C   0  0  0  0  0  0  0  0  0  0  0  0
   59.5720   35.3650   46.8730 C   0  0  0  0  0  0  0  0  0  0  0  0
   59.7620   34.3780   47.8430 C   0  0  0  0  0  0  0  0  0  0  0  0
   59.6410   33.0420   47.5240 C   0  0  0  0  0  0  0  0  0  0  0  0
   58.4090   30.6060   45.0230 N   0  0  0  0  0  0  0  0  0  0  0  0
   58.6120   29.2840   45.0730 N   0  0  0  0  0  0  0  0  0  0  0  0
   56.6490   27.8750   42.9790 H   0  0  0  0  0  0  0  0  0  0  0  0
   58.9789   23.0877   44.1894 H   0  0  0  0  0  0  0  0  0  0  0  0
   58.5070   21.2210   45.7077 H   0  0  0  0  0  0  0  0  0  0  0  0
   56.5306   21.3067   47.2396 H   0  0  0  0  0  0  0  0  0  0  0  0
   55.0909   23.3268   47.1615 H   0  0  0  0  0  0  0  0  0  0  0  0
   56.1680   27.2010   44.8240 H   0  0  0  0  0  0  0  0  0  0  0  0
   59.7322   25.7261   45.8127 H   0  0  0  0  0  0  0  0  0  0  0  0
   60.6852   30.3757   47.3814 H   0  0  0  0  0  0  0  0  0  0  0  0
   58.8967   33.3174   44.2576 H   0  0  0  0  0  0  0  0  0  0  0  0
   59.1072   35.6885   44.8061 H   0  0  0  0  0  0  0  0  0  0  0  0
   59.6646   36.4339   47.1156 H   0  0  0  0  0  0  0  0  0  0  0  0
   60.0112   34.6701   48.8738 H   0  0  0  0  0  0  0  0  0  0  0  0
   59.7954   32.2873   48.3092 H   0  0  0  0  0  0  0  0  0  0  0  0
   57.7410   31.0950   44.3820 H   0  0  0  0  0  0  0  0  0  0  0  0
  1  2  2  3
  2  3  1  0
  3  4  1  0
  4  5  1  0
  5  6  2  0
  6  7  1  0
  7  8  2  0
  8  9  1  0
  9 10  2  0
 10 11  1  0
 11 12  2  0
 11 13  1  0
  3 14  2  0
 14 15  1  0
 15 16  2  0
 16 17  1  0
 17 18  2  0
 18 19  1  0
 19 20  2  0
 20 21  1  0
 21 22  2  0
 22 23  1  0
 23 24  2  0
 18 25  1  0
 25 26  1  0
 26  2  1  0
 10  5  1  0
 26 16  1  0
 24 19  1  0
  1 27  1  0
  6 28  1  0
  7 29  1  0
  8 30  1  0
  9 31  1  0
 13 32  1  0
 14 33  1  0
 17 34  1  0
 20 35  1  0
 21 36  1  0
 22 37  1  0
 23 38  1  0
 24 39  1  0
 25 40  1  0
M  END
>  <smiles>  (84) 
N=c1c(Sc2ccccc2C(=O)O)cnc2cc(-c3ccccc3)[nH]n12

>  <score_type>  (84) 
oracle

>  <origin>  (84) 
adg

>  <m_score__min__energy>  (84) 
-8.9900000000000002

>  <m_primary>  (84) 
energy

$$$$
84:0
     RDKit          3D

 39 40  0  0  0  0  0  0  0  0999 V2000
   57.8230   28.1670   44.0750 C   0  0  0  0  0  0  0  0  0  0  0  0
   57.0490   29.2800   43.3730 C   0  0  0  0  0  0  0  0  0  0  0  0
   56.1700   30.0240   44.3440 C   0  0  0  0  0  0  0  0  0  0  0  0
   55.2010   29.4190   44.8770 O   0  0  0  0  0  0  0  0  0  0  0  0
   56.4520   31.3690   44.7560 N   0  0  0  0  0  0  0  0  0  0  0  0
   57.6550   31.8190   45.3900 C   0  0  0  0  0  0  0  0  0  0  0  0
   58.4380   30.8980   46.0950 C   0  0  0  0  0  0  0  0  0  0  0  0
   59.6070   31.3140   46.7380 C   0  0  0  0  0  0  0  0  0  0  0  0
   59.9890   32.6620   46.7040 C   0  0  0  0  0  0  0  0  0  0  0  0
   61.1890   33.0780   47.3660 N   0  0  0  0  0  0  0  0  0  0  0  0
   61.1380   33.3670   48.8010 C   0  0  0  0  0  0  0  0  0  0  0  0
   62.5370   33.6750   49.3450 C   0  0  0  0  0  0  0  0  0  0  0  0
   63.5290   32.7890   48.7030 N   0  0  0  0  0  0  0  0  0  0  0  0
   64.8280   32.8910   49.3910 C   0  0  0  0  0  0  0  0  0  0  0  0
   63.6840   33.1060   47.2630 C   0  0  0  0  0  0  0  0  0  0  0  0
   62.3520   33.4680   46.5630 C   0  0  0  0  0  0  0  0  0  0  0  0
   59.1860   33.5960   46.0300 C   0  0  0  0  0  0  0  0  0  0  0  0
   59.6250   35.2980   45.9920 Cl  0  0  0  0  0  0  0  0  0  0  0  0
   58.0180   33.1750   45.3830 C   0  0  0  0  0  0  0  0  0  0  0  0
   57.7366   28.2912   45.1645 H   0  0  0  0  0  0  0  0  0  0  0  0
   57.4077   27.1911   43.7831 H   0  0  0  0  0  0  0  0  0  0  0  0
   58.8824   28.2167   43.7831 H   0  0  0  0  0  0  0  0  0  0  0  0
   57.7629   29.9848   42.9217 H   0  0  0  0  0  0  0  0  0  0  0  0
   56.4110   28.8280   42.5993 H   0  0  0  0  0  0  0  0  0  0  0  0
   58.1321   29.8425   46.1432 H   0  0  0  0  0  0  0  0  0  0  0  0
   60.2293   30.5811   47.2725 H   0  0  0  0  0  0  0  0  0  0  0  0
   60.4858   34.2364   48.9707 H   0  0  0  0  0  0  0  0  0  0  0  0
   60.7432   32.4837   49.3244 H   0  0  0  0  0  0  0  0  0  0  0  0
   62.7901   34.7235   49.1294 H   0  0  0  0  0  0  0  0  0  0  0  0
   62.5494   33.5070   50.4320 H   0  0  0  0  0  0  0  0  0  0  0  0
   63.2070   31.7950   48.7950 H   0  0  0  0  0  0  0  0  0  0  0  0
   64.6685   32.8785   50.4793 H   0  0  0  0  0  0  0  0  0  0  0  0
   65.4629   32.0399   49.1037 H   0  0  0  0  0  0  0  0  0  0  0  0
   65.3223   33.8307   49.1037 H   0  0  0  0  0  0  0  0  0  0  0  0
   64.3711   33.9596   47.1665 H   0  0  0  0  0  0  0  0  0  0  0  0
   64.0713   32.2007   46.7726 H   0  0  0  0  0  0  0  0  0  0  0  0
   62.3213   34.5550   46.3972 H   0  0  0  0  0  0  0  0  0  0  0  0
   62.3077   32.9202   45.6102 H   0  0  0  0  0  0  0  0  0  0  0  0
   57.3823   33.9097   44.8671 H   0  0  0  0  0  0  0  0  0  0  0  0
  1  2  1  0
  2  3  1  0
  3  4  2  0
  3  5  1  0
  5  6  1  0
  6  7  2  0
  7  8  1  0
  8  9  2  0
  9 10  1  0
 10 11  1  0
 11 12  1  0
 12 13  1  0
 13 14  1  0
 13 15  1  0
 15 16  1  0
  9 17  1  0
 17 18  1  0
 17 19  2  0
 19  6  1  0
 16 10  1  0
  1 20  1  0
  1 21  1  0
  1 22  1  0
  2 23  1  0
  2 24  1  0
  7 25  1  0
  8 26  1  0
 11 27  1  0
 11 28  1  0
 12 29  1  0
 12 30  1  0
 13 31  1  0
 14 32  1  0
 14 33  1  0
 14 34  1  0
 15 35  1  0
 15 36  1  0
 16 37  1  0
 16 38  1  0
 19 39  1  0
M  CHG  2   5  -1  13   1
M  END
>  <UniqueID>  (85) 
78

>  <SMILES>  (85) 
CCC(=O)[N-]c1ccc(N2CC[NH+](C)CC2)c(Cl)c1

>  <Energy>  (85) 
50.47469261176669

>  <Genealogy>  (85) 
CCC(=O)[N-]c1ccc(N2CC[NH+](C)CC2)c(Cl)c1 (protonated)
CCC(=O)[N-]c1ccc(N2CC[NH+](C)CC2)c(Cl)c1 (3D coordinates assigned)
CCC(=O)[N-]c1ccc(N2CC[NH+](C)CC2)c(Cl)c1 (nonaromatic ring conformer: 50.47469261176669 kcal/mol)

>  <smiles>  (85) 
CCC(=O)Nc1ccc(N2CCN(C)CC2)c(Cl)c1

>  <score_type>  (85) 
oracle

>  <origin>  (85) 
adg

>  <m_score__min__energy>  (85) 
-7.7999999999999998

>  <m_primary>  (85) 
energy

$$$$
85:0
     RDKit          3D

 27 27  0  0  0  0  0  0  0  0999 V2000
   57.8410   27.7750   46.4410 C   0  0  0  0  0  0  0  0  0  0  0  0
   56.5970   27.4180   45.6370 C   0  0  0  0  0  0  0  0  0  0  0  0
   55.8950   28.6340   45.2190 N   0  0  0  0  0  0  0  0  0  0  0  0
   56.7360   29.4310   43.9210 S   0  0  0  0  0  0  0  0  0  0  0  0
   57.8220   28.5380   43.3880 O   0  0  0  0  0  0  0  0  0  0  0  0
   55.7680   29.7220   42.8100 O   0  0  0  0  0  0  0  0  0  0  0  0
   57.4180   30.9510   44.4960 C   0  0  0  0  0  0  0  0  0  0  0  0
   57.8170   31.0700   45.8310 C   0  0  0  0  0  0  0  0  0  0  0  0
   58.3710   32.2650   46.3000 C   0  0  0  0  0  0  0  0  0  0  0  0
   58.5360   33.3610   45.4320 C   0  0  0  0  0  0  0  0  0  0  0  0
   59.1040   34.6050   45.8820 N   0  0  0  0  0  0  0  0  0  0  0  0
   59.8500   34.7470   47.1280 C   0  0  0  0  0  0  0  0  0  0  0  0
   58.1360   33.2330   44.0920 C   0  0  0  0  0  0  0  0  0  0  0  0
   57.5820   32.0370   43.6260 C   0  0  0  0  0  0  0  0  0  0  0  0
   57.6143   27.7100   47.5154 H   0  0  0  0  0  0  0  0  0  0  0  0
   58.6511   27.0731   46.1940 H   0  0  0  0  0  0  0  0  0  0  0  0
   58.1556   28.7997   46.1940 H   0  0  0  0  0  0  0  0  0  0  0  0
   56.8931   26.8454   44.7456 H   0  0  0  0  0  0  0  0  0  0  0  0
   55.9252   26.8156   46.2661 H   0  0  0  0  0  0  0  0  0  0  0  0
   57.6943   30.2183   46.5163 H   0  0  0  0  0  0  0  0  0  0  0  0
   58.6795   32.3492   47.3525 H   0  0  0  0  0  0  0  0  0  0  0  0
   58.9800   35.4590   45.2930 H   0  0  0  0  0  0  0  0  0  0  0  0
   59.1675   34.6171   47.9808 H   0  0  0  0  0  0  0  0  0  0  0  0
   60.6404   33.9832   47.1712 H   0  0  0  0  0  0  0  0  0  0  0  0
   60.3045   35.7478   47.1712 H   0  0  0  0  0  0  0  0  0  0  0  0
   58.2597   34.0814   43.4028 H   0  0  0  0  0  0  0  0  0  0  0  0
   57.2741   31.9483   42.5737 H   0  0  0  0  0  0  0  0  0  0  0  0
  1  2  1  0
  2  3  1  0
  3  4  1  0
  4  5  2  0
  4  6  2  0
  4  7  1  0
  7  8  2  0
  8  9  1  0
  9 10  2  0
 10 11  1  0
 11 12  1  0
 10 13  1  0
 13 14  2  0
 14  7  1  0
  1 15  1  0
  1 16  1  0
  1 17  1  0
  2 18  1  0
  2 19  1  0
  8 20  1  0
  9 21  1  0
 11 22  1  0
 12 23  1  0
 12 24  1  0
 12 25  1  0
 13 26  1  0
 14 27  1  0
M  CHG  1   3  -1
M  END
>  <UniqueID>  (86) 
79

>  <SMILES>  (86) 
CC[N-]S(=O)(=O)c1ccc(NC)cc1

>  <Energy>  (86) 
20.725081898915285

>  <Genealogy>  (86) 
CC[N-]S(=O)(=O)c1ccc(NC)cc1 (protonated)
CC[N-]S(=O)(=O)c1ccc(NC)cc1 (3D coordinates assigned)
CC[N-]S(=O)(=O)c1ccc(NC)cc1 (optimized conformer: 20.725081898915285 kcal/mol)

>  <smiles>  (86) 
CCNS(=O)(=O)c1ccc(NC)cc1

>  <score_type>  (86) 
oracle

>  <origin>  (86) 
adg

>  <m_score__min__energy>  (86) 
-6.8700000000000001

>  <m_primary>  (86) 
energy

$$$$
86:0
     RDKit          3D

 36 39  0  0  0  0  0  0  0  0999 V2000
   64.6660   33.4510   49.6920 C   0  0  0  0  0  0  0  0  0  0  0  0
   63.3930   33.5310   48.9040 C   0  0  0  0  0  0  0  0  0  0  0  0
   63.4030   33.3110   47.5190 C   0  0  0  0  0  0  0  0  0  0  0  0
   62.2110   33.3500   46.7890 C   0  0  0  0  0  0  0  0  0  0  0  0
   60.9900   33.5970   47.4360 C   0  0  0  0  0  0  0  0  0  0  0  0
   59.7360   33.6390   46.6590 C   0  0  0  0  0  0  0  0  0  0  0  0
   58.7290   34.5120   46.8800 N   0  0  0  0  0  0  0  0  0  0  0  0
   57.8070   34.2230   45.9780 N   0  0  0  0  0  0  0  0  0  0  0  0
   58.2670   33.1940   45.2460 C   0  0  0  0  0  0  0  0  0  0  0  0
   57.5490   32.5840   44.0870 C   0  0  0  0  0  0  0  0  0  0  0  0
   57.1020   31.2400   44.4380 N   0  0  0  0  0  0  0  0  0  0  0  0
   55.8290   30.8640   44.5180 N   0  0  0  0  0  0  0  0  0  0  0  0
   55.7310   29.5620   44.7890 N   0  0  0  0  0  0  0  0  0  0  0  0
   56.9960   29.1110   44.8700 C   0  0  0  0  0  0  0  0  0  0  0  0
   57.4480   27.8170   45.1120 C   0  0  0  0  0  0  0  0  0  0  0  0
   58.8420   27.6090   45.1190 C   0  0  0  0  0  0  0  0  0  0  0  0
   59.7300   28.6860   44.8830 C   0  0  0  0  0  0  0  0  0  0  0  0
   59.2350   29.9820   44.6410 C   0  0  0  0  0  0  0  0  0  0  0  0
   57.8500   30.1460   44.6480 C   0  0  0  0  0  0  0  0  0  0  0  0
   59.4580   32.8320   45.6580 O   0  0  0  0  0  0  0  0  0  0  0  0
   60.9790   33.8000   48.8260 C   0  0  0  0  0  0  0  0  0  0  0  0
   62.1720   33.7620   49.5550 C   0  0  0  0  0  0  0  0  0  0  0  0
   64.4333   33.4656   50.7670 H   0  0  0  0  0  0  0  0  0  0  0  0
   65.1930   32.5180   49.4436 H   0  0  0  0  0  0  0  0  0  0  0  0
   65.3057   34.3107   49.4436 H   0  0  0  0  0  0  0  0  0  0  0  0
   64.3534   33.1067   47.0043 H   0  0  0  0  0  0  0  0  0  0  0  0
   62.2302   33.1862   45.7014 H   0  0  0  0  0  0  0  0  0  0  0  0
   56.8970   34.7230   45.8690 H   0  0  0  0  0  0  0  0  0  0  0  0
   56.6774   33.2037   43.8295 H   0  0  0  0  0  0  0  0  0  0  0  0
   58.2299   32.5281   43.2249 H   0  0  0  0  0  0  0  0  0  0  0  0
   56.7454   26.9897   45.2907 H   0  0  0  0  0  0  0  0  0  0  0  0
   59.2429   26.6025   45.3092 H   0  0  0  0  0  0  0  0  0  0  0  0
   60.8157   28.5091   44.8887 H   0  0  0  0  0  0  0  0  0  0  0  0
   59.9118   30.8288   44.4544 H   0  0  0  0  0  0  0  0  0  0  0  0
   60.0272   33.9898   49.3437 H   0  0  0  0  0  0  0  0  0  0  0  0
   62.1528   33.9140   50.6443 H   0  0  0  0  0  0  0  0  0  0  0  0
  1  2  1  0
  2  3  2  0
  3  4  1  0
  4  5  2  0
  5  6  1  0
  6  7  2  0
  7  8  1  0
  8  9  2  0
  9 10  1  0
 10 11  1  0
 11 12  1  0
 12 13  2  0
 13 14  1  0
 14 15  2  0
 15 16  1  0
 16 17  2  0
 17 18  1  0
 18 19  2  0
  9 20  1  0
  5 21  1  0
 21 22  2  0
 22  2  1  0
 20  6  1  0
 19 11  1  0
 19 14  1  0
  1 23  1  0
  1 24  1  0
  1 25  1  0
  3 26  1  0
  4 27  1  0
  8 28  1  0
 10 29  1  0
 10 30  1  0
 15 31  1  0
 16 32  1  0
 17 33  1  0
 18 34  1  0
 21 35  1  0
 22 36  1  0
M  CHG  1   8   1
M  END
>  <UniqueID>  (87) 
80

>  <SMILES>  (87) 
Cc1ccc(-c2n[nH+]c(Cn3nnc4ccccc43)o2)cc1

>  <Energy>  (87) 
117.30175027394542

>  <Genealogy>  (87) 
Cc1ccc(-c2n[nH+]c(Cn3nnc4ccccc43)o2)cc1 (protonated)
Cc1ccc(-c2n[nH+]c(Cn3nnc4ccccc43)o2)cc1 (3D coordinates assigned)
Cc1ccc(-c2n[nH+]c(Cn3nnc4ccccc43)o2)cc1 (optimized conformer: 117.30175027394542 kcal/mol)

>  <smiles>  (87) 
Cc1ccc(-c2nnc(Cn3nnc4ccccc43)o2)cc1

>  <score_type>  (87) 
oracle

>  <origin>  (87) 
adg

>  <m_score__min__energy>  (87) 
-7.21

>  <m_primary>  (87) 
energy

$$$$
87:0
     RDKit          3D

 26 27  0  0  0  0  0  0  0  0999 V2000
   54.2010   25.3310   46.3430 H   0  0  0  0  0  0  0  0  0  0  0  0
   55.1490   24.9700   46.0940 N   0  0  0  0  0  0  0  0  0  0  0  0
   56.1650   25.7650   46.0000 C   0  0  0  0  0  0  0  0  0  0  0  0
   57.7570   25.3240   46.3010 S   0  0  0  0  0  0  0  0  0  0  0  0
   58.3490   26.8620   45.9480 C   0  0  0  0  0  0  0  0  0  0  0  0
   59.4052   27.1675   45.9815 H   0  0  0  0  0  0  0  0  0  0  0  0
   57.2700   27.6850   45.6050 C   0  0  0  0  0  0  0  0  0  0  0  0
   57.4210   29.1160   45.2380 C   0  0  0  0  0  0  0  0  0  0  0  0
   58.1280   30.0000   46.0730 C   0  0  0  0  0  0  0  0  0  0  0  0
   58.5727   29.6290   47.0082 H   0  0  0  0  0  0  0  0  0  0  0  0
   58.2700   31.3460   45.7240 C   0  0  0  0  0  0  0  0  0  0  0  0
   58.8336   32.0248   46.3810 H   0  0  0  0  0  0  0  0  0  0  0  0
   57.6980   31.8360   44.5410 C   0  0  0  0  0  0  0  0  0  0  0  0
   57.8800   33.2790   44.1500 C   0  0  0  0  0  0  0  0  0  0  0  0
   58.6615   33.3483   43.3790 H   0  0  0  0  0  0  0  0  0  0  0  0
   56.9252   33.6631   43.7616 H   0  0  0  0  0  0  0  0  0  0  0  0
   58.2910   34.1170   45.3560 C   0  0  0  0  0  0  0  0  0  0  0  0
   58.0287   33.5821   46.2807 H   0  0  0  0  0  0  0  0  0  0  0  0
   59.3768   34.2912   45.3286 H   0  0  0  0  0  0  0  0  0  0  0  0
   57.7640   35.0822   45.3286 H   0  0  0  0  0  0  0  0  0  0  0  0
   57.0030   30.9560   43.6990 C   0  0  0  0  0  0  0  0  0  0  0  0
   56.5670   31.3276   42.7600 H   0  0  0  0  0  0  0  0  0  0  0  0
   56.8610   29.6090   44.0460 C   0  0  0  0  0  0  0  0  0  0  0  0
   56.3070   28.9297   43.3815 H   0  0  0  0  0  0  0  0  0  0  0  0
   56.0590   27.0590   45.6380 N   0  0  0  0  0  0  0  0  0  0  0  0
   55.1500   27.5100   45.3890 H   0  0  0  0  0  0  0  0  0  0  0  0
  1  2  1  0
  2  3  2  0
  3  4  1  0
  4  5  1  0
  5  6  1  0
  5  7  2  0
  7  8  1  0
  8  9  2  0
  9 10  1  0
  9 11  1  0
 11 12  1  0
 11 13  2  0
 13 14  1  0
 14 15  1  0
 14 16  1  0
 14 17  1  0
 17 18  1  0
 17 19  1  0
 17 20  1  0
 13 21  1  0
 21 22  1  0
 21 23  2  0
 23 24  1  0
  7 25  1  0
 25 26  1  0
 25  3  1  0
 23  8  1  0
M  END
>  <UniqueID>  (88) 
81

>  <SMILES>  (88) 
[H]/N=c1/[nH]c(-c2ccc(CC)cc2)cs1

>  <Energy>  (88) 
56.03910492710274

>  <Genealogy>  (88) 
[H]/N=c1/[nH]c(-c2ccc(CC)cc2)cs1 (cis-trans isomerization)
[H]/N=c1/[nH]c(-c2ccc(CC)cc2)cs1 (3D coordinates assigned)
[H]/N=c1/[nH]c(-c2ccc(CC)cc2)cs1 (optimized conformer: 56.03910492710274 kcal/mol)

>  <smiles>  (88) 
CCc1ccc(-c2csc(=N)[nH]2)cc1

>  <score_type>  (88) 
oracle

>  <origin>  (88) 
adg

>  <m_score__min__energy>  (88) 
-6.6900000000000004

>  <m_primary>  (88) 
energy

$$$$
88:0
     RDKit          3D

 39 42  0  0  0  0  0  0  0  0999 V2000
   64.8260   32.7040   49.5020 C   0  0  0  0  0  0  0  0  0  0  0  0
   63.5760   32.1020   48.9710 C   0  0  0  0  0  0  0  0  0  0  0  0
   63.3700   32.2360   47.6000 C   0  0  0  0  0  0  0  0  0  0  0  0
   62.2070   31.6760   47.1180 C   0  0  0  0  0  0  0  0  0  0  0  0
   61.2830   31.0160   47.8930 C   0  0  0  0  0  0  0  0  0  0  0  0
   60.1080   30.4910   47.1990 C   0  0  0  0  0  0  0  0  0  0  0  0
   59.9880   29.1470   47.1560 N   0  0  0  0  0  0  0  0  0  0  0  0
   58.9370   28.5660   46.5680 C   0  0  0  0  0  0  0  0  0  0  0  0
   58.7900   27.2390   46.5310 N   0  0  0  0  0  0  0  0  0  0  0  0
   57.7150   26.6660   45.9540 C   0  0  0  0  0  0  0  0  0  0  0  0
   56.7470   27.4500   45.3900 N   0  0  0  0  0  0  0  0  0  0  0  0
   56.8680   28.8100   45.4090 C   0  0  0  0  0  0  0  0  0  0  0  0
   55.8950   29.4930   44.9190 N   0  0  0  0  0  0  0  0  0  0  0  0
   57.9780   29.3780   46.0040 C   0  0  0  0  0  0  0  0  0  0  0  0
   58.0950   30.7150   46.0430 N   0  0  0  0  0  0  0  0  0  0  0  0
   59.1510   31.3370   46.6360 C   0  0  0  0  0  0  0  0  0  0  0  0
   59.2910   32.7810   46.6900 C   0  0  0  0  0  0  0  0  0  0  0  0
   59.3860   33.4980   47.8620 C   0  0  0  0  0  0  0  0  0  0  0  0
   59.5190   34.8590   47.9170 C   0  0  0  0  0  0  0  0  0  0  0  0
   59.5610   35.5510   46.7180 C   0  0  0  0  0  0  0  0  0  0  0  0
   59.4660   34.8460   45.5190 C   0  0  0  0  0  0  0  0  0  0  0  0
   59.3320   33.4760   45.4760 C   0  0  0  0  0  0  0  0  0  0  0  0
   61.4900   30.8850   49.2470 C   0  0  0  0  0  0  0  0  0  0  0  0
   62.6580   31.4420   49.7740 C   0  0  0  0  0  0  0  0  0  0  0  0
   64.8005   32.6917   50.6016 H   0  0  0  0  0  0  0  0  0  0  0  0
   65.6912   32.1238   49.1488 H   0  0  0  0  0  0  0  0  0  0  0  0
   64.9118   33.7422   49.1488 H   0  0  0  0  0  0  0  0  0  0  0  0
   64.0873   32.7539   46.9463 H   0  0  0  0  0  0  0  0  0  0  0  0
   62.0042   31.7629   46.0404 H   0  0  0  0  0  0  0  0  0  0  0  0
   57.6167   25.5705   45.9369 H   0  0  0  0  0  0  0  0  0  0  0  0
   55.9360   26.9750   44.9560 H   0  0  0  0  0  0  0  0  0  0  0  0
   55.7710   30.4800   45.2450 H   0  0  0  0  0  0  0  0  0  0  0  0
   59.3530   32.9432   48.8113 H   0  0  0  0  0  0  0  0  0  0  0  0
   59.5901   35.3852   48.8804 H   0  0  0  0  0  0  0  0  0  0  0  0
   59.6682   36.6457   46.7118 H   0  0  0  0  0  0  0  0  0  0  0  0
   59.4993   35.4048   44.5721 H   0  0  0  0  0  0  0  0  0  0  0  0
   59.2594   32.9439   44.5160 H   0  0  0  0  0  0  0  0  0  0  0  0
   60.7651   30.3628   49.8887 H   0  0  0  0  0  0  0  0  0  0  0  0
   62.8543   31.3548   50.8528 H   0  0  0  0  0  0  0  0  0  0  0  0
  1  2  1  0
  2  3  2  0
  3  4  1  0
  4  5  2  0
  5  6  1  0
  6  7  2  0
  7  8  1  0
  8  9  1  0
  9 10  2  0
 10 11  1  0
 11 12  1  0
 12 13  2  3
 12 14  1  0
 14 15  1  0
 15 16  2  0
 16 17  1  0
 17 18  2  0
 18 19  1  0
 19 20  2  0
 20 21  1  0
 21 22  2  0
  5 23  1  0
 23 24  2  0
 24  2  1  0
 16  6  1  0
 22 17  1  0
 14  8  2  0
  1 25  1  0
  1 26  1  0
  1 27  1  0
  3 28  1  0
  4 29  1  0
 10 30  1  0
 11 31  1  0
 13 32  1  0
 18 33  1  0
 19 34  1  0
 20 35  1  0
 21 36  1  0
 22 37  1  0
 23 38  1  0
 24 39  1  0
M  END
>  <smiles>  (89) 
Cc1ccc(-c2nc3nc[nH]c(=N)c3nc2-c2ccccc2)cc1

>  <score_type>  (89) 
oracle

>  <origin>  (89) 
adg

>  <m_score__min__energy>  (89) 
-8.1999999999999993

>  <m_primary>  (89) 
energy

$$$$
89:0
     RDKit          3D

 24 25  0  0  0  0  0  0  0  0999 V2000
   55.3620   29.3460   44.8400 N   0  0  0  0  0  0  0  0  0  0  0  0
   56.7880   29.2720   44.7400 C   0  0  0  0  0  0  0  0  0  0  0  0
   57.4020   28.0420   44.4660 C   0  0  0  0  0  0  0  0  0  0  0  0
   58.7930   27.9440   44.4350 C   0  0  0  0  0  0  0  0  0  0  0  0
   59.5630   29.0790   44.6870 C   0  0  0  0  0  0  0  0  0  0  0  0
   58.9580   30.2690   44.9390 N   0  0  0  0  0  0  0  0  0  0  0  0
   57.6050   30.4040   44.9550 C   0  0  0  0  0  0  0  0  0  0  0  0
   57.0600   31.6690   45.2070 O   0  0  0  0  0  0  0  0  0  0  0  0
   57.8040   32.7900   45.6060 C   0  0  0  0  0  0  0  0  0  0  0  0
   58.2900   33.7370   44.6830 C   0  0  0  0  0  0  0  0  0  0  0  0
   59.0300   34.8370   45.1280 C   0  0  0  0  0  0  0  0  0  0  0  0
   59.2960   34.9980   46.4910 C   0  0  0  0  0  0  0  0  0  0  0  0
   58.8250   34.0570   47.4100 C   0  0  0  0  0  0  0  0  0  0  0  0
   58.0850   32.9550   46.9690 C   0  0  0  0  0  0  0  0  0  0  0  0
   54.8990   30.2070   45.2080 H   0  0  0  0  0  0  0  0  0  0  0  0
   54.7480   28.5760   44.4960 H   0  0  0  0  0  0  0  0  0  0  0  0
   56.7851   27.1516   44.2749 H   0  0  0  0  0  0  0  0  0  0  0  0
   59.2775   26.9815   44.2141 H   0  0  0  0  0  0  0  0  0  0  0  0
   60.6609   29.0107   44.6817 H   0  0  0  0  0  0  0  0  0  0  0  0
   58.0868   33.6108   43.6093 H   0  0  0  0  0  0  0  0  0  0  0  0
   59.4033   35.5767   44.4045 H   0  0  0  0  0  0  0  0  0  0  0  0
   59.8759   35.8652   46.8397 H   0  0  0  0  0  0  0  0  0  0  0  0
   59.0365   34.1829   48.4821 H   0  0  0  0  0  0  0  0  0  0  0  0
   57.7216   32.2138   47.6960 H   0  0  0  0  0  0  0  0  0  0  0  0
  1  2  1  0
  2  3  2  0
  3  4  1  0
  4  5  2  0
  5  6  1  0
  6  7  2  0
  7  8  1  0
  8  9  1  0
  9 10  2  0
 10 11  1  0
 11 12  2  0
 12 13  1  0
 13 14  2  0
  7  2  1  0
 14  9  1  0
  1 15  1  0
  1 16  1  0
  3 17  1  0
  4 18  1  0
  5 19  1  0
 10 20  1  0
 11 21  1  0
 12 22  1  0
 13 23  1  0
 14 24  1  0
M  END
>  <UniqueID>  (90) 
82

>  <SMILES>  (90) 
Nc1cccnc1Oc1ccccc1

>  <Energy>  (90) 
33.66812483159505

>  <Genealogy>  (90) 
Nc1cccnc1Oc1ccccc1 (3D coordinates assigned)
Nc1cccnc1Oc1ccccc1 (optimized conformer: 33.66812483159505 kcal/mol)

>  <smiles>  (90) 
Nc1cccnc1Oc1ccccc1

>  <score_type>  (90) 
oracle

>  <origin>  (90) 
adg

>  <m_score__min__energy>  (90) 
-6.5700000000000003

>  <m_primary>  (90) 
energy

$$$$
90:0
     RDKit          3D

 38 40  0  0  0  0  0  0  0  0999 V2000
   57.6644   35.0174   45.6858 H   0  0  0  0  0  0  0  0  0  0  0  0
   57.0890   34.2300   45.1770 C   0  0  0  0  0  0  0  0  0  0  0  0
   56.2837   34.5015   44.4786 H   0  0  0  0  0  0  0  0  0  0  0  0
   57.3680   32.9450   45.4070 C   0  0  0  0  0  0  0  0  0  0  0  0
   56.6950   31.9380   44.8110 N   0  0  0  0  0  0  0  0  0  0  0  0
   57.2060   30.7910   45.2340 N   0  0  0  0  0  0  0  0  0  0  0  0
   56.7310   29.5130   44.7730 C   0  0  0  0  0  0  0  0  0  0  0  0
   55.5110   29.2270   44.9080 O   0  0  0  0  0  0  0  0  0  0  0  0
   57.6310   28.5270   44.0740 C   0  0  0  0  0  0  0  0  0  0  0  0
   57.0110   27.7771   43.5609 H   0  0  0  0  0  0  0  0  0  0  0  0
   58.2540   29.0762   43.3527 H   0  0  0  0  0  0  0  0  0  0  0  0
   58.5410   27.8260   45.0530 C   0  0  0  0  0  0  0  0  0  0  0  0
   58.0340   26.8530   45.9300 C   0  0  0  0  0  0  0  0  0  0  0  0
   56.9652   26.5944   45.9009 H   0  0  0  0  0  0  0  0  0  0  0  0
   58.8800   26.2110   46.8400 C   0  0  0  0  0  0  0  0  0  0  0  0
   58.4734   25.4581   47.5312 H   0  0  0  0  0  0  0  0  0  0  0  0
   60.2410   26.5250   46.8720 C   0  0  0  0  0  0  0  0  0  0  0  0
   60.9045   26.0242   47.5924 H   0  0  0  0  0  0  0  0  0  0  0  0
   60.7590   27.4760   45.9880 C   0  0  0  0  0  0  0  0  0  0  0  0
   61.8321   27.7168   46.0082 H   0  0  0  0  0  0  0  0  0  0  0  0
   59.9160   28.1220   45.0780 C   0  0  0  0  0  0  0  0  0  0  0  0
   60.3296   28.8642   44.3794 H   0  0  0  0  0  0  0  0  0  0  0  0
   58.1940   31.0530   46.1150 C   0  0  0  0  0  0  0  0  0  0  0  0
   58.8030   30.1730   46.7800 O   0  0  0  0  0  0  0  0  0  0  0  0
   58.3600   32.4250   46.2410 C   0  0  0  0  0  0  0  0  0  0  0  0
   59.2360   33.1060   47.0070 C   0  0  0  0  0  0  0  0  0  0  0  0
   58.8473   33.9305   47.6227 H   0  0  0  0  0  0  0  0  0  0  0  0
   60.6830   32.8180   47.0740 C   0  0  0  0  0  0  0  0  0  0  0  0
   61.6290   33.8450   46.9180 C   0  0  0  0  0  0  0  0  0  0  0  0
   61.3007   34.8737   46.7084 H   0  0  0  0  0  0  0  0  0  0  0  0
   62.9880   33.5500   47.0310 C   0  0  0  0  0  0  0  0  0  0  0  0
   63.7379   34.3428   46.8926 H   0  0  0  0  0  0  0  0  0  0  0  0
   63.3930   32.2470   47.3200 C   0  0  0  0  0  0  0  0  0  0  0  0
   64.4623   32.0029   47.4038 H   0  0  0  0  0  0  0  0  0  0  0  0
   62.4260   31.2550   47.5020 C   0  0  0  0  0  0  0  0  0  0  0  0
   62.7341   30.2258   47.7382 H   0  0  0  0  0  0  0  0  0  0  0  0
   61.1040   31.5580   47.3880 N   0  0  0  0  0  0  0  0  0  0  0  0
   60.4020   30.7980   47.5350 H   0  0  0  0  0  0  0  0  0  0  0  0
  1  2  1  0
  2  3  1  0
  2  4  2  0
  4  5  1  0
  5  6  1  0
  6  7  1  0
  7  8  2  0
  7  9  1  0
  9 10  1  0
  9 11  1  0
  9 12  1  0
 12 13  2  0
 13 14  1  0
 13 15  1  0
 15 16  1  0
 15 17  2  0
 17 18  1  0
 17 19  1  0
 19 20  1  0
 19 21  2  0
 21 22  1  0
  6 23  1  0
 23 24  2  0
 23 25  1  0
 25 26  2  0
 26 27  1  0
 26 28  1  0
 28 29  2  0
 29 30  1  0
 29 31  1  0
 31 32  1  0
 31 33  2  0
 33 34  1  0
 33 35  1  0
 35 36  1  0
 35 37  2  0
 37 38  1  0
 25  4  1  0
 37 28  1  0
 21 12  1  0
M  CHG  2   5  -1  37   1
M  END
>  <UniqueID>  (91) 
83

>  <SMILES>  (91) 
C=c1[n-]n(C(=O)Cc2ccccc2)c(=O)/c1=C\c1cccc[nH+]1

>  <Energy>  (91) 
83.08393034193224

>  <Genealogy>  (91) 
C=c1[n-]n(C(=O)Cc2ccccc2)c(=O)c1=Cc1cccc[nH+]1 (protonated)
C=c1[n-]n(C(=O)Cc2ccccc2)c(=O)/c1=C\c1cccc[nH+]1 (cis-trans isomerization)
C=c1[n-]n(C(=O)Cc2ccccc2)c(=O)/c1=C\c1cccc[nH+]1 (3D coordinates assigned)
C=c1[n-]n(C(=O)Cc2ccccc2)c(=O)/c1=C\c1cccc[nH+]1 (optimized conformer: 83.08393034193224 kcal/mol)

>  <smiles>  (91) 
C=c1[nH]n(C(=O)Cc2ccccc2)c(=O)c1=Cc1ccccn1

>  <score_type>  (91) 
oracle

>  <origin>  (91) 
adg

>  <m_score__min__energy>  (91) 
-8.5099999999999998

>  <m_primary>  (91) 
energy

$$$$
91:0
     RDKit          3D

 35 36  0  0  0  0  0  0  0  0999 V2000
   61.1780   30.7700   48.2810 C   0  0  0  0  0  0  0  0  0  0  0  0
   60.3290   29.9990   47.3140 C   0  0  0  0  0  0  0  0  0  0  0  0
   60.7650   29.7910   45.9950 C   0  0  0  0  0  0  0  0  0  0  0  0
   59.9880   29.0420   45.1070 C   0  0  0  0  0  0  0  0  0  0  0  0
   58.7730   28.4890   45.5300 C   0  0  0  0  0  0  0  0  0  0  0  0
   57.7740   27.5300   44.3870 S   0  0  0  0  0  0  0  0  0  0  0  0
   57.2540   28.9640   43.3780 C   0  0  0  0  0  0  0  0  0  0  0  0
   56.7160   30.0720   44.2390 C   0  0  0  0  0  0  0  0  0  0  0  0
   55.6020   29.9010   44.8060 O   0  0  0  0  0  0  0  0  0  0  0  0
   57.3920   31.3800   44.3870 C   0  0  0  0  0  0  0  0  0  0  0  0
   57.7300   31.9420   45.6060 C   0  0  0  0  0  0  0  0  0  0  0  0
   58.3260   33.1550   45.3250 C   0  0  0  0  0  0  0  0  0  0  0  0
   58.7900   34.1470   46.3410 C   0  0  0  0  0  0  0  0  0  0  0  0
   58.3600   33.3680   43.9970 N   0  0  0  0  0  0  0  0  0  0  0  0
   57.8050   32.2880   43.4120 C   0  0  0  0  0  0  0  0  0  0  0  0
   57.7320   32.1240   41.9250 C   0  0  0  0  0  0  0  0  0  0  0  0
   58.3480   28.6710   46.8510 C   0  0  0  0  0  0  0  0  0  0  0  0
   59.1230   29.4200   47.7410 C   0  0  0  0  0  0  0  0  0  0  0  0
   60.8906   30.5090   49.3102 H   0  0  0  0  0  0  0  0  0  0  0  0
   62.2368   30.5183   48.1209 H   0  0  0  0  0  0  0  0  0  0  0  0
   61.0292   31.8481   48.1209 H   0  0  0  0  0  0  0  0  0  0  0  0
   61.7213   30.2191   45.6599 H   0  0  0  0  0  0  0  0  0  0  0  0
   60.3316   28.8866   44.0737 H   0  0  0  0  0  0  0  0  0  0  0  0
   58.1208   29.3379   42.8133 H   0  0  0  0  0  0  0  0  0  0  0  0
   56.4561   28.6367   42.6952 H   0  0  0  0  0  0  0  0  0  0  0  0
   57.5577   31.5078   46.6019 H   0  0  0  0  0  0  0  0  0  0  0  0
   58.6050   33.7516   47.3507 H   0  0  0  0  0  0  0  0  0  0  0  0
   59.8669   34.3294   46.2102 H   0  0  0  0  0  0  0  0  0  0  0  0
   58.2398   35.0905   46.2102 H   0  0  0  0  0  0  0  0  0  0  0  0
   58.7520   34.2060   43.5140 H   0  0  0  0  0  0  0  0  0  0  0  0
   57.2954   31.1432   41.6853 H   0  0  0  0  0  0  0  0  0  0  0  0
   57.1030   32.9194   41.4988 H   0  0  0  0  0  0  0  0  0  0  0  0
   58.7440   32.1889   41.4988 H   0  0  0  0  0  0  0  0  0  0  0  0
   57.4019   28.2236   47.1896 H   0  0  0  0  0  0  0  0  0  0  0  0
   58.7870   29.5564   48.7795 H   0  0  0  0  0  0  0  0  0  0  0  0
  1  2  1  0
  2  3  2  0
  3  4  1  0
  4  5  2  0
  5  6  1  0
  6  7  1  0
  7  8  1  0
  8  9  2  0
  8 10  1  0
 10 11  1  0
 11 12  2  0
 12 13  1  0
 12 14  1  0
 14 15  1  0
 15 16  1  0
  5 17  1  0
 17 18  2  0
 18  2  1  0
 15 10  2  0
  1 19  1  0
  1 20  1  0
  1 21  1  0
  3 22  1  0
  4 23  1  0
  7 24  1  0
  7 25  1  0
 11 26  1  0
 13 27  1  0
 13 28  1  0
 13 29  1  0
 14 30  1  0
 16 31  1  0
 16 32  1  0
 16 33  1  0
 17 34  1  0
 18 35  1  0
M  END
>  <UniqueID>  (92) 
84

>  <SMILES>  (92) 
Cc1ccc(SCC(=O)c2cc(C)[nH]c2C)cc1

>  <Energy>  (92) 
54.8704255414272

>  <Genealogy>  (92) 
Cc1ccc(SCC(=O)c2cc(C)[nH]c2C)cc1 (3D coordinates assigned)
Cc1ccc(SCC(=O)c2cc(C)[nH]c2C)cc1 (optimized conformer: 54.8704255414272 kcal/mol)

>  <smiles>  (92) 
Cc1ccc(SCC(=O)c2cc(C)[nH]c2C)cc1

>  <score_type>  (92) 
oracle

>  <origin>  (92) 
adg

>  <m_score__min__energy>  (92) 
-7.2800000000000002

>  <m_primary>  (92) 
energy

$$$$
92:0
     RDKit          3D

 29 31  0  0  0  0  0  0  0  0999 V2000
   57.0240   31.1880   42.5920 C   0  0  0  0  0  0  0  0  0  0  0  0
   56.0200   30.0230   43.5630 S   0  0  0  0  0  0  0  0  0  0  0  0
   57.3450   29.6620   44.7090 C   0  0  0  0  0  0  0  0  0  0  0  0
   58.1120   28.5360   44.5320 N   0  0  0  0  0  0  0  0  0  0  0  0
   59.1360   28.2300   45.3850 C   0  0  0  0  0  0  0  0  0  0  0  0
   59.3700   29.0990   46.4380 C   0  0  0  0  0  0  0  0  0  0  0  0
   60.2960   29.1420   47.4600 C   0  0  0  0  0  0  0  0  0  0  0  0
   60.0640   30.2610   48.1930 N   0  0  0  0  0  0  0  0  0  0  0  0
   59.0210   30.8970   47.6660 N   0  0  0  0  0  0  0  0  0  0  0  0
   58.5140   32.1810   48.1380 C   0  0  0  0  0  0  0  0  0  0  0  0
   58.4990   33.1730   47.0090 C   0  0  0  0  0  0  0  0  0  0  0  0
   59.6620   33.8810   46.6750 C   0  0  0  0  0  0  0  0  0  0  0  0
   59.6430   34.7680   45.5970 C   0  0  0  0  0  0  0  0  0  0  0  0
   58.5050   34.9330   44.8710 N   0  0  0  0  0  0  0  0  0  0  0  0
   57.3670   34.2500   45.1640 C   0  0  0  0  0  0  0  0  0  0  0  0
   57.3440   33.3540   46.2340 C   0  0  0  0  0  0  0  0  0  0  0  0
   58.6020   30.2030   46.5970 C   0  0  0  0  0  0  0  0  0  0  0  0
   57.5910   30.5120   45.7510 N   0  0  0  0  0  0  0  0  0  0  0  0
   57.5878   31.8423   43.2732 H   0  0  0  0  0  0  0  0  0  0  0  0
   57.7260   30.6268   41.9578 H   0  0  0  0  0  0  0  0  0  0  0  0
   56.3653   31.7995   41.9578 H   0  0  0  0  0  0  0  0  0  0  0  0
   59.7500   27.3288   45.2406 H   0  0  0  0  0  0  0  0  0  0  0  0
   61.0850   28.3989   47.6481 H   0  0  0  0  0  0  0  0  0  0  0  0
   57.4915   32.0502   48.5219 H   0  0  0  0  0  0  0  0  0  0  0  0
   59.1678   32.5553   48.9395 H   0  0  0  0  0  0  0  0  0  0  0  0
   60.5835   33.7386   47.2585 H   0  0  0  0  0  0  0  0  0  0  0  0
   60.5492   35.3338   45.3347 H   0  0  0  0  0  0  0  0  0  0  0  0
   56.4627   34.4036   44.5569 H   0  0  0  0  0  0  0  0  0  0  0  0
   56.4266   32.7938   46.4678 H   0  0  0  0  0  0  0  0  0  0  0  0
  1  2  1  0
  2  3  1  0
  3  4  2  0
  4  5  1  0
  5  6  2  0
  6  7  1  0
  7  8  2  0
  8  9  1  0
  9 10  1  0
 10 11  1  0
 11 12  2  0
 12 13  1  0
 13 14  2  0
 14 15  1  0
 15 16  2  0
  9 17  1  0
 17 18  2  0
 18  3  1  0
 17  6  1  0
 16 11  1  0
  1 19  1  0
  1 20  1  0
  1 21  1  0
  5 22  1  0
  7 23  1  0
 10 24  1  0
 10 25  1  0
 12 26  1  0
 13 27  1  0
 15 28  1  0
 16 29  1  0
M  END
>  <UniqueID>  (93) 
85

>  <SMILES>  (93) 
CSc1ncc2cnn(Cc3ccncc3)c2n1

>  <Energy>  (93) 
68.85268924107508

>  <Genealogy>  (93) 
CSc1ncc2cnn(Cc3ccncc3)c2n1 (3D coordinates assigned)
CSc1ncc2cnn(Cc3ccncc3)c2n1 (optimized conformer: 68.85268924107508 kcal/mol)

>  <smiles>  (93) 
CSc1ncc2cnn(Cc3ccncc3)c2n1

>  <score_type>  (93) 
oracle

>  <origin>  (93) 
adg

>  <m_score__min__energy>  (93) 
-6.1299999999999999

>  <m_primary>  (93) 
energy

$$$$
93:0
     RDKit          3D

 29 31  0  0  0  0  0  0  0  0999 V2000
   55.6542   31.2417   43.2182 H   0  0  0  0  0  0  0  0  0  0  0  0
   56.2860   30.6850   43.9260 C   0  0  0  0  0  0  0  0  0  0  0  0
   57.0200   31.2370   44.9100 N   0  0  0  0  0  0  0  0  0  0  0  0
   57.6190   30.1860   45.5110 C   0  0  0  0  0  0  0  0  0  0  0  0
   58.5410   30.3580   46.6780 C   0  0  0  0  0  0  0  0  0  0  0  0
   57.9721   30.2519   47.6135 H   0  0  0  0  0  0  0  0  0  0  0  0
   59.3288   29.5913   46.6390 H   0  0  0  0  0  0  0  0  0  0  0  0
   58.9994   31.3572   46.6390 H   0  0  0  0  0  0  0  0  0  0  0  0
   57.2890   29.0000   44.9420 N   0  0  0  0  0  0  0  0  0  0  0  0
   57.7270   27.6730   45.3040 C   0  0  0  0  0  0  0  0  0  0  0  0
   56.8730   26.6120   45.3320 N   0  0  0  0  0  0  0  0  0  0  0  0
   57.4900   25.4720   45.7010 C   0  0  0  0  0  0  0  0  0  0  0  0
   56.8630   24.3320   45.7500 N   0  0  0  0  0  0  0  0  0  0  0  0
   56.9840   23.2500   44.8150 C   0  0  0  0  0  0  0  0  0  0  0  0
   56.3700   23.2840   43.5520 C   0  0  0  0  0  0  0  0  0  0  0  0
   55.7444   24.1428   43.2672 H   0  0  0  0  0  0  0  0  0  0  0  0
   56.5540   22.2280   42.6590 C   0  0  0  0  0  0  0  0  0  0  0  0
   56.0619   22.2405   41.6753 H   0  0  0  0  0  0  0  0  0  0  0  0
   57.3690   21.1550   43.0260 C   0  0  0  0  0  0  0  0  0  0  0  0
   57.5131   20.3127   42.3333 H   0  0  0  0  0  0  0  0  0  0  0  0
   57.9850   21.1500   44.2390 N   0  0  0  0  0  0  0  0  0  0  0  0
   58.6020   20.3460   44.4950 H   0  0  0  0  0  0  0  0  0  0  0  0
   57.8190   22.1700   45.1260 C   0  0  0  0  0  0  0  0  0  0  0  0
   58.3440   22.1452   46.0923 H   0  0  0  0  0  0  0  0  0  0  0  0
   59.1340   25.7220   45.9850 S   0  0  0  0  0  0  0  0  0  0  0  0
   59.0480   27.3670   45.6440 C   0  0  0  0  0  0  0  0  0  0  0  0
   59.8860   28.0786   45.6820 H   0  0  0  0  0  0  0  0  0  0  0  0
   56.4460   29.3190   43.9400 C   0  0  0  0  0  0  0  0  0  0  0  0
   55.9674   28.6079   43.2507 H   0  0  0  0  0  0  0  0  0  0  0  0
  1  2  1  0
  2  3  1  0
  3  4  2  0
  4  5  1  0
  5  6  1  0
  5  7  1  0
  5  8  1  0
  4  9  1  0
  9 10  1  0
 10 11  1  0
 11 12  1  0
 12 13  2  0
 13 14  1  0
 14 15  2  0
 15 16  1  0
 15 17  1  0
 17 18  1  0
 17 19  2  0
 19 20  1  0
 19 21  1  0
 21 22  1  0
 21 23  2  0
 23 24  1  0
 12 25  1  0
 25 26  1  0
 26 27  1  0
  9 28  1  0
 28 29  1  0
 28  2  2  0
 26 10  2  0
 23 14  1  0
M  CHG  2  11  -1  21   1
M  END
>  <UniqueID>  (94) 
86

>  <SMILES>  (94) 
Cc1nccn1-c1cs/c(=N\c2ccc[nH+]c2)[n-]1

>  <Energy>  (94) 
98.98937139635592

>  <Genealogy>  (94) 
Cc1nccn1-c1csc(=Nc2ccc[nH+]c2)[n-]1 (protonated)
Cc1nccn1-c1cs/c(=N\c2ccc[nH+]c2)[n-]1 (cis-trans isomerization)
Cc1nccn1-c1cs/c(=N\c2ccc[nH+]c2)[n-]1 (3D coordinates assigned)
Cc1nccn1-c1cs/c(=N\c2ccc[nH+]c2)[n-]1 (optimized conformer: 98.98937139635592 kcal/mol)

>  <smiles>  (94) 
Cc1nccn1-c1csc(=Nc2cccnc2)[nH]1

>  <score_type>  (94) 
oracle

>  <origin>  (94) 
adg

>  <m_score__min__energy>  (94) 
-6.46

>  <m_primary>  (94) 
energy

$$$$
