0:0
     RDKit          3D

 76 80  0  0  1  0  0  0  0  0999 V2000
   68.6440   34.1880   50.5070 C   0  0  0  0  0  0  0  0  0  0  0  0
   68.1810   32.8960   50.7960 O   0  0  0  0  0  0  0  0  0  0  0  0
   67.0950   32.9370   51.6740 C   0  0  0  0  0  0  0  0  0  0  0  0
   65.7950   33.0970   51.0150 C   0  0  0  0  0  0  0  0  0  0  0  0
   64.8700   34.0360   51.4440 C   0  0  0  0  0  0  0  0  0  0  0  0
   63.6690   34.1280   50.7810 C   0  0  0  0  0  0  0  0  0  0  0  0
   63.3810   33.3000   49.7020 C   0  0  0  0  0  0  0  0  0  0  0  0
   62.1370   33.3900   48.9940 N   0  0  0  0  0  0  0  0  0  0  0  0
   62.0400   33.4610   47.5930 C   0  0  0  0  0  0  0  0  0  0  0  0
   63.0640   33.4480   46.8490 O   0  0  0  0  0  0  0  0  0  0  0  0
   60.7500   33.5540   46.9130 C   0  0  0  0  0  0  0  0  0  0  0  0
   60.4280   34.7480   46.2860 C   0  0  0  0  0  0  0  0  0  0  0  0
   59.2110   34.9200   45.6160 C   0  0  0  0  0  0  0  0  0  0  0  0
   58.3050   33.8600   45.5820 C   0  0  0  0  0  0  0  0  0  0  0  0
   56.9910   33.9690   44.8890 C   0  0  0  0  0  0  0  0  0  0  0  0
   58.6040   32.6710   46.1960 C   0  0  0  0  0  0  0  0  0  0  0  0
   57.7830   31.5240   46.2050 N   0  0  0  0  0  0  0  0  0  0  0  0
   58.2660   30.3880   45.8670 C   0  0  0  0  0  0  0  0  0  0  0  0
   58.0260   30.0150   44.5710 N   0  0  0  0  0  0  0  0  0  0  0  0
   58.5180   28.8190   44.1280 C   0  0  0  0  0  0  0  0  0  0  0  0
   59.2230   28.0270   44.9460 N   0  0  0  0  0  0  0  0  0  0  0  0
   59.4550   28.3970   46.2120 C   0  0  0  0  0  0  0  0  0  0  0  0
   60.1770   27.5350   47.0090 C   0  0  0  0  0  0  0  0  0  0  0  0
   60.6480   26.4090   46.6040 N   0  0  0  0  0  0  0  0  0  0  0  0
   60.3840   27.9310   48.2780 N   0  0  0  0  0  0  0  0  0  0  0  0
   59.9280   29.0920   48.7820 C   0  0  0  0  0  0  0  0  0  0  0  0
   60.2390   29.3570   50.1450 N   0  0  0  0  0  0  0  0  0  0  0  0
   59.2300   29.4990   51.1830 C   0  0  0  0  0  0  0  0  0  0  0  0
   59.6370   30.4470   52.2670 C   0  0  0  0  0  0  0  0  0  0  0  0
   60.5600   31.4200   51.7800 N   0  0  0  0  0  0  0  0  0  0  0  0
   60.8950   32.4660   52.6840 C   0  0  0  0  0  0  0  0  0  0  0  0
   60.4030   33.8320   52.3240 C   0  0  0  0  0  0  0  0  0  0  0  0
   59.2270   33.7010   51.3650 C   0  0  0  0  0  0  0  0  0  0  0  0
   59.6620   33.3800   50.0900 O   0  0  0  0  0  0  0  0  0  0  0  0
   61.7920   30.8820   51.2580 C   0  0  0  0  0  0  0  0  0  0  0  0
   61.6300   29.5380   50.5990 C   0  0  0  0  0  0  0  0  0  0  0  0
   59.2100   29.9670   48.0150 N   0  0  0  0  0  0  0  0  0  0  0  0
   58.9860   29.5970   46.7310 C   0  0  0  0  0  0  0  0  0  0  0  0
   59.8350   32.5490   46.8540 C   0  0  0  0  0  0  0  0  0  0  0  0
   64.3030   32.3490   49.2590 C   0  0  0  0  0  0  0  0  0  0  0  0
   65.5210   32.2580   49.9320 C   0  0  0  0  0  0  0  0  0  0  0  0
   68.8371   34.7269   51.4463 H   0  0  0  0  0  0  0  0  0  0  0  0
   69.5745   34.1222   49.9240 H   0  0  0  0  0  0  0  0  0  0  0  0
   67.8835   34.7282   49.9240 H   0  0  0  0  0  0  0  0  0  0  0  0
   67.0784   31.9977   52.2462 H   0  0  0  0  0  0  0  0  0  0  0  0
   67.2372   33.8220   52.3116 H   0  0  0  0  0  0  0  0  0  0  0  0
   65.0922   34.6939   52.2971 H   0  0  0  0  0  0  0  0  0  0  0  0
   62.9245   34.8682   51.1094 H   0  0  0  0  0  0  0  0  0  0  0  0
   61.2830   33.3970   49.6250 H   0  0  0  0  0  0  0  0  0  0  0  0
   61.1464   35.5805   46.3158 H   0  0  0  0  0  0  0  0  0  0  0  0
   58.9732   35.8750   45.1246 H   0  0  0  0  0  0  0  0  0  0  0  0
   56.1867   34.0357   45.6364 H   0  0  0  0  0  0  0  0  0  0  0  0
   56.9822   34.8710   44.2594 H   0  0  0  0  0  0  0  0  0  0  0  0
   56.8337   33.0808   44.2594 H   0  0  0  0  0  0  0  0  0  0  0  0
   57.4790   30.6270   43.9330 H   0  0  0  0  0  0  0  0  0  0  0  0
   58.3332   28.5043   43.0903 H   0  0  0  0  0  0  0  0  0  0  0  0
   60.5050   26.0640   45.6330 H   0  0  0  0  0  0  0  0  0  0  0  0
   60.9270   27.2710   48.8790 H   0  0  0  0  0  0  0  0  0  0  0  0
   58.3027   29.8703   50.7223 H   0  0  0  0  0  0  0  0  0  0  0  0
   59.0911   28.5104   51.6449 H   0  0  0  0  0  0  0  0  0  0  0  0
   58.7425   30.9604   52.6495 H   0  0  0  0  0  0  0  0  0  0  0  0
   60.1257   29.8725   53.0677 H   0  0  0  0  0  0  0  0  0  0  0  0
   60.4762   32.2067   53.6675 H   0  0  0  0  0  0  0  0  0  0  0  0
   61.9927   32.5332   52.6631 H   0  0  0  0  0  0  0  0  0  0  0  0
   60.0795   34.3587   53.2339 H   0  0  0  0  0  0  0  0  0  0  0  0
   61.2115   34.4026   51.8435 H   0  0  0  0  0  0  0  0  0  0  0  0
   58.5545   32.9090   51.7261 H   0  0  0  0  0  0  0  0  0  0  0  0
   58.6985   34.6648   51.3236 H   0  0  0  0  0  0  0  0  0  0  0  0
   59.7810   32.4060   50.0360 H   0  0  0  0  0  0  0  0  0  0  0  0
   62.1929   31.5876   50.5154 H   0  0  0  0  0  0  0  0  0  0  0  0
   62.4715   30.7434   52.1119 H   0  0  0  0  0  0  0  0  0  0  0  0
   62.3058   29.4741   49.7334 H   0  0  0  0  0  0  0  0  0  0  0  0
   61.8752   28.7501   51.3264 H   0  0  0  0  0  0  0  0  0  0  0  0
   60.0730   31.5947   47.3466 H   0  0  0  0  0  0  0  0  0  0  0  0
   64.0756   31.6925   48.4062 H   0  0  0  0  0  0  0  0  0  0  0  0
   66.2707   31.5211   49.6081 H   0  0  0  0  0  0  0  0  0  0  0  0
  1  2  1  0
  2  3  1  0
  3  4  1  0
  4  5  2  0
  5  6  1  0
  6  7  2  0
  7  8  1  0
  8  9  1  0
  9 10  2  0
  9 11  1  0
 11 12  2  0
 12 13  1  0
 13 14  2  0
 14 15  1  0
 14 16  1  0
 16 17  1  0
 17 18  2  0
 18 19  1  0
 19 20  1  0
 20 21  2  0
 21 22  1  0
 22 23  1  0
 23 24  2  3
 23 25  1  0
 25 26  1  0
 26 27  1  0
 27 28  1  0
 28 29  1  0
 29 30  1  0
 30 31  1  0
 31 32  1  0
 32 33  1  0
 33 34  1  0
 30 35  1  0
 35 36  1  0
 26 37  2  0
 37 38  1  0
 16 39  2  0
  7 40  1  0
 40 41  2  0
 41  4  1  0
 39 11  1  0
 38 18  1  0
 38 22  2  0
 36 27  1  0
  1 42  1  0
  1 43  1  0
  1 44  1  0
  3 45  1  0
  3 46  1  0
  5 47  1  0
  6 48  1  0
  8 49  1  0
 12 50  1  0
 13 51  1  0
 15 52  1  0
 15 53  1  0
 15 54  1  0
 19 55  1  0
 20 56  1  0
 24 57  1  0
 25 58  1  0
 28 59  1  0
 28 60  1  0
 29 61  1  0
 29 62  1  0
 31 63  1  0
 31 64  1  0
 32 65  1  0
 32 66  1  0
 33 67  1  0
 33 68  1  0
 34 69  1  0
 35 70  1  0
 35 71  1  0
 36 72  1  0
 36 73  1  0
 39 74  1  0
 40 75  1  0
 41 76  1  0
M  END
>  <smiles>  (1) 
COCc1ccc(NC(=O)c2ccc(C)c(N=c3[nH]cnc4c(=N)[nH]c(N5CCN(CCCO)CC5)nc34)c2)cc1

>  <score_type>  (1) 
oracle

>  <origin>  (1) 
adg

>  <m_score__min__energy>  (1) 
-10.33

>  <m_primary>  (1) 
energy

$$$$
1:0
     RDKit          3D

 40 41  0  0  0  0  0  0  0  0999 V2000
   59.6400   35.1660   45.7830 C   0  0  0  0  0  0  0  0  0  0  0  0
   58.5820   34.6260   44.8260 C   0  0  0  0  0  0  0  0  0  0  0  0
   57.4130   33.9970   45.5900 C   0  0  0  0  0  0  0  0  0  0  0  0
   57.8450   32.7260   46.2590 C   0  0  0  0  0  0  0  0  0  0  0  0
   58.4210   32.7440   47.5370 C   0  0  0  0  0  0  0  0  0  0  0  0
   58.8340   31.5340   48.1000 C   0  0  0  0  0  0  0  0  0  0  0  0
   59.3520   31.5140   49.2480 O   0  0  0  0  0  0  0  0  0  0  0  0
   58.6780   30.3770   47.4070 N   0  0  0  0  0  0  0  0  0  0  0  0
   58.1250   30.3770   46.1660 C   0  0  0  0  0  0  0  0  0  0  0  0
   57.9280   28.8370   45.2780 S   0  0  0  0  0  0  0  0  0  0  0  0
   59.2770   28.0130   46.1830 C   0  0  0  0  0  0  0  0  0  0  0  0
   58.8990   26.5840   46.4440 C   0  0  0  0  0  0  0  0  0  0  0  0
   59.7620   25.6820   46.2820 O   0  0  0  0  0  0  0  0  0  0  0  0
   57.5560   26.2080   46.7670 N   0  0  0  0  0  0  0  0  0  0  0  0
   56.7400   25.2900   46.0270 C   0  0  0  0  0  0  0  0  0  0  0  0
   57.2940   24.0660   45.6280 C   0  0  0  0  0  0  0  0  0  0  0  0
   56.5210   23.1260   44.9320 C   0  0  0  0  0  0  0  0  0  0  0  0
   57.2360   21.5890   44.4510 S   0  0  0  0  0  0  0  0  0  0  0  0
   56.1660   20.7740   43.3640 N   0  0  0  0  0  0  0  0  0  0  0  0
   58.5550   21.8210   43.7680 O   0  0  0  0  0  0  0  0  0  0  0  0
   57.4660   20.7370   45.6670 O   0  0  0  0  0  0  0  0  0  0  0  0
   55.1760   23.4060   44.6540 C   0  0  0  0  0  0  0  0  0  0  0  0
   54.6080   24.6110   45.0720 C   0  0  0  0  0  0  0  0  0  0  0  0
   55.3780   25.5480   45.7690 C   0  0  0  0  0  0  0  0  0  0  0  0
   54.7750   26.7150   46.2290 O   0  0  0  0  0  0  0  0  0  0  0  0
   57.7190   31.5430   45.6000 N   0  0  0  0  0  0  0  0  0  0  0  0
   59.3148   35.0000   46.8206 H   0  0  0  0  0  0  0  0  0  0  0  0
   60.5924   34.6437   45.6092 H   0  0  0  0  0  0  0  0  0  0  0  0
   59.7758   36.2437   45.6092 H   0  0  0  0  0  0  0  0  0  0  0  0
   58.2028   35.4525   44.2070 H   0  0  0  0  0  0  0  0  0  0  0  0
   59.0444   33.8508   44.1972 H   0  0  0  0  0  0  0  0  0  0  0  0
   57.0568   34.7047   46.3531 H   0  0  0  0  0  0  0  0  0  0  0  0
   56.6058   33.7678   44.8788 H   0  0  0  0  0  0  0  0  0  0  0  0
   58.5450   33.6900   48.0844 H   0  0  0  0  0  0  0  0  0  0  0  0
   60.1970   28.0456   45.5809 H   0  0  0  0  0  0  0  0  0  0  0  0
   59.4485   28.5293   47.1391 H   0  0  0  0  0  0  0  0  0  0  0  0
   58.3447   23.8408   45.8630 H   0  0  0  0  0  0  0  0  0  0  0  0
   56.4900   19.7800   43.3080 H   0  0  0  0  0  0  0  0  0  0  0  0
   54.5659   22.6739   44.1046 H   0  0  0  0  0  0  0  0  0  0  0  0
   53.5514   24.8242   44.8525 H   0  0  0  0  0  0  0  0  0  0  0  0
  1  2  1  0
  2  3  1  0
  3  4  1  0
  4  5  2  0
  5  6  1  0
  6  7  2  0
  6  8  1  0
  8  9  1  0
  9 10  1  0
 10 11  1  0
 11 12  1  0
 12 13  2  0
 12 14  1  0
 14 15  1  0
 15 16  2  0
 16 17  1  0
 17 18  1  0
 18 19  1  0
 18 20  2  0
 18 21  2  0
 17 22  2  0
 22 23  1  0
 23 24  2  0
 24 25  1  0
  9 26  2  0
 26  4  1  0
 24 15  1  0
  1 27  1  0
  1 28  1  0
  1 29  1  0
  2 30  1  0
  2 31  1  0
  3 32  1  0
  3 33  1  0
  5 34  1  0
 11 35  1  0
 11 36  1  0
 16 37  1  0
 19 38  1  0
 22 39  1  0
 23 40  1  0
M  CHG  4   8  -1  14  -1  19  -1  25  -1
M  END
>  <UniqueID>  (2) 
1

>  <SMILES>  (2) 
CCCc1cc(=O)[n-]c(SCC(=O)[N-]c2cc(S([NH-])(=O)=O)ccc2[O-])n1

>  <Energy>  (2) 
37.212630428366786

>  <Genealogy>  (2) 
CCCc1cc(=O)[n-]c(SCC(=O)[N-]c2cc(S([NH-])(=O)=O)ccc2[O-])n1 (protonated)
CCCc1cc(=O)[n-]c(SCC(=O)[N-]c2cc(S([NH-])(=O)=O)ccc2[O-])n1 (3D coordinates assigned)
CCCc1cc(=O)[n-]c(SCC(=O)[N-]c2cc(S([NH-])(=O)=O)ccc2[O-])n1 (optimized conformer: 37.212630428366786 kcal/mol)

>  <smiles>  (2) 
CCCc1cc(=O)[nH]c(SCC(=O)Nc2cc(S(N)(=O)=O)ccc2O)n1

>  <score_type>  (2) 
oracle

>  <origin>  (2) 
adg

>  <m_score__min__energy>  (2) 
-15.470000000000001

>  <m_primary>  (2) 
energy

$$$$
2:0
     RDKit          3D

 55 58  0  0  0  0  0  0  0  0999 V2000
   57.6500   32.2100   42.1740 C   0  0  0  0  0  0  0  0  0  0  0  0
   58.3730   31.5070   43.3370 C   0  0  0  0  0  0  0  0  0  0  0  0
   58.4630   32.2870   44.6070 N   0  0  1  0  0  0  0  0  0  0  0  0
   58.1100   33.7230   44.4840 C   0  0  0  0  0  0  0  0  0  0  0  0
   58.9620   34.6070   45.3660 C   0  0  0  0  0  0  0  0  0  0  0  0
   59.3240   35.7380   44.9440 O   0  0  0  0  0  0  0  0  0  0  0  0
   59.3520   34.2050   46.6860 N   0  0  0  0  0  0  0  0  0  0  0  0
   60.5310   33.4550   47.0210 C   0  0  0  0  0  0  0  0  0  0  0  0
   61.7810   33.8300   46.5010 C   0  0  0  0  0  0  0  0  0  0  0  0
   62.9310   33.1070   46.8210 C   0  0  0  0  0  0  0  0  0  0  0  0
   62.8540   32.0100   47.6800 C   0  0  0  0  0  0  0  0  0  0  0  0
   61.6240   31.6320   48.2340 C   0  0  0  0  0  0  0  0  0  0  0  0
   61.5480   30.5340   49.1050 C   0  0  0  0  0  0  0  0  0  0  0  0
   60.3200   30.1560   49.6520 C   0  0  0  0  0  0  0  0  0  0  0  0
   59.1600   30.8660   49.3360 C   0  0  0  0  0  0  0  0  0  0  0  0
   59.2200   31.9630   48.4720 C   0  0  0  0  0  0  0  0  0  0  0  0
   60.4500   32.3620   47.9110 C   0  0  0  0  0  0  0  0  0  0  0  0
   57.7780   31.6310   45.7550 C   0  0  0  0  0  0  0  0  0  0  0  0
   57.7640   30.1120   45.7000 C   0  0  0  0  0  0  0  0  0  0  0  0
   58.9070   29.3880   46.0760 C   0  0  0  0  0  0  0  0  0  0  0  0
   58.8940   27.9900   46.0650 C   0  0  0  0  0  0  0  0  0  0  0  0
   60.0100   27.2490   46.4740 C   0  0  0  0  0  0  0  0  0  0  0  0
   59.9650   25.8510   46.4570 C   0  0  0  0  0  0  0  0  0  0  0  0
   58.8130   25.1780   46.0330 C   0  0  0  0  0  0  0  0  0  0  0  0
   58.8240   23.7750   46.0370 O   0  0  0  0  0  0  0  0  0  0  0  0
   58.0660   22.9620   45.1470 C   0  0  0  0  0  0  0  0  0  0  0  0
   57.6910   25.9230   45.6200 C   0  0  0  0  0  0  0  0  0  0  0  0
   57.7290   27.3220   45.6380 C   0  0  0  0  0  0  0  0  0  0  0  0
   56.6450   28.0390   45.2410 N   0  0  0  0  0  0  0  0  0  0  0  0
   56.6320   29.3980   45.2550 C   0  0  0  0  0  0  0  0  0  0  0  0
   55.5970   30.0050   44.8730 O   0  0  0  0  0  0  0  0  0  0  0  0
   56.9160   32.9237   42.5764 H   0  0  0  0  0  0  0  0  0  0  0  0
   58.3848   32.7483   41.5573 H   0  0  0  0  0  0  0  0  0  0  0  0
   57.1326   31.4604   41.5573 H   0  0  0  0  0  0  0  0  0  0  0  0
   57.8370   30.5708   43.5522 H   0  0  0  0  0  0  0  0  0  0  0  0
   59.4099   31.3589   43.0009 H   0  0  0  0  0  0  0  0  0  0  0  0
   59.4770   32.2610   44.8760 H   0  0  0  0  0  0  0  0  0  0  0  0
   58.2478   34.0316   43.4372 H   0  0  0  0  0  0  0  0  0  0  0  0
   57.0645   33.8386   44.8058 H   0  0  0  0  0  0  0  0  0  0  0  0
   61.8541   34.7023   45.8349 H   0  0  0  0  0  0  0  0  0  0  0  0
   63.9010   33.4028   46.3948 H   0  0  0  0  0  0  0  0  0  0  0  0
   63.7627   31.4398   47.9231 H   0  0  0  0  0  0  0  0  0  0  0  0
   62.4580   29.9699   49.3574 H   0  0  0  0  0  0  0  0  0  0  0  0
   60.2663   29.2952   50.3348 H   0  0  0  0  0  0  0  0  0  0  0  0
   58.1957   30.5610   49.7685 H   0  0  0  0  0  0  0  0  0  0  0  0
   58.3021   32.5181   48.2284 H   0  0  0  0  0  0  0  0  0  0  0  0
   58.2898   31.9361   46.6797 H   0  0  0  0  0  0  0  0  0  0  0  0
   56.7271   31.9539   45.7166 H   0  0  0  0  0  0  0  0  0  0  0  0
   59.8179   29.9239   46.3810 H   0  0  0  0  0  0  0  0  0  0  0  0
   60.9214   27.7662   46.8084 H   0  0  0  0  0  0  0  0  0  0  0  0
   60.8442   25.2743   46.7802 H   0  0  0  0  0  0  0  0  0  0  0  0
   57.4288   22.2785   45.7274 H   0  0  0  0  0  0  0  0  0  0  0  0
   57.4349   23.6022   44.5130 H   0  0  0  0  0  0  0  0  0  0  0  0
   58.7487   22.3772   44.5130 H   0  0  0  0  0  0  0  0  0  0  0  0
   56.7821   25.4036   45.2823 H   0  0  0  0  0  0  0  0  0  0  0  0
  1  2  1  0
  2  3  1  0
  3  4  1  0
  4  5  1  0
  5  6  2  0
  5  7  1  0
  7  8  1  0
  8  9  2  0
  9 10  1  0
 10 11  2  0
 11 12  1  0
 12 13  2  0
 13 14  1  0
 14 15  2  0
 15 16  1  0
 16 17  2  0
  3 18  1  0
 18 19  1  0
 19 20  2  0
 20 21  1  0
 21 22  2  0
 22 23  1  0
 23 24  2  0
 24 25  1  0
 25 26  1  0
 24 27  1  0
 27 28  2  0
 28 29  1  0
 29 30  1  0
 30 31  2  0
 17  8  1  0
 30 19  1  0
 17 12  1  0
 28 21  1  0
  1 32  1  0
  1 33  1  0
  1 34  1  0
  2 35  1  0
  2 36  1  0
  3 37  1  1
  4 38  1  0
  4 39  1  0
  9 40  1  0
 10 41  1  0
 11 42  1  0
 13 43  1  0
 14 44  1  0
 15 45  1  0
 16 46  1  0
 18 47  1  0
 18 48  1  0
 20 49  1  0
 22 50  1  0
 23 51  1  0
 26 52  1  0
 26 53  1  0
 26 54  1  0
 27 55  1  0
M  CHG  3   3   1   7  -1  29  -1
M  END
>  <UniqueID>  (3) 
2

>  <SMILES>  (3) 
CC[N@@H+](CC(=O)[N-]c1cccc2ccccc12)Cc1cc2ccc(OC)cc2[n-]c1=O

>  <Energy>  (3) 
78.2727582582184

>  <Genealogy>  (3) 
CC[NH+](CC(=O)[N-]c1cccc2ccccc12)Cc1cc2ccc(OC)cc2[n-]c1=O (protonated)
CC[N@@H+](CC(=O)[N-]c1cccc2ccccc12)Cc1cc2ccc(OC)cc2[n-]c1=O (chirality)
CC[N@@H+](CC(=O)[N-]c1cccc2ccccc12)Cc1cc2ccc(OC)cc2[n-]c1=O (3D coordinates assigned)
CC[N@@H+](CC(=O)[N-]c1cccc2ccccc12)Cc1cc2ccc(OC)cc2[n-]c1=O (optimized conformer: 78.2727582582184 kcal/mol)

>  <smiles>  (3) 
CCN(CC(=O)Nc1cccc2ccccc12)Cc1cc2ccc(OC)cc2[nH]c1=O

>  <score_type>  (3) 
oracle

>  <origin>  (3) 
adg

>  <m_score__min__energy>  (3) 
-9.9800000000000004

>  <m_primary>  (3) 
energy

$$$$
3:0
     RDKit          3D

 49 52  0  0  0  0  0  0  0  0999 V2000
   57.5730   28.9610   52.7470 H   0  0  0  0  0  0  0  0  0  0  0  0
   57.3300   29.3430   51.8110 N   0  0  0  0  0  0  0  0  0  0  0  0
   57.8720   30.3700   51.2280 C   0  0  0  0  0  0  0  0  0  0  0  0
   57.6280   31.5910   51.7650 N   0  0  0  0  0  0  0  0  0  0  0  0
   58.1360   32.7300   51.2440 C   0  0  0  0  0  0  0  0  0  0  0  0
   57.9160   33.6956   51.7228 H   0  0  0  0  0  0  0  0  0  0  0  0
   58.9340   32.6890   50.1080 C   0  0  0  0  0  0  0  0  0  0  0  0
   59.3474   33.6225   49.6984 H   0  0  0  0  0  0  0  0  0  0  0  0
   59.2200   31.4580   49.4730 C   0  0  0  0  0  0  0  0  0  0  0  0
   58.6960   30.2670   50.0670 C   0  0  0  0  0  0  0  0  0  0  0  0
   59.0290   29.0310   49.4890 C   0  0  0  0  0  0  0  0  0  0  0  0
   58.6300   28.1009   49.9199 H   0  0  0  0  0  0  0  0  0  0  0  0
   59.8550   28.9760   48.3820 C   0  0  0  0  0  0  0  0  0  0  0  0
   60.1328   28.0019   47.9530 H   0  0  0  0  0  0  0  0  0  0  0  0
   60.3350   30.1460   47.8100 C   0  0  0  0  0  0  0  0  0  0  0  0
   61.0940   30.0430   46.8060 O   0  0  0  0  0  0  0  0  0  0  0  0
   59.9940   31.3810   48.3190 N   0  0  0  0  0  0  0  0  0  0  0  0
   60.4800   32.5900   47.5960 C   0  0  0  0  0  0  0  0  0  0  0  0
   60.4820   33.4366   48.2983 H   0  0  0  0  0  0  0  0  0  0  0  0
   61.4857   32.3543   47.2177 H   0  0  0  0  0  0  0  0  0  0  0  0
   59.6130   32.9760   46.3660 C   0  0  1  0  0  0  0  0  0  0  0  0
   60.1808   32.6062   45.4995 H   0  0  0  0  0  0  0  0  0  0  0  0
   58.2310   32.2850   46.3730 C   0  0  0  0  0  0  0  0  0  0  0  0
   57.6961   32.5787   47.2882 H   0  0  0  0  0  0  0  0  0  0  0  0
   58.4039   31.1995   46.3312 H   0  0  0  0  0  0  0  0  0  0  0  0
   57.4020   32.6480   45.2050 N   0  0  0  0  0  0  0  0  0  0  0  0
   57.4030   31.7110   44.0620 C   0  0  0  0  0  0  0  0  0  0  0  0
   56.4463   31.8127   43.5288 H   0  0  0  0  0  0  0  0  0  0  0  0
   58.2650   31.9741   43.4314 H   0  0  0  0  0  0  0  0  0  0  0  0
   57.5740   30.2670   44.4620 C   0  0  0  0  0  0  0  0  0  0  0  0
   58.8520   29.6830   44.4870 C   0  0  0  0  0  0  0  0  0  0  0  0
   59.7326   30.2805   44.2087 H   0  0  0  0  0  0  0  0  0  0  0  0
   59.0090   28.3460   44.8640 C   0  0  0  0  0  0  0  0  0  0  0  0
   60.0105   27.8911   44.8687 H   0  0  0  0  0  0  0  0  0  0  0  0
   57.8960   27.5860   45.2350 C   0  0  0  0  0  0  0  0  0  0  0  0
   58.0214   26.5331   45.5276 H   0  0  0  0  0  0  0  0  0  0  0  0
   56.6230   28.1650   45.2340 C   0  0  0  0  0  0  0  0  0  0  0  0
   55.5180   27.4130   45.6090 O   0  0  0  0  0  0  0  0  0  0  0  0
   56.4620   29.5030   44.8570 C   0  0  0  0  0  0  0  0  0  0  0  0
   55.4610   29.9589   44.8698 H   0  0  0  0  0  0  0  0  0  0  0  0
   57.3140   34.0890   44.8930 C   0  0  0  0  0  0  0  0  0  0  0  0
   56.6667   34.5709   45.6405 H   0  0  0  0  0  0  0  0  0  0  0  0
   56.9051   34.1818   43.8761 H   0  0  0  0  0  0  0  0  0  0  0  0
   58.6800   34.7880   44.9050 C   0  0  0  0  0  0  0  0  0  0  0  0
   58.5278   35.8742   44.8215 H   0  0  0  0  0  0  0  0  0  0  0  0
   59.2706   34.4123   44.0564 H   0  0  0  0  0  0  0  0  0  0  0  0
   59.4420   34.4900   46.1930 C   0  0  0  0  0  0  0  0  0  0  0  0
   58.8810   34.8929   47.0491 H   0  0  0  0  0  0  0  0  0  0  0  0
   60.4348   34.9608   46.1410 H   0  0  0  0  0  0  0  0  0  0  0  0
  1  2  1  0
  2  3  2  0
  3  4  1  0
  4  5  1  0
  5  6  1  0
  5  7  2  0
  7  8  1  0
  7  9  1  0
  9 10  2  0
 10 11  1  0
 11 12  1  0
 11 13  2  0
 13 14  1  0
 13 15  1  0
 15 16  2  0
 15 17  1  0
 17 18  1  0
 18 19  1  0
 18 20  1  0
 18 21  1  0
 21 22  1  6
 21 23  1  0
 23 24  1  0
 23 25  1  0
 23 26  1  0
 26 27  1  0
 27 28  1  0
 27 29  1  0
 27 30  1  0
 30 31  2  0
 31 32  1  0
 31 33  1  0
 33 34  1  0
 33 35  2  0
 35 36  1  0
 35 37  1  0
 37 38  1  0
 37 39  2  0
 39 40  1  0
 26 41  1  0
 41 42  1  0
 41 43  1  0
 41 44  1  0
 44 45  1  0
 44 46  1  0
 44 47  1  0
 47 48  1  0
 47 49  1  0
 10  3  1  0
 47 21  1  0
 17  9  1  0
 39 30  1  0
M  CHG  2   4  -1  38  -1
M  END
>  <UniqueID>  (4) 
3

>  <SMILES>  (4) 
[H]/N=c1/[n-]ccc2c1ccc(=O)n2C[C@@H]1CCCN(Cc2cccc([O-])c2)C1

>  <Energy>  (4) 
76.71005045613263

>  <Genealogy>  (4) 
N=c1[n-]ccc2c1ccc(=O)n2CC1CCCN(Cc2cccc([O-])c2)C1 (protonated)
N=c1[n-]ccc2c1ccc(=O)n2C[C@@H]1CCCN(Cc2cccc([O-])c2)C1 (chirality)
[H]/N=c1/[n-]ccc2c1ccc(=O)n2C[C@@H]1CCCN(Cc2cccc([O-])c2)C1 (cis-trans isomerization)
[H]/N=c1/[n-]ccc2c1ccc(=O)n2C[C@@H]1CCCN(Cc2cccc([O-])c2)C1 (3D coordinates assigned)
[H]/N=c1/[n-]ccc2c1ccc(=O)n2C[C@@H]1CCCN(Cc2cccc([O-])c2)C1 (nonaromatic ring conformer: 76.71005045613263 kcal/mol)

>  <smiles>  (4) 
N=c1[nH]ccc2c1ccc(=O)n2CC1CCCN(Cc2cccc(O)c2)C1

>  <score_type>  (4) 
oracle

>  <origin>  (4) 
adg

>  <m_score__min__energy>  (4) 
-13.51

>  <m_primary>  (4) 
energy

$$$$
4:0
     RDKit          3D

 46 48  0  0  0  0  0  0  0  0999 V2000
   59.6090   33.4740   50.4390 C   0  0  0  0  0  0  0  0  0  0  0  0
   59.9480   32.2550   49.7040 N   0  0  0  0  0  0  0  0  0  0  0  0
   61.1750   32.4420   48.9600 C   0  0  0  0  0  0  0  0  0  0  0  0
   62.1380   33.3510   49.4380 C   0  0  0  0  0  0  0  0  0  0  0  0
   63.3600   33.5070   48.7820 C   0  0  0  0  0  0  0  0  0  0  0  0
   63.6470   32.7490   47.6480 C   0  0  0  0  0  0  0  0  0  0  0  0
   62.7120   31.8330   47.1650 C   0  0  0  0  0  0  0  0  0  0  0  0
   61.4730   31.6720   47.8050 C   0  0  0  0  0  0  0  0  0  0  0  0
   60.5230   30.6860   47.2560 C   0  0  0  0  0  0  0  0  0  0  0  0
   60.1690   29.5530   48.0040 C   0  0  0  0  0  0  0  0  0  0  0  0
   59.2570   28.6300   47.4880 C   0  0  0  0  0  0  0  0  0  0  0  0
   58.6860   28.8360   46.2300 C   0  0  0  0  0  0  0  0  0  0  0  0
   59.0160   29.9710   45.4710 C   0  0  0  0  0  0  0  0  0  0  0  0
   58.4070   30.1560   44.1800 N   0  0  0  0  0  0  0  0  0  0  0  0
   57.2870   31.0710   43.9450 C   0  0  0  0  0  0  0  0  0  0  0  0
   57.7710   32.4760   43.5610 C   0  0  0  0  0  0  0  0  0  0  0  0
   58.1960   33.2680   44.7720 C   0  0  0  0  0  0  0  0  0  0  0  0
   57.5660   33.0720   46.0130 C   0  0  0  0  0  0  0  0  0  0  0  0
   57.9790   33.7960   47.1350 C   0  0  0  0  0  0  0  0  0  0  0  0
   59.0240   34.7180   47.0300 C   0  0  0  0  0  0  0  0  0  0  0  0
   59.6580   34.9170   45.8000 C   0  0  0  0  0  0  0  0  0  0  0  0
   59.2470   34.1950   44.6750 C   0  0  0  0  0  0  0  0  0  0  0  0
   59.9370   30.8990   45.9990 C   0  0  0  0  0  0  0  0  0  0  0  0
   59.6636   33.2776   51.5199 H   0  0  0  0  0  0  0  0  0  0  0  0
   60.3196   34.2710   50.1748 H   0  0  0  0  0  0  0  0  0  0  0  0
   58.5890   33.7898   50.1748 H   0  0  0  0  0  0  0  0  0  0  0  0
   59.1630   32.0280   49.0480 H   0  0  0  0  0  0  0  0  0  0  0  0
   60.0280   31.4570   50.3710 H   0  0  0  0  0  0  0  0  0  0  0  0
   61.9248   33.9451   50.3389 H   0  0  0  0  0  0  0  0  0  0  0  0
   64.0980   34.2295   49.1606 H   0  0  0  0  0  0  0  0  0  0  0  0
   64.6113   32.8731   47.1335 H   0  0  0  0  0  0  0  0  0  0  0  0
   62.9478   31.2316   46.2747 H   0  0  0  0  0  0  0  0  0  0  0  0
   60.6106   29.3915   48.9985 H   0  0  0  0  0  0  0  0  0  0  0  0
   58.9876   27.7386   48.0736 H   0  0  0  0  0  0  0  0  0  0  0  0
   57.9709   28.1022   45.8297 H   0  0  0  0  0  0  0  0  0  0  0  0
   58.7940   29.6130   43.3760 H   0  0  0  0  0  0  0  0  0  0  0  0
   56.6666   30.6725   43.1287 H   0  0  0  0  0  0  0  0  0  0  0  0
   56.7089   31.1510   44.8774 H   0  0  0  0  0  0  0  0  0  0  0  0
   58.6271   32.3838   42.8765 H   0  0  0  0  0  0  0  0  0  0  0  0
   56.9371   33.0068   43.0785 H   0  0  0  0  0  0  0  0  0  0  0  0
   56.7445   32.3458   46.1016 H   0  0  0  0  0  0  0  0  0  0  0  0
   57.4803   33.6397   48.1029 H   0  0  0  0  0  0  0  0  0  0  0  0
   59.3474   35.2866   47.9144 H   0  0  0  0  0  0  0  0  0  0  0  0
   60.4809   35.6422   45.7170 H   0  0  0  0  0  0  0  0  0  0  0  0
   59.7492   34.3538   43.7093 H   0  0  0  0  0  0  0  0  0  0  0  0
   60.1983   31.7975   45.4206 H   0  0  0  0  0  0  0  0  0  0  0  0
  1  2  1  0
  2  3  1  0
  3  4  2  0
  4  5  1  0
  5  6  2  0
  6  7  1  0
  7  8  2  0
  8  9  1  0
  9 10  2  0
 10 11  1  0
 11 12  2  0
 12 13  1  0
 13 14  1  0
 14 15  1  0
 15 16  1  0
 16 17  1  0
 17 18  2  0
 18 19  1  0
 19 20  2  0
 20 21  1  0
 21 22  2  0
 13 23  2  0
  8  3  1  0
 23  9  1  0
 22 17  1  0
  1 24  1  0
  1 25  1  0
  1 26  1  0
  2 27  1  0
  2 28  1  0
  4 29  1  0
  5 30  1  0
  6 31  1  0
  7 32  1  0
 10 33  1  0
 11 34  1  0
 12 35  1  0
 14 36  1  0
 15 37  1  0
 15 38  1  0
 16 39  1  0
 16 40  1  0
 18 41  1  0
 19 42  1  0
 20 43  1  0
 21 44  1  0
 22 45  1  0
 23 46  1  0
M  CHG  1   2   1
M  END
>  <UniqueID>  (5) 
4

>  <SMILES>  (5) 
C[NH2+]c1ccccc1-c1cccc(NCCc2ccccc2)c1

>  <Energy>  (5) 
53.418138620570865

>  <Genealogy>  (5) 
C[NH2+]c1ccccc1-c1cccc(NCCc2ccccc2)c1 (protonated)
C[NH2+]c1ccccc1-c1cccc(NCCc2ccccc2)c1 (3D coordinates assigned)
C[NH2+]c1ccccc1-c1cccc(NCCc2ccccc2)c1 (optimized conformer: 53.418138620570865 kcal/mol)

>  <smiles>  (5) 
CNc1ccccc1-c1cccc(NCCc2ccccc2)c1

>  <score_type>  (5) 
oracle

>  <origin>  (5) 
adg

>  <m_score__min__energy>  (5) 
-7.0199999999999996

>  <m_primary>  (5) 
energy

$$$$
5:0
     RDKit          3D

 56 58  0  0  0  0  0  0  0  0999 V2000
   58.3280   33.1290   44.7640 N   0  0  0  0  0  0  0  0  0  0  0  0
   58.9820   33.5370   46.3120 S   0  0  0  0  0  0  0  0  0  0  0  0
   60.1380   34.4800   46.1240 O   0  0  0  0  0  0  0  0  0  0  0  0
   57.9250   34.2100   47.1410 O   0  0  0  0  0  0  0  0  0  0  0  0
   59.5240   32.0780   47.1340 C   0  0  0  0  0  0  0  0  0  0  0  0
   58.6340   31.3570   47.9410 C   0  0  0  0  0  0  0  0  0  0  0  0
   59.0660   30.2190   48.6270 C   0  0  0  0  0  0  0  0  0  0  0  0
   60.4000   29.7960   48.5240 C   0  0  0  0  0  0  0  0  0  0  0  0
   60.8630   28.5620   49.2540 C   0  0  0  0  0  0  0  0  0  0  0  0
   60.1610   27.2970   48.7490 C   0  0  0  0  0  0  0  0  0  0  0  0
   60.1130   27.2810   47.2860 N   0  0  0  0  0  0  0  0  0  0  0  0
   59.1980   27.8450   46.5490 C   0  0  0  0  0  0  0  0  0  0  0  0
   59.4900   28.9630   45.8410 N   0  0  0  0  0  0  0  0  0  0  0  0
   58.5620   29.5660   45.0670 C   0  0  0  0  0  0  0  0  0  0  0  0
   58.8850   30.5990   44.4210 O   0  0  0  0  0  0  0  0  0  0  0  0
   57.2950   29.0550   44.9900 N   0  0  0  0  0  0  0  0  0  0  0  0
   56.2680   29.7030   44.1480 C   0  0  0  0  0  0  0  0  0  0  0  0
   56.7080   29.7780   42.6770 C   0  0  0  0  0  0  0  0  0  0  0  0
   56.7250   31.2100   42.1300 C   0  0  0  0  0  0  0  0  0  0  0  0
   57.7830   31.9440   42.6840 O   0  0  0  0  0  0  0  0  0  0  0  0
   56.9920   27.9160   45.6940 C   0  0  0  0  0  0  0  0  0  0  0  0
   55.8280   27.4290   45.6180 O   0  0  0  0  0  0  0  0  0  0  0  0
   57.9400   27.3030   46.4740 N   0  0  0  0  0  0  0  0  0  0  0  0
   57.6420   26.0280   47.1630 C   0  0  0  0  0  0  0  0  0  0  0  0
   57.4540   24.9230   46.1540 C   0  0  0  0  0  0  0  0  0  0  0  0
   58.5630   24.2200   45.6510 C   0  0  0  0  0  0  0  0  0  0  0  0
   58.3880   23.2300   44.6800 C   0  0  0  0  0  0  0  0  0  0  0  0
   57.1070   22.9340   44.2010 C   0  0  0  0  0  0  0  0  0  0  0  0
   56.8910   21.7030   42.9720 Cl  0  0  0  0  0  0  0  0  0  0  0  0
   55.9990   23.6290   44.7000 C   0  0  0  0  0  0  0  0  0  0  0  0
   56.1710   24.6180   45.6710 C   0  0  0  0  0  0  0  0  0  0  0  0
   61.2880   30.5140   47.7060 C   0  0  0  0  0  0  0  0  0  0  0  0
   60.8530   31.6480   47.0160 C   0  0  0  0  0  0  0  0  0  0  0  0
   57.6550   32.3440   44.9130 H   0  0  0  0  0  0  0  0  0  0  0  0
   59.1140   32.7500   44.1900 H   0  0  0  0  0  0  0  0  0  0  0  0
   57.5894   31.6887   48.0350 H   0  0  0  0  0  0  0  0  0  0  0  0
   58.3580   29.6527   49.2499 H   0  0  0  0  0  0  0  0  0  0  0  0
   61.9473   28.4487   49.1072 H   0  0  0  0  0  0  0  0  0  0  0  0
   60.6155   28.6850   50.3187 H   0  0  0  0  0  0  0  0  0  0  0  0
   60.7121   26.4129   49.1019 H   0  0  0  0  0  0  0  0  0  0  0  0
   59.1317   27.2850   49.1368 H   0  0  0  0  0  0  0  0  0  0  0  0
   55.3354   29.1233   44.2126 H   0  0  0  0  0  0  0  0  0  0  0  0
   56.1187   30.7290   44.5155 H   0  0  0  0  0  0  0  0  0  0  0  0
   57.7212   29.3582   42.5922 H   0  0  0  0  0  0  0  0  0  0  0  0
   55.9769   29.2079   42.0850 H   0  0  0  0  0  0  0  0  0  0  0  0
   56.8432   31.1767   41.0369 H   0  0  0  0  0  0  0  0  0  0  0  0
   55.7779   31.7005   42.3990 H   0  0  0  0  0  0  0  0  0  0  0  0
   57.9030   31.6130   43.6130 H   0  0  0  0  0  0  0  0  0  0  0  0
   58.4776   25.7719   47.8310 H   0  0  0  0  0  0  0  0  0  0  0  0
   56.7166   26.1428   47.7465 H   0  0  0  0  0  0  0  0  0  0  0  0
   59.5722   24.4501   46.0231 H   0  0  0  0  0  0  0  0  0  0  0  0
   59.2593   22.6823   44.2915 H   0  0  0  0  0  0  0  0  0  0  0  0
   54.9910   23.3957   44.3266 H   0  0  0  0  0  0  0  0  0  0  0  0
   55.2968   25.1610   46.0596 H   0  0  0  0  0  0  0  0  0  0  0  0
   62.3319   30.1814   47.6082 H   0  0  0  0  0  0  0  0  0  0  0  0
   61.5552   32.2051   46.3783 H   0  0  0  0  0  0  0  0  0  0  0  0
  1  2  1  0
  2  3  2  0
  2  4  2  0
  2  5  1  0
  5  6  2  0
  6  7  1  0
  7  8  2  0
  8  9  1  0
  9 10  1  0
 10 11  1  0
 11 12  2  3
 12 13  1  0
 13 14  1  0
 14 15  2  0
 14 16  1  0
 16 17  1  0
 17 18  1  0
 18 19  1  0
 19 20  1  0
 16 21  1  0
 21 22  2  0
 21 23  1  0
 23 24  1  0
 24 25  1  0
 25 26  2  0
 26 27  1  0
 27 28  2  0
 28 29  1  0
 28 30  1  0
 30 31  2  0
  8 32  1  0
 32 33  2  0
 33  5  1  0
 23 12  1  0
 31 25  1  0
  1 34  1  0
  1 35  1  0
  6 36  1  0
  7 37  1  0
  9 38  1  0
  9 39  1  0
 10 40  1  0
 10 41  1  0
 17 42  1  0
 17 43  1  0
 18 44  1  0
 18 45  1  0
 19 46  1  0
 19 47  1  0
 20 48  1  0
 24 49  1  0
 24 50  1  0
 26 51  1  0
 27 52  1  0
 30 53  1  0
 31 54  1  0
 32 55  1  0
 33 56  1  0
M  CHG  1  13  -1
M  END
>  <UniqueID>  (6) 
5

>  <SMILES>  (6) 
NS(=O)(=O)c1ccc(CCN=c2[n-]c(=O)n(CCCO)c(=O)n2Cc2ccc(Cl)cc2)cc1

>  <Energy>  (6) 
51.0809904705121

>  <Genealogy>  (6) 
NS(=O)(=O)c1ccc(CCN=c2[n-]c(=O)n(CCCO)c(=O)n2Cc2ccc(Cl)cc2)cc1 (protonated)
NS(=O)(=O)c1ccc(CCN=c2[n-]c(=O)n(CCCO)c(=O)n2Cc2ccc(Cl)cc2)cc1 (3D coordinates assigned)
NS(=O)(=O)c1ccc(CCN=c2[n-]c(=O)n(CCCO)c(=O)n2Cc2ccc(Cl)cc2)cc1 (optimized conformer: 51.0809904705121 kcal/mol)

>  <smiles>  (6) 
NS(=O)(=O)c1ccc(CCN=c2[nH]c(=O)n(CCCO)c(=O)n2Cc2ccc(Cl)cc2)cc1

>  <score_type>  (6) 
oracle

>  <origin>  (6) 
adg

>  <m_score__min__energy>  (6) 
-10.94

>  <m_primary>  (6) 
energy

$$$$
6:0
     RDKit          3D

 42 44  0  0  0  0  0  0  0  0999 V2000
   55.5210   29.3580   44.8240 O   0  0  0  0  0  0  0  0  0  0  0  0
   56.5630   30.0640   44.8760 C   0  0  0  0  0  0  0  0  0  0  0  0
   56.4520   31.4700   44.6080 N   0  0  0  0  0  0  0  0  0  0  0  0
   57.3850   32.4840   45.0060 C   0  0  0  0  0  0  0  0  0  0  0  0
   58.2930   33.0540   44.0920 C   0  0  0  0  0  0  0  0  0  0  0  0
   59.1960   34.0330   44.5170 C   0  0  0  0  0  0  0  0  0  0  0  0
   59.2130   34.4380   45.8540 C   0  0  0  0  0  0  0  0  0  0  0  0
   58.3310   33.8590   46.7710 C   0  0  0  0  0  0  0  0  0  0  0  0
   57.4260   32.8790   46.3500 C   0  0  0  0  0  0  0  0  0  0  0  0
   57.8660   29.4170   45.1560 C   0  0  0  0  0  0  0  0  0  0  0  0
   58.4120   28.5070   44.2360 C   0  0  0  0  0  0  0  0  0  0  0  0
   59.6330   27.8820   44.5000 C   0  0  0  0  0  0  0  0  0  0  0  0
   60.3300   28.1710   45.6760 C   0  0  0  0  0  0  0  0  0  0  0  0
   59.8170   29.1070   46.5900 C   0  0  0  0  0  0  0  0  0  0  0  0
   60.4740   29.4240   47.7880 O   0  0  0  0  0  0  0  0  0  0  0  0
   60.2600   30.5810   48.5530 C   0  0  0  0  0  0  0  0  0  0  0  0
   59.2330   30.6880   49.2810 O   0  0  0  0  0  0  0  0  0  0  0  0
   61.2410   31.6390   48.5410 N   0  0  0  0  0  0  0  0  0  0  0  0
   61.7360   31.8510   47.1650 C   0  0  0  0  0  0  0  0  0  0  0  0
   63.0280   32.6940   47.1460 C   0  0  0  0  0  0  0  0  0  0  0  0
   63.1870   33.8490   48.5640 S   0  0  0  0  0  0  0  0  0  0  0  0
   61.4020   34.1540   48.7380 C   0  0  0  0  0  0  0  0  0  0  0  0
   60.6450   32.8690   49.1190 C   0  0  0  0  0  0  0  0  0  0  0  0
   58.5840   29.7180   46.3280 C   0  0  0  0  0  0  0  0  0  0  0  0
   58.2915   32.7280   43.0414 H   0  0  0  0  0  0  0  0  0  0  0  0
   59.8944   34.4852   43.7974 H   0  0  0  0  0  0  0  0  0  0  0  0
   59.9205   35.2125   46.1851 H   0  0  0  0  0  0  0  0  0  0  0  0
   58.3486   34.1743   47.8247 H   0  0  0  0  0  0  0  0  0  0  0  0
   56.7431   32.4161   47.0775 H   0  0  0  0  0  0  0  0  0  0  0  0
   57.8749   28.2852   43.3020 H   0  0  0  0  0  0  0  0  0  0  0  0
   60.0469   27.1604   43.7802 H   0  0  0  0  0  0  0  0  0  0  0  0
   61.2833   27.6643   45.8870 H   0  0  0  0  0  0  0  0  0  0  0  0
   62.0450   31.3390   49.1440 H   0  0  0  0  0  0  0  0  0  0  0  0
   61.9419   30.8729   46.7057 H   0  0  0  0  0  0  0  0  0  0  0  0
   60.9631   32.3959   46.6031 H   0  0  0  0  0  0  0  0  0  0  0  0
   63.8884   32.0087   47.1599 H   0  0  0  0  0  0  0  0  0  0  0  0
   62.9923   33.3106   46.2358 H   0  0  0  0  0  0  0  0  0  0  0  0
   61.2430   34.9085   49.5225 H   0  0  0  0  0  0  0  0  0  0  0  0
   61.0163   34.5080   47.7706 H   0  0  0  0  0  0  0  0  0  0  0  0
   60.6471   32.7754   50.2150 H   0  0  0  0  0  0  0  0  0  0  0  0
   59.6276   32.9590   48.7106 H   0  0  0  0  0  0  0  0  0  0  0  0
   58.1723   30.4416   47.0469 H   0  0  0  0  0  0  0  0  0  0  0  0
  1  2  2  0
  2  3  1  0
  3  4  1  0
  4  5  2  0
  5  6  1  0
  6  7  2  0
  7  8  1  0
  8  9  2  0
  2 10  1  0
 10 11  2  0
 11 12  1  0
 12 13  2  0
 13 14  1  0
 14 15  1  0
 15 16  1  0
 16 17  2  0
 16 18  1  0
 18 19  1  0
 19 20  1  0
 20 21  1  0
 21 22  1  0
 22 23  1  0
 14 24  2  0
  9  4  1  0
 24 10  1  0
 23 18  1  0
  5 25  1  0
  6 26  1  0
  7 27  1  0
  8 28  1  0
  9 29  1  0
 11 30  1  0
 12 31  1  0
 13 32  1  0
 18 33  1  0
 19 34  1  0
 19 35  1  0
 20 36  1  0
 20 37  1  0
 22 38  1  0
 22 39  1  0
 23 40  1  0
 23 41  1  0
 24 42  1  0
M  CHG  2   3  -1  18   1
M  END
>  <UniqueID>  (7) 
6

>  <SMILES>  (7) 
O=C([N-]c1ccccc1)c1cccc(OC(=O)[NH+]2CCSCC2)c1

>  <Energy>  (7) 
60.92276515638134

>  <Genealogy>  (7) 
O=C([N-]c1ccccc1)c1cccc(OC(=O)[NH+]2CCSCC2)c1 (protonated)
O=C([N-]c1ccccc1)c1cccc(OC(=O)[NH+]2CCSCC2)c1 (3D coordinates assigned)
O=C([N-]c1ccccc1)c1cccc(OC(=O)[NH+]2CCSCC2)c1 (nonaromatic ring conformer: 60.92276515638134 kcal/mol)

>  <smiles>  (7) 
O=C(Nc1ccccc1)c1cccc(OC(=O)N2CCSCC2)c1

>  <score_type>  (7) 
oracle

>  <origin>  (7) 
adg

>  <m_score__min__energy>  (7) 
-8.5399999999999991

>  <m_primary>  (7) 
energy

$$$$
7:0
     RDKit          3D

 36 38  0  0  0  0  0  0  0  0999 V2000
   59.5080   33.3210   50.6120 C   0  0  0  0  0  0  0  0  0  0  0  0
   60.1640   34.1990   49.7040 O   0  0  0  0  0  0  0  0  0  0  0  0
   61.1290   33.7970   48.7660 C   0  0  0  0  0  0  0  0  0  0  0  0
   62.2210   32.9800   49.1200 C   0  0  0  0  0  0  0  0  0  0  0  0
   63.1630   32.6040   48.1570 C   0  0  0  0  0  0  0  0  0  0  0  0
   63.0260   33.0360   46.8370 C   0  0  0  0  0  0  0  0  0  0  0  0
   61.9470   33.8450   46.4750 C   0  0  0  0  0  0  0  0  0  0  0  0
   60.9960   34.2220   47.4320 C   0  0  0  0  0  0  0  0  0  0  0  0
   59.6130   35.2550   46.9350 S   0  0  0  0  0  0  0  0  0  0  0  0
   58.8230   33.9260   46.0260 C   0  0  0  0  0  0  0  0  0  0  0  0
   58.3740   32.7840   46.7000 C   0  0  0  0  0  0  0  0  0  0  0  0
   57.7630   31.7450   45.9920 C   0  0  0  0  0  0  0  0  0  0  0  0
   57.6010   31.8380   44.5990 C   0  0  0  0  0  0  0  0  0  0  0  0
   56.9120   30.7380   43.8400 C   0  0  0  0  0  0  0  0  0  0  0  0
   57.1620   29.4210   44.5060 C   0  0  0  0  0  0  0  0  0  0  0  0
   56.2220   28.6750   44.9830 N   0  0  0  0  0  0  0  0  0  0  0  0
   56.8870   27.5660   45.5910 C   0  0  0  0  0  0  0  0  0  0  0  0
   56.0900   26.3590   46.3450 S   0  0  0  0  0  0  0  0  0  0  0  0
   58.3110   27.6250   45.5150 N   0  0  0  0  0  0  0  0  0  0  0  0
   58.4630   28.8460   44.8080 C   0  0  0  0  0  0  0  0  0  0  0  0
   59.5770   29.3420   44.5000 O   0  0  0  0  0  0  0  0  0  0  0  0
   58.0360   32.9940   43.9310 C   0  0  0  0  0  0  0  0  0  0  0  0
   58.6460   34.0320   44.6420 C   0  0  0  0  0  0  0  0  0  0  0  0
   59.7350   33.6248   51.6445 H   0  0  0  0  0  0  0  0  0  0  0  0
   58.4215   33.3674   50.4466 H   0  0  0  0  0  0  0  0  0  0  0  0
   59.8605   32.2922   50.4466 H   0  0  0  0  0  0  0  0  0  0  0  0
   62.3332   32.6362   50.1589 H   0  0  0  0  0  0  0  0  0  0  0  0
   64.0135   31.9666   48.4405 H   0  0  0  0  0  0  0  0  0  0  0  0
   63.7683   32.7391   46.0815 H   0  0  0  0  0  0  0  0  0  0  0  0
   61.8434   34.1874   45.4348 H   0  0  0  0  0  0  0  0  0  0  0  0
   58.5024   32.7041   47.7896 H   0  0  0  0  0  0  0  0  0  0  0  0
   57.4079   30.8518   46.5268 H   0  0  0  0  0  0  0  0  0  0  0  0
   55.8299   30.9344   43.8162 H   0  0  0  0  0  0  0  0  0  0  0  0
   57.3081   30.7045   42.8143 H   0  0  0  0  0  0  0  0  0  0  0  0
   57.8963   33.0834   42.8436 H   0  0  0  0  0  0  0  0  0  0  0  0
   58.9874   34.9336   44.1124 H   0  0  0  0  0  0  0  0  0  0  0  0
  1  2  1  0
  2  3  1  0
  3  4  2  0
  4  5  1  0
  5  6  2  0
  6  7  1  0
  7  8  2  0
  8  9  1  0
  9 10  1  0
 10 11  2  0
 11 12  1  0
 12 13  2  0
 13 14  1  0
 14 15  1  0
 15 16  2  0
 16 17  1  0
 17 18  2  0
 17 19  1  0
 19 20  1  0
 20 21  2  0
 13 22  1  0
 22 23  2  0
  8  3  1  0
 23 10  1  0
 20 15  1  0
  1 24  1  0
  1 25  1  0
  1 26  1  0
  4 27  1  0
  5 28  1  0
  6 29  1  0
  7 30  1  0
 11 31  1  0
 12 32  1  0
 14 33  1  0
 14 34  1  0
 22 35  1  0
 23 36  1  0
M  CHG  1  19  -1
M  END
>  <UniqueID>  (8) 
7

>  <SMILES>  (8) 
COc1ccccc1Sc1ccc(CC2=NC(=S)[N-]C2=O)cc1

>  <Energy>  (8) 
56.990500808974595

>  <Genealogy>  (8) 
COc1ccccc1Sc1ccc(CC2=NC(=S)[N-]C2=O)cc1 (protonated)
COc1ccccc1Sc1ccc(CC2=NC(=S)[N-]C2=O)cc1 (3D coordinates assigned)
COc1ccccc1Sc1ccc(CC2=NC(=S)[N-]C2=O)cc1 (nonaromatic ring conformer: 56.990500808974595 kcal/mol)

>  <smiles>  (8) 
COc1ccccc1Sc1ccc(CC2=NC(=S)NC2=O)cc1

>  <score_type>  (8) 
oracle

>  <origin>  (8) 
adg

>  <m_score__min__energy>  (8) 
-9.6899999999999995

>  <m_primary>  (8) 
energy

$$$$
8:0
     RDKit          3D

 52 54  0  0  0  0  0  0  0  0999 V2000
   60.6240   26.7710   49.3650 C   0  0  0  0  0  0  0  0  0  0  0  0
   60.1890   28.0780   48.8700 N   0  0  0  0  0  0  0  0  0  0  0  0
   59.7480   28.2130   47.5130 C   0  0  0  0  0  0  0  0  0  0  0  0
   60.5040   27.6640   46.4670 C   0  0  0  0  0  0  0  0  0  0  0  0
   60.0980   27.8400   45.1410 C   0  0  0  0  0  0  0  0  0  0  0  0
   58.9450   28.5730   44.8540 C   0  0  0  0  0  0  0  0  0  0  0  0
   58.1840   29.1290   45.8950 C   0  0  0  0  0  0  0  0  0  0  0  0
   57.0260   29.9280   45.6250 N   0  0  0  0  0  0  0  0  0  0  0  0
   57.0240   31.1460   44.8680 C   0  0  0  0  0  0  0  0  0  0  0  0
   56.3280   31.2040   43.8200 O   0  0  0  0  0  0  0  0  0  0  0  0
   57.7750   32.3480   45.3110 C   0  0  0  0  0  0  0  0  0  0  0  0
   57.8760   33.4680   44.4700 C   0  0  0  0  0  0  0  0  0  0  0  0
   58.5840   34.6000   44.8820 C   0  0  0  0  0  0  0  0  0  0  0  0
   59.1980   34.6270   46.1360 C   0  0  0  0  0  0  0  0  0  0  0  0
   59.0910   33.5240   46.9950 C   0  0  0  0  0  0  0  0  0  0  0  0
   59.8750   33.5410   48.5760 S   0  0  0  0  0  0  0  0  0  0  0  0
   60.2670   34.9530   48.9150 O   0  0  0  0  0  0  0  0  0  0  0  0
   58.8960   33.0710   49.6160 O   0  0  0  0  0  0  0  0  0  0  0  0
   61.2900   32.5120   48.6220 N   0  0  0  0  0  0  0  0  0  0  0  0
   62.4240   33.1700   49.2870 C   0  0  0  0  0  0  0  0  0  0  0  0
   63.3570   33.7130   48.2120 C   0  0  0  0  0  0  0  0  0  0  0  0
   62.8630   33.1340   46.8990 C   0  0  0  0  0  0  0  0  0  0  0  0
   61.7470   32.1700   47.2690 C   0  0  0  0  0  0  0  0  0  0  0  0
   58.3680   32.3990   46.5860 C   0  0  0  0  0  0  0  0  0  0  0  0
   58.5750   28.9230   47.2230 C   0  0  0  0  0  0  0  0  0  0  0  0
   60.2860   29.4840   49.8870 S   0  0  0  0  0  0  0  0  0  0  0  0
   60.0060   29.0060   51.5780 C   0  0  0  0  0  0  0  0  0  0  0  0
   61.6460   30.1160   49.7700 O   0  0  0  0  0  0  0  0  0  0  0  0
   59.2490   30.4900   49.4640 O   0  0  0  0  0  0  0  0  0  0  0  0
   60.6222   26.7764   50.4650 H   0  0  0  0  0  0  0  0  0  0  0  0
   59.9362   25.9936   49.0010 H   0  0  0  0  0  0  0  0  0  0  0  0
   61.6405   26.5608   49.0010 H   0  0  0  0  0  0  0  0  0  0  0  0
   61.4179   27.0940   46.6904 H   0  0  0  0  0  0  0  0  0  0  0  0
   60.6876   27.4005   44.3229 H   0  0  0  0  0  0  0  0  0  0  0  0
   58.6317   28.7154   43.8092 H   0  0  0  0  0  0  0  0  0  0  0  0
   57.3949   33.4541   43.4809 H   0  0  0  0  0  0  0  0  0  0  0  0
   58.6580   35.4727   44.2165 H   0  0  0  0  0  0  0  0  0  0  0  0
   59.7664   35.5148   46.4503 H   0  0  0  0  0  0  0  0  0  0  0  0
   61.0330   31.6390   49.1400 H   0  0  0  0  0  0  0  0  0  0  0  0
   62.0590   33.9960   49.9151 H   0  0  0  0  0  0  0  0  0  0  0  0
   62.9583   32.4517   49.9261 H   0  0  0  0  0  0  0  0  0  0  0  0
   63.3122   34.8118   48.1863 H   0  0  0  0  0  0  0  0  0  0  0  0
   64.4029   33.4341   48.4075 H   0  0  0  0  0  0  0  0  0  0  0  0
   62.4794   33.9330   46.2475 H   0  0  0  0  0  0  0  0  0  0  0  0
   63.6703   32.6288   46.3486 H   0  0  0  0  0  0  0  0  0  0  0  0
   60.9149   32.2694   46.5565 H   0  0  0  0  0  0  0  0  0  0  0  0
   62.1089   31.1318   47.2362 H   0  0  0  0  0  0  0  0  0  0  0  0
   58.2616   31.5436   47.2693 H   0  0  0  0  0  0  0  0  0  0  0  0
   57.9587   29.3203   48.0430 H   0  0  0  0  0  0  0  0  0  0  0  0
   60.4464   29.7579   52.2493 H   0  0  0  0  0  0  0  0  0  0  0  0
   58.9243   28.9363   51.7650 H   0  0  0  0  0  0  0  0  0  0  0  0
   60.4742   28.0283   51.7650 H   0  0  0  0  0  0  0  0  0  0  0  0
  1  2  1  0
  2  3  1  0
  3  4  2  0
  4  5  1  0
  5  6  2  0
  6  7  1  0
  7  8  1  0
  8  9  1  0
  9 10  2  0
  9 11  1  0
 11 12  2  0
 12 13  1  0
 13 14  2  0
 14 15  1  0
 15 16  1  0
 16 17  2  0
 16 18  2  0
 16 19  1  0
 19 20  1  0
 20 21  1  0
 21 22  1  0
 22 23  1  0
 15 24  2  0
  7 25  2  0
  2 26  1  0
 26 27  1  0
 26 28  2  0
 26 29  2  0
 25  3  1  0
 24 11  1  0
 23 19  1  0
  1 30  1  0
  1 31  1  0
  1 32  1  0
  4 33  1  0
  5 34  1  0
  6 35  1  0
 12 36  1  0
 13 37  1  0
 14 38  1  0
 19 39  1  0
 20 40  1  0
 20 41  1  0
 21 42  1  0
 21 43  1  0
 22 44  1  0
 22 45  1  0
 23 46  1  0
 23 47  1  0
 24 48  1  0
 25 49  1  0
 27 50  1  0
 27 51  1  0
 27 52  1  0
M  CHG  2   8  -1  19   1
M  END
>  <UniqueID>  (9) 
8

>  <SMILES>  (9) 
CN(c1cccc([N-]C(=O)c2cccc(S(=O)(=O)[NH+]3CCCC3)c2)c1)S(C)(=O)=O

>  <Energy>  (9) 
59.85029772054439

>  <Genealogy>  (9) 
CN(c1cccc([N-]C(=O)c2cccc(S(=O)(=O)[NH+]3CCCC3)c2)c1)S(C)(=O)=O (protonated)
CN(c1cccc([N-]C(=O)c2cccc(S(=O)(=O)[NH+]3CCCC3)c2)c1)S(C)(=O)=O (3D coordinates assigned)
CN(c1cccc([N-]C(=O)c2cccc(S(=O)(=O)[NH+]3CCCC3)c2)c1)S(C)(=O)=O (nonaromatic ring conformer: 59.85029772054439 kcal/mol)

>  <smiles>  (9) 
CN(c1cccc(NC(=O)c2cccc(S(=O)(=O)N3CCCC3)c2)c1)S(C)(=O)=O

>  <score_type>  (9) 
oracle

>  <origin>  (9) 
adg

>  <m_score__min__energy>  (9) 
-9.9199999999999999

>  <m_primary>  (9) 
energy

$$$$
9:0
     RDKit          3D

 41 44  0  0  0  0  0  0  0  0999 V2000
   59.9430   28.2550   48.8560 C   0  0  0  0  0  0  0  0  0  0  0  0
   60.2690   29.7220   48.7270 C   0  0  0  0  0  0  0  0  0  0  0  0
   61.2130   30.2870   49.5930 C   0  0  0  0  0  0  0  0  0  0  0  0
   61.5270   31.6400   49.4730 C   0  0  0  0  0  0  0  0  0  0  0  0
   62.3740   32.1600   50.2450 O   0  0  0  0  0  0  0  0  0  0  0  0
   60.9390   32.3860   48.5470 O   0  0  0  0  0  0  0  0  0  0  0  0
   60.0350   31.9080   47.6930 C   0  0  0  0  0  0  0  0  0  0  0  0
   59.6590   30.5480   47.7520 C   0  0  0  0  0  0  0  0  0  0  0  0
   58.7050   30.0570   46.8450 C   0  0  0  0  0  0  0  0  0  0  0  0
   58.1380   30.8820   45.8650 C   0  0  0  0  0  0  0  0  0  0  0  0
   56.9990   30.1540   44.7100 S   0  0  0  0  0  0  0  0  0  0  0  0
   55.8300   31.0790   44.5320 O   0  0  0  0  0  0  0  0  0  0  0  0
   57.6660   29.9400   43.3790 O   0  0  0  0  0  0  0  0  0  0  0  0
   56.4050   28.6260   45.2790 N   0  0  0  0  0  0  0  0  0  0  0  0
   57.2030   27.4580   45.5210 C   0  0  0  0  0  0  0  0  0  0  0  0
   58.6060   27.4740   45.3830 C   0  0  0  0  0  0  0  0  0  0  0  0
   59.3530   26.3230   45.6490 C   0  0  0  0  0  0  0  0  0  0  0  0
   58.7140   25.1490   46.0520 C   0  0  0  0  0  0  0  0  0  0  0  0
   57.3250   25.1240   46.1920 C   0  0  0  0  0  0  0  0  0  0  0  0
   56.5670   26.2750   45.9290 C   0  0  0  0  0  0  0  0  0  0  0  0
   55.1810   26.2500   46.0750 O   0  0  0  0  0  0  0  0  0  0  0  0
   58.4890   32.2560   45.8190 C   0  0  0  0  0  0  0  0  0  0  0  0
   57.9050   33.1460   44.8900 C   0  0  0  0  0  0  0  0  0  0  0  0
   58.2760   34.4910   44.8590 C   0  0  0  0  0  0  0  0  0  0  0  0
   59.2280   34.9770   45.7500 C   0  0  0  0  0  0  0  0  0  0  0  0
   59.8120   34.1240   46.6850 C   0  0  0  0  0  0  0  0  0  0  0  0
   59.4500   32.7630   46.7380 C   0  0  0  0  0  0  0  0  0  0  0  0
   59.8830   27.9850   49.9206 H   0  0  0  0  0  0  0  0  0  0  0  0
   58.9774   28.0499   48.3707 H   0  0  0  0  0  0  0  0  0  0  0  0
   60.7309   27.6602   48.3707 H   0  0  0  0  0  0  0  0  0  0  0  0
   61.7022   29.6693   50.3606 H   0  0  0  0  0  0  0  0  0  0  0  0
   58.3969   29.0028   46.9056 H   0  0  0  0  0  0  0  0  0  0  0  0
   59.1147   28.3959   45.0648 H   0  0  0  0  0  0  0  0  0  0  0  0
   60.4475   26.3422   45.5405 H   0  0  0  0  0  0  0  0  0  0  0  0
   59.3044   24.2443   46.2591 H   0  0  0  0  0  0  0  0  0  0  0  0
   56.8230   24.1982   46.5098 H   0  0  0  0  0  0  0  0  0  0  0  0
   54.6230   27.0930   45.9890 H   0  0  0  0  0  0  0  0  0  0  0  0
   57.1489   32.7744   44.1827 H   0  0  0  0  0  0  0  0  0  0  0  0
   57.8139   35.1698   44.1271 H   0  0  0  0  0  0  0  0  0  0  0  0
   59.5204   36.0369   45.7164 H   0  0  0  0  0  0  0  0  0  0  0  0
   60.5619   34.5165   47.3876 H   0  0  0  0  0  0  0  0  0  0  0  0
  1  2  1  0
  2  3  2  0
  3  4  1  0
  4  5  2  0
  4  6  1  0
  6  7  1  0
  7  8  2  0
  8  9  1  0
  9 10  2  0
 10 11  1  0
 11 12  2  0
 11 13  2  0
 11 14  1  0
 14 15  1  0
 15 16  2  0
 16 17  1  0
 17 18  2  0
 18 19  1  0
 19 20  2  0
 20 21  1  0
 10 22  1  0
 22 23  2  0
 23 24  1  0
 24 25  2  0
 25 26  1  0
 26 27  2  0
  8  2  1  0
 20 15  1  0
 27 22  1  0
 27  7  1  0
  1 28  1  0
  1 29  1  0
  1 30  1  0
  3 31  1  0
  9 32  1  0
 16 33  1  0
 17 34  1  0
 18 35  1  0
 19 36  1  0
 21 37  1  0
 23 38  1  0
 24 39  1  0
 25 40  1  0
 26 41  1  0
M  CHG  1  14  -1
M  END
>  <UniqueID>  (10) 
9

>  <SMILES>  (10) 
Cc1cc(=O)oc2c1cc(S(=O)(=O)[N-]c1ccccc1O)c1ccccc12

>  <Energy>  (10) 
61.424052904947374

>  <Genealogy>  (10) 
Cc1cc(=O)oc2c1cc(S(=O)(=O)[N-]c1ccccc1O)c1ccccc12 (protonated)
Cc1cc(=O)oc2c1cc(S(=O)(=O)[N-]c1ccccc1O)c1ccccc12 (3D coordinates assigned)
Cc1cc(=O)oc2c1cc(S(=O)(=O)[N-]c1ccccc1O)c1ccccc12 (optimized conformer: 61.424052904947374 kcal/mol)

>  <smiles>  (10) 
Cc1cc(=O)oc2c1cc(S(=O)(=O)Nc1ccccc1O)c1ccccc12

>  <score_type>  (10) 
oracle

>  <origin>  (10) 
adg

>  <m_score__min__energy>  (10) 
-12.25

>  <m_primary>  (10) 
energy

$$$$
10:0
     RDKit          3D

 50 52  0  0  0  0  0  0  0  0999 V2000
   57.4070   29.0310   43.4960 C   0  0  0  0  0  0  0  0  0  0  0  0
   56.6160   29.2610   45.0760 S   0  0  0  0  0  0  0  0  0  0  0  0
   55.1840   29.6740   44.8720 O   0  0  0  0  0  0  0  0  0  0  0  0
   56.6460   27.9520   45.8150 O   0  0  0  0  0  0  0  0  0  0  0  0
   57.4250   30.4570   46.0320 N   0  0  0  0  0  0  0  0  0  0  0  0
   57.8110   31.7340   45.5160 C   0  0  0  0  0  0  0  0  0  0  0  0
   58.0940   31.8810   44.1490 C   0  0  0  0  0  0  0  0  0  0  0  0
   58.5050   33.1150   43.6420 C   0  0  0  0  0  0  0  0  0  0  0  0
   58.6470   34.2090   44.4950 C   0  0  0  0  0  0  0  0  0  0  0  0
   58.3940   34.0700   45.8610 C   0  0  0  0  0  0  0  0  0  0  0  0
   57.9900   32.8300   46.3880 C   0  0  0  0  0  0  0  0  0  0  0  0
   57.7540   32.6940   47.8740 C   0  0  0  0  0  0  0  0  0  0  0  0
   58.9990   32.3490   48.5860 N   0  0  0  0  0  0  0  0  0  0  0  0
   59.9220   33.4310   48.9730 C   0  0  0  0  0  0  0  0  0  0  0  0
   61.2530   33.2780   48.2780 C   0  0  0  0  0  0  0  0  0  0  0  0
   62.3190   32.6240   48.9200 C   0  0  0  0  0  0  0  0  0  0  0  0
   63.5650   32.5200   48.2930 C   0  0  0  0  0  0  0  0  0  0  0  0
   63.7550   33.0600   47.0180 C   0  0  0  0  0  0  0  0  0  0  0  0
   62.6970   33.6980   46.3660 C   0  0  0  0  0  0  0  0  0  0  0  0
   61.4500   33.8030   46.9880 C   0  0  0  0  0  0  0  0  0  0  0  0
   59.2840   30.9820   48.9590 C   0  0  0  0  0  0  0  0  0  0  0  0
   58.5590   30.3950   49.8070 O   0  0  0  0  0  0  0  0  0  0  0  0
   60.3620   30.2720   48.3350 N   0  0  0  0  0  0  0  0  0  0  0  0
   60.2530   29.3120   47.2740 C   0  0  0  0  0  0  0  0  0  0  0  0
   60.5880   29.6290   45.9440 C   0  0  0  0  0  0  0  0  0  0  0  0
   60.4250   28.6770   44.9330 C   0  0  0  0  0  0  0  0  0  0  0  0
   59.9150   27.4130   45.2360 C   0  0  0  0  0  0  0  0  0  0  0  0
   59.5580   27.0990   46.5500 C   0  0  0  0  0  0  0  0  0  0  0  0
   59.0490   25.8770   46.8410 F   0  0  0  0  0  0  0  0  0  0  0  0
   59.7190   28.0490   47.5630 C   0  0  0  0  0  0  0  0  0  0  0  0
   58.4528   28.7269   43.6503 H   0  0  0  0  0  0  0  0  0  0  0  0
   56.8775   28.2496   42.9311 H   0  0  0  0  0  0  0  0  0  0  0  0
   57.3790   29.9745   42.9311 H   0  0  0  0  0  0  0  0  0  0  0  0
   57.9913   31.0190   43.4735 H   0  0  0  0  0  0  0  0  0  0  0  0
   58.7171   33.2246   42.5682 H   0  0  0  0  0  0  0  0  0  0  0  0
   58.9589   35.1834   44.0909 H   0  0  0  0  0  0  0  0  0  0  0  0
   58.5114   34.9357   46.5294 H   0  0  0  0  0  0  0  0  0  0  0  0
   57.3707   33.6482   48.2646 H   0  0  0  0  0  0  0  0  0  0  0  0
   57.0259   31.8857   48.0370 H   0  0  0  0  0  0  0  0  0  0  0  0
   59.4794   34.3987   48.6944 H   0  0  0  0  0  0  0  0  0  0  0  0
   60.0853   33.3817   50.0597 H   0  0  0  0  0  0  0  0  0  0  0  0
   62.1725   32.1917   49.9208 H   0  0  0  0  0  0  0  0  0  0  0  0
   64.3964   32.0125   48.8041 H   0  0  0  0  0  0  0  0  0  0  0  0
   64.7369   32.9827   46.5283 H   0  0  0  0  0  0  0  0  0  0  0  0
   62.8458   34.1187   45.3606 H   0  0  0  0  0  0  0  0  0  0  0  0
   60.6182   34.2988   46.4661 H   0  0  0  0  0  0  0  0  0  0  0  0
   60.9788   30.6278   45.6996 H   0  0  0  0  0  0  0  0  0  0  0  0
   60.6991   28.9243   43.8968 H   0  0  0  0  0  0  0  0  0  0  0  0
   59.7942   26.6638   44.4397 H   0  0  0  0  0  0  0  0  0  0  0  0
   59.4245   27.8034   48.5940 H   0  0  0  0  0  0  0  0  0  0  0  0
  1  2  1  0
  2  3  2  0
  2  4  2  0
  2  5  1  0
  5  6  1  0
  6  7  2  0
  7  8  1  0
  8  9  2  0
  9 10  1  0
 10 11  2  0
 11 12  1  0
 12 13  1  0
 13 14  1  0
 14 15  1  0
 15 16  2  0
 16 17  1  0
 17 18  2  0
 18 19  1  0
 19 20  2  0
 13 21  1  0
 21 22  2  0
 21 23  1  0
 23 24  1  0
 24 25  2  0
 25 26  1  0
 26 27  2  0
 27 28  1  0
 28 29  1  0
 28 30  2  0
 11  6  1  0
 20 15  1  0
 30 24  1  0
  1 31  1  0
  1 32  1  0
  1 33  1  0
  7 34  1  0
  8 35  1  0
  9 36  1  0
 10 37  1  0
 12 38  1  0
 12 39  1  0
 14 40  1  0
 14 41  1  0
 16 42  1  0
 17 43  1  0
 18 44  1  0
 19 45  1  0
 20 46  1  0
 25 47  1  0
 26 48  1  0
 27 49  1  0
 30 50  1  0
M  CHG  2   5  -1  23  -1
M  END
>  <UniqueID>  (11) 
10

>  <SMILES>  (11) 
CS(=O)(=O)[N-]c1ccccc1CN(Cc1ccccc1)C(=O)[N-]c1cccc(F)c1

>  <Energy>  (11) 
55.53470958305305

>  <Genealogy>  (11) 
CS(=O)(=O)[N-]c1ccccc1CN(Cc1ccccc1)C(=O)[N-]c1cccc(F)c1 (protonated)
CS(=O)(=O)[N-]c1ccccc1CN(Cc1ccccc1)C(=O)[N-]c1cccc(F)c1 (3D coordinates assigned)
CS(=O)(=O)[N-]c1ccccc1CN(Cc1ccccc1)C(=O)[N-]c1cccc(F)c1 (optimized conformer: 55.53470958305305 kcal/mol)

>  <smiles>  (11) 
CS(=O)(=O)Nc1ccccc1CN(Cc1ccccc1)C(=O)Nc1cccc(F)c1

>  <score_type>  (11) 
oracle

>  <origin>  (11) 
adg

>  <m_score__min__energy>  (11) 
-11.630000000000001

>  <m_primary>  (11) 
energy

$$$$
11:0
     RDKit          3D

 49 51  0  0  0  0  0  0  0  0999 V2000
   58.4934   33.5610   44.7668 H   0  0  0  0  0  0  0  0  0  0  0  0
   58.8740   33.0820   45.6810 C   0  0  0  0  0  0  0  0  0  0  0  0
   59.9790   33.6250   46.3440 C   0  0  0  0  0  0  0  0  0  0  0  0
   60.4717   34.5234   45.9439 H   0  0  0  0  0  0  0  0  0  0  0  0
   60.4600   33.0280   47.5160 C   0  0  0  0  0  0  0  0  0  0  0  0
   61.5570   33.5770   48.1890 O   0  0  0  0  0  0  0  0  0  0  0  0
   62.9230   33.2530   47.8940 C   0  0  0  0  0  0  0  0  0  0  0  0
   62.9900   31.7480   47.5980 C   0  0  0  0  0  0  0  0  0  0  0  0
   63.0149   31.1888   48.5449 H   0  0  0  0  0  0  0  0  0  0  0  0
   62.1043   31.4485   47.0185 H   0  0  0  0  0  0  0  0  0  0  0  0
   63.8988   31.5284   47.0185 H   0  0  0  0  0  0  0  0  0  0  0  0
   63.4030   34.0330   46.6560 C   0  0  0  0  0  0  0  0  0  0  0  0
   63.9542   34.9288   46.9780 H   0  0  0  0  0  0  0  0  0  0  0  0
   64.0637   33.3930   46.0528 H   0  0  0  0  0  0  0  0  0  0  0  0
   62.5339   34.3344   46.0528 H   0  0  0  0  0  0  0  0  0  0  0  0
   63.8250   33.5720   49.1010 C   0  0  0  0  0  0  0  0  0  0  0  0
   63.2735   33.3770   50.0326 H   0  0  0  0  0  0  0  0  0  0  0  0
   64.7223   32.9367   49.0662 H   0  0  0  0  0  0  0  0  0  0  0  0
   64.1234   34.6302   49.0662 H   0  0  0  0  0  0  0  0  0  0  0  0
   59.8090   31.9050   48.0390 C   0  0  0  0  0  0  0  0  0  0  0  0
   60.1683   31.4479   48.9728 H   0  0  0  0  0  0  0  0  0  0  0  0
   58.7020   31.3620   47.3770 C   0  0  0  0  0  0  0  0  0  0  0  0
   58.1860   30.4876   47.8002 H   0  0  0  0  0  0  0  0  0  0  0  0
   58.2480   31.9260   46.1790 C   0  0  0  0  0  0  0  0  0  0  0  0
   57.0740   31.3860   45.5530 N   0  0  0  0  0  0  0  0  0  0  0  0
   57.0180   30.4960   44.6020 C   0  0  0  0  0  0  0  0  0  0  0  0
   57.6100   29.2900   44.8070 N   0  0  0  0  0  0  0  0  0  0  0  0
   57.6120   28.3220   43.8560 C   0  0  0  0  0  0  0  0  0  0  0  0
   58.4090   26.7530   44.1830 S   0  0  0  0  0  0  0  0  0  0  0  0
   59.0750   27.3130   45.7560 C   0  0  0  0  0  0  0  0  0  0  0  0
   60.0960   28.2210   45.9410 C   0  0  0  0  0  0  0  0  0  0  0  0
   60.8950   28.8930   44.8720 C   0  0  0  0  0  0  0  0  0  0  0  0
   61.6589   29.5355   45.3343 H   0  0  0  0  0  0  0  0  0  0  0  0
   61.3853   28.1318   44.2474 H   0  0  0  0  0  0  0  0  0  0  0  0
   60.2291   29.5065   44.2474 H   0  0  0  0  0  0  0  0  0  0  0  0
   60.3530   28.3500   47.2590 N   0  0  0  0  0  0  0  0  0  0  0  0
   59.4570   27.5310   47.8530 C   0  0  0  0  0  0  0  0  0  0  0  0
   59.3860   27.3928   48.9420 H   0  0  0  0  0  0  0  0  0  0  0  0
   58.6600   26.9020   46.9670 N   0  0  0  0  0  0  0  0  0  0  0  0
   57.6570   25.8890   47.2770 C   0  0  0  0  0  0  0  0  0  0  0  0
   57.5600   25.7910   48.3683 H   0  0  0  0  0  0  0  0  0  0  0  0
   56.6892   26.1880   46.8482 H   0  0  0  0  0  0  0  0  0  0  0  0
   57.9656   24.9242   46.8482 H   0  0  0  0  0  0  0  0  0  0  0  0
   56.9890   28.5640   42.6310 C   0  0  0  0  0  0  0  0  0  0  0  0
   56.9677   27.7835   41.8561 H   0  0  0  0  0  0  0  0  0  0  0  0
   56.4090   29.7710   42.4030 N   0  0  0  0  0  0  0  0  0  0  0  0
   55.9600   29.9560   41.4790 H   0  0  0  0  0  0  0  0  0  0  0  0
   56.4120   30.7450   43.3530 C   0  0  0  0  0  0  0  0  0  0  0  0
   55.9451   31.7198   43.1484 H   0  0  0  0  0  0  0  0  0  0  0  0
  1  2  1  0
  2  3  2  0
  3  4  1  0
  3  5  1  0
  5  6  1  0
  6  7  1  0
  7  8  1  0
  8  9  1  0
  8 10  1  0
  8 11  1  0
  7 12  1  0
 12 13  1  0
 12 14  1  0
 12 15  1  0
  7 16  1  0
 16 17  1  0
 16 18  1  0
 16 19  1  0
  5 20  2  0
 20 21  1  0
 20 22  1  0
 22 23  1  0
 22 24  2  0
 24 25  1  0
 25 26  2  0
 26 27  1  0
 27 28  1  0
 28 29  1  0
 29 30  1  0
 30 31  2  0
 31 32  1  0
 32 33  1  0
 32 34  1  0
 32 35  1  0
 31 36  1  0
 36 37  2  0
 37 38  1  0
 37 39  1  0
 39 40  1  0
 40 41  1  0
 40 42  1  0
 40 43  1  0
 28 44  2  0
 44 45  1  0
 44 46  1  0
 46 47  1  0
 46 48  2  0
 48 49  1  0
 24  2  1  0
 48 26  1  0
 39 30  1  0
M  CHG  2  27  -1  46   1
M  END
>  <UniqueID>  (12) 
11

>  <SMILES>  (12) 
Cc1ncn(C)c1Sc1c[nH+]c/c(=N\c2ccc(OC(C)(C)C)cc2)[n-]1

>  <Energy>  (12) 
86.30904977652749

>  <Genealogy>  (12) 
Cc1ncn(C)c1Sc1c[nH+]cc(=Nc2ccc(OC(C)(C)C)cc2)[n-]1 (protonated)
Cc1ncn(C)c1Sc1c[nH+]c/c(=N\c2ccc(OC(C)(C)C)cc2)[n-]1 (cis-trans isomerization)
Cc1ncn(C)c1Sc1c[nH+]c/c(=N\c2ccc(OC(C)(C)C)cc2)[n-]1 (3D coordinates assigned)
Cc1ncn(C)c1Sc1c[nH+]c/c(=N\c2ccc(OC(C)(C)C)cc2)[n-]1 (optimized conformer: 86.30904977652749 kcal/mol)

>  <smiles>  (12) 
Cc1ncn(C)c1Sc1cncc(=Nc2ccc(OC(C)(C)C)cc2)[nH]1

>  <score_type>  (12) 
oracle

>  <origin>  (12) 
adg

>  <m_score__min__energy>  (12) 
-7.7999999999999998

>  <m_primary>  (12) 
energy

$$$$
12:0
     RDKit          3D

 50 52  0  0  0  0  0  0  0  0999 V2000
   55.1090   23.3680   46.9110 C   0  0  0  0  0  0  0  0  0  0  0  0
   54.6600   24.5080   45.6200 S   0  0  0  0  0  0  0  0  0  0  0  0
   55.2240   24.0590   44.3020 O   0  0  0  0  0  0  0  0  0  0  0  0
   53.1610   24.5480   45.5170 O   0  0  0  0  0  0  0  0  0  0  0  0
   55.2360   26.0990   46.0010 N   0  0  0  0  0  0  0  0  0  0  0  0
   56.6100   26.5120   46.0010 C   0  0  0  0  0  0  0  0  0  0  0  0
   57.6030   25.5270   46.0300 C   0  0  0  0  0  0  0  0  0  0  0  0
   58.9540   25.8830   46.0090 C   0  0  0  0  0  0  0  0  0  0  0  0
   59.3240   27.2280   45.9590 C   0  0  0  0  0  0  0  0  0  0  0  0
   58.3380   28.2330   45.9360 C   0  0  0  0  0  0  0  0  0  0  0  0
   58.6520   29.6010   45.8770 O   0  0  0  0  0  0  0  0  0  0  0  0
   58.3920   30.4550   44.7620 C   0  0  0  0  0  0  0  0  0  0  0  0
   58.5290   31.9030   45.1580 C   0  0  0  0  0  0  0  0  0  0  0  0
   57.9750   32.9140   44.3600 C   0  0  0  0  0  0  0  0  0  0  0  0
   58.1050   34.2540   44.7330 C   0  0  0  0  0  0  0  0  0  0  0  0
   58.7840   34.5940   45.9050 C   0  0  0  0  0  0  0  0  0  0  0  0
   59.3450   33.5940   46.7160 C   0  0  0  0  0  0  0  0  0  0  0  0
   60.0720   33.9480   47.9560 C   0  0  0  0  0  0  0  0  0  0  0  0
   59.4610   34.5590   48.8730 O   0  0  0  0  0  0  0  0  0  0  0  0
   61.4560   33.6000   48.1410 N   0  0  0  0  0  0  0  0  0  0  0  0
   61.9160   33.2150   49.4840 C   0  0  0  0  0  0  0  0  0  0  0  0
   63.4100   32.8620   49.4920 C   0  0  0  0  0  0  0  0  0  0  0  0
   63.7500   31.9830   48.2850 C   0  0  0  0  0  0  0  0  0  0  0  0
   63.4150   32.6670   46.9420 C   0  0  0  0  0  0  0  0  0  0  0  0
   62.4390   33.8480   47.0770 C   0  0  0  0  0  0  0  0  0  0  0  0
   59.2340   32.2500   46.3220 C   0  0  0  0  0  0  0  0  0  0  0  0
   56.9870   27.8670   45.9700 C   0  0  0  0  0  0  0  0  0  0  0  0
   54.9258   23.8331   47.8909 H   0  0  0  0  0  0  0  0  0  0  0  0
   54.5037   22.4541   46.8200 H   0  0  0  0  0  0  0  0  0  0  0  0
   56.1750   23.1123   46.8200 H   0  0  0  0  0  0  0  0  0  0  0  0
   57.3183   24.4652   46.0696 H   0  0  0  0  0  0  0  0  0  0  0  0
   59.7278   25.1015   46.0319 H   0  0  0  0  0  0  0  0  0  0  0  0
   60.3887   27.5036   45.9375 H   0  0  0  0  0  0  0  0  0  0  0  0
   59.1102   30.2304   43.9596 H   0  0  0  0  0  0  0  0  0  0  0  0
   57.3637   30.2790   44.4133 H   0  0  0  0  0  0  0  0  0  0  0  0
   57.4364   32.6513   43.4375 H   0  0  0  0  0  0  0  0  0  0  0  0
   57.6713   35.0436   44.1017 H   0  0  0  0  0  0  0  0  0  0  0  0
   58.8800   35.6509   46.1946 H   0  0  0  0  0  0  0  0  0  0  0  0
   61.7441   34.0542   50.1740 H   0  0  0  0  0  0  0  0  0  0  0  0
   61.3513   32.3249   49.7982 H   0  0  0  0  0  0  0  0  0  0  0  0
   64.0027   33.7875   49.4464 H   0  0  0  0  0  0  0  0  0  0  0  0
   63.6448   32.3120   50.4152 H   0  0  0  0  0  0  0  0  0  0  0  0
   64.8260   31.7556   48.3062 H   0  0  0  0  0  0  0  0  0  0  0  0
   63.1418   31.0691   48.3553 H   0  0  0  0  0  0  0  0  0  0  0  0
   64.3506   33.0384   46.4984 H   0  0  0  0  0  0  0  0  0  0  0  0
   62.9222   31.9128   46.3109 H   0  0  0  0  0  0  0  0  0  0  0  0
   63.0073   34.7586   47.3174 H   0  0  0  0  0  0  0  0  0  0  0  0
   61.9017   33.9692   46.1248 H   0  0  0  0  0  0  0  0  0  0  0  0
   59.7033   31.4628   46.9304 H   0  0  0  0  0  0  0  0  0  0  0  0
   56.2119   28.6475   45.9725 H   0  0  0  0  0  0  0  0  0  0  0  0
  1  2  1  0
  2  3  2  0
  2  4  2  0
  2  5  1  0
  5  6  1  0
  6  7  2  0
  7  8  1  0
  8  9  2  0
  9 10  1  0
 10 11  1  0
 11 12  1  0
 12 13  1  0
 13 14  2  0
 14 15  1  0
 15 16  2  0
 16 17  1  0
 17 18  1  0
 18 19  2  0
 18 20  1  0
 20 21  1  0
 21 22  1  0
 22 23  1  0
 23 24  1  0
 24 25  1  0
 17 26  2  0
 10 27  2  0
 27  6  1  0
 26 13  1  0
 25 20  1  0
  1 28  1  0
  1 29  1  0
  1 30  1  0
  7 31  1  0
  8 32  1  0
  9 33  1  0
 12 34  1  0
 12 35  1  0
 14 36  1  0
 15 37  1  0
 16 38  1  0
 21 39  1  0
 21 40  1  0
 22 41  1  0
 22 42  1  0
 23 43  1  0
 23 44  1  0
 24 45  1  0
 24 46  1  0
 25 47  1  0
 25 48  1  0
 26 49  1  0
 27 50  1  0
M  CHG  1   5  -1
M  END
>  <UniqueID>  (13) 
12

>  <SMILES>  (13) 
CS(=O)(=O)[N-]c1cccc(OCc2cccc(C(=O)N3CCCCC3)c2)c1

>  <Energy>  (13) 
54.95852101035833

>  <Genealogy>  (13) 
CS(=O)(=O)[N-]c1cccc(OCc2cccc(C(=O)N3CCCCC3)c2)c1 (protonated)
CS(=O)(=O)[N-]c1cccc(OCc2cccc(C(=O)N3CCCCC3)c2)c1 (3D coordinates assigned)
CS(=O)(=O)[N-]c1cccc(OCc2cccc(C(=O)N3CCCCC3)c2)c1 (nonaromatic ring conformer: 54.95852101035833 kcal/mol)

>  <smiles>  (13) 
CS(=O)(=O)Nc1cccc(OCc2cccc(C(=O)N3CCCCC3)c2)c1

>  <score_type>  (13) 
oracle

>  <origin>  (13) 
adg

>  <m_score__min__energy>  (13) 
-11.34

>  <m_primary>  (13) 
energy

$$$$
13:0
     RDKit          3D

 36 38  0  0  0  0  0  0  0  0999 V2000
   57.7385   24.5775   43.6397 H   0  0  0  0  0  0  0  0  0  0  0  0
   57.2980   25.0860   44.5100 C   0  0  0  0  0  0  0  0  0  0  0  0
   58.0120   26.0710   45.0760 C   0  0  0  0  0  0  0  0  0  0  0  0
   58.9020   25.7812   45.6539 H   0  0  0  0  0  0  0  0  0  0  0  0
   57.7010   27.5150   44.9870 C   0  0  0  0  0  0  0  0  0  0  0  0
   57.6740   28.3350   46.1280 C   0  0  0  0  0  0  0  0  0  0  0  0
   57.8662   27.8998   47.1198 H   0  0  0  0  0  0  0  0  0  0  0  0
   57.4040   29.7010   46.0080 C   0  0  0  0  0  0  0  0  0  0  0  0
   57.3671   30.3299   46.9097 H   0  0  0  0  0  0  0  0  0  0  0  0
   57.1800   30.2770   44.7520 C   0  0  0  0  0  0  0  0  0  0  0  0
   56.9160   31.6550   44.6910 O   0  0  0  0  0  0  0  0  0  0  0  0
   57.8140   32.6450   44.1900 C   0  0  0  0  0  0  0  0  0  0  0  0
   58.6238   32.1493   43.6346 H   0  0  0  0  0  0  0  0  0  0  0  0
   57.2562   33.3245   43.5289 H   0  0  0  0  0  0  0  0  0  0  0  0
   58.4080   33.4480   45.3170 C   0  0  0  0  0  0  0  0  0  0  0  0
   58.3010   33.0020   46.6460 C   0  0  0  0  0  0  0  0  0  0  0  0
   57.7721   32.0635   46.8686 H   0  0  0  0  0  0  0  0  0  0  0  0
   58.8650   33.7480   47.6860 C   0  0  0  0  0  0  0  0  0  0  0  0
   58.7718   33.3994   48.7251 H   0  0  0  0  0  0  0  0  0  0  0  0
   59.5470   34.9360   47.4070 C   0  0  0  0  0  0  0  0  0  0  0  0
   59.9869   35.5229   48.2268 H   0  0  0  0  0  0  0  0  0  0  0  0
   59.6700   35.3780   46.0880 C   0  0  0  0  0  0  0  0  0  0  0  0
   60.2103   36.3108   45.8693 H   0  0  0  0  0  0  0  0  0  0  0  0
   59.1070   34.6360   45.0450 C   0  0  0  0  0  0  0  0  0  0  0  0
   59.2119   34.9840   44.0068 H   0  0  0  0  0  0  0  0  0  0  0  0
   57.2330   29.4600   43.6060 C   0  0  0  0  0  0  0  0  0  0  0  0
   57.0619   29.8995   42.6123 H   0  0  0  0  0  0  0  0  0  0  0  0
   57.5020   28.0930   43.7250 C   0  0  0  0  0  0  0  0  0  0  0  0
   57.5579   27.4667   42.8224 H   0  0  0  0  0  0  0  0  0  0  0  0
   55.9710   24.6310   44.9610 C   0  0  0  0  0  0  0  0  0  0  0  0
   55.3380   23.1050   44.6360 S   0  0  0  0  0  0  0  0  0  0  0  0
   53.8690   23.4620   45.3700 C   0  0  0  0  0  0  0  0  0  0  0  0
   52.9100   22.6550   45.4680 O   0  0  0  0  0  0  0  0  0  0  0  0
   53.8180   24.7250   45.8430 N   0  0  0  0  0  0  0  0  0  0  0  0
   54.9830   25.3820   45.6030 C   0  0  0  0  0  0  0  0  0  0  0  0
   55.1430   26.7180   45.9490 O   0  0  0  0  0  0  0  0  0  0  0  0
  1  2  1  0
  2  3  2  0
  3  4  1  0
  3  5  1  0
  5  6  2  0
  6  7  1  0
  6  8  1  0
  8  9  1  0
  8 10  2  0
 10 11  1  0
 11 12  1  0
 12 13  1  0
 12 14  1  0
 12 15  1  0
 15 16  2  0
 16 17  1  0
 16 18  1  0
 18 19  1  0
 18 20  2  0
 20 21  1  0
 20 22  1  0
 22 23  1  0
 22 24  2  0
 24 25  1  0
 10 26  1  0
 26 27  1  0
 26 28  2  0
 28 29  1  0
  2 30  1  0
 30 31  1  0
 31 32  1  0
 32 33  2  0
 32 34  1  0
 34 35  1  0
 35 36  1  0
 28  5  1  0
 35 30  2  0
 24 15  1  0
M  CHG  2  34  -1  36  -1
M  END
>  <UniqueID>  (14) 
13

>  <SMILES>  (14) 
O=c1[n-]c([O-])c(/C=C\c2ccc(OCc3ccccc3)cc2)s1

>  <Energy>  (14) 
78.99638224312478

>  <Genealogy>  (14) 
O=c1[n-]c([O-])c(C=Cc2ccc(OCc3ccccc3)cc2)s1 (protonated)
O=c1[n-]c([O-])c(/C=C\c2ccc(OCc3ccccc3)cc2)s1 (cis-trans isomerization)
O=c1[n-]c([O-])c(/C=C\c2ccc(OCc3ccccc3)cc2)s1 (3D coordinates assigned)
O=c1[n-]c([O-])c(/C=C\c2ccc(OCc3ccccc3)cc2)s1 (optimized conformer: 78.99638224312478 kcal/mol)

>  <smiles>  (14) 
O=c1[nH]c(O)c(C=Cc2ccc(OCc3ccccc3)cc2)s1

>  <score_type>  (14) 
oracle

>  <origin>  (14) 
adg

>  <m_score__min__energy>  (14) 
-14.32

>  <m_primary>  (14) 
energy

$$$$
14:0
     RDKit          3D

 29 30  0  0  0  0  0  0  0  0999 V2000
   57.6120   24.5090   47.1530 C   0  0  0  0  0  0  0  0  0  0  0  0
   56.5690   25.4840   46.6170 C   0  0  0  0  0  0  0  0  0  0  0  0
   57.1630   26.3720   45.5590 C   0  0  0  0  0  0  0  0  0  0  0  0
   57.4260   27.7330   45.7770 C   0  0  0  0  0  0  0  0  0  0  0  0
   58.0080   28.3600   44.6830 C   0  0  0  0  0  0  0  0  0  0  0  0
   58.3300   29.7590   44.6300 N   0  0  0  0  0  0  0  0  0  0  0  0
   57.3750   30.8140   44.8380 C   0  0  0  0  0  0  0  0  0  0  0  0
   56.1400   30.5730   44.7560 O   0  0  0  0  0  0  0  0  0  0  0  0
   57.8190   32.1990   45.1120 C   0  0  0  0  0  0  0  0  0  0  0  0
   57.9730   32.7050   46.4140 C   0  0  0  0  0  0  0  0  0  0  0  0
   58.4120   34.0210   46.4550 C   0  0  0  0  0  0  0  0  0  0  0  0
   58.6140   34.5520   44.8760 S   0  0  0  0  0  0  0  0  0  0  0  0
   58.1470   33.1250   44.1220 C   0  0  0  0  0  0  0  0  0  0  0  0
   58.1920   27.2390   43.4390 S   0  0  0  0  0  0  0  0  0  0  0  0
   57.5570   25.9330   44.2920 C   0  0  0  0  0  0  0  0  0  0  0  0
   57.3990   24.5560   43.7340 C   0  0  0  0  0  0  0  0  0  0  0  0
   57.5965   24.5235   48.2528 H   0  0  0  0  0  0  0  0  0  0  0  0
   57.3826   23.4940   46.7964 H   0  0  0  0  0  0  0  0  0  0  0  0
   58.6092   24.8062   46.7964 H   0  0  0  0  0  0  0  0  0  0  0  0
   55.7331   24.9156   46.1833 H   0  0  0  0  0  0  0  0  0  0  0  0
   56.2143   26.1127   47.4470 H   0  0  0  0  0  0  0  0  0  0  0  0
   57.1945   28.2510   46.7194 H   0  0  0  0  0  0  0  0  0  0  0  0
   59.3130   30.0120   44.3900 H   0  0  0  0  0  0  0  0  0  0  0  0
   57.7648   32.1127   47.3173 H   0  0  0  0  0  0  0  0  0  0  0  0
   58.5955   34.6127   47.3640 H   0  0  0  0  0  0  0  0  0  0  0  0
   58.1069   32.9513   43.0365 H   0  0  0  0  0  0  0  0  0  0  0  0
   57.3161   23.8333   44.5591 H   0  0  0  0  0  0  0  0  0  0  0  0
   56.4900   24.5129   43.1160 H   0  0  0  0  0  0  0  0  0  0  0  0
   58.2746   24.3081   43.1160 H   0  0  0  0  0  0  0  0  0  0  0  0
  1  2  1  0
  2  3  1  0
  3  4  1  0
  4  5  2  0
  5  6  1  0
  6  7  1  0
  7  8  2  0
  7  9  1  0
  9 10  1  0
 10 11  2  0
 11 12  1  0
 12 13  1  0
  5 14  1  0
 14 15  1  0
 15 16  1  0
 15  3  2  0
 13  9  2  0
  1 17  1  0
  1 18  1  0
  1 19  1  0
  2 20  1  0
  2 21  1  0
  4 22  1  0
  6 23  1  0
 10 24  1  0
 11 25  1  0
 13 26  1  0
 16 27  1  0
 16 28  1  0
 16 29  1  0
M  END
>  <UniqueID>  (15) 
14

>  <SMILES>  (15) 
CCc1cc(NC(=O)c2ccsc2)sc1C

>  <Energy>  (15) 
78.14914661937378

>  <Genealogy>  (15) 
CCc1cc(NC(=O)c2ccsc2)sc1C (3D coordinates assigned)
CCc1cc(NC(=O)c2ccsc2)sc1C (optimized conformer: 78.14914661937378 kcal/mol)

>  <smiles>  (15) 
CCc1cc(NC(=O)c2ccsc2)sc1C

>  <score_type>  (15) 
oracle

>  <origin>  (15) 
adg

>  <m_score__min__energy>  (15) 
-6.0899999999999999

>  <m_primary>  (15) 
energy

$$$$
15:0
     RDKit          3D

 34 35  0  0  0  0  0  0  0  0999 V2000
   54.8670   26.3330   45.9740 N   0  0  0  0  0  0  0  0  0  0  0  0
   55.8340   25.2960   46.1170 C   0  0  0  0  0  0  0  0  0  0  0  0
   55.5870   24.1420   45.6760 O   0  0  0  0  0  0  0  0  0  0  0  0
   57.1500   25.5830   46.7640 C   0  0  0  0  0  0  0  0  0  0  0  0
   58.4270   25.9040   45.4990 S   0  0  0  0  0  0  0  0  0  0  0  0
   58.0020   27.6320   45.3000 C   0  0  0  0  0  0  0  0  0  0  0  0
   58.9360   28.5910   45.5280 N   0  0  0  0  0  0  0  0  0  0  0  0
   58.6410   29.9070   45.3770 C   0  0  0  0  0  0  0  0  0  0  0  0
   59.5400   30.7650   45.5850 O   0  0  0  0  0  0  0  0  0  0  0  0
   57.3460   30.2980   44.9880 C   0  0  0  0  0  0  0  0  0  0  0  0
   56.9910   31.7530   44.7700 C   0  0  0  0  0  0  0  0  0  0  0  0
   58.2110   32.5850   44.3510 C   0  0  0  0  0  0  0  0  0  0  0  0
   58.7610   33.3950   45.4970 C   0  0  0  0  0  0  0  0  0  0  0  0
   59.5360   34.5380   45.2470 C   0  0  0  0  0  0  0  0  0  0  0  0
   60.0160   35.3100   46.3090 C   0  0  0  0  0  0  0  0  0  0  0  0
   59.7230   34.9470   47.6280 C   0  0  0  0  0  0  0  0  0  0  0  0
   58.9480   33.8140   47.8830 C   0  0  0  0  0  0  0  0  0  0  0  0
   58.4610   33.0420   46.8240 C   0  0  0  0  0  0  0  0  0  0  0  0
   56.4000   29.2850   44.7560 C   0  0  0  0  0  0  0  0  0  0  0  0
   55.1050   29.6050   44.3570 O   0  0  0  0  0  0  0  0  0  0  0  0
   56.7480   27.9820   44.9200 N   0  0  0  0  0  0  0  0  0  0  0  0
   55.1500   27.3370   46.0080 H   0  0  0  0  0  0  0  0  0  0  0  0
   57.0504   26.4673   47.4106 H   0  0  0  0  0  0  0  0  0  0  0  0
   57.4515   24.7094   47.3607 H   0  0  0  0  0  0  0  0  0  0  0  0
   56.2282   31.8181   43.9801 H   0  0  0  0  0  0  0  0  0  0  0  0
   56.6139   32.1573   45.7209 H   0  0  0  0  0  0  0  0  0  0  0  0
   58.9960   31.9060   43.9867 H   0  0  0  0  0  0  0  0  0  0  0  0
   57.8924   33.2831   43.5629 H   0  0  0  0  0  0  0  0  0  0  0  0
   59.7667   34.8276   44.2112 H   0  0  0  0  0  0  0  0  0  0  0  0
   60.6247   36.2038   46.1074 H   0  0  0  0  0  0  0  0  0  0  0  0
   60.1028   35.5536   48.4633 H   0  0  0  0  0  0  0  0  0  0  0  0
   58.7199   33.5279   48.9203 H   0  0  0  0  0  0  0  0  0  0  0  0
   57.8417   32.1565   47.0298 H   0  0  0  0  0  0  0  0  0  0  0  0
   54.3380   28.9620   44.5130 H   0  0  0  0  0  0  0  0  0  0  0  0
  1  2  1  0
  2  3  2  0
  2  4  1  0
  4  5  1  0
  5  6  1  0
  6  7  2  0
  7  8  1  0
  8  9  2  0
  8 10  1  0
 10 11  1  0
 11 12  1  0
 12 13  1  0
 13 14  2  0
 14 15  1  0
 15 16  2  0
 16 17  1  0
 17 18  2  0
 10 19  2  0
 19 20  1  0
 19 21  1  0
 21  6  1  0
 18 13  1  0
  1 22  1  0
  4 23  1  0
  4 24  1  0
 11 25  1  0
 11 26  1  0
 12 27  1  0
 12 28  1  0
 14 29  1  0
 15 30  1  0
 16 31  1  0
 17 32  1  0
 18 33  1  0
 20 34  1  0
M  CHG  2   1  -1  21  -1
M  END
>  <UniqueID>  (16) 
15

>  <SMILES>  (16) 
[NH-]C(=O)CSc1nc(=O)c(CCc2ccccc2)c(O)[n-]1

>  <Energy>  (16) 
25.973976796669255

>  <Genealogy>  (16) 
[NH-]C(=O)CSc1nc(=O)c(CCc2ccccc2)c(O)[n-]1 (protonated)
[NH-]C(=O)CSc1nc(=O)c(CCc2ccccc2)c(O)[n-]1 (3D coordinates assigned)
[NH-]C(=O)CSc1nc(=O)c(CCc2ccccc2)c(O)[n-]1 (optimized conformer: 25.973976796669255 kcal/mol)

>  <smiles>  (16) 
NC(=O)CSc1nc(=O)c(CCc2ccccc2)c(O)[nH]1

>  <score_type>  (16) 
oracle

>  <origin>  (16) 
adg

>  <m_score__min__energy>  (16) 
-13.16

>  <m_primary>  (16) 
energy

$$$$
16:0
     RDKit          3D

 54 56  0  0  0  0  0  0  0  0999 V2000
   55.5350   27.0710   45.7820 O   0  0  0  0  0  0  0  0  0  0  0  0
   55.9280   25.9890   46.2930 C   0  0  0  0  0  0  0  0  0  0  0  0
   57.3160   25.9100   46.8650 C   0  0  0  0  0  0  0  0  0  0  0  0
   57.9760   27.2110   46.7790 N   0  0  0  0  0  0  0  0  0  0  0  0
   59.1830   27.5090   47.4960 C   0  0  0  0  0  0  0  0  0  0  0  0
   59.7740   26.6000   48.1390 O   0  0  0  0  0  0  0  0  0  0  0  0
   59.7260   28.8860   47.5020 C   0  0  0  0  0  0  0  0  0  0  0  0
   60.0240   29.5020   48.7280 C   0  0  0  0  0  0  0  0  0  0  0  0
   60.5690   30.7860   48.7570 C   0  0  0  0  0  0  0  0  0  0  0  0
   60.8130   31.4520   47.5570 C   0  0  0  0  0  0  0  0  0  0  0  0
   60.5110   30.8560   46.3750 N   0  0  0  0  0  0  0  0  0  0  0  0
   59.9770   29.6050   46.3100 C   0  0  0  0  0  0  0  0  0  0  0  0
   59.5500   28.9520   44.6880 S   0  0  0  0  0  0  0  0  0  0  0  0
   58.6510   30.4510   44.1350 C   0  0  0  0  0  0  0  0  0  0  0  0
   57.3640   30.6340   44.8950 C   0  0  0  0  0  0  0  0  0  0  0  0
   56.9360   29.7050   45.6330 O   0  0  0  0  0  0  0  0  0  0  0  0
   56.6390   31.8700   44.8640 N   0  0  0  0  0  0  0  0  0  0  0  0
   57.1410   33.1720   45.3020 C   0  0  0  0  0  0  0  0  0  0  0  0
   58.3470   33.6150   44.4850 C   0  0  0  0  0  0  0  0  0  0  0  0
   59.1520   34.5000   45.4200 C   0  0  0  0  0  0  0  0  0  0  0  0
   58.8760   33.9860   46.8280 C   0  0  0  0  0  0  0  0  0  0  0  0
   57.6380   33.0940   46.7420 C   0  0  0  0  0  0  0  0  0  0  0  0
   55.0500   24.8590   46.2830 N   0  0  0  0  0  0  0  0  0  0  0  0
   54.5480   24.2170   45.0750 C   0  0  0  0  0  0  0  0  0  0  0  0
   55.6050   23.3060   44.5210 C   0  0  0  0  0  0  0  0  0  0  0  0
   56.5170   22.6760   45.3830 C   0  0  0  0  0  0  0  0  0  0  0  0
   57.4800   21.8000   44.8710 C   0  0  0  0  0  0  0  0  0  0  0  0
   57.5290   21.5390   43.4980 C   0  0  0  0  0  0  0  0  0  0  0  0
   56.6150   22.1510   42.6350 C   0  0  0  0  0  0  0  0  0  0  0  0
   55.6520   23.0290   43.1440 C   0  0  0  0  0  0  0  0  0  0  0  0
   57.2567   25.6024   47.9195 H   0  0  0  0  0  0  0  0  0  0  0  0
   57.8983   25.1752   46.2897 H   0  0  0  0  0  0  0  0  0  0  0  0
   57.5750   27.9280   46.1340 H   0  0  0  0  0  0  0  0  0  0  0  0
   59.8268   28.9697   49.6702 H   0  0  0  0  0  0  0  0  0  0  0  0
   60.8039   31.2681   49.7174 H   0  0  0  0  0  0  0  0  0  0  0  0
   61.2505   32.4612   47.5677 H   0  0  0  0  0  0  0  0  0  0  0  0
   59.2902   31.3314   44.2971 H   0  0  0  0  0  0  0  0  0  0  0  0
   58.4086   30.3344   43.0684 H   0  0  0  0  0  0  0  0  0  0  0  0
   56.3033   33.8753   45.1852 H   0  0  0  0  0  0  0  0  0  0  0  0
   58.9411   32.7446   44.1696 H   0  0  0  0  0  0  0  0  0  0  0  0
   58.0520   34.1445   43.5671 H   0  0  0  0  0  0  0  0  0  0  0  0
   60.2248   34.4238   45.1889 H   0  0  0  0  0  0  0  0  0  0  0  0
   58.8697   35.5580   45.3152 H   0  0  0  0  0  0  0  0  0  0  0  0
   59.7357   33.4052   47.1937 H   0  0  0  0  0  0  0  0  0  0  0  0
   58.7116   34.8203   47.5258 H   0  0  0  0  0  0  0  0  0  0  0  0
   57.8998   32.0565   46.9971 H   0  0  0  0  0  0  0  0  0  0  0  0
   56.8616   33.4256   47.4471 H   0  0  0  0  0  0  0  0  0  0  0  0
   53.6485   23.6318   45.3166 H   0  0  0  0  0  0  0  0  0  0  0  0
   54.2945   24.9840   44.3284 H   0  0  0  0  0  0  0  0  0  0  0  0
   56.4741   22.8720   46.4646 H   0  0  0  0  0  0  0  0  0  0  0  0
   58.1989   21.3163   45.5486 H   0  0  0  0  0  0  0  0  0  0  0  0
   58.2877   20.8512   43.0964 H   0  0  0  0  0  0  0  0  0  0  0  0
   56.6531   21.9422   41.5557 H   0  0  0  0  0  0  0  0  0  0  0  0
   54.9293   23.5040   42.4642 H   0  0  0  0  0  0  0  0  0  0  0  0
  1  2  2  0
  2  3  1  0
  3  4  1  0
  4  5  1  0
  5  6  2  0
  5  7  1  0
  7  8  2  0
  8  9  1  0
  9 10  2  0
 10 11  1  0
 11 12  2  0
 12 13  1  0
 13 14  1  0
 14 15  1  0
 15 16  2  0
 15 17  1  0
 17 18  1  0
 18 19  1  0
 19 20  1  0
 20 21  1  0
 21 22  1  0
  2 23  1  0
 23 24  1  0
 24 25  1  0
 25 26  2  0
 26 27  1  0
 27 28  2  0
 28 29  1  0
 29 30  2  0
 12  7  1  0
 22 18  1  0
 30 25  1  0
  3 31  1  0
  3 32  1  0
  4 33  1  0
  8 34  1  0
  9 35  1  0
 10 36  1  0
 14 37  1  0
 14 38  1  0
 18 39  1  0
 19 40  1  0
 19 41  1  0
 20 42  1  0
 20 43  1  0
 21 44  1  0
 21 45  1  0
 22 46  1  0
 22 47  1  0
 24 48  1  0
 24 49  1  0
 26 50  1  0
 27 51  1  0
 28 52  1  0
 29 53  1  0
 30 54  1  0
M  CHG  2  17  -1  23  -1
M  END
>  <UniqueID>  (17) 
16

>  <SMILES>  (17) 
O=C(CNC(=O)c1cccnc1SCC(=O)[N-]C1CCCC1)[N-]Cc1ccccc1

>  <Energy>  (17) 
50.84473600547296

>  <Genealogy>  (17) 
O=C(CNC(=O)c1cccnc1SCC(=O)[N-]C1CCCC1)[N-]Cc1ccccc1 (protonated)
O=C(CNC(=O)c1cccnc1SCC(=O)[N-]C1CCCC1)[N-]Cc1ccccc1 (3D coordinates assigned)
O=C(CNC(=O)c1cccnc1SCC(=O)[N-]C1CCCC1)[N-]Cc1ccccc1 (nonaromatic ring conformer: 50.84473600547296 kcal/mol)

>  <smiles>  (17) 
O=C(CNC(=O)c1cccnc1SCC(=O)NC1CCCC1)NCc1ccccc1

>  <score_type>  (17) 
oracle

>  <origin>  (17) 
adg

>  <m_score__min__energy>  (17) 
-11.73

>  <m_primary>  (17) 
energy

$$$$
17:0
     RDKit          3D

 37 39  0  0  0  0  0  0  0  0999 V2000
   56.8760   30.8170   42.7040 O   0  0  0  0  0  0  0  0  0  0  0  0
   56.6520   30.9160   43.9280 N   0  0  0  0  0  0  0  0  0  0  0  0
   55.6740   30.1260   44.4880 O   0  0  0  0  0  0  0  0  0  0  0  0
   57.4020   31.8380   44.7410 C   0  0  0  0  0  0  0  0  0  0  0  0
   57.7520   33.1020   44.2400 C   0  0  0  0  0  0  0  0  0  0  0  0
   58.4800   33.9990   45.0260 C   0  0  0  0  0  0  0  0  0  0  0  0
   58.8620   33.6570   46.3330 C   0  0  0  0  0  0  0  0  0  0  0  0
   59.6390   34.5700   47.1280 N   0  0  0  0  0  0  0  0  0  0  0  0
   60.9770   34.3040   47.5850 C   0  0  0  0  0  0  0  0  0  0  0  0
   61.9350   33.8300   46.6760 C   0  0  0  0  0  0  0  0  0  0  0  0
   63.2350   33.5430   47.1010 C   0  0  0  0  0  0  0  0  0  0  0  0
   63.5900   33.7020   48.4530 C   0  0  0  0  0  0  0  0  0  0  0  0
   64.8880   33.4420   48.9150 O   0  0  0  0  0  0  0  0  0  0  0  0
   65.2420   32.4320   49.8220 C   0  0  0  0  0  0  0  0  0  0  0  0
   64.2840   31.5680   50.3850 C   0  0  0  0  0  0  0  0  0  0  0  0
   64.6750   30.5840   51.2990 C   0  0  0  0  0  0  0  0  0  0  0  0
   66.0190   30.4630   51.6660 C   0  0  0  0  0  0  0  0  0  0  0  0
   66.9710   31.3310   51.1250 C   0  0  0  0  0  0  0  0  0  0  0  0
   66.5830   32.3160   50.2110 C   0  0  0  0  0  0  0  0  0  0  0  0
   62.6360   34.1750   49.3600 C   0  0  0  0  0  0  0  0  0  0  0  0
   61.3350   34.4630   48.9350 C   0  0  0  0  0  0  0  0  0  0  0  0
   58.5280   32.3850   46.8340 C   0  0  0  0  0  0  0  0  0  0  0  0
   58.9800   31.9000   48.4630 Cl  0  0  0  0  0  0  0  0  0  0  0  0
   57.7990   31.4880   46.0430 C   0  0  0  0  0  0  0  0  0  0  0  0
   57.4510   33.3882   43.2214 H   0  0  0  0  0  0  0  0  0  0  0  0
   58.7563   34.9820   44.6170 H   0  0  0  0  0  0  0  0  0  0  0  0
   59.1960   35.4720   47.4140 H   0  0  0  0  0  0  0  0  0  0  0  0
   61.6607   33.6832   45.6209 H   0  0  0  0  0  0  0  0  0  0  0  0
   63.9835   33.1914   46.3757 H   0  0  0  0  0  0  0  0  0  0  0  0
   63.2247   31.6669   50.1054 H   0  0  0  0  0  0  0  0  0  0  0  0
   63.9246   29.9047   51.7295 H   0  0  0  0  0  0  0  0  0  0  0  0
   66.3265   29.6849   52.3802 H   0  0  0  0  0  0  0  0  0  0  0  0
   68.0272   31.2395   51.4184 H   0  0  0  0  0  0  0  0  0  0  0  0
   67.3346   33.0032   49.7954 H   0  0  0  0  0  0  0  0  0  0  0  0
   62.9109   34.3215   50.4150 H   0  0  0  0  0  0  0  0  0  0  0  0
   60.5879   34.8159   49.6611 H   0  0  0  0  0  0  0  0  0  0  0  0
   57.5343   30.4989   46.4451 H   0  0  0  0  0  0  0  0  0  0  0  0
  1  2  2  0
  2  3  1  0
  2  4  1  0
  4  5  2  0
  5  6  1  0
  6  7  2  0
  7  8  1  0
  8  9  1  0
  9 10  2  0
 10 11  1  0
 11 12  2  0
 12 13  1  0
 13 14  1  0
 14 15  2  0
 15 16  1  0
 16 17  2  0
 17 18  1  0
 18 19  2  0
 12 20  1  0
 20 21  2  0
  7 22  1  0
 22 23  1  0
 22 24  2  0
 24  4  1  0
 21  9  1  0
 19 14  1  0
  5 25  1  0
  6 26  1  0
  8 27  1  0
 10 28  1  0
 11 29  1  0
 15 30  1  0
 16 31  1  0
 17 32  1  0
 18 33  1  0
 19 34  1  0
 20 35  1  0
 21 36  1  0
 24 37  1  0
M  CHG  2   2   1   3  -1
M  END
>  <UniqueID>  (18) 
17

>  <SMILES>  (18) 
O=[N+]([O-])c1ccc(Nc2ccc(Oc3ccccc3)cc2)c(Cl)c1

>  <Energy>  (18) 
53.981292968885946

>  <Genealogy>  (18) 
O=[N+]([O-])c1ccc(Nc2ccc(Oc3ccccc3)cc2)c(Cl)c1 (3D coordinates assigned)
O=[N+]([O-])c1ccc(Nc2ccc(Oc3ccccc3)cc2)c(Cl)c1 (optimized conformer: 53.981292968885946 kcal/mol)

>  <smiles>  (18) 
O=[N+]([O-])c1ccc(Nc2ccc(Oc3ccccc3)cc2)c(Cl)c1

>  <score_type>  (18) 
oracle

>  <origin>  (18) 
adg

>  <m_score__min__energy>  (18) 
-7.7400000000000002

>  <m_primary>  (18) 
energy

$$$$
18:0
     RDKit          3D

 40 42  0  0  1  0  0  0  0  0999 V2000
   55.3320   25.8970   45.9130 O   0  0  0  0  0  0  0  0  0  0  0  0
   56.2670   26.7450   45.9200 C   0  0  0  0  0  0  0  0  0  0  0  0
   56.0800   27.9580   45.3940 N   0  0  0  0  0  0  0  0  0  0  0  0
   57.0140   28.9190   45.3580 C   0  0  0  0  0  0  0  0  0  0  0  0
   56.8470   30.0870   44.8560 N   0  0  0  0  0  0  0  0  0  0  0  0
   57.9510   30.8090   44.3270 C   0  0  0  0  0  0  0  0  0  0  0  0
   58.2000   32.0980   45.0340 C   0  0  0  0  0  0  0  0  0  0  0  0
   58.2950   32.1980   46.4050 C   0  0  0  0  0  0  0  0  0  0  0  0
   58.5270   33.4200   47.0270 C   0  0  0  0  0  0  0  0  0  0  0  0
   58.6690   34.5760   46.3050 C   0  0  0  0  0  0  0  0  0  0  0  0
   58.5770   34.4960   44.9390 C   0  0  0  0  0  0  0  0  0  0  0  0
   58.3510   33.3020   44.3340 C   0  0  0  0  0  0  0  0  0  0  0  0
   58.2450   28.6130   45.9050 C   0  0  0  0  0  0  0  0  0  0  0  0
   58.4540   27.3520   46.4570 C   0  0  0  0  0  0  0  0  0  0  0  0
   57.4610   26.4220   46.4610 N   0  0  0  0  0  0  0  0  0  0  0  0
   57.7220   25.1280   47.0430 C   0  0  0  0  0  0  0  0  0  0  0  0
   57.4030   24.0000   46.1240 C   0  0  0  0  0  0  0  0  0  0  0  0
   58.1010   23.7470   44.9730 C   0  0  0  0  0  0  0  0  0  0  0  0
   57.7380   22.6700   44.1670 C   0  0  0  0  0  0  0  0  0  0  0  0
   56.6760   21.8720   44.5390 C   0  0  0  0  0  0  0  0  0  0  0  0
   56.2820   20.7850   43.7590 O   0  0  0  0  0  0  0  0  0  0  0  0
   55.9460   22.1030   45.7030 C   0  0  0  0  0  0  0  0  0  0  0  0
   56.3440   23.1790   46.4660 C   0  0  0  0  0  0  0  0  0  0  0  0
   55.1440   28.1660   44.9870 H   0  0  0  0  0  0  0  0  0  0  0  0
   58.8517   30.1833   44.4123 H   0  0  0  0  0  0  0  0  0  0  0  0
   57.7141   31.0496   43.2801 H   0  0  0  0  0  0  0  0  0  0  0  0
   58.1851   31.2927   47.0201 H   0  0  0  0  0  0  0  0  0  0  0  0
   58.5982   33.4595   48.1240 H   0  0  0  0  0  0  0  0  0  0  0  0
   58.8511   35.5384   46.8056 H   0  0  0  0  0  0  0  0  0  0  0  0
   58.6870   35.4052   44.3297 H   0  0  0  0  0  0  0  0  0  0  0  0
   58.2829   33.2787   43.2364 H   0  0  0  0  0  0  0  0  0  0  0  0
   59.0532   29.3592   45.9045 H   0  0  0  0  0  0  0  0  0  0  0  0
   59.4325   27.1050   46.8946 H   0  0  0  0  0  0  0  0  0  0  0  0
   58.7878   25.0722   47.3092 H   0  0  0  0  0  0  0  0  0  0  0  0
   57.0720   25.0272   47.9247 H   0  0  0  0  0  0  0  0  0  0  0  0
   58.9449   24.3916   44.6861 H   0  0  0  0  0  0  0  0  0  0  0  0
   58.2937   22.4578   43.2417 H   0  0  0  0  0  0  0  0  0  0  0  0
   56.8860   19.9520   43.7460 H   0  0  0  0  0  0  0  0  0  0  0  0
   55.1006   21.4632   45.9960 H   0  0  0  0  0  0  0  0  0  0  0  0
   55.7923   23.3956   47.3927 H   0  0  0  0  0  0  0  0  0  0  0  0
  1  2  2  0
  2  3  1  0
  3  4  1  0
  4  5  2  0
  5  6  1  0
  6  7  1  0
  7  8  2  0
  8  9  1  0
  9 10  2  0
 10 11  1  0
 11 12  2  0
  4 13  1  0
 13 14  2  0
 14 15  1  0
 15 16  1  0
 16 17  1  0
 17 18  2  0
 18 19  1  0
 19 20  2  0
 20 21  1  0
 20 22  1  0
 22 23  2  0
 15  2  1  0
 23 17  1  0
 12  7  1  0
  3 24  1  0
  6 25  1  0
  6 26  1  0
  8 27  1  0
  9 28  1  0
 10 29  1  0
 11 30  1  0
 12 31  1  0
 13 32  1  0
 14 33  1  0
 16 34  1  0
 16 35  1  0
 18 36  1  0
 19 37  1  0
 21 38  1  0
 22 39  1  0
 23 40  1  0
M  END
>  <smiles>  (19) 
O=c1[nH]c(=NCc2ccccc2)ccn1Cc1ccc(O)cc1

>  <score_type>  (19) 
oracle

>  <origin>  (19) 
adg

>  <m_score__min__energy>  (19) 
-9.5800000000000001

>  <m_primary>  (19) 
energy

$$$$
19:0
     RDKit          3D

 50 52  0  0  0  0  0  0  0  0999 V2000
   59.6380   34.9520   47.5890 C   0  0  0  0  0  0  0  0  0  0  0  0
   59.9220   34.3660   46.3240 O   0  0  0  0  0  0  0  0  0  0  0  0
   59.1490   33.3630   45.7190 C   0  0  0  0  0  0  0  0  0  0  0  0
   58.5270   33.5550   44.4700 C   0  0  0  0  0  0  0  0  0  0  0  0
   57.7610   32.5390   43.8950 C   0  0  0  0  0  0  0  0  0  0  0  0
   57.5860   31.3240   44.5660 C   0  0  0  0  0  0  0  0  0  0  0  0
   56.7190   29.9950   43.8020 S   0  0  0  0  0  0  0  0  0  0  0  0
   56.2670   30.4070   42.4290 O   0  0  0  0  0  0  0  0  0  0  0  0
   55.5100   29.6250   44.6140 O   0  0  0  0  0  0  0  0  0  0  0  0
   57.7860   28.6380   43.6690 N   0  0  0  0  0  0  0  0  0  0  0  0
   58.5870   28.2410   44.7900 C   0  0  0  0  0  0  0  0  0  0  0  0
   59.9390   28.6100   44.8430 C   0  0  0  0  0  0  0  0  0  0  0  0
   60.7470   28.1910   45.9000 C   0  0  0  0  0  0  0  0  0  0  0  0
   60.2140   27.4000   46.9250 C   0  0  0  0  0  0  0  0  0  0  0  0
   61.0470   26.9630   48.0020 N   0  0  0  0  0  0  0  0  0  0  0  0
   58.8620   27.0340   46.8850 C   0  0  0  0  0  0  0  0  0  0  0  0
   58.0410   27.4450   45.8210 C   0  0  0  0  0  0  0  0  0  0  0  0
   56.6010   27.0100   45.7790 C   0  0  0  0  0  0  0  0  0  0  0  0
   58.1920   31.1300   45.8120 C   0  0  0  0  0  0  0  0  0  0  0  0
   58.9870   32.1330   46.3860 C   0  0  0  0  0  0  0  0  0  0  0  0
   59.6700   31.8720   47.6250 N   0  0  0  0  0  0  0  0  0  0  0  0
   61.1370   31.8260   47.6530 C   0  0  0  0  0  0  0  0  0  0  0  0
   61.6270   30.9480   48.8120 C   0  0  0  0  0  0  0  0  0  0  0  0
   60.8000   29.7400   48.9260 N   0  0  0  0  0  0  0  0  0  0  0  0
   59.3900   30.0380   49.2590 C   0  0  0  0  0  0  0  0  0  0  0  0
   58.9240   31.4390   48.8110 C   0  0  0  0  0  0  0  0  0  0  0  0
   59.9670   34.2732   48.3897 H   0  0  0  0  0  0  0  0  0  0  0  0
   60.1720   35.9096   47.6777 H   0  0  0  0  0  0  0  0  0  0  0  0
   58.5555   35.1262   47.6777 H   0  0  0  0  0  0  0  0  0  0  0  0
   58.6457   34.5133   43.9432 H   0  0  0  0  0  0  0  0  0  0  0  0
   57.2937   32.6944   42.9114 H   0  0  0  0  0  0  0  0  0  0  0  0
   58.0620   28.3350   42.7090 H   0  0  0  0  0  0  0  0  0  0  0  0
   60.3657   29.2349   44.0446 H   0  0  0  0  0  0  0  0  0  0  0  0
   61.8071   28.4832   45.9284 H   0  0  0  0  0  0  0  0  0  0  0  0
   61.4680   26.0080   47.9990 H   0  0  0  0  0  0  0  0  0  0  0  0
   61.2590   27.5970   48.8040 H   0  0  0  0  0  0  0  0  0  0  0  0
   58.4395   26.4195   47.6936 H   0  0  0  0  0  0  0  0  0  0  0  0
   56.2224   26.8956   46.8055 H   0  0  0  0  0  0  0  0  0  0  0  0
   56.0043   27.7680   45.2504 H   0  0  0  0  0  0  0  0  0  0  0  0
   56.5237   26.0484   45.2504 H   0  0  0  0  0  0  0  0  0  0  0  0
   58.0434   30.1806   46.3473 H   0  0  0  0  0  0  0  0  0  0  0  0
   61.5039   31.4093   46.7034 H   0  0  0  0  0  0  0  0  0  0  0  0
   61.5215   32.8469   47.7939 H   0  0  0  0  0  0  0  0  0  0  0  0
   62.6715   30.6559   48.6286 H   0  0  0  0  0  0  0  0  0  0  0  0
   61.5527   31.5202   49.7485 H   0  0  0  0  0  0  0  0  0  0  0  0
   60.8300   29.2340   48.0100 H   0  0  0  0  0  0  0  0  0  0  0  0
   58.7524   29.2877   48.7686 H   0  0  0  0  0  0  0  0  0  0  0  0
   59.3083   30.0101   50.3556 H   0  0  0  0  0  0  0  0  0  0  0  0
   57.8510   31.4044   48.5714 H   0  0  0  0  0  0  0  0  0  0  0  0
   59.1067   32.1533   49.6273 H   0  0  0  0  0  0  0  0  0  0  0  0
  1  2  1  0
  2  3  1  0
  3  4  2  0
  4  5  1  0
  5  6  2  0
  6  7  1  0
  7  8  2  0
  7  9  2  0
  7 10  1  0
 10 11  1  0
 11 12  2  0
 12 13  1  0
 13 14  2  0
 14 15  1  0
 14 16  1  0
 16 17  2  0
 17 18  1  0
  6 19  1  0
 19 20  2  0
 20 21  1  0
 21 22  1  0
 22 23  1  0
 23 24  1  0
 24 25  1  0
 25 26  1  0
 20  3  1  0
 26 21  1  0
 17 11  1  0
  1 27  1  0
  1 28  1  0
  1 29  1  0
  4 30  1  0
  5 31  1  0
 10 32  1  0
 12 33  1  0
 13 34  1  0
 15 35  1  0
 15 36  1  0
 16 37  1  0
 18 38  1  0
 18 39  1  0
 18 40  1  0
 19 41  1  0
 22 42  1  0
 22 43  1  0
 23 44  1  0
 23 45  1  0
 24 46  1  0
 25 47  1  0
 25 48  1  0
 26 49  1  0
 26 50  1  0
M  END
>  <UniqueID>  (20) 
18

>  <SMILES>  (20) 
COc1ccc(S(=O)(=O)Nc2ccc(N)cc2C)cc1N1CCNCC1

>  <Energy>  (20) 
61.57535383330606

>  <Genealogy>  (20) 
COc1ccc(S(=O)(=O)Nc2ccc(N)cc2C)cc1N1CCNCC1 (3D coordinates assigned)
COc1ccc(S(=O)(=O)Nc2ccc(N)cc2C)cc1N1CCNCC1 (nonaromatic ring conformer: 61.57535383330606 kcal/mol)

>  <smiles>  (20) 
COc1ccc(S(=O)(=O)Nc2ccc(N)cc2C)cc1N1CCNCC1

>  <score_type>  (20) 
oracle

>  <origin>  (20) 
adg

>  <m_score__min__energy>  (20) 
-7.9800000000000004

>  <m_primary>  (20) 
energy

$$$$
20:0
     RDKit          3D

 47 49  0  0  0  0  0  0  0  0999 V2000
   59.8210   29.4990   52.3140 C   0  0  0  0  0  0  0  0  0  0  0  0
   59.3660   30.3820   51.1810 C   0  0  0  0  0  0  0  0  0  0  0  0
   59.7810   30.0770   49.8730 C   0  0  0  0  0  0  0  0  0  0  0  0
   59.3970   30.8710   48.7700 C   0  0  0  0  0  0  0  0  0  0  0  0
   59.8070   30.4710   47.3370 C   0  0  1  0  0  0  0  0  0  0  0  0
   61.2340   30.9940   47.0030 C   0  0  0  0  0  0  0  0  0  0  0  0
   59.8660   28.9180   47.2490 C   0  0  0  0  0  0  0  0  0  0  0  0
   58.4770   28.3100   47.1390 C   0  0  0  0  0  0  0  0  0  0  0  0
   57.8300   28.8280   45.9850 O   0  0  0  0  0  0  0  0  0  0  0  0
   57.8930   30.1830   45.6370 C   0  0  0  0  0  0  0  0  0  0  0  0
   57.0190   30.6910   44.6460 C   0  0  0  0  0  0  0  0  0  0  0  0
   56.0810   29.8150   43.8930 C   0  0  0  0  0  0  0  0  0  0  0  0
   55.1450   28.9780   44.5720 N   0  0  0  0  0  0  0  0  0  0  0  0
   56.1140   29.7890   42.6330 O   0  0  0  0  0  0  0  0  0  0  0  0
   57.0250   32.0700   44.3790 C   0  0  0  0  0  0  0  0  0  0  0  0
   57.8680   32.9270   45.0810 C   0  0  0  0  0  0  0  0  0  0  0  0
   58.7500   32.4270   46.0360 C   0  0  0  0  0  0  0  0  0  0  0  0
   59.5070   33.3110   46.7320 F   0  0  0  0  0  0  0  0  0  0  0  0
   58.8180   31.0390   46.2930 C   0  0  0  0  0  0  0  0  0  0  0  0
   58.5390   31.9640   49.0140 C   0  0  0  0  0  0  0  0  0  0  0  0
   58.1340   32.2850   50.3090 C   0  0  0  0  0  0  0  0  0  0  0  0
   58.5390   31.5090   51.4020 C   0  0  0  0  0  0  0  0  0  0  0  0
   58.0980   31.9080   52.7600 C   0  0  0  0  0  0  0  0  0  0  0  0
   58.7230   32.8080   53.3780 O   0  0  0  0  0  0  0  0  0  0  0  0
   56.9120   31.3630   53.3530 N   0  0  0  0  0  0  0  0  0  0  0  0
   56.0640   30.3520   52.7900 C   0  0  0  0  0  0  0  0  0  0  0  0
   56.5980   29.3390   52.2670 O   0  0  0  0  0  0  0  0  0  0  0  0
   54.5650   30.4760   52.7700 C   0  0  0  0  0  0  0  0  0  0  0  0
   54.0710   30.6510   54.0480 F   0  0  0  0  0  0  0  0  0  0  0  0
   54.0050   29.3440   52.2090 F   0  0  0  0  0  0  0  0  0  0  0  0
   54.2000   31.5730   52.0080 F   0  0  0  0  0  0  0  0  0  0  0  0
   59.5745   29.9773   53.2734 H   0  0  0  0  0  0  0  0  0  0  0  0
   59.3119   28.5261   52.2479 H   0  0  0  0  0  0  0  0  0  0  0  0
   60.9087   29.3489   52.2479 H   0  0  0  0  0  0  0  0  0  0  0  0
   60.4207   29.1981   49.7044 H   0  0  0  0  0  0  0  0  0  0  0  0
   61.7793   31.1938   47.9372 H   0  0  0  0  0  0  0  0  0  0  0  0
   61.7748   30.2356   46.4178 H   0  0  0  0  0  0  0  0  0  0  0  0
   61.1567   31.9222   46.4178 H   0  0  0  0  0  0  0  0  0  0  0  0
   60.4516   28.6328   46.3626 H   0  0  0  0  0  0  0  0  0  0  0  0
   60.3353   28.5391   48.1689 H   0  0  0  0  0  0  0  0  0  0  0  0
   58.5598   27.2164   47.0546 H   0  0  0  0  0  0  0  0  0  0  0  0
   57.8913   28.5621   48.0353 H   0  0  0  0  0  0  0  0  0  0  0  0
   54.3960   29.3870   45.1720 H   0  0  0  0  0  0  0  0  0  0  0  0
   56.3561   32.4773   43.6066 H   0  0  0  0  0  0  0  0  0  0  0  0
   57.8373   34.0080   44.8798 H   0  0  0  0  0  0  0  0  0  0  0  0
   58.1839   32.5726   48.1693 H   0  0  0  0  0  0  0  0  0  0  0  0
   57.4876   33.1596   50.4743 H   0  0  0  0  0  0  0  0  0  0  0  0
  1  2  1  0
  2  3  2  0
  3  4  1  0
  4  5  1  0
  5  6  1  6
  5  7  1  0
  7  8  1  0
  8  9  1  0
  9 10  1  0
 10 11  2  0
 11 12  1  0
 12 13  1  0
 12 14  2  0
 11 15  1  0
 15 16  2  0
 16 17  1  0
 17 18  1  0
 17 19  2  0
  4 20  2  0
 20 21  1  0
 21 22  2  0
 22 23  1  0
 23 24  2  0
 23 25  1  0
 25 26  1  0
 26 27  2  0
 26 28  1  0
 28 29  1  0
 28 30  1  0
 28 31  1  0
 22  2  1  0
 19  5  1  0
 19 10  1  0
  1 32  1  0
  1 33  1  0
  1 34  1  0
  3 35  1  0
  6 36  1  0
  6 37  1  0
  6 38  1  0
  7 39  1  0
  7 40  1  0
  8 41  1  0
  8 42  1  0
 13 43  1  0
 15 44  1  0
 16 45  1  0
 20 46  1  0
 21 47  1  0
M  CHG  2  13  -1  25  -1
M  END
>  <UniqueID>  (21) 
19

>  <SMILES>  (21) 
Cc1cc([C@@]2(C)CCOc3c(C([NH-])=O)ccc(F)c32)ccc1C(=O)[N-]C(=O)C(F)(F)F

>  <Energy>  (21) 
67.94532060176569

>  <Genealogy>  (21) 
Cc1cc(C2(C)CCOc3c(C([NH-])=O)ccc(F)c32)ccc1C(=O)[N-]C(=O)C(F)(F)F (protonated)
Cc1cc([C@@]2(C)CCOc3c(C([NH-])=O)ccc(F)c32)ccc1C(=O)[N-]C(=O)C(F)(F)F (chirality)
Cc1cc([C@@]2(C)CCOc3c(C([NH-])=O)ccc(F)c32)ccc1C(=O)[N-]C(=O)C(F)(F)F (3D coordinates assigned)
Cc1cc([C@@]2(C)CCOc3c(C([NH-])=O)ccc(F)c32)ccc1C(=O)[N-]C(=O)C(F)(F)F (nonaromatic ring conformer: 67.94532060176569 kcal/mol)

>  <smiles>  (21) 
Cc1cc(C2(C)CCOc3c(C(N)=O)ccc(F)c32)ccc1C(=O)NC(=O)C(F)(F)F

>  <score_type>  (21) 
oracle

>  <origin>  (21) 
adg

>  <m_score__min__energy>  (21) 
-11.16

>  <m_primary>  (21) 
energy

$$$$
21:0
     RDKit          3D

 12 11  0  0  0  0  0  0  0  0999 V2000
   52.9650   31.6260   51.3050 C   0  0  0  0  0  0  0  0  0  0  0  0
   51.4750   31.3180   51.1360 C   0  0  0  0  0  0  0  0  0  0  0  0
   51.0300   31.5610   49.7220 C   0  0  0  0  0  0  0  0  0  0  0  0
   50.6880   32.7150   49.3460 O   0  0  0  0  0  0  0  0  0  0  0  0
   50.9790   30.5060   48.8200 O   0  0  0  0  0  0  0  0  0  0  0  0
   50.6480   32.1360   52.0870 C   0  0  0  0  0  0  0  0  0  0  0  0
   50.6380   33.3920   51.9950 O   0  0  0  0  0  0  0  0  0  0  0  0
   49.9040   31.5180   53.0850 O   0  0  0  0  0  0  0  0  0  0  0  0
   53.2098   31.6766   52.3762 H   0  0  0  0  0  0  0  0  0  0  0  0
   53.5598   30.8318   50.8301 H   0  0  0  0  0  0  0  0  0  0  0  0
   53.1961   32.5909   50.8301 H   0  0  0  0  0  0  0  0  0  0  0  0
   51.3264   30.2531   51.3683 H   0  0  0  0  0  0  0  0  0  0  0  0
  1  2  1  0
  2  3  1  0
  3  4  2  0
  3  5  1  0
  2  6  1  0
  6  7  2  0
  6  8  1  0
  1  9  1  0
  1 10  1  0
  1 11  1  0
  2 12  1  0
M  CHG  2   5  -1   8  -1
M  END
>  <UniqueID>  (22) 
20

>  <SMILES>  (22) 
CC(C(=O)[O-])C(=O)[O-]

>  <Energy>  (22) 
5.057073823796037

>  <Genealogy>  (22) 
CC(C(=O)[O-])C(=O)[O-] (protonated)
CC(C(=O)[O-])C(=O)[O-] (3D coordinates assigned)
CC(C(=O)[O-])C(=O)[O-] (optimized conformer: 5.057073823796037 kcal/mol)

>  <smiles>  (22) 
CC(C(=O)O)C(=O)O

>  <score_type>  (22) 
oracle

>  <origin>  (22) 
adg

>  <m_score__min__energy>  (22) 
-10.59

>  <m_primary>  (22) 
energy

$$$$
22:0
     RDKit          2D

 55 60  0  0  0  0  0  0  0  0999 V2000
   -1.9754   -6.3423    0.0000 C   0  0  0  0  0  0  0  0  0  0  0  0
   -1.5763   -4.8964    0.0000 N   0  0  0  0  0  0  0  0  0  0  0  0
   -2.5116   -3.7236    0.0000 C   0  0  0  0  0  0  0  0  0  0  0  0
   -3.3064   -3.6621    0.0000 O   0  0  0  0  0  0  0  0  0  0  0  0
   -1.6852   -2.4718    0.0000 C   0  0  0  0  0  0  0  0  0  0  0  0
   -1.3515   -3.9342    0.0000 N   0  0  0  0  0  0  0  0  0  0  0  0
   -2.5242   -4.8694    0.0000 C   0  0  0  0  0  0  0  0  0  0  0  0
   -3.6969   -5.8046    0.0000 C   0  0  0  0  0  0  0  0  0  0  0  0
   -3.4734   -7.2879    0.0000 C   0  0  0  0  0  0  0  0  0  0  0  0
   -4.6461   -8.2231    0.0000 C   0  0  0  0  0  0  0  0  0  0  0  0
   -6.0424   -7.6751    0.0000 C   0  0  0  0  0  0  0  0  0  0  0  0
   -7.2152   -8.6104    0.0000 C   0  0  0  0  0  0  0  0  0  0  0  0
   -8.6115   -8.0623    0.0000 C   0  0  0  0  0  0  0  0  0  0  0  0
   -8.8351   -6.5791    0.0000 C   0  0  0  0  0  0  0  0  0  0  0  0
   -7.6623   -5.6439    0.0000 C   0  0  0  0  0  0  0  0  0  0  0  0
   -6.2660   -6.1919    0.0000 C   0  0  0  0  0  0  0  0  0  0  0  0
   -5.0933   -5.2566    0.0000 C   0  0  0  0  0  0  0  0  0  0  0  0
   -0.0000   -4.5850    0.0000 C   0  0  0  0  0  0  0  0  0  0  0  0
    1.3515   -3.9342    0.0000 C   0  0  0  0  0  0  0  0  0  0  0  0
    1.6852   -2.4718    0.0000 N   0  0  0  0  0  0  0  0  0  0  0  0
    0.7500   -1.2990    0.0000 C   0  0  0  0  0  0  0  0  0  0  0  0
    1.5000    0.0000    0.0000 N   0  0  0  0  0  0  0  0  0  0  0  0
    0.7500    1.2990    0.0000 C   0  0  0  0  0  0  0  0  0  0  0  0
    1.5000    2.5981    0.0000 O   0  0  0  0  0  0  0  0  0  0  0  0
   -0.7500    1.2990    0.0000 C   0  0  0  0  0  0  0  0  0  0  0  0
   -1.5000    2.5981    0.0000 C   0  0  0  0  0  0  0  0  0  0  0  0
   -2.2500    3.8971    0.0000 C   0  0  0  0  0  0  0  0  0  0  0  0
   -1.5000    5.1962    0.0000 C   0  0  0  0  0  0  0  0  0  0  0  0
   -2.2500    6.4952    0.0000 C   0  0  0  0  0  0  0  0  0  0  0  0
   -3.7500    6.4952    0.0000 C   0  0  0  0  0  0  0  0  0  0  0  0
   -4.5000    7.7942    0.0000 Cl  0  0  0  0  0  0  0  0  0  0  0  0
   -4.5000    5.1962    0.0000 C   0  0  0  0  0  0  0  0  0  0  0  0
   -3.7500    3.8971    0.0000 C   0  0  0  0  0  0  0  0  0  0  0  0
   -1.5000    0.0000    0.0000 N   0  0  0  0  0  0  0  0  0  0  0  0
   -0.7500   -1.2990    0.0000 C   0  0  0  0  0  0  0  0  0  0  0  0
   -2.1952   -7.8261    0.0000 H   0  0  0  0  0  0  0  0  0  0  0  0
   -3.0686   -6.3151    0.0000 H   0  0  0  0  0  0  0  0  0  0  0  0
   -0.5295   -6.7414    0.0000 H   0  0  0  0  0  0  0  0  0  0  0  0
   -3.0935   -4.3114    0.0000 H   0  0  0  0  0  0  0  0  0  0  0  0
   -1.9005   -6.2336    0.0000 H   0  0  0  0  0  0  0  0  0  0  0  0
   -2.1543   -8.0020    0.0000 H   0  0  0  0  0  0  0  0  0  0  0  0
   -4.4226   -9.7064    0.0000 H   0  0  0  0  0  0  0  0  0  0  0  0
   -6.9916  -10.0936    0.0000 H   0  0  0  0  0  0  0  0  0  0  0  0
   -9.7842   -8.9976    0.0000 H   0  0  0  0  0  0  0  0  0  0  0  0
  -10.2314   -6.0311    0.0000 H   0  0  0  0  0  0  0  0  0  0  0  0
   -7.8859   -4.1606    0.0000 H   0  0  0  0  0  0  0  0  0  0  0  0
   -5.3168   -3.7734    0.0000 H   0  0  0  0  0  0  0  0  0  0  0  0
    2.5242   -4.8694    0.0000 H   0  0  0  0  0  0  0  0  0  0  0  0
    3.0000    0.0000    0.0000 H   0  0  0  0  0  0  0  0  0  0  0  0
   -2.7990    1.8481    0.0000 H   0  0  0  0  0  0  0  0  0  0  0  0
   -0.2010    3.3481    0.0000 H   0  0  0  0  0  0  0  0  0  0  0  0
    0.0000    5.1962    0.0000 H   0  0  0  0  0  0  0  0  0  0  0  0
   -1.5000    7.7942    0.0000 H   0  0  0  0  0  0  0  0  0  0  0  0
   -6.0000    5.1962    0.0000 H   0  0  0  0  0  0  0  0  0  0  0  0
   -4.5000    2.5981    0.0000 H   0  0  0  0  0  0  0  0  0  0  0  0
  1  2  1  0
  2  3  1  0
  3  4  2  0
  3  5  1  0
  5  6  1  0
  6  7  1  0
  7  8  1  0
  8  9  2  0
  9 10  1  0
 10 11  2  0
 11 12  1  0
 12 13  2  0
 13 14  1  0
 14 15  2  0
 15 16  1  0
 16 17  2  0
  6 18  1  0
 18 19  2  0
 19 20  1  0
 20 21  2  0
 21 22  1  0
 22 23  1  0
 23 24  2  0
 23 25  1  0
 25 26  1  0
 26 27  1  0
 27 28  2  0
 28 29  1  0
 29 30  2  0
 30 31  1  0
 30 32  1  0
 32 33  2  0
 25 34  2  0
 34 35  1  0
 18  2  1  0
 35 21  1  0
 35  5  2  0
 17  8  1  0
 33 27  1  0
 16 11  1  0
  1 36  1  0
  1 37  1  0
  1 38  1  0
  7 39  1  0
  7 40  1  0
  9 41  1  0
 10 42  1  0
 12 43  1  0
 13 44  1  0
 14 45  1  0
 15 46  1  0
 17 47  1  0
 19 48  1  0
 22 49  1  0
 26 50  1  0
 26 51  1  0
 28 52  1  0
 29 53  1  0
 32 54  1  0
 33 55  1  0
M  END
>  <smiles>  (23) 
Cn1c(=O)c2n(Cc3ccc4ccccc4c3)c1=CN=c1[nH]c(=O)c(Cc3ccc(Cl)cc3)nc1=2

>  <m_score__min__energy>  (23) 
nan

>  <m_primary>  (23) 
energy

$$$$
23:0
     RDKit          3D

 45 47  0  0  1  0  0  0  0  0999 V2000
   58.2630   22.3480   44.5200 C   0  0  0  0  0  0  0  0  0  0  0  0
   56.7780   22.3150   44.7140 C   0  0  0  0  0  0  0  0  0  0  0  0
   56.3280   22.7680   46.0890 C   0  0  0  0  0  0  0  0  0  0  0  0
   56.2740   24.2540   46.0430 C   0  0  0  0  0  0  0  0  0  0  0  0
   55.1240   24.9760   46.0500 N   0  0  0  0  0  0  0  0  0  0  0  0
   55.4370   26.2800   46.0000 N   0  0  0  0  0  0  0  0  0  0  0  0
   56.7940   26.4010   45.9610 C   0  0  0  0  0  0  0  0  0  0  0  0
   57.5590   27.6630   45.9020 C   0  0  2  0  0  0  0  0  0  0  0  0
   57.1590   28.4510   44.6490 C   0  0  0  0  0  0  0  0  0  0  0  0
   57.9100   29.7060   44.7900 N   0  0  0  0  0  0  0  0  0  0  0  0
   57.2030   30.9190   44.7880 C   0  0  0  0  0  0  0  0  0  0  0  0
   55.9460   30.8700   44.7760 O   0  0  0  0  0  0  0  0  0  0  0  0
   57.8900   32.1970   44.7980 C   0  0  0  0  0  0  0  0  0  0  0  0
   58.2360   32.8610   45.9800 C   0  0  0  0  0  0  0  0  0  0  0  0
   58.8500   33.9970   45.5860 N   0  0  0  0  0  0  0  0  0  0  0  0
   59.3640   34.9700   46.5480 C   0  0  0  0  0  0  0  0  0  0  0  0
   58.8860   34.0440   44.2650 N   0  0  0  0  0  0  0  0  0  0  0  0
   58.3110   32.9630   43.7340 C   0  0  0  0  0  0  0  0  0  0  0  0
   58.1250   32.5960   42.3040 C   0  0  0  0  0  0  0  0  0  0  0  0
   59.3400   29.5810   44.9220 C   0  0  0  0  0  0  0  0  0  0  0  0
   59.7600   28.4210   45.7610 C   0  0  0  0  0  0  0  0  0  0  0  0
   58.8920   27.3700   45.8300 O   0  0  0  0  0  0  0  0  0  0  0  0
   57.2880   25.1380   45.9890 N   0  0  0  0  0  0  0  0  0  0  0  0
   58.7608   22.3591   45.5009 H   0  0  0  0  0  0  0  0  0  0  0  0
   58.5793   21.4567   43.9583 H   0  0  0  0  0  0  0  0  0  0  0  0
   58.5394   23.2525   43.9583 H   0  0  0  0  0  0  0  0  0  0  0  0
   56.3160   22.9737   43.9639 H   0  0  0  0  0  0  0  0  0  0  0  0
   56.4649   21.2661   44.6050 H   0  0  0  0  0  0  0  0  0  0  0  0
   55.3335   22.3578   46.3184 H   0  0  0  0  0  0  0  0  0  0  0  0
   57.0179   22.4173   46.8707 H   0  0  0  0  0  0  0  0  0  0  0  0
   54.7530   27.0930   45.9920 H   0  0  0  0  0  0  0  0  0  0  0  0
   57.3466   28.2629   46.7992 H   0  0  0  0  0  0  0  0  0  0  0  0
   57.4539   27.9151   43.7348 H   0  0  0  0  0  0  0  0  0  0  0  0
   56.0731   28.6045   44.5634 H   0  0  0  0  0  0  0  0  0  0  0  0
   58.0477   32.5281   47.0114 H   0  0  0  0  0  0  0  0  0  0  0  0
   59.1741   34.6105   47.5701 H   0  0  0  0  0  0  0  0  0  0  0  0
   60.4465   35.0963   46.3989 H   0  0  0  0  0  0  0  0  0  0  0  0
   58.8582   35.9354   46.3989 H   0  0  0  0  0  0  0  0  0  0  0  0
   57.6286   31.6166   42.2384 H   0  0  0  0  0  0  0  0  0  0  0  0
   57.5033   33.3561   41.8082 H   0  0  0  0  0  0  0  0  0  0  0  0
   59.1056   32.5440   41.8082 H   0  0  0  0  0  0  0  0  0  0  0  0
   59.7733   29.4599   43.9182 H   0  0  0  0  0  0  0  0  0  0  0  0
   59.6999   30.4912   45.4241 H   0  0  0  0  0  0  0  0  0  0  0  0
   60.7102   28.0429   45.3558 H   0  0  0  0  0  0  0  0  0  0  0  0
   59.8226   28.8130   46.7869 H   0  0  0  0  0  0  0  0  0  0  0  0
  1  2  1  0
  2  3  1  0
  3  4  1  0
  4  5  2  0
  5  6  1  0
  6  7  1  0
  7  8  1  0
  8  9  1  0
  9 10  1  0
 10 11  1  0
 11 12  2  0
 11 13  1  0
 13 14  2  0
 14 15  1  0
 15 16  1  0
 15 17  1  0
 17 18  2  0
 18 19  1  0
 10 20  1  0
 20 21  1  0
 21 22  1  0
  7 23  2  0
 23  4  1  0
 22  8  1  0
 18 13  1  0
  1 24  1  0
  1 25  1  0
  1 26  1  0
  2 27  1  0
  2 28  1  0
  3 29  1  0
  3 30  1  0
  6 31  1  0
  8 32  1  1
  9 33  1  0
  9 34  1  0
 14 35  1  0
 16 36  1  0
 16 37  1  0
 16 38  1  0
 19 39  1  0
 19 40  1  0
 19 41  1  0
 20 42  1  0
 20 43  1  0
 21 44  1  0
 21 45  1  0
M  END
>  <smiles>  (24) 
CCCc1n[nH]c(C2CN(C(=O)c3cn(C)nc3C)CCO2)n1

>  <score_type>  (24) 
oracle

>  <origin>  (24) 
adg

>  <m_score__min__energy>  (24) 
-8.0399999999999991

>  <m_primary>  (24) 
energy

$$$$
24:0
     RDKit          3D

 39 41  0  0  0  0  0  0  0  0999 V2000
   56.9460   29.3630   42.9340 N   0  0  0  0  0  0  0  0  0  0  0  0
   56.6160   29.8530   44.5590 S   0  0  0  0  0  0  0  0  0  0  0  0
   55.5190   28.9970   45.1270 O   0  0  0  0  0  0  0  0  0  0  0  0
   56.1690   31.2890   44.5720 O   0  0  0  0  0  0  0  0  0  0  0  0
   58.0620   29.6820   45.5340 C   0  0  0  0  0  0  0  0  0  0  0  0
   58.1030   29.6550   46.9200 C   0  0  0  0  0  0  0  0  0  0  0  0
   59.4060   29.5200   47.4170 C   0  0  0  0  0  0  0  0  0  0  0  0
   59.7850   29.4890   49.1330 S   0  0  0  0  0  0  0  0  0  0  0  0
   58.5260   29.2460   49.9190 O   0  0  0  0  0  0  0  0  0  0  0  0
   60.7480   28.3660   49.3920 O   0  0  0  0  0  0  0  0  0  0  0  0
   60.4920   30.9860   49.6510 N   0  0  0  0  0  0  0  0  0  0  0  0
   60.4410   32.1650   48.8360 C   0  0  0  0  0  0  0  0  0  0  0  0
   59.3160   32.7800   48.5950 N   0  0  0  0  0  0  0  0  0  0  0  0
   58.7890   33.1700   47.3160 C   0  0  0  0  0  0  0  0  0  0  0  0
   57.4230   33.4460   47.1230 C   0  0  0  0  0  0  0  0  0  0  0  0
   56.9550   33.8280   45.8600 C   0  0  0  0  0  0  0  0  0  0  0  0
   57.8470   33.9630   44.7930 C   0  0  0  0  0  0  0  0  0  0  0  0
   59.2110   33.7310   44.9900 C   0  0  0  0  0  0  0  0  0  0  0  0
   59.6820   33.3480   46.2490 C   0  0  0  0  0  0  0  0  0  0  0  0
   61.6810   32.6640   48.2040 C   0  0  0  0  0  0  0  0  0  0  0  0
   62.2380   33.9260   48.4790 C   0  0  0  0  0  0  0  0  0  0  0  0
   63.4100   34.1820   47.7830 C   0  0  0  0  0  0  0  0  0  0  0  0
   63.7550   32.8430   46.8300 S   0  0  0  0  0  0  0  0  0  0  0  0
   62.4260   31.9240   47.2880 C   0  0  0  0  0  0  0  0  0  0  0  0
   60.3800   29.4260   46.4290 C   0  0  0  0  0  0  0  0  0  0  0  0
   59.6220   29.5270   44.9310 S   0  0  0  0  0  0  0  0  0  0  0  0
   57.9860   29.3020   42.8380 H   0  0  0  0  0  0  0  0  0  0  0  0
   56.5760   28.3910   42.8280 H   0  0  0  0  0  0  0  0  0  0  0  0
   57.2107   29.7312   47.5588 H   0  0  0  0  0  0  0  0  0  0  0  0
   61.2230   30.9300   50.3950 H   0  0  0  0  0  0  0  0  0  0  0  0
   56.7214   33.3615   47.9660 H   0  0  0  0  0  0  0  0  0  0  0  0
   55.8831   34.0222   45.7074 H   0  0  0  0  0  0  0  0  0  0  0  0
   57.4759   34.2517   43.7986 H   0  0  0  0  0  0  0  0  0  0  0  0
   59.9149   33.8500   44.1531 H   0  0  0  0  0  0  0  0  0  0  0  0
   60.7588   33.1853   46.4039 H   0  0  0  0  0  0  0  0  0  0  0  0
   61.7863   34.6428   49.1805 H   0  0  0  0  0  0  0  0  0  0  0  0
   64.0094   35.1023   47.8445 H   0  0  0  0  0  0  0  0  0  0  0  0
   62.1853   30.9131   46.9274 H   0  0  0  0  0  0  0  0  0  0  0  0
   61.4603   29.3062   46.5981 H   0  0  0  0  0  0  0  0  0  0  0  0
  1  2  1  0
  2  3  2  0
  2  4  2  0
  2  5  1  0
  5  6  2  0
  6  7  1  0
  7  8  1  0
  8  9  2  0
  8 10  2  0
  8 11  1  0
 11 12  1  0
 12 13  2  3
 13 14  1  0
 14 15  2  0
 15 16  1  0
 16 17  2  0
 17 18  1  0
 18 19  2  0
 12 20  1  0
 20 21  1  0
 21 22  2  0
 22 23  1  0
 23 24  1  0
  7 25  2  0
 25 26  1  0
 26  5  1  0
 19 14  1  0
 24 20  2  0
  1 27  1  0
  1 28  1  0
  6 29  1  0
 11 30  1  0
 15 31  1  0
 16 32  1  0
 17 33  1  0
 18 34  1  0
 19 35  1  0
 21 36  1  0
 22 37  1  0
 24 38  1  0
 25 39  1  0
M  END
>  <UniqueID>  (25) 
21

>  <SMILES>  (25) 
NS(=O)(=O)c1cc(S(=O)(=O)NC(=Nc2ccccc2)c2ccsc2)cs1

>  <Energy>  (25) 
99.47823833279647

>  <Genealogy>  (25) 
NS(=O)(=O)c1cc(S(=O)(=O)NC(=Nc2ccccc2)c2ccsc2)cs1 (3D coordinates assigned)
NS(=O)(=O)c1cc(S(=O)(=O)NC(=Nc2ccccc2)c2ccsc2)cs1 (optimized conformer: 99.47823833279647 kcal/mol)

>  <smiles>  (25) 
NS(=O)(=O)c1cc(S(=O)(=O)NC(=Nc2ccccc2)c2ccsc2)cs1

>  <score_type>  (25) 
oracle

>  <origin>  (25) 
adg

>  <m_score__min__energy>  (25) 
-9.3699999999999992

>  <m_primary>  (25) 
energy

$$$$
25:0
     RDKit          3D

 42 44  0  0  0  0  0  0  0  0999 V2000
   57.1972   22.7909   45.1357 H   0  0  0  0  0  0  0  0  0  0  0  0
   56.9980   23.7680   45.6000 C   0  0  0  0  0  0  0  0  0  0  0  0
   55.7600   24.4030   45.3870 C   0  0  0  0  0  0  0  0  0  0  0  0
   54.7580   23.7810   44.5550 N   0  0  0  0  0  0  0  0  0  0  0  0
   55.0010   23.5270   43.3570 O   0  0  0  0  0  0  0  0  0  0  0  0
   53.5140   23.4660   45.0510 O   0  0  0  0  0  0  0  0  0  0  0  0
   55.5420   25.6540   46.0050 C   0  0  0  0  0  0  0  0  0  0  0  0
   54.3440   26.3380   45.8450 O   0  0  0  0  0  0  0  0  0  0  0  0
   56.5140   26.2100   46.7750 N   0  0  0  0  0  0  0  0  0  0  0  0
   57.7180   25.6090   46.9800 C   0  0  0  0  0  0  0  0  0  0  0  0
   58.6380   26.1810   47.7030 N   0  0  0  0  0  0  0  0  0  0  0  0
   58.9220   27.6170   47.7150 C   0  0  0  0  0  0  0  0  0  0  0  0
   59.9510   27.7795   48.0681 H   0  0  0  0  0  0  0  0  0  0  0  0
   58.2074   28.1153   48.3866 H   0  0  0  0  0  0  0  0  0  0  0  0
   58.7760   28.1930   46.3380 C   0  0  0  0  0  0  0  0  0  0  0  0
   59.2690   27.6260   45.1780 C   0  0  0  0  0  0  0  0  0  0  0  0
   59.9299   26.7501   45.1011 H   0  0  0  0  0  0  0  0  0  0  0  0
   58.7660   28.3790   44.1340 C   0  0  0  0  0  0  0  0  0  0  0  0
   58.9453   28.2211   43.0603 H   0  0  0  0  0  0  0  0  0  0  0  0
   57.9920   29.3710   44.7090 C   0  0  0  0  0  0  0  0  0  0  0  0
   57.1220   30.3330   43.9710 C   0  0  0  0  0  0  0  0  0  0  0  0
   56.2360   29.8081   43.5844 H   0  0  0  0  0  0  0  0  0  0  0  0
   57.6785   30.7680   43.1278 H   0  0  0  0  0  0  0  0  0  0  0  0
   56.7040   31.3920   44.8880 N   0  0  0  0  0  0  0  0  0  0  0  0
   57.4320   32.3860   45.3120 C   0  0  0  0  0  0  0  0  0  0  0  0
   58.1070   32.3450   46.5500 C   0  0  0  0  0  0  0  0  0  0  0  0
   58.0373   31.4518   47.1882 H   0  0  0  0  0  0  0  0  0  0  0  0
   58.8670   33.4480   46.9630 C   0  0  0  0  0  0  0  0  0  0  0  0
   59.6220   33.4030   48.2590 C   0  0  0  0  0  0  0  0  0  0  0  0
   58.9124   33.4453   49.0984 H   0  0  0  0  0  0  0  0  0  0  0  0
   60.2001   32.4688   48.3143 H   0  0  0  0  0  0  0  0  0  0  0  0
   60.3070   34.2619   48.3143 H   0  0  0  0  0  0  0  0  0  0  0  0
   58.9680   34.5640   46.1260 C   0  0  0  0  0  0  0  0  0  0  0  0
   59.5787   35.4284   46.4257 H   0  0  0  0  0  0  0  0  0  0  0  0
   58.2880   34.5720   44.9080 C   0  0  0  0  0  0  0  0  0  0  0  0
   58.3560   35.4501   44.2490 H   0  0  0  0  0  0  0  0  0  0  0  0
   57.5410   33.4990   44.5310 N   0  0  0  0  0  0  0  0  0  0  0  0
   57.0420   33.5370   43.6120 H   0  0  0  0  0  0  0  0  0  0  0  0
   57.9980   29.2520   46.0490 N   0  0  0  0  0  0  0  0  0  0  0  0
   57.4530   29.8310   46.7270 H   0  0  0  0  0  0  0  0  0  0  0  0
   57.9740   24.3680   46.3950 C   0  0  0  0  0  0  0  0  0  0  0  0
   58.9391   23.8666   46.5599 H   0  0  0  0  0  0  0  0  0  0  0  0
  1  2  1  0
  2  3  1  0
  3  4  1  0
  4  5  2  0
  4  6  1  0
  3  7  2  0
  7  8  1  0
  7  9  1  0
  9 10  1  0
 10 11  2  0
 11 12  1  0
 12 13  1  0
 12 14  1  0
 12 15  1  0
 15 16  2  0
 16 17  1  0
 16 18  1  0
 18 19  1  0
 18 20  2  0
 20 21  1  0
 21 22  1  0
 21 23  1  0
 21 24  1  0
 24 25  2  0
 25 26  1  0
 26 27  1  0
 26 28  2  0
 28 29  1  0
 29 30  1  0
 29 31  1  0
 29 32  1  0
 28 33  1  0
 33 34  1  0
 33 35  2  0
 35 36  1  0
 35 37  1  0
 37 38  1  0
 20 39  1  0
 39 40  1  0
 10 41  1  0
 41 42  1  0
 41  2  2  0
 39 15  1  0
 37 25  1  0
M  CHG  4   4   1   6  -1   8  -1   9  -1
M  END
>  <UniqueID>  (26) 
22

>  <SMILES>  (26) 
Cc1cc[nH]/c(=N/Cc2ccc(C/N=c3/ccc([N+](=O)[O-])c([O-])[n-]3)[nH]2)c1

>  <Energy>  (26) 
70.4113771585576

>  <Genealogy>  (26) 
Cc1cc[nH]c(=NCc2ccc(CN=c3ccc([N+](=O)[O-])c([O-])[n-]3)[nH]2)c1 (protonated)
Cc1cc[nH]/c(=N/Cc2ccc(C/N=c3/ccc([N+](=O)[O-])c([O-])[n-]3)[nH]2)c1 (cis-trans isomerization)
Cc1cc[nH]/c(=N/Cc2ccc(C/N=c3/ccc([N+](=O)[O-])c([O-])[n-]3)[nH]2)c1 (3D coordinates assigned)
Cc1cc[nH]/c(=N/Cc2ccc(C/N=c3/ccc([N+](=O)[O-])c([O-])[n-]3)[nH]2)c1 (optimized conformer: 70.4113771585576 kcal/mol)

>  <smiles>  (26) 
Cc1cc[nH]c(=NCc2ccc(CN=c3ccc([N+](=O)[O-])c(O)[nH]3)[nH]2)c1

>  <score_type>  (26) 
oracle

>  <origin>  (26) 
adg

>  <m_score__min__energy>  (26) 
-13.69

>  <m_primary>  (26) 
energy

$$$$
26:0
     RDKit          3D

 43 45  0  0  0  0  0  0  0  0999 V2000
   63.8540   31.2150   50.3290 C   0  0  0  0  0  0  0  0  0  0  0  0
   64.6610   32.4580   49.8790 C   0  0  0  0  0  0  0  0  0  0  0  0
   66.1590   32.1680   50.1280 C   0  0  0  0  0  0  0  0  0  0  0  0
   64.2640   33.7080   50.6990 C   0  0  0  0  0  0  0  0  0  0  0  0
   62.7990   34.1000   50.4820 C   0  0  0  0  0  0  0  0  0  0  0  0
   62.3620   33.9520   49.0470 C   0  0  0  0  0  0  0  0  0  0  0  0
   61.1170   34.4760   48.6650 C   0  0  0  0  0  0  0  0  0  0  0  0
   60.6320   34.2950   47.3630 C   0  0  0  0  0  0  0  0  0  0  0  0
   59.3170   34.9010   46.9510 C   0  0  0  0  0  0  0  0  0  0  0  0
   59.0210   34.5900   45.5520 N   0  0  0  0  0  0  0  0  0  0  0  0
   58.5000   33.3180   45.1180 C   0  0  0  0  0  0  0  0  0  0  0  0
   58.2970   32.2530   46.0180 C   0  0  0  0  0  0  0  0  0  0  0  0
   57.7900   31.0320   45.5650 C   0  0  0  0  0  0  0  0  0  0  0  0
   57.4800   30.8580   44.2130 C   0  0  0  0  0  0  0  0  0  0  0  0
   56.8440   29.3250   43.6460 Cl  0  0  0  0  0  0  0  0  0  0  0  0
   57.6780   31.9090   43.3120 C   0  0  0  0  0  0  0  0  0  0  0  0
   58.1860   33.1320   43.7620 C   0  0  0  0  0  0  0  0  0  0  0  0
   61.4130   33.6030   46.4290 C   0  0  0  0  0  0  0  0  0  0  0  0
   62.6480   33.0690   46.8000 C   0  0  0  0  0  0  0  0  0  0  0  0
   63.1290   33.2130   48.1130 C   0  0  0  0  0  0  0  0  0  0  0  0
   64.4530   32.7230   48.4350 N   0  0  0  0  0  0  0  0  0  0  0  0
   63.8270   31.1735   51.4279 H   0  0  0  0  0  0  0  0  0  0  0  0
   62.8276   31.2834   49.9394 H   0  0  0  0  0  0  0  0  0  0  0  0
   64.3342   30.3053   49.9394 H   0  0  0  0  0  0  0  0  0  0  0  0
   66.3503   32.1310   51.2106 H   0  0  0  0  0  0  0  0  0  0  0  0
   66.4256   31.2016   49.6753 H   0  0  0  0  0  0  0  0  0  0  0  0
   66.7670   32.9651   49.6753 H   0  0  0  0  0  0  0  0  0  0  0  0
   64.4195   33.4954   51.7670 H   0  0  0  0  0  0  0  0  0  0  0  0
   64.8917   34.5464   50.3627 H   0  0  0  0  0  0  0  0  0  0  0  0
   62.1660   33.4563   51.1105 H   0  0  0  0  0  0  0  0  0  0  0  0
   62.6963   35.1614   50.7521 H   0  0  0  0  0  0  0  0  0  0  0  0
   60.5151   35.0353   49.3964 H   0  0  0  0  0  0  0  0  0  0  0  0
   58.5171   34.4959   47.5882 H   0  0  0  0  0  0  0  0  0  0  0  0
   59.3791   35.9933   47.0654 H   0  0  0  0  0  0  0  0  0  0  0  0
   59.1920   35.3240   44.8260 H   0  0  0  0  0  0  0  0  0  0  0  0
   58.5389   32.3834   47.0831 H   0  0  0  0  0  0  0  0  0  0  0  0
   57.6345   30.2056   46.2742 H   0  0  0  0  0  0  0  0  0  0  0  0
   57.4339   31.7737   42.2480 H   0  0  0  0  0  0  0  0  0  0  0  0
   58.3408   33.9545   43.0482 H   0  0  0  0  0  0  0  0  0  0  0  0
   61.0512   33.4797   45.3975 H   0  0  0  0  0  0  0  0  0  0  0  0
   63.2522   32.5290   46.0561 H   0  0  0  0  0  0  0  0  0  0  0  0
   65.1350   33.4480   48.1080 H   0  0  0  0  0  0  0  0  0  0  0  0
   64.6400   31.8450   47.8950 H   0  0  0  0  0  0  0  0  0  0  0  0
  1  2  1  0
  2  3  1  0
  2  4  1  0
  4  5  1  0
  5  6  1  0
  6  7  2  0
  7  8  1  0
  8  9  1  0
  9 10  1  0
 10 11  1  0
 11 12  2  0
 12 13  1  0
 13 14  2  0
 14 15  1  0
 14 16  1  0
 16 17  2  0
  8 18  2  0
 18 19  1  0
 19 20  2  0
 20 21  1  0
 21  2  1  0
 20  6  1  0
 17 11  1  0
  1 22  1  0
  1 23  1  0
  1 24  1  0
  3 25  1  0
  3 26  1  0
  3 27  1  0
  4 28  1  0
  4 29  1  0
  5 30  1  0
  5 31  1  0
  7 32  1  0
  9 33  1  0
  9 34  1  0
 10 35  1  0
 12 36  1  0
 13 37  1  0
 16 38  1  0
 17 39  1  0
 18 40  1  0
 19 41  1  0
 21 42  1  0
 21 43  1  0
M  CHG  1  21   1
M  END
>  <UniqueID>  (27) 
23

>  <SMILES>  (27) 
CC1(C)CCc2cc(CNc3ccc(Cl)cc3)ccc2[NH2+]1

>  <Energy>  (27) 
46.85426777737126

>  <Genealogy>  (27) 
CC1(C)CCc2cc(CNc3ccc(Cl)cc3)ccc2[NH2+]1 (protonated)
CC1(C)CCc2cc(CNc3ccc(Cl)cc3)ccc2[NH2+]1 (3D coordinates assigned)
CC1(C)CCc2cc(CNc3ccc(Cl)cc3)ccc2[NH2+]1 (nonaromatic ring conformer: 46.85426777737126 kcal/mol)

>  <smiles>  (27) 
CC1(C)CCc2cc(CNc3ccc(Cl)cc3)ccc2N1

>  <score_type>  (27) 
oracle

>  <origin>  (27) 
adg

>  <m_score__min__energy>  (27) 
-6.8799999999999999

>  <m_primary>  (27) 
energy

$$$$
27:0
     RDKit          3D

 53 56  0  0  1  0  0  0  0  0999 V2000
   59.1060   21.9400   45.2160 N   0  0  0  0  0  0  0  0  0  0  0  0
   58.0980   22.5990   45.9780 C   0  0  0  0  0  0  0  0  0  0  0  0
   57.4290   21.9300   46.8190 O   0  0  0  0  0  0  0  0  0  0  0  0
   57.8870   24.0200   45.7480 C   0  0  0  0  0  0  0  0  0  0  0  0
   57.7960   24.5520   44.4730 C   0  0  0  0  0  0  0  0  0  0  0  0
   57.5960   25.9050   44.2870 C   0  0  0  0  0  0  0  0  0  0  0  0
   57.4770   26.7850   45.3410 C   0  0  0  0  0  0  0  0  0  0  0  0
   57.2650   28.2170   45.1730 C   0  0  0  0  0  0  0  0  0  0  0  0
   56.1100   28.7110   45.2340 O   0  0  0  0  0  0  0  0  0  0  0  0
   58.3360   29.1200   44.9340 N   0  0  0  0  0  0  0  0  0  0  0  0
   58.1410   30.5260   44.7660 C   0  0  0  0  0  0  0  0  0  0  0  0
   57.9630   31.0450   43.5050 C   0  0  0  0  0  0  0  0  0  0  0  0
   57.7770   32.4050   43.3700 C   0  0  0  0  0  0  0  0  0  0  0  0
   57.7720   33.2240   44.4960 C   0  0  0  0  0  0  0  0  0  0  0  0
   57.9470   32.7310   45.7670 C   0  0  0  0  0  0  0  0  0  0  0  0
   57.9420   33.5960   46.9850 C   0  0  0  0  0  0  0  0  0  0  0  0
   59.2100   34.2150   47.2160 N   0  0  0  0  0  0  0  0  0  0  0  0
   60.0540   33.9530   48.1240 C   0  0  0  0  0  0  0  0  0  0  0  0
   59.6250   33.8610   49.3900 N   0  0  0  0  0  0  0  0  0  0  0  0
   60.4330   33.5890   50.4260 C   0  0  0  0  0  0  0  0  0  0  0  0
   61.7510   33.3960   50.1870 N   0  0  0  0  0  0  0  0  0  0  0  0
   62.2710   33.4710   48.9380 C   0  0  0  0  0  0  0  0  0  0  0  0
   63.6150   33.2720   48.7100 C   0  0  0  0  0  0  0  0  0  0  0  0
   64.4570   32.9780   49.8670 C   0  0  0  0  0  0  0  0  0  0  0  0
   64.3130   33.6590   51.1080 N   0  0  0  0  0  0  0  0  0  0  0  0
   65.3410   32.1000   49.7720 O   0  0  0  0  0  0  0  0  0  0  0  0
   64.1110   33.3540   47.4370 C   0  0  0  0  0  0  0  0  0  0  0  0
   63.2330   33.6360   46.4130 C   0  0  0  0  0  0  0  0  0  0  0  0
   61.8860   33.8400   46.6060 C   0  0  0  0  0  0  0  0  0  0  0  0
   61.4070   33.7510   47.9090 C   0  0  0  0  0  0  0  0  0  0  0  0
   58.1320   31.3460   45.8590 C   0  0  0  0  0  0  0  0  0  0  0  0
   57.5670   26.2670   46.6150 C   0  0  0  0  0  0  0  0  0  0  0  0
   57.7690   24.9050   46.8030 C   0  0  0  0  0  0  0  0  0  0  0  0
   58.9270   21.0320   44.7310 H   0  0  0  0  0  0  0  0  0  0  0  0
   60.0740   22.3510   45.1190 H   0  0  0  0  0  0  0  0  0  0  0  0
   57.8840   23.8896   43.5992 H   0  0  0  0  0  0  0  0  0  0  0  0
   57.5292   26.2949   43.2606 H   0  0  0  0  0  0  0  0  0  0  0  0
   59.3220   28.7870   44.8700 H   0  0  0  0  0  0  0  0  0  0  0  0
   57.9688   30.3889   42.6221 H   0  0  0  0  0  0  0  0  0  0  0  0
   57.6324   32.8432   42.3714 H   0  0  0  0  0  0  0  0  0  0  0  0
   57.6224   34.3057   44.3634 H   0  0  0  0  0  0  0  0  0  0  0  0
   57.1827   34.3817   46.8578 H   0  0  0  0  0  0  0  0  0  0  0  0
   57.7169   32.9564   47.8511 H   0  0  0  0  0  0  0  0  0  0  0  0
   58.6250   34.0040   49.5930 H   0  0  0  0  0  0  0  0  0  0  0  0
   60.0325   33.5242   51.4484 H   0  0  0  0  0  0  0  0  0  0  0  0
   65.1550   33.9540   51.6620 H   0  0  0  0  0  0  0  0  0  0  0  0
   63.3820   33.8980   51.5280 H   0  0  0  0  0  0  0  0  0  0  0  0
   65.1815   33.1990   47.2367 H   0  0  0  0  0  0  0  0  0  0  0  0
   63.6293   33.7014   45.3889 H   0  0  0  0  0  0  0  0  0  0  0  0
   61.2149   34.0644   45.7638 H   0  0  0  0  0  0  0  0  0  0  0  0
   58.2762   30.8990   46.8537 H   0  0  0  0  0  0  0  0  0  0  0  0
   57.4787   26.9336   47.4855 H   0  0  0  0  0  0  0  0  0  0  0  0
   57.8375   24.5167   47.8299 H   0  0  0  0  0  0  0  0  0  0  0  0
  1  2  1  0
  2  3  2  0
  2  4  1  0
  4  5  2  0
  5  6  1  0
  6  7  2  0
  7  8  1  0
  8  9  2  0
  8 10  1  0
 10 11  1  0
 11 12  2  0
 12 13  1  0
 13 14  2  0
 14 15  1  0
 15 16  1  0
 16 17  1  0
 17 18  2  0
 18 19  1  0
 19 20  1  0
 20 21  2  0
 21 22  1  0
 22 23  2  0
 23 24  1  0
 24 25  1  0
 24 26  2  0
 23 27  1  0
 27 28  2  0
 28 29  1  0
 29 30  2  0
 15 31  2  0
  7 32  1  0
 32 33  2  0
 33  4  1  0
 31 11  1  0
 30 18  1  0
 30 22  1  0
  1 34  1  0
  1 35  1  0
  5 36  1  0
  6 37  1  0
 10 38  1  0
 12 39  1  0
 13 40  1  0
 14 41  1  0
 16 42  1  0
 16 43  1  0
 19 44  1  0
 20 45  1  0
 25 46  1  0
 25 47  1  0
 27 48  1  0
 28 49  1  0
 29 50  1  0
 31 51  1  0
 32 52  1  0
 33 53  1  0
M  END
>  <smiles>  (28) 
NC(=O)c1ccc(C(=O)Nc2cccc(CN=c3[nH]cnc4c(C(N)=O)cccc34)c2)cc1

>  <score_type>  (28) 
oracle

>  <origin>  (28) 
adg

>  <m_score__min__energy>  (28) 
-9.6999999999999993

>  <m_primary>  (28) 
energy

$$$$
28:0
     RDKit          3D

 55 58  0  0  0  0  0  0  0  0999 V2000
   55.1640   29.3390   44.8650 N   0  0  0  0  0  0  0  0  0  0  0  0
   56.8150   29.7030   44.5090 S   0  0  0  0  0  0  0  0  0  0  0  0
   57.1730   31.0200   45.1390 O   0  0  0  0  0  0  0  0  0  0  0  0
   56.9940   29.8270   43.0220 O   0  0  0  0  0  0  0  0  0  0  0  0
   57.8630   28.4250   45.1470 C   0  0  0  0  0  0  0  0  0  0  0  0
   57.6520   27.1050   44.7150 C   0  0  0  0  0  0  0  0  0  0  0  0
   58.4230   26.0580   45.2260 C   0  0  0  0  0  0  0  0  0  0  0  0
   59.4130   26.3160   46.1730 C   0  0  0  0  0  0  0  0  0  0  0  0
   59.6440   27.6220   46.6050 C   0  0  0  0  0  0  0  0  0  0  0  0
   58.8860   28.6880   46.0910 C   0  0  0  0  0  0  0  0  0  0  0  0
   59.1930   30.0540   46.5570 C   0  0  0  0  0  0  0  0  0  0  0  0
   58.4380   30.6410   47.5770 C   0  0  0  0  0  0  0  0  0  0  0  0
   58.7400   31.9290   48.0200 C   0  0  0  0  0  0  0  0  0  0  0  0
   59.8180   32.6290   47.4430 C   0  0  0  0  0  0  0  0  0  0  0  0
   60.1490   33.8330   47.8230 N   0  0  0  0  0  0  0  0  0  0  0  0
   60.5700   34.2590   49.1590 C   0  0  0  0  0  0  0  0  0  0  0  0
   61.9450   33.7280   49.4870 C   0  0  0  0  0  0  0  0  0  0  0  0
   62.8540   33.4600   48.4500 C   0  0  0  0  0  0  0  0  0  0  0  0
   64.1330   32.9760   48.7370 C   0  0  0  0  0  0  0  0  0  0  0  0
   64.5350   32.7700   50.0650 C   0  0  0  0  0  0  0  0  0  0  0  0
   65.8500   32.2560   50.3590 N   0  0  0  0  0  0  0  0  0  0  0  0
   65.9940   30.9150   50.9510 C   0  0  0  0  0  0  0  0  0  0  0  0
   67.4020   30.7030   51.5270 C   0  0  0  0  0  0  0  0  0  0  0  0
   67.8620   31.9520   52.2880 C   0  0  0  0  0  0  0  0  0  0  0  0
   67.8690   33.2200   51.4030 C   0  0  0  0  0  0  0  0  0  0  0  0
   67.0490   33.0680   50.1130 C   0  0  0  0  0  0  0  0  0  0  0  0
   63.6310   33.0480   51.1030 C   0  0  0  0  0  0  0  0  0  0  0  0
   62.3490   33.5310   50.8200 C   0  0  0  0  0  0  0  0  0  0  0  0
   61.5060   33.7990   51.8490 F   0  0  0  0  0  0  0  0  0  0  0  0
   60.5460   32.0290   46.4560 N   0  0  0  0  0  0  0  0  0  0  0  0
   60.2630   30.7730   46.0130 C   0  0  0  0  0  0  0  0  0  0  0  0
   55.1670   28.6360   45.6370 H   0  0  0  0  0  0  0  0  0  0  0  0
   56.8728   26.8939   43.9678 H   0  0  0  0  0  0  0  0  0  0  0  0
   58.2486   25.0283   44.8805 H   0  0  0  0  0  0  0  0  0  0  0  0
   60.0127   25.4886   46.5801 H   0  0  0  0  0  0  0  0  0  0  0  0
   60.4254   27.8191   47.3537 H   0  0  0  0  0  0  0  0  0  0  0  0
   57.6040   30.0860   48.0312 H   0  0  0  0  0  0  0  0  0  0  0  0
   58.1399   32.3953   48.8152 H   0  0  0  0  0  0  0  0  0  0  0  0
   60.5903   35.3582   49.1965 H   0  0  0  0  0  0  0  0  0  0  0  0
   59.8557   33.8619   49.8952 H   0  0  0  0  0  0  0  0  0  0  0  0
   62.5569   33.6323   47.4050 H   0  0  0  0  0  0  0  0  0  0  0  0
   64.8300   32.7548   47.9152 H   0  0  0  0  0  0  0  0  0  0  0  0
   65.2562   30.7996   51.7586 H   0  0  0  0  0  0  0  0  0  0  0  0
   65.8283   30.1686   50.1601 H   0  0  0  0  0  0  0  0  0  0  0  0
   67.3867   29.8447   52.2148 H   0  0  0  0  0  0  0  0  0  0  0  0
   68.1010   30.5119   50.6994 H   0  0  0  0  0  0  0  0  0  0  0  0
   67.1813   32.1182   53.1360 H   0  0  0  0  0  0  0  0  0  0  0  0
   68.8943   31.7753   52.6242 H   0  0  0  0  0  0  0  0  0  0  0  0
   67.4510   34.0542   51.9856 H   0  0  0  0  0  0  0  0  0  0  0  0
   68.9121   33.4024   51.1052 H   0  0  0  0  0  0  0  0  0  0  0  0
   66.7453   34.0637   49.7575 H   0  0  0  0  0  0  0  0  0  0  0  0
   67.6685   32.5674   49.3543 H   0  0  0  0  0  0  0  0  0  0  0  0
   63.9336   32.8845   52.1478 H   0  0  0  0  0  0  0  0  0  0  0  0
   61.3510   32.5380   46.0260 H   0  0  0  0  0  0  0  0  0  0  0  0
   60.8796   30.3206   45.2223 H   0  0  0  0  0  0  0  0  0  0  0  0
  1  2  1  0
  2  3  2  0
  2  4  2  0
  2  5  1  0
  5  6  2  0
  6  7  1  0
  7  8  2  0
  8  9  1  0
  9 10  2  0
 10 11  1  0
 11 12  1  0
 12 13  2  0
 13 14  1  0
 14 15  2  3
 15 16  1  0
 16 17  1  0
 17 18  2  0
 18 19  1  0
 19 20  2  0
 20 21  1  0
 21 22  1  0
 22 23  1  0
 23 24  1  0
 24 25  1  0
 25 26  1  0
 20 27  1  0
 27 28  2  0
 28 29  1  0
 14 30  1  0
 30 31  1  0
 10  5  1  0
 31 11  2  0
 28 17  1  0
 26 21  1  0
  1 32  1  0
  6 33  1  0
  7 34  1  0
  8 35  1  0
  9 36  1  0
 12 37  1  0
 13 38  1  0
 16 39  1  0
 16 40  1  0
 18 41  1  0
 19 42  1  0
 22 43  1  0
 22 44  1  0
 23 45  1  0
 23 46  1  0
 24 47  1  0
 24 48  1  0
 25 49  1  0
 25 50  1  0
 26 51  1  0
 26 52  1  0
 27 53  1  0
 30 54  1  0
 31 55  1  0
M  CHG  1   1  -1
M  END
>  <UniqueID>  (29) 
24

>  <SMILES>  (29) 
[NH-]S(=O)(=O)c1ccccc1-c1ccc(=NCc2ccc(N3CCCCC3)cc2F)[nH]c1

>  <Energy>  (29) 
74.18862833590869

>  <Genealogy>  (29) 
[NH-]S(=O)(=O)c1ccccc1-c1ccc(=NCc2ccc(N3CCCCC3)cc2F)[nH]c1 (protonated)
[NH-]S(=O)(=O)c1ccccc1-c1ccc(=NCc2ccc(N3CCCCC3)cc2F)[nH]c1 (3D coordinates assigned)
[NH-]S(=O)(=O)c1ccccc1-c1ccc(=NCc2ccc(N3CCCCC3)cc2F)[nH]c1 (nonaromatic ring conformer: 74.18862833590869 kcal/mol)

>  <smiles>  (29) 
NS(=O)(=O)c1ccccc1-c1ccc(=NCc2ccc(N3CCCCC3)cc2F)[nH]c1

>  <score_type>  (29) 
oracle

>  <origin>  (29) 
adg

>  <m_score__min__energy>  (29) 
-11.539999999999999

>  <m_primary>  (29) 
energy

$$$$
29:0
     RDKit          3D

 41 41  0  0  0  0  0  0  0  0999 V2000
   55.9230   23.7560   43.7380 C   0  0  0  0  0  0  0  0  0  0  0  0
   54.8160   23.9330   44.4650 C   0  0  0  0  0  0  0  0  0  0  0  0
   54.8590   24.6280   45.7930 C   0  0  0  0  0  0  0  0  0  0  0  0
   54.5020   25.9770   45.6220 O   0  0  0  0  0  0  0  0  0  0  0  0
   55.4610   26.7110   46.2460 N   0  0  0  0  0  0  0  0  0  0  0  0
   56.7070   27.0380   45.6200 C   0  0  0  0  0  0  0  0  0  0  0  0
   57.5180   26.1090   45.3640 O   0  0  0  0  0  0  0  0  0  0  0  0
   57.0490   28.4270   45.2370 C   0  0  0  0  0  0  0  0  0  0  0  0
   56.1700   29.2030   44.4620 C   0  0  0  0  0  0  0  0  0  0  0  0
   56.5080   30.5110   44.1040 C   0  0  0  0  0  0  0  0  0  0  0  0
   57.7260   31.0690   44.5210 C   0  0  0  0  0  0  0  0  0  0  0  0
   58.0820   32.4850   44.1420 C   0  0  0  0  0  0  0  0  0  0  0  0
   57.2460   33.5210   44.9140 C   0  0  0  0  0  0  0  0  0  0  0  0
   57.9290   34.0450   46.1950 C   0  0  0  0  0  0  0  0  0  0  0  0
   59.3050   34.6940   45.9550 C   0  0  0  0  0  0  0  0  0  0  0  0
   60.3870   34.2640   46.9670 C   0  0  0  0  0  0  0  0  0  0  0  0
   59.8620   34.2200   48.4020 C   0  0  0  0  0  0  0  0  0  0  0  0
   58.5970   30.3030   45.3120 C   0  0  0  0  0  0  0  0  0  0  0  0
   58.2580   28.9940   45.6710 C   0  0  0  0  0  0  0  0  0  0  0  0
   55.8668   23.2431   42.7665 H   0  0  0  0  0  0  0  0  0  0  0  0
   56.8905   24.1232   44.1110 H   0  0  0  0  0  0  0  0  0  0  0  0
   53.8542   23.5616   44.0818 H   0  0  0  0  0  0  0  0  0  0  0  0
   54.1519   24.1453   46.4837 H   0  0  0  0  0  0  0  0  0  0  0  0
   55.8751   24.5652   46.2096 H   0  0  0  0  0  0  0  0  0  0  0  0
   55.2096   28.7780   44.1350 H   0  0  0  0  0  0  0  0  0  0  0  0
   55.8150   31.1066   43.4916 H   0  0  0  0  0  0  0  0  0  0  0  0
   59.1465   32.6537   44.3622 H   0  0  0  0  0  0  0  0  0  0  0  0
   57.8700   32.6111   43.0700 H   0  0  0  0  0  0  0  0  0  0  0  0
   57.0538   34.3760   44.2492 H   0  0  0  0  0  0  0  0  0  0  0  0
   56.3213   33.0152   45.2287 H   0  0  0  0  0  0  0  0  0  0  0  0
   57.2693   34.7949   46.6559 H   0  0  0  0  0  0  0  0  0  0  0  0
   58.0991   33.1724   46.8427 H   0  0  0  0  0  0  0  0  0  0  0  0
   59.6461   34.4185   44.9461 H   0  0  0  0  0  0  0  0  0  0  0  0
   59.1702   35.7791   46.0752 H   0  0  0  0  0  0  0  0  0  0  0  0
   60.7483   33.2619   46.6927 H   0  0  0  0  0  0  0  0  0  0  0  0
   61.1950   35.0095   46.9294 H   0  0  0  0  0  0  0  0  0  0  0  0
   60.7062   34.2908   49.1036 H   0  0  0  0  0  0  0  0  0  0  0  0
   59.1760   35.0638   48.5675 H   0  0  0  0  0  0  0  0  0  0  0  0
   59.3260   33.2738   48.5675 H   0  0  0  0  0  0  0  0  0  0  0  0
   59.5505   30.7341   45.6511 H   0  0  0  0  0  0  0  0  0  0  0  0
   58.9435   28.4048   46.2978 H   0  0  0  0  0  0  0  0  0  0  0  0
  1  2  2  0
  2  3  1  0
  3  4  1  0
  4  5  1  0
  5  6  1  0
  6  7  2  0
  6  8  1  0
  8  9  2  0
  9 10  1  0
 10 11  2  0
 11 12  1  0
 12 13  1  0
 13 14  1  0
 14 15  1  0
 15 16  1  0
 16 17  1  0
 11 18  1  0
 18 19  2  0
 19  8  1  0
  1 20  1  0
  1 21  1  0
  2 22  1  0
  3 23  1  0
  3 24  1  0
  9 25  1  0
 10 26  1  0
 12 27  1  0
 12 28  1  0
 13 29  1  0
 13 30  1  0
 14 31  1  0
 14 32  1  0
 15 33  1  0
 15 34  1  0
 16 35  1  0
 16 36  1  0
 17 37  1  0
 17 38  1  0
 17 39  1  0
 18 40  1  0
 19 41  1  0
M  CHG  1   5  -1
M  END
>  <UniqueID>  (30) 
25

>  <SMILES>  (30) 
C=CCO[N-]C(=O)c1ccc(CCCCCC)cc1

>  <Energy>  (30) 
31.565374304364052

>  <Genealogy>  (30) 
C=CCO[N-]C(=O)c1ccc(CCCCCC)cc1 (protonated)
C=CCO[N-]C(=O)c1ccc(CCCCCC)cc1 (3D coordinates assigned)
C=CCO[N-]C(=O)c1ccc(CCCCCC)cc1 (optimized conformer: 31.565374304364052 kcal/mol)

>  <smiles>  (30) 
C=CCONC(=O)c1ccc(CCCCCC)cc1

>  <score_type>  (30) 
oracle

>  <origin>  (30) 
adg

>  <m_score__min__energy>  (30) 
-9.1699999999999999

>  <m_primary>  (30) 
energy

$$$$
30:0
     RDKit          3D

 51 54  0  0  0  0  0  0  0  0999 V2000
   53.4890   25.1970   45.6330 O   0  0  0  0  0  0  0  0  0  0  0  0
   54.7500   25.2240   45.6060 C   0  0  0  0  0  0  0  0  0  0  0  0
   55.4490   26.3780   46.0910 N   0  0  0  0  0  0  0  0  0  0  0  0
   56.9020   26.5020   46.0950 C   0  0  0  0  0  0  0  0  0  0  0  0
   57.3020   27.9510   46.0370 C   0  0  0  0  0  0  0  0  0  0  0  0
   56.7600   28.7900   45.0520 C   0  0  0  0  0  0  0  0  0  0  0  0
   57.1480   30.1300   44.9720 C   0  0  0  0  0  0  0  0  0  0  0  0
   58.0870   30.6560   45.8770 C   0  0  0  0  0  0  0  0  0  0  0  0
   58.5090   32.0770   45.7900 C   0  0  0  0  0  0  0  0  0  0  0  0
   57.6240   33.0650   45.3310 C   0  0  0  0  0  0  0  0  0  0  0  0
   58.0330   34.3580   45.2310 N   0  0  0  0  0  0  0  0  0  0  0  0
   59.2920   34.7430   45.5630 C   0  0  0  0  0  0  0  0  0  0  0  0
   59.6220   35.9530   45.4470 O   0  0  0  0  0  0  0  0  0  0  0  0
   60.2190   33.8010   46.0260 C   0  0  0  0  0  0  0  0  0  0  0  0
   61.5190   34.2290   46.3490 O   0  0  0  0  0  0  0  0  0  0  0  0
   62.2980   33.7520   47.4480 C   0  0  0  0  0  0  0  0  0  0  0  0
   61.4130   33.3450   48.5980 C   0  0  0  0  0  0  0  0  0  0  0  0
   61.4700   32.0360   49.1020 C   0  0  0  0  0  0  0  0  0  0  0  0
   60.6390   31.6510   50.1590 C   0  0  0  0  0  0  0  0  0  0  0  0
   59.7500   32.5710   50.7230 C   0  0  0  0  0  0  0  0  0  0  0  0
   59.6980   33.8810   50.2370 C   0  0  0  0  0  0  0  0  0  0  0  0
   60.5300   34.2700   49.1830 C   0  0  0  0  0  0  0  0  0  0  0  0
   59.8100   32.4620   46.1500 C   0  0  0  0  0  0  0  0  0  0  0  0
   58.6280   29.8100   46.8640 C   0  0  0  0  0  0  0  0  0  0  0  0
   58.2410   28.4700   46.9400 C   0  0  0  0  0  0  0  0  0  0  0  0
   55.5040   24.0650   45.0740 C   0  0  0  0  0  0  0  0  0  0  0  0
   55.8750   23.0010   45.9190 C   0  0  0  0  0  0  0  0  0  0  0  0
   56.5830   21.9060   45.4120 C   0  0  0  0  0  0  0  0  0  0  0  0
   56.9290   21.8610   44.0610 C   0  0  0  0  0  0  0  0  0  0  0  0
   56.5670   22.9090   43.2110 C   0  0  0  0  0  0  0  0  0  0  0  0
   55.8590   24.0060   43.7130 C   0  0  0  0  0  0  0  0  0  0  0  0
   57.3022   26.0515   47.0153 H   0  0  0  0  0  0  0  0  0  0  0  0
   57.3080   25.9830   45.2142 H   0  0  0  0  0  0  0  0  0  0  0  0
   56.0248   28.3904   44.3380 H   0  0  0  0  0  0  0  0  0  0  0  0
   56.7158   30.7781   44.1954 H   0  0  0  0  0  0  0  0  0  0  0  0
   56.5957   32.7923   45.0511 H   0  0  0  0  0  0  0  0  0  0  0  0
   62.8869   32.8822   47.1214 H   0  0  0  0  0  0  0  0  0  0  0  0
   62.9625   34.5612   47.7852 H   0  0  0  0  0  0  0  0  0  0  0  0
   62.1710   31.3103   48.6639 H   0  0  0  0  0  0  0  0  0  0  0  0
   60.6849   30.6228   50.5472 H   0  0  0  0  0  0  0  0  0  0  0  0
   59.0915   32.2642   51.5490 H   0  0  0  0  0  0  0  0  0  0  0  0
   59.0020   34.6060   50.6842 H   0  0  0  0  0  0  0  0  0  0  0  0
   60.4938   35.3041   48.8097 H   0  0  0  0  0  0  0  0  0  0  0  0
   60.5153   31.7095   46.5324 H   0  0  0  0  0  0  0  0  0  0  0  0
   59.3614   30.2075   47.5810 H   0  0  0  0  0  0  0  0  0  0  0  0
   58.6752   27.8183   47.7125 H   0  0  0  0  0  0  0  0  0  0  0  0
   55.6062   23.0312   46.9852 H   0  0  0  0  0  0  0  0  0  0  0  0
   56.8674   21.0792   46.0795 H   0  0  0  0  0  0  0  0  0  0  0  0
   57.4871   20.9998   43.6649 H   0  0  0  0  0  0  0  0  0  0  0  0
   56.8390   22.8714   42.1458 H   0  0  0  0  0  0  0  0  0  0  0  0
   55.5775   24.8287   43.0393 H   0  0  0  0  0  0  0  0  0  0  0  0
  1  2  2  0
  2  3  1  0
  3  4  1  0
  4  5  1  0
  5  6  2  0
  6  7  1  0
  7  8  2  0
  8  9  1  0
  9 10  2  0
 10 11  1  0
 11 12  1  0
 12 13  2  0
 12 14  1  0
 14 15  1  0
 15 16  1  0
 16 17  1  0
 17 18  2  0
 18 19  1  0
 19 20  2  0
 20 21  1  0
 21 22  2  0
 14 23  2  0
  8 24  1  0
 24 25  2  0
  2 26  1  0
 26 27  2  0
 27 28  1  0
 28 29  2  0
 29 30  1  0
 30 31  2  0
 25  5  1  0
 31 26  1  0
 23  9  1  0
 22 17  1  0
  4 32  1  0
  4 33  1  0
  6 34  1  0
  7 35  1  0
 10 36  1  0
 16 37  1  0
 16 38  1  0
 18 39  1  0
 19 40  1  0
 20 41  1  0
 21 42  1  0
 22 43  1  0
 23 44  1  0
 24 45  1  0
 25 46  1  0
 27 47  1  0
 28 48  1  0
 29 49  1  0
 30 50  1  0
 31 51  1  0
M  CHG  2   3  -1  11  -1
M  END
>  <UniqueID>  (31) 
26

>  <SMILES>  (31) 
O=C([N-]Cc1ccc(-c2c[n-]c(=O)c(OCc3ccccc3)c2)cc1)c1ccccc1

>  <Energy>  (31) 
59.80666998851841

>  <Genealogy>  (31) 
O=C([N-]Cc1ccc(-c2c[n-]c(=O)c(OCc3ccccc3)c2)cc1)c1ccccc1 (protonated)
O=C([N-]Cc1ccc(-c2c[n-]c(=O)c(OCc3ccccc3)c2)cc1)c1ccccc1 (3D coordinates assigned)
O=C([N-]Cc1ccc(-c2c[n-]c(=O)c(OCc3ccccc3)c2)cc1)c1ccccc1 (optimized conformer: 59.80666998851841 kcal/mol)

>  <smiles>  (31) 
O=C(NCc1ccc(-c2c[nH]c(=O)c(OCc3ccccc3)c2)cc1)c1ccccc1

>  <score_type>  (31) 
oracle

>  <origin>  (31) 
adg

>  <m_score__min__energy>  (31) 
-12.32

>  <m_primary>  (31) 
energy

$$$$
31:0
     RDKit          3D

 40 42  0  0  0  0  0  0  0  0999 V2000
   55.3560   20.9230   45.6240 C   0  0  0  0  0  0  0  0  0  0  0  0
   55.8080   22.1960   45.0610 N   0  0  0  0  0  0  0  0  0  0  0  0
   55.7430   23.2940   45.8200 N   0  0  0  0  0  0  0  0  0  0  0  0
   56.1350   24.5150   45.3680 C   0  0  0  0  0  0  0  0  0  0  0  0
   56.0560   25.6760   46.2710 C   0  0  0  0  0  0  0  0  0  0  0  0
   55.1790   26.5530   46.0570 O   0  0  0  0  0  0  0  0  0  0  0  0
   56.9730   25.8740   47.3560 N   0  0  0  0  0  0  0  0  0  0  0  0
   58.4230   25.7520   47.2610 C   0  0  0  0  0  0  0  0  0  0  0  0
   58.9700   26.9500   46.5590 C   0  0  0  0  0  0  0  0  0  0  0  0
   60.1730   26.9400   45.8560 C   0  0  0  0  0  0  0  0  0  0  0  0
   60.4420   28.4980   45.2890 S   0  0  0  0  0  0  0  0  0  0  0  0
   59.0390   29.1250   45.9800 C   0  0  0  0  0  0  0  0  0  0  0  0
   58.5820   30.5280   45.8590 C   0  0  0  0  0  0  0  0  0  0  0  0
   59.2230   31.5070   46.6410 C   0  0  0  0  0  0  0  0  0  0  0  0
   58.8680   32.8510   46.5350 C   0  0  0  0  0  0  0  0  0  0  0  0
   57.8660   33.2400   45.6500 C   0  0  0  0  0  0  0  0  0  0  0  0
   57.2060   32.2850   44.8760 C   0  0  0  0  0  0  0  0  0  0  0  0
   57.5390   30.9240   44.9770 C   0  0  0  0  0  0  0  0  0  0  0  0
   56.5940   29.7580   44.0330 S   0  0  0  0  0  0  0  0  0  0  0  0
   55.1410   29.3430   44.8740 N   0  0  0  0  0  0  0  0  0  0  0  0
   56.2350   30.3560   42.7030 O   0  0  0  0  0  0  0  0  0  0  0  0
   57.3930   28.5000   43.8270 O   0  0  0  0  0  0  0  0  0  0  0  0
   58.3510   28.1600   46.6270 N   0  0  0  0  0  0  0  0  0  0  0  0
   56.6570   24.6230   44.0760 C   0  0  0  0  0  0  0  0  0  0  0  0
   56.7270   23.4870   43.2750 C   0  0  0  0  0  0  0  0  0  0  0  0
   56.2910   22.2640   43.7820 C   0  0  0  0  0  0  0  0  0  0  0  0
   56.3520   21.2320   43.0580 O   0  0  0  0  0  0  0  0  0  0  0  0
   55.3762   20.9800   46.7223 H   0  0  0  0  0  0  0  0  0  0  0  0
   54.3296   20.7166   45.2864 H   0  0  0  0  0  0  0  0  0  0  0  0
   56.0224   20.1156   45.2864 H   0  0  0  0  0  0  0  0  0  0  0  0
   58.8541   25.6884   48.2710 H   0  0  0  0  0  0  0  0  0  0  0  0
   58.6819   24.8430   46.6983 H   0  0  0  0  0  0  0  0  0  0  0  0
   60.8277   26.0698   45.7006 H   0  0  0  0  0  0  0  0  0  0  0  0
   60.0139   31.2080   47.3446 H   0  0  0  0  0  0  0  0  0  0  0  0
   59.3800   33.6048   47.1511 H   0  0  0  0  0  0  0  0  0  0  0  0
   57.5942   34.3022   45.5609 H   0  0  0  0  0  0  0  0  0  0  0  0
   56.4161   32.6013   44.1789 H   0  0  0  0  0  0  0  0  0  0  0  0
   55.3990   28.6420   45.6040 H   0  0  0  0  0  0  0  0  0  0  0  0
   57.0082   25.5940   43.6969 H   0  0  0  0  0  0  0  0  0  0  0  0
   57.1229   23.5537   42.2509 H   0  0  0  0  0  0  0  0  0  0  0  0
  1  2  1  0
  2  3  1  0
  3  4  2  0
  4  5  1  0
  5  6  2  0
  5  7  1  0
  7  8  1  0
  8  9  1  0
  9 10  2  0
 10 11  1  0
 11 12  1  0
 12 13  1  0
 13 14  2  0
 14 15  1  0
 15 16  2  0
 16 17  1  0
 17 18  2  0
 18 19  1  0
 19 20  1  0
 19 21  2  0
 19 22  2  0
 12 23  2  0
  4 24  1  0
 24 25  2  0
 25 26  1  0
 26 27  2  0
 26  2  1  0
 23  9  1  0
 18 13  1  0
  1 28  1  0
  1 29  1  0
  1 30  1  0
  8 31  1  0
  8 32  1  0
 10 33  1  0
 14 34  1  0
 15 35  1  0
 16 36  1  0
 17 37  1  0
 20 38  1  0
 24 39  1  0
 25 40  1  0
M  CHG  2   7  -1  20  -1
M  END
>  <UniqueID>  (32) 
27

>  <SMILES>  (32) 
Cn1nc(C(=O)[N-]Cc2csc(-c3ccccc3S([NH-])(=O)=O)n2)ccc1=O

>  <Energy>  (32) 
81.08040291454465

>  <Genealogy>  (32) 
Cn1nc(C(=O)[N-]Cc2csc(-c3ccccc3S([NH-])(=O)=O)n2)ccc1=O (protonated)
Cn1nc(C(=O)[N-]Cc2csc(-c3ccccc3S([NH-])(=O)=O)n2)ccc1=O (3D coordinates assigned)
Cn1nc(C(=O)[N-]Cc2csc(-c3ccccc3S([NH-])(=O)=O)n2)ccc1=O (optimized conformer: 81.08040291454465 kcal/mol)

>  <smiles>  (32) 
Cn1nc(C(=O)NCc2csc(-c3ccccc3S(N)(=O)=O)n2)ccc1=O

>  <score_type>  (32) 
oracle

>  <origin>  (32) 
adg

>  <m_score__min__energy>  (32) 
-13.640000000000001

>  <m_primary>  (32) 
energy

$$$$
32:0
     RDKit          3D

 46 48  0  0  0  0  0  0  0  0999 V2000
   55.2250   29.3650   44.8550 O   0  0  0  0  0  0  0  0  0  0  0  0
   56.1080   30.0150   44.2320 C   0  0  0  0  0  0  0  0  0  0  0  0
   56.8900   29.3470   43.1460 C   0  0  0  0  0  0  0  0  0  0  0  0
   57.5340   28.1720   43.6420 O   0  0  0  0  0  0  0  0  0  0  0  0
   58.5120   28.1460   44.6510 C   0  0  0  0  0  0  0  0  0  0  0  0
   59.7610   28.7840   44.5080 C   0  0  0  0  0  0  0  0  0  0  0  0
   60.7000   28.7370   45.5420 C   0  0  0  0  0  0  0  0  0  0  0  0
   60.4070   28.0560   46.7250 C   0  0  0  0  0  0  0  0  0  0  0  0
   59.1740   27.4160   46.8760 C   0  0  0  0  0  0  0  0  0  0  0  0
   58.2290   27.4590   45.8440 C   0  0  0  0  0  0  0  0  0  0  0  0
   56.6850   26.6500   46.0620 Cl  0  0  0  0  0  0  0  0  0  0  0  0
   56.3240   31.4040   44.5070 N   0  0  0  0  0  0  0  0  0  0  0  0
   57.3970   31.9500   45.2880 C   0  0  0  0  0  0  0  0  0  0  0  0
   58.1320   31.0940   46.1160 C   0  0  0  0  0  0  0  0  0  0  0  0
   59.1700   31.5920   46.9080 C   0  0  0  0  0  0  0  0  0  0  0  0
   59.4660   32.9630   46.9120 C   0  0  0  0  0  0  0  0  0  0  0  0
   60.5520   33.4470   47.7190 N   0  0  0  0  0  0  0  0  0  0  0  0
   61.8990   33.6060   47.2430 C   0  0  0  0  0  0  0  0  0  0  0  0
   62.1590   33.5350   46.0120 O   0  0  0  0  0  0  0  0  0  0  0  0
   63.0070   33.8610   48.2130 C   0  0  0  0  0  0  0  0  0  0  0  0
   63.6360   32.2700   48.8380 S   0  0  0  0  0  0  0  0  0  0  0  0
   62.0430   31.7570   49.4750 C   0  0  0  0  0  0  0  0  0  0  0  0
   61.5400   30.4850   49.1790 C   0  0  0  0  0  0  0  0  0  0  0  0
   60.2940   30.1080   49.6880 C   0  0  0  0  0  0  0  0  0  0  0  0
   59.5680   31.0020   50.4780 C   0  0  0  0  0  0  0  0  0  0  0  0
   60.1020   32.2650   50.7480 C   0  0  0  0  0  0  0  0  0  0  0  0
   61.3170   32.6130   50.2450 N   0  0  0  0  0  0  0  0  0  0  0  0
   58.7260   33.8250   46.0830 C   0  0  0  0  0  0  0  0  0  0  0  0
   57.6910   33.3250   45.2870 C   0  0  0  0  0  0  0  0  0  0  0  0
   56.2088   29.0685   42.3285 H   0  0  0  0  0  0  0  0  0  0  0  0
   57.6573   30.0450   42.7798 H   0  0  0  0  0  0  0  0  0  0  0  0
   59.9976   29.3215   43.5779 H   0  0  0  0  0  0  0  0  0  0  0  0
   61.6722   29.2377   45.4235 H   0  0  0  0  0  0  0  0  0  0  0  0
   61.1469   28.0232   47.5384 H   0  0  0  0  0  0  0  0  0  0  0  0
   58.9455   26.8774   47.8075 H   0  0  0  0  0  0  0  0  0  0  0  0
   57.8908   30.0211   46.1436 H   0  0  0  0  0  0  0  0  0  0  0  0
   59.7589   30.9042   47.5325 H   0  0  0  0  0  0  0  0  0  0  0  0
   60.3360   33.7780   48.6860 H   0  0  0  0  0  0  0  0  0  0  0  0
   63.8193   34.4049   47.7087 H   0  0  0  0  0  0  0  0  0  0  0  0
   62.6311   34.4645   49.0523 H   0  0  0  0  0  0  0  0  0  0  0  0
   62.1186   29.7898   48.5529 H   0  0  0  0  0  0  0  0  0  0  0  0
   59.8866   29.1104   49.4670 H   0  0  0  0  0  0  0  0  0  0  0  0
   58.5865   30.7152   50.8834 H   0  0  0  0  0  0  0  0  0  0  0  0
   59.5392   32.9784   51.3679 H   0  0  0  0  0  0  0  0  0  0  0  0
   58.9629   34.8990   46.0607 H   0  0  0  0  0  0  0  0  0  0  0  0
   57.1043   34.0101   44.6574 H   0  0  0  0  0  0  0  0  0  0  0  0
  1  2  2  0
  2  3  1  0
  3  4  1  0
  4  5  1  0
  5  6  2  0
  6  7  1  0
  7  8  2  0
  8  9  1  0
  9 10  2  0
 10 11  1  0
  2 12  1  0
 12 13  1  0
 13 14  2  0
 14 15  1  0
 15 16  2  0
 16 17  1  0
 17 18  1  0
 18 19  2  0
 18 20  1  0
 20 21  1  0
 21 22  1  0
 22 23  2  0
 23 24  1  0
 24 25  2  0
 25 26  1  0
 26 27  2  0
 16 28  1  0
 28 29  2  0
 10  5  1  0
 29 13  1  0
 27 22  1  0
  3 30  1  0
  3 31  1  0
  6 32  1  0
  7 33  1  0
  8 34  1  0
  9 35  1  0
 14 36  1  0
 15 37  1  0
 17 38  1  0
 20 39  1  0
 20 40  1  0
 23 41  1  0
 24 42  1  0
 25 43  1  0
 26 44  1  0
 28 45  1  0
 29 46  1  0
M  CHG  1  12  -1
M  END
>  <UniqueID>  (33) 
28

>  <SMILES>  (33) 
O=C(COc1ccccc1Cl)[N-]c1ccc(NC(=O)CSc2ccccn2)cc1

>  <Energy>  (33) 
49.94771320933794

>  <Genealogy>  (33) 
O=C(COc1ccccc1Cl)[N-]c1ccc(NC(=O)CSc2ccccn2)cc1 (protonated)
O=C(COc1ccccc1Cl)[N-]c1ccc(NC(=O)CSc2ccccn2)cc1 (3D coordinates assigned)
O=C(COc1ccccc1Cl)[N-]c1ccc(NC(=O)CSc2ccccn2)cc1 (optimized conformer: 49.94771320933794 kcal/mol)

>  <smiles>  (33) 
O=C(COc1ccccc1Cl)Nc1ccc(NC(=O)CSc2ccccn2)cc1

>  <score_type>  (33) 
oracle

>  <origin>  (33) 
adg

>  <m_score__min__energy>  (33) 
-9.3000000000000007

>  <m_primary>  (33) 
energy

$$$$
33:0
     RDKit          3D

 31 32  0  0  0  0  0  0  0  0999 V2000
   58.8530   22.1090   44.9150 C   0  0  0  0  0  0  0  0  0  0  0  0
   58.0320   23.0800   45.6250 N   0  0  0  0  0  0  0  0  0  0  0  0
   57.7220   24.3150   45.1890 C   0  0  0  0  0  0  0  0  0  0  0  0
   56.8650   24.8830   46.1080 C   0  0  0  0  0  0  0  0  0  0  0  0
   56.2550   26.2170   46.0450 C   0  0  0  0  0  0  0  0  0  0  0  0
   55.0010   26.3360   45.9870 O   0  0  0  0  0  0  0  0  0  0  0  0
   57.0910   27.3740   46.0470 N   0  0  0  0  0  0  0  0  0  0  0  0
   57.6350   28.1440   44.5970 S   0  0  0  0  0  0  0  0  0  0  0  0
   58.9460   28.8350   44.8490 O   0  0  0  0  0  0  0  0  0  0  0  0
   57.8010   27.1200   43.5100 O   0  0  0  0  0  0  0  0  0  0  0  0
   56.4220   29.3500   44.0900 C   0  0  0  0  0  0  0  0  0  0  0  0
   57.0620   30.7050   43.9650 C   0  0  0  0  0  0  0  0  0  0  0  0
   57.3980   31.2170   42.7000 C   0  0  0  0  0  0  0  0  0  0  0  0
   58.0420   32.4540   42.5910 C   0  0  0  0  0  0  0  0  0  0  0  0
   58.3680   33.1790   43.7400 C   0  0  0  0  0  0  0  0  0  0  0  0
   58.0480   32.6710   45.0030 C   0  0  0  0  0  0  0  0  0  0  0  0
   58.5180   33.6480   46.5750 Br  0  0  0  0  0  0  0  0  0  0  0  0
   57.3980   31.4370   45.1150 C   0  0  0  0  0  0  0  0  0  0  0  0
   56.6840   23.9200   47.0840 C   0  0  0  0  0  0  0  0  0  0  0  0
   57.4000   22.8250   46.7610 N   0  0  0  0  0  0  0  0  0  0  0  0
   59.3861   21.4784   45.6417 H   0  0  0  0  0  0  0  0  0  0  0  0
   58.2106   21.4777   44.2835 H   0  0  0  0  0  0  0  0  0  0  0  0
   59.5823   22.6375   44.2835 H   0  0  0  0  0  0  0  0  0  0  0  0
   58.0870   24.7869   44.2648 H   0  0  0  0  0  0  0  0  0  0  0  0
   56.0005   29.0555   43.1176 H   0  0  0  0  0  0  0  0  0  0  0  0
   55.6235   29.3971   44.8451 H   0  0  0  0  0  0  0  0  0  0  0  0
   57.1540   30.6437   41.7935 H   0  0  0  0  0  0  0  0  0  0  0  0
   58.2923   32.8568   41.5985 H   0  0  0  0  0  0  0  0  0  0  0  0
   58.8768   34.1502   43.6511 H   0  0  0  0  0  0  0  0  0  0  0  0
   57.1489   31.0382   46.1094 H   0  0  0  0  0  0  0  0  0  0  0  0
   56.0561   24.0302   47.9804 H   0  0  0  0  0  0  0  0  0  0  0  0
  1  2  1  0
  2  3  1  0
  3  4  2  0
  4  5  1  0
  5  6  2  0
  5  7  1  0
  7  8  1  0
  8  9  2  0
  8 10  2  0
  8 11  1  0
 11 12  1  0
 12 13  2  0
 13 14  1  0
 14 15  2  0
 15 16  1  0
 16 17  1  0
 16 18  2  0
  4 19  1  0
 19 20  2  0
 20  2  1  0
 18 12  1  0
  1 21  1  0
  1 22  1  0
  1 23  1  0
  3 24  1  0
 11 25  1  0
 11 26  1  0
 13 27  1  0
 14 28  1  0
 15 29  1  0
 18 30  1  0
 19 31  1  0
M  CHG  1   7  -1
M  END
>  <UniqueID>  (34) 
29

>  <SMILES>  (34) 
Cn1cc(C(=O)[N-]S(=O)(=O)Cc2cccc(Br)c2)cn1

>  <Energy>  (34) 
55.02418878836208

>  <Genealogy>  (34) 
Cn1cc(C(=O)[N-]S(=O)(=O)Cc2cccc(Br)c2)cn1 (protonated)
Cn1cc(C(=O)[N-]S(=O)(=O)Cc2cccc(Br)c2)cn1 (3D coordinates assigned)
Cn1cc(C(=O)[N-]S(=O)(=O)Cc2cccc(Br)c2)cn1 (optimized conformer: 55.02418878836208 kcal/mol)

>  <smiles>  (34) 
Cn1cc(C(=O)NS(=O)(=O)Cc2cccc(Br)c2)cn1

>  <score_type>  (34) 
oracle

>  <origin>  (34) 
adg

>  <m_score__min__energy>  (34) 
-9.5899999999999999

>  <m_primary>  (34) 
energy

$$$$
34:0
     RDKit          3D

 36 37  0  0  0  0  0  0  0  0999 V2000
   57.5710   28.4230   43.6500 N   0  0  0  0  0  0  0  0  0  0  0  0
   56.5580   29.8100   43.8520 S   0  0  0  0  0  0  0  0  0  0  0  0
   56.2780   30.4240   42.5090 O   0  0  0  0  0  0  0  0  0  0  0  0
   55.2540   29.3920   44.4710 O   0  0  0  0  0  0  0  0  0  0  0  0
   57.3610   30.9840   44.8890 C   0  0  0  0  0  0  0  0  0  0  0  0
   58.2680   30.5560   45.8670 C   0  0  0  0  0  0  0  0  0  0  0  0
   58.9170   31.4880   46.6820 C   0  0  0  0  0  0  0  0  0  0  0  0
   58.6820   32.8650   46.5140 C   0  0  0  0  0  0  0  0  0  0  0  0
   59.3180   33.8400   47.3560 N   0  0  0  0  0  0  0  0  0  0  0  0
   60.7310   33.8890   47.6000 C   0  0  0  0  0  0  0  0  0  0  0  0
   61.2620   34.5910   48.9860 S   0  0  0  0  0  0  0  0  0  0  0  0
   61.6580   33.4610   46.5840 N   0  0  0  0  0  0  0  0  0  0  0  0
   63.1060   33.3780   46.7780 C   0  0  0  0  0  0  0  0  0  0  0  0
   63.4260   32.6970   48.0820 C   0  0  0  0  0  0  0  0  0  0  0  0
   62.6320   31.6290   48.5310 C   0  0  0  0  0  0  0  0  0  0  0  0
   62.9250   30.9940   49.7420 C   0  0  0  0  0  0  0  0  0  0  0  0
   64.0070   31.4230   50.5150 C   0  0  0  0  0  0  0  0  0  0  0  0
   64.7980   32.4900   50.0780 C   0  0  0  0  0  0  0  0  0  0  0  0
   64.5080   33.1280   48.8680 C   0  0  0  0  0  0  0  0  0  0  0  0
   57.7620   33.2870   45.5430 C   0  0  0  0  0  0  0  0  0  0  0  0
   57.1130   32.3530   44.7280 C   0  0  0  0  0  0  0  0  0  0  0  0
   58.3060   28.6820   42.9550 H   0  0  0  0  0  0  0  0  0  0  0  0
   56.9860   27.6800   43.2080 H   0  0  0  0  0  0  0  0  0  0  0  0
   58.4703   29.4823   45.9941 H   0  0  0  0  0  0  0  0  0  0  0  0
   59.6152   31.1430   47.4589 H   0  0  0  0  0  0  0  0  0  0  0  0
   58.7150   34.5590   47.8160 H   0  0  0  0  0  0  0  0  0  0  0  0
   61.2860   33.2060   45.6420 H   0  0  0  0  0  0  0  0  0  0  0  0
   63.5495   32.8035   45.9514 H   0  0  0  0  0  0  0  0  0  0  0  0
   63.5209   34.3966   46.7978 H   0  0  0  0  0  0  0  0  0  0  0  0
   61.7765   31.2908   47.9279 H   0  0  0  0  0  0  0  0  0  0  0  0
   62.3025   30.1552   50.0867 H   0  0  0  0  0  0  0  0  0  0  0  0
   64.2364   30.9216   51.4668 H   0  0  0  0  0  0  0  0  0  0  0  0
   65.6495   32.8279   50.6869 H   0  0  0  0  0  0  0  0  0  0  0  0
   65.1293   33.9705   48.5302 H   0  0  0  0  0  0  0  0  0  0  0  0
   57.5493   34.3594   45.4214 H   0  0  0  0  0  0  0  0  0  0  0  0
   56.4056   32.6951   43.9582 H   0  0  0  0  0  0  0  0  0  0  0  0
  1  2  1  0
  2  3  2  0
  2  4  2  0
  2  5  1  0
  5  6  2  0
  6  7  1  0
  7  8  2  0
  8  9  1  0
  9 10  1  0
 10 11  2  0
 10 12  1  0
 12 13  1  0
 13 14  1  0
 14 15  2  0
 15 16  1  0
 16 17  2  0
 17 18  1  0
 18 19  2  0
  8 20  1  0
 20 21  2  0
 21  5  1  0
 19 14  1  0
  1 22  1  0
  1 23  1  0
  6 24  1  0
  7 25  1  0
  9 26  1  0
 12 27  1  0
 13 28  1  0
 13 29  1  0
 15 30  1  0
 16 31  1  0
 17 32  1  0
 18 33  1  0
 19 34  1  0
 20 35  1  0
 21 36  1  0
M  END
>  <UniqueID>  (35) 
30

>  <SMILES>  (35) 
NS(=O)(=O)c1ccc(NC(=S)NCc2ccccc2)cc1

>  <Energy>  (35) 
37.442056847677044

>  <Genealogy>  (35) 
NS(=O)(=O)c1ccc(NC(=S)NCc2ccccc2)cc1 (3D coordinates assigned)
NS(=O)(=O)c1ccc(NC(=S)NCc2ccccc2)cc1 (optimized conformer: 37.442056847677044 kcal/mol)

>  <smiles>  (35) 
NS(=O)(=O)c1ccc(NC(=S)NCc2ccccc2)cc1

>  <score_type>  (35) 
oracle

>  <origin>  (35) 
adg

>  <m_score__min__energy>  (35) 
-7.8799999999999999

>  <m_primary>  (35) 
energy

$$$$
35:0
     RDKit          3D

 55 57  0  0  0  0  0  0  0  0999 V2000
   64.8110   32.9860   49.3140 C   0  0  0  0  0  0  0  0  0  0  0  0
   63.5360   33.2700   48.5740 C   0  0  0  0  0  0  0  0  0  0  0  0
   63.5180   33.2890   47.1740 C   0  0  0  0  0  0  0  0  0  0  0  0
   62.3420   33.5930   46.4880 C   0  0  0  0  0  0  0  0  0  0  0  0
   61.1660   33.9090   47.1870 C   0  0  0  0  0  0  0  0  0  0  0  0
   59.7080   34.3340   46.2700 S   0  0  0  0  0  0  0  0  0  0  0  0
   59.9660   34.2400   44.7910 O   0  0  0  0  0  0  0  0  0  0  0  0
   59.3160   35.7450   46.6110 O   0  0  0  0  0  0  0  0  0  0  0  0
   58.3790   33.2910   46.6640 N   0  0  0  0  0  0  0  0  0  0  0  0
   58.4710   31.8780   46.8950 C   0  0  0  0  0  0  0  0  0  0  0  0
   58.1350   30.9350   45.9080 C   0  0  0  0  0  0  0  0  0  0  0  0
   58.2980   29.5660   46.1570 C   0  0  0  0  0  0  0  0  0  0  0  0
   58.7790   29.1260   47.3930 C   0  0  0  0  0  0  0  0  0  0  0  0
   58.9310   27.7640   47.6220 O   0  0  0  0  0  0  0  0  0  0  0  0
   59.0910   30.0590   48.3960 C   0  0  0  0  0  0  0  0  0  0  0  0
   59.5930   29.6110   49.7060 C   0  0  0  0  0  0  0  0  0  0  0  0
   59.5870   28.3790   49.9790 O   0  0  0  0  0  0  0  0  0  0  0  0
   60.0770   30.5380   50.6860 N   0  0  0  0  0  0  0  0  0  0  0  0
   59.2430   31.4030   51.5170 C   0  0  0  0  0  0  0  0  0  0  0  0
   57.8030   31.3780   51.0700 C   0  0  0  0  0  0  0  0  0  0  0  0
   57.3710   32.3190   50.3510 O   0  0  0  0  0  0  0  0  0  0  0  0
   56.9180   30.2990   51.3970 N   0  0  0  0  0  0  0  0  0  0  0  0
   55.6960   30.4080   52.1400 C   0  0  0  0  0  0  0  0  0  0  0  0
   55.7290   30.2610   53.5320 C   0  0  0  0  0  0  0  0  0  0  0  0
   54.5520   30.3450   54.2780 C   0  0  0  0  0  0  0  0  0  0  0  0
   53.3320   30.5560   53.6350 C   0  0  0  0  0  0  0  0  0  0  0  0
   53.2820   30.6800   52.2400 C   0  0  0  0  0  0  0  0  0  0  0  0
   51.7300   30.8940   51.4360 S   0  0  0  0  0  0  0  0  0  0  0  0
   51.3870   32.5820   51.2910 N   0  0  0  0  0  0  0  0  0  0  0  0
   51.7770   30.2680   50.0700 O   0  0  0  0  0  0  0  0  0  0  0  0
   50.6410   30.2310   52.2320 O   0  0  0  0  0  0  0  0  0  0  0  0
   54.4660   30.5970   51.4930 C   0  0  0  0  0  0  0  0  0  0  0  0
   58.9420   31.4310   48.1390 C   0  0  0  0  0  0  0  0  0  0  0  0
   61.1720   33.8770   48.6040 C   0  0  0  0  0  0  0  0  0  0  0  0
   59.9450   34.2010   49.4110 C   0  0  0  0  0  0  0  0  0  0  0  0
   62.3670   33.5770   49.2820 C   0  0  0  0  0  0  0  0  0  0  0  0
   64.6234   33.0278   50.3971 H   0  0  0  0  0  0  0  0  0  0  0  0
   65.1766   31.9844   49.0436 H   0  0  0  0  0  0  0  0  0  0  0  0
   65.5672   33.7377   49.0436 H   0  0  0  0  0  0  0  0  0  0  0  0
   64.4362   33.0630   46.6120 H   0  0  0  0  0  0  0  0  0  0  0  0
   62.3359   33.5851   45.3880 H   0  0  0  0  0  0  0  0  0  0  0  0
   57.7430   31.2730   44.9374 H   0  0  0  0  0  0  0  0  0  0  0  0
   58.0461   28.8338   45.3757 H   0  0  0  0  0  0  0  0  0  0  0  0
   59.2994   31.0587   52.5602 H   0  0  0  0  0  0  0  0  0  0  0  0
   59.6152   32.4339   51.4240 H   0  0  0  0  0  0  0  0  0  0  0  0
   56.6872   30.0784   54.0404 H   0  0  0  0  0  0  0  0  0  0  0  0
   54.5865   30.2448   55.3729 H   0  0  0  0  0  0  0  0  0  0  0  0
   52.4062   30.6253   54.2250 H   0  0  0  0  0  0  0  0  0  0  0  0
   50.4060   32.7220   51.6220 H   0  0  0  0  0  0  0  0  0  0  0  0
   54.4299   30.6803   50.3968 H   0  0  0  0  0  0  0  0  0  0  0  0
   59.1968   32.1625   48.9200 H   0  0  0  0  0  0  0  0  0  0  0  0
   60.1839   34.1379   50.4829 H   0  0  0  0  0  0  0  0  0  0  0  0
   59.6061   35.2194   49.1702 H   0  0  0  0  0  0  0  0  0  0  0  0
   59.1475   33.4827   49.1702 H   0  0  0  0  0  0  0  0  0  0  0  0
   62.3839   33.5835   50.3819 H   0  0  0  0  0  0  0  0  0  0  0  0
  1  2  1  0
  2  3  2  0
  3  4  1  0
  4  5  2  0
  5  6  1  0
  6  7  2  0
  6  8  2  0
  6  9  1  0
  9 10  1  0
 10 11  2  0
 11 12  1  0
 12 13  2  0
 13 14  1  0
 13 15  1  0
 15 16  1  0
 16 17  2  0
 16 18  1  0
 18 19  1  0
 19 20  1  0
 20 21  2  0
 20 22  1  0
 22 23  1  0
 23 24  2  0
 24 25  1  0
 25 26  2  0
 26 27  1  0
 27 28  1  0
 28 29  1  0
 28 30  2  0
 28 31  2  0
 27 32  2  0
 15 33  2  0
  5 34  1  0
 34 35  1  0
 34 36  2  0
 36  2  1  0
 33 10  1  0
 32 23  1  0
  1 37  1  0
  1 38  1  0
  1 39  1  0
  3 40  1  0
  4 41  1  0
 11 42  1  0
 12 43  1  0
 19 44  1  0
 19 45  1  0
 24 46  1  0
 25 47  1  0
 26 48  1  0
 29 49  1  0
 32 50  1  0
 33 51  1  0
 35 52  1  0
 35 53  1  0
 35 54  1  0
 36 55  1  0
M  CHG  5   9  -1  14  -1  18  -1  22  -1  29  -1
M  END
>  <UniqueID>  (36) 
31

>  <SMILES>  (36) 
Cc1ccc(S(=O)(=O)[N-]c2ccc([O-])c(C(=O)[N-]CC(=O)[N-]c3cccc(S([NH-])(=O)=O)c3)c2)c(C)c1

>  <Energy>  (36) 
69.78211821099178

>  <Genealogy>  (36) 
Cc1ccc(S(=O)(=O)[N-]c2ccc([O-])c(C(=O)[N-]CC(=O)[N-]c3cccc(S([NH-])(=O)=O)c3)c2)c(C)c1 (protonated)
Cc1ccc(S(=O)(=O)[N-]c2ccc([O-])c(C(=O)[N-]CC(=O)[N-]c3cccc(S([NH-])(=O)=O)c3)c2)c(C)c1 (3D coordinates assigned)
Cc1ccc(S(=O)(=O)[N-]c2ccc([O-])c(C(=O)[N-]CC(=O)[N-]c3cccc(S([NH-])(=O)=O)c3)c2)c(C)c1 (optimized conformer: 69.78211821099178 kcal/mol)

>  <smiles>  (36) 
Cc1ccc(S(=O)(=O)Nc2ccc(O)c(C(=O)NCC(=O)Nc3cccc(S(N)(=O)=O)c3)c2)c(C)c1

>  <score_type>  (36) 
oracle

>  <origin>  (36) 
adg

>  <m_score__min__energy>  (36) 
-18.25

>  <m_primary>  (36) 
energy

$$$$
36:0
     RDKit          3D

 51 54  0  0  0  0  0  0  0  0999 V2000
   63.8990   32.4570   47.1780 N   0  0  0  0  0  0  0  0  0  0  0  0
   62.4300   31.5910   47.4610 S   0  0  0  0  0  0  0  0  0  0  0  0
   62.4750   31.0120   48.8490 O   0  0  0  0  0  0  0  0  0  0  0  0
   62.3020   30.4690   46.4680 O   0  0  0  0  0  0  0  0  0  0  0  0
   61.0560   32.6830   47.3010 C   0  0  0  0  0  0  0  0  0  0  0  0
   60.9700   33.8420   48.0880 C   0  0  0  0  0  0  0  0  0  0  0  0
   59.8940   34.7180   47.9260 C   0  0  0  0  0  0  0  0  0  0  0  0
   58.9040   34.4470   46.9780 C   0  0  0  0  0  0  0  0  0  0  0  0
   58.9780   33.2900   46.1940 C   0  0  0  0  0  0  0  0  0  0  0  0
   57.7520   32.9900   44.9640 S   0  0  0  0  0  0  0  0  0  0  0  0
   56.7050   34.0700   44.9730 O   0  0  0  0  0  0  0  0  0  0  0  0
   58.4120   32.9810   43.6140 O   0  0  0  0  0  0  0  0  0  0  0  0
   57.0090   31.4470   45.2440 N   0  0  0  0  0  0  0  0  0  0  0  0
   57.6560   30.1740   45.1010 C   0  0  0  0  0  0  0  0  0  0  0  0
   57.4560   29.3550   43.9760 C   0  0  0  0  0  0  0  0  0  0  0  0
   58.0970   28.1160   43.8820 C   0  0  0  0  0  0  0  0  0  0  0  0
   58.9490   27.6880   44.9020 C   0  0  0  0  0  0  0  0  0  0  0  0
   59.1730   28.5010   46.0260 C   0  0  0  0  0  0  0  0  0  0  0  0
   60.1100   28.0570   47.1190 C   0  0  0  0  0  0  0  0  0  0  0  0
   60.4410   29.1760   48.0040 N   0  0  0  0  0  0  0  0  0  0  0  0
   60.1750   29.1770   49.4240 C   0  0  0  0  0  0  0  0  0  0  0  0
   60.6740   28.1360   50.2300 C   0  0  0  0  0  0  0  0  0  0  0  0
   60.4070   28.0940   51.5970 C   0  0  0  0  0  0  0  0  0  0  0  0
   60.8940   27.0800   52.3520 F   0  0  0  0  0  0  0  0  0  0  0  0
   59.6260   29.0860   52.1890 C   0  0  0  0  0  0  0  0  0  0  0  0
   59.1170   30.1370   51.4170 C   0  0  0  0  0  0  0  0  0  0  0  0
   58.3370   31.1400   52.0100 C   0  0  0  0  0  0  0  0  0  0  0  0
   57.8650   32.1710   51.2620 N   0  0  0  0  0  0  0  0  0  0  0  0
   58.1330   32.2730   49.9360 C   0  0  0  0  0  0  0  0  0  0  0  0
   58.9070   31.3020   49.2960 C   0  0  0  0  0  0  0  0  0  0  0  0
   59.3960   30.2000   50.0270 C   0  0  0  0  0  0  0  0  0  0  0  0
   58.5210   29.7430   46.1180 C   0  0  0  0  0  0  0  0  0  0  0  0
   60.0490   32.4020   46.3690 C   0  0  0  0  0  0  0  0  0  0  0  0
   64.4990   32.3400   48.0230 H   0  0  0  0  0  0  0  0  0  0  0  0
   64.3930   31.9770   46.3930 H   0  0  0  0  0  0  0  0  0  0  0  0
   61.7499   34.0605   48.8323 H   0  0  0  0  0  0  0  0  0  0  0  0
   59.8259   35.6237   48.5465 H   0  0  0  0  0  0  0  0  0  0  0  0
   58.0640   35.1451   46.8475 H   0  0  0  0  0  0  0  0  0  0  0  0
   56.7920   29.6906   43.1658 H   0  0  0  0  0  0  0  0  0  0  0  0
   57.9297   27.4769   43.0024 H   0  0  0  0  0  0  0  0  0  0  0  0
   59.4470   26.7102   44.8254 H   0  0  0  0  0  0  0  0  0  0  0  0
   59.6279   27.2621   47.7070 H   0  0  0  0  0  0  0  0  0  0  0  0
   61.0371   27.6835   46.6597 H   0  0  0  0  0  0  0  0  0  0  0  0
   60.8950   30.0070   47.5620 H   0  0  0  0  0  0  0  0  0  0  0  0
   61.2845   27.3431   49.7732 H   0  0  0  0  0  0  0  0  0  0  0  0
   59.4091   29.0425   53.2665 H   0  0  0  0  0  0  0  0  0  0  0  0
   58.1065   31.0918   53.0845 H   0  0  0  0  0  0  0  0  0  0  0  0
   57.7389   33.1245   49.3619 H   0  0  0  0  0  0  0  0  0  0  0  0
   59.1345   31.3970   48.2240 H   0  0  0  0  0  0  0  0  0  0  0  0
   58.6907   30.3833   46.9962 H   0  0  0  0  0  0  0  0  0  0  0  0
   60.0985   31.4799   45.7712 H   0  0  0  0  0  0  0  0  0  0  0  0
  1  2  1  0
  2  3  2  0
  2  4  2  0
  2  5  1  0
  5  6  2  0
  6  7  1  0
  7  8  2  0
  8  9  1  0
  9 10  1  0
 10 11  2  0
 10 12  2  0
 10 13  1  0
 13 14  1  0
 14 15  2  0
 15 16  1  0
 16 17  2  0
 17 18  1  0
 18 19  1  0
 19 20  1  0
 20 21  1  0
 21 22  2  0
 22 23  1  0
 23 24  1  0
 23 25  2  0
 25 26  1  0
 26 27  2  0
 27 28  1  0
 28 29  2  0
 29 30  1  0
 30 31  2  0
 18 32  2  0
  9 33  2  0
 33  5  1  0
 32 14  1  0
 31 21  1  0
 31 26  1  0
  1 34  1  0
  1 35  1  0
  6 36  1  0
  7 37  1  0
  8 38  1  0
 15 39  1  0
 16 40  1  0
 17 41  1  0
 19 42  1  0
 19 43  1  0
 20 44  1  0
 22 45  1  0
 25 46  1  0
 27 47  1  0
 29 48  1  0
 30 49  1  0
 32 50  1  0
 33 51  1  0
M  CHG  1  13  -1
M  END
>  <UniqueID>  (37) 
32

>  <SMILES>  (37) 
NS(=O)(=O)c1cccc(S(=O)(=O)[N-]c2cccc(CNc3cc(F)cc4cnccc34)c2)c1

>  <Energy>  (37) 
64.12838202933527

>  <Genealogy>  (37) 
NS(=O)(=O)c1cccc(S(=O)(=O)[N-]c2cccc(CNc3cc(F)cc4cnccc34)c2)c1 (protonated)
NS(=O)(=O)c1cccc(S(=O)(=O)[N-]c2cccc(CNc3cc(F)cc4cnccc34)c2)c1 (3D coordinates assigned)
NS(=O)(=O)c1cccc(S(=O)(=O)[N-]c2cccc(CNc3cc(F)cc4cnccc34)c2)c1 (optimized conformer: 64.12838202933527 kcal/mol)

>  <smiles>  (37) 
NS(=O)(=O)c1cccc(S(=O)(=O)Nc2cccc(CNc3cc(F)cc4cnccc34)c2)c1

>  <score_type>  (37) 
oracle

>  <origin>  (37) 
adg

>  <m_score__min__energy>  (37) 
-11.859999999999999

>  <m_primary>  (37) 
energy

$$$$
37:0
     RDKit          3D

 73 76  0  0  0  0  0  0  0  0999 V2000
   57.0080   34.3340   44.8330 C   0  0  0  0  0  0  0  0  0  0  0  0
   58.3550   34.6290   45.1770 O   0  0  0  0  0  0  0  0  0  0  0  0
   59.0320   34.0950   46.2860 C   0  0  0  0  0  0  0  0  0  0  0  0
   58.2820   33.4270   47.2590 C   0  0  0  0  0  0  0  0  0  0  0  0
   58.9030   32.8410   48.3630 C   0  0  0  0  0  0  0  0  0  0  0  0
   60.2920   32.9460   48.5460 C   0  0  0  0  0  0  0  0  0  0  0  0
   60.9950   32.3100   49.6380 N   0  0  0  0  0  0  0  0  0  0  0  0
   61.2820   30.9190   49.8530 C   0  0  0  0  0  0  0  0  0  0  0  0
   62.4370   30.5020   49.5680 O   0  0  0  0  0  0  0  0  0  0  0  0
   60.3140   29.9840   50.5490 C   0  0  1  0  0  0  0  0  0  0  0  0
   58.9330   29.9930   49.8600 C   0  0  0  0  0  0  0  0  0  0  0  0
   58.9770   29.2920   48.5300 C   0  0  0  0  0  0  0  0  0  0  0  0
   58.1460   29.7150   47.4830 C   0  0  0  0  0  0  0  0  0  0  0  0
   58.1810   29.0700   46.2380 C   0  0  0  0  0  0  0  0  0  0  0  0
   57.1230   29.5960   44.9370 S   0  0  0  0  0  0  0  0  0  0  0  0
   55.5360   28.9710   45.2120 N   0  0  0  0  0  0  0  0  0  0  0  0
   57.6440   29.0870   43.6250 O   0  0  0  0  0  0  0  0  0  0  0  0
   57.0740   31.0970   44.8850 O   0  0  0  0  0  0  0  0  0  0  0  0
   59.0360   27.9760   46.0510 C   0  0  0  0  0  0  0  0  0  0  0  0
   59.8530   27.5420   47.0930 C   0  0  0  0  0  0  0  0  0  0  0  0
   59.8330   28.1990   48.3380 C   0  0  0  0  0  0  0  0  0  0  0  0
   60.6870   27.6670   49.4640 C   0  0  0  0  0  0  0  0  0  0  0  0
   60.8550   28.6100   50.5870 N   0  0  0  0  0  0  0  0  0  0  0  0
   61.6410   28.1600   51.7080 C   0  0  0  0  0  0  0  0  0  0  0  0
   62.8970   28.1020   51.5880 O   0  0  0  0  0  0  0  0  0  0  0  0
   61.0000   27.7930   52.9930 C   0  0  0  0  0  0  0  0  0  0  0  0
   59.8550   27.0950   53.1130 C   0  0  0  0  0  0  0  0  0  0  0  0
   58.6280   27.5270   53.9060 C   0  0  0  0  0  0  0  0  0  0  0  0
   58.0310   28.7910   53.4030 N   0  0  0  0  0  0  0  0  0  0  0  0
   56.5620   28.6880   53.2930 C   0  0  0  0  0  0  0  0  0  0  0  0
   58.4380   29.9600   54.2150 C   0  0  0  0  0  0  0  0  0  0  0  0
   58.6050   31.1840   53.3510 C   0  0  0  0  0  0  0  0  0  0  0  0
   59.7790   31.9540   53.4400 C   0  0  0  0  0  0  0  0  0  0  0  0
   59.9260   33.1010   52.6520 C   0  0  0  0  0  0  0  0  0  0  0  0
   58.9100   33.4860   51.7680 C   0  0  0  0  0  0  0  0  0  0  0  0
   57.7490   32.7150   51.6650 C   0  0  0  0  0  0  0  0  0  0  0  0
   57.5930   31.5670   52.4550 C   0  0  0  0  0  0  0  0  0  0  0  0
   61.0570   33.6360   47.5820 C   0  0  0  0  0  0  0  0  0  0  0  0
   62.4460   33.7170   47.7790 O   0  0  0  0  0  0  0  0  0  0  0  0
   63.3750   32.6850   47.4600 C   0  0  0  0  0  0  0  0  0  0  0  0
   60.4260   34.2030   46.4520 C   0  0  0  0  0  0  0  0  0  0  0  0
   56.4153   34.2042   45.7505 H   0  0  0  0  0  0  0  0  0  0  0  0
   56.5909   35.1621   44.2411 H   0  0  0  0  0  0  0  0  0  0  0  0
   56.9752   33.4074   44.2411 H   0  0  0  0  0  0  0  0  0  0  0  0
   57.1890   33.3626   47.1529 H   0  0  0  0  0  0  0  0  0  0  0  0
   58.2979   32.2905   49.0984 H   0  0  0  0  0  0  0  0  0  0  0  0
   60.1847   30.3440   51.5803 H   0  0  0  0  0  0  0  0  0  0  0  0
   58.2061   29.4829   50.5092 H   0  0  0  0  0  0  0  0  0  0  0  0
   58.6386   31.0391   49.6897 H   0  0  0  0  0  0  0  0  0  0  0  0
   57.4601   30.5607   47.6394 H   0  0  0  0  0  0  0  0  0  0  0  0
   55.5480   27.9650   44.9430 H   0  0  0  0  0  0  0  0  0  0  0  0
   59.0624   27.4590   45.0804 H   0  0  0  0  0  0  0  0  0  0  0  0
   60.5187   26.6795   46.9417 H   0  0  0  0  0  0  0  0  0  0  0  0
   60.2185   26.7496   49.8498 H   0  0  0  0  0  0  0  0  0  0  0  0
   61.6887   27.4876   49.0464 H   0  0  0  0  0  0  0  0  0  0  0  0
   61.4978   28.1155   53.9194 H   0  0  0  0  0  0  0  0  0  0  0  0
   59.8006   26.1274   52.5926 H   0  0  0  0  0  0  0  0  0  0  0  0
   57.8709   26.7315   53.8425 H   0  0  0  0  0  0  0  0  0  0  0  0
   58.9500   27.7034   54.9429 H   0  0  0  0  0  0  0  0  0  0  0  0
   56.1202   28.6570   54.2999 H   0  0  0  0  0  0  0  0  0  0  0  0
   56.1730   29.5611   52.7486 H   0  0  0  0  0  0  0  0  0  0  0  0
   56.2986   27.7692   52.7486 H   0  0  0  0  0  0  0  0  0  0  0  0
   57.6665   30.1575   54.9738 H   0  0  0  0  0  0  0  0  0  0  0  0
   59.4016   29.7353   54.6957 H   0  0  0  0  0  0  0  0  0  0  0  0
   60.5820   31.6542   54.1295 H   0  0  0  0  0  0  0  0  0  0  0  0
   60.8436   33.7030   52.7271 H   0  0  0  0  0  0  0  0  0  0  0  0
   59.0257   34.3929   51.1564 H   0  0  0  0  0  0  0  0  0  0  0  0
   56.9555   33.0094   50.9624 H   0  0  0  0  0  0  0  0  0  0  0  0
   56.6761   30.9649   52.3730 H   0  0  0  0  0  0  0  0  0  0  0  0
   63.7694   32.2468   48.3887 H   0  0  0  0  0  0  0  0  0  0  0  0
   62.8689   31.9048   46.8725 H   0  0  0  0  0  0  0  0  0  0  0  0
   64.2039   33.1066   46.8725 H   0  0  0  0  0  0  0  0  0  0  0  0
   61.0272   34.7318   45.6977 H   0  0  0  0  0  0  0  0  0  0  0  0
  1  2  1  0
  2  3  1  0
  3  4  2  0
  4  5  1  0
  5  6  2  0
  6  7  1  0
  7  8  1  0
  8  9  2  0
  8 10  1  0
 10 11  1  0
 11 12  1  0
 12 13  2  0
 13 14  1  0
 14 15  1  0
 15 16  1  0
 15 17  2  0
 15 18  2  0
 14 19  2  0
 19 20  1  0
 20 21  2  0
 21 22  1  0
 22 23  1  0
 23 24  1  0
 24 25  2  0
 24 26  1  0
 26 27  2  3
 27 28  1  0
 28 29  1  0
 29 30  1  0
 29 31  1  0
 31 32  1  0
 32 33  2  0
 33 34  1  0
 34 35  2  0
 35 36  1  0
 36 37  2  0
  6 38  1  0
 38 39  1  0
 39 40  1  0
 38 41  2  0
 41  3  1  0
 23 10  1  0
 37 32  1  0
 21 12  1  0
  1 42  1  0
  1 43  1  0
  1 44  1  0
  4 45  1  0
  5 46  1  0
 10 47  1  1
 11 48  1  0
 11 49  1  0
 13 50  1  0
 16 51  1  0
 19 52  1  0
 20 53  1  0
 22 54  1  0
 22 55  1  0
 26 56  1  0
 27 57  1  0
 28 58  1  0
 28 59  1  0
 30 60  1  0
 30 61  1  0
 30 62  1  0
 31 63  1  0
 31 64  1  0
 33 65  1  0
 34 66  1  0
 35 67  1  0
 36 68  1  0
 37 69  1  0
 40 70  1  0
 40 71  1  0
 40 72  1  0
 41 73  1  0
M  CHG  2   7  -1  16  -1
M  END
>  <UniqueID>  (38) 
33

>  <SMILES>  (38) 
COc1ccc([N-]C(=O)[C@H]2Cc3cc(S([NH-])(=O)=O)ccc3CN2C(=O)C=CCN(C)Cc2ccccc2)c(OC)c1

>  <Energy>  (38) 
99.29574409398265

>  <Genealogy>  (38) 
COc1ccc([N-]C(=O)C2Cc3cc(S([NH-])(=O)=O)ccc3CN2C(=O)C=CCN(C)Cc2ccccc2)c(OC)c1 (protonated)
COc1ccc([N-]C(=O)[C@H]2Cc3cc(S([NH-])(=O)=O)ccc3CN2C(=O)C=CCN(C)Cc2ccccc2)c(OC)c1 (chirality)
COc1ccc([N-]C(=O)[C@H]2Cc3cc(S([NH-])(=O)=O)ccc3CN2C(=O)C=CCN(C)Cc2ccccc2)c(OC)c1 (3D coordinates assigned)
COc1ccc([N-]C(=O)[C@H]2Cc3cc(S([NH-])(=O)=O)ccc3CN2C(=O)C=CCN(C)Cc2ccccc2)c(OC)c1 (nonaromatic ring conformer: 99.29574409398265 kcal/mol)

>  <smiles>  (38) 
COc1ccc(NC(=O)C2Cc3cc(S(N)(=O)=O)ccc3CN2C(=O)C=CCN(C)Cc2ccccc2)c(OC)c1

>  <score_type>  (38) 
oracle

>  <origin>  (38) 
adg

>  <m_score__min__energy>  (38) 
-13.42

>  <m_primary>  (38) 
energy

$$$$
38:0
     RDKit          3D

 42 44  0  0  0  0  0  0  0  0999 V2000
   58.6710   32.1040   48.1220 O   0  0  0  0  0  0  0  0  0  0  0  0
   58.8610   31.7070   46.9410 C   0  0  0  0  0  0  0  0  0  0  0  0
   57.7530   31.3330   46.1150 N   0  0  0  0  0  0  0  0  0  0  0  0
   57.6380   31.5360   44.6960 C   0  0  0  0  0  0  0  0  0  0  0  0
   58.2490   32.6390   44.0720 C   0  0  0  0  0  0  0  0  0  0  0  0
   58.1760   32.8000   42.6870 C   0  0  0  0  0  0  0  0  0  0  0  0
   57.5060   31.8590   41.9080 C   0  0  0  0  0  0  0  0  0  0  0  0
   56.9140   30.7480   42.5090 C   0  0  0  0  0  0  0  0  0  0  0  0
   56.9830   30.5660   43.9010 C   0  0  0  0  0  0  0  0  0  0  0  0
   56.3410   29.3760   44.5130 C   0  0  0  0  0  0  0  0  0  0  0  0
   55.1670   29.4630   44.9600 O   0  0  0  0  0  0  0  0  0  0  0  0
   56.9930   28.0980   44.5450 N   0  0  0  0  0  0  0  0  0  0  0  0
   57.9420   27.6550   45.5290 C   0  0  0  0  0  0  0  0  0  0  0  0
   59.2200   28.2420   45.5920 C   0  0  0  0  0  0  0  0  0  0  0  0
   60.1410   27.8420   46.5600 C   0  0  0  0  0  0  0  0  0  0  0  0
   59.7940   26.8650   47.4900 C   0  0  0  0  0  0  0  0  0  0  0  0
   58.5230   26.2880   47.4590 C   0  0  0  0  0  0  0  0  0  0  0  0
   57.5770   26.6750   46.4870 C   0  0  0  0  0  0  0  0  0  0  0  0
   56.2370   26.0270   46.4880 C   0  0  0  0  0  0  0  0  0  0  0  0
   56.0980   24.8560   46.9340 O   0  0  0  0  0  0  0  0  0  0  0  0
   55.1170   26.6850   45.9940 O   0  0  0  0  0  0  0  0  0  0  0  0
   60.1940   31.5310   46.4400 N   0  0  0  0  0  0  0  0  0  0  0  0
   61.3750   32.0340   47.0880 C   0  0  0  0  0  0  0  0  0  0  0  0
   61.8540   33.3100   46.7510 C   0  0  0  0  0  0  0  0  0  0  0  0
   62.9870   33.8310   47.3830 C   0  0  0  0  0  0  0  0  0  0  0  0
   63.6430   33.0880   48.3690 C   0  0  0  0  0  0  0  0  0  0  0  0
   63.1610   31.8270   48.7280 C   0  0  0  0  0  0  0  0  0  0  0  0
   62.0290   31.3010   48.0970 C   0  0  0  0  0  0  0  0  0  0  0  0
   58.7884   33.3803   44.6799 H   0  0  0  0  0  0  0  0  0  0  0  0
   58.6483   33.6714   42.2100 H   0  0  0  0  0  0  0  0  0  0  0  0
   57.4438   31.9923   40.8179 H   0  0  0  0  0  0  0  0  0  0  0  0
   56.3885   30.0077   41.8879 H   0  0  0  0  0  0  0  0  0  0  0  0
   59.4953   29.0248   44.8698 H   0  0  0  0  0  0  0  0  0  0  0  0
   61.1415   28.2982   46.5889 H   0  0  0  0  0  0  0  0  0  0  0  0
   60.5227   26.5474   48.2504 H   0  0  0  0  0  0  0  0  0  0  0  0
   58.2560   25.5220   48.2019 H   0  0  0  0  0  0  0  0  0  0  0  0
   60.3120   30.9350   45.5900 H   0  0  0  0  0  0  0  0  0  0  0  0
   61.3344   33.9038   45.9846 H   0  0  0  0  0  0  0  0  0  0  0  0
   63.3627   34.8265   47.1042 H   0  0  0  0  0  0  0  0  0  0  0  0
   64.5379   33.4960   48.8616 H   0  0  0  0  0  0  0  0  0  0  0  0
   63.6732   31.2461   49.5092 H   0  0  0  0  0  0  0  0  0  0  0  0
   61.6483   30.3114   48.3899 H   0  0  0  0  0  0  0  0  0  0  0  0
  1  2  2  0
  2  3  1  0
  3  4  1  0
  4  5  2  0
  5  6  1  0
  6  7  2  0
  7  8  1  0
  8  9  2  0
  9 10  1  0
 10 11  2  0
 10 12  1  0
 12 13  1  0
 13 14  2  0
 14 15  1  0
 15 16  2  0
 16 17  1  0
 17 18  2  0
 18 19  1  0
 19 20  2  0
 19 21  1  0
  2 22  1  0
 22 23  1  0
 23 24  2  0
 24 25  1  0
 25 26  2  0
 26 27  1  0
 27 28  2  0
  9  4  1  0
 18 13  1  0
 28 23  1  0
  5 29  1  0
  6 30  1  0
  7 31  1  0
  8 32  1  0
 14 33  1  0
 15 34  1  0
 16 35  1  0
 17 36  1  0
 22 37  1  0
 24 38  1  0
 25 39  1  0
 26 40  1  0
 27 41  1  0
 28 42  1  0
M  CHG  3   3  -1  12  -1  21  -1
M  END
>  <UniqueID>  (39) 
34

>  <SMILES>  (39) 
O=C([N-]c1ccccc1C(=O)[N-]c1ccccc1C(=O)[O-])Nc1ccccc1

>  <Energy>  (39) 
63.074775708365195

>  <Genealogy>  (39) 
O=C([N-]c1ccccc1C(=O)[N-]c1ccccc1C(=O)[O-])Nc1ccccc1 (protonated)
O=C([N-]c1ccccc1C(=O)[N-]c1ccccc1C(=O)[O-])Nc1ccccc1 (3D coordinates assigned)
O=C([N-]c1ccccc1C(=O)[N-]c1ccccc1C(=O)[O-])Nc1ccccc1 (optimized conformer: 63.074775708365195 kcal/mol)

>  <smiles>  (39) 
O=C(Nc1ccccc1)Nc1ccccc1C(=O)Nc1ccccc1C(=O)O

>  <score_type>  (39) 
oracle

>  <origin>  (39) 
adg

>  <m_score__min__energy>  (39) 
-14.75

>  <m_primary>  (39) 
energy

$$$$
39:0
     RDKit          3D

 28 29  0  0  0  0  0  0  0  0999 V2000
   55.3600   24.2010   46.0070 O   0  0  0  0  0  0  0  0  0  0  0  0
   56.1800   25.4600   45.9830 S   0  0  0  0  0  0  0  0  0  0  0  0
   57.0170   25.4900   44.7370 O   0  0  0  0  0  0  0  0  0  0  0  0
   55.1510   26.7880   45.9880 O   0  0  0  0  0  0  0  0  0  0  0  0
   57.2300   25.5330   47.4290 C   0  0  0  0  0  0  0  0  0  0  0  0
   58.1970   26.7260   47.3720 C   0  0  0  0  0  0  0  0  0  0  0  0
   58.3630   27.2130   46.0020 N   0  0  0  0  0  0  0  0  0  0  0  0
   57.9570   28.3490   45.4930 C   0  0  0  0  0  0  0  0  0  0  0  0
   56.8460   28.3590   44.5890 N   0  0  0  0  0  0  0  0  0  0  0  0
   56.5200   29.9570   44.0570 S   0  0  0  0  0  0  0  0  0  0  0  0
   56.7320   30.1020   42.5780 O   0  0  0  0  0  0  0  0  0  0  0  0
   55.1560   30.4170   44.4910 O   0  0  0  0  0  0  0  0  0  0  0  0
   57.7910   30.6780   44.9850 C   0  0  0  0  0  0  0  0  0  0  0  0
   58.0910   32.0380   45.0250 C   0  0  0  0  0  0  0  0  0  0  0  0
   59.1440   32.4720   45.8340 C   0  0  0  0  0  0  0  0  0  0  0  0
   59.8780   31.5460   46.5880 C   0  0  0  0  0  0  0  0  0  0  0  0
   59.5650   30.1780   46.5420 C   0  0  0  0  0  0  0  0  0  0  0  0
   58.5060   29.7320   45.7240 C   0  0  0  0  0  0  0  0  0  0  0  0
   56.5976   25.6296   48.3238 H   0  0  0  0  0  0  0  0  0  0  0  0
   57.8273   24.6100   47.4650 H   0  0  0  0  0  0  0  0  0  0  0  0
   57.7985   27.5399   47.9955 H   0  0  0  0  0  0  0  0  0  0  0  0
   59.1781   26.3948   47.7432 H   0  0  0  0  0  0  0  0  0  0  0  0
   58.8610   26.5540   45.3610 H   0  0  0  0  0  0  0  0  0  0  0  0
   56.3120   27.5180   44.2780 H   0  0  0  0  0  0  0  0  0  0  0  0
   57.5090   32.7573   44.4301 H   0  0  0  0  0  0  0  0  0  0  0  0
   59.3974   33.5415   45.8793 H   0  0  0  0  0  0  0  0  0  0  0  0
   60.7070   31.8943   47.2217 H   0  0  0  0  0  0  0  0  0  0  0  0
   60.1425   29.4581   47.1406 H   0  0  0  0  0  0  0  0  0  0  0  0
  1  2  2  0
  2  3  2  0
  2  4  1  0
  2  5  1  0
  5  6  1  0
  6  7  1  0
  7  8  2  3
  8  9  1  0
  9 10  1  0
 10 11  2  0
 10 12  2  0
 10 13  1  0
 13 14  2  0
 14 15  1  0
 15 16  2  0
 16 17  1  0
 17 18  2  0
 18  8  1  0
 18 13  1  0
  5 19  1  0
  5 20  1  0
  6 21  1  0
  6 22  1  0
  7 23  1  0
  9 24  1  0
 14 25  1  0
 15 26  1  0
 16 27  1  0
 17 28  1  0
M  CHG  2   4  -1   7   1
M  END
>  <UniqueID>  (40) 
35

>  <SMILES>  (40) 
O=S(=O)([O-])CC[NH+]=C1NS(=O)(=O)c2ccccc21

>  <Energy>  (40) 
52.80134570935732

>  <Genealogy>  (40) 
O=S(=O)([O-])CC[NH+]=C1NS(=O)(=O)c2ccccc21 (protonated)
O=S(=O)([O-])CC[NH+]=C1NS(=O)(=O)c2ccccc21 (3D coordinates assigned)
O=S(=O)([O-])CC[NH+]=C1NS(=O)(=O)c2ccccc21 (nonaromatic ring conformer: 52.80134570935732 kcal/mol)

>  <smiles>  (40) 
O=S(=O)(O)CCN=C1NS(=O)(=O)c2ccccc21

>  <score_type>  (40) 
oracle

>  <origin>  (40) 
adg

>  <m_score__min__energy>  (40) 
-8.8599999999999994

>  <m_primary>  (40) 
energy

$$$$
40:0
     RDKit          3D

 53 55  0  0  0  0  0  0  0  0999 V2000
   55.1190   26.3850   45.9970 N   0  0  0  0  0  0  0  0  0  0  0  0
   56.8170   26.6940   45.8940 S   0  0  0  0  0  0  0  0  0  0  0  0
   57.4820   25.5920   45.1160 O   0  0  0  0  0  0  0  0  0  0  0  0
   57.4050   26.7290   47.2780 O   0  0  0  0  0  0  0  0  0  0  0  0
   57.0880   28.2370   45.0930 C   0  0  0  0  0  0  0  0  0  0  0  0
   58.3890   28.6540   44.7850 C   0  0  0  0  0  0  0  0  0  0  0  0
   58.6060   29.8910   44.1710 C   0  0  0  0  0  0  0  0  0  0  0  0
   57.5210   30.7240   43.8550 C   0  0  0  0  0  0  0  0  0  0  0  0
   57.7590   32.0850   43.2540 C   0  0  0  0  0  0  0  0  0  0  0  0
   57.8550   33.1760   44.3270 C   0  0  0  0  0  0  0  0  0  0  0  0
   57.7610   32.6000   45.6660 N   0  0  0  0  0  0  0  0  0  0  0  0
   58.0290   33.3290   46.8710 C   0  0  0  0  0  0  0  0  0  0  0  0
   57.3580   33.0870   47.9120 O   0  0  0  0  0  0  0  0  0  0  0  0
   59.0830   34.4180   46.8670 C   0  0  0  0  0  0  0  0  0  0  0  0
   60.2730   34.0580   45.9380 C   0  0  0  0  0  0  0  0  0  0  0  0
   61.3760   33.2410   46.6420 C   0  0  0  0  0  0  0  0  0  0  0  0
   60.8780   32.6610   47.8940 N   0  0  0  0  0  0  0  0  0  0  0  0
   60.7860   31.2340   48.0710 C   0  0  0  0  0  0  0  0  0  0  0  0
   60.9360   30.6620   49.3450 C   0  0  0  0  0  0  0  0  0  0  0  0
   60.8690   29.2770   49.5120 C   0  0  0  0  0  0  0  0  0  0  0  0
   60.6390   28.4360   48.4110 C   0  0  0  0  0  0  0  0  0  0  0  0
   60.6150   26.9390   48.5880 C   0  0  0  0  0  0  0  0  0  0  0  0
   61.3790   26.3500   47.5980 F   0  0  0  0  0  0  0  0  0  0  0  0
   61.1340   26.5880   49.8230 F   0  0  0  0  0  0  0  0  0  0  0  0
   59.3220   26.4530   48.5080 F   0  0  0  0  0  0  0  0  0  0  0  0
   60.5250   29.0070   47.1310 C   0  0  0  0  0  0  0  0  0  0  0  0
   60.5910   30.3920   46.9650 C   0  0  0  0  0  0  0  0  0  0  0  0
   60.3620   33.5730   48.9240 C   0  0  0  0  0  0  0  0  0  0  0  0
   59.6030   34.7570   48.2860 C   0  0  0  0  0  0  0  0  0  0  0  0
   56.2180   30.3070   44.1720 C   0  0  0  0  0  0  0  0  0  0  0  0
   56.0030   29.0720   44.7890 C   0  0  0  0  0  0  0  0  0  0  0  0
   54.7250   27.0720   46.6790 H   0  0  0  0  0  0  0  0  0  0  0  0
   59.2438   28.0054   45.0273 H   0  0  0  0  0  0  0  0  0  0  0  0
   59.6309   30.2129   43.9345 H   0  0  0  0  0  0  0  0  0  0  0  0
   58.7000   32.0626   42.6847 H   0  0  0  0  0  0  0  0  0  0  0  0
   56.9059   32.3231   42.6017 H   0  0  0  0  0  0  0  0  0  0  0  0
   58.8186   33.6968   44.2258 H   0  0  0  0  0  0  0  0  0  0  0  0
   57.0213   33.8800   44.1880 H   0  0  0  0  0  0  0  0  0  0  0  0
   58.5835   35.3158   46.4740 H   0  0  0  0  0  0  0  0  0  0  0  0
   59.8890   33.4687   45.0923 H   0  0  0  0  0  0  0  0  0  0  0  0
   60.7285   35.0050   45.6129 H   0  0  0  0  0  0  0  0  0  0  0  0
   61.7051   32.4304   45.9752 H   0  0  0  0  0  0  0  0  0  0  0  0
   62.2164   33.9116   46.8746 H   0  0  0  0  0  0  0  0  0  0  0  0
   61.1075   31.3095   50.2175 H   0  0  0  0  0  0  0  0  0  0  0  0
   60.9974   28.8414   50.5139 H   0  0  0  0  0  0  0  0  0  0  0  0
   60.3828   28.3581   46.2543 H   0  0  0  0  0  0  0  0  0  0  0  0
   60.4894   30.8265   45.9596 H   0  0  0  0  0  0  0  0  0  0  0  0
   59.6768   33.0200   49.5833 H   0  0  0  0  0  0  0  0  0  0  0  0
   61.2123   33.9705   49.4975 H   0  0  0  0  0  0  0  0  0  0  0  0
   58.7461   35.0152   48.9256 H   0  0  0  0  0  0  0  0  0  0  0  0
   60.3033   35.6007   48.1979 H   0  0  0  0  0  0  0  0  0  0  0  0
   55.3624   30.9559   43.9334 H   0  0  0  0  0  0  0  0  0  0  0  0
   54.9797   28.7537   45.0371 H   0  0  0  0  0  0  0  0  0  0  0  0
  1  2  1  0
  2  3  2  0
  2  4  2  0
  2  5  1  0
  5  6  2  0
  6  7  1  0
  7  8  2  0
  8  9  1  0
  9 10  1  0
 10 11  1  0
 11 12  1  0
 12 13  2  0
 12 14  1  0
 14 15  1  0
 15 16  1  0
 16 17  1  0
 17 18  1  0
 18 19  2  0
 19 20  1  0
 20 21  2  0
 21 22  1  0
 22 23  1  0
 22 24  1  0
 22 25  1  0
 21 26  1  0
 26 27  2  0
 17 28  1  0
 28 29  1  0
  8 30  1  0
 30 31  2  0
 31  5  1  0
 29 14  1  0
 27 18  1  0
  1 32  1  0
  6 33  1  0
  7 34  1  0
  9 35  1  0
  9 36  1  0
 10 37  1  0
 10 38  1  0
 14 39  1  0
 15 40  1  0
 15 41  1  0
 16 42  1  0
 16 43  1  0
 19 44  1  0
 20 45  1  0
 26 46  1  0
 27 47  1  0
 28 48  1  0
 28 49  1  0
 29 50  1  0
 29 51  1  0
 30 52  1  0
 31 53  1  0
M  CHG  2   1  -1  11  -1
M  END
>  <UniqueID>  (41) 
36

>  <SMILES>  (41) 
[NH-]S(=O)(=O)c1ccc(CC[N-]C(=O)C2CCN(c3ccc(C(F)(F)F)cc3)CC2)cc1

>  <Energy>  (41) 
58.18535648416317

>  <Genealogy>  (41) 
[NH-]S(=O)(=O)c1ccc(CC[N-]C(=O)C2CCN(c3ccc(C(F)(F)F)cc3)CC2)cc1 (protonated)
[NH-]S(=O)(=O)c1ccc(CC[N-]C(=O)C2CCN(c3ccc(C(F)(F)F)cc3)CC2)cc1 (3D coordinates assigned)
[NH-]S(=O)(=O)c1ccc(CC[N-]C(=O)C2CCN(c3ccc(C(F)(F)F)cc3)CC2)cc1 (nonaromatic ring conformer: 58.18535648416317 kcal/mol)

>  <smiles>  (41) 
NS(=O)(=O)c1ccc(CCNC(=O)C2CCN(c3ccc(C(F)(F)F)cc3)CC2)cc1

>  <score_type>  (41) 
oracle

>  <origin>  (41) 
adg

>  <m_score__min__energy>  (41) 
-12.18

>  <m_primary>  (41) 
energy

$$$$
41:0
     RDKit          3D

 41 43  0  0  0  0  0  0  0  0999 V2000
   59.6700   34.3480   48.2690 C   0  0  0  0  0  0  0  0  0  0  0  0
   58.8660   33.8900   47.0990 C   0  0  0  0  0  0  0  0  0  0  0  0
   59.1580   34.1220   45.7730 C   0  0  0  0  0  0  0  0  0  0  0  0
   58.1030   33.5100   45.1140 C   0  0  0  0  0  0  0  0  0  0  0  0
   57.9050   33.4560   43.8280 N   0  0  0  0  0  0  0  0  0  0  0  0
   57.7400   32.2660   43.0400 C   0  0  0  0  0  0  0  0  0  0  0  0
   57.9250   32.3340   41.7970 O   0  0  0  0  0  0  0  0  0  0  0  0
   57.2960   30.9840   43.6380 C   0  0  0  0  0  0  0  0  0  0  0  0
   58.1910   29.9070   43.7530 C   0  0  0  0  0  0  0  0  0  0  0  0
   57.7950   28.7230   44.3850 C   0  0  0  0  0  0  0  0  0  0  0  0
   56.5080   28.6050   44.9180 C   0  0  0  0  0  0  0  0  0  0  0  0
   56.1450   27.4120   45.6280 N   0  0  0  0  0  0  0  0  0  0  0  0
   56.9850   26.7460   46.5800 C   0  0  0  0  0  0  0  0  0  0  0  0
   56.8010   25.5200   46.8040 O   0  0  0  0  0  0  0  0  0  0  0  0
   58.0810   27.4590   47.2670 C   0  0  0  0  0  0  0  0  0  0  0  0
   58.9720   26.7960   47.8640 O   0  0  0  0  0  0  0  0  0  0  0  0
   58.1200   28.8930   47.2860 N   0  0  0  0  0  0  0  0  0  0  0  0
   59.3170   29.6480   47.5410 C   0  0  0  0  0  0  0  0  0  0  0  0
   59.9520   29.6160   48.7980 C   0  0  0  0  0  0  0  0  0  0  0  0
   61.1270   30.3410   49.0140 C   0  0  0  0  0  0  0  0  0  0  0  0
   61.6850   31.0980   47.9800 C   0  0  0  0  0  0  0  0  0  0  0  0
   63.1580   32.0120   48.2560 Cl  0  0  0  0  0  0  0  0  0  0  0  0
   61.0730   31.1180   46.7220 C   0  0  0  0  0  0  0  0  0  0  0  0
   59.9000   30.3900   46.5010 C   0  0  0  0  0  0  0  0  0  0  0  0
   55.5880   29.6510   44.7370 C   0  0  0  0  0  0  0  0  0  0  0  0
   55.9790   30.8300   44.1010 C   0  0  0  0  0  0  0  0  0  0  0  0
   57.2450   32.9820   46.0040 N   0  0  0  0  0  0  0  0  0  0  0  0
   57.7360   33.2250   47.1850 O   0  0  0  0  0  0  0  0  0  0  0  0
   59.1608   34.0579   49.1999 H   0  0  0  0  0  0  0  0  0  0  0  0
   60.6656   33.8815   48.2349 H   0  0  0  0  0  0  0  0  0  0  0  0
   59.7765   35.4423   48.2349 H   0  0  0  0  0  0  0  0  0  0  0  0
   60.0160   34.6598   45.3433 H   0  0  0  0  0  0  0  0  0  0  0  0
   59.2084   29.9950   43.3441 H   0  0  0  0  0  0  0  0  0  0  0  0
   58.4993   27.8816   44.4627 H   0  0  0  0  0  0  0  0  0  0  0  0
   57.2280   29.4190   47.1400 H   0  0  0  0  0  0  0  0  0  0  0  0
   59.5207   29.0172   49.6138 H   0  0  0  0  0  0  0  0  0  0  0  0
   61.6139   30.3159   50.0001 H   0  0  0  0  0  0  0  0  0  0  0  0
   61.5155   31.7075   45.9055 H   0  0  0  0  0  0  0  0  0  0  0  0
   59.4308   30.3985   45.5061 H   0  0  0  0  0  0  0  0  0  0  0  0
   54.5549   29.5403   45.0982 H   0  0  0  0  0  0  0  0  0  0  0  0
   55.2516   31.6433   43.9615 H   0  0  0  0  0  0  0  0  0  0  0  0
  1  2  1  0
  2  3  2  0
  3  4  1  0
  4  5  2  3
  5  6  1  0
  6  7  2  0
  6  8  1  0
  8  9  2  0
  9 10  1  0
 10 11  2  0
 11 12  1  0
 12 13  1  0
 13 14  2  0
 13 15  1  0
 15 16  2  0
 15 17  1  0
 17 18  1  0
 18 19  2  0
 19 20  1  0
 20 21  2  0
 21 22  1  0
 21 23  1  0
 23 24  2  0
 11 25  1  0
 25 26  2  0
  4 27  1  0
 27 28  1  0
 28  2  1  0
 26  8  1  0
 24 18  1  0
  1 29  1  0
  1 30  1  0
  1 31  1  0
  3 32  1  0
  9 33  1  0
 10 34  1  0
 17 35  1  0
 19 36  1  0
 20 37  1  0
 23 38  1  0
 24 39  1  0
 25 40  1  0
 26 41  1  0
M  CHG  2  12  -1  27  -1
M  END
>  <UniqueID>  (42) 
37

>  <SMILES>  (42) 
Cc1cc(=NC(=O)c2ccc([N-]C(=O)C(=O)Nc3ccc(Cl)cc3)cc2)[n-]o1

>  <Energy>  (42) 
88.49828484478687

>  <Genealogy>  (42) 
Cc1cc(=NC(=O)c2ccc([N-]C(=O)C(=O)Nc3ccc(Cl)cc3)cc2)[n-]o1 (protonated)
Cc1cc(=NC(=O)c2ccc([N-]C(=O)C(=O)Nc3ccc(Cl)cc3)cc2)[n-]o1 (3D coordinates assigned)
Cc1cc(=NC(=O)c2ccc([N-]C(=O)C(=O)Nc3ccc(Cl)cc3)cc2)[n-]o1 (optimized conformer: 88.49828484478687 kcal/mol)

>  <smiles>  (42) 
Cc1cc(=NC(=O)c2ccc(NC(=O)C(=O)Nc3ccc(Cl)cc3)cc2)[nH]o1

>  <score_type>  (42) 
oracle

>  <origin>  (42) 
adg

>  <m_score__min__energy>  (42) 
-12.220000000000001

>  <m_primary>  (42) 
energy

$$$$
42:0
     RDKit          3D

 43 45  0  0  0  0  0  0  0  0999 V2000
   54.7290   25.3090   45.7270 O   0  0  0  0  0  0  0  0  0  0  0  0
   54.0850   24.2370   45.5720 C   0  0  0  0  0  0  0  0  0  0  0  0
   53.5890   23.5260   46.7100 N   0  0  0  0  0  0  0  0  0  0  0  0
   54.4650   22.9340   47.7120 C   0  0  0  0  0  0  0  0  0  0  0  0
   55.1680   21.7400   47.1230 C   0  0  0  0  0  0  0  0  0  0  0  0
   54.4230   20.7930   46.3960 C   0  0  0  0  0  0  0  0  0  0  0  0
   55.0500   19.6800   45.8310 C   0  0  0  0  0  0  0  0  0  0  0  0
   56.4260   19.5020   45.9770 C   0  0  0  0  0  0  0  0  0  0  0  0
   57.1810   20.4380   46.6850 C   0  0  0  0  0  0  0  0  0  0  0  0
   56.5680   21.5610   47.2560 C   0  0  0  0  0  0  0  0  0  0  0  0
   57.3720   22.4740   47.9420 O   0  0  0  0  0  0  0  0  0  0  0  0
   53.8170   23.7190   44.2190 C   0  0  0  0  0  0  0  0  0  0  0  0
   52.6280   23.6560   43.8100 O   0  0  0  0  0  0  0  0  0  0  0  0
   54.8750   23.3450   43.3260 N   0  0  0  0  0  0  0  0  0  0  0  0
   56.2180   23.0050   43.7020 C   0  0  0  0  0  0  0  0  0  0  0  0
   56.7990   21.8500   43.1690 C   0  0  0  0  0  0  0  0  0  0  0  0
   58.0950   21.4790   43.5340 C   0  0  0  0  0  0  0  0  0  0  0  0
   58.8160   22.2520   44.4490 C   0  0  0  0  0  0  0  0  0  0  0  0
   58.2360   23.4010   45.0130 C   0  0  0  0  0  0  0  0  0  0  0  0
   58.9300   24.2180   45.9650 N   0  0  0  0  0  0  0  0  0  0  0  0
   58.2440   25.5680   46.8100 S   0  0  0  0  0  0  0  0  0  0  0  0
   59.1500   25.9960   47.9300 O   0  0  0  0  0  0  0  0  0  0  0  0
   56.9000   25.1890   47.3630 O   0  0  0  0  0  0  0  0  0  0  0  0
   58.0560   26.9000   45.6870 C   0  0  0  0  0  0  0  0  0  0  0  0
   57.8900   26.7790   44.3170 C   0  0  0  0  0  0  0  0  0  0  0  0
   57.7500   28.0140   43.6730 C   0  0  0  0  0  0  0  0  0  0  0  0
   57.8080   29.1020   44.5360 C   0  0  0  0  0  0  0  0  0  0  0  0
   58.0290   28.5280   46.1020 S   0  0  0  0  0  0  0  0  0  0  0  0
   56.9350   23.7650   44.6430 C   0  0  0  0  0  0  0  0  0  0  0  0
   55.2103   23.6770   48.0322 H   0  0  0  0  0  0  0  0  0  0  0  0
   53.8674   22.6162   48.5791 H   0  0  0  0  0  0  0  0  0  0  0  0
   53.3387   20.9303   46.2717 H   0  0  0  0  0  0  0  0  0  0  0  0
   54.4576   18.9423   45.2698 H   0  0  0  0  0  0  0  0  0  0  0  0
   56.9163   18.6229   45.5335 H   0  0  0  0  0  0  0  0  0  0  0  0
   58.2658   20.2930   46.7956 H   0  0  0  0  0  0  0  0  0  0  0  0
   58.1510   22.9570   47.5160 H   0  0  0  0  0  0  0  0  0  0  0  0
   56.2322   21.2304   42.4585 H   0  0  0  0  0  0  0  0  0  0  0  0
   58.5497   20.5761   43.1004 H   0  0  0  0  0  0  0  0  0  0  0  0
   59.8393   21.9602   44.7280 H   0  0  0  0  0  0  0  0  0  0  0  0
   57.8703   25.8135   43.7903 H   0  0  0  0  0  0  0  0  0  0  0  0
   57.6076   28.1139   42.5868 H   0  0  0  0  0  0  0  0  0  0  0  0
   57.7237   30.1593   44.2445 H   0  0  0  0  0  0  0  0  0  0  0  0
   56.4696   24.6543   45.0931 H   0  0  0  0  0  0  0  0  0  0  0  0
  1  2  2  0
  2  3  1  0
  3  4  1  0
  4  5  1  0
  5  6  2  0
  6  7  1  0
  7  8  2  0
  8  9  1  0
  9 10  2  0
 10 11  1  0
  2 12  1  0
 12 13  2  0
 12 14  1  0
 14 15  1  0
 15 16  2  0
 16 17  1  0
 17 18  2  0
 18 19  1  0
 19 20  1  0
 20 21  1  0
 21 22  2  0
 21 23  2  0
 21 24  1  0
 24 25  2  0
 25 26  1  0
 26 27  2  0
 27 28  1  0
 19 29  2  0
 10  5  1  0
 29 15  1  0
 28 24  1  0
  4 30  1  0
  4 31  1  0
  6 32  1  0
  7 33  1  0
  8 34  1  0
  9 35  1  0
 11 36  1  0
 16 37  1  0
 17 38  1  0
 18 39  1  0
 25 40  1  0
 26 41  1  0
 27 42  1  0
 29 43  1  0
M  CHG  3   3  -1  14  -1  20  -1
M  END
>  <UniqueID>  (43) 
38

>  <SMILES>  (43) 
O=C([N-]Cc1ccccc1O)C(=O)[N-]c1cccc([N-]S(=O)(=O)c2cccs2)c1

>  <Energy>  (43) 
78.76707214369458

>  <Genealogy>  (43) 
O=C([N-]Cc1ccccc1O)C(=O)[N-]c1cccc([N-]S(=O)(=O)c2cccs2)c1 (protonated)
O=C([N-]Cc1ccccc1O)C(=O)[N-]c1cccc([N-]S(=O)(=O)c2cccs2)c1 (3D coordinates assigned)
O=C([N-]Cc1ccccc1O)C(=O)[N-]c1cccc([N-]S(=O)(=O)c2cccs2)c1 (optimized conformer: 78.76707214369458 kcal/mol)

>  <smiles>  (43) 
O=C(NCc1ccccc1O)C(=O)Nc1cccc(NS(=O)(=O)c2cccs2)c1

>  <score_type>  (43) 
oracle

>  <origin>  (43) 
adg

>  <m_score__min__energy>  (43) 
-14

>  <m_primary>  (43) 
energy

$$$$
43:0
     RDKit          3D

 34 36  0  0  0  0  0  0  0  0999 V2000
   59.6420   26.7250   45.6250 C   0  0  0  0  0  0  0  0  0  0  0  0
   59.2720   28.0230   46.1090 N   0  0  0  0  0  0  0  0  0  0  0  0
   59.4550   29.8400   47.6650 C   0  0  0  0  0  0  0  0  0  0  0  0
   60.7090   27.9190   47.8330 O   0  0  0  0  0  0  0  0  0  0  0  0
   57.6940   28.3170   44.3470 C   0  0  0  0  0  0  0  0  0  0  0  0
   60.0500   30.2520   48.7120 O   0  0  0  0  0  0  0  0  0  0  0  0
   58.5220   30.5720   47.0310 N   0  0  0  0  0  0  0  0  0  0  0  0
   58.1530   31.8660   47.5140 C   0  0  0  0  0  0  0  0  0  0  0  0
   58.5470   33.0020   46.6700 C   0  0  0  0  0  0  0  0  0  0  0  0
   59.7710   33.6420   46.7700 C   0  0  0  0  0  0  0  0  0  0  0  0
   60.1350   34.7040   45.9770 C   0  0  0  0  0  0  0  0  0  0  0  0
   59.2690   35.1860   45.0260 C   0  0  0  0  0  0  0  0  0  0  0  0
   58.0300   34.5740   44.8910 C   0  0  0  0  0  0  0  0  0  0  0  0
   57.6830   33.5010   45.7040 C   0  0  0  0  0  0  0  0  0  0  0  0
   57.9640   30.0270   45.9340 C   0  0  0  0  0  0  0  0  0  0  0  0
   57.0340   30.6880   45.2510 N   0  0  0  0  0  0  0  0  0  0  0  0
   56.4090   30.2480   44.1480 C   0  0  0  0  0  0  0  0  0  0  0  0
   56.7550   29.0330   43.6940 N   0  0  0  0  0  0  0  0  0  0  0  0
   59.8200   28.5960   47.2140 C   0  0  0  0  0  0  0  0  0  0  0  0
   57.9880   27.1600   43.8710 N   0  0  0  0  0  0  0  0  0  0  0  0
   58.3350   28.7690   45.4790 C   0  0  0  0  0  0  0  0  0  0  0  0
   59.8326   26.0564   46.4775 H   0  0  0  0  0  0  0  0  0  0  0  0
   58.8249   26.3152   45.0131 H   0  0  0  0  0  0  0  0  0  0  0  0
   60.5524   26.8076   45.0131 H   0  0  0  0  0  0  0  0  0  0  0  0
   57.0582   31.8873   47.6183 H   0  0  0  0  0  0  0  0  0  0  0  0
   58.6965   31.9963   48.4614 H   0  0  0  0  0  0  0  0  0  0  0  0
   60.4884   33.2822   47.5223 H   0  0  0  0  0  0  0  0  0  0  0  0
   61.1234   35.1696   46.1044 H   0  0  0  0  0  0  0  0  0  0  0  0
   59.5502   36.0361   44.3870 H   0  0  0  0  0  0  0  0  0  0  0  0
   57.3187   34.9404   44.1362 H   0  0  0  0  0  0  0  0  0  0  0  0
   56.6952   33.0336   45.5785 H   0  0  0  0  0  0  0  0  0  0  0  0
   55.6469   30.8560   43.6385 H   0  0  0  0  0  0  0  0  0  0  0  0
   56.2690   28.6860   42.8320 H   0  0  0  0  0  0  0  0  0  0  0  0
   57.2790   26.6560   43.3150 H   0  0  0  0  0  0  0  0  0  0  0  0
  1  2  1  0
  2  3  1  0
  3  4  2  0
  3  5  1  0
  5  6  2  0
  5  7  1  0
  7  8  1  0
  8  9  1  0
  9 10  2  0
 10 11  1  0
 11 12  2  0
 12 13  1  0
 13 14  2  0
  7 15  1  0
 15 16  1  0
 16 17  2  0
 17 18  1  0
 18 19  1  0
 19 20  2  3
 19 21  1  0
 21  2  1  0
 14  9  1  0
 21 15  2  0
  1 22  1  0
  1 23  1  0
  1 24  1  0
  8 25  1  0
  8 26  1  0
 10 27  1  0
 11 28  1  0
 12 29  1  0
 13 30  1  0
 14 31  1  0
 17 32  1  0
 18 33  1  0
 20 34  1  0
M  END
>  <smiles>  (44) 
Cn1c(=O)c(=O)n(Cc2ccccc2)c2nc[nH]c(=N)c21

>  <score_type>  (44) 
oracle

>  <origin>  (44) 
adg

>  <m_score__min__energy>  (44) 
-6.5300000000000002

>  <m_primary>  (44) 
energy

$$$$
44:0
     RDKit          3D

 42 44  0  0  0  0  0  0  0  0999 V2000
   57.6500   31.0830   54.0490 C   0  0  0  0  0  0  0  0  0  0  0  0
   57.5750   31.3710   52.2960 S   0  0  0  0  0  0  0  0  0  0  0  0
   56.7390   32.5920   52.0340 O   0  0  0  0  0  0  0  0  0  0  0  0
   56.9590   30.1740   51.6280 O   0  0  0  0  0  0  0  0  0  0  0  0
   59.1820   31.6180   51.6980 N   0  0  0  0  0  0  0  0  0  0  0  0
   59.5330   32.4630   50.5940 C   0  0  0  0  0  0  0  0  0  0  0  0
   60.5610   33.4180   50.6820 C   0  0  0  0  0  0  0  0  0  0  0  0
   60.8780   34.2100   49.5790 C   0  0  0  0  0  0  0  0  0  0  0  0
   60.1730   34.0670   48.3820 C   0  0  0  0  0  0  0  0  0  0  0  0
   59.1320   33.1270   48.2760 C   0  0  0  0  0  0  0  0  0  0  0  0
   58.3970   32.9830   46.9920 C   0  0  0  0  0  0  0  0  0  0  0  0
   57.7710   34.0760   46.3720 C   0  0  0  0  0  0  0  0  0  0  0  0
   57.1090   33.8710   45.1630 C   0  0  0  0  0  0  0  0  0  0  0  0
   57.0810   32.6340   44.6050 N   0  0  0  0  0  0  0  0  0  0  0  0
   57.6870   31.5770   45.2120 C   0  0  0  0  0  0  0  0  0  0  0  0
   57.6870   30.3940   44.6680 N   0  0  0  0  0  0  0  0  0  0  0  0
   58.0970   29.1610   45.2820 C   0  0  0  0  0  0  0  0  0  0  0  0
   59.4190   28.9470   45.7160 C   0  0  0  0  0  0  0  0  0  0  0  0
   59.7830   27.7210   46.2800 C   0  0  0  0  0  0  0  0  0  0  0  0
   58.8430   26.6940   46.3960 C   0  0  0  0  0  0  0  0  0  0  0  0
   57.5350   26.8820   45.9310 C   0  0  0  0  0  0  0  0  0  0  0  0
   56.3480   25.5890   46.0700 S   0  0  0  0  0  0  0  0  0  0  0  0
   54.7570   26.2510   45.9400 N   0  0  0  0  0  0  0  0  0  0  0  0
   56.4940   24.9010   47.3990 O   0  0  0  0  0  0  0  0  0  0  0  0
   56.5650   24.5790   44.9790 O   0  0  0  0  0  0  0  0  0  0  0  0
   57.1690   28.1140   45.3710 C   0  0  0  0  0  0  0  0  0  0  0  0
   58.3450   31.7650   46.3860 N   0  0  0  0  0  0  0  0  0  0  0  0
   58.8280   32.3230   49.3910 C   0  0  0  0  0  0  0  0  0  0  0  0
   57.4078   32.0131   54.5841 H   0  0  0  0  0  0  0  0  0  0  0  0
   56.9251   30.3025   54.3237 H   0  0  0  0  0  0  0  0  0  0  0  0
   58.6635   30.7552   54.3237 H   0  0  0  0  0  0  0  0  0  0  0  0
   61.1167   33.5407   51.6234 H   0  0  0  0  0  0  0  0  0  0  0  0
   61.6875   34.9512   49.6521 H   0  0  0  0  0  0  0  0  0  0  0  0
   60.4335   34.6936   47.5163 H   0  0  0  0  0  0  0  0  0  0  0  0
   57.8025   35.0749   46.8316 H   0  0  0  0  0  0  0  0  0  0  0  0
   56.6089   34.7121   44.6606 H   0  0  0  0  0  0  0  0  0  0  0  0
   60.1672   29.7465   45.6110 H   0  0  0  0  0  0  0  0  0  0  0  0
   60.8128   27.5643   46.6336 H   0  0  0  0  0  0  0  0  0  0  0  0
   59.1305   25.7358   46.8534 H   0  0  0  0  0  0  0  0  0  0  0  0
   54.7260   27.0950   46.5540 H   0  0  0  0  0  0  0  0  0  0  0  0
   56.1445   28.2604   44.9981 H   0  0  0  0  0  0  0  0  0  0  0  0
   58.0256   31.5742   49.3168 H   0  0  0  0  0  0  0  0  0  0  0  0
  1  2  1  0
  2  3  2  0
  2  4  2  0
  2  5  1  0
  5  6  1  0
  6  7  2  0
  7  8  1  0
  8  9  2  0
  9 10  1  0
 10 11  1  0
 11 12  1  0
 12 13  2  0
 13 14  1  0
 14 15  1  0
 15 16  2  3
 16 17  1  0
 17 18  2  0
 18 19  1  0
 19 20  2  0
 20 21  1  0
 21 22  1  0
 22 23  1  0
 22 24  2  0
 22 25  2  0
 21 26  2  0
 15 27  1  0
 10 28  2  0
 28  6  1  0
 27 11  2  0
 26 17  1  0
  1 29  1  0
  1 30  1  0
  1 31  1  0
  7 32  1  0
  8 33  1  0
  9 34  1  0
 12 35  1  0
 13 36  1  0
 18 37  1  0
 19 38  1  0
 20 39  1  0
 23 40  1  0
 26 41  1  0
 28 42  1  0
M  CHG  3   5  -1  14  -1  23  -1
M  END
>  <UniqueID>  (45) 
39

>  <SMILES>  (45) 
CS(=O)(=O)[N-]c1cccc(-c2cc[n-]c(=Nc3cccc(S([NH-])(=O)=O)c3)n2)c1

>  <Energy>  (45) 
54.56630200943595

>  <Genealogy>  (45) 
CS(=O)(=O)[N-]c1cccc(-c2cc[n-]c(=Nc3cccc(S([NH-])(=O)=O)c3)n2)c1 (protonated)
CS(=O)(=O)[N-]c1cccc(-c2cc[n-]c(=Nc3cccc(S([NH-])(=O)=O)c3)n2)c1 (3D coordinates assigned)
CS(=O)(=O)[N-]c1cccc(-c2cc[n-]c(=Nc3cccc(S([NH-])(=O)=O)c3)n2)c1 (optimized conformer: 54.56630200943595 kcal/mol)

>  <smiles>  (45) 
CS(=O)(=O)Nc1cccc(-c2cc[nH]c(=Nc3cccc(S(N)(=O)=O)c3)n2)c1

>  <score_type>  (45) 
oracle

>  <origin>  (45) 
adg

>  <m_score__min__energy>  (45) 
-14.619999999999999

>  <m_primary>  (45) 
energy

$$$$
45:0
     RDKit          3D

 42 43  0  0  0  0  0  0  0  0999 V2000
   65.5960   32.7130   49.7350 C   0  0  0  0  0  0  0  0  0  0  0  0
   64.1960   33.1080   49.3430 C   0  0  0  0  0  0  0  0  0  0  0  0
   63.7050   32.7380   48.0810 C   0  0  0  0  0  0  0  0  0  0  0  0
   62.4120   33.0870   47.6910 C   0  0  0  0  0  0  0  0  0  0  0  0
   61.5740   33.8070   48.5570 C   0  0  0  0  0  0  0  0  0  0  0  0
   60.2050   34.1750   48.1220 C   0  0  0  0  0  0  0  0  0  0  0  0
   59.5170   34.9490   48.8410 O   0  0  0  0  0  0  0  0  0  0  0  0
   59.6580   33.6810   46.8880 N   0  0  0  0  0  0  0  0  0  0  0  0
   58.2640   33.9030   46.5030 C   0  0  0  0  0  0  0  0  0  0  0  0
   57.9000   33.0850   45.2910 C   0  0  0  0  0  0  0  0  0  0  0  0
   57.0350   33.5240   44.4870 O   0  0  0  0  0  0  0  0  0  0  0  0
   58.6360   31.9080   44.9310 N   0  0  0  0  0  0  0  0  0  0  0  0
   58.2420   30.5530   45.1770 C   0  0  0  0  0  0  0  0  0  0  0  0
   58.7740   29.8210   46.2500 C   0  0  0  0  0  0  0  0  0  0  0  0
   58.3430   28.5130   46.4920 C   0  0  0  0  0  0  0  0  0  0  0  0
   57.3590   27.9330   45.6810 C   0  0  0  0  0  0  0  0  0  0  0  0
   56.8290   26.2810   45.9790 S   0  0  0  0  0  0  0  0  0  0  0  0
   55.1030   26.2200   45.9840 N   0  0  0  0  0  0  0  0  0  0  0  0
   57.3500   25.8090   47.3070 O   0  0  0  0  0  0  0  0  0  0  0  0
   57.3620   25.3740   44.9050 O   0  0  0  0  0  0  0  0  0  0  0  0
   56.8100   28.6720   44.6250 C   0  0  0  0  0  0  0  0  0  0  0  0
   57.2410   29.9810   44.3830 C   0  0  0  0  0  0  0  0  0  0  0  0
   62.0640   34.1870   49.8180 C   0  0  0  0  0  0  0  0  0  0  0  0
   63.3630   33.8360   50.2250 C   0  0  0  0  0  0  0  0  0  0  0  0
   63.8530   34.2680   51.5820 C   0  0  0  0  0  0  0  0  0  0  0  0
   65.6770   32.6901   50.8318 H   0  0  0  0  0  0  0  0  0  0  0  0
   65.8227   31.7158   49.3297 H   0  0  0  0  0  0  0  0  0  0  0  0
   66.3105   33.4446   49.3297 H   0  0  0  0  0  0  0  0  0  0  0  0
   64.3461   32.1673   47.3930 H   0  0  0  0  0  0  0  0  0  0  0  0
   62.0456   32.7953   46.6957 H   0  0  0  0  0  0  0  0  0  0  0  0
   60.2740   33.1760   46.2120 H   0  0  0  0  0  0  0  0  0  0  0  0
   57.6100   33.6163   47.3397 H   0  0  0  0  0  0  0  0  0  0  0  0
   58.1340   34.9676   46.2584 H   0  0  0  0  0  0  0  0  0  0  0  0
   59.5325   30.2778   46.9027 H   0  0  0  0  0  0  0  0  0  0  0  0
   58.7782   27.9374   47.3222 H   0  0  0  0  0  0  0  0  0  0  0  0
   54.7700   27.0890   46.4580 H   0  0  0  0  0  0  0  0  0  0  0  0
   56.0377   28.2218   43.9841 H   0  0  0  0  0  0  0  0  0  0  0  0
   56.7913   30.5632   43.5652 H   0  0  0  0  0  0  0  0  0  0  0  0
   61.4218   34.7676   50.4966 H   0  0  0  0  0  0  0  0  0  0  0  0
   63.2714   33.7552   52.3622 H   0  0  0  0  0  0  0  0  0  0  0  0
   64.9167   34.0085   51.6875 H   0  0  0  0  0  0  0  0  0  0  0  0
   63.7288   35.3559   51.6875 H   0  0  0  0  0  0  0  0  0  0  0  0
  1  2  1  0
  2  3  2  0
  3  4  1  0
  4  5  2  0
  5  6  1  0
  6  7  2  0
  6  8  1  0
  8  9  1  0
  9 10  1  0
 10 11  2  0
 10 12  1  0
 12 13  1  0
 13 14  2  0
 14 15  1  0
 15 16  2  0
 16 17  1  0
 17 18  1  0
 17 19  2  0
 17 20  2  0
 16 21  1  0
 21 22  2  0
  5 23  1  0
 23 24  2  0
 24 25  1  0
 24  2  1  0
 22 13  1  0
  1 26  1  0
  1 27  1  0
  1 28  1  0
  3 29  1  0
  4 30  1  0
  8 31  1  0
  9 32  1  0
  9 33  1  0
 14 34  1  0
 15 35  1  0
 18 36  1  0
 21 37  1  0
 22 38  1  0
 23 39  1  0
 25 40  1  0
 25 41  1  0
 25 42  1  0
M  CHG  2  12  -1  18  -1
M  END
>  <UniqueID>  (46) 
40

>  <SMILES>  (46) 
Cc1ccc(C(=O)NCC(=O)[N-]c2ccc(S([NH-])(=O)=O)cc2)cc1C

>  <Energy>  (46) 
48.47804182015182

>  <Genealogy>  (46) 
Cc1ccc(C(=O)NCC(=O)[N-]c2ccc(S([NH-])(=O)=O)cc2)cc1C (protonated)
Cc1ccc(C(=O)NCC(=O)[N-]c2ccc(S([NH-])(=O)=O)cc2)cc1C (3D coordinates assigned)
Cc1ccc(C(=O)NCC(=O)[N-]c2ccc(S([NH-])(=O)=O)cc2)cc1C (optimized conformer: 48.47804182015182 kcal/mol)

>  <smiles>  (46) 
Cc1ccc(C(=O)NCC(=O)Nc2ccc(S(N)(=O)=O)cc2)cc1C

>  <score_type>  (46) 
oracle

>  <origin>  (46) 
adg

>  <m_score__min__energy>  (46) 
-12.17

>  <m_primary>  (46) 
energy

$$$$
46:0
     RDKit          3D

 48 51  0  0  0  0  0  0  0  0999 V2000
   58.4104   26.8621   47.1649 H   0  0  0  0  0  0  0  0  0  0  0  0
   58.3950   27.5390   46.2980 C   0  0  0  0  0  0  0  0  0  0  0  0
   59.4360   28.5640   46.1620 C   0  0  0  0  0  0  0  0  0  0  0  0
   60.1410   28.5780   45.1180 O   0  0  0  0  0  0  0  0  0  0  0  0
   59.6700   29.5300   47.2100 N   0  0  0  0  0  0  0  0  0  0  0  0
   59.6930   30.9430   46.8950 C   0  0  0  0  0  0  0  0  0  0  0  0
   60.8760   31.6980   47.0270 C   0  0  0  0  0  0  0  0  0  0  0  0
   61.7983   31.2101   47.3752 H   0  0  0  0  0  0  0  0  0  0  0  0
   60.8870   33.0620   46.7190 C   0  0  0  0  0  0  0  0  0  0  0  0
   61.8147   33.6413   46.8362 H   0  0  0  0  0  0  0  0  0  0  0  0
   59.7210   33.6970   46.2610 C   0  0  0  0  0  0  0  0  0  0  0  0
   59.7460   35.1730   45.9700 C   0  0  0  0  0  0  0  0  0  0  0  0
   59.7555   35.7332   46.9166 H   0  0  0  0  0  0  0  0  0  0  0  0
   60.6484   35.4172   45.3903 H   0  0  0  0  0  0  0  0  0  0  0  0
   58.8524   35.4476   45.3903 H   0  0  0  0  0  0  0  0  0  0  0  0
   58.5300   32.9470   46.1300 C   0  0  0  0  0  0  0  0  0  0  0  0
   57.0280   33.6820   45.5800 Cl  0  0  0  0  0  0  0  0  0  0  0  0
   58.5250   31.5820   46.4400 C   0  0  0  0  0  0  0  0  0  0  0  0
   57.5971   31.0022   46.3266 H   0  0  0  0  0  0  0  0  0  0  0  0
   59.8300   29.0700   48.5990 C   0  0  0  0  0  0  0  0  0  0  0  0
   59.3544   28.0844   48.7107 H   0  0  0  0  0  0  0  0  0  0  0  0
   60.9035   29.0021   48.8292 H   0  0  0  0  0  0  0  0  0  0  0  0
   59.1900   30.0380   49.5520 C   0  0  0  0  0  0  0  0  0  0  0  0
   58.1550   29.6250   50.3680 N   0  0  0  0  0  0  0  0  0  0  0  0
   57.5680   30.4790   51.2590 C   0  0  0  0  0  0  0  0  0  0  0  0
   56.6240   30.0920   51.9900 O   0  0  0  0  0  0  0  0  0  0  0  0
   58.0540   31.7800   51.3260 C   0  0  0  0  0  0  0  0  0  0  0  0
   57.7640   32.8820   52.1090 C   0  0  0  0  0  0  0  0  0  0  0  0
   56.9890   32.9420   52.8873 H   0  0  0  0  0  0  0  0  0  0  0  0
   58.6130   33.8780   51.7400 N   0  0  0  0  0  0  0  0  0  0  0  0
   58.6670   34.8270   52.1750 H   0  0  0  0  0  0  0  0  0  0  0  0
   59.4030   33.4440   50.7630 N   0  0  0  0  0  0  0  0  0  0  0  0
   60.5060   34.1940   50.1850 C   0  0  0  0  0  0  0  0  0  0  0  0
   61.1252   34.6150   50.9908 H   0  0  0  0  0  0  0  0  0  0  0  0
   61.1187   33.5245   49.5634 H   0  0  0  0  0  0  0  0  0  0  0  0
   60.1087   35.0100   49.5634 H   0  0  0  0  0  0  0  0  0  0  0  0
   59.0750   32.1650   50.5170 C   0  0  0  0  0  0  0  0  0  0  0  0
   59.6630   31.3210   49.6330 N   0  0  0  0  0  0  0  0  0  0  0  0
   57.4260   27.4160   45.3810 C   0  0  0  0  0  0  0  0  0  0  0  0
   57.0376   26.4167   45.1348 H   0  0  0  0  0  0  0  0  0  0  0  0
   56.8730   28.5960   44.6980 C   0  0  0  0  0  0  0  0  0  0  0  0
   55.6510   29.0560   44.8790 O   0  0  0  0  0  0  0  0  0  0  0  0
   55.4930   30.1230   44.1270 C   0  0  0  0  0  0  0  0  0  0  0  0
   54.5753   30.7265   44.0675 H   0  0  0  0  0  0  0  0  0  0  0  0
   56.6590   30.3710   43.4210 C   0  0  0  0  0  0  0  0  0  0  0  0
   56.8386   31.1915   42.7107 H   0  0  0  0  0  0  0  0  0  0  0  0
   57.5500   29.3830   43.7870 C   0  0  0  0  0  0  0  0  0  0  0  0
   58.5816   29.2502   43.4289 H   0  0  0  0  0  0  0  0  0  0  0  0
  1  2  1  0
  2  3  1  0
  3  4  2  0
  3  5  1  0
  5  6  1  0
  6  7  2  0
  7  8  1  0
  7  9  1  0
  9 10  1  0
  9 11  2  0
 11 12  1  0
 12 13  1  0
 12 14  1  0
 12 15  1  0
 11 16  1  0
 16 17  1  0
 16 18  2  0
 18 19  1  0
  5 20  1  0
 20 21  1  0
 20 22  1  0
 20 23  1  0
 23 24  2  0
 24 25  1  0
 25 26  2  0
 25 27  1  0
 27 28  1  0
 28 29  1  0
 28 30  2  0
 30 31  1  0
 30 32  1  0
 32 33  1  0
 33 34  1  0
 33 35  1  0
 33 36  1  0
 32 37  1  0
 37 38  1  0
  2 39  2  0
 39 40  1  0
 39 41  1  0
 41 42  1  0
 42 43  1  0
 43 44  1  0
 43 45  2  0
 45 46  1  0
 45 47  1  0
 47 48  1  0
 18  6  1  0
 38 23  1  0
 47 41  2  0
 37 27  2  0
M  CHG  2  30   1  38  -1
M  END
>  <UniqueID>  (47) 
41

>  <SMILES>  (47) 
Cc1ccc(N(Cc2nc(=O)c3c[nH+]n(C)c3[n-]2)C(=O)/C=C/c2ccco2)cc1Cl

>  <Energy>  (47) 
130.8743598230274

>  <Genealogy>  (47) 
Cc1ccc(N(Cc2nc(=O)c3c[nH+]n(C)c3[n-]2)C(=O)C=Cc2ccco2)cc1Cl (protonated)
Cc1ccc(N(Cc2nc(=O)c3c[nH+]n(C)c3[n-]2)C(=O)/C=C/c2ccco2)cc1Cl (cis-trans isomerization)
Cc1ccc(N(Cc2nc(=O)c3c[nH+]n(C)c3[n-]2)C(=O)/C=C/c2ccco2)cc1Cl (3D coordinates assigned)
Cc1ccc(N(Cc2nc(=O)c3c[nH+]n(C)c3[n-]2)C(=O)/C=C/c2ccco2)cc1Cl (optimized conformer: 130.8743598230274 kcal/mol)

>  <smiles>  (47) 
Cc1ccc(N(Cc2nc(=O)c3cnn(C)c3[nH]2)C(=O)C=Cc2ccco2)cc1Cl

>  <score_type>  (47) 
oracle

>  <origin>  (47) 
adg

>  <m_score__min__energy>  (47) 
-8.7799999999999994

>  <m_primary>  (47) 
energy

$$$$
47:0
     RDKit          3D

 43 45  0  0  1  0  0  0  0  0999 V2000
   63.9260   33.4200   48.0150 C   0  0  0  0  0  0  0  0  0  0  0  0
   62.4710   33.6770   48.1300 C   0  0  0  0  0  0  0  0  0  0  0  0
   61.7220   33.8370   46.9850 C   0  0  0  0  0  0  0  0  0  0  0  0
   60.3660   34.0770   47.0880 C   0  0  0  0  0  0  0  0  0  0  0  0
   59.6160   34.2340   46.0740 N   0  0  0  0  0  0  0  0  0  0  0  0
   58.8550   33.1520   45.5480 C   0  0  0  0  0  0  0  0  0  0  0  0
   58.8090   31.9630   46.2600 C   0  0  0  0  0  0  0  0  0  0  0  0
   58.0530   30.9280   45.7120 C   0  0  0  0  0  0  0  0  0  0  0  0
   57.3850   31.0730   44.5260 C   0  0  0  0  0  0  0  0  0  0  0  0
   56.4400   29.7440   43.8620 S   0  0  0  0  0  0  0  0  0  0  0  0
   57.5140   28.3780   43.7130 N   0  0  0  0  0  0  0  0  0  0  0  0
   55.9370   30.0630   42.4990 O   0  0  0  0  0  0  0  0  0  0  0  0
   55.3550   29.3990   44.8420 O   0  0  0  0  0  0  0  0  0  0  0  0
   57.4280   32.2580   43.8100 C   0  0  0  0  0  0  0  0  0  0  0  0
   58.1720   33.2890   44.3430 C   0  0  0  0  0  0  0  0  0  0  0  0
   59.8160   34.1480   48.3210 N   0  0  0  0  0  0  0  0  0  0  0  0
   60.5900   33.9850   49.4010 C   0  0  0  0  0  0  0  0  0  0  0  0
   60.0140   34.0630   50.5580 N   0  0  0  0  0  0  0  0  0  0  0  0
   59.0910   33.0960   51.0470 C   0  0  0  0  0  0  0  0  0  0  0  0
   59.1420   31.8370   50.4400 C   0  0  0  0  0  0  0  0  0  0  0  0
   58.3010   30.8130   50.8210 C   0  0  0  0  0  0  0  0  0  0  0  0
   57.3960   31.0730   51.8330 C   0  0  0  0  0  0  0  0  0  0  0  0
   57.3400   32.3070   52.4350 C   0  0  0  0  0  0  0  0  0  0  0  0
   58.1900   33.3520   52.0540 C   0  0  0  0  0  0  0  0  0  0  0  0
   58.1490   34.5870   52.6420 O   0  0  0  0  0  0  0  0  0  0  0  0
   61.9070   33.7510   49.3630 N   0  0  0  0  0  0  0  0  0  0  0  0
   64.3652   33.3424   49.0205 H   0  0  0  0  0  0  0  0  0  0  0  0
   64.0901   32.4790   47.4696 H   0  0  0  0  0  0  0  0  0  0  0  0
   64.4026   34.2479   47.4696 H   0  0  0  0  0  0  0  0  0  0  0  0
   62.2003   33.7741   45.9964 H   0  0  0  0  0  0  0  0  0  0  0  0
   59.3444   31.8421   47.2133 H   0  0  0  0  0  0  0  0  0  0  0  0
   57.9916   29.9689   46.2470 H   0  0  0  0  0  0  0  0  0  0  0  0
   56.9780   27.5350   43.3510 H   0  0  0  0  0  0  0  0  0  0  0  0
   58.2520   28.6240   42.9880 H   0  0  0  0  0  0  0  0  0  0  0  0
   56.8913   32.3716   42.8566 H   0  0  0  0  0  0  0  0  0  0  0  0
   58.2273   34.2450   43.8017 H   0  0  0  0  0  0  0  0  0  0  0  0
   58.7890   34.3300   48.4390 H   0  0  0  0  0  0  0  0  0  0  0  0
   59.8726   31.6590   49.6372 H   0  0  0  0  0  0  0  0  0  0  0  0
   58.3484   29.8260   50.3377 H   0  0  0  0  0  0  0  0  0  0  0  0
   56.7094   30.2790   52.1618 H   0  0  0  0  0  0  0  0  0  0  0  0
   56.6077   32.4782   53.2377 H   0  0  0  0  0  0  0  0  0  0  0  0
   58.5240   35.4480   52.2700 H   0  0  0  0  0  0  0  0  0  0  0  0
   62.4740   33.6300   50.2310 H   0  0  0  0  0  0  0  0  0  0  0  0
  1  2  1  0
  2  3  2  0
  3  4  1  0
  4  5  2  0
  5  6  1  0
  6  7  2  0
  7  8  1  0
  8  9  2  0
  9 10  1  0
 10 11  1  0
 10 12  2  0
 10 13  2  0
  9 14  1  0
 14 15  2  0
  4 16  1  0
 16 17  1  0
 17 18  2  0
 18 19  1  0
 19 20  2  0
 20 21  1  0
 21 22  2  0
 22 23  1  0
 23 24  2  0
 24 25  1  0
 17 26  1  0
 26  2  1  0
 15  6  1  0
 24 19  1  0
  1 27  1  0
  1 28  1  0
  1 29  1  0
  3 30  1  0
  7 31  1  0
  8 32  1  0
 11 33  1  0
 11 34  1  0
 14 35  1  0
 15 36  1  0
 16 37  1  0
 20 38  1  0
 21 39  1  0
 22 40  1  0
 23 41  1  0
 25 42  1  0
 26 43  1  0
M  END
>  <smiles>  (48) 
Cc1cc(=Nc2ccc(S(N)(=O)=O)cc2)[nH]c(=Nc2ccccc2O)[nH]1

>  <score_type>  (48) 
oracle

>  <origin>  (48) 
adg

>  <m_score__min__energy>  (48) 
-10.02

>  <m_primary>  (48) 
energy

$$$$
48:0
     RDKit          3D

 33 36  0  0  0  0  0  0  0  0999 V2000
   61.0780   30.5250   48.9700 C   0  0  0  0  0  0  0  0  0  0  0  0
   60.1570   31.2430   48.0340 C   0  0  0  0  0  0  0  0  0  0  0  0
   59.4040   32.7120   48.3950 S   0  0  0  0  0  0  0  0  0  0  0  0
   58.6670   32.8830   46.8990 C   0  0  0  0  0  0  0  0  0  0  0  0
   57.8450   33.9200   46.4650 C   0  0  0  0  0  0  0  0  0  0  0  0
   57.3430   33.8660   45.1570 C   0  0  0  0  0  0  0  0  0  0  0  0
   57.6730   32.7900   44.3130 C   0  0  0  0  0  0  0  0  0  0  0  0
   58.5060   31.7550   44.7720 C   0  0  0  0  0  0  0  0  0  0  0  0
   58.9970   31.8080   46.0830 C   0  0  0  0  0  0  0  0  0  0  0  0
   59.8390   30.8690   46.7170 C   0  0  0  0  0  0  0  0  0  0  0  0
   60.3100   29.6560   46.0900 N   0  0  0  0  0  0  0  0  0  0  0  0
   59.3580   28.5820   46.2680 C   0  0  0  0  0  0  0  0  0  0  0  0
   59.7270   27.4090   46.9840 C   0  0  0  0  0  0  0  0  0  0  0  0
   58.8050   26.3650   47.1830 C   0  0  0  0  0  0  0  0  0  0  0  0
   57.5230   26.5270   46.6700 C   0  0  0  0  0  0  0  0  0  0  0  0
   56.4950   25.6680   46.7450 N   0  0  0  0  0  0  0  0  0  0  0  0
   55.5150   26.3420   46.0910 C   0  0  0  0  0  0  0  0  0  0  0  0
   54.3600   25.8690   45.9360 O   0  0  0  0  0  0  0  0  0  0  0  0
   55.8690   27.5640   45.6150 N   0  0  0  0  0  0  0  0  0  0  0  0
   57.1520   27.6510   45.9980 C   0  0  0  0  0  0  0  0  0  0  0  0
   58.0320   28.7060   45.7810 C   0  0  0  0  0  0  0  0  0  0  0  0
   60.7921   30.7479   50.0086 H   0  0  0  0  0  0  0  0  0  0  0  0
   61.0072   29.4414   48.7947 H   0  0  0  0  0  0  0  0  0  0  0  0
   62.1116   30.8580   48.7947 H   0  0  0  0  0  0  0  0  0  0  0  0
   57.5961   34.7594   47.1309 H   0  0  0  0  0  0  0  0  0  0  0  0
   56.6877   34.6692   44.7888 H   0  0  0  0  0  0  0  0  0  0  0  0
   57.2767   32.7584   43.2874 H   0  0  0  0  0  0  0  0  0  0  0  0
   58.7685   30.9156   44.1114 H   0  0  0  0  0  0  0  0  0  0  0  0
   61.2260   29.3550   46.4940 H   0  0  0  0  0  0  0  0  0  0  0  0
   60.4730   29.8490   45.0750 H   0  0  0  0  0  0  0  0  0  0  0  0
   60.7463   27.3172   47.3872 H   0  0  0  0  0  0  0  0  0  0  0  0
   59.0889   25.4515   47.7261 H   0  0  0  0  0  0  0  0  0  0  0  0
   57.7084   29.6113   45.2465 H   0  0  0  0  0  0  0  0  0  0  0  0
  1  2  1  0
  2  3  1  0
  3  4  1  0
  4  5  2  0
  5  6  1  0
  6  7  2  0
  7  8  1  0
  8  9  2  0
  9 10  1  0
 10 11  1  0
 11 12  1  0
 12 13  2  0
 13 14  1  0
 14 15  2  0
 15 16  1  0
 16 17  1  0
 17 18  2  0
 17 19  1  0
 19 20  1  0
 20 21  2  0
 10  2  2  0
 21 12  1  0
  9  4  1  0
 20 15  1  0
  1 22  1  0
  1 23  1  0
  1 24  1  0
  5 25  1  0
  6 26  1  0
  7 27  1  0
  8 28  1  0
 11 29  1  0
 11 30  1  0
 13 31  1  0
 14 32  1  0
 21 33  1  0
M  CHG  3  11   1  16  -1  19  -1
M  END
>  <UniqueID>  (49) 
42

>  <SMILES>  (49) 
Cc1sc2ccccc2c1[NH2+]c1ccc2[n-]c(=O)[n-]c2c1

>  <Energy>  (49) 
105.56786513749572

>  <Genealogy>  (49) 
Cc1sc2ccccc2c1[NH2+]c1ccc2[n-]c(=O)[n-]c2c1 (protonated)
Cc1sc2ccccc2c1[NH2+]c1ccc2[n-]c(=O)[n-]c2c1 (3D coordinates assigned)
Cc1sc2ccccc2c1[NH2+]c1ccc2[n-]c(=O)[n-]c2c1 (optimized conformer: 105.56786513749572 kcal/mol)

>  <smiles>  (49) 
Cc1sc2ccccc2c1Nc1ccc2[nH]c(=O)[nH]c2c1

>  <score_type>  (49) 
oracle

>  <origin>  (49) 
adg

>  <m_score__min__energy>  (49) 
-10.18

>  <m_primary>  (49) 
energy

$$$$
49:0
     RDKit          3D

 38 39  0  0  0  0  0  0  0  0999 V2000
   58.9351   31.9865   48.5819 H   0  0  0  0  0  0  0  0  0  0  0  0
   58.8780   32.4770   47.5990 C   0  0  0  0  0  0  0  0  0  0  0  0
   58.3420   31.7870   46.5070 C   0  0  0  0  0  0  0  0  0  0  0  0
   57.9924   30.7515   46.6317 H   0  0  0  0  0  0  0  0  0  0  0  0
   58.2480   32.4100   45.2520 C   0  0  0  0  0  0  0  0  0  0  0  0
   57.6400   31.6840   44.0790 C   0  0  0  0  0  0  0  0  0  0  0  0
   58.4263   31.1186   43.5575 H   0  0  0  0  0  0  0  0  0  0  0  0
   57.1880   32.4234   43.4016 H   0  0  0  0  0  0  0  0  0  0  0  0
   56.5990   30.7580   44.5260 N   0  0  0  0  0  0  0  0  0  0  0  0
   56.8000   29.5210   44.8730 C   0  0  0  0  0  0  0  0  0  0  0  0
   58.3040   28.7610   44.9980 S   0  0  0  0  0  0  0  0  0  0  0  0
   57.6370   27.3110   45.5390 C   0  0  0  0  0  0  0  0  0  0  0  0
   58.4270   26.1460   46.0420 C   0  0  0  0  0  0  0  0  0  0  0  0
   58.8299   25.5787   45.1901 H   0  0  0  0  0  0  0  0  0  0  0  0
   57.7787   25.4890   46.6403 H   0  0  0  0  0  0  0  0  0  0  0  0
   59.5520   26.6470   46.8860 C   0  0  0  0  0  0  0  0  0  0  0  0
   60.7450   26.4590   46.5200 O   0  0  0  0  0  0  0  0  0  0  0  0
   59.2660   27.2570   48.1120 O   0  0  0  0  0  0  0  0  0  0  0  0
   59.2040   28.6700   48.2890 C   0  0  0  0  0  0  0  0  0  0  0  0
   59.1527   28.8990   49.3637 H   0  0  0  0  0  0  0  0  0  0  0  0
   58.3094   29.0552   47.7779 H   0  0  0  0  0  0  0  0  0  0  0  0
   60.4400   29.3340   47.6920 C   0  0  0  0  0  0  0  0  0  0  0  0
   61.0949   29.6858   48.5027 H   0  0  0  0  0  0  0  0  0  0  0  0
   60.9834   28.6064   47.0713 H   0  0  0  0  0  0  0  0  0  0  0  0
   60.1333   30.1888   47.0713 H   0  0  0  0  0  0  0  0  0  0  0  0
   56.2540   27.4740   45.6200 C   0  0  0  0  0  0  0  0  0  0  0  0
   55.3990   26.4800   46.0780 O   0  0  0  0  0  0  0  0  0  0  0  0
   55.7960   28.6930   45.2330 N   0  0  0  0  0  0  0  0  0  0  0  0
   54.7880   28.9660   45.2470 H   0  0  0  0  0  0  0  0  0  0  0  0
   58.7080   33.7280   45.1030 C   0  0  0  0  0  0  0  0  0  0  0  0
   58.6470   34.2211   44.1216 H   0  0  0  0  0  0  0  0  0  0  0  0
   59.2430   34.4170   46.1950 C   0  0  0  0  0  0  0  0  0  0  0  0
   59.5872   35.4546   46.0725 H   0  0  0  0  0  0  0  0  0  0  0  0
   59.3430   33.7910   47.4470 C   0  0  0  0  0  0  0  0  0  0  0  0
   59.8680   34.5480   48.6310 C   0  0  0  0  0  0  0  0  0  0  0  0
   59.5299   34.0604   49.5572 H   0  0  0  0  0  0  0  0  0  0  0  0
   60.9676   34.5575   48.6020 H   0  0  0  0  0  0  0  0  0  0  0  0
   59.4915   35.5812   48.6020 H   0  0  0  0  0  0  0  0  0  0  0  0
  1  2  1  0
  2  3  2  0
  3  4  1  0
  3  5  1  0
  5  6  1  0
  6  7  1  0
  6  8  1  0
  6  9  1  0
  9 10  2  0
 10 11  1  0
 11 12  1  0
 12 13  1  0
 13 14  1  0
 13 15  1  0
 13 16  1  0
 16 17  2  0
 16 18  1  0
 18 19  1  0
 19 20  1  0
 19 21  1  0
 19 22  1  0
 22 23  1  0
 22 24  1  0
 22 25  1  0
 12 26  2  0
 26 27  1  0
 26 28  1  0
 28 29  1  0
  5 30  2  0
 30 31  1  0
 30 32  1  0
 32 33  1  0
 32 34  2  0
 34 35  1  0
 35 36  1  0
 35 37  1  0
 35 38  1  0
 34  2  1  0
 28 10  1  0
M  CHG  1  27  -1
M  END
>  <UniqueID>  (50) 
43

>  <SMILES>  (50) 
CCOC(=O)Cc1s/c(=N\Cc2ccc(C)cc2)[nH]c1[O-]

>  <Energy>  (50) 
58.466052187190556

>  <Genealogy>  (50) 
CCOC(=O)Cc1sc(=NCc2ccc(C)cc2)[nH]c1[O-] (protonated)
CCOC(=O)Cc1s/c(=N\Cc2ccc(C)cc2)[nH]c1[O-] (cis-trans isomerization)
CCOC(=O)Cc1s/c(=N\Cc2ccc(C)cc2)[nH]c1[O-] (3D coordinates assigned)
CCOC(=O)Cc1s/c(=N\Cc2ccc(C)cc2)[nH]c1[O-] (optimized conformer: 58.466052187190556 kcal/mol)

>  <smiles>  (50) 
CCOC(=O)Cc1sc(=NCc2ccc(C)cc2)[nH]c1O

>  <score_type>  (50) 
oracle

>  <origin>  (50) 
adg

>  <m_score__min__energy>  (50) 
-10.640000000000001

>  <m_primary>  (50) 
energy

$$$$
50:0
     RDKit          3D

 24 24  0  0  0  0  0  0  0  0999 V2000
   53.6420   24.6460   45.5470 C   0  0  0  0  0  0  0  0  0  0  0  0
   54.7530   25.4890   45.9660 N   0  0  0  0  0  0  0  0  0  0  0  0
   56.0280   24.9920   46.3880 C   0  0  0  0  0  0  0  0  0  0  0  0
   56.0720   23.9630   47.1130 O   0  0  0  0  0  0  0  0  0  0  0  0
   57.3090   25.6890   46.0260 C   0  0  0  0  0  0  0  0  0  0  0  0
   57.0410   27.0440   45.5430 N   0  0  0  0  0  0  0  0  0  0  0  0
   57.7650   28.1730   46.0520 C   0  0  0  0  0  0  0  0  0  0  0  0
   58.5290   28.0290   47.0460 O   0  0  0  0  0  0  0  0  0  0  0  0
   57.6020   29.5200   45.4520 C   0  0  0  0  0  0  0  0  0  0  0  0
   58.6940   30.4030   45.4340 C   0  0  0  0  0  0  0  0  0  0  0  0
   58.5610   31.6770   44.8800 C   0  0  0  0  0  0  0  0  0  0  0  0
   57.3350   32.0600   44.3370 C   0  0  0  0  0  0  0  0  0  0  0  0
   56.2900   31.1930   44.3380 N   0  0  0  0  0  0  0  0  0  0  0  0
   56.3890   29.9440   44.8690 C   0  0  0  0  0  0  0  0  0  0  0  0
   55.3950   29.1740   44.8070 O   0  0  0  0  0  0  0  0  0  0  0  0
   53.1245   24.2534   46.4347 H   0  0  0  0  0  0  0  0  0  0  0  0
   52.9382   25.2394   44.9449 H   0  0  0  0  0  0  0  0  0  0  0  0
   54.0240   23.8084   44.9449 H   0  0  0  0  0  0  0  0  0  0  0  0
   57.9543   25.7435   46.9151 H   0  0  0  0  0  0  0  0  0  0  0  0
   57.8078   25.1206   45.2272 H   0  0  0  0  0  0  0  0  0  0  0  0
   56.2660   27.2030   44.8580 H   0  0  0  0  0  0  0  0  0  0  0  0
   59.6589   30.0889   45.8587 H   0  0  0  0  0  0  0  0  0  0  0  0
   59.4140   32.3715   44.8718 H   0  0  0  0  0  0  0  0  0  0  0  0
   57.2144   33.0655   43.9075 H   0  0  0  0  0  0  0  0  0  0  0  0
  1  2  1  0
  2  3  1  0
  3  4  2  0
  3  5  1  0
  5  6  1  0
  6  7  1  0
  7  8  2  0
  7  9  1  0
  9 10  2  0
 10 11  1  0
 11 12  2  0
 12 13  1  0
 13 14  1  0
 14 15  2  0
 14  9  1  0
  1 16  1  0
  1 17  1  0
  1 18  1  0
  5 19  1  0
  5 20  1  0
  6 21  1  0
 10 22  1  0
 11 23  1  0
 12 24  1  0
M  CHG  2   2  -1  13  -1
M  END
>  <UniqueID>  (51) 
44

>  <SMILES>  (51) 
C[N-]C(=O)CNC(=O)c1ccc[n-]c1=O

>  <Energy>  (51) 
22.48163554378883

>  <Genealogy>  (51) 
C[N-]C(=O)CNC(=O)c1ccc[n-]c1=O (protonated)
C[N-]C(=O)CNC(=O)c1ccc[n-]c1=O (3D coordinates assigned)
C[N-]C(=O)CNC(=O)c1ccc[n-]c1=O (optimized conformer: 22.48163554378883 kcal/mol)

>  <smiles>  (51) 
CNC(=O)CNC(=O)c1ccc[nH]c1=O

>  <score_type>  (51) 
oracle

>  <origin>  (51) 
adg

>  <m_score__min__energy>  (51) 
-9.1400000000000006

>  <m_primary>  (51) 
energy

$$$$
51:0
     RDKit          3D

 38 40  0  0  0  0  0  0  0  0999 V2000
   57.6266   32.2459   41.2800 H   0  0  0  0  0  0  0  0  0  0  0  0
   57.5670   32.0570   42.3620 C   0  0  0  0  0  0  0  0  0  0  0  0
   57.9570   33.0150   43.2410 N   0  0  0  0  0  0  0  0  0  0  0  0
   57.8990   32.8060   44.5810 C   0  0  0  0  0  0  0  0  0  0  0  0
   58.2570   33.7600   45.3890 N   0  0  0  0  0  0  0  0  0  0  0  0
   59.0870   33.6380   46.5570 C   0  0  0  0  0  0  0  0  0  0  0  0
   58.5430   33.4480   47.8420 C   0  0  0  0  0  0  0  0  0  0  0  0
   57.4518   33.4121   47.9761 H   0  0  0  0  0  0  0  0  0  0  0  0
   59.3860   33.3050   48.9470 C   0  0  0  0  0  0  0  0  0  0  0  0
   58.9562   33.1746   49.9511 H   0  0  0  0  0  0  0  0  0  0  0  0
   60.7730   33.3270   48.7810 C   0  0  0  0  0  0  0  0  0  0  0  0
   61.4328   33.2280   49.6556 H   0  0  0  0  0  0  0  0  0  0  0  0
   61.3240   33.4750   47.5020 C   0  0  0  0  0  0  0  0  0  0  0  0
   63.0730   33.4990   47.2930 S   0  0  0  0  0  0  0  0  0  0  0  0
   63.7150   34.2090   48.4530 O   0  0  0  0  0  0  0  0  0  0  0  0
   63.4240   34.2290   46.0270 O   0  0  0  0  0  0  0  0  0  0  0  0
   63.6630   31.8770   47.2140 N   0  0  0  0  0  0  0  0  0  0  0  0
   64.5360   31.8970   46.6410 H   0  0  0  0  0  0  0  0  0  0  0  0
   62.9610   31.3230   46.6730 H   0  0  0  0  0  0  0  0  0  0  0  0
   60.4790   33.6250   46.3940 C   0  0  0  0  0  0  0  0  0  0  0  0
   60.9117   33.7334   45.3885 H   0  0  0  0  0  0  0  0  0  0  0  0
   57.4260   31.6180   45.0540 N   0  0  0  0  0  0  0  0  0  0  0  0
   57.0350   30.6210   44.2160 C   0  0  0  0  0  0  0  0  0  0  0  0
   56.5200   29.3590   44.7920 C   0  0  0  0  0  0  0  0  0  0  0  0
   55.2730   29.1970   44.8800 O   0  0  0  0  0  0  0  0  0  0  0  0
   57.4140   28.2800   45.2690 C   0  0  0  0  0  0  0  0  0  0  0  0
   56.8680   27.1140   45.8390 C   0  0  0  0  0  0  0  0  0  0  0  0
   55.5230   26.9510   45.9260 F   0  0  0  0  0  0  0  0  0  0  0  0
   57.7080   26.0960   46.3020 C   0  0  0  0  0  0  0  0  0  0  0  0
   57.2754   25.1831   46.7372 H   0  0  0  0  0  0  0  0  0  0  0  0
   59.0960   26.2360   46.2130 C   0  0  0  0  0  0  0  0  0  0  0  0
   59.7541   25.4319   46.5741 H   0  0  0  0  0  0  0  0  0  0  0  0
   59.6470   27.3960   45.6660 C   0  0  0  0  0  0  0  0  0  0  0  0
   60.7396   27.5059   45.6009 H   0  0  0  0  0  0  0  0  0  0  0  0
   58.8140   28.4200   45.2000 C   0  0  0  0  0  0  0  0  0  0  0  0
   59.3760   29.5550   44.7110 F   0  0  0  0  0  0  0  0  0  0  0  0
   57.0910   30.8340   42.8310 C   0  0  0  0  0  0  0  0  0  0  0  0
   56.7659   30.0518   42.1292 H   0  0  0  0  0  0  0  0  0  0  0  0
  1  2  1  0
  2  3  1  0
  3  4  1  0
  4  5  2  0
  5  6  1  0
  6  7  2  0
  7  8  1  0
  7  9  1  0
  9 10  1  0
  9 11  2  0
 11 12  1  0
 11 13  1  0
 13 14  1  0
 14 15  2  0
 14 16  2  0
 14 17  1  0
 17 18  1  0
 17 19  1  0
 13 20  2  0
 20 21  1  0
  4 22  1  0
 22 23  2  0
 23 24  1  0
 24 25  2  0
 24 26  1  0
 26 27  2  0
 27 28  1  0
 27 29  1  0
 29 30  1  0
 29 31  2  0
 31 32  1  0
 31 33  1  0
 33 34  1  0
 33 35  2  0
 35 36  1  0
 23 37  1  0
 37 38  1  0
 37  2  2  0
 20  6  1  0
 35 26  1  0
M  CHG  1   3  -1
M  END
>  <UniqueID>  (52) 
45

>  <SMILES>  (52) 
NS(=O)(=O)c1cccc(/N=c2\nc(C(=O)c3c(F)cccc3F)cc[n-]2)c1

>  <Energy>  (52) 
53.82066134941641

>  <Genealogy>  (52) 
NS(=O)(=O)c1cccc(N=c2nc(C(=O)c3c(F)cccc3F)cc[n-]2)c1 (protonated)
NS(=O)(=O)c1cccc(/N=c2\nc(C(=O)c3c(F)cccc3F)cc[n-]2)c1 (cis-trans isomerization)
NS(=O)(=O)c1cccc(/N=c2\nc(C(=O)c3c(F)cccc3F)cc[n-]2)c1 (3D coordinates assigned)
NS(=O)(=O)c1cccc(/N=c2\nc(C(=O)c3c(F)cccc3F)cc[n-]2)c1 (optimized conformer: 53.82066134941641 kcal/mol)

>  <smiles>  (52) 
NS(=O)(=O)c1cccc(N=c2nc(C(=O)c3c(F)cccc3F)cc[nH]2)c1

>  <score_type>  (52) 
oracle

>  <origin>  (52) 
adg

>  <m_score__min__energy>  (52) 
-11.109999999999999

>  <m_primary>  (52) 
energy

$$$$
52:0
     RDKit          3D

 90 95  0  0  0  0  0  0  0  0999 V2000
   55.6960   30.0830   43.0640 O   0  0  0  0  0  0  0  0  0  0  0  0
   55.9500   30.1050   44.2980 C   0  0  0  0  0  0  0  0  0  0  0  0
   55.1670   29.3450   45.1590 O   0  0  0  0  0  0  0  0  0  0  0  0
   57.0570   30.9320   44.8200 C   0  0  0  0  0  0  0  0  0  0  0  0
   58.2690   30.3390   45.2170 C   0  0  0  0  0  0  0  0  0  0  0  0
   59.3120   31.1230   45.7170 C   0  0  0  0  0  0  0  0  0  0  0  0
   59.1550   32.5130   45.8540 C   0  0  0  0  0  0  0  0  0  0  0  0
   60.2020   33.3600   46.3590 N   0  0  0  0  0  0  0  0  0  0  0  0
   60.3310   33.9430   47.6670 C   0  0  0  0  0  0  0  0  0  0  0  0
   59.3770   34.6360   48.1060 O   0  0  0  0  0  0  0  0  0  0  0  0
   61.4770   33.6430   48.5600 C   0  0  0  0  0  0  0  0  0  0  0  0
   62.7310   33.3880   47.9710 C   0  0  0  0  0  0  0  0  0  0  0  0
   62.8810   33.3840   46.5860 O   0  0  0  0  0  0  0  0  0  0  0  0
   63.8440   33.1190   48.7650 C   0  0  0  0  0  0  0  0  0  0  0  0
   63.7330   33.0910   50.1540 C   0  0  0  0  0  0  0  0  0  0  0  0
   64.8560   32.8270   50.9350 O   0  0  0  0  0  0  0  0  0  0  0  0
   62.4950   33.3250   50.7660 C   0  0  0  0  0  0  0  0  0  0  0  0
   62.4240   33.2940   52.5300 Cl  0  0  0  0  0  0  0  0  0  0  0  0
   61.3440   33.5870   49.9790 C   0  0  0  0  0  0  0  0  0  0  0  0
   60.0240   33.8780   50.6800 C   0  0  0  0  0  0  0  0  0  0  0  0
   58.9730   32.8200   50.4340 C   0  0  0  0  0  0  0  0  0  0  0  0
   58.4820   32.6900   49.2770 O   0  0  0  0  0  0  0  0  0  0  0  0
   58.5090   31.9540   51.4960 N   0  0  0  0  0  0  0  0  0  0  0  0
   57.7200   30.7740   51.0980 C   0  0  0  0  0  0  0  0  0  0  0  0
   56.3090   30.7600   51.6870 C   0  0  0  0  0  0  0  0  0  0  0  0
   56.3370   30.1850   53.0760 C   0  0  0  0  0  0  0  0  0  0  0  0
   55.6600   28.9830   53.3420 C   0  0  0  0  0  0  0  0  0  0  0  0
   55.6880   28.4150   54.6210 C   0  0  0  0  0  0  0  0  0  0  0  0
   54.9220   26.8550   54.9020 S   0  0  0  0  0  0  0  0  0  0  0  0
   53.9810   26.9210   56.0740 O   0  0  0  0  0  0  0  0  0  0  0  0
   54.1280   26.4720   53.6840 O   0  0  0  0  0  0  0  0  0  0  0  0
   56.1570   25.6680   55.1680 N   0  0  0  0  0  0  0  0  0  0  0  0
   57.4290   25.6620   54.5070 C   0  0  0  0  0  0  0  0  0  0  0  0
   58.1980   26.8340   54.5270 C   0  0  0  0  0  0  0  0  0  0  0  0
   59.4420   26.8730   53.8910 C   0  0  0  0  0  0  0  0  0  0  0  0
   59.9120   25.7520   53.1850 C   0  0  0  0  0  0  0  0  0  0  0  0
   61.2370   25.8020   52.4640 C   0  0  0  0  0  0  0  0  0  0  0  0
   61.1580   26.6230   51.1700 C   0  0  0  0  0  0  0  0  0  0  0  0
   61.0790   28.0580   51.4770 N   0  0  0  0  0  0  0  0  0  0  0  0
   61.4160   28.9260   50.3320 C   0  0  0  0  0  0  0  0  0  0  0  0
   60.1960   29.4160   49.5200 C   0  0  1  0  0  0  0  0  0  0  0  0
   60.4580   30.6710   48.9460 O   0  0  0  0  0  0  0  0  0  0  0  0
   59.7760   28.4030   48.4760 C   0  0  0  0  0  0  0  0  0  0  0  0
   58.5490   28.5050   47.7950 C   0  0  0  0  0  0  0  0  0  0  0  0
   58.2120   27.5680   46.8180 C   0  0  0  0  0  0  0  0  0  0  0  0
   59.1030   26.5350   46.5240 C   0  0  0  0  0  0  0  0  0  0  0  0
   60.2880   26.4480   47.1830 N   0  0  0  0  0  0  0  0  0  0  0  0
   60.6440   27.3510   48.1360 C   0  0  0  0  0  0  0  0  0  0  0  0
   59.1330   24.5820   53.1540 C   0  0  0  0  0  0  0  0  0  0  0  0
   57.9050   24.5370   53.8170 C   0  0  0  0  0  0  0  0  0  0  0  0
   56.3980   29.0520   55.6460 C   0  0  0  0  0  0  0  0  0  0  0  0
   57.0680   30.2510   55.3950 C   0  0  0  0  0  0  0  0  0  0  0  0
   57.0310   30.8360   54.1220 C   0  0  0  0  0  0  0  0  0  0  0  0
   57.7900   32.0320   53.9050 N   0  0  0  0  0  0  0  0  0  0  0  0
   58.7580   32.2880   52.8800 C   0  0  0  0  0  0  0  0  0  0  0  0
   59.8280   32.8670   53.2060 O   0  0  0  0  0  0  0  0  0  0  0  0
   57.9580   33.1060   45.4360 C   0  0  0  0  0  0  0  0  0  0  0  0
   56.9150   32.3260   44.9270 C   0  0  0  0  0  0  0  0  0  0  0  0
   58.3968   29.2497   45.1332 H   0  0  0  0  0  0  0  0  0  0  0  0
   60.2620   30.6493   46.0052 H   0  0  0  0  0  0  0  0  0  0  0  0
   64.8182   32.9272   48.2916 H   0  0  0  0  0  0  0  0  0  0  0  0
   64.7800   32.4540   51.8760 H   0  0  0  0  0  0  0  0  0  0  0  0
   60.2096   33.9414   51.7624 H   0  0  0  0  0  0  0  0  0  0  0  0
   59.6381   34.8233   50.2707 H   0  0  0  0  0  0  0  0  0  0  0  0
   57.6400   30.7619   50.0010 H   0  0  0  0  0  0  0  0  0  0  0  0
   58.2429   29.8877   51.4866 H   0  0  0  0  0  0  0  0  0  0  0  0
   55.9205   31.7884   51.7263 H   0  0  0  0  0  0  0  0  0  0  0  0
   55.6591   30.1395   51.0525 H   0  0  0  0  0  0  0  0  0  0  0  0
   55.1020   28.4830   52.5366 H   0  0  0  0  0  0  0  0  0  0  0  0
   57.8204   27.7274   55.0459 H   0  0  0  0  0  0  0  0  0  0  0  0
   60.0556   27.7844   53.9431 H   0  0  0  0  0  0  0  0  0  0  0  0
   61.9857   26.2580   53.1285 H   0  0  0  0  0  0  0  0  0  0  0  0
   61.5165   24.7724   52.1960 H   0  0  0  0  0  0  0  0  0  0  0  0
   62.0556   26.4311   50.5638 H   0  0  0  0  0  0  0  0  0  0  0  0
   60.2559   26.3270   50.6145 H   0  0  0  0  0  0  0  0  0  0  0  0
   60.1290   28.2880   51.8520 H   0  0  0  0  0  0  0  0  0  0  0  0
   61.9509   29.8077   50.7147 H   0  0  0  0  0  0  0  0  0  0  0  0
   62.0250   28.3183   49.6466 H   0  0  0  0  0  0  0  0  0  0  0  0
   59.3497   29.5283   50.2137 H   0  0  0  0  0  0  0  0  0  0  0  0
   59.5970   31.0110   48.5830 H   0  0  0  0  0  0  0  0  0  0  0  0
   57.8548   29.3244   48.0332 H   0  0  0  0  0  0  0  0  0  0  0  0
   57.2530   27.6427   46.2844 H   0  0  0  0  0  0  0  0  0  0  0  0
   58.8454   25.7896   45.7571 H   0  0  0  0  0  0  0  0  0  0  0  0
   61.6157   27.2575   48.6430 H   0  0  0  0  0  0  0  0  0  0  0  0
   59.4923   23.6988   52.6054 H   0  0  0  0  0  0  0  0  0  0  0  0
   57.3071   23.6139   53.7982 H   0  0  0  0  0  0  0  0  0  0  0  0
   56.4280   28.6068   56.6514 H   0  0  0  0  0  0  0  0  0  0  0  0
   57.6300   30.7409   56.2038 H   0  0  0  0  0  0  0  0  0  0  0  0
   57.8365   34.1969   45.5087 H   0  0  0  0  0  0  0  0  0  0  0  0
   55.9780   32.8063   44.6085 H   0  0  0  0  0  0  0  0  0  0  0  0
  1  2  2  0
  2  3  1  0
  2  4  1  0
  4  5  2  0
  5  6  1  0
  6  7  2  0
  7  8  1  0
  8  9  1  0
  9 10  2  0
  9 11  1  0
 11 12  2  0
 12 13  1  0
 12 14  1  0
 14 15  2  0
 15 16  1  0
 15 17  1  0
 17 18  1  0
 17 19  2  0
 19 20  1  0
 20 21  1  0
 21 22  2  0
 21 23  1  0
 23 24  1  0
 24 25  1  0
 25 26  1  0
 26 27  2  0
 27 28  1  0
 28 29  1  0
 29 30  2  0
 29 31  2  0
 29 32  1  0
 32 33  1  0
 33 34  2  0
 34 35  1  0
 35 36  2  0
 36 37  1  0
 37 38  1  0
 38 39  1  0
 39 40  1  0
 40 41  1  0
 41 42  1  0
 41 43  1  0
 43 44  2  0
 44 45  1  0
 45 46  2  0
 46 47  1  0
 47 48  2  0
 36 49  1  0
 49 50  2  0
 28 51  2  0
 51 52  1  0
 52 53  2  0
 53 54  1  0
 54 55  1  0
 55 56  2  0
  7 57  1  0
 57 58  2  0
 58  4  1  0
 19 11  1  0
 55 23  1  0
 53 26  1  0
 50 33  1  0
 48 43  1  0
  5 59  1  0
  6 60  1  0
 14 61  1  0
 16 62  1  0
 20 63  1  0
 20 64  1  0
 24 65  1  0
 24 66  1  0
 25 67  1  0
 25 68  1  0
 27 69  1  0
 34 70  1  0
 35 71  1  0
 37 72  1  0
 37 73  1  0
 38 74  1  0
 38 75  1  0
 39 76  1  0
 40 77  1  0
 40 78  1  0
 41 79  1  1
 42 80  1  0
 44 81  1  0
 45 82  1  0
 46 83  1  0
 48 84  1  0
 49 85  1  0
 50 86  1  0
 51 87  1  0
 52 88  1  0
 57 89  1  0
 58 90  1  0
M  CHG  5   3  -1   8  -1  13  -1  32  -1  54  -1
M  END
>  <UniqueID>  (53) 
46

>  <SMILES>  (53) 
O=C([O-])c1ccc([N-]C(=O)c2c([O-])cc(O)c(Cl)c2CC(=O)N2CCc3cc(S(=O)(=O)[N-]c4ccc(CCNC[C@@H](O)c5cccnc5)cc4)ccc3[N-]C2=O)cc1

>  <Energy>  (53) 
135.485905080304

>  <Genealogy>  (53) 
O=C([O-])c1ccc([N-]C(=O)c2c([O-])cc(O)c(Cl)c2CC(=O)N2CCc3cc(S(=O)(=O)[N-]c4ccc(CCNCC(O)c5cccnc5)cc4)ccc3[N-]C2=O)cc1 (protonated)
O=C([O-])c1ccc([N-]C(=O)c2c([O-])cc(O)c(Cl)c2CC(=O)N2CCc3cc(S(=O)(=O)[N-]c4ccc(CCNC[C@@H](O)c5cccnc5)cc4)ccc3[N-]C2=O)cc1 (chirality)
O=C([O-])c1ccc([N-]C(=O)c2c([O-])cc(O)c(Cl)c2CC(=O)N2CCc3cc(S(=O)(=O)[N-]c4ccc(CCNC[C@@H](O)c5cccnc5)cc4)ccc3[N-]C2=O)cc1 (3D coordinates assigned)
O=C([O-])c1ccc([N-]C(=O)c2c([O-])cc(O)c(Cl)c2CC(=O)N2CCc3cc(S(=O)(=O)[N-]c4ccc(CCNC[C@@H](O)c5cccnc5)cc4)ccc3[N-]C2=O)cc1 (nonaromatic ring conformer: 135.485905080304 kcal/mol)

>  <smiles>  (53) 
O=C(O)c1ccc(NC(=O)c2c(O)cc(O)c(Cl)c2CC(=O)N2CCc3cc(S(=O)(=O)Nc4ccc(CCNCC(O)c5cccnc5)cc4)ccc3NC2=O)cc1

>  <score_type>  (53) 
oracle

>  <origin>  (53) 
adg

>  <m_score__min__energy>  (53) 
-15.91

>  <m_primary>  (53) 
energy

$$$$
53:0
     RDKit          3D

 33 35  0  0  1  0  0  0  0  0999 V2000
   54.7810   26.3000   45.9910 F   0  0  0  0  0  0  0  0  0  0  0  0
   56.1070   26.4570   46.0150 C   0  0  0  0  0  0  0  0  0  0  0  0
   56.9480   25.4470   46.4470 C   0  0  0  0  0  0  0  0  0  0  0  0
   58.3030   25.6430   46.4560 C   0  0  0  0  0  0  0  0  0  0  0  0
   58.8990   26.8290   46.0470 C   0  0  0  0  0  0  0  0  0  0  0  0
   58.0500   27.8330   45.6160 C   0  0  0  0  0  0  0  0  0  0  0  0
   56.6760   27.6520   45.6010 C   0  0  0  0  0  0  0  0  0  0  0  0
   55.8940   28.7490   45.1400 N   0  0  0  0  0  0  0  0  0  0  0  0
   56.3410   29.7050   44.4080 C   0  0  0  0  0  0  0  0  0  0  0  0
   57.0010   30.7920   44.8500 N   0  0  0  0  0  0  0  0  0  0  0  0
   57.2760   31.5150   43.7390 C   0  0  0  0  0  0  0  0  0  0  0  0
   58.1410   33.0730   43.6310 S   0  0  0  0  0  0  0  0  0  0  0  0
   57.5460   34.2030   44.9170 C   0  0  0  0  0  0  0  0  0  0  0  0
   58.2160   33.9250   46.2120 C   0  0  0  0  0  0  0  0  0  0  0  0
   59.2830   34.7400   46.5700 C   0  0  0  0  0  0  0  0  0  0  0  0
   59.9650   34.5620   47.7500 C   0  0  0  0  0  0  0  0  0  0  0  0
   59.5650   33.5370   48.5960 C   0  0  0  0  0  0  0  0  0  0  0  0
   58.4940   32.7430   48.2050 C   0  0  0  0  0  0  0  0  0  0  0  0
   57.8680   32.9610   47.0480 N   0  0  0  0  0  0  0  0  0  0  0  0
   56.7860   30.8650   42.6640 N   0  0  0  0  0  0  0  0  0  0  0  0
   56.2070   29.7460   43.0710 N   0  0  0  0  0  0  0  0  0  0  0  0
   56.5284   24.4873   46.7830 H   0  0  0  0  0  0  0  0  0  0  0  0
   58.9494   24.8234   46.8031 H   0  0  0  0  0  0  0  0  0  0  0  0
   59.9906   26.9633   46.0648 H   0  0  0  0  0  0  0  0  0  0  0  0
   58.4728   28.7911   45.2795 H   0  0  0  0  0  0  0  0  0  0  0  0
   57.7604   35.2387   44.6148 H   0  0  0  0  0  0  0  0  0  0  0  0
   56.4628   34.0576   45.0414 H   0  0  0  0  0  0  0  0  0  0  0  0
   59.5900   35.5491   45.8910 H   0  0  0  0  0  0  0  0  0  0  0  0
   60.8078   35.2163   48.0175 H   0  0  0  0  0  0  0  0  0  0  0  0
   60.0820   33.3581   49.5503 H   0  0  0  0  0  0  0  0  0  0  0  0
   58.1582   31.9241   48.8582 H   0  0  0  0  0  0  0  0  0  0  0  0
   56.8440   31.1810   41.6490 H   0  0  0  0  0  0  0  0  0  0  0  0
   55.7510   29.0670   42.4210 H   0  0  0  0  0  0  0  0  0  0  0  0
  1  2  1  0
  2  3  2  0
  3  4  1  0
  4  5  2  0
  5  6  1  0
  6  7  2  0
  7  8  1  0
  8  9  2  0
  9 10  1  0
 10 11  2  0
 11 12  1  0
 12 13  1  0
 13 14  1  0
 14 15  2  0
 15 16  1  0
 16 17  2  0
 17 18  1  0
 18 19  2  0
 11 20  1  0
 20 21  1  0
  7  2  1  0
 21  9  1  0
 19 14  1  0
  3 22  1  0
  4 23  1  0
  5 24  1  0
  6 25  1  0
 13 26  1  0
 13 27  1  0
 15 28  1  0
 16 29  1  0
 17 30  1  0
 18 31  1  0
 20 32  1  0
 21 33  1  0
M  END
>  <smiles>  (54) 
Fc1ccccc1N=c1nc(SCc2ccccn2)[nH][nH]1

>  <score_type>  (54) 
oracle

>  <origin>  (54) 
adg

>  <m_score__min__energy>  (54) 
-7.75

>  <m_primary>  (54) 
energy

$$$$
54:0
     RDKit          3D

 28 29  0  0  0  0  0  0  0  0999 V2000
   54.5500   28.4800   53.1050 O   0  0  0  0  0  0  0  0  0  0  0  0
   54.6790   29.5810   52.5050 C   0  0  0  0  0  0  0  0  0  0  0  0
   55.9500   29.8960   51.9180 N   0  0  0  0  0  0  0  0  0  0  0  0
   56.8270   30.9620   52.3140 C   0  0  0  0  0  0  0  0  0  0  0  0
   57.3420   31.8660   51.3700 C   0  0  0  0  0  0  0  0  0  0  0  0
   58.1820   32.9080   51.7710 C   0  0  0  0  0  0  0  0  0  0  0  0
   58.5110   33.0770   53.1250 C   0  0  0  0  0  0  0  0  0  0  0  0
   59.3770   34.1520   53.5350 N   0  0  0  0  0  0  0  0  0  0  0  0
   58.9060   35.2660   53.8460 O   0  0  0  0  0  0  0  0  0  0  0  0
   60.7390   33.9690   53.5930 O   0  0  0  0  0  0  0  0  0  0  0  0
   57.9750   32.1860   54.0720 C   0  0  0  0  0  0  0  0  0  0  0  0
   57.1350   31.1390   53.6750 C   0  0  0  0  0  0  0  0  0  0  0  0
   56.6260   30.2820   54.6520 O   0  0  0  0  0  0  0  0  0  0  0  0
   53.5100   30.4820   52.3820 C   0  0  0  0  0  0  0  0  0  0  0  0
   53.2780   31.1770   51.1820 C   0  0  0  0  0  0  0  0  0  0  0  0
   52.1780   32.0320   51.0610 C   0  0  0  0  0  0  0  0  0  0  0  0
   51.3060   32.2090   52.1370 C   0  0  0  0  0  0  0  0  0  0  0  0
   50.2120   33.0580   52.0140 O   0  0  0  0  0  0  0  0  0  0  0  0
   51.5340   31.5340   53.3400 C   0  0  0  0  0  0  0  0  0  0  0  0
   52.6330   30.6790   53.4660 C   0  0  0  0  0  0  0  0  0  0  0  0
   57.0820   31.7526   50.3072 H   0  0  0  0  0  0  0  0  0  0  0  0
   58.5886   33.6012   51.0199 H   0  0  0  0  0  0  0  0  0  0  0  0
   58.2187   32.3134   55.1371 H   0  0  0  0  0  0  0  0  0  0  0  0
   55.9690   29.5420   54.4350 H   0  0  0  0  0  0  0  0  0  0  0  0
   53.9658   31.0474   50.3334 H   0  0  0  0  0  0  0  0  0  0  0  0
   51.9994   32.5662   50.1162 H   0  0  0  0  0  0  0  0  0  0  0  0
   50.8480   31.6758   54.1882 H   0  0  0  0  0  0  0  0  0  0  0  0
   52.8136   30.1572   54.4174 H   0  0  0  0  0  0  0  0  0  0  0  0
  1  2  2  0
  2  3  1  0
  3  4  1  0
  4  5  2  0
  5  6  1  0
  6  7  2  0
  7  8  1  0
  8  9  2  0
  8 10  1  0
  7 11  1  0
 11 12  2  0
 12 13  1  0
  2 14  1  0
 14 15  2  0
 15 16  1  0
 16 17  2  0
 17 18  1  0
 17 19  1  0
 19 20  2  0
 12  4  1  0
 20 14  1  0
  5 21  1  0
  6 22  1  0
 11 23  1  0
 13 24  1  0
 15 25  1  0
 16 26  1  0
 19 27  1  0
 20 28  1  0
M  CHG  4   3  -1   8   1  10  -1  18  -1
M  END
>  <UniqueID>  (55) 
47

>  <SMILES>  (55) 
O=C([N-]c1ccc([N+](=O)[O-])cc1O)c1ccc([O-])cc1

>  <Energy>  (55) 
37.547558770284205

>  <Genealogy>  (55) 
O=C([N-]c1ccc([N+](=O)[O-])cc1O)c1ccc([O-])cc1 (protonated)
O=C([N-]c1ccc([N+](=O)[O-])cc1O)c1ccc([O-])cc1 (3D coordinates assigned)
O=C([N-]c1ccc([N+](=O)[O-])cc1O)c1ccc([O-])cc1 (optimized conformer: 37.547558770284205 kcal/mol)

>  <smiles>  (55) 
O=C(Nc1ccc([N+](=O)[O-])cc1O)c1ccc(O)cc1

>  <score_type>  (55) 
oracle

>  <origin>  (55) 
adg

>  <m_score__min__energy>  (55) 
-10.56

>  <m_primary>  (55) 
energy

$$$$
55:0
     RDKit          3D

 46 48  0  0  0  0  0  0  0  0999 V2000
   61.5440   33.3750   48.0330 C   0  0  0  0  0  0  0  0  0  0  0  0
   60.2980   33.6430   47.2510 C   0  0  0  0  0  0  0  0  0  0  0  0
   59.2720   34.4610   47.7230 C   0  0  0  0  0  0  0  0  0  0  0  0
   58.1080   34.5770   46.5110 S   0  0  0  0  0  0  0  0  0  0  0  0
   58.9450   33.5780   45.4470 C   0  0  0  0  0  0  0  0  0  0  0  0
   58.5400   33.3020   44.0320 C   0  0  0  0  0  0  0  0  0  0  0  0
   57.8740   31.9510   43.9490 C   0  0  0  0  0  0  0  0  0  0  0  0
   57.8400   31.1450   45.0970 C   0  0  0  0  0  0  0  0  0  0  0  0
   57.3460   29.8260   45.0600 C   0  0  0  0  0  0  0  0  0  0  0  0
   57.3880   28.9960   46.3480 C   0  0  2  0  0  0  0  0  0  0  0  0
   58.4860   29.4270   47.1520 O   0  0  0  0  0  0  0  0  0  0  0  0
   59.6740   28.6370   47.0580 C   0  0  2  0  0  0  0  0  0  0  0  0
   60.8890   29.5410   47.3190 C   0  0  0  0  0  0  0  0  0  0  0  0
   60.8600   30.6580   46.4710 O   0  0  0  0  0  0  0  0  0  0  0  0
   59.8460   27.8640   45.7190 C   0  0  2  0  0  0  0  0  0  0  0  0
   60.0330   28.7760   44.6640 O   0  0  0  0  0  0  0  0  0  0  0  0
   58.6150   26.9570   45.4410 C   0  0  1  0  0  0  0  0  0  0  0  0
   58.8930   25.6160   45.7660 O   0  0  0  0  0  0  0  0  0  0  0  0
   57.3680   27.4460   46.2070 C   0  0  2  0  0  0  0  0  0  0  0  0
   56.1920   26.9760   45.6020 O   0  0  0  0  0  0  0  0  0  0  0  0
   56.7950   29.3610   43.8480 C   0  0  0  0  0  0  0  0  0  0  0  0
   56.8160   30.1580   42.7020 C   0  0  0  0  0  0  0  0  0  0  0  0
   57.3690   31.4410   42.7360 C   0  0  0  0  0  0  0  0  0  0  0  0
   57.4100   32.3660   41.2390 Cl  0  0  0  0  0  0  0  0  0  0  0  0
   60.1140   33.1710   45.9880 N   0  0  0  0  0  0  0  0  0  0  0  0
   61.3193   33.4233   49.1087 H   0  0  0  0  0  0  0  0  0  0  0  0
   61.9258   32.3742   47.7828 H   0  0  0  0  0  0  0  0  0  0  0  0
   62.3035   34.1303   47.7828 H   0  0  0  0  0  0  0  0  0  0  0  0
   59.2303   34.9441   48.7103 H   0  0  0  0  0  0  0  0  0  0  0  0
   57.8369   34.0778   43.6948 H   0  0  0  0  0  0  0  0  0  0  0  0
   59.4327   33.3086   43.3893 H   0  0  0  0  0  0  0  0  0  0  0  0
   58.2083   31.5531   46.0498 H   0  0  0  0  0  0  0  0  0  0  0  0
   56.4225   29.1979   46.8349 H   0  0  0  0  0  0  0  0  0  0  0  0
   59.5881   27.8502   47.8219 H   0  0  0  0  0  0  0  0  0  0  0  0
   60.8702   29.8800   48.3653 H   0  0  0  0  0  0  0  0  0  0  0  0
   61.8076   28.9686   47.1229 H   0  0  0  0  0  0  0  0  0  0  0  0
   60.0290   30.5880   45.9330 H   0  0  0  0  0  0  0  0  0  0  0  0
   60.7325   27.2174   45.7973 H   0  0  0  0  0  0  0  0  0  0  0  0
   59.6800   29.6510   44.9730 H   0  0  0  0  0  0  0  0  0  0  0  0
   58.3994   27.0190   44.3641 H   0  0  0  0  0  0  0  0  0  0  0  0
   58.0240   25.1470   45.8780 H   0  0  0  0  0  0  0  0  0  0  0  0
   57.3885   27.0279   47.2242 H   0  0  0  0  0  0  0  0  0  0  0  0
   56.4180   26.7600   44.6590 H   0  0  0  0  0  0  0  0  0  0  0  0
   56.3435   28.3588   43.8051 H   0  0  0  0  0  0  0  0  0  0  0  0
   56.3930   29.7722   41.7627 H   0  0  0  0  0  0  0  0  0  0  0  0
   60.8090   32.5750   45.4830 H   0  0  0  0  0  0  0  0  0  0  0  0
  1  2  1  0
  2  3  2  0
  3  4  1  0
  4  5  1  0
  5  6  1  0
  6  7  1  0
  7  8  2  0
  8  9  1  0
  9 10  1  0
 10 11  1  0
 11 12  1  0
 12 13  1  0
 13 14  1  0
 12 15  1  0
 15 16  1  0
 15 17  1  0
 17 18  1  0
 17 19  1  0
 19 20  1  0
  9 21  2  0
 21 22  1  0
 22 23  2  0
 23 24  1  0
  5 25  2  0
 25  2  1  0
 23  7  1  0
 19 10  1  0
  1 26  1  0
  1 27  1  0
  1 28  1  0
  3 29  1  0
  6 30  1  0
  6 31  1  0
  8 32  1  0
 10 33  1  1
 12 34  1  1
 13 35  1  0
 13 36  1  0
 14 37  1  0
 15 38  1  1
 16 39  1  0
 17 40  1  6
 18 41  1  0
 19 42  1  1
 20 43  1  0
 21 44  1  0
 22 45  1  0
 25 46  1  0
M  CHG  1  25   1
M  END
>  <UniqueID>  (56) 
48

>  <SMILES>  (56) 
Cc1csc(Cc2cc([C@@H]3O[C@H](CO)C(O)C(O)C3O)ccc2Cl)[nH+]1

>  <Energy>  (56) 
91.28178638158303

>  <Genealogy>  (56) 
Cc1csc(Cc2cc(C3OC(CO)C(O)C(O)C3O)ccc2Cl)[nH+]1 (protonated)
Cc1csc(Cc2cc([C@@H]3O[C@H](CO)C(O)C(O)C3O)ccc2Cl)[nH+]1 (chirality)
Cc1csc(Cc2cc([C@@H]3O[C@H](CO)C(O)C(O)C3O)ccc2Cl)[nH+]1 (3D coordinates assigned)
Cc1csc(Cc2cc([C@@H]3O[C@H](CO)C(O)C(O)C3O)ccc2Cl)[nH+]1 (nonaromatic ring conformer: 91.28178638158303 kcal/mol)

>  <smiles>  (56) 
Cc1csc(Cc2cc(C3OC(CO)C(O)C(O)C3O)ccc2Cl)n1

>  <score_type>  (56) 
oracle

>  <origin>  (56) 
adg

>  <m_score__min__energy>  (56) 
-5.3600000000000003

>  <m_primary>  (56) 
energy

$$$$
56:0
     RDKit          3D

 60 63  0  0  0  0  0  0  0  0999 V2000
   63.0040   29.9490   51.2630 C   0  0  0  0  0  0  0  0  0  0  0  0
   62.7420   31.3250   51.0140 O   0  0  0  0  0  0  0  0  0  0  0  0
   61.4650   31.8660   50.7960 C   0  0  0  0  0  0  0  0  0  0  0  0
   60.2930   31.1740   51.1580 C   0  0  0  0  0  0  0  0  0  0  0  0
   59.0390   31.7490   50.9500 C   0  0  0  0  0  0  0  0  0  0  0  0
   58.9370   33.0180   50.3810 C   0  0  0  0  0  0  0  0  0  0  0  0
   60.0870   33.7130   50.0120 C   0  0  0  0  0  0  0  0  0  0  0  0
   61.3560   33.1400   50.2030 C   0  0  0  0  0  0  0  0  0  0  0  0
   62.5880   33.9180   49.8320 C   0  0  0  0  0  0  0  0  0  0  0  0
   62.5410   34.2460   48.4150 N   0  0  0  0  0  0  0  0  0  0  0  0
   62.5210   33.2500   47.3870 C   0  0  0  0  0  0  0  0  0  0  0  0
   63.5720   32.9970   46.7380 O   0  0  0  0  0  0  0  0  0  0  0  0
   61.2820   32.4750   47.1420 C   0  0  0  0  0  0  0  0  0  0  0  0
   61.2540   31.1420   47.5820 C   0  0  0  0  0  0  0  0  0  0  0  0
   60.1590   30.3240   47.3140 C   0  0  0  0  0  0  0  0  0  0  0  0
   59.0700   30.8170   46.6000 C   0  0  0  0  0  0  0  0  0  0  0  0
   59.0470   32.1520   46.1640 C   0  0  0  0  0  0  0  0  0  0  0  0
   57.9240   32.6530   45.4710 C   0  0  0  0  0  0  0  0  0  0  0  0
   56.8400   31.7940   45.2050 O   0  0  0  0  0  0  0  0  0  0  0  0
   56.6640   31.0340   44.0100 C   0  0  0  0  0  0  0  0  0  0  0  0
   57.6630   29.9200   43.9650 C   0  0  0  0  0  0  0  0  0  0  0  0
   58.8830   30.1850   43.7920 O   0  0  0  0  0  0  0  0  0  0  0  0
   57.2440   28.5650   44.1660 N   0  0  0  0  0  0  0  0  0  0  0  0
   57.9420   27.6510   45.0290 C   0  0  0  0  0  0  0  0  0  0  0  0
   59.3300   27.7740   45.1890 C   0  0  0  0  0  0  0  0  0  0  0  0
   60.0330   26.8600   45.9760 C   0  0  0  0  0  0  0  0  0  0  0  0
   59.3600   25.8010   46.5920 C   0  0  0  0  0  0  0  0  0  0  0  0
   57.9770   25.6550   46.4270 C   0  0  0  0  0  0  0  0  0  0  0  0
   57.1330   24.2830   47.1420 S   0  0  0  0  0  0  0  0  0  0  0  0
   57.7110   22.8150   46.4260 N   0  0  0  0  0  0  0  0  0  0  0  0
   55.6520   24.4130   46.8950 O   0  0  0  0  0  0  0  0  0  0  0  0
   57.3800   24.2510   48.6280 O   0  0  0  0  0  0  0  0  0  0  0  0
   57.2720   26.5800   45.6500 C   0  0  0  0  0  0  0  0  0  0  0  0
   57.9100   34.0000   45.0710 C   0  0  0  0  0  0  0  0  0  0  0  0
   58.9660   34.8470   45.3960 C   0  0  0  0  0  0  0  0  0  0  0  0
   60.0730   34.3630   46.0860 C   0  0  0  0  0  0  0  0  0  0  0  0
   60.1530   33.0040   46.4550 C   0  0  0  0  0  0  0  0  0  0  0  0
   63.0376   29.7727   52.3483 H   0  0  0  0  0  0  0  0  0  0  0  0
   62.2062   29.3372   50.8166 H   0  0  0  0  0  0  0  0  0  0  0  0
   63.9708   29.6732   50.8166 H   0  0  0  0  0  0  0  0  0  0  0  0
   60.3669   30.1730   51.6080 H   0  0  0  0  0  0  0  0  0  0  0  0
   58.1292   31.2004   51.2353 H   0  0  0  0  0  0  0  0  0  0  0  0
   57.9472   33.4711   50.2232 H   0  0  0  0  0  0  0  0  0  0  0  0
   60.0011   34.7160   49.5686 H   0  0  0  0  0  0  0  0  0  0  0  0
   62.6289   34.8451   50.4226 H   0  0  0  0  0  0  0  0  0  0  0  0
   63.4827   33.3130   50.0408 H   0  0  0  0  0  0  0  0  0  0  0  0
   62.1080   30.7384   48.1457 H   0  0  0  0  0  0  0  0  0  0  0  0
   60.1545   29.2827   47.6684 H   0  0  0  0  0  0  0  0  0  0  0  0
   58.2204   30.1553   46.3755 H   0  0  0  0  0  0  0  0  0  0  0  0
   55.6476   30.6138   43.9909 H   0  0  0  0  0  0  0  0  0  0  0  0
   56.8111   31.6888   43.1385 H   0  0  0  0  0  0  0  0  0  0  0  0
   56.3430   28.2570   43.7360 H   0  0  0  0  0  0  0  0  0  0  0  0
   59.8674   28.5949   44.6918 H   0  0  0  0  0  0  0  0  0  0  0  0
   61.1187   26.9734   46.1116 H   0  0  0  0  0  0  0  0  0  0  0  0
   59.9181   25.0805   47.2079 H   0  0  0  0  0  0  0  0  0  0  0  0
   57.5470   22.0510   47.1170 H   0  0  0  0  0  0  0  0  0  0  0  0
   56.1849   26.4696   45.5231 H   0  0  0  0  0  0  0  0  0  0  0  0
   57.0568   34.3888   44.4958 H   0  0  0  0  0  0  0  0  0  0  0  0
   58.9249   35.9070   45.1050 H   0  0  0  0  0  0  0  0  0  0  0  0
   60.8941   35.0471   46.3464 H   0  0  0  0  0  0  0  0  0  0  0  0
  1  2  1  0
  2  3  1  0
  3  4  2  0
  4  5  1  0
  5  6  2  0
  6  7  1  0
  7  8  2  0
  8  9  1  0
  9 10  1  0
 10 11  1  0
 11 12  2  0
 11 13  1  0
 13 14  2  0
 14 15  1  0
 15 16  2  0
 16 17  1  0
 17 18  2  0
 18 19  1  0
 19 20  1  0
 20 21  1  0
 21 22  2  0
 21 23  1  0
 23 24  1  0
 24 25  2  0
 25 26  1  0
 26 27  2  0
 27 28  1  0
 28 29  1  0
 29 30  1  0
 29 31  2  0
 29 32  2  0
 28 33  2  0
 18 34  1  0
 34 35  2  0
 35 36  1  0
 36 37  2  0
  8  3  1  0
 37 13  1  0
 37 17  1  0
 33 24  1  0
  1 38  1  0
  1 39  1  0
  1 40  1  0
  4 41  1  0
  5 42  1  0
  6 43  1  0
  7 44  1  0
  9 45  1  0
  9 46  1  0
 14 47  1  0
 15 48  1  0
 16 49  1  0
 20 50  1  0
 20 51  1  0
 23 52  1  0
 25 53  1  0
 26 54  1  0
 27 55  1  0
 30 56  1  0
 33 57  1  0
 34 58  1  0
 35 59  1  0
 36 60  1  0
M  CHG  2  10  -1  30  -1
M  END
>  <UniqueID>  (57) 
49

>  <SMILES>  (57) 
COc1ccccc1C[N-]C(=O)c1cccc2c(OCC(=O)Nc3cccc(S([NH-])(=O)=O)c3)cccc12

>  <Energy>  (57) 
73.50642012955082

>  <Genealogy>  (57) 
COc1ccccc1C[N-]C(=O)c1cccc2c(OCC(=O)Nc3cccc(S([NH-])(=O)=O)c3)cccc12 (protonated)
COc1ccccc1C[N-]C(=O)c1cccc2c(OCC(=O)Nc3cccc(S([NH-])(=O)=O)c3)cccc12 (3D coordinates assigned)
COc1ccccc1C[N-]C(=O)c1cccc2c(OCC(=O)Nc3cccc(S([NH-])(=O)=O)c3)cccc12 (optimized conformer: 73.50642012955082 kcal/mol)

>  <smiles>  (57) 
COc1ccccc1CNC(=O)c1cccc2c(OCC(=O)Nc3cccc(S(N)(=O)=O)c3)cccc12

>  <score_type>  (57) 
oracle

>  <origin>  (57) 
adg

>  <m_score__min__energy>  (57) 
-14.51

>  <m_primary>  (57) 
energy

$$$$
57:0
     RDKit          3D

 41 42  0  0  0  0  0  0  0  0999 V2000
   54.3393   29.6290   44.1191 H   0  0  0  0  0  0  0  0  0  0  0  0
   55.4040   29.6930   44.3880 C   0  0  0  0  0  0  0  0  0  0  0  0
   55.9420   28.7870   45.2340 N   0  0  0  0  0  0  0  0  0  0  0  0
   57.2550   28.8100   45.5740 C   0  0  0  0  0  0  0  0  0  0  0  0
   57.7340   27.8170   46.4370 C   0  0  0  0  0  0  0  0  0  0  0  0
   57.0396   27.0708   46.8505 H   0  0  0  0  0  0  0  0  0  0  0  0
   59.0830   27.7680   46.7750 C   0  0  0  0  0  0  0  0  0  0  0  0
   59.6750   26.5160   47.8530 Cl  0  0  0  0  0  0  0  0  0  0  0  0
   59.9640   28.7000   46.2360 C   0  0  0  0  0  0  0  0  0  0  0  0
   61.0332   28.6501   46.4897 H   0  0  0  0  0  0  0  0  0  0  0  0
   59.5020   29.6990   45.3750 C   0  0  0  0  0  0  0  0  0  0  0  0
   60.2190   30.4134   44.9442 H   0  0  0  0  0  0  0  0  0  0  0  0
   58.1290   29.8100   45.0460 C   0  0  0  0  0  0  0  0  0  0  0  0
   57.5510   30.8150   44.1920 C   0  0  0  0  0  0  0  0  0  0  0  0
   58.1480   31.8760   43.7070 N   0  0  0  0  0  0  0  0  0  0  0  0
   58.2120   33.2920   44.0670 C   0  0  0  0  0  0  0  0  0  0  0  0
   57.3661   33.8164   43.5986 H   0  0  0  0  0  0  0  0  0  0  0  0
   59.1731   33.6908   43.7104 H   0  0  0  0  0  0  0  0  0  0  0  0
   58.1450   33.5020   45.5930 C   0  0  0  0  0  0  0  0  0  0  0  0
   58.3561   32.5413   46.0854 H   0  0  0  0  0  0  0  0  0  0  0  0
   57.1370   33.8783   45.8218 H   0  0  0  0  0  0  0  0  0  0  0  0
   59.1450   34.5470   46.1180 C   0  0  0  0  0  0  0  0  0  0  0  0
   58.8111   35.5444   45.7960 H   0  0  0  0  0  0  0  0  0  0  0  0
   60.1331   34.2923   45.7072 H   0  0  0  0  0  0  0  0  0  0  0  0
   59.2690   34.5430   47.6480 C   0  0  0  0  0  0  0  0  0  0  0  0
   58.4986   33.8812   48.0705 H   0  0  0  0  0  0  0  0  0  0  0  0
   59.1341   35.5711   48.0153 H   0  0  0  0  0  0  0  0  0  0  0  0
   60.5890   34.0670   48.0610 N   0  0  0  0  0  0  0  0  0  0  0  0
   61.2630   34.7180   48.5230 H   0  0  0  0  0  0  0  0  0  0  0  0
   61.0010   32.7150   47.8430 C   0  0  0  0  0  0  0  0  0  0  0  0
   60.2210   31.8940   47.2850 O   0  0  0  0  0  0  0  0  0  0  0  0
   62.2740   32.3130   48.2530 O   0  0  0  0  0  0  0  0  0  0  0  0
   63.4270   32.4450   47.4270 C   0  0  0  0  0  0  0  0  0  0  0  0
   63.4528   31.6200   46.6999 H   0  0  0  0  0  0  0  0  0  0  0  0
   64.3308   32.4122   48.0532 H   0  0  0  0  0  0  0  0  0  0  0  0
   63.3740   33.7710   46.6860 C   0  0  0  0  0  0  0  0  0  0  0  0
   63.3410   34.5961   47.4127 H   0  0  0  0  0  0  0  0  0  0  0  0
   64.2687   33.8742   46.0545 H   0  0  0  0  0  0  0  0  0  0  0  0
   62.4739   33.8024   46.0545 H   0  0  0  0  0  0  0  0  0  0  0  0
   56.1930   30.7040   43.8580 C   0  0  0  0  0  0  0  0  0  0  0  0
   55.7459   31.4310   43.1640 H   0  0  0  0  0  0  0  0  0  0  0  0
  1  2  1  0
  2  3  1  0
  3  4  1  0
  4  5  2  0
  5  6  1  0
  5  7  1  0
  7  8  1  0
  7  9  2  0
  9 10  1  0
  9 11  1  0
 11 12  1  0
 11 13  2  0
 13 14  1  0
 14 15  2  0
 15 16  1  0
 16 17  1  0
 16 18  1  0
 16 19  1  0
 19 20  1  0
 19 21  1  0
 19 22  1  0
 22 23  1  0
 22 24  1  0
 22 25  1  0
 25 26  1  0
 25 27  1  0
 25 28  1  0
 28 29  1  0
 28 30  1  0
 30 31  2  0
 30 32  1  0
 32 33  1  0
 33 34  1  0
 33 35  1  0
 33 36  1  0
 36 37  1  0
 36 38  1  0
 36 39  1  0
 14 40  1  0
 40 41  1  0
 40  2  2  0
 13  4  1  0
M  CHG  1   3  -1
M  END
>  <UniqueID>  (58) 
50

>  <SMILES>  (58) 
CCOC(=O)NCCCC/N=c1/cc[n-]c2cc(Cl)ccc12

>  <Energy>  (58) 
49.9910654607102

>  <Genealogy>  (58) 
CCOC(=O)NCCCCN=c1cc[n-]c2cc(Cl)ccc12 (protonated)
CCOC(=O)NCCCC/N=c1/cc[n-]c2cc(Cl)ccc12 (cis-trans isomerization)
CCOC(=O)NCCCC/N=c1/cc[n-]c2cc(Cl)ccc12 (3D coordinates assigned)
CCOC(=O)NCCCC/N=c1/cc[n-]c2cc(Cl)ccc12 (optimized conformer: 49.9910654607102 kcal/mol)

>  <smiles>  (58) 
CCOC(=O)NCCCCN=c1cc[nH]c2cc(Cl)ccc12

>  <score_type>  (58) 
oracle

>  <origin>  (58) 
adg

>  <m_score__min__energy>  (58) 
-8.3100000000000005

>  <m_primary>  (58) 
energy

$$$$
58:0
     RDKit          3D

 61 64  0  0  0  0  0  0  0  0999 V2000
   60.2230   34.6150   48.6430 C   0  0  0  0  0  0  0  0  0  0  0  0
   59.7440   34.8590   47.3250 O   0  0  0  0  0  0  0  0  0  0  0  0
   58.9660   33.9580   46.5820 C   0  0  0  0  0  0  0  0  0  0  0  0
   58.5470   32.7760   47.2010 C   0  0  0  0  0  0  0  0  0  0  0  0
   57.7770   31.8430   46.5020 C   0  0  0  0  0  0  0  0  0  0  0  0
   57.3960   32.0830   45.1770 C   0  0  0  0  0  0  0  0  0  0  0  0
   56.6360   31.0730   44.4930 N   0  0  0  0  0  0  0  0  0  0  0  0
   56.4460   29.7070   44.8820 C   0  0  0  0  0  0  0  0  0  0  0  0
   55.3050   29.1730   44.8240 O   0  0  0  0  0  0  0  0  0  0  0  0
   57.5590   28.9700   45.4040 N   0  0  0  0  0  0  0  0  0  0  0  0
   57.4760   27.5780   45.7450 C   0  0  0  0  0  0  0  0  0  0  0  0
   56.2180   26.9590   45.7350 C   0  0  0  0  0  0  0  0  0  0  0  0
   56.0940   25.5970   46.0140 C   0  0  0  0  0  0  0  0  0  0  0  0
   54.8020   24.9900   45.9760 N   0  0  0  0  0  0  0  0  0  0  0  0
   54.5130   23.4750   45.1870 S   0  0  0  0  0  0  0  0  0  0  0  0
   55.4270   23.3430   43.6640 C   0  0  0  0  0  0  0  0  0  0  0  0
   53.0470   23.3660   44.8790 O   0  0  0  0  0  0  0  0  0  0  0  0
   54.9010   22.3530   46.1090 O   0  0  0  0  0  0  0  0  0  0  0  0
   57.2370   24.8340   46.2750 C   0  0  0  0  0  0  0  0  0  0  0  0
   58.4920   25.4400   46.3080 C   0  0  0  0  0  0  0  0  0  0  0  0
   58.6280   26.8190   46.0710 C   0  0  0  0  0  0  0  0  0  0  0  0
   59.9630   27.4440   46.2080 C   0  0  0  0  0  0  0  0  0  0  0  0
   60.9750   26.7220   46.4140 O   0  0  0  0  0  0  0  0  0  0  0  0
   60.1050   28.8620   46.0400 N   0  0  0  0  0  0  0  0  0  0  0  0
   60.5270   29.8100   47.0340 C   0  0  0  0  0  0  0  0  0  0  0  0
   61.6440   30.6390   46.8470 C   0  0  0  0  0  0  0  0  0  0  0  0
   62.0560   31.5340   47.8480 C   0  0  0  0  0  0  0  0  0  0  0  0
   63.2690   32.4030   47.5550 C   0  0  0  0  0  0  0  0  0  0  0  0
   63.3470   33.7660   48.2240 C   0  0  0  0  0  0  0  0  0  0  0  0
   63.0260   33.6630   46.7400 C   0  0  0  0  0  0  0  0  0  0  0  0
   61.3320   31.5800   49.0580 C   0  0  0  0  0  0  0  0  0  0  0  0
   60.2420   30.7210   49.2740 C   0  0  0  0  0  0  0  0  0  0  0  0
   59.4640   30.8010   50.5660 C   0  0  0  0  0  0  0  0  0  0  0  0
   59.5010   32.1010   51.0380 F   0  0  0  0  0  0  0  0  0  0  0  0
   60.0190   29.9610   51.5160 F   0  0  0  0  0  0  0  0  0  0  0  0
   58.1450   30.4280   50.3760 F   0  0  0  0  0  0  0  0  0  0  0  0
   59.8380   29.8520   48.2470 C   0  0  0  0  0  0  0  0  0  0  0  0
   57.8210   33.2690   44.5470 C   0  0  0  0  0  0  0  0  0  0  0  0
   58.5980   34.2000   45.2440 C   0  0  0  0  0  0  0  0  0  0  0  0
   59.4907   34.9880   49.3742 H   0  0  0  0  0  0  0  0  0  0  0  0
   60.3666   33.5339   48.7867 H   0  0  0  0  0  0  0  0  0  0  0  0
   61.1819   35.1345   48.7867 H   0  0  0  0  0  0  0  0  0  0  0  0
   58.8259   32.5793   48.2467 H   0  0  0  0  0  0  0  0  0  0  0  0
   57.4674   30.9111   46.9978 H   0  0  0  0  0  0  0  0  0  0  0  0
   58.4030   29.5050   45.7110 H   0  0  0  0  0  0  0  0  0  0  0  0
   55.3206   27.5521   45.5052 H   0  0  0  0  0  0  0  0  0  0  0  0
   56.4929   23.1891   43.8882 H   0  0  0  0  0  0  0  0  0  0  0  0
   55.0479   22.4903   43.0816 H   0  0  0  0  0  0  0  0  0  0  0  0
   55.3047   24.2681   43.0816 H   0  0  0  0  0  0  0  0  0  0  0  0
   57.1453   23.7527   46.4547 H   0  0  0  0  0  0  0  0  0  0  0  0
   59.3844   24.8334   46.5215 H   0  0  0  0  0  0  0  0  0  0  0  0
   62.2052   30.5870   45.9023 H   0  0  0  0  0  0  0  0  0  0  0  0
   63.9469   31.5398   47.4827 H   0  0  0  0  0  0  0  0  0  0  0  0
   62.5670   34.0751   48.9354 H   0  0  0  0  0  0  0  0  0  0  0  0
   64.1024   34.2973   48.8216 H   0  0  0  0  0  0  0  0  0  0  0  0
   62.0139   33.8977   46.3785 H   0  0  0  0  0  0  0  0  0  0  0  0
   63.4532   34.0891   45.8202 H   0  0  0  0  0  0  0  0  0  0  0  0
   61.6242   32.2960   49.8403 H   0  0  0  0  0  0  0  0  0  0  0  0
   58.9680   29.1966   48.4007 H   0  0  0  0  0  0  0  0  0  0  0  0
   57.5404   33.4640   43.5014 H   0  0  0  0  0  0  0  0  0  0  0  0
   58.9230   35.1250   44.7453 H   0  0  0  0  0  0  0  0  0  0  0  0
  1  2  1  0
  2  3  1  0
  3  4  2  0
  4  5  1  0
  5  6  2  0
  6  7  1  0
  7  8  1  0
  8  9  2  0
  8 10  1  0
 10 11  1  0
 11 12  2  0
 12 13  1  0
 13 14  1  0
 14 15  1  0
 15 16  1  0
 15 17  2  0
 15 18  2  0
 13 19  2  0
 19 20  1  0
 20 21  2  0
 21 22  1  0
 22 23  2  0
 22 24  1  0
 24 25  1  0
 25 26  2  0
 26 27  1  0
 27 28  1  0
 28 29  1  0
 29 30  1  0
 27 31  2  0
 31 32  1  0
 32 33  1  0
 33 34  1  0
 33 35  1  0
 33 36  1  0
 32 37  2  0
  6 38  1  0
 38 39  2  0
 39  3  1  0
 21 11  1  0
 37 25  1  0
 30 28  1  0
  1 40  1  0
  1 41  1  0
  1 42  1  0
  4 43  1  0
  5 44  1  0
 10 45  1  0
 12 46  1  0
 16 47  1  0
 16 48  1  0
 16 49  1  0
 19 50  1  0
 20 51  1  0
 26 52  1  0
 28 53  1  0
 29 54  1  0
 29 55  1  0
 30 56  1  0
 30 57  1  0
 31 58  1  0
 37 59  1  0
 38 60  1  0
 39 61  1  0
M  CHG  3   7  -1  14  -1  24  -1
M  END
>  <UniqueID>  (59) 
51

>  <SMILES>  (59) 
COc1ccc([N-]C(=O)Nc2cc([N-]S(C)(=O)=O)ccc2C(=O)[N-]c2cc(C3CC3)cc(C(F)(F)F)c2)cc1

>  <Energy>  (59) 
349.1662453197678

>  <Genealogy>  (59) 
COc1ccc([N-]C(=O)Nc2cc([N-]S(C)(=O)=O)ccc2C(=O)[N-]c2cc(C3CC3)cc(C(F)(F)F)c2)cc1 (protonated)
COc1ccc([N-]C(=O)Nc2cc([N-]S(C)(=O)=O)ccc2C(=O)[N-]c2cc(C3CC3)cc(C(F)(F)F)c2)cc1 (3D coordinates assigned)
COc1ccc([N-]C(=O)Nc2cc([N-]S(C)(=O)=O)ccc2C(=O)[N-]c2cc(C3CC3)cc(C(F)(F)F)c2)cc1 (nonaromatic ring conformer: 349.1662453197678 kcal/mol)

>  <smiles>  (59) 
COc1ccc(NC(=O)Nc2cc(NS(C)(=O)=O)ccc2C(=O)Nc2cc(C3CC3)cc(C(F)(F)F)c2)cc1

>  <score_type>  (59) 
oracle

>  <origin>  (59) 
adg

>  <m_score__min__energy>  (59) 
-14.16

>  <m_primary>  (59) 
energy

$$$$
59:0
     RDKit          3D

 53 56  0  0  0  0  0  0  0  0999 V2000
   55.7570   30.8450   52.3780 C   0  0  0  0  0  0  0  0  0  0  0  0
   56.8770   30.0610   51.9690 O   0  0  0  0  0  0  0  0  0  0  0  0
   57.9890   30.5720   51.2860 C   0  0  0  0  0  0  0  0  0  0  0  0
   59.0370   29.7490   50.8300 C   0  0  0  0  0  0  0  0  0  0  0  0
   60.1360   30.3100   50.1720 C   0  0  0  0  0  0  0  0  0  0  0  0
   60.1920   31.6910   49.9330 C   0  0  0  0  0  0  0  0  0  0  0  0
   61.3440   32.2330   49.2740 N   0  0  0  0  0  0  0  0  0  0  0  0
   61.5560   32.2820   47.5520 S   0  0  0  0  0  0  0  0  0  0  0  0
   62.7110   31.4000   47.1760 O   0  0  0  0  0  0  0  0  0  0  0  0
   61.8730   33.6760   47.0860 O   0  0  0  0  0  0  0  0  0  0  0  0
   60.0950   31.6860   46.7740 C   0  0  0  0  0  0  0  0  0  0  0  0
   59.2240   32.5750   46.1310 C   0  0  0  0  0  0  0  0  0  0  0  0
   58.0600   32.1020   45.5150 C   0  0  0  0  0  0  0  0  0  0  0  0
   57.7540   30.7390   45.5440 C   0  0  0  0  0  0  0  0  0  0  0  0
   56.6180   30.2860   44.9490 N   0  0  0  0  0  0  0  0  0  0  0  0
   56.2750   28.9720   44.9590 C   0  0  0  0  0  0  0  0  0  0  0  0
   57.0860   28.0280   45.6120 C   0  0  0  0  0  0  0  0  0  0  0  0
   56.6920   26.5990   45.6210 C   0  0  0  0  0  0  0  0  0  0  0  0
   55.4990   26.2800   45.8790 O   0  0  0  0  0  0  0  0  0  0  0  0
   57.6640   25.5720   45.3650 N   0  0  0  0  0  0  0  0  0  0  0  0
   57.2950   24.2340   44.9920 C   0  0  0  0  0  0  0  0  0  0  0  0
   56.9040   23.9480   43.6690 C   0  0  0  0  0  0  0  0  0  0  0  0
   56.5440   22.6500   43.3040 C   0  0  0  0  0  0  0  0  0  0  0  0
   56.5620   21.6250   44.2540 C   0  0  0  0  0  0  0  0  0  0  0  0
   56.9710   21.8910   45.5650 C   0  0  0  0  0  0  0  0  0  0  0  0
   57.3450   23.1970   45.9440 C   0  0  0  0  0  0  0  0  0  0  0  0
   57.7530   23.5000   47.2560 O   0  0  0  0  0  0  0  0  0  0  0  0
   56.9350   24.1490   48.2250 C   0  0  0  0  0  0  0  0  0  0  0  0
   58.2690   28.4700   46.2400 C   0  0  0  0  0  0  0  0  0  0  0  0
   59.0240   27.6430   46.8230 O   0  0  0  0  0  0  0  0  0  0  0  0
   58.6120   29.8340   46.2070 C   0  0  0  0  0  0  0  0  0  0  0  0
   59.7830   30.3200   46.8180 C   0  0  0  0  0  0  0  0  0  0  0  0
   59.1430   32.5100   50.3820 C   0  0  0  0  0  0  0  0  0  0  0  0
   58.0580   31.9520   51.0640 C   0  0  0  0  0  0  0  0  0  0  0  0
   55.7127   30.8760   53.4767 H   0  0  0  0  0  0  0  0  0  0  0  0
   55.8625   31.8675   51.9863 H   0  0  0  0  0  0  0  0  0  0  0  0
   54.8324   30.3959   51.9863 H   0  0  0  0  0  0  0  0  0  0  0  0
   58.9909   28.6620   50.9919 H   0  0  0  0  0  0  0  0  0  0  0  0
   60.9620   29.6640   49.8397 H   0  0  0  0  0  0  0  0  0  0  0  0
   59.4562   33.6500   46.1102 H   0  0  0  0  0  0  0  0  0  0  0  0
   57.3840   32.8052   45.0065 H   0  0  0  0  0  0  0  0  0  0  0  0
   55.3555   28.6440   44.4522 H   0  0  0  0  0  0  0  0  0  0  0  0
   58.6690   25.7830   45.5640 H   0  0  0  0  0  0  0  0  0  0  0  0
   56.8824   24.7526   42.9193 H   0  0  0  0  0  0  0  0  0  0  0  0
   56.2458   22.4334   42.2676 H   0  0  0  0  0  0  0  0  0  0  0  0
   56.2541   20.6078   43.9704 H   0  0  0  0  0  0  0  0  0  0  0  0
   57.0011   21.0771   46.3044 H   0  0  0  0  0  0  0  0  0  0  0  0
   57.2771   23.8776   49.2346 H   0  0  0  0  0  0  0  0  0  0  0  0
   57.0064   25.2389   48.0943 H   0  0  0  0  0  0  0  0  0  0  0  0
   55.8899   23.8317   48.0943 H   0  0  0  0  0  0  0  0  0  0  0  0
   60.4589   29.6224   47.3342 H   0  0  0  0  0  0  0  0  0  0  0  0
   59.1754   33.5937   50.1964 H   0  0  0  0  0  0  0  0  0  0  0  0
   57.2508   32.6037   51.4296 H   0  0  0  0  0  0  0  0  0  0  0  0
  1  2  1  0
  2  3  1  0
  3  4  2  0
  4  5  1  0
  5  6  2  0
  6  7  1  0
  7  8  1  0
  8  9  2  0
  8 10  2  0
  8 11  1  0
 11 12  2  0
 12 13  1  0
 13 14  2  0
 14 15  1  0
 15 16  1  0
 16 17  2  0
 17 18  1  0
 18 19  2  0
 18 20  1  0
 20 21  1  0
 21 22  2  0
 22 23  1  0
 23 24  2  0
 24 25  1  0
 25 26  2  0
 26 27  1  0
 27 28  1  0
 17 29  1  0
 29 30  2  0
 29 31  1  0
 31 32  2  0
  6 33  1  0
 33 34  2  0
 34  3  1  0
 32 11  1  0
 31 14  1  0
 26 21  1  0
  1 35  1  0
  1 36  1  0
  1 37  1  0
  4 38  1  0
  5 39  1  0
 12 40  1  0
 13 41  1  0
 16 42  1  0
 20 43  1  0
 22 44  1  0
 23 45  1  0
 24 46  1  0
 25 47  1  0
 28 48  1  0
 28 49  1  0
 28 50  1  0
 32 51  1  0
 33 52  1  0
 34 53  1  0
M  CHG  2   7  -1  15  -1
M  END
>  <UniqueID>  (60) 
52

>  <SMILES>  (60) 
COc1ccc([N-]S(=O)(=O)c2ccc3[n-]cc(C(=O)Nc4ccccc4OC)c(=O)c3c2)cc1

>  <Energy>  (60) 
76.254942869501

>  <Genealogy>  (60) 
COc1ccc([N-]S(=O)(=O)c2ccc3[n-]cc(C(=O)Nc4ccccc4OC)c(=O)c3c2)cc1 (protonated)
COc1ccc([N-]S(=O)(=O)c2ccc3[n-]cc(C(=O)Nc4ccccc4OC)c(=O)c3c2)cc1 (3D coordinates assigned)
COc1ccc([N-]S(=O)(=O)c2ccc3[n-]cc(C(=O)Nc4ccccc4OC)c(=O)c3c2)cc1 (optimized conformer: 76.254942869501 kcal/mol)

>  <smiles>  (60) 
COc1ccc(NS(=O)(=O)c2ccc3[nH]cc(C(=O)Nc4ccccc4OC)c(=O)c3c2)cc1

>  <score_type>  (60) 
oracle

>  <origin>  (60) 
adg

>  <m_score__min__energy>  (60) 
-11.630000000000001

>  <m_primary>  (60) 
energy

$$$$
60:0
     RDKit          3D

 43 44  0  0  0  0  0  0  0  0999 V2000
   66.7230   32.4770   50.4320 C   0  0  0  0  0  0  0  0  0  0  0  0
   65.2510   32.3430   50.0620 C   0  0  0  0  0  0  0  0  0  0  0  0
   64.9040   33.2600   49.0240 O   0  0  0  0  0  0  0  0  0  0  0  0
   63.6470   33.3640   48.4090 C   0  0  0  0  0  0  0  0  0  0  0  0
   63.6020   33.7060   47.0520 C   0  0  0  0  0  0  0  0  0  0  0  0
   62.3790   33.8220   46.3850 C   0  0  0  0  0  0  0  0  0  0  0  0
   61.1730   33.6040   47.0740 C   0  0  0  0  0  0  0  0  0  0  0  0
   59.9020   33.6870   46.4060 N   0  0  0  0  0  0  0  0  0  0  0  0
   59.4150   34.8710   45.7550 C   0  0  0  0  0  0  0  0  0  0  0  0
   59.9860   35.9820   45.9310 O   0  0  0  0  0  0  0  0  0  0  0  0
   58.1760   34.8150   44.9140 C   0  0  0  0  0  0  0  0  0  0  0  0
   57.5440   33.5060   45.0330 N   0  0  0  0  0  0  0  0  0  0  0  0
   57.8010   32.4130   44.1430 C   0  0  0  0  0  0  0  0  0  0  0  0
   58.2190   32.6400   42.9750 O   0  0  0  0  0  0  0  0  0  0  0  0
   57.5700   31.0200   44.5900 C   0  0  0  0  0  0  0  0  0  0  0  0
   58.4510   30.4010   45.4960 C   0  0  0  0  0  0  0  0  0  0  0  0
   58.2340   29.0830   45.9080 C   0  0  0  0  0  0  0  0  0  0  0  0
   57.1310   28.3660   45.4290 C   0  0  0  0  0  0  0  0  0  0  0  0
   56.8590   26.7000   45.9300 S   0  0  0  0  0  0  0  0  0  0  0  0
   55.1600   26.3880   45.9950 N   0  0  0  0  0  0  0  0  0  0  0  0
   57.4980   25.7560   44.9510 O   0  0  0  0  0  0  0  0  0  0  0  0
   57.4670   26.4750   47.2860 O   0  0  0  0  0  0  0  0  0  0  0  0
   56.2520   28.9740   44.5250 C   0  0  0  0  0  0  0  0  0  0  0  0
   56.4680   30.2890   44.1070 C   0  0  0  0  0  0  0  0  0  0  0  0
   61.2160   33.2380   48.4270 C   0  0  0  0  0  0  0  0  0  0  0  0
   62.4400   33.1250   49.0940 C   0  0  0  0  0  0  0  0  0  0  0  0
   66.8264   32.4864   51.5271 H   0  0  0  0  0  0  0  0  0  0  0  0
   67.2841   31.6262   50.0180 H   0  0  0  0  0  0  0  0  0  0  0  0
   67.1212   33.4151   50.0180 H   0  0  0  0  0  0  0  0  0  0  0  0
   65.0580   31.3168   49.7161 H   0  0  0  0  0  0  0  0  0  0  0  0
   64.6421   32.5684   50.9500 H   0  0  0  0  0  0  0  0  0  0  0  0
   64.5392   33.8854   46.5048 H   0  0  0  0  0  0  0  0  0  0  0  0
   62.3601   34.0848   45.3170 H   0  0  0  0  0  0  0  0  0  0  0  0
   59.2650   32.8610   46.4640 H   0  0  0  0  0  0  0  0  0  0  0  0
   57.4724   35.5901   45.2519 H   0  0  0  0  0  0  0  0  0  0  0  0
   58.4485   34.9872   43.8623 H   0  0  0  0  0  0  0  0  0  0  0  0
   59.3168   30.9584   45.8829 H   0  0  0  0  0  0  0  0  0  0  0  0
   58.9329   28.6071   46.6116 H   0  0  0  0  0  0  0  0  0  0  0  0
   54.7520   27.0660   46.6760 H   0  0  0  0  0  0  0  0  0  0  0  0
   55.3867   28.4132   44.1419 H   0  0  0  0  0  0  0  0  0  0  0  0
   55.7720   30.7570   43.3952 H   0  0  0  0  0  0  0  0  0  0  0  0
   60.2794   33.0381   48.9681 H   0  0  0  0  0  0  0  0  0  0  0  0
   62.4600   32.8482   50.1584 H   0  0  0  0  0  0  0  0  0  0  0  0
  1  2  1  0
  2  3  1  0
  3  4  1  0
  4  5  2  0
  5  6  1  0
  6  7  2  0
  7  8  1  0
  8  9  1  0
  9 10  2  0
  9 11  1  0
 11 12  1  0
 12 13  1  0
 13 14  2  0
 13 15  1  0
 15 16  2  0
 16 17  1  0
 17 18  2  0
 18 19  1  0
 19 20  1  0
 19 21  2  0
 19 22  2  0
 18 23  1  0
 23 24  2  0
  7 25  1  0
 25 26  2  0
 26  4  1  0
 24 15  1  0
  1 27  1  0
  1 28  1  0
  1 29  1  0
  2 30  1  0
  2 31  1  0
  5 32  1  0
  6 33  1  0
  8 34  1  0
 11 35  1  0
 11 36  1  0
 16 37  1  0
 17 38  1  0
 20 39  1  0
 23 40  1  0
 24 41  1  0
 25 42  1  0
 26 43  1  0
M  CHG  2  12  -1  20  -1
M  END
>  <UniqueID>  (61) 
53

>  <SMILES>  (61) 
CCOc1ccc(NC(=O)C[N-]C(=O)c2ccc(S([NH-])(=O)=O)cc2)cc1

>  <Energy>  (61) 
42.06779759683758

>  <Genealogy>  (61) 
CCOc1ccc(NC(=O)C[N-]C(=O)c2ccc(S([NH-])(=O)=O)cc2)cc1 (protonated)
CCOc1ccc(NC(=O)C[N-]C(=O)c2ccc(S([NH-])(=O)=O)cc2)cc1 (3D coordinates assigned)
CCOc1ccc(NC(=O)C[N-]C(=O)c2ccc(S([NH-])(=O)=O)cc2)cc1 (optimized conformer: 42.06779759683758 kcal/mol)

>  <smiles>  (61) 
CCOc1ccc(NC(=O)CNC(=O)c2ccc(S(N)(=O)=O)cc2)cc1

>  <score_type>  (61) 
oracle

>  <origin>  (61) 
adg

>  <m_score__min__energy>  (61) 
-11.73

>  <m_primary>  (61) 
energy

$$$$
61:0
     RDKit          3D

 39 41  0  0  0  0  0  0  0  0999 V2000
   59.6410   33.4700   49.4590 C   0  0  0  0  0  0  0  0  0  0  0  0
   60.9620   33.4360   48.7370 C   0  0  0  0  0  0  0  0  0  0  0  0
   62.0260   34.2200   49.2200 C   0  0  0  0  0  0  0  0  0  0  0  0
   63.2640   34.2110   48.5750 C   0  0  0  0  0  0  0  0  0  0  0  0
   63.4520   33.4330   47.4340 C   0  0  0  0  0  0  0  0  0  0  0  0
   62.4030   32.6600   46.9330 C   0  0  0  0  0  0  0  0  0  0  0  0
   61.1530   32.6490   47.5740 C   0  0  0  0  0  0  0  0  0  0  0  0
   60.0540   31.8560   46.9860 C   0  0  0  0  0  0  0  0  0  0  0  0
   60.1390   30.5310   46.7520 N   0  0  0  0  0  0  0  0  0  0  0  0
   58.9670   30.1260   46.2850 N   0  0  0  0  0  0  0  0  0  0  0  0
   58.7150   28.7870   45.8390 C   0  0  0  0  0  0  0  0  0  0  0  0
   59.2380   27.7200   46.5840 C   0  0  0  0  0  0  0  0  0  0  0  0
   59.0440   26.4020   46.1690 C   0  0  0  0  0  0  0  0  0  0  0  0
   58.3190   26.1360   45.0090 C   0  0  0  0  0  0  0  0  0  0  0  0
   57.7700   27.1860   44.2680 C   0  0  0  0  0  0  0  0  0  0  0  0
   57.9470   28.5180   44.6780 C   0  0  0  0  0  0  0  0  0  0  0  0
   57.1520   29.8090   43.7640 S   0  0  0  0  0  0  0  0  0  0  0  0
   56.5030   29.1850   42.2850 N   0  0  0  0  0  0  0  0  0  0  0  0
   58.1440   30.8930   43.4490 O   0  0  0  0  0  0  0  0  0  0  0  0
   56.0190   30.3810   44.5690 O   0  0  0  0  0  0  0  0  0  0  0  0
   58.1210   31.1700   46.1840 C   0  0  0  0  0  0  0  0  0  0  0  0
   58.7820   32.2910   46.6360 C   0  0  0  0  0  0  0  0  0  0  0  0
   58.2820   33.6350   46.6050 N   0  0  0  0  0  0  0  0  0  0  0  0
   57.0510   33.8410   46.5850 O   0  0  0  0  0  0  0  0  0  0  0  0
   59.1390   34.7010   46.4700 O   0  0  0  0  0  0  0  0  0  0  0  0
   59.8164   33.4655   50.5449 H   0  0  0  0  0  0  0  0  0  0  0  0
   59.0939   34.3825   49.1798 H   0  0  0  0  0  0  0  0  0  0  0  0
   59.0477   32.5868   49.1798 H   0  0  0  0  0  0  0  0  0  0  0  0
   61.8810   34.8452   50.1133 H   0  0  0  0  0  0  0  0  0  0  0  0
   64.0924   34.8188   48.9679 H   0  0  0  0  0  0  0  0  0  0  0  0
   64.4284   33.4280   46.9275 H   0  0  0  0  0  0  0  0  0  0  0  0
   62.5566   32.0539   46.0280 H   0  0  0  0  0  0  0  0  0  0  0  0
   59.8061   27.9240   47.5036 H   0  0  0  0  0  0  0  0  0  0  0  0
   59.4634   25.5728   46.7576 H   0  0  0  0  0  0  0  0  0  0  0  0
   58.1785   25.0971   44.6758 H   0  0  0  0  0  0  0  0  0  0  0  0
   57.1946   26.9678   43.3563 H   0  0  0  0  0  0  0  0  0  0  0  0
   55.5000   29.4740   42.2410 H   0  0  0  0  0  0  0  0  0  0  0  0
   56.5080   28.1440   42.3630 H   0  0  0  0  0  0  0  0  0  0  0  0
   57.0879   31.1337   45.8081 H   0  0  0  0  0  0  0  0  0  0  0  0
  1  2  1  0
  2  3  2  0
  3  4  1  0
  4  5  2  0
  5  6  1  0
  6  7  2  0
  7  8  1  0
  8  9  2  0
  9 10  1  0
 10 11  1  0
 11 12  2  0
 12 13  1  0
 13 14  2  0
 14 15  1  0
 15 16  2  0
 16 17  1  0
 17 18  1  0
 17 19  2  0
 17 20  2  0
 10 21  1  0
 21 22  2  0
 22 23  1  0
 23 24  2  0
 23 25  1  0
  7  2  1  0
 22  8  1  0
 16 11  1  0
  1 26  1  0
  1 27  1  0
  1 28  1  0
  3 29  1  0
  4 30  1  0
  5 31  1  0
  6 32  1  0
 12 33  1  0
 13 34  1  0
 14 35  1  0
 15 36  1  0
 18 37  1  0
 18 38  1  0
 21 39  1  0
M  CHG  2  23   1  25  -1
M  END
>  <UniqueID>  (62) 
54

>  <SMILES>  (62) 
Cc1ccccc1-c1nn(-c2ccccc2S(N)(=O)=O)cc1[N+](=O)[O-]

>  <Energy>  (62) 
86.08043641622876

>  <Genealogy>  (62) 
Cc1ccccc1-c1nn(-c2ccccc2S(N)(=O)=O)cc1[N+](=O)[O-] (3D coordinates assigned)
Cc1ccccc1-c1nn(-c2ccccc2S(N)(=O)=O)cc1[N+](=O)[O-] (optimized conformer: 86.08043641622876 kcal/mol)

>  <smiles>  (62) 
Cc1ccccc1-c1nn(-c2ccccc2S(N)(=O)=O)cc1[N+](=O)[O-]

>  <score_type>  (62) 
oracle

>  <origin>  (62) 
adg

>  <m_score__min__energy>  (62) 
-8.6699999999999999

>  <m_primary>  (62) 
energy

$$$$
62:0
     RDKit          3D

 60 62  0  0  0  0  0  0  0  0999 V2000
   59.9240   34.1500   50.0670 C   0  0  0  0  0  0  0  0  0  0  0  0
   60.5390   33.3440   51.2160 C   0  0  0  0  0  0  0  0  0  0  0  0
   60.1240   31.9260   51.1630 N   0  0  0  0  0  0  0  0  0  0  0  0
   59.0290   31.5500   52.0870 C   0  0  0  0  0  0  0  0  0  0  0  0
   57.6220   31.9110   51.5880 C   0  0  0  0  0  0  0  0  0  0  0  0
   61.2270   30.9380   51.0730 C   0  0  0  0  0  0  0  0  0  0  0  0
   61.4900   30.4090   49.6490 C   0  0  0  0  0  0  0  0  0  0  0  0
   60.9910   31.3740   48.6530 N   0  0  0  0  0  0  0  0  0  0  0  0
   61.8480   32.2160   47.9930 C   0  0  0  0  0  0  0  0  0  0  0  0
   61.4100   33.0630   47.0110 C   0  0  0  0  0  0  0  0  0  0  0  0
   60.0590   33.0810   46.6780 C   0  0  0  0  0  0  0  0  0  0  0  0
   59.4220   34.1570   45.3890 S   0  0  0  0  0  0  0  0  0  0  0  0
   57.7110   33.5230   45.5020 C   0  0  0  0  0  0  0  0  0  0  0  0
   57.5680   32.2910   44.6660 C   0  0  0  0  0  0  0  0  0  0  0  0
   57.9200   32.3080   43.4560 O   0  0  0  0  0  0  0  0  0  0  0  0
   57.0280   31.1010   45.2520 N   0  0  0  0  0  0  0  0  0  0  0  0
   57.5780   29.7810   45.1250 C   0  0  0  0  0  0  0  0  0  0  0  0
   58.2980   29.1870   46.1770 C   0  0  0  0  0  0  0  0  0  0  0  0
   58.7680   27.8690   46.0570 C   0  0  0  0  0  0  0  0  0  0  0  0
   59.6330   27.1090   47.3890 S   0  0  0  0  0  0  0  0  0  0  0  0
   59.8090   28.2230   48.7010 N   0  0  0  0  0  0  0  0  0  0  0  0
   58.8610   25.9130   47.8730 O   0  0  0  0  0  0  0  0  0  0  0  0
   60.9920   26.6710   46.9170 O   0  0  0  0  0  0  0  0  0  0  0  0
   58.5290   27.1500   44.8800 C   0  0  0  0  0  0  0  0  0  0  0  0
   57.8040   27.7300   43.8380 C   0  0  0  0  0  0  0  0  0  0  0  0
   57.3190   29.0370   43.9600 C   0  0  0  0  0  0  0  0  0  0  0  0
   56.4030   29.7310   42.6290 Cl  0  0  0  0  0  0  0  0  0  0  0  0
   59.2110   32.2500   47.3440 N   0  0  0  0  0  0  0  0  0  0  0  0
   59.6600   31.3960   48.3080 C   0  0  0  0  0  0  0  0  0  0  0  0
   58.8360   30.6210   48.8670 O   0  0  0  0  0  0  0  0  0  0  0  0
   62.5040   33.8620   46.4110 C   0  0  0  0  0  0  0  0  0  0  0  0
   63.7550   33.4220   47.1910 C   0  0  0  0  0  0  0  0  0  0  0  0
   63.3180   32.3360   48.1950 C   0  0  0  0  0  0  0  0  0  0  0  0
   59.3051   34.9611   50.4782 H   0  0  0  0  0  0  0  0  0  0  0  0
   60.7267   34.5786   49.4490 H   0  0  0  0  0  0  0  0  0  0  0  0
   59.2987   33.4889   49.4490 H   0  0  0  0  0  0  0  0  0  0  0  0
   61.6353   33.3989   51.1450 H   0  0  0  0  0  0  0  0  0  0  0  0
   60.1874   33.7723   52.1662 H   0  0  0  0  0  0  0  0  0  0  0  0
   59.0695   30.4619   52.2429 H   0  0  0  0  0  0  0  0  0  0  0  0
   59.1895   32.1235   53.0119 H   0  0  0  0  0  0  0  0  0  0  0  0
   56.9597   32.0809   52.4497 H   0  0  0  0  0  0  0  0  0  0  0  0
   57.6725   32.8253   50.9785 H   0  0  0  0  0  0  0  0  0  0  0  0
   57.2261   31.0853   50.9785 H   0  0  0  0  0  0  0  0  0  0  0  0
   62.1480   31.4155   51.4387 H   0  0  0  0  0  0  0  0  0  0  0  0
   60.9245   30.0719   51.6800 H   0  0  0  0  0  0  0  0  0  0  0  0
   62.5714   30.2657   49.5075 H   0  0  0  0  0  0  0  0  0  0  0  0
   60.9665   29.4506   49.5173 H   0  0  0  0  0  0  0  0  0  0  0  0
   57.4801   33.2814   46.5500 H   0  0  0  0  0  0  0  0  0  0  0  0
   57.0151   34.2920   45.1355 H   0  0  0  0  0  0  0  0  0  0  0  0
   58.4938   29.7569   47.0973 H   0  0  0  0  0  0  0  0  0  0  0  0
   58.8490   28.4730   49.0240 H   0  0  0  0  0  0  0  0  0  0  0  0
   60.2300   29.0920   48.3080 H   0  0  0  0  0  0  0  0  0  0  0  0
   58.9138   26.1247   44.7760 H   0  0  0  0  0  0  0  0  0  0  0  0
   57.6132   27.1580   42.9180 H   0  0  0  0  0  0  0  0  0  0  0  0
   62.6113   33.6362   45.3398 H   0  0  0  0  0  0  0  0  0  0  0  0
   62.3229   34.9450   46.4760 H   0  0  0  0  0  0  0  0  0  0  0  0
   64.5049   33.0128   46.4980 H   0  0  0  0  0  0  0  0  0  0  0  0
   64.2040   34.2774   47.7170 H   0  0  0  0  0  0  0  0  0  0  0  0
   63.8199   31.3813   47.9789 H   0  0  0  0  0  0  0  0  0  0  0  0
   63.5794   32.5937   49.2320 H   0  0  0  0  0  0  0  0  0  0  0  0
  1  2  1  0
  2  3  1  0
  3  4  1  0
  4  5  1  0
  3  6  1  0
  6  7  1  0
  7  8  1  0
  8  9  1  0
  9 10  2  0
 10 11  1  0
 11 12  1  0
 12 13  1  0
 13 14  1  0
 14 15  2  0
 14 16  1  0
 16 17  1  0
 17 18  2  0
 18 19  1  0
 19 20  1  0
 20 21  1  0
 20 22  2  0
 20 23  2  0
 19 24  2  0
 24 25  1  0
 25 26  2  0
 26 27  1  0
 11 28  2  0
 28 29  1  0
 29 30  2  0
 10 31  1  0
 31 32  1  0
 32 33  1  0
 29  8  1  0
 33  9  1  0
 26 17  1  0
  1 34  1  0
  1 35  1  0
  1 36  1  0
  2 37  1  0
  2 38  1  0
  4 39  1  0
  4 40  1  0
  5 41  1  0
  5 42  1  0
  5 43  1  0
  6 44  1  0
  6 45  1  0
  7 46  1  0
  7 47  1  0
 13 48  1  0
 13 49  1  0
 18 50  1  0
 21 51  1  0
 21 52  1  0
 24 53  1  0
 25 54  1  0
 31 55  1  0
 31 56  1  0
 32 57  1  0
 32 58  1  0
 33 59  1  0
 33 60  1  0
M  CHG  1  16  -1
M  END
>  <UniqueID>  (63) 
55

>  <SMILES>  (63) 
CCN(CC)CCn1c2c(c(SCC(=O)[N-]c3cc(S(N)(=O)=O)ccc3Cl)nc1=O)CCC2

>  <Energy>  (63) 
73.1297454100087

>  <Genealogy>  (63) 
CCN(CC)CCn1c2c(c(SCC(=O)[N-]c3cc(S(N)(=O)=O)ccc3Cl)nc1=O)CCC2 (protonated)
CCN(CC)CCn1c2c(c(SCC(=O)[N-]c3cc(S(N)(=O)=O)ccc3Cl)nc1=O)CCC2 (3D coordinates assigned)
CCN(CC)CCn1c2c(c(SCC(=O)[N-]c3cc(S(N)(=O)=O)ccc3Cl)nc1=O)CCC2 (nonaromatic ring conformer: 73.1297454100087 kcal/mol)

>  <smiles>  (63) 
CCN(CC)CCn1c2c(c(SCC(=O)Nc3cc(S(N)(=O)=O)ccc3Cl)nc1=O)CCC2

>  <score_type>  (63) 
oracle

>  <origin>  (63) 
adg

>  <m_score__min__energy>  (63) 
-12.08

>  <m_primary>  (63) 
energy

$$$$
63:0
     RDKit          3D

 45 46  0  0  0  0  0  0  0  0999 V2000
   60.1850   29.8050   48.8350 C   0  0  0  0  0  0  0  0  0  0  0  0
   61.5000   30.2510   48.5240 O   0  0  0  0  0  0  0  0  0  0  0  0
   61.7930   31.4580   47.8690 C   0  0  0  0  0  0  0  0  0  0  0  0
   63.1030   31.9650   47.7720 C   0  0  0  0  0  0  0  0  0  0  0  0
   63.3440   33.1710   47.1090 C   0  0  0  0  0  0  0  0  0  0  0  0
   62.2850   33.8820   46.5380 C   0  0  0  0  0  0  0  0  0  0  0  0
   60.9740   33.3920   46.6290 C   0  0  0  0  0  0  0  0  0  0  0  0
   59.8450   34.1440   45.9780 C   0  0  0  0  0  0  0  0  0  0  0  0
   58.6370   33.2950   45.9130 N   0  0  0  0  0  0  0  0  0  0  0  0
   57.7800   33.4750   47.0990 C   0  0  0  0  0  0  0  0  0  0  0  0
   57.8820   33.4830   44.6550 C   0  0  0  0  0  0  0  0  0  0  0  0
   57.4330   32.1910   44.0280 C   0  0  0  0  0  0  0  0  0  0  0  0
   57.5210   32.0420   42.7800 O   0  0  0  0  0  0  0  0  0  0  0  0
   56.9730   31.1240   44.8680 N   0  0  0  0  0  0  0  0  0  0  0  0
   57.6810   29.9210   45.2030 C   0  0  0  0  0  0  0  0  0  0  0  0
   59.0820   29.8870   45.3370 C   0  0  0  0  0  0  0  0  0  0  0  0
   59.7290   28.6870   45.6450 C   0  0  0  0  0  0  0  0  0  0  0  0
   58.9910   27.5130   45.8090 C   0  0  0  0  0  0  0  0  0  0  0  0
   57.5980   27.5310   45.6590 C   0  0  0  0  0  0  0  0  0  0  0  0
   56.6730   26.0440   45.8410 S   0  0  0  0  0  0  0  0  0  0  0  0
   56.8860   25.0610   44.4360 N   0  0  0  0  0  0  0  0  0  0  0  0
   57.1500   25.2980   47.0540 O   0  0  0  0  0  0  0  0  0  0  0  0
   55.2150   26.3660   46.0140 O   0  0  0  0  0  0  0  0  0  0  0  0
   56.9510   28.7330   45.3420 C   0  0  0  0  0  0  0  0  0  0  0  0
   60.7370   32.1760   47.2930 C   0  0  0  0  0  0  0  0  0  0  0  0
   60.0608   29.7629   49.9272 H   0  0  0  0  0  0  0  0  0  0  0  0
   59.4504   30.5042   48.4091 H   0  0  0  0  0  0  0  0  0  0  0  0
   60.0273   28.8031   48.4091 H   0  0  0  0  0  0  0  0  0  0  0  0
   63.9400   31.4094   48.2200 H   0  0  0  0  0  0  0  0  0  0  0  0
   64.3697   33.5618   47.0363 H   0  0  0  0  0  0  0  0  0  0  0  0
   62.4805   34.8298   46.0151 H   0  0  0  0  0  0  0  0  0  0  0  0
   59.6233   35.0470   46.5657 H   0  0  0  0  0  0  0  0  0  0  0  0
   60.1422   34.4243   44.9567 H   0  0  0  0  0  0  0  0  0  0  0  0
   58.3833   33.3483   48.0100 H   0  0  0  0  0  0  0  0  0  0  0  0
   57.3432   34.4845   47.0860 H   0  0  0  0  0  0  0  0  0  0  0  0
   56.9740   32.7265   47.0860 H   0  0  0  0  0  0  0  0  0  0  0  0
   56.9927   34.0936   44.8702 H   0  0  0  0  0  0  0  0  0  0  0  0
   58.5597   33.9723   43.9399 H   0  0  0  0  0  0  0  0  0  0  0  0
   59.6689   30.8071   45.1990 H   0  0  0  0  0  0  0  0  0  0  0  0
   60.8229   28.6673   45.7586 H   0  0  0  0  0  0  0  0  0  0  0  0
   59.5043   26.5721   46.0565 H   0  0  0  0  0  0  0  0  0  0  0  0
   57.9070   24.8560   44.3590 H   0  0  0  0  0  0  0  0  0  0  0  0
   56.6340   25.6500   43.6100 H   0  0  0  0  0  0  0  0  0  0  0  0
   55.8601   28.7440   45.2010 H   0  0  0  0  0  0  0  0  0  0  0  0
   59.7115   31.7840   47.3611 H   0  0  0  0  0  0  0  0  0  0  0  0
  1  2  1  0
  2  3  1  0
  3  4  2  0
  4  5  1  0
  5  6  2  0
  6  7  1  0
  7  8  1  0
  8  9  1  0
  9 10  1  0
  9 11  1  0
 11 12  1  0
 12 13  2  0
 12 14  1  0
 14 15  1  0
 15 16  2  0
 16 17  1  0
 17 18  2  0
 18 19  1  0
 19 20  1  0
 20 21  1  0
 20 22  2  0
 20 23  2  0
 19 24  2  0
  7 25  2  0
 25  3  1  0
 24 15  1  0
  1 26  1  0
  1 27  1  0
  1 28  1  0
  4 29  1  0
  5 30  1  0
  6 31  1  0
  8 32  1  0
  8 33  1  0
 10 34  1  0
 10 35  1  0
 10 36  1  0
 11 37  1  0
 11 38  1  0
 16 39  1  0
 17 40  1  0
 18 41  1  0
 21 42  1  0
 21 43  1  0
 24 44  1  0
 25 45  1  0
M  CHG  1  14  -1
M  END
>  <UniqueID>  (64) 
56

>  <SMILES>  (64) 
COc1cccc(CN(C)CC(=O)[N-]c2cccc(S(N)(=O)=O)c2)c1

>  <Energy>  (64) 
48.05876465113167

>  <Genealogy>  (64) 
COc1cccc(CN(C)CC(=O)[N-]c2cccc(S(N)(=O)=O)c2)c1 (protonated)
COc1cccc(CN(C)CC(=O)[N-]c2cccc(S(N)(=O)=O)c2)c1 (3D coordinates assigned)
COc1cccc(CN(C)CC(=O)[N-]c2cccc(S(N)(=O)=O)c2)c1 (optimized conformer: 48.05876465113167 kcal/mol)

>  <smiles>  (64) 
COc1cccc(CN(C)CC(=O)Nc2cccc(S(N)(=O)=O)c2)c1

>  <score_type>  (64) 
oracle

>  <origin>  (64) 
adg

>  <m_score__min__energy>  (64) 
-8.9600000000000009

>  <m_primary>  (64) 
energy

$$$$
64:0
     RDKit          3D

 60 63  0  0  0  0  0  0  0  0999 V2000
   55.8520   31.1830   44.5000 O   0  0  0  0  0  0  0  0  0  0  0  0
   56.9740   30.7060   44.3990 C   0  0  0  0  0  0  0  0  0  0  0  0
   57.1270   29.3140   43.8370 C   0  0  0  0  0  0  0  0  0  0  0  0
   58.4420   28.7490   44.1410 N   0  0  0  0  0  0  0  0  0  0  0  0
   58.4440   27.8500   45.6340 S   0  0  0  0  0  0  0  0  0  0  0  0
   59.0240   26.4830   45.3920 O   0  0  0  0  0  0  0  0  0  0  0  0
   57.0250   27.6780   46.0950 O   0  0  0  0  0  0  0  0  0  0  0  0
   59.3540   28.6660   46.9070 C   0  0  0  0  0  0  0  0  0  0  0  0
   59.0450   28.4430   48.2580 C   0  0  0  0  0  0  0  0  0  0  0  0
   59.7770   29.0890   49.2600 C   0  0  0  0  0  0  0  0  0  0  0  0
   60.8180   29.9570   48.9190 C   0  0  0  0  0  0  0  0  0  0  0  0
   61.1320   30.1790   47.5750 C   0  0  0  0  0  0  0  0  0  0  0  0
   60.4030   29.5340   46.5700 C   0  0  0  0  0  0  0  0  0  0  0  0
   58.1420   31.4990   44.7420 N   0  0  0  0  0  0  0  0  0  0  0  0
   58.2590   31.6880   46.2170 C   0  0  0  0  0  0  0  0  0  0  0  0
   57.7140   33.0490   46.6800 C   0  0  0  0  0  0  0  0  0  0  0  0
   58.3810   34.1820   45.9940 N   0  0  0  0  0  0  0  0  0  0  0  0
   59.2670   34.9960   46.8570 C   0  0  0  0  0  0  0  0  0  0  0  0
   60.5160   34.2660   47.3190 C   0  0  0  0  0  0  0  0  0  0  0  0
   61.4730   33.8420   46.3780 C   0  0  0  0  0  0  0  0  0  0  0  0
   62.6330   33.1800   46.7900 C   0  0  0  0  0  0  0  0  0  0  0  0
   62.8440   32.9160   48.1440 C   0  0  0  0  0  0  0  0  0  0  0  0
   61.8890   33.2990   49.0880 C   0  0  0  0  0  0  0  0  0  0  0  0
   60.7240   33.9640   48.6840 C   0  0  0  0  0  0  0  0  0  0  0  0
   59.7810   34.3300   49.6490 O   0  0  0  0  0  0  0  0  0  0  0  0
   59.1790   33.4230   50.5350 C   0  0  0  0  0  0  0  0  0  0  0  0
   59.2160   33.6000   51.9330 C   0  0  0  0  0  0  0  0  0  0  0  0
   58.6110   32.6630   52.7750 C   0  0  0  0  0  0  0  0  0  0  0  0
   57.9690   31.5450   52.2350 C   0  0  0  0  0  0  0  0  0  0  0  0
   57.9290   31.3640   50.8490 C   0  0  0  0  0  0  0  0  0  0  0  0
   58.5330   32.3010   50.0030 C   0  0  0  0  0  0  0  0  0  0  0  0
   58.9640   33.8460   44.6760 C   0  0  0  0  0  0  0  0  0  0  0  0
   58.1220   32.7730   43.9780 C   0  0  0  0  0  0  0  0  0  0  0  0
   56.3516   28.6666   44.2724 H   0  0  0  0  0  0  0  0  0  0  0  0
   57.0235   29.3725   42.7434 H   0  0  0  0  0  0  0  0  0  0  0  0
   58.2266   27.7598   48.5290 H   0  0  0  0  0  0  0  0  0  0  0  0
   59.5328   28.9135   50.3181 H   0  0  0  0  0  0  0  0  0  0  0  0
   61.3905   30.4657   49.7086 H   0  0  0  0  0  0  0  0  0  0  0  0
   61.9525   30.8610   47.3075 H   0  0  0  0  0  0  0  0  0  0  0  0
   60.6531   29.7080   45.5130 H   0  0  0  0  0  0  0  0  0  0  0  0
   58.9920   30.9710   44.4340 H   0  0  0  0  0  0  0  0  0  0  0  0
   57.6927   30.8910   46.7210 H   0  0  0  0  0  0  0  0  0  0  0  0
   59.3275   31.6497   46.4757 H   0  0  0  0  0  0  0  0  0  0  0  0
   56.6358   33.0903   46.4659 H   0  0  0  0  0  0  0  0  0  0  0  0
   57.9118   33.1431   47.7580 H   0  0  0  0  0  0  0  0  0  0  0  0
   59.5761   35.8881   46.2925 H   0  0  0  0  0  0  0  0  0  0  0  0
   58.6910   35.2463   47.7601 H   0  0  0  0  0  0  0  0  0  0  0  0
   61.3063   34.0335   45.3077 H   0  0  0  0  0  0  0  0  0  0  0  0
   63.3804   32.8668   46.0462 H   0  0  0  0  0  0  0  0  0  0  0  0
   63.7632   32.4059   48.4678 H   0  0  0  0  0  0  0  0  0  0  0  0
   62.0521   33.0777   50.1531 H   0  0  0  0  0  0  0  0  0  0  0  0
   59.7221   34.4774   52.3620 H   0  0  0  0  0  0  0  0  0  0  0  0
   58.6401   32.8056   53.8653 H   0  0  0  0  0  0  0  0  0  0  0  0
   57.4954   30.8078   52.9001 H   0  0  0  0  0  0  0  0  0  0  0  0
   57.4227   30.4850   50.4236 H   0  0  0  0  0  0  0  0  0  0  0  0
   58.4999   32.1549   48.9133 H   0  0  0  0  0  0  0  0  0  0  0  0
   58.9903   34.7502   44.0501 H   0  0  0  0  0  0  0  0  0  0  0  0
   59.9831   33.4595   44.8244 H   0  0  0  0  0  0  0  0  0  0  0  0
   57.0838   33.1272   43.8966 H   0  0  0  0  0  0  0  0  0  0  0  0
   58.5463   32.5894   42.9799 H   0  0  0  0  0  0  0  0  0  0  0  0
  1  2  2  0
  2  3  1  0
  3  4  1  0
  4  5  1  0
  5  6  2  0
  5  7  2  0
  5  8  1  0
  8  9  2  0
  9 10  1  0
 10 11  2  0
 11 12  1  0
 12 13  2  0
  2 14  1  0
 14 15  1  0
 15 16  1  0
 16 17  1  0
 17 18  1  0
 18 19  1  0
 19 20  2  0
 20 21  1  0
 21 22  2  0
 22 23  1  0
 23 24  2  0
 24 25  1  0
 25 26  1  0
 26 27  2  0
 27 28  1  0
 28 29  2  0
 29 30  1  0
 30 31  2  0
 17 32  1  0
 32 33  1  0
 13  8  1  0
 33 14  1  0
 24 19  1  0
 31 26  1  0
  3 34  1  0
  3 35  1  0
  9 36  1  0
 10 37  1  0
 11 38  1  0
 12 39  1  0
 13 40  1  0
 14 41  1  0
 15 42  1  0
 15 43  1  0
 16 44  1  0
 16 45  1  0
 18 46  1  0
 18 47  1  0
 20 48  1  0
 21 49  1  0
 22 50  1  0
 23 51  1  0
 27 52  1  0
 28 53  1  0
 29 54  1  0
 30 55  1  0
 31 56  1  0
 32 57  1  0
 32 58  1  0
 33 59  1  0
 33 60  1  0
M  CHG  2   4  -1  14   1
M  END
>  <UniqueID>  (65) 
57

>  <SMILES>  (65) 
O=C(C[N-]S(=O)(=O)c1ccccc1)[NH+]1CCN(Cc2ccccc2Oc2ccccc2)CC1

>  <Energy>  (65) 
87.64017442917117

>  <Genealogy>  (65) 
O=C(C[N-]S(=O)(=O)c1ccccc1)[NH+]1CCN(Cc2ccccc2Oc2ccccc2)CC1 (protonated)
O=C(C[N-]S(=O)(=O)c1ccccc1)[NH+]1CCN(Cc2ccccc2Oc2ccccc2)CC1 (3D coordinates assigned)
O=C(C[N-]S(=O)(=O)c1ccccc1)[NH+]1CCN(Cc2ccccc2Oc2ccccc2)CC1 (nonaromatic ring conformer: 87.64017442917117 kcal/mol)

>  <smiles>  (65) 
O=C(CNS(=O)(=O)c1ccccc1)N1CCN(Cc2ccccc2Oc2ccccc2)CC1

>  <score_type>  (65) 
oracle

>  <origin>  (65) 
adg

>  <m_score__min__energy>  (65) 
-10.369999999999999

>  <m_primary>  (65) 
energy

$$$$
65:0
     RDKit          3D

 47 50  0  0  0  0  0  0  0  0999 V2000
   57.7611   33.0153   44.9643 H   0  0  0  0  0  0  0  0  0  0  0  0
   57.3770   32.2020   44.3310 C   0  0  0  0  0  0  0  0  0  0  0  0
   56.7840   31.1190   44.9020 N   0  0  0  0  0  0  0  0  0  0  0  0
   56.2820   30.0970   44.1550 C   0  0  0  0  0  0  0  0  0  0  0  0
   55.6890   28.9700   44.8180 N   0  0  0  0  0  0  0  0  0  0  0  0
   56.3110   28.0250   45.4660 C   0  0  0  0  0  0  0  0  0  0  0  0
   55.6920   26.8220   45.6190 N   0  0  0  0  0  0  0  0  0  0  0  0
   56.2750   25.7770   46.2690 C   0  0  0  0  0  0  0  0  0  0  0  0
   55.5350   24.4860   46.4190 C   0  0  0  0  0  0  0  0  0  0  0  0
   55.4053   24.2597   47.4876 H   0  0  0  0  0  0  0  0  0  0  0  0
   54.5485   24.5710   45.9398 H   0  0  0  0  0  0  0  0  0  0  0  0
   56.1069   23.6777   45.9398 H   0  0  0  0  0  0  0  0  0  0  0  0
   57.5590   25.9220   46.8100 C   0  0  0  0  0  0  0  0  0  0  0  0
   58.0321   25.0891   47.3508 H   0  0  0  0  0  0  0  0  0  0  0  0
   58.2310   27.1350   46.6550 C   0  0  0  0  0  0  0  0  0  0  0  0
   59.5520   27.3070   47.1830 N   0  0  0  0  0  0  0  0  0  0  0  0
   60.5980   27.8360   46.3030 C   0  0  0  0  0  0  0  0  0  0  0  0
   61.5356   27.2878   46.4774 H   0  0  0  0  0  0  0  0  0  0  0  0
   60.2908   27.7134   45.2539 H   0  0  0  0  0  0  0  0  0  0  0  0
   60.8140   29.3280   46.6020 C   0  0  0  0  0  0  0  0  0  0  0  0
   61.8322   29.6113   46.2971 H   0  0  0  0  0  0  0  0  0  0  0  0
   60.0658   29.9075   46.0412 H   0  0  0  0  0  0  0  0  0  0  0  0
   60.6450   29.6140   48.0390 N   0  0  0  0  0  0  0  0  0  0  0  0
   60.0230   30.8450   48.4640 C   0  0  0  0  0  0  0  0  0  0  0  0
   59.2190   30.8310   49.4360 O   0  0  0  0  0  0  0  0  0  0  0  0
   60.2860   32.1310   47.7860 C   0  0  0  0  0  0  0  0  0  0  0  0
   59.1390   33.2700   47.3130 S   0  0  0  0  0  0  0  0  0  0  0  0
   60.2160   34.3460   46.6030 C   0  0  0  0  0  0  0  0  0  0  0  0
   59.9533   35.3035   46.1295 H   0  0  0  0  0  0  0  0  0  0  0  0
   61.4950   33.8180   46.7170 C   0  0  0  0  0  0  0  0  0  0  0  0
   62.3920   34.3246   46.3314 H   0  0  0  0  0  0  0  0  0  0  0  0
   61.5350   32.5800   47.3690 C   0  0  0  0  0  0  0  0  0  0  0  0
   62.4647   32.0163   47.5357 H   0  0  0  0  0  0  0  0  0  0  0  0
   60.7640   28.4930   48.9840 C   0  0  0  0  0  0  0  0  0  0  0  0
   61.7702   28.0548   48.9099 H   0  0  0  0  0  0  0  0  0  0  0  0
   60.5997   28.8556   50.0094 H   0  0  0  0  0  0  0  0  0  0  0  0
   59.7140   27.4280   48.6400 C   0  0  0  0  0  0  0  0  0  0  0  0
   60.0357   26.4588   49.0490 H   0  0  0  0  0  0  0  0  0  0  0  0
   58.7507   27.7274   49.0786 H   0  0  0  0  0  0  0  0  0  0  0  0
   57.6130   28.1910   45.9770 C   0  0  0  0  0  0  0  0  0  0  0  0
   58.1413   29.1465   45.8436 H   0  0  0  0  0  0  0  0  0  0  0  0
   56.4210   30.1290   42.7570 C   0  0  0  0  0  0  0  0  0  0  0  0
   56.0580   29.2911   42.1437 H   0  0  0  0  0  0  0  0  0  0  0  0
   57.0240   31.2340   42.1540 C   0  0  0  0  0  0  0  0  0  0  0  0
   57.1246   31.2778   41.0595 H   0  0  0  0  0  0  0  0  0  0  0  0
   57.4990   32.2830   42.9420 C   0  0  0  0  0  0  0  0  0  0  0  0
   57.9641   33.1635   42.4747 H   0  0  0  0  0  0  0  0  0  0  0  0
  1  2  1  0
  2  3  2  0
  3  4  1  0
  4  5  1  0
  5  6  2  0
  6  7  1  0
  7  8  1  0
  8  9  1  0
  9 10  1  0
  9 11  1  0
  9 12  1  0
  8 13  2  0
 13 14  1  0
 13 15  1  0
 15 16  1  0
 16 17  1  0
 17 18  1  0
 17 19  1  0
 17 20  1  0
 20 21  1  0
 20 22  1  0
 20 23  1  0
 23 24  1  0
 24 25  2  0
 24 26  1  0
 26 27  1  0
 27 28  1  0
 28 29  1  0
 28 30  2  0
 30 31  1  0
 30 32  1  0
 32 33  1  0
 23 34  1  0
 34 35  1  0
 34 36  1  0
 34 37  1  0
 37 38  1  0
 37 39  1  0
 15 40  2  0
 40 41  1  0
  4 42  2  0
 42 43  1  0
 42 44  1  0
 44 45  1  0
 44 46  2  0
 46 47  1  0
 46  2  1  0
 40  6  1  0
 37 16  1  0
 32 26  2  0
M  CHG  1   7  -1
M  END
>  <UniqueID>  (66) 
58

>  <SMILES>  (66) 
Cc1cc(N2CCN(C(=O)c3cccs3)CC2)c/c(=N\c2ccccn2)[n-]1

>  <Energy>  (66) 
95.57921481228774

>  <Genealogy>  (66) 
Cc1cc(N2CCN(C(=O)c3cccs3)CC2)cc(=Nc2ccccn2)[n-]1 (protonated)
Cc1cc(N2CCN(C(=O)c3cccs3)CC2)c/c(=N\c2ccccn2)[n-]1 (cis-trans isomerization)
Cc1cc(N2CCN(C(=O)c3cccs3)CC2)c/c(=N\c2ccccn2)[n-]1 (3D coordinates assigned)
Cc1cc(N2CCN(C(=O)c3cccs3)CC2)c/c(=N\c2ccccn2)[n-]1 (nonaromatic ring conformer: 95.57921481228774 kcal/mol)

>  <smiles>  (66) 
Cc1cc(N2CCN(C(=O)c3cccs3)CC2)cc(=Nc2ccccn2)[nH]1

>  <score_type>  (66) 
oracle

>  <origin>  (66) 
adg

>  <m_score__min__energy>  (66) 
-10.17

>  <m_primary>  (66) 
energy

$$$$
66:0
     RDKit          3D

 34 35  0  0  0  0  0  0  0  0999 V2000
   56.4510   29.4410   42.6860 N   0  0  0  0  0  0  0  0  0  0  0  0
   56.2360   29.9000   44.0240 C   0  0  0  0  0  0  0  0  0  0  0  0
   55.2300   29.4800   44.6570 O   0  0  0  0  0  0  0  0  0  0  0  0
   57.1770   30.8400   44.6810 C   0  0  0  0  0  0  0  0  0  0  0  0
   57.0240   32.2220   44.5000 C   0  0  0  0  0  0  0  0  0  0  0  0
   57.9130   33.1180   45.0940 C   0  0  0  0  0  0  0  0  0  0  0  0
   58.9790   32.6610   45.8860 C   0  0  0  0  0  0  0  0  0  0  0  0
   59.8770   33.6260   46.4800 N   0  0  0  0  0  0  0  0  0  0  0  0
   61.0130   33.8350   46.0060 O   0  0  0  0  0  0  0  0  0  0  0  0
   59.4710   34.3790   47.5580 O   0  0  0  0  0  0  0  0  0  0  0  0
   59.1300   31.2670   46.0930 C   0  0  0  0  0  0  0  0  0  0  0  0
   60.2110   30.7730   46.8990 N   0  0  0  0  0  0  0  0  0  0  0  0
   60.1280   30.3240   48.2580 C   0  0  0  0  0  0  0  0  0  0  0  0
   59.0820   29.7730   48.6940 O   0  0  0  0  0  0  0  0  0  0  0  0
   61.2670   30.5950   49.1890 C   0  0  0  0  0  0  0  0  0  0  0  0
   62.0610   31.7840   48.7100 C   0  0  0  0  0  0  0  0  0  0  0  0
   63.0210   31.6030   47.6990 C   0  0  0  0  0  0  0  0  0  0  0  0
   63.7480   32.6900   47.2070 C   0  0  0  0  0  0  0  0  0  0  0  0
   63.5200   33.9700   47.7140 C   0  0  0  0  0  0  0  0  0  0  0  0
   62.5600   34.1680   48.7090 C   0  0  0  0  0  0  0  0  0  0  0  0
   61.8240   33.0860   49.2080 C   0  0  0  0  0  0  0  0  0  0  0  0
   60.5080   33.4450   50.5580 Br  0  0  0  0  0  0  0  0  0  0  0  0
   58.2430   30.3730   45.4660 C   0  0  0  0  0  0  0  0  0  0  0  0
   57.3410   29.6300   42.1780 H   0  0  0  0  0  0  0  0  0  0  0  0
   55.7430   28.8260   42.2270 H   0  0  0  0  0  0  0  0  0  0  0  0
   56.1958   32.6029   43.8843 H   0  0  0  0  0  0  0  0  0  0  0  0
   57.7771   34.1986   44.9398 H   0  0  0  0  0  0  0  0  0  0  0  0
   60.8725   30.8030   50.1945 H   0  0  0  0  0  0  0  0  0  0  0  0
   61.9240   29.7133   49.2177 H   0  0  0  0  0  0  0  0  0  0  0  0
   63.2013   30.5971   47.2919 H   0  0  0  0  0  0  0  0  0  0  0  0
   64.5006   32.5367   46.4195 H   0  0  0  0  0  0  0  0  0  0  0  0
   64.0970   34.8240   47.3296 H   0  0  0  0  0  0  0  0  0  0  0  0
   62.3810   35.1794   49.1029 H   0  0  0  0  0  0  0  0  0  0  0  0
   58.3872   29.2899   45.5930 H   0  0  0  0  0  0  0  0  0  0  0  0
  1  2  1  0
  2  3  2  0
  2  4  1  0
  4  5  2  0
  5  6  1  0
  6  7  2  0
  7  8  1  0
  8  9  2  0
  8 10  1  0
  7 11  1  0
 11 12  1  0
 12 13  1  0
 13 14  2  0
 13 15  1  0
 15 16  1  0
 16 17  2  0
 17 18  1  0
 18 19  2  0
 19 20  1  0
 20 21  2  0
 21 22  1  0
 11 23  2  0
 23  4  1  0
 21 16  1  0
  1 24  1  0
  1 25  1  0
  5 26  1  0
  6 27  1  0
 15 28  1  0
 15 29  1  0
 17 30  1  0
 18 31  1  0
 19 32  1  0
 20 33  1  0
 23 34  1  0
M  CHG  3   8   1  10  -1  12  -1
M  END
>  <UniqueID>  (67) 
59

>  <SMILES>  (67) 
NC(=O)c1ccc([N+](=O)[O-])c([N-]C(=O)Cc2ccccc2Br)c1

>  <Energy>  (67) 
42.330127636158245

>  <Genealogy>  (67) 
NC(=O)c1ccc([N+](=O)[O-])c([N-]C(=O)Cc2ccccc2Br)c1 (protonated)
NC(=O)c1ccc([N+](=O)[O-])c([N-]C(=O)Cc2ccccc2Br)c1 (3D coordinates assigned)
NC(=O)c1ccc([N+](=O)[O-])c([N-]C(=O)Cc2ccccc2Br)c1 (optimized conformer: 42.330127636158245 kcal/mol)

>  <smiles>  (67) 
NC(=O)c1ccc([N+](=O)[O-])c(NC(=O)Cc2ccccc2Br)c1

>  <score_type>  (67) 
oracle

>  <origin>  (67) 
adg

>  <m_score__min__energy>  (67) 
-9.7899999999999991

>  <m_primary>  (67) 
energy

$$$$
67:0
     RDKit          3D

 40 42  0  0  0  0  0  0  0  0999 V2000
   54.7750   27.1020   46.5840 H   0  0  0  0  0  0  0  0  0  0  0  0
   55.1230   26.3100   45.9980 N   0  0  0  0  0  0  0  0  0  0  0  0
   56.8430   26.4580   45.9240 S   0  0  0  0  0  0  0  0  0  0  0  0
   57.4320   26.1050   47.2620 O   0  0  0  0  0  0  0  0  0  0  0  0
   57.3860   25.5090   44.8930 O   0  0  0  0  0  0  0  0  0  0  0  0
   57.2750   28.1100   45.4990 C   0  0  0  0  0  0  0  0  0  0  0  0
   56.3290   28.9530   44.9010 C   0  0  0  0  0  0  0  0  0  0  0  0
   55.3171   28.5775   44.6889 H   0  0  0  0  0  0  0  0  0  0  0  0
   56.6660   30.2690   44.5730 C   0  0  0  0  0  0  0  0  0  0  0  0
   55.9246   30.9189   44.0852 H   0  0  0  0  0  0  0  0  0  0  0  0
   57.9490   30.7660   44.8640 C   0  0  0  0  0  0  0  0  0  0  0  0
   58.3410   32.0990   44.5010 N   0  0  0  0  0  0  0  0  0  0  0  0
   58.7370   33.0360   45.3120 C   0  0  0  0  0  0  0  0  0  0  0  0
   59.0530   32.7820   46.5990 N   0  0  0  0  0  0  0  0  0  0  0  0
   59.4050   33.9150   47.2660 C   0  0  0  0  0  0  0  0  0  0  0  0
   59.8120   33.8810   48.7140 C   0  0  0  0  0  0  0  0  0  0  0  0
   60.0796   34.9014   49.0257 H   0  0  0  0  0  0  0  0  0  0  0  0
   58.9585   33.4845   49.2835 H   0  0  0  0  0  0  0  0  0  0  0  0
   60.9640   32.9930   48.9760 N   0  0  0  0  0  0  0  0  0  0  0  0
   60.6240   31.6350   49.4490 C   0  0  0  0  0  0  0  0  0  0  0  0
   61.4028   31.3068   50.1531 H   0  0  0  0  0  0  0  0  0  0  0  0
   59.6324   31.6967   49.9211 H   0  0  0  0  0  0  0  0  0  0  0  0
   60.5210   30.5900   48.3110 C   0  0  0  0  0  0  0  0  0  0  0  0
   60.8345   29.6141   48.7103 H   0  0  0  0  0  0  0  0  0  0  0  0
   59.4749   30.5974   47.9710 H   0  0  0  0  0  0  0  0  0  0  0  0
   61.3490   30.8930   47.1320 N   0  0  0  0  0  0  0  0  0  0  0  0
   60.7700   31.4090   46.4270 H   0  0  0  0  0  0  0  0  0  0  0  0
   62.5130   31.7110   47.4730 C   0  0  0  0  0  0  0  0  0  0  0  0
   63.0983   31.2019   48.2529 H   0  0  0  0  0  0  0  0  0  0  0  0
   63.1278   31.8516   46.5717 H   0  0  0  0  0  0  0  0  0  0  0  0
   62.0660   33.0840   47.9910 C   0  0  0  0  0  0  0  0  0  0  0  0
   62.9255   33.5764   48.4693 H   0  0  0  0  0  0  0  0  0  0  0  0
   61.6947   33.6589   47.1298 H   0  0  0  0  0  0  0  0  0  0  0  0
   59.3430   35.0880   46.5140 C   0  0  0  0  0  0  0  0  0  0  0  0
   59.5768   36.1006   46.8746 H   0  0  0  0  0  0  0  0  0  0  0  0
   58.8480   34.6820   44.9590 S   0  0  0  0  0  0  0  0  0  0  0  0
   58.8990   29.9120   45.4360 C   0  0  0  0  0  0  0  0  0  0  0  0
   59.9183   30.2789   45.6271 H   0  0  0  0  0  0  0  0  0  0  0  0
   58.5620   28.5970   45.7660 C   0  0  0  0  0  0  0  0  0  0  0  0
   59.3093   27.9415   46.2370 H   0  0  0  0  0  0  0  0  0  0  0  0
  1  2  1  0
  2  3  1  0
  3  4  2  0
  3  5  2  0
  3  6  1  0
  6  7  2  0
  7  8  1  0
  7  9  1  0
  9 10  1  0
  9 11  2  0
 11 12  1  0
 12 13  2  0
 13 14  1  0
 14 15  1  0
 15 16  1  0
 16 17  1  0
 16 18  1  0
 16 19  1  0
 19 20  1  0
 20 21  1  0
 20 22  1  0
 20 23  1  0
 23 24  1  0
 23 25  1  0
 23 26  1  0
 26 27  1  0
 26 28  1  0
 28 29  1  0
 28 30  1  0
 28 31  1  0
 31 32  1  0
 31 33  1  0
 15 34  2  0
 34 35  1  0
 34 36  1  0
 11 37  1  0
 37 38  1  0
 37 39  2  0
 39 40  1  0
 39  6  1  0
 36 13  1  0
 31 19  1  0
M  CHG  2   2  -1  14  -1
M  END
>  <UniqueID>  (68) 
60

>  <SMILES>  (68) 
[NH-]S(=O)(=O)c1ccc(/N=c2/[n-]c(CN3CCNCC3)cs2)cc1

>  <Energy>  (68) 
90.93286963476754

>  <Genealogy>  (68) 
[NH-]S(=O)(=O)c1ccc(N=c2[n-]c(CN3CCNCC3)cs2)cc1 (protonated)
[NH-]S(=O)(=O)c1ccc(/N=c2/[n-]c(CN3CCNCC3)cs2)cc1 (cis-trans isomerization)
[NH-]S(=O)(=O)c1ccc(/N=c2/[n-]c(CN3CCNCC3)cs2)cc1 (3D coordinates assigned)
[NH-]S(=O)(=O)c1ccc(/N=c2/[n-]c(CN3CCNCC3)cs2)cc1 (nonaromatic ring conformer: 90.93286963476754 kcal/mol)

>  <smiles>  (68) 
NS(=O)(=O)c1ccc(N=c2[nH]c(CN3CCNCC3)cs2)cc1

>  <score_type>  (68) 
oracle

>  <origin>  (68) 
adg

>  <m_score__min__energy>  (68) 
-11.18

>  <m_primary>  (68) 
energy

$$$$
68:0
     RDKit          3D

 51 54  0  0  0  0  0  0  0  0999 V2000
   60.7470   25.3820   46.1250 O   0  0  0  0  0  0  0  0  0  0  0  0
   59.5960   25.8610   45.9270 C   0  0  0  0  0  0  0  0  0  0  0  0
   58.5100   24.9810   45.5890 N   0  0  0  0  0  0  0  0  0  0  0  0
   58.7130   23.5570   45.3380 C   0  0  0  0  0  0  0  0  0  0  0  0
   57.7070   23.0620   44.3480 C   0  0  0  0  0  0  0  0  0  0  0  0
   57.7240   21.8280   43.7310 C   0  0  0  0  0  0  0  0  0  0  0  0
   56.6320   21.8210   42.8900 C   0  0  0  0  0  0  0  0  0  0  0  0
   56.0200   23.0490   43.0450 C   0  0  0  0  0  0  0  0  0  0  0  0
   56.6860   23.7670   43.9200 O   0  0  0  0  0  0  0  0  0  0  0  0
   59.3890   27.3240   46.0560 C   0  0  0  0  0  0  0  0  0  0  0  0
   58.3360   27.8430   46.8290 C   0  0  0  0  0  0  0  0  0  0  0  0
   58.1450   29.2240   46.9330 C   0  0  0  0  0  0  0  0  0  0  0  0
   59.0030   30.1210   46.2750 C   0  0  0  0  0  0  0  0  0  0  0  0
   58.7920   31.5510   46.3760 N   0  0  0  0  0  0  0  0  0  0  0  0
   57.7590   32.2120   45.5580 C   0  0  0  0  0  0  0  0  0  0  0  0
   57.1550   31.2670   44.5650 C   0  0  0  0  0  0  0  0  0  0  0  0
   57.4750   31.1840   43.2240 C   0  0  0  0  0  0  0  0  0  0  0  0
   56.7060   30.1550   42.7230 C   0  0  0  0  0  0  0  0  0  0  0  0
   55.9660   29.6790   43.7850 C   0  0  0  0  0  0  0  0  0  0  0  0
   56.2570   30.3610   44.8690 O   0  0  0  0  0  0  0  0  0  0  0  0
   59.3910   32.2830   47.5090 C   0  0  0  0  0  0  0  0  0  0  0  0
   60.8610   32.6100   47.3090 C   0  0  0  0  0  0  0  0  0  0  0  0
   61.8820   31.7620   47.7900 C   0  0  0  0  0  0  0  0  0  0  0  0
   63.2260   32.0920   47.6080 C   0  0  0  0  0  0  0  0  0  0  0  0
   63.5760   33.2760   46.9620 C   0  0  0  0  0  0  0  0  0  0  0  0
   62.5820   34.1350   46.4950 C   0  0  0  0  0  0  0  0  0  0  0  0
   61.2300   33.8150   46.6680 C   0  0  0  0  0  0  0  0  0  0  0  0
   60.0260   34.9540   46.0710 Cl  0  0  0  0  0  0  0  0  0  0  0  0
   60.0390   29.5980   45.4780 C   0  0  0  0  0  0  0  0  0  0  0  0
   60.2280   28.2180   45.3720 C   0  0  0  0  0  0  0  0  0  0  0  0
   57.5290   25.3360   45.5990 H   0  0  0  0  0  0  0  0  0  0  0  0
   59.7255   23.3986   44.9383 H   0  0  0  0  0  0  0  0  0  0  0  0
   58.5927   23.0040   46.2813 H   0  0  0  0  0  0  0  0  0  0  0  0
   58.4553   21.0197   43.8791 H   0  0  0  0  0  0  0  0  0  0  0  0
   56.3125   21.0022   42.2286 H   0  0  0  0  0  0  0  0  0  0  0  0
   55.1127   23.3761   42.5161 H   0  0  0  0  0  0  0  0  0  0  0  0
   57.6568   27.1570   47.3563 H   0  0  0  0  0  0  0  0  0  0  0  0
   57.3125   29.6131   47.5376 H   0  0  0  0  0  0  0  0  0  0  0  0
   56.9659   32.5889   46.2205 H   0  0  0  0  0  0  0  0  0  0  0  0
   58.2329   33.0363   45.0049 H   0  0  0  0  0  0  0  0  0  0  0  0
   58.1929   31.8080   42.6715 H   0  0  0  0  0  0  0  0  0  0  0  0
   56.6867   29.7880   41.6862 H   0  0  0  0  0  0  0  0  0  0  0  0
   55.2415   28.8530   43.7321 H   0  0  0  0  0  0  0  0  0  0  0  0
   58.8400   33.2252   47.6453 H   0  0  0  0  0  0  0  0  0  0  0  0
   59.3218   31.6285   48.3904 H   0  0  0  0  0  0  0  0  0  0  0  0
   61.6158   30.8319   48.3135 H   0  0  0  0  0  0  0  0  0  0  0  0
   64.0114   31.4152   47.9757 H   0  0  0  0  0  0  0  0  0  0  0  0
   64.6362   33.5329   46.8205 H   0  0  0  0  0  0  0  0  0  0  0  0
   62.8618   35.0700   45.9875 H   0  0  0  0  0  0  0  0  0  0  0  0
   60.7060   30.2826   44.9335 H   0  0  0  0  0  0  0  0  0  0  0  0
   61.0434   27.8274   44.7455 H   0  0  0  0  0  0  0  0  0  0  0  0
  1  2  2  0
  2  3  1  0
  3  4  1  0
  4  5  1  0
  5  6  2  0
  6  7  1  0
  7  8  2  0
  8  9  1  0
  2 10  1  0
 10 11  2  0
 11 12  1  0
 12 13  2  0
 13 14  1  0
 14 15  1  0
 15 16  1  0
 16 17  2  0
 17 18  1  0
 18 19  2  0
 19 20  1  0
 14 21  1  0
 21 22  1  0
 22 23  2  0
 23 24  1  0
 24 25  2  0
 25 26  1  0
 26 27  2  0
 27 28  1  0
 13 29  1  0
 29 30  2  0
  9  5  1  0
 30 10  1  0
 20 16  1  0
 27 22  1  0
  3 31  1  0
  4 32  1  0
  4 33  1  0
  6 34  1  0
  7 35  1  0
  8 36  1  0
 11 37  1  0
 12 38  1  0
 15 39  1  0
 15 40  1  0
 17 41  1  0
 18 42  1  0
 19 43  1  0
 21 44  1  0
 21 45  1  0
 23 46  1  0
 24 47  1  0
 25 48  1  0
 26 49  1  0
 29 50  1  0
 30 51  1  0
M  END
>  <UniqueID>  (69) 
61

>  <SMILES>  (69) 
O=C(NCc1ccco1)c1ccc(N(Cc2ccco2)Cc2ccccc2Cl)cc1

>  <Energy>  (69) 
111.24300944662338

>  <Genealogy>  (69) 
O=C(NCc1ccco1)c1ccc(N(Cc2ccco2)Cc2ccccc2Cl)cc1 (3D coordinates assigned)
O=C(NCc1ccco1)c1ccc(N(Cc2ccco2)Cc2ccccc2Cl)cc1 (optimized conformer: 111.24300944662338 kcal/mol)

>  <smiles>  (69) 
O=C(NCc1ccco1)c1ccc(N(Cc2ccco2)Cc2ccccc2Cl)cc1

>  <score_type>  (69) 
oracle

>  <origin>  (69) 
adg

>  <m_score__min__energy>  (69) 
-9.0299999999999994

>  <m_primary>  (69) 
energy

$$$$
69:0
     RDKit          3D

 45 47  0  0  0  0  0  0  0  0999 V2000
   56.6990   25.5890   47.4060 O   0  0  0  0  0  0  0  0  0  0  0  0
   56.3480   26.3330   46.4480 C   0  0  0  0  0  0  0  0  0  0  0  0
   54.9930   26.2980   45.9840 N   0  0  0  0  0  0  0  0  0  0  0  0
   54.2980   25.0710   45.6120 C   0  0  0  0  0  0  0  0  0  0  0  0
   55.2810   24.0330   45.1290 C   0  0  0  0  0  0  0  0  0  0  0  0
   55.7330   23.0270   46.0020 C   0  0  0  0  0  0  0  0  0  0  0  0
   56.6620   22.0770   45.5650 C   0  0  0  0  0  0  0  0  0  0  0  0
   57.1380   22.1170   44.2510 C   0  0  0  0  0  0  0  0  0  0  0  0
   56.6860   23.1090   43.3730 C   0  0  0  0  0  0  0  0  0  0  0  0
   55.7640   24.0680   43.8100 C   0  0  0  0  0  0  0  0  0  0  0  0
   57.3310   27.2460   45.8180 C   0  0  0  0  0  0  0  0  0  0  0  0
   58.7050   26.9390   45.8360 C   0  0  0  0  0  0  0  0  0  0  0  0
   59.6320   27.8010   45.2480 C   0  0  0  0  0  0  0  0  0  0  0  0
   59.2010   28.9730   44.6200 C   0  0  0  0  0  0  0  0  0  0  0  0
   57.8360   29.2920   44.5860 C   0  0  0  0  0  0  0  0  0  0  0  0
   57.3090   30.7570   43.7590 S   0  0  0  0  0  0  0  0  0  0  0  0
   56.2690   30.4330   42.7220 O   0  0  0  0  0  0  0  0  0  0  0  0
   58.4970   31.3800   43.0740 O   0  0  0  0  0  0  0  0  0  0  0  0
   56.6490   31.8830   44.9070 N   0  0  0  0  0  0  0  0  0  0  0  0
   57.3280   33.1750   44.7810 C   0  0  0  0  0  0  0  0  0  0  0  0
   58.1780   33.4160   45.9920 C   0  0  0  0  0  0  0  0  0  0  0  0
   59.0040   34.5470   46.0790 C   0  0  0  0  0  0  0  0  0  0  0  0
   59.7450   34.7650   47.2420 C   0  0  0  0  0  0  0  0  0  0  0  0
   59.6510   33.8660   48.3060 C   0  0  0  0  0  0  0  0  0  0  0  0
   58.8070   32.7590   48.1910 C   0  0  0  0  0  0  0  0  0  0  0  0
   58.0930   32.5630   47.0500 N   0  0  0  0  0  0  0  0  0  0  0  0
   56.9050   28.4340   45.1910 C   0  0  0  0  0  0  0  0  0  0  0  0
   53.7597   24.6800   46.4880 H   0  0  0  0  0  0  0  0  0  0  0  0
   53.5897   25.2951   44.8008 H   0  0  0  0  0  0  0  0  0  0  0  0
   55.3539   22.9872   47.0338 H   0  0  0  0  0  0  0  0  0  0  0  0
   57.0182   21.2982   46.2554 H   0  0  0  0  0  0  0  0  0  0  0  0
   57.8676   21.3690   43.9072 H   0  0  0  0  0  0  0  0  0  0  0  0
   57.0559   23.1353   42.3374 H   0  0  0  0  0  0  0  0  0  0  0  0
   55.4171   24.8505   43.1191 H   0  0  0  0  0  0  0  0  0  0  0  0
   59.0507   26.0123   46.3174 H   0  0  0  0  0  0  0  0  0  0  0  0
   60.7043   27.5575   45.2789 H   0  0  0  0  0  0  0  0  0  0  0  0
   59.9340   29.6463   44.1516 H   0  0  0  0  0  0  0  0  0  0  0  0
   56.8560   31.4980   45.8590 H   0  0  0  0  0  0  0  0  0  0  0  0
   57.9633   33.1687   43.8830 H   0  0  0  0  0  0  0  0  0  0  0  0
   56.5781   33.9752   44.6956 H   0  0  0  0  0  0  0  0  0  0  0  0
   59.0671   35.2548   45.2393 H   0  0  0  0  0  0  0  0  0  0  0  0
   60.4020   35.6438   47.3199 H   0  0  0  0  0  0  0  0  0  0  0  0
   60.2348   34.0276   49.2242 H   0  0  0  0  0  0  0  0  0  0  0  0
   58.7197   32.0454   49.0236 H   0  0  0  0  0  0  0  0  0  0  0  0
   55.8354   28.6904   45.1758 H   0  0  0  0  0  0  0  0  0  0  0  0
  1  2  2  0
  2  3  1  0
  3  4  1  0
  4  5  1  0
  5  6  2  0
  6  7  1  0
  7  8  2  0
  8  9  1  0
  9 10  2  0
  2 11  1  0
 11 12  2  0
 12 13  1  0
 13 14  2  0
 14 15  1  0
 15 16  1  0
 16 17  2  0
 16 18  2  0
 16 19  1  0
 19 20  1  0
 20 21  1  0
 21 22  2  0
 22 23  1  0
 23 24  2  0
 24 25  1  0
 25 26  2  0
 15 27  2  0
 10  5  1  0
 27 11  1  0
 26 21  1  0
  4 28  1  0
  4 29  1  0
  6 30  1  0
  7 31  1  0
  8 32  1  0
  9 33  1  0
 10 34  1  0
 12 35  1  0
 13 36  1  0
 14 37  1  0
 19 38  1  0
 20 39  1  0
 20 40  1  0
 22 41  1  0
 23 42  1  0
 24 43  1  0
 25 44  1  0
 27 45  1  0
M  CHG  1   3  -1
M  END
>  <UniqueID>  (70) 
62

>  <SMILES>  (70) 
O=C([N-]Cc1ccccc1)c1cccc(S(=O)(=O)NCc2ccccn2)c1

>  <Energy>  (70) 
43.62667060605858

>  <Genealogy>  (70) 
O=C([N-]Cc1ccccc1)c1cccc(S(=O)(=O)NCc2ccccn2)c1 (protonated)
O=C([N-]Cc1ccccc1)c1cccc(S(=O)(=O)NCc2ccccn2)c1 (3D coordinates assigned)
O=C([N-]Cc1ccccc1)c1cccc(S(=O)(=O)NCc2ccccn2)c1 (optimized conformer: 43.62667060605858 kcal/mol)

>  <smiles>  (70) 
O=C(NCc1ccccc1)c1cccc(S(=O)(=O)NCc2ccccn2)c1

>  <score_type>  (70) 
oracle

>  <origin>  (70) 
adg

>  <m_score__min__energy>  (70) 
-11.35

>  <m_primary>  (70) 
energy

$$$$
70:0
     RDKit          3D

 56 59  0  0  0  0  0  0  0  0999 V2000
   57.7820   29.1370   46.5720 C   0  0  0  0  0  0  0  0  0  0  0  0
   57.5470   29.6970   45.1940 C   0  0  0  0  0  0  0  0  0  0  0  0
   57.0020   28.8530   44.2130 C   0  0  0  0  0  0  0  0  0  0  0  0
   56.7100   29.3400   42.9390 C   0  0  0  0  0  0  0  0  0  0  0  0
   56.9490   30.6770   42.6290 C   0  0  0  0  0  0  0  0  0  0  0  0
   57.4900   31.5450   43.5900 C   0  0  0  0  0  0  0  0  0  0  0  0
   57.7690   32.9740   43.2100 C   0  0  0  0  0  0  0  0  0  0  0  0
   57.8430   31.0450   44.8660 C   0  0  0  0  0  0  0  0  0  0  0  0
   58.4030   31.9480   45.8340 N   0  0  0  0  0  0  0  0  0  0  0  0
   57.7660   33.1280   46.3370 C   0  0  0  0  0  0  0  0  0  0  0  0
   56.5080   33.2130   46.3440 O   0  0  0  0  0  0  0  0  0  0  0  0
   58.5860   34.2340   46.9580 C   0  0  1  0  0  0  0  0  0  0  0  0
   59.2640   33.7750   48.1840 N   0  0  0  0  0  0  0  0  0  0  0  0
   60.3460   34.5720   48.7760 C   0  0  0  0  0  0  0  0  0  0  0  0
   61.6150   33.7670   48.8210 C   0  0  0  0  0  0  0  0  0  0  0  0
   61.9430   33.0240   49.9680 C   0  0  0  0  0  0  0  0  0  0  0  0
   63.1460   32.3150   50.0270 C   0  0  0  0  0  0  0  0  0  0  0  0
   64.0330   32.3480   48.9460 C   0  0  0  0  0  0  0  0  0  0  0  0
   63.7170   33.0940   47.8070 C   0  0  0  0  0  0  0  0  0  0  0  0
   62.5160   33.8080   47.7460 C   0  0  0  0  0  0  0  0  0  0  0  0
   58.9810   32.4820   48.7500 C   0  0  0  0  0  0  0  0  0  0  0  0
   58.2070   32.2870   49.8230 C   0  0  0  0  0  0  0  0  0  0  0  0
   58.3470   30.8870   50.2250 C   0  0  0  0  0  0  0  0  0  0  0  0
   57.7740   30.3330   51.2010 O   0  0  0  0  0  0  0  0  0  0  0  0
   59.2890   30.2660   49.3090 C   0  0  0  0  0  0  0  0  0  0  0  0
   59.7830   28.9670   49.2530 C   0  0  0  0  0  0  0  0  0  0  0  0
   60.7130   28.6620   48.2420 C   0  0  0  0  0  0  0  0  0  0  0  0
   61.1210   29.6530   47.3220 C   0  0  0  0  0  0  0  0  0  0  0  0
   60.6010   30.9580   47.4050 C   0  0  0  0  0  0  0  0  0  0  0  0
   59.6830   31.2370   48.4160 C   0  0  0  0  0  0  0  0  0  0  0  0
   59.6020   34.8400   45.9700 C   0  0  0  0  0  0  0  0  0  0  0  0
   60.6990   34.0050   45.8530 F   0  0  0  0  0  0  0  0  0  0  0  0
   60.0250   36.0880   46.3940 F   0  0  0  0  0  0  0  0  0  0  0  0
   59.0170   34.9700   44.7220 F   0  0  0  0  0  0  0  0  0  0  0  0
   57.4720   29.8757   47.3258 H   0  0  0  0  0  0  0  0  0  0  0  0
   57.1947   28.2156   46.6984 H   0  0  0  0  0  0  0  0  0  0  0  0
   58.8510   28.9106   46.6984 H   0  0  0  0  0  0  0  0  0  0  0  0
   56.8034   27.7977   44.4515 H   0  0  0  0  0  0  0  0  0  0  0  0
   56.2900   28.6668   42.1772 H   0  0  0  0  0  0  0  0  0  0  0  0
   56.7119   31.0551   41.6236 H   0  0  0  0  0  0  0  0  0  0  0  0
   57.8872   33.5793   44.1209 H   0  0  0  0  0  0  0  0  0  0  0  0
   58.6934   33.0216   42.6157 H   0  0  0  0  0  0  0  0  0  0  0  0
   56.9304   33.3658   42.6157 H   0  0  0  0  0  0  0  0  0  0  0  0
   57.8790   35.0321   47.2286 H   0  0  0  0  0  0  0  0  0  0  0  0
   60.5085   35.4738   48.1675 H   0  0  0  0  0  0  0  0  0  0  0  0
   60.0641   34.8576   49.8002 H   0  0  0  0  0  0  0  0  0  0  0  0
   61.2505   33.0004   50.8223 H   0  0  0  0  0  0  0  0  0  0  0  0
   63.3956   31.7303   50.9247 H   0  0  0  0  0  0  0  0  0  0  0  0
   64.9783   31.7874   48.9922 H   0  0  0  0  0  0  0  0  0  0  0  0
   64.4145   33.1196   46.9568 H   0  0  0  0  0  0  0  0  0  0  0  0
   62.2769   34.4035   46.8526 H   0  0  0  0  0  0  0  0  0  0  0  0
   57.5779   33.0434   50.3151 H   0  0  0  0  0  0  0  0  0  0  0  0
   59.4575   28.2036   49.9750 H   0  0  0  0  0  0  0  0  0  0  0  0
   61.1251   27.6448   48.1677 H   0  0  0  0  0  0  0  0  0  0  0  0
   61.8492   29.4033   46.5363 H   0  0  0  0  0  0  0  0  0  0  0  0
   60.9104   31.7362   46.6918 H   0  0  0  0  0  0  0  0  0  0  0  0
  1  2  1  0
  2  3  2  0
  3  4  1  0
  4  5  2  0
  5  6  1  0
  6  7  1  0
  6  8  2  0
  8  9  1  0
  9 10  1  0
 10 11  2  0
 10 12  1  0
 12 13  1  0
 13 14  1  0
 14 15  1  0
 15 16  2  0
 16 17  1  0
 17 18  2  0
 18 19  1  0
 19 20  2  0
 13 21  1  0
 21 22  2  0
 22 23  1  0
 23 24  2  0
 23 25  1  0
 25 26  2  0
 26 27  1  0
 27 28  2  0
 28 29  1  0
 29 30  2  0
 12 31  1  0
 31 32  1  0
 31 33  1  0
 31 34  1  0
  8  2  1  0
 20 15  1  0
 30 21  1  0
 30 25  1  0
  1 35  1  0
  1 36  1  0
  1 37  1  0
  3 38  1  0
  4 39  1  0
  5 40  1  0
  7 41  1  0
  7 42  1  0
  7 43  1  0
 12 44  1  1
 14 45  1  0
 14 46  1  0
 16 47  1  0
 17 48  1  0
 18 49  1  0
 19 50  1  0
 20 51  1  0
 22 52  1  0
 26 53  1  0
 27 54  1  0
 28 55  1  0
 29 56  1  0
M  CHG  1   9  -1
M  END
>  <UniqueID>  (71) 
63

>  <SMILES>  (71) 
Cc1cccc(C)c1[N-]C(=O)[C@@H](N(Cc1ccccc1)C1=CC(=O)c2ccccc21)C(F)(F)F

>  <Energy>  (71) 
95.73287798883604

>  <Genealogy>  (71) 
Cc1cccc(C)c1[N-]C(=O)C(N(Cc1ccccc1)C1=CC(=O)c2ccccc21)C(F)(F)F (protonated)
Cc1cccc(C)c1[N-]C(=O)[C@@H](N(Cc1ccccc1)C1=CC(=O)c2ccccc21)C(F)(F)F (chirality)
Cc1cccc(C)c1[N-]C(=O)[C@@H](N(Cc1ccccc1)C1=CC(=O)c2ccccc21)C(F)(F)F (3D coordinates assigned)
Cc1cccc(C)c1[N-]C(=O)[C@@H](N(Cc1ccccc1)C1=CC(=O)c2ccccc21)C(F)(F)F (nonaromatic ring conformer: 95.73287798883604 kcal/mol)

>  <smiles>  (71) 
Cc1cccc(C)c1NC(=O)C(N(Cc1ccccc1)C1=CC(=O)c2ccccc21)C(F)(F)F

>  <score_type>  (71) 
oracle

>  <origin>  (71) 
adg

>  <m_score__min__energy>  (71) 
-9.6500000000000004

>  <m_primary>  (71) 
energy

$$$$
71:0
     RDKit          3D

 39 40  0  0  0  0  0  0  0  0999 V2000
   58.3060   26.6300   46.3130 C   0  0  0  0  0  0  0  0  0  0  0  0
   57.2780   27.5160   45.8850 O   0  0  0  0  0  0  0  0  0  0  0  0
   57.5000   28.8080   45.3840 C   0  0  0  0  0  0  0  0  0  0  0  0
   58.7740   29.4050   45.3840 C   0  0  0  0  0  0  0  0  0  0  0  0
   58.9500   30.6940   44.8730 C   0  0  0  0  0  0  0  0  0  0  0  0
   57.8620   31.4150   44.3480 C   0  0  0  0  0  0  0  0  0  0  0  0
   58.0780   32.7830   43.7990 C   0  0  0  0  0  0  0  0  0  0  0  0
   58.3360   32.9240   42.5720 O   0  0  0  0  0  0  0  0  0  0  0  0
   57.9610   34.0270   44.6430 C   0  0  0  0  0  0  0  0  0  0  0  0
   58.7180   33.8770   45.9380 C   0  0  0  0  0  0  0  0  0  0  0  0
   60.0480   34.3070   46.0310 C   0  0  0  0  0  0  0  0  0  0  0  0
   60.7550   34.1750   47.2290 C   0  0  0  0  0  0  0  0  0  0  0  0
   60.1490   33.6000   48.3660 C   0  0  0  0  0  0  0  0  0  0  0  0
   60.8810   33.4640   49.6130 N   0  0  0  0  0  0  0  0  0  0  0  0
   62.3490   33.3940   49.6120 C   0  0  0  0  0  0  0  0  0  0  0  0
   60.1690   33.3920   50.8940 C   0  0  0  0  0  0  0  0  0  0  0  0
   58.8140   33.1580   48.2570 C   0  0  0  0  0  0  0  0  0  0  0  0
   58.1100   33.2920   47.0580 C   0  0  0  0  0  0  0  0  0  0  0  0
   56.5890   30.8140   44.3580 C   0  0  0  0  0  0  0  0  0  0  0  0
   56.4120   29.5240   44.8690 C   0  0  0  0  0  0  0  0  0  0  0  0
   55.1450   28.9530   44.8650 O   0  0  0  0  0  0  0  0  0  0  0  0
   58.3346   26.6053   47.4124 H   0  0  0  0  0  0  0  0  0  0  0  0
   58.1027   25.6196   45.9287 H   0  0  0  0  0  0  0  0  0  0  0  0
   59.2754   26.9802   45.9287 H   0  0  0  0  0  0  0  0  0  0  0  0
   59.6362   28.8544   45.7883 H   0  0  0  0  0  0  0  0  0  0  0  0
   59.9510   31.1501   44.8814 H   0  0  0  0  0  0  0  0  0  0  0  0
   58.3715   34.8806   44.0837 H   0  0  0  0  0  0  0  0  0  0  0  0
   56.8988   34.1925   44.8762 H   0  0  0  0  0  0  0  0  0  0  0  0
   60.5399   34.7523   45.1536 H   0  0  0  0  0  0  0  0  0  0  0  0
   61.7967   34.5236   47.2863 H   0  0  0  0  0  0  0  0  0  0  0  0
   62.7159   33.3765   50.6488 H   0  0  0  0  0  0  0  0  0  0  0  0
   62.6721   32.4794   49.0932 H   0  0  0  0  0  0  0  0  0  0  0  0
   62.7577   34.2737   49.0932 H   0  0  0  0  0  0  0  0  0  0  0  0
   60.8919   33.4651   51.7199 H   0  0  0  0  0  0  0  0  0  0  0  0
   59.4503   34.2220   50.9612 H   0  0  0  0  0  0  0  0  0  0  0  0
   59.6310   32.4349   50.9612 H   0  0  0  0  0  0  0  0  0  0  0  0
   58.3207   32.7017   49.1278 H   0  0  0  0  0  0  0  0  0  0  0  0
   57.0713   32.9361   46.9919 H   0  0  0  0  0  0  0  0  0  0  0  0
   55.7242   31.3648   43.9597 H   0  0  0  0  0  0  0  0  0  0  0  0
  1  2  1  0
  2  3  1  0
  3  4  2  0
  4  5  1  0
  5  6  2  0
  6  7  1  0
  7  8  2  0
  7  9  1  0
  9 10  1  0
 10 11  2  0
 11 12  1  0
 12 13  2  0
 13 14  1  0
 14 15  1  0
 14 16  1  0
 13 17  1  0
 17 18  2  0
  6 19  1  0
 19 20  2  0
 20 21  1  0
 20  3  1  0
 18 10  1  0
  1 22  1  0
  1 23  1  0
  1 24  1  0
  4 25  1  0
  5 26  1  0
  9 27  1  0
  9 28  1  0
 11 29  1  0
 12 30  1  0
 15 31  1  0
 15 32  1  0
 15 33  1  0
 16 34  1  0
 16 35  1  0
 16 36  1  0
 17 37  1  0
 18 38  1  0
 19 39  1  0
M  CHG  1  21  -1
M  END
>  <UniqueID>  (72) 
64

>  <SMILES>  (72) 
COc1ccc(C(=O)Cc2ccc(N(C)C)cc2)cc1[O-]

>  <Energy>  (72) 
41.00987864281178

>  <Genealogy>  (72) 
COc1ccc(C(=O)Cc2ccc(N(C)C)cc2)cc1[O-] (protonated)
COc1ccc(C(=O)Cc2ccc(N(C)C)cc2)cc1[O-] (3D coordinates assigned)
COc1ccc(C(=O)Cc2ccc(N(C)C)cc2)cc1[O-] (optimized conformer: 41.00987864281178 kcal/mol)

>  <smiles>  (72) 
COc1ccc(C(=O)Cc2ccc(N(C)C)cc2)cc1O

>  <score_type>  (72) 
oracle

>  <origin>  (72) 
adg

>  <m_score__min__energy>  (72) 
-10.68

>  <m_primary>  (72) 
energy

$$$$
72:0
     RDKit          3D

 64 69  0  0  0  0  0  0  0  0999 V2000
   57.9060   29.1790   42.7160 H   0  0  0  0  0  0  0  0  0  0  0  0
   57.0190   28.7410   42.6190 O   0  0  0  0  0  0  0  0  0  0  0  0
   56.0540   29.7270   42.8750 C   0  0  0  0  0  0  0  0  0  0  0  0
   55.2604   29.3009   43.5064 H   0  0  0  0  0  0  0  0  0  0  0  0
   55.6352   30.0705   41.9176 H   0  0  0  0  0  0  0  0  0  0  0  0
   56.6850   30.9260   43.5980 C   0  0  0  0  0  0  0  0  0  0  0  0
   55.9332   31.3756   44.2633 H   0  0  0  0  0  0  0  0  0  0  0  0
   57.0215   31.6444   42.8360 H   0  0  0  0  0  0  0  0  0  0  0  0
   57.8620   30.5290   44.4050 N   0  0  0  0  0  0  0  0  0  0  0  0
   58.4840   31.7060   45.0690 C   0  0  0  0  0  0  0  0  0  0  0  0
   58.1639   32.6181   44.5440 H   0  0  0  0  0  0  0  0  0  0  0  0
   59.5757   31.5783   45.0250 H   0  0  0  0  0  0  0  0  0  0  0  0
   58.0840   31.8220   46.5500 C   0  0  0  0  0  0  0  0  0  0  0  0
   56.9923   31.9409   46.6140 H   0  0  0  0  0  0  0  0  0  0  0  0
   58.6066   32.6920   46.9742 H   0  0  0  0  0  0  0  0  0  0  0  0
   58.4820   30.6230   47.3340 N   0  0  0  0  0  0  0  0  0  0  0  0
   59.7540   30.8470   48.0570 C   0  0  0  0  0  0  0  0  0  0  0  0
   60.5257   31.1598   47.3383 H   0  0  0  0  0  0  0  0  0  0  0  0
   60.0450   29.9088   48.5520 H   0  0  0  0  0  0  0  0  0  0  0  0
   59.5980   31.9170   49.1100 C   0  0  0  0  0  0  0  0  0  0  0  0
   60.1260   33.2030   48.9090 C   0  0  0  0  0  0  0  0  0  0  0  0
   60.6458   33.4417   47.9694 H   0  0  0  0  0  0  0  0  0  0  0  0
   59.9930   34.1800   49.8990 C   0  0  0  0  0  0  0  0  0  0  0  0
   60.4103   35.1850   49.7380 H   0  0  0  0  0  0  0  0  0  0  0  0
   59.3310   33.8830   51.0930 C   0  0  0  0  0  0  0  0  0  0  0  0
   59.2462   34.6496   51.8773 H   0  0  0  0  0  0  0  0  0  0  0  0
   58.7720   32.6070   51.2970 C   0  0  0  0  0  0  0  0  0  0  0  0
   58.1030   32.2570   52.5200 N   0  0  0  0  0  0  0  0  0  0  0  0
   57.3300   31.2280   52.7100 C   0  0  0  0  0  0  0  0  0  0  0  0
   56.0410   31.2740   52.2660 N   0  0  0  0  0  0  0  0  0  0  0  0
   55.2430   30.1990   52.4750 C   0  0  0  0  0  0  0  0  0  0  0  0
   53.9110   30.0060   52.1440 C   0  0  0  0  0  0  0  0  0  0  0  0
   53.0310   30.7860   51.4940 C   0  0  0  0  0  0  0  0  0  0  0  0
   53.1827   30.9128   50.4119 H   0  0  0  0  0  0  0  0  0  0  0  0
   51.8800   31.4890   52.0940 C   0  0  0  0  0  0  0  0  0  0  0  0
   51.5770   31.5250   53.4040 N   0  0  0  0  0  0  0  0  0  0  0  0
   50.5240   32.3680   53.4650 C   0  0  0  0  0  0  0  0  0  0  0  0
   49.9400   32.6480   54.5450 O   0  0  0  0  0  0  0  0  0  0  0  0
   50.1500   32.8920   52.2790 N   0  0  0  0  0  0  0  0  0  0  0  0
   51.0240   32.3330   51.4250 C   0  0  0  0  0  0  0  0  0  0  0  0
   51.0480   32.5990   50.0610 O   0  0  0  0  0  0  0  0  0  0  0  0
   53.6280   28.7460   52.6770 C   0  0  0  0  0  0  0  0  0  0  0  0
   52.6494   28.2466   52.6221 H   0  0  0  0  0  0  0  0  0  0  0  0
   54.7290   28.2260   53.2710 N   0  0  0  0  0  0  0  0  0  0  0  0
   55.6910   29.1240   53.1350 N   0  0  0  0  0  0  0  0  0  0  0  0
   56.9600   29.0550   53.6000 C   0  0  0  0  0  0  0  0  0  0  0  0
   57.3830   27.9990   54.2300 N   0  0  0  0  0  0  0  0  0  0  0  0
   58.6820   27.3830   53.9700 C   0  0  0  0  0  0  0  0  0  0  0  0
   59.1041   28.1842   53.3456 H   0  0  0  0  0  0  0  0  0  0  0  0
   58.6300   25.8690   53.8770 C   0  0  0  0  0  0  0  0  0  0  0  0
   57.6616   25.3483   53.9109 H   0  0  0  0  0  0  0  0  0  0  0  0
   59.0076   25.1189   53.1665 H   0  0  0  0  0  0  0  0  0  0  0  0
   59.1790   26.5410   55.1300 C   0  0  0  0  0  0  0  0  0  0  0  0
   58.6072   26.5055   56.0690 H   0  0  0  0  0  0  0  0  0  0  0  0
   60.1177   26.4774   55.6998 H   0  0  0  0  0  0  0  0  0  0  0  0
   57.7810   30.1210   53.3820 N   0  0  0  0  0  0  0  0  0  0  0  0
   58.9300   31.6270   50.3110 C   0  0  0  0  0  0  0  0  0  0  0  0
   58.5263   30.6175   50.4784 H   0  0  0  0  0  0  0  0  0  0  0  0
   58.5290   29.3830   46.5200 C   0  0  0  0  0  0  0  0  0  0  0  0
   58.2831   28.5248   47.1627 H   0  0  0  0  0  0  0  0  0  0  0  0
   59.5419   29.2845   46.1024 H   0  0  0  0  0  0  0  0  0  0  0  0
   57.5320   29.4330   45.3530 C   0  0  0  0  0  0  0  0  0  0  0  0
   56.5207   29.5981   45.7530 H   0  0  0  0  0  0  0  0  0  0  0  0
   57.5858   28.4777   44.8103 H   0  0  0  0  0  0  0  0  0  0  0  0
  1  2  1  0
  2  3  1  0
  3  4  1  0
  3  5  1  0
  3  6  1  0
  6  7  1  0
  6  8  1  0
  6  9  1  0
  9 10  1  0
 10 11  1  0
 10 12  1  0
 10 13  1  0
 13 14  1  0
 13 15  1  0
 13 16  1  0
 16 17  1  0
 17 18  1  0
 17 19  1  0
 17 20  1  0
 20 21  2  0
 21 22  1  0
 21 23  1  0
 23 24  1  0
 23 25  2  0
 25 26  1  0
 25 27  1  0
 27 28  1  0
 28 29  2  3
 29 30  1  0
 30 31  2  0
 31 32  1  0
 32 33  2  0
 33 34  1  0
 33 35  1  0
 35 36  1  0
 36 37  1  0
 37 38  2  0
 37 39  1  0
 39 40  1  0
 40 41  1  0
 32 42  1  0
 42 43  1  0
 42 44  2  0
 44 45  1  0
 45 46  1  0
 46 47  2  0
 47 48  1  0
 48 49  1  0
 48 50  1  0
 50 51  1  0
 50 52  1  0
 50 53  1  0
 53 54  1  0
 53 55  1  0
 46 56  1  0
 27 57  2  0
 57 58  1  0
 16 59  1  0
 59 60  1  0
 59 61  1  0
 59 62  1  0
 62 63  1  0
 62 64  1  0
 62  9  1  0
 57 20  1  0
 56 29  1  0
 45 31  1  0
 53 48  1  0
 40 35  2  0
M  CHG  4  36  -1  39  -1  41  -1  56  -1
M  END
>  <UniqueID>  (73) 
65

>  <SMILES>  (73) 
O=c1[n-]c([O-])c(/C=c2/cnn3/c(=N/C4CC4)[n-]c(=Nc4cccc(CN5CCN(CCO)CC5)c4)nc23)[n-]1

>  <Energy>  (73) 
424.8162528632076

>  <Genealogy>  (73) 
O=c1[n-]c([O-])c(C=c2cnn3c(=NC4CC4)[n-]c(=Nc4cccc(CN5CCN(CCO)CC5)c4)nc23)[n-]1 (protonated)
O=c1[n-]c([O-])c(/C=c2/cnn3/c(=N/C4CC4)[n-]c(=Nc4cccc(CN5CCN(CCO)CC5)c4)nc23)[n-]1 (cis-trans isomerization)
O=c1[n-]c([O-])c(/C=c2/cnn3/c(=N/C4CC4)[n-]c(=Nc4cccc(CN5CCN(CCO)CC5)c4)nc23)[n-]1 (3D coordinates assigned)
O=c1[n-]c([O-])c(/C=c2/cnn3/c(=N/C4CC4)[n-]c(=Nc4cccc(CN5CCN(CCO)CC5)c4)nc23)[n-]1 (nonaromatic ring conformer: 424.8162528632076 kcal/mol)

>  <smiles>  (73) 
O=c1[nH]c(O)c(C=c2cnn3c(=NC4CC4)[nH]c(=Nc4cccc(CN5CCN(CCO)CC5)c4)nc23)[nH]1

>  <score_type>  (73) 
oracle

>  <origin>  (73) 
adg

>  <m_score__min__energy>  (73) 
-20.059999999999999

>  <m_primary>  (73) 
energy

$$$$
73:0
     RDKit          3D

 42 45  0  0  0  0  0  0  0  0999 V2000
   57.7670   27.3200   42.8610 O   0  0  0  0  0  0  0  0  0  0  0  0
   57.7200   28.5880   43.4120 N   0  0  0  0  0  0  0  0  0  0  0  0
   56.7770   29.4330   42.9070 C   0  0  0  0  0  0  0  0  0  0  0  0
   56.6270   30.7270   43.4030 C   0  0  0  0  0  0  0  0  0  0  0  0
   57.4390   31.1720   44.4450 C   0  0  0  0  0  0  0  0  0  0  0  0
   57.2740   32.5130   44.9390 N   0  0  0  0  0  0  0  0  0  0  0  0
   58.1640   33.1460   45.8750 C   0  0  0  0  0  0  0  0  0  0  0  0
   58.0240   32.9520   47.2630 C   0  0  0  0  0  0  0  0  0  0  0  0
   58.9100   33.5660   48.1540 C   0  0  0  0  0  0  0  0  0  0  0  0
   59.9300   34.3890   47.6700 C   0  0  0  0  0  0  0  0  0  0  0  0
   60.7910   34.9800   48.5350 F   0  0  0  0  0  0  0  0  0  0  0  0
   60.0600   34.6080   46.2950 C   0  0  0  0  0  0  0  0  0  0  0  0
   59.1760   33.9950   45.4020 C   0  0  0  0  0  0  0  0  0  0  0  0
   58.4380   30.3150   44.9400 C   0  0  0  0  0  0  0  0  0  0  0  0
   59.2930   30.7440   45.9050 N   0  0  0  0  0  0  0  0  0  0  0  0
   60.2640   29.9440   46.4100 C   0  0  0  0  0  0  0  0  0  0  0  0
   61.1310   30.4260   47.4590 N   0  0  0  0  0  0  0  0  0  0  0  0
   62.2800   31.2790   47.1240 C   0  0  0  0  0  0  0  0  0  0  0  0
   62.6760   32.1400   48.3270 C   0  0  0  0  0  0  0  0  0  0  0  0
   62.8410   31.3420   49.4820 O   0  0  0  0  0  0  0  0  0  0  0  0
   61.5950   30.7850   49.8520 C   0  0  0  0  0  0  0  0  0  0  0  0
   61.0980   29.8010   48.7890 C   0  0  0  0  0  0  0  0  0  0  0  0
   60.4020   28.6810   45.9260 N   0  0  0  0  0  0  0  0  0  0  0  0
   59.5910   28.2010   44.9500 C   0  0  0  0  0  0  0  0  0  0  0  0
   58.5670   29.0080   44.4140 C   0  0  0  0  0  0  0  0  0  0  0  0
   56.9520   26.7780   42.6180 H   0  0  0  0  0  0  0  0  0  0  0  0
   56.1225   29.0874   42.0932 H   0  0  0  0  0  0  0  0  0  0  0  0
   55.8681   31.3968   42.9723 H   0  0  0  0  0  0  0  0  0  0  0  0
   56.4320   33.0480   44.6270 H   0  0  0  0  0  0  0  0  0  0  0  0
   57.2142   32.3147   47.6479 H   0  0  0  0  0  0  0  0  0  0  0  0
   58.8038   33.4009   49.2363 H   0  0  0  0  0  0  0  0  0  0  0  0
   60.8583   35.2630   45.9158 H   0  0  0  0  0  0  0  0  0  0  0  0
   59.2745   34.1794   44.3220 H   0  0  0  0  0  0  0  0  0  0  0  0
   63.1312   30.6440   46.8372 H   0  0  0  0  0  0  0  0  0  0  0  0
   62.0021   31.9393   46.2893 H   0  0  0  0  0  0  0  0  0  0  0  0
   63.6226   32.6550   48.1061 H   0  0  0  0  0  0  0  0  0  0  0  0
   61.8770   32.8722   48.5152 H   0  0  0  0  0  0  0  0  0  0  0  0
   61.7078   30.2545   50.8090 H   0  0  0  0  0  0  0  0  0  0  0  0
   60.8611   31.5988   49.9475 H   0  0  0  0  0  0  0  0  0  0  0  0
   61.7447   28.9112   48.7878 H   0  0  0  0  0  0  0  0  0  0  0  0
   60.0623   29.5143   49.0237 H   0  0  0  0  0  0  0  0  0  0  0  0
   59.7333   27.1767   44.5750 H   0  0  0  0  0  0  0  0  0  0  0  0
  1  2  1  0
  2  3  2  0
  3  4  1  0
  4  5  2  0
  5  6  1  0
  6  7  1  0
  7  8  2  0
  8  9  1  0
  9 10  2  0
 10 11  1  0
 10 12  1  0
 12 13  2  0
  5 14  1  0
 14 15  2  0
 15 16  1  0
 16 17  1  0
 17 18  1  0
 18 19  1  0
 19 20  1  0
 20 21  1  0
 21 22  1  0
 16 23  2  0
 23 24  1  0
 24 25  2  0
 25  2  1  0
 13  7  1  0
 25 14  1  0
 22 17  1  0
  1 26  1  0
  3 27  1  0
  4 28  1  0
  6 29  1  0
  8 30  1  0
  9 31  1  0
 12 32  1  0
 13 33  1  0
 18 34  1  0
 18 35  1  0
 19 36  1  0
 19 37  1  0
 21 38  1  0
 21 39  1  0
 22 40  1  0
 22 41  1  0
 24 42  1  0
M  CHG  1   2   1
M  END
>  <UniqueID>  (74) 
66

>  <SMILES>  (74) 
O[n+]1ccc(Nc2ccc(F)cc2)c2nc(N3CCOCC3)ncc21

>  <Energy>  (74) 
59.93302814457447

>  <Genealogy>  (74) 
O[n+]1ccc(Nc2ccc(F)cc2)c2nc(N3CCOCC3)ncc21 (protonated)
O[n+]1ccc(Nc2ccc(F)cc2)c2nc(N3CCOCC3)ncc21 (3D coordinates assigned)
O[n+]1ccc(Nc2ccc(F)cc2)c2nc(N3CCOCC3)ncc21 (nonaromatic ring conformer: 59.93302814457447 kcal/mol)

>  <smiles>  (74) 
[O-][n+]1ccc(Nc2ccc(F)cc2)c2nc(N3CCOCC3)ncc21

>  <score_type>  (74) 
oracle

>  <origin>  (74) 
adg

>  <m_score__min__energy>  (74) 
-5.8799999999999999

>  <m_primary>  (74) 
energy

$$$$
74:0
     RDKit          3D

 39 41  0  0  0  0  0  0  0  0999 V2000
   58.7556   27.1189   47.2106 H   0  0  0  0  0  0  0  0  0  0  0  0
   58.2900   27.9360   46.6400 C   0  0  0  0  0  0  0  0  0  0  0  0
   58.8920   29.1930   46.5800 C   0  0  0  0  0  0  0  0  0  0  0  0
   60.1020   29.4090   47.2480 O   0  0  0  0  0  0  0  0  0  0  0  0
   60.4920   30.6530   47.7600 C   0  0  0  0  0  0  0  0  0  0  0  0
   61.5130   31.3560   47.1070 C   0  0  0  0  0  0  0  0  0  0  0  0
   61.9937   30.9224   46.2177 H   0  0  0  0  0  0  0  0  0  0  0  0
   61.9240   32.6060   47.5800 C   0  0  0  0  0  0  0  0  0  0  0  0
   63.1910   33.4870   46.7450 Cl  0  0  0  0  0  0  0  0  0  0  0  0
   61.3260   33.1530   48.7180 C   0  0  0  0  0  0  0  0  0  0  0  0
   61.6433   34.1403   49.0847 H   0  0  0  0  0  0  0  0  0  0  0  0
   60.3250   32.4470   49.3910 C   0  0  0  0  0  0  0  0  0  0  0  0
   59.8634   32.8767   50.2923 H   0  0  0  0  0  0  0  0  0  0  0  0
   59.9070   31.1950   48.9230 C   0  0  0  0  0  0  0  0  0  0  0  0
   58.7150   30.3010   49.8560 Cl  0  0  0  0  0  0  0  0  0  0  0  0
   58.3060   30.1870   45.8580 N   0  0  0  0  0  0  0  0  0  0  0  0
   57.1350   29.9820   45.2020 C   0  0  0  0  0  0  0  0  0  0  0  0
   56.6030   30.9570   44.5280 N   0  0  0  0  0  0  0  0  0  0  0  0
   57.3720   31.9910   43.8410 C   0  0  0  0  0  0  0  0  0  0  0  0
   58.1843   31.5233   43.2653 H   0  0  0  0  0  0  0  0  0  0  0  0
   56.7135   32.5467   43.1572 H   0  0  0  0  0  0  0  0  0  0  0  0
   57.9540   32.9330   44.8550 C   0  0  0  0  0  0  0  0  0  0  0  0
   58.9530   33.8460   44.4830 C   0  0  0  0  0  0  0  0  0  0  0  0
   59.3317   33.8529   43.4503 H   0  0  0  0  0  0  0  0  0  0  0  0
   59.4690   34.7470   45.4200 C   0  0  0  0  0  0  0  0  0  0  0  0
   60.2580   35.4546   45.1254 H   0  0  0  0  0  0  0  0  0  0  0  0
   58.9830   34.7490   46.7300 C   0  0  0  0  0  0  0  0  0  0  0  0
   59.3928   35.4550   47.4674 H   0  0  0  0  0  0  0  0  0  0  0  0
   57.9760   33.8540   47.1040 C   0  0  0  0  0  0  0  0  0  0  0  0
   57.5909   33.8596   48.1344 H   0  0  0  0  0  0  0  0  0  0  0  0
   57.4580   32.9520   46.1700 C   0  0  0  0  0  0  0  0  0  0  0  0
   56.6598   32.2550   46.4651 H   0  0  0  0  0  0  0  0  0  0  0  0
   56.5350   28.7610   45.2580 N   0  0  0  0  0  0  0  0  0  0  0  0
   57.0810   27.7330   45.9600 C   0  0  0  0  0  0  0  0  0  0  0  0
   56.3960   26.4220   45.9920 C   0  0  0  0  0  0  0  0  0  0  0  0
   55.1370   26.3670   46.0040 O   0  0  0  0  0  0  0  0  0  0  0  0
   57.1460   25.2060   46.0080 N   0  0  0  0  0  0  0  0  0  0  0  0
   56.6520   24.2870   46.0300 H   0  0  0  0  0  0  0  0  0  0  0  0
   58.1910   25.2100   45.9970 H   0  0  0  0  0  0  0  0  0  0  0  0
  1  2  1  0
  2  3  1  0
  3  4  1  0
  4  5  1  0
  5  6  2  0
  6  7  1  0
  6  8  1  0
  8  9  1  0
  8 10  2  0
 10 11  1  0
 10 12  1  0
 12 13  1  0
 12 14  2  0
 14 15  1  0
  3 16  2  0
 16 17  1  0
 17 18  2  0
 18 19  1  0
 19 20  1  0
 19 21  1  0
 19 22  1  0
 22 23  2  0
 23 24  1  0
 23 25  1  0
 25 26  1  0
 25 27  2  0
 27 28  1  0
 27 29  1  0
 29 30  1  0
 29 31  2  0
 31 32  1  0
 17 33  1  0
 33 34  1  0
 34 35  1  0
 35 36  2  0
 35 37  1  0
 37 38  1  0
 37 39  1  0
 34  2  2  0
 14  5  1  0
 31 22  1  0
M  CHG  1  33  -1
M  END
>  <UniqueID>  (75) 
67

>  <SMILES>  (75) 
NC(=O)c1cc(Oc2cc(Cl)ccc2Cl)n/c(=N/Cc2ccccc2)[n-]1

>  <Energy>  (75) 
46.9942577430052

>  <Genealogy>  (75) 
NC(=O)c1cc(Oc2cc(Cl)ccc2Cl)nc(=NCc2ccccc2)[n-]1 (protonated)
NC(=O)c1cc(Oc2cc(Cl)ccc2Cl)n/c(=N/Cc2ccccc2)[n-]1 (cis-trans isomerization)
NC(=O)c1cc(Oc2cc(Cl)ccc2Cl)n/c(=N/Cc2ccccc2)[n-]1 (3D coordinates assigned)
NC(=O)c1cc(Oc2cc(Cl)ccc2Cl)n/c(=N/Cc2ccccc2)[n-]1 (optimized conformer: 46.9942577430052 kcal/mol)

>  <smiles>  (75) 
NC(=O)c1cc(Oc2cc(Cl)ccc2Cl)nc(=NCc2ccccc2)[nH]1

>  <score_type>  (75) 
oracle

>  <origin>  (75) 
adg

>  <m_score__min__energy>  (75) 
-10

>  <m_primary>  (75) 
energy

$$$$
75:0
     RDKit          3D

 56 59  0  0  0  0  0  0  0  0999 V2000
   54.7570   26.7240   45.3080 H   0  0  0  0  0  0  0  0  0  0  0  0
   55.0150   25.9800   45.9960 N   0  0  0  0  0  0  0  0  0  0  0  0
   56.7390   25.9570   46.0890 S   0  0  0  0  0  0  0  0  0  0  0  0
   57.1630   25.5870   47.4830 O   0  0  0  0  0  0  0  0  0  0  0  0
   57.2770   24.9300   45.1330 O   0  0  0  0  0  0  0  0  0  0  0  0
   57.3730   27.5460   45.6760 C   0  0  0  0  0  0  0  0  0  0  0  0
   58.7460   27.8100   45.7830 C   0  0  0  0  0  0  0  0  0  0  0  0
   59.4301   27.0219   46.1308 H   0  0  0  0  0  0  0  0  0  0  0  0
   59.2490   29.0720   45.4490 C   0  0  0  0  0  0  0  0  0  0  0  0
   60.3290   29.2687   45.5197 H   0  0  0  0  0  0  0  0  0  0  0  0
   58.3810   30.0850   45.0250 C   0  0  0  0  0  0  0  0  0  0  0  0
   58.9100   31.3610   44.6520 N   0  0  0  0  0  0  0  0  0  0  0  0
   58.7350   32.5050   45.2560 C   0  0  0  0  0  0  0  0  0  0  0  0
   57.6740   33.3320   44.8350 C   0  0  0  0  0  0  0  0  0  0  0  0
   57.0417   33.0220   43.9900 H   0  0  0  0  0  0  0  0  0  0  0  0
   57.4180   34.5540   45.4900 C   0  0  0  0  0  0  0  0  0  0  0  0
   56.5738   35.1799   45.1652 H   0  0  0  0  0  0  0  0  0  0  0  0
   58.2070   34.9670   46.5220 N   0  0  0  0  0  0  0  0  0  0  0  0
   59.2470   34.1900   46.9140 C   0  0  0  0  0  0  0  0  0  0  0  0
   59.5400   32.9910   46.3110 C   0  0  0  0  0  0  0  0  0  0  0  0
   60.7120   32.5450   46.9040 C   0  0  0  0  0  0  0  0  0  0  0  0
   61.2650   31.6234   46.6699 H   0  0  0  0  0  0  0  0  0  0  0  0
   61.0440   33.5050   47.8570 C   0  0  0  0  0  0  0  0  0  0  0  0
   62.2180   33.4340   48.7590 C   0  0  0  0  0  0  0  0  0  0  0  0
   63.4890   33.2390   48.1880 C   0  0  0  0  0  0  0  0  0  0  0  0
   63.5913   33.1814   47.0943 H   0  0  0  0  0  0  0  0  0  0  0  0
   64.6200   33.1180   48.9940 C   0  0  0  0  0  0  0  0  0  0  0  0
   65.6067   32.9583   48.5348 H   0  0  0  0  0  0  0  0  0  0  0  0
   64.5030   33.1990   50.3800 C   0  0  0  0  0  0  0  0  0  0  0  0
   65.3964   33.0966   51.0135 H   0  0  0  0  0  0  0  0  0  0  0  0
   63.2530   33.4100   50.9660 C   0  0  0  0  0  0  0  0  0  0  0  0
   63.1710   33.4849   52.0604 H   0  0  0  0  0  0  0  0  0  0  0  0
   62.0960   33.5280   50.1710 C   0  0  0  0  0  0  0  0  0  0  0  0
   60.7950   33.8590   50.8040 C   0  0  0  0  0  0  0  0  0  0  0  0
   60.4108   34.8856   50.7123 H   0  0  0  0  0  0  0  0  0  0  0  0
   60.0690   32.9610   51.4820 C   0  0  0  0  0  0  0  0  0  0  0  0
   60.5655   32.0691   51.8919 H   0  0  0  0  0  0  0  0  0  0  0  0
   58.5900   33.1420   51.6970 C   0  0  0  0  0  0  0  0  0  0  0  0
   58.3160   34.1767   51.4433 H   0  0  0  0  0  0  0  0  0  0  0  0
   58.3657   32.9246   52.7517 H   0  0  0  0  0  0  0  0  0  0  0  0
   57.8010   32.2150   50.8540 N   0  0  0  0  0  0  0  0  0  0  0  0
   56.9450   32.7070   50.5030 H   0  0  0  0  0  0  0  0  0  0  0  0
   58.5850   31.7500   49.6940 C   0  0  0  0  0  0  0  0  0  0  0  0
   59.4812   31.2184   50.0465 H   0  0  0  0  0  0  0  0  0  0  0  0
   57.9710   31.0699   49.0853 H   0  0  0  0  0  0  0  0  0  0  0  0
   58.8873   32.6149   49.0853 H   0  0  0  0  0  0  0  0  0  0  0  0
   57.3620   31.0570   51.6530 C   0  0  0  0  0  0  0  0  0  0  0  0
   57.4521   31.2946   52.7232 H   0  0  0  0  0  0  0  0  0  0  0  0
   56.3133   30.8244   51.4161 H   0  0  0  0  0  0  0  0  0  0  0  0
   57.9929   30.1877   51.4161 H   0  0  0  0  0  0  0  0  0  0  0  0
   60.1360   34.5080   47.8650 N   0  0  0  0  0  0  0  0  0  0  0  0
   60.1230   35.3550   48.4760 H   0  0  0  0  0  0  0  0  0  0  0  0
   57.0140   29.8080   44.8730 C   0  0  0  0  0  0  0  0  0  0  0  0
   56.3365   30.5850   44.4892 H   0  0  0  0  0  0  0  0  0  0  0  0
   56.5100   28.5470   45.2080 C   0  0  0  0  0  0  0  0  0  0  0  0
   55.4346   28.3403   45.1041 H   0  0  0  0  0  0  0  0  0  0  0  0
  1  2  1  0
  2  3  1  0
  3  4  2  0
  3  5  2  0
  3  6  1  0
  6  7  2  0
  7  8  1  0
  7  9  1  0
  9 10  1  0
  9 11  2  0
 11 12  1  0
 12 13  2  0
 13 14  1  0
 14 15  1  0
 14 16  2  0
 16 17  1  0
 16 18  1  0
 18 19  1  0
 19 20  2  0
 20 21  1  0
 21 22  1  0
 21 23  2  0
 23 24  1  0
 24 25  2  0
 25 26  1  0
 25 27  1  0
 27 28  1  0
 27 29  2  0
 29 30  1  0
 29 31  1  0
 31 32  1  0
 31 33  2  0
 33 34  1  0
 34 35  1  0
 34 36  2  3
 36 37  1  0
 36 38  1  0
 38 39  1  0
 38 40  1  0
 38 41  1  0
 41 42  1  0
 41 43  1  0
 43 44  1  0
 43 45  1  0
 43 46  1  0
 41 47  1  0
 47 48  1  0
 47 49  1  0
 47 50  1  0
 23 51  1  0
 51 52  1  0
 11 53  1  0
 53 54  1  0
 53 55  2  0
 55 56  1  0
 55  6  1  0
 20 13  1  0
 33 24  1  0
 51 19  1  0
M  CHG  3   2  -1  18  -1  41   1
M  END
>  <UniqueID>  (76) 
68

>  <SMILES>  (76) 
C[NH+](C)CC=Cc1ccccc1-c1cc2/c(=N\c3ccc(S([NH-])(=O)=O)cc3)cc[n-]c2[nH]1

>  <Energy>  (76) 
114.62433313997056

>  <Genealogy>  (76) 
C[NH+](C)CC=Cc1ccccc1-c1cc2c(=Nc3ccc(S([NH-])(=O)=O)cc3)cc[n-]c2[nH]1 (protonated)
C[NH+](C)CC=Cc1ccccc1-c1cc2/c(=N\c3ccc(S([NH-])(=O)=O)cc3)cc[n-]c2[nH]1 (cis-trans isomerization)
C[NH+](C)CC=Cc1ccccc1-c1cc2/c(=N\c3ccc(S([NH-])(=O)=O)cc3)cc[n-]c2[nH]1 (3D coordinates assigned)
C[NH+](C)CC=Cc1ccccc1-c1cc2/c(=N\c3ccc(S([NH-])(=O)=O)cc3)cc[n-]c2[nH]1 (optimized conformer: 114.62433313997056 kcal/mol)

>  <smiles>  (76) 
CN(C)CC=Cc1ccccc1-c1cc2c(=Nc3ccc(S(N)(=O)=O)cc3)cc[nH]c2[nH]1

>  <score_type>  (76) 
oracle

>  <origin>  (76) 
adg

>  <m_score__min__energy>  (76) 
-12.19

>  <m_primary>  (76) 
energy

$$$$
76:0
     RDKit          3D

 41 44  0  0  0  0  0  0  0  0999 V2000
   60.2610   35.0970   47.0350 O   0  0  0  0  0  0  0  0  0  0  0  0
   59.6530   34.2440   46.4060 C   0  0  0  0  0  0  0  0  0  0  0  0
   59.2790   34.5040   44.9700 C   0  0  0  0  0  0  0  0  0  0  0  0
   57.7420   34.4740   44.7970 C   0  0  0  0  0  0  0  0  0  0  0  0
   57.0160   33.4780   45.7370 C   0  0  0  0  0  0  0  0  0  0  0  0
   57.9740   32.4450   46.2670 C   0  0  0  0  0  0  0  0  0  0  0  0
   57.7950   31.2100   45.8790 N   0  0  0  0  0  0  0  0  0  0  0  0
   58.5710   30.0070   45.9830 C   0  0  0  0  0  0  0  0  0  0  0  0
   57.9050   28.7960   45.7410 C   0  0  0  0  0  0  0  0  0  0  0  0
   58.6130   27.5970   45.6290 C   0  0  0  0  0  0  0  0  0  0  0  0
   60.0030   27.5980   45.7320 C   0  0  0  0  0  0  0  0  0  0  0  0
   60.6840   28.7940   45.9620 C   0  0  0  0  0  0  0  0  0  0  0  0
   59.9770   30.0010   46.0980 C   0  0  0  0  0  0  0  0  0  0  0  0
   60.6910   31.1870   46.4340 N   0  0  0  0  0  0  0  0  0  0  0  0
   60.2050   31.9930   47.5510 C   0  0  1  0  0  0  0  0  0  0  0  0
   61.3450   32.6250   48.3550 C   0  0  0  0  0  0  0  0  0  0  0  0
   61.0160   33.4340   49.4610 C   0  0  0  0  0  0  0  0  0  0  0  0
   62.0120   34.0370   50.2320 C   0  0  0  0  0  0  0  0  0  0  0  0
   63.3540   33.8520   49.9100 C   0  0  0  0  0  0  0  0  0  0  0  0
   63.7050   33.0720   48.8070 C   0  0  0  0  0  0  0  0  0  0  0  0
   62.7170   32.4640   48.0200 C   0  0  0  0  0  0  0  0  0  0  0  0
   63.1010   31.7260   46.9000 O   0  0  0  0  0  0  0  0  0  0  0  0
   59.1240   33.0030   47.1030 C   0  0  1  0  0  0  0  0  0  0  0  0
   59.6579   35.4923   44.6704 H   0  0  0  0  0  0  0  0  0  0  0  0
   59.7236   33.7204   44.3389 H   0  0  0  0  0  0  0  0  0  0  0  0
   57.3526   35.4832   44.9968 H   0  0  0  0  0  0  0  0  0  0  0  0
   57.5463   34.1375   43.7682 H   0  0  0  0  0  0  0  0  0  0  0  0
   56.5801   34.0320   46.5815 H   0  0  0  0  0  0  0  0  0  0  0  0
   56.2275   32.9662   45.1657 H   0  0  0  0  0  0  0  0  0  0  0  0
   56.8098   28.7907   45.6380 H   0  0  0  0  0  0  0  0  0  0  0  0
   58.0741   26.6531   45.4597 H   0  0  0  0  0  0  0  0  0  0  0  0
   60.5629   26.6564   45.6320 H   0  0  0  0  0  0  0  0  0  0  0  0
   61.7814   28.7921   46.0374 H   0  0  0  0  0  0  0  0  0  0  0  0
   61.6970   31.2200   46.1580 H   0  0  0  0  0  0  0  0  0  0  0  0
   59.7039   31.3108   48.2535 H   0  0  0  0  0  0  0  0  0  0  0  0
   59.9590   33.5928   49.7208 H   0  0  0  0  0  0  0  0  0  0  0  0
   61.7358   34.6596   51.0957 H   0  0  0  0  0  0  0  0  0  0  0  0
   64.1370   34.3203   50.5245 H   0  0  0  0  0  0  0  0  0  0  0  0
   64.7662   32.9331   48.5530 H   0  0  0  0  0  0  0  0  0  0  0  0
   64.0740   31.5440   46.6890 H   0  0  0  0  0  0  0  0  0  0  0  0
   58.7190   33.2798   48.0875 H   0  0  0  0  0  0  0  0  0  0  0  0
  1  2  2  0
  2  3  1  0
  3  4  1  0
  4  5  1  0
  5  6  1  0
  6  7  2  0
  7  8  1  0
  8  9  2  0
  9 10  1  0
 10 11  2  0
 11 12  1  0
 12 13  2  0
 13 14  1  0
 14 15  1  0
 15 16  1  0
 16 17  2  0
 17 18  1  0
 18 19  2  0
 19 20  1  0
 20 21  2  0
 21 22  1  0
 15 23  1  0
 23  2  1  0
 23  6  1  0
 13  8  1  0
 21 16  1  0
  3 24  1  0
  3 25  1  0
  4 26  1  0
  4 27  1  0
  5 28  1  0
  5 29  1  0
  9 30  1  0
 10 31  1  0
 11 32  1  0
 12 33  1  0
 14 34  1  0
 15 35  1  1
 17 36  1  0
 18 37  1  0
 19 38  1  0
 20 39  1  0
 22 40  1  0
 23 41  1  1
M  END
>  <UniqueID>  (77) 
69

>  <SMILES>  (77) 
O=C1CCCC2=Nc3ccccc3N[C@@H](c3ccccc3O)[C@@H]12

>  <Energy>  (77) 
75.88324745372087

>  <Genealogy>  (77) 
O=C1CCCC2=Nc3ccccc3N[C@@H](c3ccccc3O)[C@@H]12 (chirality)
O=C1CCCC2=Nc3ccccc3N[C@@H](c3ccccc3O)[C@@H]12 (3D coordinates assigned)
O=C1CCCC2=Nc3ccccc3N[C@@H](c3ccccc3O)[C@@H]12 (nonaromatic ring conformer: 75.88324745372087 kcal/mol)

>  <smiles>  (77) 
O=C1CCCC2=Nc3ccccc3NC(c3ccccc3O)C12

>  <score_type>  (77) 
oracle

>  <origin>  (77) 
adg

>  <m_score__min__energy>  (77) 
-6.54

>  <m_primary>  (77) 
energy

$$$$
77:0
     RDKit          3D

 32 33  0  0  0  0  0  0  0  0999 V2000
   55.1660   29.0200   44.6060 N   0  0  0  0  0  0  0  0  0  0  0  0
   56.5490   30.0110   44.3090 S   0  0  0  0  0  0  0  0  0  0  0  0
   56.3140   31.3880   44.8620 O   0  0  0  0  0  0  0  0  0  0  0  0
   56.7670   30.1130   42.8250 O   0  0  0  0  0  0  0  0  0  0  0  0
   57.9610   29.3020   45.0860 C   0  0  0  0  0  0  0  0  0  0  0  0
   59.0090   28.7660   44.3250 C   0  0  0  0  0  0  0  0  0  0  0  0
   60.1350   28.2330   44.9600 C   0  0  0  0  0  0  0  0  0  0  0  0
   60.2160   28.2260   46.3550 C   0  0  0  0  0  0  0  0  0  0  0  0
   59.1650   28.7340   47.1270 C   0  0  0  0  0  0  0  0  0  0  0  0
   59.2960   28.7500   48.5560 N   0  0  0  0  0  0  0  0  0  0  0  0
   59.5790   29.9140   49.3410 C   0  0  0  0  0  0  0  0  0  0  0  0
   60.7350   30.1030   49.8070 O   0  0  0  0  0  0  0  0  0  0  0  0
   58.5190   30.9490   49.5630 C   0  0  0  0  0  0  0  0  0  0  0  0
   59.0460   32.0960   50.3010 N   0  0  0  0  0  0  0  0  0  0  0  0
   59.8010   33.1910   49.7610 C   0  0  0  0  0  0  0  0  0  0  0  0
   60.5560   33.8360   50.5360 O   0  0  0  0  0  0  0  0  0  0  0  0
   59.7430   33.5800   48.3370 C   0  0  0  0  0  0  0  0  0  0  0  0
   60.8270   33.9650   47.5680 C   0  0  0  0  0  0  0  0  0  0  0  0
   60.3270   34.2170   46.3080 C   0  0  0  0  0  0  0  0  0  0  0  0
   58.9730   33.9780   46.3900 C   0  0  0  0  0  0  0  0  0  0  0  0
   57.7290   34.1360   44.9560 Br  0  0  0  0  0  0  0  0  0  0  0  0
   58.6520   33.6050   47.6060 O   0  0  0  0  0  0  0  0  0  0  0  0
   58.0420   29.2850   46.4850 C   0  0  0  0  0  0  0  0  0  0  0  0
   55.1690   28.7860   45.6250 H   0  0  0  0  0  0  0  0  0  0  0  0
   58.9456   28.7647   43.2268 H   0  0  0  0  0  0  0  0  0  0  0  0
   60.9586   27.8184   44.3602 H   0  0  0  0  0  0  0  0  0  0  0  0
   61.1106   27.8190   46.8490 H   0  0  0  0  0  0  0  0  0  0  0  0
   58.1426   31.2919   48.5879 H   0  0  0  0  0  0  0  0  0  0  0  0
   57.7091   30.4968   50.1542 H   0  0  0  0  0  0  0  0  0  0  0  0
   61.8736   34.0522   47.8950 H   0  0  0  0  0  0  0  0  0  0  0  0
   60.8919   34.5414   45.4217 H   0  0  0  0  0  0  0  0  0  0  0  0
   57.2215   29.7056   47.0849 H   0  0  0  0  0  0  0  0  0  0  0  0
  1  2  1  0
  2  3  2  0
  2  4  2  0
  2  5  1  0
  5  6  2  0
  6  7  1  0
  7  8  2  0
  8  9  1  0
  9 10  1  0
 10 11  1  0
 11 12  2  0
 11 13  1  0
 13 14  1  0
 14 15  1  0
 15 16  2  0
 15 17  1  0
 17 18  2  0
 18 19  1  0
 19 20  2  0
 20 21  1  0
 20 22  1  0
  9 23  2  0
 23  5  1  0
 22 17  1  0
  1 24  1  0
  6 25  1  0
  7 26  1  0
  8 27  1  0
 13 28  1  0
 13 29  1  0
 18 30  1  0
 19 31  1  0
 23 32  1  0
M  CHG  3   1  -1  10  -1  14  -1
M  END
>  <UniqueID>  (78) 
70

>  <SMILES>  (78) 
[NH-]S(=O)(=O)c1cccc([N-]C(=O)C[N-]C(=O)c2ccc(Br)o2)c1

>  <Energy>  (78) 
57.34789444585677

>  <Genealogy>  (78) 
[NH-]S(=O)(=O)c1cccc([N-]C(=O)C[N-]C(=O)c2ccc(Br)o2)c1 (protonated)
[NH-]S(=O)(=O)c1cccc([N-]C(=O)C[N-]C(=O)c2ccc(Br)o2)c1 (3D coordinates assigned)
[NH-]S(=O)(=O)c1cccc([N-]C(=O)C[N-]C(=O)c2ccc(Br)o2)c1 (optimized conformer: 57.34789444585677 kcal/mol)

>  <smiles>  (78) 
NS(=O)(=O)c1cccc(NC(=O)CNC(=O)c2ccc(Br)o2)c1

>  <score_type>  (78) 
oracle

>  <origin>  (78) 
adg

>  <m_score__min__energy>  (78) 
-13.08

>  <m_primary>  (78) 
energy

$$$$
78:0
     RDKit          3D

 67 71  0  0  0  0  0  0  0  0999 V2000
   59.2710   28.0310   44.5810 C   0  0  0  0  0  0  0  0  0  0  0  0
   59.1780   27.7190   46.0130 N   0  0  0  0  0  0  0  0  0  0  0  0
   59.2330   26.3250   46.4640 C   0  0  0  0  0  0  0  0  0  0  0  0
   58.9750   28.7670   46.9840 C   0  0  0  0  0  0  0  0  0  0  0  0
   58.5480   28.4790   48.1360 O   0  0  0  0  0  0  0  0  0  0  0  0
   59.1810   30.1480   46.6460 N   0  0  0  0  0  0  0  0  0  0  0  0
   60.3610   30.6920   46.9450 N   0  0  0  0  0  0  0  0  0  0  0  0
   60.6670   31.9890   46.6780 C   0  0  0  0  0  0  0  0  0  0  0  0
   62.0130   32.4970   47.1430 C   0  0  0  0  0  0  0  0  0  0  0  0
   62.0400   32.5930   48.6450 C   0  0  0  0  0  0  0  0  0  0  0  0
   61.5170   33.7170   49.3040 C   0  0  0  0  0  0  0  0  0  0  0  0
   61.4160   33.7330   50.6980 C   0  0  0  0  0  0  0  0  0  0  0  0
   61.8110   32.6190   51.4410 C   0  0  0  0  0  0  0  0  0  0  0  0
   62.3570   31.5010   50.7950 C   0  0  0  0  0  0  0  0  0  0  0  0
   62.6640   30.3150   51.5340 N   0  0  0  0  0  0  0  0  0  0  0  0
   61.7660   29.2000   51.6110 C   0  0  0  0  0  0  0  0  0  0  0  0
   62.2320   28.0350   51.4930 O   0  0  0  0  0  0  0  0  0  0  0  0
   60.3080   29.3910   51.8030 C   0  0  0  0  0  0  0  0  0  0  0  0
   59.5260   29.9890   50.8050 C   0  0  0  0  0  0  0  0  0  0  0  0
   58.1500   30.1490   50.9920 C   0  0  0  0  0  0  0  0  0  0  0  0
   57.5590   29.7120   52.1870 C   0  0  0  0  0  0  0  0  0  0  0  0
   56.1500   29.8820   52.4200 N   0  0  0  0  0  0  0  0  0  0  0  0
   55.4510   29.0200   53.3820 C   0  0  0  0  0  0  0  0  0  0  0  0
   54.0280   28.7310   52.8950 C   0  0  0  0  0  0  0  0  0  0  0  0
   53.2890   30.0330   52.5620 C   0  0  0  0  0  0  0  0  0  0  0  0
   54.0740   30.8630   51.5370 C   0  0  0  0  0  0  0  0  0  0  0  0
   55.4970   31.1400   52.0320 C   0  0  0  0  0  0  0  0  0  0  0  0
   58.3420   29.1710   53.1580 N   0  0  0  0  0  0  0  0  0  0  0  0
   59.6800   29.0050   52.9980 C   0  0  0  0  0  0  0  0  0  0  0  0
   62.5130   31.5090   49.4060 C   0  0  0  0  0  0  0  0  0  0  0  0
   59.6860   32.8120   46.0770 C   0  0  0  0  0  0  0  0  0  0  0  0
   59.9050   34.1770   45.7970 C   0  0  0  0  0  0  0  0  0  0  0  0
   58.9040   34.9510   45.2070 C   0  0  0  0  0  0  0  0  0  0  0  0
   57.6750   34.3810   44.8820 C   0  0  0  0  0  0  0  0  0  0  0  0
   57.4410   33.0320   45.1380 C   0  0  0  0  0  0  0  0  0  0  0  0
   58.4380   32.2360   45.7380 C   0  0  0  0  0  0  0  0  0  0  0  0
   58.2160   30.8760   46.0070 C   0  0  0  0  0  0  0  0  0  0  0  0
   57.1410   30.3240   45.6430 O   0  0  0  0  0  0  0  0  0  0  0  0
   59.5831   29.0780   44.4534 H   0  0  0  0  0  0  0  0  0  0  0  0
   60.0105   27.3678   44.1085 H   0  0  0  0  0  0  0  0  0  0  0  0
   58.2891   27.8809   44.1085 H   0  0  0  0  0  0  0  0  0  0  0  0
   59.2342   26.2952   47.5636 H   0  0  0  0  0  0  0  0  0  0  0  0
   58.3556   25.7816   46.0834 H   0  0  0  0  0  0  0  0  0  0  0  0
   60.1505   25.8524   46.0834 H   0  0  0  0  0  0  0  0  0  0  0  0
   62.7987   31.8035   46.8088 H   0  0  0  0  0  0  0  0  0  0  0  0
   62.1878   33.4954   46.7156 H   0  0  0  0  0  0  0  0  0  0  0  0
   61.1853   34.5887   48.7208 H   0  0  0  0  0  0  0  0  0  0  0  0
   61.0248   34.6244   51.2102 H   0  0  0  0  0  0  0  0  0  0  0  0
   61.6937   32.6185   52.5347 H   0  0  0  0  0  0  0  0  0  0  0  0
   59.9965   30.3333   49.8722 H   0  0  0  0  0  0  0  0  0  0  0  0
   57.5349   30.6143   50.2077 H   0  0  0  0  0  0  0  0  0  0  0  0
   55.9992   28.0720   53.4859 H   0  0  0  0  0  0  0  0  0  0  0  0
   55.4010   29.5328   54.3539 H   0  0  0  0  0  0  0  0  0  0  0  0
   54.0765   28.1035   51.9929 H   0  0  0  0  0  0  0  0  0  0  0  0
   53.4812   28.2111   53.6955 H   0  0  0  0  0  0  0  0  0  0  0  0
   52.3001   29.7894   52.1463 H   0  0  0  0  0  0  0  0  0  0  0  0
   53.1840   30.6227   53.4846 H   0  0  0  0  0  0  0  0  0  0  0  0
   54.1243   30.3092   50.5879 H   0  0  0  0  0  0  0  0  0  0  0  0
   53.5584   31.8241   51.3944 H   0  0  0  0  0  0  0  0  0  0  0  0
   56.0757   31.6174   51.2275 H   0  0  0  0  0  0  0  0  0  0  0  0
   55.4511   31.8065   52.9059 H   0  0  0  0  0  0  0  0  0  0  0  0
   60.2765   28.5648   53.8107 H   0  0  0  0  0  0  0  0  0  0  0  0
   63.0080   30.6636   48.9058 H   0  0  0  0  0  0  0  0  0  0  0  0
   60.8733   34.6358   46.0458 H   0  0  0  0  0  0  0  0  0  0  0  0
   59.0865   36.0154   44.9979 H   0  0  0  0  0  0  0  0  0  0  0  0
   56.8882   34.9973   44.4225 H   0  0  0  0  0  0  0  0  0  0  0  0
   56.4722   32.5849   44.8704 H   0  0  0  0  0  0  0  0  0  0  0  0
  1  2  1  0
  2  3  1  0
  2  4  1  0
  4  5  2  0
  4  6  1  0
  6  7  1  0
  7  8  2  0
  8  9  1  0
  9 10  1  0
 10 11  2  0
 11 12  1  0
 12 13  2  0
 13 14  1  0
 14 15  1  0
 15 16  1  0
 16 17  2  0
 16 18  1  0
 18 19  2  0
 19 20  1  0
 20 21  2  0
 21 22  1  0
 22 23  1  0
 23 24  1  0
 24 25  1  0
 25 26  1  0
 26 27  1  0
 21 28  1  0
 28 29  2  0
 14 30  2  0
  8 31  1  0
 31 32  2  0
 32 33  1  0
 33 34  2  0
 34 35  1  0
 35 36  2  0
 36 37  1  0
 37 38  2  0
 37  6  1  0
 30 10  1  0
 36 31  1  0
 29 18  1  0
 27 22  1  0
  1 39  1  0
  1 40  1  0
  1 41  1  0
  3 42  1  0
  3 43  1  0
  3 44  1  0
  9 45  1  0
  9 46  1  0
 11 47  1  0
 12 48  1  0
 13 49  1  0
 19 50  1  0
 20 51  1  0
 23 52  1  0
 23 53  1  0
 24 54  1  0
 24 55  1  0
 25 56  1  0
 25 57  1  0
 26 58  1  0
 26 59  1  0
 27 60  1  0
 27 61  1  0
 29 62  1  0
 30 63  1  0
 32 64  1  0
 33 65  1  0
 34 66  1  0
 35 67  1  0
M  CHG  1  15  -1
M  END
>  <UniqueID>  (79) 
71

>  <SMILES>  (79) 
CN(C)C(=O)n1nc(Cc2cccc([N-]C(=O)c3ccc(N4CCCCC4)nc3)c2)c2ccccc2c1=O

>  <Energy>  (79) 
88.55539334501633

>  <Genealogy>  (79) 
CN(C)C(=O)n1nc(Cc2cccc([N-]C(=O)c3ccc(N4CCCCC4)nc3)c2)c2ccccc2c1=O (protonated)
CN(C)C(=O)n1nc(Cc2cccc([N-]C(=O)c3ccc(N4CCCCC4)nc3)c2)c2ccccc2c1=O (3D coordinates assigned)
CN(C)C(=O)n1nc(Cc2cccc([N-]C(=O)c3ccc(N4CCCCC4)nc3)c2)c2ccccc2c1=O (nonaromatic ring conformer: 88.55539334501633 kcal/mol)

>  <smiles>  (79) 
CN(C)C(=O)n1nc(Cc2cccc(NC(=O)c3ccc(N4CCCCC4)nc3)c2)c2ccccc2c1=O

>  <score_type>  (79) 
oracle

>  <origin>  (79) 
adg

>  <m_score__min__energy>  (79) 
-12.33

>  <m_primary>  (79) 
energy

$$$$
79:0
     RDKit          3D

 34 35  0  0  1  0  0  0  0  0999 V2000
   56.5770   24.0540   47.7870 C   0  0  0  0  0  0  0  0  0  0  0  0
   56.7510   25.2100   46.8960 C   0  0  0  0  0  0  0  0  0  0  0  0
   58.0410   25.5470   46.5260 C   0  0  0  0  0  0  0  0  0  0  0  0
   58.2500   26.6200   45.6950 C   0  0  0  0  0  0  0  0  0  0  0  0
   59.5150   26.9610   45.3240 O   0  0  0  0  0  0  0  0  0  0  0  0
   57.1920   27.3380   45.2450 C   0  0  0  0  0  0  0  0  0  0  0  0
   57.3640   28.3200   44.4810 N   0  0  0  0  0  0  0  0  0  0  0  0
   56.6400   29.5350   44.4340 C   0  0  0  0  0  0  0  0  0  0  0  0
   55.4550   29.6770   44.8280 O   0  0  0  0  0  0  0  0  0  0  0  0
   57.3880   30.7140   43.8600 C   0  0  0  0  0  0  0  0  0  0  0  0
   57.7790   31.6960   44.8920 C   0  0  0  0  0  0  0  0  0  0  0  0
   57.1400   32.9430   44.8800 C   0  0  0  0  0  0  0  0  0  0  0  0
   57.4260   33.9210   45.8080 C   0  0  0  0  0  0  0  0  0  0  0  0
   58.3690   33.7070   46.8050 C   0  0  0  0  0  0  0  0  0  0  0  0
   58.9920   32.4780   46.8080 C   0  0  0  0  0  0  0  0  0  0  0  0
   58.7020   31.4970   45.8710 C   0  0  0  0  0  0  0  0  0  0  0  0
   59.4340   30.2330   45.9590 C   0  0  0  0  0  0  0  0  0  0  0  0
   55.9300   26.9880   45.6220 N   0  0  0  0  0  0  0  0  0  0  0  0
   55.7200   25.9560   46.4230 N   0  0  0  0  0  0  0  0  0  0  0  0
   56.6272   24.3873   48.8341 H   0  0  0  0  0  0  0  0  0  0  0  0
   55.5987   23.5885   47.5969 H   0  0  0  0  0  0  0  0  0  0  0  0
   57.3749   23.3211   47.5969 H   0  0  0  0  0  0  0  0  0  0  0  0
   58.8940   24.9589   46.8954 H   0  0  0  0  0  0  0  0  0  0  0  0
   59.7510   27.7000   44.6680 H   0  0  0  0  0  0  0  0  0  0  0  0
   58.2969   30.3458   43.3617 H   0  0  0  0  0  0  0  0  0  0  0  0
   56.7158   31.2230   43.1536 H   0  0  0  0  0  0  0  0  0  0  0  0
   56.3863   33.1478   44.1054 H   0  0  0  0  0  0  0  0  0  0  0  0
   56.8995   34.8855   45.7583 H   0  0  0  0  0  0  0  0  0  0  0  0
   58.6060   34.4781   47.5529 H   0  0  0  0  0  0  0  0  0  0  0  0
   59.7460   32.2673   47.5807 H   0  0  0  0  0  0  0  0  0  0  0  0
   59.5862   29.9702   47.0163 H   0  0  0  0  0  0  0  0  0  0  0  0
   58.8558   29.4392   45.4634 H   0  0  0  0  0  0  0  0  0  0  0  0
   60.4103   30.3394   45.4634 H   0  0  0  0  0  0  0  0  0  0  0  0
   55.1410   27.5660   45.2550 H   0  0  0  0  0  0  0  0  0  0  0  0
  1  2  1  0
  2  3  1  0
  3  4  2  0
  4  5  1  0
  4  6  1  0
  6  7  2  0
  7  8  1  0
  8  9  2  0
  8 10  1  0
 10 11  1  0
 11 12  2  0
 12 13  1  0
 13 14  2  0
 14 15  1  0
 15 16  2  0
 16 17  1  0
  6 18  1  0
 18 19  1  0
 19  2  2  0
 16 11  1  0
  1 20  1  0
  1 21  1  0
  1 22  1  0
  3 23  1  0
  5 24  1  0
 10 25  1  0
 10 26  1  0
 12 27  1  0
 13 28  1  0
 14 29  1  0
 15 30  1  0
 17 31  1  0
 17 32  1  0
 17 33  1  0
 18 34  1  0
M  END
>  <smiles>  (80) 
Cc1cc(O)c(=NC(=O)Cc2ccccc2C)[nH]n1

>  <score_type>  (80) 
oracle

>  <origin>  (80) 
adg

>  <m_score__min__energy>  (80) 
-8.1799999999999997

>  <m_primary>  (80) 
energy

$$$$
80:0
     RDKit          3D

 41 43  0  0  0  0  0  0  0  0999 V2000
   58.6960   32.7060   44.9540 O   0  0  0  0  0  0  0  0  0  0  0  0
   58.5890   32.8200   46.2070 C   0  0  0  0  0  0  0  0  0  0  0  0
   59.0740   34.0630   46.8850 C   0  0  0  0  0  0  0  0  0  0  0  0
   60.5010   33.8940   47.3360 C   0  0  0  0  0  0  0  0  0  0  0  0
   61.5230   33.8560   46.3680 C   0  0  0  0  0  0  0  0  0  0  0  0
   62.8620   33.7350   46.7530 C   0  0  0  0  0  0  0  0  0  0  0  0
   63.1970   33.6580   48.1050 C   0  0  0  0  0  0  0  0  0  0  0  0
   62.1940   33.7090   49.0790 C   0  0  0  0  0  0  0  0  0  0  0  0
   60.8500   33.8370   48.7070 C   0  0  0  0  0  0  0  0  0  0  0  0
   59.6470   33.9550   49.9880 Cl  0  0  0  0  0  0  0  0  0  0  0  0
   58.0350   31.7570   46.9920 N   0  0  0  0  0  0  0  0  0  0  0  0
   58.7820   30.6660   47.5500 C   0  0  0  0  0  0  0  0  0  0  0  0
   59.3580   30.8460   48.8150 C   0  0  0  0  0  0  0  0  0  0  0  0
   60.1800   29.8630   49.3690 C   0  0  0  0  0  0  0  0  0  0  0  0
   60.4320   28.6840   48.6630 C   0  0  0  0  0  0  0  0  0  0  0  0
   59.8360   28.4740   47.4160 C   0  0  0  0  0  0  0  0  0  0  0  0
   58.9740   29.4340   46.8680 C   0  0  0  0  0  0  0  0  0  0  0  0
   58.2960   29.1100   45.6440 N   0  0  0  0  0  0  0  0  0  0  0  0
   57.1550   28.2480   45.5180 C   0  0  0  0  0  0  0  0  0  0  0  0
   56.0790   28.7300   45.0730 O   0  0  0  0  0  0  0  0  0  0  0  0
   57.2060   26.8160   45.8900 C   0  0  0  0  0  0  0  0  0  0  0  0
   58.4540   26.1900   46.0490 C   0  0  0  0  0  0  0  0  0  0  0  0
   58.5290   24.8350   46.3890 C   0  0  0  0  0  0  0  0  0  0  0  0
   57.3580   24.0960   46.5910 C   0  0  0  0  0  0  0  0  0  0  0  0
   57.4350   22.7480   46.9250 O   0  0  0  0  0  0  0  0  0  0  0  0
   56.1120   24.7140   46.4620 C   0  0  0  0  0  0  0  0  0  0  0  0
   56.0300   26.0720   46.1250 C   0  0  0  0  0  0  0  0  0  0  0  0
   54.7780   26.6730   46.0550 O   0  0  0  0  0  0  0  0  0  0  0  0
   59.0140   34.9063   46.1813 H   0  0  0  0  0  0  0  0  0  0  0  0
   58.4431   34.2582   47.7647 H   0  0  0  0  0  0  0  0  0  0  0  0
   61.2661   33.9220   45.3005 H   0  0  0  0  0  0  0  0  0  0  0  0
   63.6522   33.7005   45.9886 H   0  0  0  0  0  0  0  0  0  0  0  0
   64.2504   33.5571   48.4054 H   0  0  0  0  0  0  0  0  0  0  0  0
   62.4628   33.6482   50.1439 H   0  0  0  0  0  0  0  0  0  0  0  0
   59.1604   31.7709   49.3768 H   0  0  0  0  0  0  0  0  0  0  0  0
   60.6292   30.0167   50.3613 H   0  0  0  0  0  0  0  0  0  0  0  0
   61.0998   27.9205   49.0886 H   0  0  0  0  0  0  0  0  0  0  0  0
   60.0451   27.5480   46.8604 H   0  0  0  0  0  0  0  0  0  0  0  0
   59.3780   26.7692   45.9052 H   0  0  0  0  0  0  0  0  0  0  0  0
   59.5101   24.3497   46.4977 H   0  0  0  0  0  0  0  0  0  0  0  0
   55.1923   24.1331   46.6254 H   0  0  0  0  0  0  0  0  0  0  0  0
  1  2  2  0
  2  3  1  0
  3  4  1  0
  4  5  2  0
  5  6  1  0
  6  7  2  0
  7  8  1  0
  8  9  2  0
  9 10  1  0
  2 11  1  0
 11 12  1  0
 12 13  2  0
 13 14  1  0
 14 15  2  0
 15 16  1  0
 16 17  2  0
 17 18  1  0
 18 19  1  0
 19 20  2  0
 19 21  1  0
 21 22  2  0
 22 23  1  0
 23 24  2  0
 24 25  1  0
 24 26  1  0
 26 27  2  0
 27 28  1  0
  9  4  1  0
 17 12  1  0
 27 21  1  0
  3 29  1  0
  3 30  1  0
  5 31  1  0
  6 32  1  0
  7 33  1  0
  8 34  1  0
 13 35  1  0
 14 36  1  0
 15 37  1  0
 16 38  1  0
 22 39  1  0
 23 40  1  0
 26 41  1  0
M  CHG  4  11  -1  18  -1  25  -1  28  -1
M  END
>  <UniqueID>  (81) 
72

>  <SMILES>  (81) 
O=C(Cc1ccccc1Cl)[N-]c1ccccc1[N-]C(=O)c1ccc([O-])cc1[O-]

>  <Energy>  (81) 
59.007917116571925

>  <Genealogy>  (81) 
O=C(Cc1ccccc1Cl)[N-]c1ccccc1[N-]C(=O)c1ccc([O-])cc1[O-] (protonated)
O=C(Cc1ccccc1Cl)[N-]c1ccccc1[N-]C(=O)c1ccc([O-])cc1[O-] (3D coordinates assigned)
O=C(Cc1ccccc1Cl)[N-]c1ccccc1[N-]C(=O)c1ccc([O-])cc1[O-] (optimized conformer: 59.007917116571925 kcal/mol)

>  <smiles>  (81) 
O=C(Cc1ccccc1Cl)Nc1ccccc1NC(=O)c1ccc(O)cc1O

>  <score_type>  (81) 
oracle

>  <origin>  (81) 
adg

>  <m_score__min__energy>  (81) 
-17.170000000000002

>  <m_primary>  (81) 
energy

$$$$
81:0
     RDKit          3D

 58 62  0  0  0  0  0  0  0  0999 V2000
   55.4910   24.1350   45.4630 C   0  0  0  0  0  0  0  0  0  0  0  0
   55.5180   25.3280   46.2400 O   0  0  0  0  0  0  0  0  0  0  0  0
   56.6340   26.1720   46.3610 C   0  0  0  0  0  0  0  0  0  0  0  0
   56.6390   27.4860   45.8530 C   0  0  0  0  0  0  0  0  0  0  0  0
   57.7690   28.3140   46.0080 C   0  0  0  0  0  0  0  0  0  0  0  0
   57.7570   29.7110   45.5020 C   0  0  0  0  0  0  0  0  0  0  0  0
   57.1920   30.0270   44.2360 C   0  0  0  0  0  0  0  0  0  0  0  0
   57.1760   31.3140   43.7780 N   0  0  0  0  0  0  0  0  0  0  0  0
   57.7220   32.2950   44.5360 C   0  0  0  0  0  0  0  0  0  0  0  0
   57.7360   33.6040   44.2400 N   0  0  0  0  0  0  0  0  0  0  0  0
   58.3250   34.2100   45.2960 C   0  0  0  0  0  0  0  0  0  0  0  0
   58.6970   33.2710   46.2570 C   0  0  0  0  0  0  0  0  0  0  0  0
   59.3220   33.5640   47.5620 C   0  0  0  0  0  0  0  0  0  0  0  0
   59.6700   34.7460   47.8240 O   0  0  0  0  0  0  0  0  0  0  0  0
   59.5510   32.5070   48.5660 C   0  0  0  0  0  0  0  0  0  0  0  0
   60.8360   31.9800   48.7620 C   0  0  0  0  0  0  0  0  0  0  0  0
   61.0370   30.9390   49.6720 C   0  0  0  0  0  0  0  0  0  0  0  0
   59.9600   30.4230   50.3960 C   0  0  0  0  0  0  0  0  0  0  0  0
   58.6730   30.9580   50.2350 C   0  0  0  0  0  0  0  0  0  0  0  0
   57.5730   30.3670   50.9490 N   0  0  0  0  0  0  0  0  0  0  0  0
   56.6570   31.1060   51.7750 C   0  0  0  0  0  0  0  0  0  0  0  0
   56.9530   32.2660   52.1690 O   0  0  0  0  0  0  0  0  0  0  0  0
   55.3850   30.4910   52.2120 C   0  0  0  0  0  0  0  0  0  0  0  0
   54.1920   30.9210   51.6040 C   0  0  0  0  0  0  0  0  0  0  0  0
   52.9690   30.3520   51.9550 C   0  0  0  0  0  0  0  0  0  0  0  0
   52.9190   29.3410   52.9130 C   0  0  0  0  0  0  0  0  0  0  0  0
   54.0900   28.9020   53.5320 C   0  0  0  0  0  0  0  0  0  0  0  0
   55.3360   29.4790   53.2120 C   0  0  0  0  0  0  0  0  0  0  0  0
   56.5850   28.9940   53.9260 C   0  0  0  0  0  0  0  0  0  0  0  0
   57.4910   28.5190   52.9960 F   0  0  0  0  0  0  0  0  0  0  0  0
   57.1610   30.0270   54.6440 F   0  0  0  0  0  0  0  0  0  0  0  0
   56.2970   27.9740   54.8160 F   0  0  0  0  0  0  0  0  0  0  0  0
   58.4740   32.0020   49.3120 C   0  0  0  0  0  0  0  0  0  0  0  0
   58.2880   32.0460   45.7520 C   0  0  0  0  0  0  0  0  0  0  0  0
   58.3080   30.7560   46.2780 C   0  0  0  0  0  0  0  0  0  0  0  0
   58.9000   27.8020   46.6680 C   0  0  0  0  0  0  0  0  0  0  0  0
   58.9020   26.4960   47.1620 C   0  0  0  0  0  0  0  0  0  0  0  0
   57.7740   25.6850   47.0120 C   0  0  0  0  0  0  0  0  0  0  0  0
   57.7890   24.3890   47.5150 O   0  0  0  0  0  0  0  0  0  0  0  0
   55.4712   23.2621   46.1320 H   0  0  0  0  0  0  0  0  0  0  0  0
   54.5925   24.1310   44.8284 H   0  0  0  0  0  0  0  0  0  0  0  0
   56.3884   24.0904   44.8284 H   0  0  0  0  0  0  0  0  0  0  0  0
   55.7511   27.8701   45.3295 H   0  0  0  0  0  0  0  0  0  0  0  0
   56.7624   29.2251   43.6176 H   0  0  0  0  0  0  0  0  0  0  0  0
   57.3520   34.0630   43.3850 H   0  0  0  0  0  0  0  0  0  0  0  0
   58.4880   35.2943   45.3844 H   0  0  0  0  0  0  0  0  0  0  0  0
   61.6878   32.3874   48.1977 H   0  0  0  0  0  0  0  0  0  0  0  0
   62.0456   30.5250   49.8185 H   0  0  0  0  0  0  0  0  0  0  0  0
   60.1219   29.5913   51.0974 H   0  0  0  0  0  0  0  0  0  0  0  0
   57.4420   29.3330   50.8630 H   0  0  0  0  0  0  0  0  0  0  0  0
   54.2244   31.7149   50.8433 H   0  0  0  0  0  0  0  0  0  0  0  0
   52.0426   30.7011   51.4755 H   0  0  0  0  0  0  0  0  0  0  0  0
   51.9535   28.8877   53.1820 H   0  0  0  0  0  0  0  0  0  0  0  0
   54.0404   28.0959   54.2788 H   0  0  0  0  0  0  0  0  0  0  0  0
   57.4680   32.4250   49.1742 H   0  0  0  0  0  0  0  0  0  0  0  0
   58.7405   30.5564   47.2695 H   0  0  0  0  0  0  0  0  0  0  0  0
   59.7903   28.4353   46.7962 H   0  0  0  0  0  0  0  0  0  0  0  0
   59.7949   26.1041   47.6711 H   0  0  0  0  0  0  0  0  0  0  0  0
  1  2  1  0
  2  3  1  0
  3  4  2  0
  4  5  1  0
  5  6  1  0
  6  7  2  0
  7  8  1  0
  8  9  2  0
  9 10  1  0
 10 11  1  0
 11 12  2  0
 12 13  1  0
 13 14  2  0
 13 15  1  0
 15 16  2  0
 16 17  1  0
 17 18  2  0
 18 19  1  0
 19 20  1  0
 20 21  1  0
 21 22  2  0
 21 23  1  0
 23 24  2  0
 24 25  1  0
 25 26  2  0
 26 27  1  0
 27 28  2  0
 28 29  1  0
 29 30  1  0
 29 31  1  0
 29 32  1  0
 19 33  2  0
 12 34  1  0
 34 35  2  0
  5 36  2  0
 36 37  1  0
 37 38  2  0
 38 39  1  0
 38  3  1  0
 35  6  1  0
 34  9  1  0
 33 15  1  0
 28 23  1  0
  1 40  1  0
  1 41  1  0
  1 42  1  0
  4 43  1  0
  7 44  1  0
 10 45  1  0
 11 46  1  0
 16 47  1  0
 17 48  1  0
 18 49  1  0
 20 50  1  0
 24 51  1  0
 25 52  1  0
 26 53  1  0
 27 54  1  0
 33 55  1  0
 35 56  1  0
 36 57  1  0
 37 58  1  0
M  CHG  1  39  -1
M  END
>  <UniqueID>  (82) 
73

>  <SMILES>  (82) 
COc1cc(-c2cnc3[nH]cc(C(=O)c4cccc(NC(=O)c5ccccc5C(F)(F)F)c4)c3c2)ccc1[O-]

>  <Energy>  (82) 
121.01818306591369

>  <Genealogy>  (82) 
COc1cc(-c2cnc3[nH]cc(C(=O)c4cccc(NC(=O)c5ccccc5C(F)(F)F)c4)c3c2)ccc1[O-] (protonated)
COc1cc(-c2cnc3[nH]cc(C(=O)c4cccc(NC(=O)c5ccccc5C(F)(F)F)c4)c3c2)ccc1[O-] (3D coordinates assigned)
COc1cc(-c2cnc3[nH]cc(C(=O)c4cccc(NC(=O)c5ccccc5C(F)(F)F)c4)c3c2)ccc1[O-] (optimized conformer: 121.01818306591369 kcal/mol)

>  <smiles>  (82) 
COc1cc(-c2cnc3[nH]cc(C(=O)c4cccc(NC(=O)c5ccccc5C(F)(F)F)c4)c3c2)ccc1O

>  <score_type>  (82) 
oracle

>  <origin>  (82) 
adg

>  <m_score__min__energy>  (82) 
-12.76

>  <m_primary>  (82) 
energy

$$$$
82:0
     RDKit          3D

 51 53  0  0  0  0  0  0  0  0999 V2000
   55.1560   28.6480   45.6260 H   0  0  0  0  0  0  0  0  0  0  0  0
   55.3470   29.3560   44.8820 N   0  0  0  0  0  0  0  0  0  0  0  0
   57.0510   29.6540   44.8890 S   0  0  0  0  0  0  0  0  0  0  0  0
   57.5220   29.7460   43.4640 O   0  0  0  0  0  0  0  0  0  0  0  0
   57.3380   30.9560   45.5830 O   0  0  0  0  0  0  0  0  0  0  0  0
   57.8900   28.3340   45.7210 C   0  0  0  0  0  0  0  0  0  0  0  0
   57.5300   27.0080   45.4280 C   0  0  0  0  0  0  0  0  0  0  0  0
   56.7645   26.8082   44.6637 H   0  0  0  0  0  0  0  0  0  0  0  0
   58.1330   25.9420   46.0960 C   0  0  0  0  0  0  0  0  0  0  0  0
   57.8422   24.9085   45.8565 H   0  0  0  0  0  0  0  0  0  0  0  0
   59.1040   26.1850   47.0670 C   0  0  0  0  0  0  0  0  0  0  0  0
   59.5742   25.3432   47.5964 H   0  0  0  0  0  0  0  0  0  0  0  0
   59.4800   27.4950   47.3680 C   0  0  0  0  0  0  0  0  0  0  0  0
   60.2433   27.6806   48.1380 H   0  0  0  0  0  0  0  0  0  0  0  0
   58.8910   28.5780   46.6950 C   0  0  0  0  0  0  0  0  0  0  0  0
   59.3400   29.9430   47.0330 C   0  0  0  0  0  0  0  0  0  0  0  0
   60.3720   30.5530   46.3150 C   0  0  0  0  0  0  0  0  0  0  0  0
   60.8571   30.0152   45.4871 H   0  0  0  0  0  0  0  0  0  0  0  0
   60.7880   31.8420   46.6460 C   0  0  0  0  0  0  0  0  0  0  0  0
   61.5925   32.3275   46.0742 H   0  0  0  0  0  0  0  0  0  0  0  0
   60.1720   32.5190   47.7170 C   0  0  0  0  0  0  0  0  0  0  0  0
   60.5170   33.7290   48.0670 N   0  0  0  0  0  0  0  0  0  0  0  0
   60.9030   34.1930   49.4020 C   0  0  0  0  0  0  0  0  0  0  0  0
   60.2101   33.7707   50.1447 H   0  0  0  0  0  0  0  0  0  0  0  0
   60.8600   35.2920   49.4188 H   0  0  0  0  0  0  0  0  0  0  0  0
   62.3080   33.7600   49.7350 C   0  0  0  0  0  0  0  0  0  0  0  0
   63.1850   33.3710   48.7090 C   0  0  0  0  0  0  0  0  0  0  0  0
   62.8466   33.3922   47.6626 H   0  0  0  0  0  0  0  0  0  0  0  0
   64.4860   32.9570   49.0110 C   0  0  0  0  0  0  0  0  0  0  0  0
   65.1679   32.6617   48.2000 H   0  0  0  0  0  0  0  0  0  0  0  0
   64.9270   32.9160   50.3430 C   0  0  0  0  0  0  0  0  0  0  0  0
   66.2680   32.4960   50.6540 N   0  0  0  0  0  0  0  0  0  0  0  0
   66.5740   31.0710   50.7750 C   0  0  0  0  0  0  0  0  0  0  0  0
   66.6327   30.7976   51.8389 H   0  0  0  0  0  0  0  0  0  0  0  0
   65.7816   30.4832   50.2886 H   0  0  0  0  0  0  0  0  0  0  0  0
   67.5379   30.8604   50.2886 H   0  0  0  0  0  0  0  0  0  0  0  0
   67.5100   33.6740   50.9680 S   0  0  0  0  0  0  0  0  0  0  0  0
   66.8810   34.9940   51.3180 O   0  0  0  0  0  0  0  0  0  0  0  0
   68.3690   33.8440   49.7460 O   0  0  0  0  0  0  0  0  0  0  0  0
   68.5170   33.1580   52.3450 C   0  0  0  0  0  0  0  0  0  0  0  0
   68.0111   33.4173   53.2867 H   0  0  0  0  0  0  0  0  0  0  0  0
   68.6711   32.0698   52.2991 H   0  0  0  0  0  0  0  0  0  0  0  0
   69.4903   33.6685   52.2991 H   0  0  0  0  0  0  0  0  0  0  0  0
   64.0490   33.3040   51.3670 C   0  0  0  0  0  0  0  0  0  0  0  0
   64.3876   33.2836   52.4134 H   0  0  0  0  0  0  0  0  0  0  0  0
   62.7480   33.7160   51.0670 C   0  0  0  0  0  0  0  0  0  0  0  0
   62.0653   34.0073   51.8788 H   0  0  0  0  0  0  0  0  0  0  0  0
   59.1790   31.8940   48.4140 N   0  0  0  0  0  0  0  0  0  0  0  0
   58.7110   32.3900   49.2070 H   0  0  0  0  0  0  0  0  0  0  0  0
   58.7590   30.6370   48.1020 C   0  0  0  0  0  0  0  0  0  0  0  0
   57.9599   30.1644   48.6920 H   0  0  0  0  0  0  0  0  0  0  0  0
  1  2  1  0
  2  3  1  0
  3  4  2  0
  3  5  2  0
  3  6  1  0
  6  7  2  0
  7  8  1  0
  7  9  1  0
  9 10  1  0
  9 11  2  0
 11 12  1  0
 11 13  1  0
 13 14  1  0
 13 15  2  0
 15 16  1  0
 16 17  1  0
 17 18  1  0
 17 19  2  0
 19 20  1  0
 19 21  1  0
 21 22  2  0
 22 23  1  0
 23 24  1  0
 23 25  1  0
 23 26  1  0
 26 27  2  0
 27 28  1  0
 27 29  1  0
 29 30  1  0
 29 31  2  0
 31 32  1  0
 32 33  1  0
 33 34  1  0
 33 35  1  0
 33 36  1  0
 32 37  1  0
 37 38  2  0
 37 39  2  0
 37 40  1  0
 40 41  1  0
 40 42  1  0
 40 43  1  0
 31 44  1  0
 44 45  1  0
 44 46  2  0
 46 47  1  0
 21 48  1  0
 48 49  1  0
 48 50  1  0
 50 51  1  0
 15  6  1  0
 50 16  2  0
 46 26  1  0
M  CHG  1   2  -1
M  END
>  <UniqueID>  (83) 
74

>  <SMILES>  (83) 
CN(c1ccc(C/N=c2\ccc(-c3ccccc3S([NH-])(=O)=O)c[nH]2)cc1)S(C)(=O)=O

>  <Energy>  (83) 
63.69195006884957

>  <Genealogy>  (83) 
CN(c1ccc(CN=c2ccc(-c3ccccc3S([NH-])(=O)=O)c[nH]2)cc1)S(C)(=O)=O (protonated)
CN(c1ccc(C/N=c2\ccc(-c3ccccc3S([NH-])(=O)=O)c[nH]2)cc1)S(C)(=O)=O (cis-trans isomerization)
CN(c1ccc(C/N=c2\ccc(-c3ccccc3S([NH-])(=O)=O)c[nH]2)cc1)S(C)(=O)=O (3D coordinates assigned)
CN(c1ccc(C/N=c2\ccc(-c3ccccc3S([NH-])(=O)=O)c[nH]2)cc1)S(C)(=O)=O (optimized conformer: 63.69195006884957 kcal/mol)

>  <smiles>  (83) 
CN(c1ccc(CN=c2ccc(-c3ccccc3S(N)(=O)=O)c[nH]2)cc1)S(C)(=O)=O

>  <score_type>  (83) 
oracle

>  <origin>  (83) 
adg

>  <m_score__min__energy>  (83) 
-11.09

>  <m_primary>  (83) 
energy

$$$$
83:0
     RDKit          3D

 49 51  0  0  0  0  0  0  0  0999 V2000
   59.6470   35.4540   45.6330 C   0  0  0  0  0  0  0  0  0  0  0  0
   58.7490   34.2880   45.3410 C   0  0  0  0  0  0  0  0  0  0  0  0
   58.8490   33.6000   44.1230 C   0  0  0  0  0  0  0  0  0  0  0  0
   58.0270   32.4980   43.8640 C   0  0  0  0  0  0  0  0  0  0  0  0
   57.0790   32.0850   44.8150 C   0  0  0  0  0  0  0  0  0  0  0  0
   56.2470   30.9370   44.6000 N   0  0  0  0  0  0  0  0  0  0  0  0
   56.6090   29.5660   44.8030 C   0  0  0  0  0  0  0  0  0  0  0  0
   55.7010   28.7360   45.0800 O   0  0  0  0  0  0  0  0  0  0  0  0
   58.0020   29.0570   44.5390 C   0  0  0  0  0  0  0  0  0  0  0  0
   58.2540   27.8320   45.3050 N   0  0  0  0  0  0  0  0  0  0  0  0
   57.5600   26.6120   44.9960 C   0  0  0  0  0  0  0  0  0  0  0  0
   57.7700   25.9750   43.7660 C   0  0  0  0  0  0  0  0  0  0  0  0
   57.0860   24.7980   43.4510 C   0  0  0  0  0  0  0  0  0  0  0  0
   56.1760   24.2350   44.3630 C   0  0  0  0  0  0  0  0  0  0  0  0
   55.4470   22.9880   44.0330 C   0  0  0  0  0  0  0  0  0  0  0  0
   55.8140   22.2130   42.8920 N   0  0  0  0  0  0  0  0  0  0  0  0
   54.4900   22.6000   44.7570 O   0  0  0  0  0  0  0  0  0  0  0  0
   55.9680   24.8770   45.5980 C   0  0  0  0  0  0  0  0  0  0  0  0
   56.6520   26.0560   45.9090 C   0  0  0  0  0  0  0  0  0  0  0  0
   59.2660   27.9120   46.7160 S   0  0  0  0  0  0  0  0  0  0  0  0
   58.5720   27.2210   47.8570 O   0  0  0  0  0  0  0  0  0  0  0  0
   60.5710   27.2060   46.4630 O   0  0  0  0  0  0  0  0  0  0  0  0
   59.5960   29.5920   47.1330 C   0  0  0  0  0  0  0  0  0  0  0  0
   60.5690   30.3120   46.4250 C   0  0  0  0  0  0  0  0  0  0  0  0
   60.8570   31.6350   46.7740 C   0  0  0  0  0  0  0  0  0  0  0  0
   60.1750   32.2450   47.8320 C   0  0  0  0  0  0  0  0  0  0  0  0
   59.1950   31.5350   48.5330 C   0  0  0  0  0  0  0  0  0  0  0  0
   58.9010   30.2140   48.1830 C   0  0  0  0  0  0  0  0  0  0  0  0
   57.0150   32.7410   46.0500 C   0  0  0  0  0  0  0  0  0  0  0  0
   57.8470   33.8340   46.3140 C   0  0  0  0  0  0  0  0  0  0  0  0
   59.7433   35.5790   46.7216 H   0  0  0  0  0  0  0  0  0  0  0  0
   60.6396   35.2709   45.1957 H   0  0  0  0  0  0  0  0  0  0  0  0
   59.2165   36.3669   45.1957 H   0  0  0  0  0  0  0  0  0  0  0  0
   59.5776   33.9286   43.3673 H   0  0  0  0  0  0  0  0  0  0  0  0
   58.1232   31.9534   42.9131 H   0  0  0  0  0  0  0  0  0  0  0  0
   58.1117   28.8421   43.4658 H   0  0  0  0  0  0  0  0  0  0  0  0
   58.7263   29.8253   44.8474 H   0  0  0  0  0  0  0  0  0  0  0  0
   58.4787   26.4047   43.0428 H   0  0  0  0  0  0  0  0  0  0  0  0
   57.2609   24.3080   42.4818 H   0  0  0  0  0  0  0  0  0  0  0  0
   55.9340   22.6610   41.9560 H   0  0  0  0  0  0  0  0  0  0  0  0
   55.2619   24.4479   46.3241 H   0  0  0  0  0  0  0  0  0  0  0  0
   56.4769   26.5507   46.8758 H   0  0  0  0  0  0  0  0  0  0  0  0
   61.1072   29.8347   45.5928 H   0  0  0  0  0  0  0  0  0  0  0  0
   61.6206   32.1967   46.2160 H   0  0  0  0  0  0  0  0  0  0  0  0
   60.4093   33.2825   48.1125 H   0  0  0  0  0  0  0  0  0  0  0  0
   58.6547   32.0169   49.3611 H   0  0  0  0  0  0  0  0  0  0  0  0
   58.1240   29.6607   48.7309 H   0  0  0  0  0  0  0  0  0  0  0  0
   56.3065   32.3950   46.8171 H   0  0  0  0  0  0  0  0  0  0  0  0
   57.7935   34.3398   47.2894 H   0  0  0  0  0  0  0  0  0  0  0  0
  1  2  1  0
  2  3  2  0
  3  4  1  0
  4  5  2  0
  5  6  1  0
  6  7  1  0
  7  8  2  0
  7  9  1  0
  9 10  1  0
 10 11  1  0
 11 12  2  0
 12 13  1  0
 13 14  2  0
 14 15  1  0
 15 16  1  0
 15 17  2  0
 14 18  1  0
 18 19  2  0
 10 20  1  0
 20 21  2  0
 20 22  2  0
 20 23  1  0
 23 24  2  0
 24 25  1  0
 25 26  2  0
 26 27  1  0
 27 28  2  0
  5 29  1  0
 29 30  2  0
 30  2  1  0
 19 11  1  0
 28 23  1  0
  1 31  1  0
  1 32  1  0
  1 33  1  0
  3 34  1  0
  4 35  1  0
  9 36  1  0
  9 37  1  0
 12 38  1  0
 13 39  1  0
 16 40  1  0
 18 41  1  0
 19 42  1  0
 24 43  1  0
 25 44  1  0
 26 45  1  0
 27 46  1  0
 28 47  1  0
 29 48  1  0
 30 49  1  0
M  CHG  2   6  -1  16  -1
M  END
>  <UniqueID>  (84) 
75

>  <SMILES>  (84) 
Cc1ccc([N-]C(=O)CN(c2ccc(C([NH-])=O)cc2)S(=O)(=O)c2ccccc2)cc1

>  <Energy>  (84) 
56.77373800656088

>  <Genealogy>  (84) 
Cc1ccc([N-]C(=O)CN(c2ccc(C([NH-])=O)cc2)S(=O)(=O)c2ccccc2)cc1 (protonated)
Cc1ccc([N-]C(=O)CN(c2ccc(C([NH-])=O)cc2)S(=O)(=O)c2ccccc2)cc1 (3D coordinates assigned)
Cc1ccc([N-]C(=O)CN(c2ccc(C([NH-])=O)cc2)S(=O)(=O)c2ccccc2)cc1 (optimized conformer: 56.77373800656088 kcal/mol)

>  <smiles>  (84) 
Cc1ccc(NC(=O)CN(c2ccc(C(N)=O)cc2)S(=O)(=O)c2ccccc2)cc1

>  <score_type>  (84) 
oracle

>  <origin>  (84) 
adg

>  <m_score__min__energy>  (84) 
-12.07

>  <m_primary>  (84) 
energy

$$$$
84:0
     RDKit          3D

 56 59  0  0  0  0  0  0  0  0999 V2000
   58.1310   33.0310   46.5750 C   0  0  0  0  0  0  0  0  0  0  0  0
   58.1210   32.6300   47.9420 O   0  0  0  0  0  0  0  0  0  0  0  0
   58.8820   31.5740   48.4690 C   0  0  0  0  0  0  0  0  0  0  0  0
   58.9360   30.3070   47.8540 C   0  0  0  0  0  0  0  0  0  0  0  0
   59.7100   29.2850   48.4100 C   0  0  0  0  0  0  0  0  0  0  0  0
   60.4400   29.5140   49.5800 C   0  0  0  0  0  0  0  0  0  0  0  0
   60.3960   30.7670   50.1950 C   0  0  0  0  0  0  0  0  0  0  0  0
   59.6190   31.7960   49.6460 C   0  0  0  0  0  0  0  0  0  0  0  0
   59.6010   33.0810   50.2780 N   0  0  0  0  0  0  0  0  0  0  0  0
   60.1210   34.2510   49.5690 C   0  0  0  0  0  0  0  0  0  0  0  0
   61.3760   33.8850   48.8260 C   0  0  0  0  0  0  0  0  0  0  0  0
   61.3800   33.8290   47.4210 C   0  0  0  0  0  0  0  0  0  0  0  0
   62.5620   33.5380   46.7330 C   0  0  0  0  0  0  0  0  0  0  0  0
   63.7470   33.3090   47.4400 C   0  0  0  0  0  0  0  0  0  0  0  0
   63.7510   33.3740   48.8350 C   0  0  0  0  0  0  0  0  0  0  0  0
   62.5720   33.6660   49.5280 C   0  0  0  0  0  0  0  0  0  0  0  0
   59.2230   33.1710   51.9680 S   0  0  0  0  0  0  0  0  0  0  0  0
   60.4440   32.8530   52.7880 O   0  0  0  0  0  0  0  0  0  0  0  0
   58.7750   34.5650   52.3140 O   0  0  0  0  0  0  0  0  0  0  0  0
   57.9390   32.0230   52.3220 C   0  0  0  0  0  0  0  0  0  0  0  0
   57.8270   31.4650   53.6010 C   0  0  0  0  0  0  0  0  0  0  0  0
   56.7670   30.6060   53.9050 C   0  0  0  0  0  0  0  0  0  0  0  0
   55.8000   30.2920   52.9320 C   0  0  0  0  0  0  0  0  0  0  0  0
   54.6730   29.3870   53.2530 C   0  0  0  0  0  0  0  0  0  0  0  0
   54.8530   28.1400   53.2500 O   0  0  0  0  0  0  0  0  0  0  0  0
   53.3620   29.9340   53.4800 N   0  0  0  0  0  0  0  0  0  0  0  0
   52.6380   30.6920   52.7030 C   0  0  0  0  0  0  0  0  0  0  0  0
   51.7550   31.5980   53.3020 C   0  0  0  0  0  0  0  0  0  0  0  0
   50.9550   32.4230   52.5090 C   0  0  0  0  0  0  0  0  0  0  0  0
   51.0200   32.3360   51.1530 N   0  0  0  0  0  0  0  0  0  0  0  0
   51.8530   31.4570   50.5370 C   0  0  0  0  0  0  0  0  0  0  0  0
   52.6730   30.6160   51.2930 C   0  0  0  0  0  0  0  0  0  0  0  0
   55.9250   30.8530   51.6470 C   0  0  0  0  0  0  0  0  0  0  0  0
   56.9840   31.7160   51.3480 C   0  0  0  0  0  0  0  0  0  0  0  0
   58.1584   34.1290   46.5152 H   0  0  0  0  0  0  0  0  0  0  0  0
   59.0190   32.6144   46.0772 H   0  0  0  0  0  0  0  0  0  0  0  0
   57.2233   32.6592   46.0772 H   0  0  0  0  0  0  0  0  0  0  0  0
   58.3660   30.1217   46.9316 H   0  0  0  0  0  0  0  0  0  0  0  0
   59.7449   28.2979   47.9259 H   0  0  0  0  0  0  0  0  0  0  0  0
   61.0485   28.7079   50.0158 H   0  0  0  0  0  0  0  0  0  0  0  0
   60.9734   30.9470   51.1138 H   0  0  0  0  0  0  0  0  0  0  0  0
   59.3657   34.6094   48.8542 H   0  0  0  0  0  0  0  0  0  0  0  0
   60.3500   35.0428   50.2974 H   0  0  0  0  0  0  0  0  0  0  0  0
   60.4511   34.0146   46.8618 H   0  0  0  0  0  0  0  0  0  0  0  0
   62.5600   33.4891   45.6341 H   0  0  0  0  0  0  0  0  0  0  0  0
   64.6755   33.0778   46.8973 H   0  0  0  0  0  0  0  0  0  0  0  0
   64.6837   33.1951   49.3900 H   0  0  0  0  0  0  0  0  0  0  0  0
   62.5817   33.7243   50.6264 H   0  0  0  0  0  0  0  0  0  0  0  0
   58.5764   31.7036   54.3701 H   0  0  0  0  0  0  0  0  0  0  0  0
   56.6881   30.1720   54.9127 H   0  0  0  0  0  0  0  0  0  0  0  0
   51.6913   31.6601   54.3984 H   0  0  0  0  0  0  0  0  0  0  0  0
   50.2715   33.1440   52.9812 H   0  0  0  0  0  0  0  0  0  0  0  0
   51.8818   31.4074   49.4385 H   0  0  0  0  0  0  0  0  0  0  0  0
   53.3415   29.8993   50.7936 H   0  0  0  0  0  0  0  0  0  0  0  0
   55.1835   30.6105   50.8716 H   0  0  0  0  0  0  0  0  0  0  0  0
   57.0660   32.1550   50.3427 H   0  0  0  0  0  0  0  0  0  0  0  0
  1  2  1  0
  2  3  1  0
  3  4  2  0
  4  5  1  0
  5  6  2  0
  6  7  1  0
  7  8  2  0
  8  9  1  0
  9 10  1  0
 10 11  1  0
 11 12  2  0
 12 13  1  0
 13 14  2  0
 14 15  1  0
 15 16  2  0
  9 17  1  0
 17 18  2  0
 17 19  2  0
 17 20  1  0
 20 21  2  0
 21 22  1  0
 22 23  2  0
 23 24  1  0
 24 25  2  0
 24 26  1  0
 26 27  2  3
 27 28  1  0
 28 29  2  0
 29 30  1  0
 30 31  1  0
 31 32  2  0
 23 33  1  0
 33 34  2  0
  8  3  1  0
 16 11  1  0
 34 20  1  0
 32 27  1  0
  1 35  1  0
  1 36  1  0
  1 37  1  0
  4 38  1  0
  5 39  1  0
  6 40  1  0
  7 41  1  0
 10 42  1  0
 10 43  1  0
 12 44  1  0
 13 45  1  0
 14 46  1  0
 15 47  1  0
 16 48  1  0
 21 49  1  0
 22 50  1  0
 28 51  1  0
 29 52  1  0
 31 53  1  0
 32 54  1  0
 33 55  1  0
 34 56  1  0
M  CHG  1  30  -1
M  END
>  <UniqueID>  (85) 
76

>  <SMILES>  (85) 
COc1ccccc1N(Cc1ccccc1)S(=O)(=O)c1ccc(C(=O)N=c2cc[n-]cc2)cc1

>  <Energy>  (85) 
72.32149991853292

>  <Genealogy>  (85) 
COc1ccccc1N(Cc1ccccc1)S(=O)(=O)c1ccc(C(=O)N=c2cc[n-]cc2)cc1 (protonated)
COc1ccccc1N(Cc1ccccc1)S(=O)(=O)c1ccc(C(=O)N=c2cc[n-]cc2)cc1 (3D coordinates assigned)
COc1ccccc1N(Cc1ccccc1)S(=O)(=O)c1ccc(C(=O)N=c2cc[n-]cc2)cc1 (optimized conformer: 72.32149991853292 kcal/mol)

>  <smiles>  (85) 
COc1ccccc1N(Cc1ccccc1)S(=O)(=O)c1ccc(C(=O)N=c2cc[nH]cc2)cc1

>  <score_type>  (85) 
oracle

>  <origin>  (85) 
adg

>  <m_score__min__energy>  (85) 
-11.9

>  <m_primary>  (85) 
energy

$$$$
85:0
     RDKit          3D

 45 48  0  0  0  0  0  0  0  0999 V2000
   59.2380   27.9010   44.3370 O   0  0  0  0  0  0  0  0  0  0  0  0
   58.4370   27.6290   45.2730 C   0  0  0  0  0  0  0  0  0  0  0  0
   58.3500   28.5390   46.4850 C   0  0  0  0  0  0  0  0  0  0  0  0
   57.8860   30.0030   46.2300 C   0  0  2  0  0  0  0  0  0  0  0  0
   57.3310   30.2050   44.8210 C   0  0  0  0  0  0  0  0  0  0  0  0
   57.9550   31.0830   43.9080 C   0  0  0  0  0  0  0  0  0  0  0  0
   57.4470   31.2450   42.6140 C   0  0  0  0  0  0  0  0  0  0  0  0
   58.2370   32.3400   41.4950 Cl  0  0  0  0  0  0  0  0  0  0  0  0
   56.3170   30.5320   42.2120 C   0  0  0  0  0  0  0  0  0  0  0  0
   55.6930   29.6540   43.1000 C   0  0  0  0  0  0  0  0  0  0  0  0
   56.1920   29.4850   44.3960 C   0  0  0  0  0  0  0  0  0  0  0  0
   55.5490   28.6010   45.2540 O   0  0  0  0  0  0  0  0  0  0  0  0
   58.8330   31.1330   46.6720 C   0  0  0  0  0  0  0  0  0  0  0  0
   60.2040   30.8270   46.8250 C   0  0  0  0  0  0  0  0  0  0  0  0
   60.6680   29.5410   46.5530 O   0  0  0  0  0  0  0  0  0  0  0  0
   61.1030   31.8130   47.2570 C   0  0  0  0  0  0  0  0  0  0  0  0
   62.4750   31.5510   47.4190 C   0  0  0  0  0  0  0  0  0  0  0  0
   63.3340   32.5660   47.8540 C   0  0  0  0  0  0  0  0  0  0  0  0
   62.8330   33.8420   48.1280 C   0  0  0  0  0  0  0  0  0  0  0  0
   61.4710   34.1080   47.9690 C   0  0  0  0  0  0  0  0  0  0  0  0
   60.6030   33.0990   47.5360 C   0  0  0  0  0  0  0  0  0  0  0  0
   59.3110   33.3600   47.3900 O   0  0  0  0  0  0  0  0  0  0  0  0
   58.4260   32.4570   46.9840 C   0  0  0  0  0  0  0  0  0  0  0  0
   57.2270   32.8160   46.8830 O   0  0  0  0  0  0  0  0  0  0  0  0
   57.6220   26.3890   45.1820 C   0  0  0  0  0  0  0  0  0  0  0  0
   56.7670   25.9930   46.2290 C   0  0  0  0  0  0  0  0  0  0  0  0
   56.0100   24.8210   46.1230 C   0  0  0  0  0  0  0  0  0  0  0  0
   56.0990   24.0290   44.9760 C   0  0  0  0  0  0  0  0  0  0  0  0
   55.1480   22.5600   44.8460 Cl  0  0  0  0  0  0  0  0  0  0  0  0
   56.9470   24.4080   43.9320 C   0  0  0  0  0  0  0  0  0  0  0  0
   57.7050   25.5770   44.0330 C   0  0  0  0  0  0  0  0  0  0  0  0
   57.6419   28.0838   47.1931 H   0  0  0  0  0  0  0  0  0  0  0  0
   59.3819   28.6240   46.8565 H   0  0  0  0  0  0  0  0  0  0  0  0
   57.0550   30.1148   46.9420 H   0  0  0  0  0  0  0  0  0  0  0  0
   58.8488   31.6450   44.2167 H   0  0  0  0  0  0  0  0  0  0  0  0
   55.9178   30.6618   41.1952 H   0  0  0  0  0  0  0  0  0  0  0  0
   54.8038   29.0918   42.7788 H   0  0  0  0  0  0  0  0  0  0  0  0
   62.8728   30.5483   47.2038 H   0  0  0  0  0  0  0  0  0  0  0  0
   64.4069   32.3594   47.9808 H   0  0  0  0  0  0  0  0  0  0  0  0
   63.5120   34.6373   48.4691 H   0  0  0  0  0  0  0  0  0  0  0  0
   61.0796   35.1131   48.1847 H   0  0  0  0  0  0  0  0  0  0  0  0
   56.6938   26.6098   47.1369 H   0  0  0  0  0  0  0  0  0  0  0  0
   55.3430   24.5226   46.9452 H   0  0  0  0  0  0  0  0  0  0  0  0
   57.0178   23.7844   43.0286 H   0  0  0  0  0  0  0  0  0  0  0  0
   58.3728   25.8664   43.2082 H   0  0  0  0  0  0  0  0  0  0  0  0
  1  2  2  0
  2  3  1  0
  3  4  1  0
  4  5  1  0
  5  6  2  0
  6  7  1  0
  7  8  1  0
  7  9  2  0
  9 10  1  0
 10 11  2  0
 11 12  1  0
  4 13  1  0
 13 14  2  0
 14 15  1  0
 14 16  1  0
 16 17  2  0
 17 18  1  0
 18 19  2  0
 19 20  1  0
 20 21  2  0
 21 22  1  0
 22 23  1  0
 23 24  2  0
  2 25  1  0
 25 26  2  0
 26 27  1  0
 27 28  2  0
 28 29  1  0
 28 30  1  0
 30 31  2  0
 11  5  1  0
 23 13  1  0
 31 25  1  0
 21 16  1  0
  3 32  1  0
  3 33  1  0
  4 34  1  1
  6 35  1  0
  9 36  1  0
 10 37  1  0
 17 38  1  0
 18 39  1  0
 19 40  1  0
 20 41  1  0
 26 42  1  0
 27 43  1  0
 30 44  1  0
 31 45  1  0
M  CHG  2  12  -1  15  -1
M  END
>  <UniqueID>  (86) 
77

>  <SMILES>  (86) 
O=C(C[C@H](c1cc(Cl)ccc1[O-])c1c([O-])c2ccccc2oc1=O)c1ccc(Cl)cc1

>  <Energy>  (86) 
70.53861691482072

>  <Genealogy>  (86) 
O=C(CC(c1cc(Cl)ccc1[O-])c1c([O-])c2ccccc2oc1=O)c1ccc(Cl)cc1 (protonated)
O=C(C[C@H](c1cc(Cl)ccc1[O-])c1c([O-])c2ccccc2oc1=O)c1ccc(Cl)cc1 (chirality)
O=C(C[C@H](c1cc(Cl)ccc1[O-])c1c([O-])c2ccccc2oc1=O)c1ccc(Cl)cc1 (3D coordinates assigned)
O=C(C[C@H](c1cc(Cl)ccc1[O-])c1c([O-])c2ccccc2oc1=O)c1ccc(Cl)cc1 (optimized conformer: 70.53861691482072 kcal/mol)

>  <smiles>  (86) 
O=C(CC(c1cc(Cl)ccc1O)c1c(O)c2ccccc2oc1=O)c1ccc(Cl)cc1

>  <score_type>  (86) 
oracle

>  <origin>  (86) 
adg

>  <m_score__min__energy>  (86) 
-14.15

>  <m_primary>  (86) 
energy

$$$$
86:0
     RDKit          3D

 61 64  0  0  0  0  0  0  0  0999 V2000
   53.4940   22.6240   45.5500 N   0  0  0  0  0  0  0  0  0  0  0  0
   54.7680   23.6790   45.0480 S   0  0  0  0  0  0  0  0  0  0  0  0
   54.7580   24.9250   45.8870 O   0  0  0  0  0  0  0  0  0  0  0  0
   54.5330   24.0560   43.6110 O   0  0  0  0  0  0  0  0  0  0  0  0
   56.3290   22.8570   45.2150 C   0  0  0  0  0  0  0  0  0  0  0  0
   56.3470   21.4750   45.4690 C   0  0  0  0  0  0  0  0  0  0  0  0
   57.5580   20.8010   45.6460 C   0  0  0  0  0  0  0  0  0  0  0  0
   58.7640   21.4990   45.5760 C   0  0  0  0  0  0  0  0  0  0  0  0
   58.7640   22.8710   45.3190 C   0  0  0  0  0  0  0  0  0  0  0  0
   57.5550   23.5590   45.1250 C   0  0  0  0  0  0  0  0  0  0  0  0
   57.6100   25.0020   44.8230 C   0  0  0  0  0  0  0  0  0  0  0  0
   57.7540   25.4420   43.4990 C   0  0  0  0  0  0  0  0  0  0  0  0
   57.8130   26.8090   43.2140 C   0  0  0  0  0  0  0  0  0  0  0  0
   57.7520   27.7510   44.2550 C   0  0  0  0  0  0  0  0  0  0  0  0
   57.7750   29.1580   43.9870 N   0  0  0  0  0  0  0  0  0  0  0  0
   57.1040   30.1730   44.7450 C   0  0  0  0  0  0  0  0  0  0  0  0
   55.8900   30.4010   44.5020 O   0  0  0  0  0  0  0  0  0  0  0  0
   57.7770   30.8740   45.9080 C   0  0  0  0  0  0  0  0  0  0  0  0
   57.3830   32.3710   45.9430 C   0  0  0  0  0  0  0  0  0  0  0  0
   58.4310   33.2510   45.2440 C   0  0  0  0  0  0  0  0  0  0  0  0
   59.7880   33.1160   45.8300 N   0  0  0  0  0  0  0  0  0  0  0  0
   60.1600   34.4670   46.8740 S   0  0  0  0  0  0  0  0  0  0  0  0
   59.0260   34.7050   47.8320 O   0  0  0  0  0  0  0  0  0  0  0  0
   60.3670   35.7050   46.0460 O   0  0  0  0  0  0  0  0  0  0  0  0
   61.6140   34.1030   47.8000 C   0  0  0  0  0  0  0  0  0  0  0  0
   61.5900   34.2140   49.1940 C   0  0  0  0  0  0  0  0  0  0  0  0
   62.7260   33.9030   49.9470 C   0  0  0  0  0  0  0  0  0  0  0  0
   63.9090   33.4790   49.3130 C   0  0  0  0  0  0  0  0  0  0  0  0
   65.1170   33.1260   50.0970 C   0  0  0  0  0  0  0  0  0  0  0  0
   65.5900   33.9580   51.1600 N   0  0  0  0  0  0  0  0  0  0  0  0
   65.7550   32.0740   49.8170 O   0  0  0  0  0  0  0  0  0  0  0  0
   63.9210   33.3620   47.9110 C   0  0  0  0  0  0  0  0  0  0  0  0
   62.7850   33.6760   47.1610 C   0  0  0  0  0  0  0  0  0  0  0  0
   60.0260   31.8450   46.5490 C   0  0  0  0  0  0  0  0  0  0  0  0
   59.3110   30.6760   45.8650 C   0  0  0  0  0  0  0  0  0  0  0  0
   57.5920   27.3100   45.5740 C   0  0  0  0  0  0  0  0  0  0  0  0
   57.5390   25.9420   45.8600 C   0  0  0  0  0  0  0  0  0  0  0  0
   53.7640   21.6580   45.2590 H   0  0  0  0  0  0  0  0  0  0  0  0
   55.3997   20.9192   45.5290 H   0  0  0  0  0  0  0  0  0  0  0  0
   57.5606   19.7184   45.8408 H   0  0  0  0  0  0  0  0  0  0  0  0
   59.7158   20.9676   45.7235 H   0  0  0  0  0  0  0  0  0  0  0  0
   59.7175   23.4171   45.2681 H   0  0  0  0  0  0  0  0  0  0  0  0
   57.8207   24.7085   42.6820 H   0  0  0  0  0  0  0  0  0  0  0  0
   57.9074   27.1485   42.1720 H   0  0  0  0  0  0  0  0  0  0  0  0
   57.4222   30.4180   46.8441 H   0  0  0  0  0  0  0  0  0  0  0  0
   56.4156   32.4970   45.4348 H   0  0  0  0  0  0  0  0  0  0  0  0
   57.3192   32.6843   46.9955 H   0  0  0  0  0  0  0  0  0  0  0  0
   58.4776   32.9643   44.1830 H   0  0  0  0  0  0  0  0  0  0  0  0
   58.1199   34.2980   45.3741 H   0  0  0  0  0  0  0  0  0  0  0  0
   60.6724   34.5478   49.7005 H   0  0  0  0  0  0  0  0  0  0  0  0
   62.6952   33.9903   51.0431 H   0  0  0  0  0  0  0  0  0  0  0  0
   65.1970   34.9090   51.3310 H   0  0  0  0  0  0  0  0  0  0  0  0
   66.4060   33.6540   51.7360 H   0  0  0  0  0  0  0  0  0  0  0  0
   64.8335   33.0201   47.4006 H   0  0  0  0  0  0  0  0  0  0  0  0
   62.8102   33.5876   46.0648 H   0  0  0  0  0  0  0  0  0  0  0  0
   61.1069   31.6416   46.5689 H   0  0  0  0  0  0  0  0  0  0  0  0
   59.6297   31.9445   47.5703 H   0  0  0  0  0  0  0  0  0  0  0  0
   59.6383   30.6160   44.8165 H   0  0  0  0  0  0  0  0  0  0  0  0
   59.5632   29.7467   46.3968 H   0  0  0  0  0  0  0  0  0  0  0  0
   57.5075   28.0432   46.3896 H   0  0  0  0  0  0  0  0  0  0  0  0
   57.4413   25.6029   46.9019 H   0  0  0  0  0  0  0  0  0  0  0  0
  1  2  1  0
  2  3  2  0
  2  4  2  0
  2  5  1  0
  5  6  2  0
  6  7  1  0
  7  8  2  0
  8  9  1  0
  9 10  2  0
 10 11  1  0
 11 12  2  0
 12 13  1  0
 13 14  2  0
 14 15  1  0
 15 16  1  0
 16 17  2  0
 16 18  1  0
 18 19  1  0
 19 20  1  0
 20 21  1  0
 21 22  1  0
 22 23  2  0
 22 24  2  0
 22 25  1  0
 25 26  2  0
 26 27  1  0
 27 28  2  0
 28 29  1  0
 29 30  1  0
 29 31  2  0
 28 32  1  0
 32 33  2  0
 21 34  1  0
 34 35  1  0
 14 36  1  0
 36 37  2  0
 10  5  1  0
 37 11  1  0
 35 18  1  0
 33 25  1  0
  1 38  1  0
  6 39  1  0
  7 40  1  0
  8 41  1  0
  9 42  1  0
 12 43  1  0
 13 44  1  0
 18 45  1  0
 19 46  1  0
 19 47  1  0
 20 48  1  0
 20 49  1  0
 26 50  1  0
 27 51  1  0
 30 52  1  0
 30 53  1  0
 32 54  1  0
 33 55  1  0
 34 56  1  0
 34 57  1  0
 35 58  1  0
 35 59  1  0
 36 60  1  0
 37 61  1  0
M  CHG  2   1  -1  15  -1
M  END
>  <UniqueID>  (87) 
78

>  <SMILES>  (87) 
[NH-]S(=O)(=O)c1ccccc1-c1ccc([N-]C(=O)C2CCN(S(=O)(=O)c3ccc(C(N)=O)cc3)CC2)cc1

>  <Energy>  (87) 
86.09201107961228

>  <Genealogy>  (87) 
[NH-]S(=O)(=O)c1ccccc1-c1ccc([N-]C(=O)C2CCN(S(=O)(=O)c3ccc(C(N)=O)cc3)CC2)cc1 (protonated)
[NH-]S(=O)(=O)c1ccccc1-c1ccc([N-]C(=O)C2CCN(S(=O)(=O)c3ccc(C(N)=O)cc3)CC2)cc1 (3D coordinates assigned)
[NH-]S(=O)(=O)c1ccccc1-c1ccc([N-]C(=O)C2CCN(S(=O)(=O)c3ccc(C(N)=O)cc3)CC2)cc1 (nonaromatic ring conformer: 86.09201107961228 kcal/mol)

>  <smiles>  (87) 
NC(=O)c1ccc(S(=O)(=O)N2CCC(C(=O)Nc3ccc(-c4ccccc4S(N)(=O)=O)cc3)CC2)cc1

>  <score_type>  (87) 
oracle

>  <origin>  (87) 
adg

>  <m_score__min__energy>  (87) 
-13.380000000000001

>  <m_primary>  (87) 
energy

$$$$
87:0
     RDKit          3D

 60 64  0  0  0  0  0  0  0  0999 V2000
   61.8774   30.8474   45.8803 H   0  0  0  0  0  0  0  0  0  0  0  0
   61.3330   30.5450   46.7870 C   0  0  0  0  0  0  0  0  0  0  0  0
   60.3400   29.5630   46.7210 C   0  0  0  0  0  0  0  0  0  0  0  0
   59.9310   28.9850   45.4360 C   0  0  0  0  0  0  0  0  0  0  0  0
   59.6310   29.7290   44.4620 O   0  0  0  0  0  0  0  0  0  0  0  0
   59.7640   27.5670   45.3250 N   0  0  0  0  0  0  0  0  0  0  0  0
   60.6430   27.0130   45.1740 H   0  0  0  0  0  0  0  0  0  0  0  0
   58.6540   26.9650   46.0110 C   0  0  0  0  0  0  0  0  0  0  0  0
   58.8990   26.0660   47.0740 C   0  0  0  0  0  0  0  0  0  0  0  0
   60.1770   25.9340   47.6090 O   0  0  0  0  0  0  0  0  0  0  0  0
   57.8610   25.2930   47.5950 C   0  0  0  0  0  0  0  0  0  0  0  0
   58.0596   24.5819   48.4104 H   0  0  0  0  0  0  0  0  0  0  0  0
   56.5720   25.4230   47.0810 C   0  0  0  0  0  0  0  0  0  0  0  0
   55.7608   24.7922   47.4734 H   0  0  0  0  0  0  0  0  0  0  0  0
   56.3040   26.3500   46.0700 C   0  0  0  0  0  0  0  0  0  0  0  0
   55.2750   26.4747   45.7018 H   0  0  0  0  0  0  0  0  0  0  0  0
   57.3420   27.1250   45.5200 C   0  0  0  0  0  0  0  0  0  0  0  0
   57.0880   28.0830   44.4880 N   0  0  0  0  0  0  0  0  0  0  0  0
   56.3840   29.3200   44.6400 C   0  0  0  0  0  0  0  0  0  0  0  0
   55.1420   29.2790   44.8700 O   0  0  0  0  0  0  0  0  0  0  0  0
   57.0800   30.6290   44.5730 C   0  0  0  0  0  0  0  0  0  0  0  0
   57.3990   31.2900   45.7180 N   0  0  0  0  0  0  0  0  0  0  0  0
   58.0210   32.5000   45.7140 C   0  0  0  0  0  0  0  0  0  0  0  0
   58.3020   33.1460   46.9240 C   0  0  0  0  0  0  0  0  0  0  0  0
   58.0438   32.6627   47.8778 H   0  0  0  0  0  0  0  0  0  0  0  0
   58.9110   34.4060   46.9210 C   0  0  0  0  0  0  0  0  0  0  0  0
   59.1202   34.9166   47.8726 H   0  0  0  0  0  0  0  0  0  0  0  0
   59.2540   35.0170   45.7120 C   0  0  0  0  0  0  0  0  0  0  0  0
   59.7422   36.0027   45.7153 H   0  0  0  0  0  0  0  0  0  0  0  0
   58.9790   34.3800   44.4980 C   0  0  0  0  0  0  0  0  0  0  0  0
   59.2502   34.8663   43.5494 H   0  0  0  0  0  0  0  0  0  0  0  0
   58.3560   33.1180   44.4870 C   0  0  0  0  0  0  0  0  0  0  0  0
   58.0350   32.4540   43.2880 C   0  0  0  0  0  0  0  0  0  0  0  0
   58.3230   32.9590   42.1700 O   0  0  0  0  0  0  0  0  0  0  0  0
   57.3880   31.2150   43.3320 C   0  0  0  0  0  0  0  0  0  0  0  0
   57.1204   30.6996   42.3978 H   0  0  0  0  0  0  0  0  0  0  0  0
   59.6830   29.1920   47.8560 N   0  0  0  0  0  0  0  0  0  0  0  0
   59.9570   29.7260   49.0690 C   0  0  0  0  0  0  0  0  0  0  0  0
   59.2490   29.3180   50.0900 N   0  0  0  0  0  0  0  0  0  0  0  0
   58.6120   30.1220   51.0870 C   0  0  0  0  0  0  0  0  0  0  0  0
   57.3620   30.0320   51.2330 O   0  0  0  0  0  0  0  0  0  0  0  0
   59.3700   30.9060   51.9650 O   0  0  0  0  0  0  0  0  0  0  0  0
   59.2570   32.3290   52.0250 C   0  0  0  0  0  0  0  0  0  0  0  0
   58.2762   32.6307   51.6289 H   0  0  0  0  0  0  0  0  0  0  0  0
   59.3593   32.6489   53.0725 H   0  0  0  0  0  0  0  0  0  0  0  0
   60.3420   32.9820   51.2100 C   0  0  0  0  0  0  0  0  0  0  0  0
   60.0140   33.6390   50.0120 C   0  0  0  0  0  0  0  0  0  0  0  0
   58.9717   33.6520   49.6607 H   0  0  0  0  0  0  0  0  0  0  0  0
   61.0080   34.2750   49.2670 C   0  0  0  0  0  0  0  0  0  0  0  0
   60.7448   34.8000   48.3369 H   0  0  0  0  0  0  0  0  0  0  0  0
   62.3370   34.2470   49.6990 C   0  0  0  0  0  0  0  0  0  0  0  0
   63.1165   34.7576   49.1144 H   0  0  0  0  0  0  0  0  0  0  0  0
   62.6750   33.5700   50.8740 C   0  0  0  0  0  0  0  0  0  0  0  0
   63.7246   33.5278   51.2003 H   0  0  0  0  0  0  0  0  0  0  0  0
   61.6820   32.9460   51.6360 C   0  0  0  0  0  0  0  0  0  0  0  0
   61.9490   32.4271   52.5685 H   0  0  0  0  0  0  0  0  0  0  0  0
   60.9500   30.7260   49.1690 C   0  0  0  0  0  0  0  0  0  0  0  0
   61.1896   31.1769   50.1433 H   0  0  0  0  0  0  0  0  0  0  0  0
   61.6250   31.1360   48.0140 C   0  0  0  0  0  0  0  0  0  0  0  0
   62.3876   31.9264   48.0751 H   0  0  0  0  0  0  0  0  0  0  0  0
  1  2  1  0
  2  3  2  0
  3  4  1  0
  4  5  2  0
  4  6  1  0
  6  7  1  0
  6  8  1  0
  8  9  2  0
  9 10  1  0
  9 11  1  0
 11 12  1  0
 11 13  2  0
 13 14  1  0
 13 15  1  0
 15 16  1  0
 15 17  2  0
 17 18  1  0
 18 19  1  0
 19 20  2  0
 19 21  1  0
 21 22  1  0
 22 23  1  0
 23 24  2  0
 24 25  1  0
 24 26  1  0
 26 27  1  0
 26 28  2  0
 28 29  1  0
 28 30  1  0
 30 31  1  0
 30 32  2  0
 32 33  1  0
 33 34  2  0
 33 35  1  0
 35 36  1  0
  3 37  1  0
 37 38  1  0
 38 39  2  0
 39 40  1  0
 40 41  2  0
 40 42  1  0
 42 43  1  0
 43 44  1  0
 43 45  1  0
 43 46  1  0
 46 47  2  0
 47 48  1  0
 47 49  1  0
 49 50  1  0
 49 51  2  0
 51 52  1  0
 51 53  1  0
 53 54  1  0
 53 55  2  0
 55 56  1  0
 38 57  1  0
 57 58  1  0
 57 59  2  0
 59 60  1  0
 59  2  1  0
 17  8  1  0
 35 21  2  0
 55 46  1  0
 32 23  1  0
M  CHG  4  10  -1  18  -1  22  -1  37  -1
M  END
>  <UniqueID>  (88) 
79

>  <SMILES>  (88) 
O=C(/N=c1\cccc(C(=O)Nc2c([O-])cccc2[N-]C(=O)c2cc(=O)c3ccccc3[n-]2)[n-]1)OCc1ccccc1

>  <Energy>  (88) 
93.45872791707393

>  <Genealogy>  (88) 
O=C(N=c1cccc(C(=O)Nc2c([O-])cccc2[N-]C(=O)c2cc(=O)c3ccccc3[n-]2)[n-]1)OCc1ccccc1 (protonated)
O=C(/N=c1\cccc(C(=O)Nc2c([O-])cccc2[N-]C(=O)c2cc(=O)c3ccccc3[n-]2)[n-]1)OCc1ccccc1 (cis-trans isomerization)
O=C(/N=c1\cccc(C(=O)Nc2c([O-])cccc2[N-]C(=O)c2cc(=O)c3ccccc3[n-]2)[n-]1)OCc1ccccc1 (3D coordinates assigned)
O=C(/N=c1\cccc(C(=O)Nc2c([O-])cccc2[N-]C(=O)c2cc(=O)c3ccccc3[n-]2)[n-]1)OCc1ccccc1 (optimized conformer: 93.45872791707393 kcal/mol)

>  <smiles>  (88) 
O=C(N=c1cccc(C(=O)Nc2c(O)cccc2NC(=O)c2cc(=O)c3ccccc3[nH]2)[nH]1)OCc1ccccc1

>  <score_type>  (88) 
oracle

>  <origin>  (88) 
adg

>  <m_score__min__energy>  (88) 
-14.800000000000001

>  <m_primary>  (88) 
energy

$$$$
88:0
     RDKit          3D

 35 37  0  0  0  0  0  0  0  0999 V2000
   57.3767   25.6115   44.2320 H   0  0  0  0  0  0  0  0  0  0  0  0
   56.6630   24.8230   44.5130 C   0  0  0  0  0  0  0  0  0  0  0  0
   56.7800   23.5490   43.9540 C   0  0  0  0  0  0  0  0  0  0  0  0
   57.5954   23.3349   43.2474 H   0  0  0  0  0  0  0  0  0  0  0  0
   55.8610   22.5370   44.2890 C   0  0  0  0  0  0  0  0  0  0  0  0
   55.9490   21.2430   43.7500 O   0  0  0  0  0  0  0  0  0  0  0  0
   57.0370   20.7690   42.9630 C   0  0  0  0  0  0  0  0  0  0  0  0
   57.8426   20.4180   43.6247 H   0  0  0  0  0  0  0  0  0  0  0  0
   56.6957   19.9380   42.3282 H   0  0  0  0  0  0  0  0  0  0  0  0
   57.4131   21.5848   42.3282 H   0  0  0  0  0  0  0  0  0  0  0  0
   54.8160   22.8180   45.1820 C   0  0  0  0  0  0  0  0  0  0  0  0
   53.9070   21.7930   45.4870 O   0  0  0  0  0  0  0  0  0  0  0  0
   53.3520   21.5640   46.7790 C   0  0  0  0  0  0  0  0  0  0  0  0
   54.0786   21.8638   47.5486 H   0  0  0  0  0  0  0  0  0  0  0  0
   52.4319   22.1559   46.8930 H   0  0  0  0  0  0  0  0  0  0  0  0
   53.1170   20.4955   46.8930 H   0  0  0  0  0  0  0  0  0  0  0  0
   54.7050   24.1070   45.7400 C   0  0  0  0  0  0  0  0  0  0  0  0
   53.8749   24.3332   46.4255 H   0  0  0  0  0  0  0  0  0  0  0  0
   55.6390   25.1030   45.4320 C   0  0  0  0  0  0  0  0  0  0  0  0
   55.4640   26.4110   46.0020 N   0  0  0  0  0  0  0  0  0  0  0  0
   56.2780   27.4220   45.9030 C   0  0  0  0  0  0  0  0  0  0  0  0
   55.9170   28.5600   45.2490 N   0  0  0  0  0  0  0  0  0  0  0  0
   56.7710   29.6080   45.1210 C   0  0  0  0  0  0  0  0  0  0  0  0
   56.3910   30.6430   44.5120 O   0  0  0  0  0  0  0  0  0  0  0  0
   58.0620   29.5240   45.6680 C   0  0  0  0  0  0  0  0  0  0  0  0
   58.9920   30.5750   45.5680 C   0  0  0  0  0  0  0  0  0  0  0  0
   58.7166   31.5052   45.0494 H   0  0  0  0  0  0  0  0  0  0  0  0
   60.2650   30.4380   46.1270 C   0  0  0  0  0  0  0  0  0  0  0  0
   60.9890   31.2625   46.0498 H   0  0  0  0  0  0  0  0  0  0  0  0
   60.6220   29.2570   46.7840 C   0  0  0  0  0  0  0  0  0  0  0  0
   61.6269   29.1554   47.2198 H   0  0  0  0  0  0  0  0  0  0  0  0
   59.7070   28.2030   46.8900 C   0  0  0  0  0  0  0  0  0  0  0  0
   60.1860   26.7310   47.7240 Cl  0  0  0  0  0  0  0  0  0  0  0  0
   58.4250   28.3330   46.3330 C   0  0  0  0  0  0  0  0  0  0  0  0
   57.5260   27.3160   46.4290 N   0  0  0  0  0  0  0  0  0  0  0  0
  1  2  1  0
  2  3  2  0
  3  4  1  0
  3  5  1  0
  5  6  1  0
  6  7  1  0
  7  8  1  0
  7  9  1  0
  7 10  1  0
  5 11  2  0
 11 12  1  0
 12 13  1  0
 13 14  1  0
 13 15  1  0
 13 16  1  0
 11 17  1  0
 17 18  1  0
 17 19  2  0
 19 20  1  0
 20 21  2  0
 21 22  1  0
 22 23  1  0
 23 24  2  0
 23 25  1  0
 25 26  2  0
 26 27  1  0
 26 28  1  0
 28 29  1  0
 28 30  2  0
 30 31  1  0
 30 32  1  0
 32 33  1  0
 32 34  2  0
 34 35  1  0
 19  2  1  0
 35 21  1  0
 34 25  1  0
M  CHG  2  22  -1  35  -1
M  END
>  <UniqueID>  (89) 
80

>  <SMILES>  (89) 
COc1ccc(/N=c2\[n-]c(=O)c3cccc(Cl)c3[n-]2)cc1OC

>  <Energy>  (89) 
48.22733231906079

>  <Genealogy>  (89) 
COc1ccc(N=c2[n-]c(=O)c3cccc(Cl)c3[n-]2)cc1OC (protonated)
COc1ccc(/N=c2\[n-]c(=O)c3cccc(Cl)c3[n-]2)cc1OC (cis-trans isomerization)
COc1ccc(/N=c2\[n-]c(=O)c3cccc(Cl)c3[n-]2)cc1OC (3D coordinates assigned)
COc1ccc(/N=c2\[n-]c(=O)c3cccc(Cl)c3[n-]2)cc1OC (optimized conformer: 48.22733231906079 kcal/mol)

>  <smiles>  (89) 
COc1ccc(N=c2[nH]c(=O)c3cccc(Cl)c3[nH]2)cc1OC

>  <score_type>  (89) 
oracle

>  <origin>  (89) 
adg

>  <m_score__min__energy>  (89) 
-10.73

>  <m_primary>  (89) 
energy

$$$$
89:0
     RDKit          3D

 46 47  0  0  0  0  0  0  0  0999 V2000
   57.6365   27.1525   47.0716 H   0  0  0  0  0  0  0  0  0  0  0  0
   57.0760   26.8840   46.1640 C   0  0  0  0  0  0  0  0  0  0  0  0
   55.9100   25.9940   46.3290 C   0  0  0  0  0  0  0  0  0  0  0  0
   56.0390   24.9240   46.9790 O   0  0  0  0  0  0  0  0  0  0  0  0
   54.6550   26.3410   45.8430 O   0  0  0  0  0  0  0  0  0  0  0  0
   57.5100   27.3930   45.0020 C   0  0  0  0  0  0  0  0  0  0  0  0
   57.7842   26.6821   44.2086 H   0  0  0  0  0  0  0  0  0  0  0  0
   57.6490   28.8320   44.7030 C   0  0  0  0  0  0  0  0  0  0  0  0
   56.7840   29.4740   43.8030 C   0  0  0  0  0  0  0  0  0  0  0  0
   55.9638   28.9089   43.3361 H   0  0  0  0  0  0  0  0  0  0  0  0
   56.9580   30.8270   43.4960 C   0  0  0  0  0  0  0  0  0  0  0  0
   56.2624   31.3246   42.8042 H   0  0  0  0  0  0  0  0  0  0  0  0
   58.0180   31.5560   44.0670 C   0  0  0  0  0  0  0  0  0  0  0  0
   58.2310   32.9490   43.7750 N   0  0  0  0  0  0  0  0  0  0  0  0
   58.4540   33.2340   42.7940 H   0  0  0  0  0  0  0  0  0  0  0  0
   58.0910   34.2230   44.9460 S   0  0  0  0  0  0  0  0  0  0  0  0
   58.9190   35.3950   44.4970 O   0  0  0  0  0  0  0  0  0  0  0  0
   56.6540   34.6490   45.0460 O   0  0  0  0  0  0  0  0  0  0  0  0
   58.6250   33.6540   46.5240 C   0  0  0  0  0  0  0  0  0  0  0  0
   57.7950   32.8360   47.3020 C   0  0  0  0  0  0  0  0  0  0  0  0
   56.8093   32.5336   46.9188 H   0  0  0  0  0  0  0  0  0  0  0  0
   58.2140   32.4030   48.5620 C   0  0  0  0  0  0  0  0  0  0  0  0
   57.5529   31.7669   49.1689 H   0  0  0  0  0  0  0  0  0  0  0  0
   59.4760   32.7750   49.0600 C   0  0  0  0  0  0  0  0  0  0  0  0
   59.9030   32.3360   50.3640 N   0  0  0  0  0  0  0  0  0  0  0  0
   58.9280   31.8140   51.3280 C   0  0  0  0  0  0  0  0  0  0  0  0
   59.3883   31.7868   52.3267 H   0  0  0  0  0  0  0  0  0  0  0  0
   58.0472   32.4729   51.3283 H   0  0  0  0  0  0  0  0  0  0  0  0
   58.4910   30.4320   50.9520 C   0  0  0  0  0  0  0  0  0  0  0  0
   59.1500   29.7690   50.1080 O   0  0  0  0  0  0  0  0  0  0  0  0
   57.3800   29.8580   51.5560 O   0  0  0  0  0  0  0  0  0  0  0  0
   61.5930   32.3810   50.7910 S   0  0  0  0  0  0  0  0  0  0  0  0
   62.1050   33.7920   50.6930 O   0  0  0  0  0  0  0  0  0  0  0  0
   61.7780   31.8950   52.2010 O   0  0  0  0  0  0  0  0  0  0  0  0
   62.5380   31.3690   49.6670 C   0  0  0  0  0  0  0  0  0  0  0  0
   63.3560   30.5200   50.3870 F   0  0  0  0  0  0  0  0  0  0  0  0
   61.6870   30.6190   48.8790 F   0  0  0  0  0  0  0  0  0  0  0  0
   63.3160   32.1790   48.8600 F   0  0  0  0  0  0  0  0  0  0  0  0
   60.3050   33.5930   48.2730 C   0  0  0  0  0  0  0  0  0  0  0  0
   61.2926   33.8949   48.6518 H   0  0  0  0  0  0  0  0  0  0  0  0
   59.8840   34.0250   47.0140 C   0  0  0  0  0  0  0  0  0  0  0  0
   60.5437   34.6595   46.4040 H   0  0  0  0  0  0  0  0  0  0  0  0
   58.8970   30.9010   44.9430 C   0  0  0  0  0  0  0  0  0  0  0  0
   59.7326   31.4576   45.3923 H   0  0  0  0  0  0  0  0  0  0  0  0
   58.7220   29.5480   45.2510 C   0  0  0  0  0  0  0  0  0  0  0  0
   59.4293   29.0439   45.9260 H   0  0  0  0  0  0  0  0  0  0  0  0
  1  2  1  0
  2  3  1  0
  3  4  2  0
  3  5  1  0
  2  6  2  0
  6  7  1  0
  6  8  1  0
  8  9  2  0
  9 10  1  0
  9 11  1  0
 11 12  1  0
 11 13  2  0
 13 14  1  0
 14 15  1  0
 14 16  1  0
 16 17  2  0
 16 18  2  0
 16 19  1  0
 19 20  2  0
 20 21  1  0
 20 22  1  0
 22 23  1  0
 22 24  2  0
 24 25  1  0
 25 26  1  0
 26 27  1  0
 26 28  1  0
 26 29  1  0
 29 30  2  0
 29 31  1  0
 25 32  1  0
 32 33  2  0
 32 34  2  0
 32 35  1  0
 35 36  1  0
 35 37  1  0
 35 38  1  0
 24 39  1  0
 39 40  1  0
 39 41  2  0
 41 42  1  0
 13 43  1  0
 43 44  1  0
 43 45  2  0
 45 46  1  0
 45  8  1  0
 41 19  1  0
M  CHG  2   5  -1  31  -1
M  END
>  <UniqueID>  (90) 
81

>  <SMILES>  (90) 
O=C([O-])/C=C\c1ccc(NS(=O)(=O)c2ccc(N(CC(=O)[O-])S(=O)(=O)C(F)(F)F)cc2)cc1

>  <Energy>  (90) 
56.73490669674135

>  <Genealogy>  (90) 
O=C([O-])C=Cc1ccc(NS(=O)(=O)c2ccc(N(CC(=O)[O-])S(=O)(=O)C(F)(F)F)cc2)cc1 (protonated)
O=C([O-])/C=C\c1ccc(NS(=O)(=O)c2ccc(N(CC(=O)[O-])S(=O)(=O)C(F)(F)F)cc2)cc1 (cis-trans isomerization)
O=C([O-])/C=C\c1ccc(NS(=O)(=O)c2ccc(N(CC(=O)[O-])S(=O)(=O)C(F)(F)F)cc2)cc1 (3D coordinates assigned)
O=C([O-])/C=C\c1ccc(NS(=O)(=O)c2ccc(N(CC(=O)[O-])S(=O)(=O)C(F)(F)F)cc2)cc1 (optimized conformer: 56.73490669674135 kcal/mol)

>  <smiles>  (90) 
O=C(O)C=Cc1ccc(NS(=O)(=O)c2ccc(N(CC(=O)O)S(=O)(=O)C(F)(F)F)cc2)cc1

>  <score_type>  (90) 
oracle

>  <origin>  (90) 
adg

>  <m_score__min__energy>  (90) 
-14.300000000000001

>  <m_primary>  (90) 
energy

$$$$
90:0
     RDKit          3D

 39 41  0  0  0  0  0  0  0  0999 V2000
   54.6920   26.7070   47.0990 H   0  0  0  0  0  0  0  0  0  0  0  0
   55.1270   26.6730   46.1840 O   0  0  0  0  0  0  0  0  0  0  0  0
   56.5120   26.7310   46.0350 C   0  0  0  0  0  0  0  0  0  0  0  0
   57.2950   25.6470   46.4440 C   0  0  0  0  0  0  0  0  0  0  0  0
   56.8167   24.7582   46.8814 H   0  0  0  0  0  0  0  0  0  0  0  0
   58.6840   25.6910   46.2980 C   0  0  0  0  0  0  0  0  0  0  0  0
   59.2970   24.8355   46.6181 H   0  0  0  0  0  0  0  0  0  0  0  0
   59.2960   26.8200   45.7460 C   0  0  0  0  0  0  0  0  0  0  0  0
   60.3898   26.8492   45.6327 H   0  0  0  0  0  0  0  0  0  0  0  0
   58.5210   27.9180   45.3350 C   0  0  0  0  0  0  0  0  0  0  0  0
   59.1860   29.1380   44.7500 C   0  0  0  0  0  0  0  0  0  0  0  0
   60.2172   29.2015   45.1275 H   0  0  0  0  0  0  0  0  0  0  0  0
   59.1820   29.0477   43.6537 H   0  0  0  0  0  0  0  0  0  0  0  0
   58.4420   30.3950   45.1320 C   0  0  0  0  0  0  0  0  0  0  0  0
   57.3040   30.8350   44.4220 C   0  0  0  0  0  0  0  0  0  0  0  0
   56.6250   29.9210   42.8790 Br  0  0  0  0  0  0  0  0  0  0  0  0
   56.6400   31.9890   44.8470 C   0  0  0  0  0  0  0  0  0  0  0  0
   55.7554   32.3443   44.2981 H   0  0  0  0  0  0  0  0  0  0  0  0
   57.0800   32.6740   45.9330 N   0  0  0  0  0  0  0  0  0  0  0  0
   58.1690   32.2740   46.6450 C   0  0  0  0  0  0  0  0  0  0  0  0
   58.5700   32.9420   47.6870 N   0  0  0  0  0  0  0  0  0  0  0  0
   59.6460   32.5240   48.5850 C   0  0  0  0  0  0  0  0  0  0  0  0
   59.6082   33.1313   49.5014 H   0  0  0  0  0  0  0  0  0  0  0  0
   59.5115   31.4595   48.8275 H   0  0  0  0  0  0  0  0  0  0  0  0
   60.9930   32.7060   47.9240 C   0  0  0  0  0  0  0  0  0  0  0  0
   62.0120   31.7810   48.2160 C   0  0  0  0  0  0  0  0  0  0  0  0
   61.8099   30.9459   48.9028 H   0  0  0  0  0  0  0  0  0  0  0  0
   63.2790   31.9140   47.6410 C   0  0  0  0  0  0  0  0  0  0  0  0
   64.0689   31.1858   47.8774 H   0  0  0  0  0  0  0  0  0  0  0  0
   63.5430   32.9700   46.7670 C   0  0  0  0  0  0  0  0  0  0  0  0
   64.5403   33.0734   46.3147 H   0  0  0  0  0  0  0  0  0  0  0  0
   62.5410   33.8950   46.4670 C   0  0  0  0  0  0  0  0  0  0  0  0
   62.7538   34.7256   45.7779 H   0  0  0  0  0  0  0  0  0  0  0  0
   61.2680   33.7740   47.0360 C   0  0  0  0  0  0  0  0  0  0  0  0
   60.0560   34.9770   46.6030 Cl  0  0  0  0  0  0  0  0  0  0  0  0
   58.8670   31.1270   46.2530 C   0  0  0  0  0  0  0  0  0  0  0  0
   59.7487   30.7982   46.8226 H   0  0  0  0  0  0  0  0  0  0  0  0
   57.1240   27.8630   45.4790 C   0  0  0  0  0  0  0  0  0  0  0  0
   56.5070   28.7135   45.1534 H   0  0  0  0  0  0  0  0  0  0  0  0
  1  2  1  0
  2  3  1  0
  3  4  2  0
  4  5  1  0
  4  6  1  0
  6  7  1  0
  6  8  2  0
  8  9  1  0
  8 10  1  0
 10 11  1  0
 11 12  1  0
 11 13  1  0
 11 14  1  0
 14 15  1  0
 15 16  1  0
 15 17  2  0
 17 18  1  0
 17 19  1  0
 19 20  1  0
 20 21  2  0
 21 22  1  0
 22 23  1  0
 22 24  1  0
 22 25  1  0
 25 26  2  0
 26 27  1  0
 26 28  1  0
 28 29  1  0
 28 30  2  0
 30 31  1  0
 30 32  1  0
 32 33  1  0
 32 34  2  0
 34 35  1  0
 20 36  1  0
 36 37  1  0
 10 38  2  0
 38 39  1  0
 38  3  1  0
 36 14  2  0
 34 25  1  0
M  CHG  1  19  -1
M  END
>  <UniqueID>  (91) 
82

>  <SMILES>  (91) 
Oc1cccc(Cc2c/c(=N/Cc3ccccc3Cl)[n-]cc2Br)c1

>  <Energy>  (91) 
43.26208500970891

>  <Genealogy>  (91) 
Oc1cccc(Cc2cc(=NCc3ccccc3Cl)[n-]cc2Br)c1 (protonated)
Oc1cccc(Cc2c/c(=N/Cc3ccccc3Cl)[n-]cc2Br)c1 (cis-trans isomerization)
Oc1cccc(Cc2c/c(=N/Cc3ccccc3Cl)[n-]cc2Br)c1 (3D coordinates assigned)
Oc1cccc(Cc2c/c(=N/Cc3ccccc3Cl)[n-]cc2Br)c1 (optimized conformer: 43.26208500970891 kcal/mol)

>  <smiles>  (91) 
Oc1cccc(Cc2cc(=NCc3ccccc3Cl)[nH]cc2Br)c1

>  <score_type>  (91) 
oracle

>  <origin>  (91) 
adg

>  <m_score__min__energy>  (91) 
-10.859999999999999

>  <m_primary>  (91) 
energy

$$$$
91:0
     RDKit          3D

 70 73  0  0  0  0  0  0  0  0999 V2000
   56.7450   26.1800   45.3470 C   0  0  0  0  0  0  0  0  0  0  0  0
   56.2560   27.4930   45.6020 O   0  0  0  0  0  0  0  0  0  0  0  0
   56.9030   28.6780   45.2110 C   0  0  0  0  0  0  0  0  0  0  0  0
   56.2490   29.6470   44.4210 C   0  0  0  0  0  0  0  0  0  0  0  0
   56.9280   30.7920   43.9990 C   0  0  0  0  0  0  0  0  0  0  0  0
   58.2610   30.9860   44.3550 C   0  0  0  0  0  0  0  0  0  0  0  0
   58.9200   30.0400   45.1440 C   0  0  0  0  0  0  0  0  0  0  0  0
   58.2490   28.8910   45.5920 C   0  0  0  0  0  0  0  0  0  0  0  0
   59.0050   27.9170   46.4080 C   0  0  0  0  0  0  0  0  0  0  0  0
   58.8710   27.8280   47.7370 C   0  0  0  0  0  0  0  0  0  0  0  0
   59.3140   28.8950   48.6480 C   0  0  0  0  0  0  0  0  0  0  0  0
   60.3110   29.6130   48.3630 O   0  0  0  0  0  0  0  0  0  0  0  0
   58.6000   29.1080   49.8320 O   0  0  0  0  0  0  0  0  0  0  0  0
   59.1560   29.7410   50.9820 C   0  0  0  0  0  0  0  0  0  0  0  0
   59.4210   31.1970   50.7300 C   0  0  0  0  0  0  0  0  0  0  0  0
   59.7960   31.9400   51.6770 O   0  0  0  0  0  0  0  0  0  0  0  0
   59.1950   31.7380   49.4190 N   0  0  0  0  0  0  0  0  0  0  0  0
   59.2510   33.1380   49.1070 C   0  0  0  0  0  0  0  0  0  0  0  0
   59.2900   33.9940   50.0320 O   0  0  0  0  0  0  0  0  0  0  0  0
   59.2060   33.5950   47.7000 C   0  0  0  0  0  0  0  0  0  0  0  0
   57.9550   33.7460   47.0730 C   0  0  0  0  0  0  0  0  0  0  0  0
   57.8730   34.1180   45.7290 C   0  0  0  0  0  0  0  0  0  0  0  0
   59.0370   34.3540   44.9970 C   0  0  0  0  0  0  0  0  0  0  0  0
   60.2850   34.2300   45.6080 C   0  0  0  0  0  0  0  0  0  0  0  0
   60.3850   33.8590   46.9590 C   0  0  0  0  0  0  0  0  0  0  0  0
   61.6800   33.8520   47.5840 N   0  0  0  0  0  0  0  0  0  0  0  0
   62.6830   32.8780   47.1240 C   0  0  0  0  0  0  0  0  0  0  0  0
   63.7850   32.6780   48.1680 C   0  0  0  0  0  0  0  0  0  0  0  0
   63.1820   32.5820   49.5030 N   0  0  0  0  0  0  0  0  0  0  0  0
   63.4380   31.4270   50.3200 C   0  0  0  0  0  0  0  0  0  0  0  0
   62.4170   30.4880   50.5340 C   0  0  0  0  0  0  0  0  0  0  0  0
   62.6640   29.3350   51.2850 C   0  0  0  0  0  0  0  0  0  0  0  0
   63.9300   29.1110   51.8270 C   0  0  0  0  0  0  0  0  0  0  0  0
   64.9530   30.0450   51.6290 C   0  0  0  0  0  0  0  0  0  0  0  0
   64.7140   31.2150   50.8750 C   0  0  0  0  0  0  0  0  0  0  0  0
   65.7130   32.1790   50.6640 O   0  0  0  0  0  0  0  0  0  0  0  0
   65.7210   33.4760   51.2590 C   0  0  0  0  0  0  0  0  0  0  0  0
   62.2390   33.6120   49.9620 C   0  0  0  0  0  0  0  0  0  0  0  0
   61.8970   34.5910   48.8340 C   0  0  0  0  0  0  0  0  0  0  0  0
   56.9357   25.6679   46.3017 H   0  0  0  0  0  0  0  0  0  0  0  0
   55.9968   25.6155   44.7712 H   0  0  0  0  0  0  0  0  0  0  0  0
   57.6802   26.2424   44.7712 H   0  0  0  0  0  0  0  0  0  0  0  0
   55.1970   29.4995   44.1355 H   0  0  0  0  0  0  0  0  0  0  0  0
   56.4093   31.5424   43.3842 H   0  0  0  0  0  0  0  0  0  0  0  0
   58.7952   31.8852   44.0144 H   0  0  0  0  0  0  0  0  0  0  0  0
   59.9741   30.1968   45.4167 H   0  0  0  0  0  0  0  0  0  0  0  0
   59.7066   27.2374   45.9021 H   0  0  0  0  0  0  0  0  0  0  0  0
   58.4127   26.9236   48.1637 H   0  0  0  0  0  0  0  0  0  0  0  0
   58.4499   29.6453   51.8200 H   0  0  0  0  0  0  0  0  0  0  0  0
   60.1116   29.2507   51.2196 H   0  0  0  0  0  0  0  0  0  0  0  0
   58.8970   31.0770   48.6660 H   0  0  0  0  0  0  0  0  0  0  0  0
   57.0332   33.5694   47.6467 H   0  0  0  0  0  0  0  0  0  0  0  0
   56.8898   34.2249   45.2474 H   0  0  0  0  0  0  0  0  0  0  0  0
   58.9706   34.6383   43.9364 H   0  0  0  0  0  0  0  0  0  0  0  0
   61.1985   34.4244   45.0268 H   0  0  0  0  0  0  0  0  0  0  0  0
   62.1870   31.9140   46.9376 H   0  0  0  0  0  0  0  0  0  0  0  0
   63.1439   33.2636   46.2026 H   0  0  0  0  0  0  0  0  0  0  0  0
   64.3359   31.7519   47.9469 H   0  0  0  0  0  0  0  0  0  0  0  0
   64.4775   33.5322   48.1388 H   0  0  0  0  0  0  0  0  0  0  0  0
   61.4173   30.6602   50.1086 H   0  0  0  0  0  0  0  0  0  0  0  0
   61.8591   28.6033   51.4488 H   0  0  0  0  0  0  0  0  0  0  0  0
   64.1242   28.1991   52.4107 H   0  0  0  0  0  0  0  0  0  0  0  0
   65.9481   29.8671   52.0627 H   0  0  0  0  0  0  0  0  0  0  0  0
   65.7204   33.3768   52.3545 H   0  0  0  0  0  0  0  0  0  0  0  0
   66.6225   34.0199   50.9406 H   0  0  0  0  0  0  0  0  0  0  0  0
   64.8263   34.0310   50.9406 H   0  0  0  0  0  0  0  0  0  0  0  0
   61.3151   33.1247   50.3069 H   0  0  0  0  0  0  0  0  0  0  0  0
   62.7093   34.1750   50.7817 H   0  0  0  0  0  0  0  0  0  0  0  0
   60.9826   35.1440   49.0949 H   0  0  0  0  0  0  0  0  0  0  0  0
   62.7304   35.2962   48.6995 H   0  0  0  0  0  0  0  0  0  0  0  0
  1  2  1  0
  2  3  1  0
  3  4  2  0
  4  5  1  0
  5  6  2  0
  6  7  1  0
  7  8  2  0
  8  9  1  0
  9 10  2  3
 10 11  1  0
 11 12  2  0
 11 13  1  0
 13 14  1  0
 14 15  1  0
 15 16  2  0
 15 17  1  0
 17 18  1  0
 18 19  2  0
 18 20  1  0
 20 21  2  0
 21 22  1  0
 22 23  2  0
 23 24  1  0
 24 25  2  0
 25 26  1  0
 26 27  1  0
 27 28  1  0
 28 29  1  0
 29 30  1  0
 30 31  2  0
 31 32  1  0
 32 33  2  0
 33 34  1  0
 34 35  2  0
 35 36  1  0
 36 37  1  0
 29 38  1  0
 38 39  1  0
  8  3  1  0
 25 20  1  0
 39 26  1  0
 35 30  1  0
  1 40  1  0
  1 41  1  0
  1 42  1  0
  4 43  1  0
  5 44  1  0
  6 45  1  0
  7 46  1  0
  9 47  1  0
 10 48  1  0
 14 49  1  0
 14 50  1  0
 17 51  1  0
 21 52  1  0
 22 53  1  0
 23 54  1  0
 24 55  1  0
 27 56  1  0
 27 57  1  0
 28 58  1  0
 28 59  1  0
 31 60  1  0
 32 61  1  0
 33 62  1  0
 34 63  1  0
 37 64  1  0
 37 65  1  0
 37 66  1  0
 38 67  1  0
 38 68  1  0
 39 69  1  0
 39 70  1  0
M  END
>  <UniqueID>  (92) 
83

>  <SMILES>  (92) 
COc1ccccc1C=CC(=O)OCC(=O)NC(=O)c1ccccc1N1CCN(c2ccccc2OC)CC1

>  <Energy>  (92) 
88.1917952453796

>  <Genealogy>  (92) 
COc1ccccc1C=CC(=O)OCC(=O)NC(=O)c1ccccc1N1CCN(c2ccccc2OC)CC1 (3D coordinates assigned)
COc1ccccc1C=CC(=O)OCC(=O)NC(=O)c1ccccc1N1CCN(c2ccccc2OC)CC1 (nonaromatic ring conformer: 88.1917952453796 kcal/mol)

>  <smiles>  (92) 
COc1ccccc1C=CC(=O)OCC(=O)NC(=O)c1ccccc1N1CCN(c2ccccc2OC)CC1

>  <score_type>  (92) 
oracle

>  <origin>  (92) 
adg

>  <m_score__min__energy>  (92) 
-9.1500000000000004

>  <m_primary>  (92) 
energy

$$$$
92:0
     RDKit          3D

 37 38  0  0  0  0  0  0  0  0999 V2000
   57.0210   32.6940   50.2400 H   0  0  0  0  0  0  0  0  0  0  0  0
   57.9470   32.3160   50.4010 O   0  0  0  0  0  0  0  0  0  0  0  0
   58.6300   31.5810   49.4310 C   0  0  0  0  0  0  0  0  0  0  0  0
   59.3940   30.4820   49.8310 C   0  0  0  0  0  0  0  0  0  0  0  0
   59.4442   30.2099   50.8956 H   0  0  0  0  0  0  0  0  0  0  0  0
   60.0940   29.7270   48.8890 C   0  0  0  0  0  0  0  0  0  0  0  0
   60.6788   28.8533   49.2125 H   0  0  0  0  0  0  0  0  0  0  0  0
   60.0550   30.0780   47.5300 C   0  0  0  0  0  0  0  0  0  0  0  0
   60.7720   29.2850   46.5070 C   0  0  0  0  0  0  0  0  0  0  0  0
   61.7783   29.6227   46.2183 H   0  0  0  0  0  0  0  0  0  0  0  0
   60.2920   28.1860   45.9030 C   0  0  0  0  0  0  0  0  0  0  0  0
   61.0027   27.5729   45.3294 H   0  0  0  0  0  0  0  0  0  0  0  0
   58.8830   27.7330   45.9470 C   0  0  0  0  0  0  0  0  0  0  0  0
   57.8870   28.5540   45.4040 C   0  0  0  0  0  0  0  0  0  0  0  0
   58.1604   29.5251   44.9656 H   0  0  0  0  0  0  0  0  0  0  0  0
   56.5390   28.1480   45.4140 C   0  0  0  0  0  0  0  0  0  0  0  0
   55.5130   28.9530   44.8970 O   0  0  0  0  0  0  0  0  0  0  0  0
   55.6970   29.9550   43.9030 C   0  0  0  0  0  0  0  0  0  0  0  0
   55.8752   30.9255   44.3892 H   0  0  0  0  0  0  0  0  0  0  0  0
   56.5624   29.6947   43.2758 H   0  0  0  0  0  0  0  0  0  0  0  0
   54.7956   30.0192   43.2758 H   0  0  0  0  0  0  0  0  0  0  0  0
   56.2000   26.9010   45.9580 C   0  0  0  0  0  0  0  0  0  0  0  0
   54.8640   26.5090   45.9700 O   0  0  0  0  0  0  0  0  0  0  0  0
   57.1950   26.0520   46.4790 C   0  0  0  0  0  0  0  0  0  0  0  0
   56.8340   24.7340   47.0410 C   0  0  0  0  0  0  0  0  0  0  0  0
   55.7757   24.4377   47.0872 H   0  0  0  0  0  0  0  0  0  0  0  0
   57.7170   23.9440   47.4680 O   0  0  0  0  0  0  0  0  0  0  0  0
   58.5350   26.4710   46.4560 C   0  0  0  0  0  0  0  0  0  0  0  0
   59.3205   25.8039   46.8407 H   0  0  0  0  0  0  0  0  0  0  0  0
   59.2650   31.1630   47.1240 C   0  0  0  0  0  0  0  0  0  0  0  0
   59.1978   31.4176   46.0560 H   0  0  0  0  0  0  0  0  0  0  0  0
   58.5560   31.9310   48.0700 C   0  0  0  0  0  0  0  0  0  0  0  0
   57.7720   33.0350   47.6960 O   0  0  0  0  0  0  0  0  0  0  0  0
   57.5750   33.4670   46.3540 C   0  0  0  0  0  0  0  0  0  0  0  0
   57.1186   34.4678   46.3542 H   0  0  0  0  0  0  0  0  0  0  0  0
   58.5443   33.5061   45.8354 H   0  0  0  0  0  0  0  0  0  0  0  0
   56.9099   32.7608   45.8354 H   0  0  0  0  0  0  0  0  0  0  0  0
  1  2  1  0
  2  3  1  0
  3  4  2  0
  4  5  1  0
  4  6  1  0
  6  7  1  0
  6  8  2  0
  8  9  1  0
  9 10  1  0
  9 11  2  0
 11 12  1  0
 11 13  1  0
 13 14  2  0
 14 15  1  0
 14 16  1  0
 16 17  1  0
 17 18  1  0
 18 19  1  0
 18 20  1  0
 18 21  1  0
 16 22  2  0
 22 23  1  0
 22 24  1  0
 24 25  1  0
 25 26  1  0
 25 27  2  0
 24 28  2  0
 28 29  1  0
  8 30  1  0
 30 31  1  0
 30 32  2  0
 32 33  1  0
 33 34  1  0
 34 35  1  0
 34 36  1  0
 34 37  1  0
 32  3  1  0
 28 13  1  0
M  CHG  1  23  -1
M  END
>  <UniqueID>  (93) 
84

>  <SMILES>  (93) 
COc1cc(/C=C\c2cc(C=O)c([O-])c(OC)c2)ccc1O

>  <Energy>  (93) 
46.725070502971874

>  <Genealogy>  (93) 
COc1cc(C=Cc2cc(C=O)c([O-])c(OC)c2)ccc1O (protonated)
COc1cc(/C=C\c2cc(C=O)c([O-])c(OC)c2)ccc1O (cis-trans isomerization)
COc1cc(/C=C\c2cc(C=O)c([O-])c(OC)c2)ccc1O (3D coordinates assigned)
COc1cc(/C=C\c2cc(C=O)c([O-])c(OC)c2)ccc1O (optimized conformer: 46.725070502971874 kcal/mol)

>  <smiles>  (93) 
COc1cc(C=Cc2cc(C=O)c(O)c(OC)c2)ccc1O

>  <score_type>  (93) 
oracle

>  <origin>  (93) 
adg

>  <m_score__min__energy>  (93) 
-10.609999999999999

>  <m_primary>  (93) 
energy

$$$$
93:0
     RDKit          3D

 53 56  0  0  0  0  0  0  0  0999 V2000
   56.2370   30.0060   45.1430 O   0  0  0  0  0  0  0  0  0  0  0  0
   57.3850   30.3710   44.7740 C   0  0  0  0  0  0  0  0  0  0  0  0
   58.2920   29.4300   44.1690 N   0  0  0  0  0  0  0  0  0  0  0  0
   58.0960   28.0060   44.1700 C   0  0  0  0  0  0  0  0  0  0  0  0
   57.9540   27.2740   45.3590 C   0  0  0  0  0  0  0  0  0  0  0  0
   57.7550   25.8920   45.3130 C   0  0  0  0  0  0  0  0  0  0  0  0
   57.6830   25.2410   44.0690 C   0  0  0  0  0  0  0  0  0  0  0  0
   57.4890   23.8130   43.9770 N   0  0  0  0  0  0  0  0  0  0  0  0
   56.5870   23.2580   42.9480 C   0  0  0  0  0  0  0  0  0  0  0  0
   56.2900   21.7890   43.2240 C   0  0  0  0  0  0  0  0  0  0  0  0
   57.5610   21.0840   43.4060 N   0  0  0  0  0  0  0  0  0  0  0  0
   58.2720   21.5090   44.6260 C   0  0  0  0  0  0  0  0  0  0  0  0
   57.9680   22.9580   45.0760 C   0  0  0  0  0  0  0  0  0  0  0  0
   57.7920   25.9820   42.9300 N   0  0  0  0  0  0  0  0  0  0  0  0
   57.9870   27.3260   42.9520 C   0  0  0  0  0  0  0  0  0  0  0  0
   57.7880   31.7810   44.9860 C   0  0  0  0  0  0  0  0  0  0  0  0
   57.9480   32.2680   46.2960 C   0  0  0  0  0  0  0  0  0  0  0  0
   58.3810   33.5870   46.5220 C   0  0  0  0  0  0  0  0  0  0  0  0
   58.6170   34.0890   47.8440 N   0  0  0  0  0  0  0  0  0  0  0  0
   59.7370   33.3970   48.9820 S   0  0  0  0  0  0  0  0  0  0  0  0
   59.7810   34.2710   50.2040 O   0  0  0  0  0  0  0  0  0  0  0  0
   59.2710   32.0250   49.3770 O   0  0  0  0  0  0  0  0  0  0  0  0
   61.3620   33.3320   48.3020 C   0  0  0  0  0  0  0  0  0  0  0  0
   61.5920   33.8450   47.0210 C   0  0  0  0  0  0  0  0  0  0  0  0
   62.8590   33.7430   46.4420 C   0  0  0  0  0  0  0  0  0  0  0  0
   63.9000   33.1260   47.1380 C   0  0  0  0  0  0  0  0  0  0  0  0
   63.6770   32.6210   48.4190 C   0  0  0  0  0  0  0  0  0  0  0  0
   62.4140   32.7260   49.0050 C   0  0  0  0  0  0  0  0  0  0  0  0
   58.5940   34.4390   45.4340 C   0  0  0  0  0  0  0  0  0  0  0  0
   58.4440   33.9640   44.1290 C   0  0  0  0  0  0  0  0  0  0  0  0
   58.0600   32.6380   43.8990 C   0  0  0  0  0  0  0  0  0  0  0  0
   58.0050   32.1870   42.6180 F   0  0  0  0  0  0  0  0  0  0  0  0
   59.2100   29.7840   43.8150 H   0  0  0  0  0  0  0  0  0  0  0  0
   57.9995   27.7897   46.3295 H   0  0  0  0  0  0  0  0  0  0  0  0
   57.6552   25.3163   46.2450 H   0  0  0  0  0  0  0  0  0  0  0  0
   55.6436   23.8237   42.9524 H   0  0  0  0  0  0  0  0  0  0  0  0
   57.0782   23.3401   41.9672 H   0  0  0  0  0  0  0  0  0  0  0  0
   55.6816   21.6984   44.1359 H   0  0  0  0  0  0  0  0  0  0  0  0
   55.7340   21.3521   42.3814 H   0  0  0  0  0  0  0  0  0  0  0  0
   57.3580   20.0630   43.4860 H   0  0  0  0  0  0  0  0  0  0  0  0
   57.9884   20.8292   45.4430 H   0  0  0  0  0  0  0  0  0  0  0  0
   59.3457   21.4744   44.3896 H   0  0  0  0  0  0  0  0  0  0  0  0
   57.1955   22.9273   45.8585 H   0  0  0  0  0  0  0  0  0  0  0  0
   58.9089   23.3924   45.4448 H   0  0  0  0  0  0  0  0  0  0  0  0
   58.0597   27.8833   42.0064 H   0  0  0  0  0  0  0  0  0  0  0  0
   57.7325   31.6111   47.1516 H   0  0  0  0  0  0  0  0  0  0  0  0
   60.7735   34.3296   46.4686 H   0  0  0  0  0  0  0  0  0  0  0  0
   63.0369   34.1497   45.4355 H   0  0  0  0  0  0  0  0  0  0  0  0
   64.8948   33.0382   46.6769 H   0  0  0  0  0  0  0  0  0  0  0  0
   64.4985   32.1387   48.9691 H   0  0  0  0  0  0  0  0  0  0  0  0
   62.2438   32.3334   50.0184 H   0  0  0  0  0  0  0  0  0  0  0  0
   58.8807   35.4869   45.6063 H   0  0  0  0  0  0  0  0  0  0  0  0
   58.6287   34.6357   43.2777 H   0  0  0  0  0  0  0  0  0  0  0  0
  1  2  2  0
  2  3  1  0
  3  4  1  0
  4  5  2  0
  5  6  1  0
  6  7  2  0
  7  8  1  0
  8  9  1  0
  9 10  1  0
 10 11  1  0
 11 12  1  0
 12 13  1  0
  7 14  1  0
 14 15  2  0
  2 16  1  0
 16 17  2  0
 17 18  1  0
 18 19  1  0
 19 20  1  0
 20 21  2  0
 20 22  2  0
 20 23  1  0
 23 24  2  0
 24 25  1  0
 25 26  2  0
 26 27  1  0
 27 28  2  0
 18 29  2  0
 29 30  1  0
 30 31  2  0
 31 32  1  0
 15  4  1  0
 31 16  1  0
 13  8  1  0
 28 23  1  0
  3 33  1  0
  5 34  1  0
  6 35  1  0
  9 36  1  0
  9 37  1  0
 10 38  1  0
 10 39  1  0
 11 40  1  0
 12 41  1  0
 12 42  1  0
 13 43  1  0
 13 44  1  0
 15 45  1  0
 17 46  1  0
 24 47  1  0
 25 48  1  0
 26 49  1  0
 27 50  1  0
 28 51  1  0
 29 52  1  0
 30 53  1  0
M  CHG  1  19  -1
M  END
>  <UniqueID>  (94) 
85

>  <SMILES>  (94) 
O=C(Nc1ccc(N2CCNCC2)nc1)c1cc([N-]S(=O)(=O)c2ccccc2)ccc1F

>  <Energy>  (94) 
76.7431449337228

>  <Genealogy>  (94) 
O=C(Nc1ccc(N2CCNCC2)nc1)c1cc([N-]S(=O)(=O)c2ccccc2)ccc1F (protonated)
O=C(Nc1ccc(N2CCNCC2)nc1)c1cc([N-]S(=O)(=O)c2ccccc2)ccc1F (3D coordinates assigned)
O=C(Nc1ccc(N2CCNCC2)nc1)c1cc([N-]S(=O)(=O)c2ccccc2)ccc1F (nonaromatic ring conformer: 76.7431449337228 kcal/mol)

>  <smiles>  (94) 
O=C(Nc1ccc(N2CCNCC2)nc1)c1cc(NS(=O)(=O)c2ccccc2)ccc1F

>  <score_type>  (94) 
oracle

>  <origin>  (94) 
adg

>  <m_score__min__energy>  (94) 
-10.85

>  <m_primary>  (94) 
energy

$$$$
94:0
     RDKit          3D

 29 31  0  0  0  0  0  0  0  0999 V2000
   59.6030   31.6770   46.0070 C   0  0  0  0  0  0  0  0  0  0  0  0
   58.3400   30.9610   45.6250 C   0  0  0  0  0  0  0  0  0  0  0  0
   57.3530   31.6210   44.8800 C   0  0  0  0  0  0  0  0  0  0  0  0
   56.1950   30.9450   44.4950 C   0  0  0  0  0  0  0  0  0  0  0  0
   56.0140   29.6000   44.8350 C   0  0  0  0  0  0  0  0  0  0  0  0
   54.8300   28.9700   44.4690 O   0  0  0  0  0  0  0  0  0  0  0  0
   57.0120   28.9110   45.5570 C   0  0  0  0  0  0  0  0  0  0  0  0
   56.8660   27.4800   45.9140 C   0  0  0  0  0  0  0  0  0  0  0  0
   57.8200   26.7000   46.5710 C   0  0  0  0  0  0  0  0  0  0  0  0
   57.2350   25.4620   46.7130 C   0  0  0  0  0  0  0  0  0  0  0  0
   57.7190   24.2920   47.2970 C   0  0  0  0  0  0  0  0  0  0  0  0
   56.8770   23.1630   47.3000 C   0  0  0  0  0  0  0  0  0  0  0  0
   57.3180   21.9760   47.8700 O   0  0  0  0  0  0  0  0  0  0  0  0
   55.5880   23.2330   46.7250 C   0  0  0  0  0  0  0  0  0  0  0  0
   55.1280   24.4300   46.1460 C   0  0  0  0  0  0  0  0  0  0  0  0
   55.9850   25.5290   46.1600 C   0  0  0  0  0  0  0  0  0  0  0  0
   55.7440   26.7570   45.6720 N   0  0  0  0  0  0  0  0  0  0  0  0
   58.1710   29.6060   45.9480 C   0  0  0  0  0  0  0  0  0  0  0  0
   59.6819   31.7217   47.1033 H   0  0  0  0  0  0  0  0  0  0  0  0
   60.4692   31.1356   45.5988 H   0  0  0  0  0  0  0  0  0  0  0  0
   59.5833   32.6983   45.5988 H   0  0  0  0  0  0  0  0  0  0  0  0
   57.4920   32.6751   44.5981 H   0  0  0  0  0  0  0  0  0  0  0  0
   55.4194   31.4727   43.9206 H   0  0  0  0  0  0  0  0  0  0  0  0
   58.8223   27.0082   46.9032 H   0  0  0  0  0  0  0  0  0  0  0  0
   58.7248   24.2521   47.7405 H   0  0  0  0  0  0  0  0  0  0  0  0
   54.9392   22.3447   46.7301 H   0  0  0  0  0  0  0  0  0  0  0  0
   54.1258   24.4962   45.6974 H   0  0  0  0  0  0  0  0  0  0  0  0
   54.8720   27.0760   45.1910 H   0  0  0  0  0  0  0  0  0  0  0  0
   58.9544   29.0807   46.5139 H   0  0  0  0  0  0  0  0  0  0  0  0
  1  2  1  0
  2  3  2  0
  3  4  1  0
  4  5  2  0
  5  6  1  0
  5  7  1  0
  7  8  1  0
  8  9  2  0
  9 10  1  0
 10 11  2  0
 11 12  1  0
 12 13  1  0
 12 14  2  0
 14 15  1  0
 15 16  2  0
 16 17  1  0
  7 18  2  0
 18  2  1  0
 17  8  1  0
 16 10  1  0
  1 19  1  0
  1 20  1  0
  1 21  1  0
  3 22  1  0
  4 23  1  0
  9 24  1  0
 11 25  1  0
 14 26  1  0
 15 27  1  0
 17 28  1  0
 18 29  1  0
M  CHG  2   6  -1  13  -1
M  END
>  <UniqueID>  (95) 
86

>  <SMILES>  (95) 
Cc1ccc([O-])c(-c2cc3cc([O-])ccc3[nH]2)c1

>  <Energy>  (95) 
68.13090620746071

>  <Genealogy>  (95) 
Cc1ccc([O-])c(-c2cc3cc([O-])ccc3[nH]2)c1 (protonated)
Cc1ccc([O-])c(-c2cc3cc([O-])ccc3[nH]2)c1 (3D coordinates assigned)
Cc1ccc([O-])c(-c2cc3cc([O-])ccc3[nH]2)c1 (optimized conformer: 68.13090620746071 kcal/mol)

>  <smiles>  (95) 
Cc1ccc(O)c(-c2cc3cc(O)ccc3[nH]2)c1

>  <score_type>  (95) 
oracle

>  <origin>  (95) 
adg

>  <m_score__min__energy>  (95) 
-11.949999999999999

>  <m_primary>  (95) 
energy

$$$$
