0:0
     RDKit          3D

 43 45  0  0  0  0  0  0  0  0999 V2000
   60.2320   28.9820   47.4410 C   0  0  0  0  0  0  0  0  0  0  0  0
   59.1360   28.2040   46.9780 O   0  0  0  0  0  0  0  0  0  0  0  0
   58.1210   28.7400   46.1800 C   0  0  0  0  0  0  0  0  0  0  0  0
   58.1510   30.0290   45.7370 N   0  0  0  0  0  0  0  0  0  0  0  0
   57.0610   30.3220   44.9950 C   0  0  0  0  0  0  0  0  0  0  0  0
   56.8030   31.5030   44.5190 N   0  0  0  0  0  0  0  0  0  0  0  0
   57.7440   32.3200   43.8090 C   0  0  0  0  0  0  0  0  0  0  0  0
   58.3810   31.8620   42.8230 O   0  0  0  0  0  0  0  0  0  0  0  0
   58.0520   33.6910   44.3210 C   0  0  0  0  0  0  0  0  0  0  0  0
   58.6390   33.6020   45.6970 C   0  0  0  0  0  0  0  0  0  0  0  0
   57.9100   33.7040   46.8290 N   0  0  0  0  0  0  0  0  0  0  0  0
   58.8260   33.5610   47.8080 C   0  0  0  0  0  0  0  0  0  0  0  0
   60.0700   33.3740   47.2340 C   0  0  0  0  0  0  0  0  0  0  0  0
   61.3760   33.1950   47.9060 C   0  0  0  0  0  0  0  0  0  0  0  0
   61.4250   33.1150   49.3070 C   0  0  0  0  0  0  0  0  0  0  0  0
   62.6420   32.9240   49.9670 C   0  0  0  0  0  0  0  0  0  0  0  0
   63.8420   32.8100   49.2420 C   0  0  0  0  0  0  0  0  0  0  0  0
   65.1450   32.6000   49.9290 C   0  0  0  0  0  0  0  0  0  0  0  0
   65.3860   31.4210   50.8250 C   0  0  0  0  0  0  0  0  0  0  0  0
   66.0890   33.4190   49.7480 O   0  0  0  0  0  0  0  0  0  0  0  0
   63.7900   32.8960   47.8380 C   0  0  0  0  0  0  0  0  0  0  0  0
   62.5710   33.0860   47.1770 C   0  0  0  0  0  0  0  0  0  0  0  0
   59.9150   33.3980   45.9350 O   0  0  0  0  0  0  0  0  0  0  0  0
   56.0150   29.0150   44.8620 S   0  0  0  0  0  0  0  0  0  0  0  0
   56.9990   28.0060   45.7900 C   0  0  0  0  0  0  0  0  0  0  0  0
   56.6940   26.6070   46.1560 C   0  0  0  0  0  0  0  0  0  0  0  0
   57.7120   25.7450   46.6670 N   0  0  0  0  0  0  0  0  0  0  0  0
   55.5260   26.1600   46.0110 O   0  0  0  0  0  0  0  0  0  0  0  0
   60.2392   28.9871   48.5410 H   0  0  0  0  0  0  0  0  0  0  0  0
   61.1723   28.5480   47.0702 H   0  0  0  0  0  0  0  0  0  0  0  0
   60.1325   30.0128   47.0702 H   0  0  0  0  0  0  0  0  0  0  0  0
   58.7727   34.1783   43.6479 H   0  0  0  0  0  0  0  0  0  0  0  0
   57.1236   34.2796   44.3609 H   0  0  0  0  0  0  0  0  0  0  0  0
   58.6176   33.5886   48.8877 H   0  0  0  0  0  0  0  0  0  0  0  0
   60.4968   33.2035   49.8906 H   0  0  0  0  0  0  0  0  0  0  0  0
   62.6617   32.8622   51.0651 H   0  0  0  0  0  0  0  0  0  0  0  0
   65.3209   31.7397   51.8758 H   0  0  0  0  0  0  0  0  0  0  0  0
   64.6270   30.6496   50.6281 H   0  0  0  0  0  0  0  0  0  0  0  0
   66.3869   31.0093   50.6281 H   0  0  0  0  0  0  0  0  0  0  0  0
   64.7182   32.8129   47.2535 H   0  0  0  0  0  0  0  0  0  0  0  0
   62.5490   33.1504   46.0791 H   0  0  0  0  0  0  0  0  0  0  0  0
   58.6920   26.0760   46.7960 H   0  0  0  0  0  0  0  0  0  0  0  0
   57.4830   24.7560   46.9140 H   0  0  0  0  0  0  0  0  0  0  0  0
  1  2  1  0
  2  3  1  0
  3  4  1  0
  4  5  1  0
  5  6  2  3
  6  7  1  0
  7  8  2  0
  7  9  1  0
  9 10  1  0
 10 11  2  0
 11 12  1  0
 12 13  2  0
 13 14  1  0
 14 15  2  0
 15 16  1  0
 16 17  2  0
 17 18  1  0
 18 19  1  0
 18 20  2  0
 17 21  1  0
 21 22  2  0
 13 23  1  0
  5 24  1  0
 24 25  1  0
 25 26  1  0
 26 27  1  0
 26 28  2  0
 25  3  2  0
 23 10  1  0
 22 14  1  0
  1 29  1  0
  1 30  1  0
  1 31  1  0
  9 32  1  0
  9 33  1  0
 12 34  1  0
 15 35  1  0
 16 36  1  0
 19 37  1  0
 19 38  1  0
 19 39  1  0
 21 40  1  0
 22 41  1  0
 27 42  1  0
 27 43  1  0
M  CHG  1   4  -1
M  END
>  <UniqueID>  (1) 
1

>  <SMILES>  (1) 
COc1[n-]c(=NC(=O)Cc2ncc(-c3ccc(C(C)=O)cc3)o2)sc1C(N)=O

>  <Energy>  (1) 
103.57994280460224

>  <Genealogy>  (1) 
COc1[n-]c(=NC(=O)Cc2ncc(-c3ccc(C(C)=O)cc3)o2)sc1C(N)=O (protonated)
COc1[n-]c(=NC(=O)Cc2ncc(-c3ccc(C(C)=O)cc3)o2)sc1C(N)=O (3D coordinates assigned)
COc1[n-]c(=NC(=O)Cc2ncc(-c3ccc(C(C)=O)cc3)o2)sc1C(N)=O (optimized conformer: 103.57994280460224 kcal/mol)

>  <smiles>  (1) 
COc1[nH]c(=NC(=O)Cc2ncc(-c3ccc(C(C)=O)cc3)o2)sc1C(N)=O

>  <score_type>  (1) 
oracle

>  <origin>  (1) 
adg

>  <m_score__min__energy>  (1) 
-10.15

>  <m_primary>  (1) 
energy

$$$$
1:0
     RDKit          3D

 44 46  0  0  0  0  0  0  0  0999 V2000
   59.1650   35.2440   44.9150 C   0  0  0  0  0  0  0  0  0  0  0  0
   58.7550   33.9820   45.0570 C   0  0  0  0  0  0  0  0  0  0  0  0
   58.3530   32.9890   43.7600 S   0  0  0  0  0  0  0  0  0  0  0  0
   57.9270   31.6790   44.7240 C   0  0  0  0  0  0  0  0  0  0  0  0
   57.4970   30.5070   44.2310 C   0  0  0  0  0  0  0  0  0  0  0  0
   57.5620   29.2250   44.9570 C   0  0  0  0  0  0  0  0  0  0  0  0
   58.8150   28.6900   45.2900 C   0  0  0  0  0  0  0  0  0  0  0  0
   58.9060   27.4630   45.9550 C   0  0  0  0  0  0  0  0  0  0  0  0
   60.6310   26.7750   46.4180 Br  0  0  0  0  0  0  0  0  0  0  0  0
   57.7420   26.7500   46.2770 C   0  0  0  0  0  0  0  0  0  0  0  0
   57.8350   25.5310   46.9450 O   0  0  0  0  0  0  0  0  0  0  0  0
   56.4900   27.2680   45.9210 C   0  0  0  0  0  0  0  0  0  0  0  0
   56.3970   28.4940   45.2530 C   0  0  0  0  0  0  0  0  0  0  0  0
   55.1440   28.9740   44.8810 O   0  0  0  0  0  0  0  0  0  0  0  0
   58.1310   32.0520   46.0610 C   0  0  0  0  0  0  0  0  0  0  0  0
   57.9310   31.2730   47.0320 O   0  0  0  0  0  0  0  0  0  0  0  0
   58.5910   33.3290   46.2430 N   0  0  0  0  0  0  0  0  0  0  0  0
   58.8380   33.9190   47.5690 C   0  0  0  0  0  0  0  0  0  0  0  0
   59.7580   33.0370   48.3710 C   0  0  0  0  0  0  0  0  0  0  0  0
   59.2510   32.2140   49.1800 O   0  0  0  0  0  0  0  0  0  0  0  0
   61.1920   33.0930   48.2130 N   0  0  0  0  0  0  0  0  0  0  0  0
   62.0590   32.5270   49.2590 C   0  0  0  0  0  0  0  0  0  0  0  0
   63.3580   33.3320   49.3580 C   0  0  0  0  0  0  0  0  0  0  0  0
   64.1070   33.4220   48.0130 C   0  0  0  0  0  0  0  0  0  0  0  0
   63.2260   33.1130   46.7920 C   0  0  0  0  0  0  0  0  0  0  0  0
   61.7910   33.6190   46.9740 C   0  0  0  0  0  0  0  0  0  0  0  0
   59.4139   35.8446   45.8023 H   0  0  0  0  0  0  0  0  0  0  0  0
   59.2540   35.6837   43.9106 H   0  0  0  0  0  0  0  0  0  0  0  0
   57.0676   30.5024   43.2183 H   0  0  0  0  0  0  0  0  0  0  0  0
   59.7314   29.2386   45.0266 H   0  0  0  0  0  0  0  0  0  0  0  0
   57.2270   24.7540   46.7170 H   0  0  0  0  0  0  0  0  0  0  0  0
   55.5757   26.7083   46.1678 H   0  0  0  0  0  0  0  0  0  0  0  0
   59.3014   34.9089   47.4450 H   0  0  0  0  0  0  0  0  0  0  0  0
   57.8804   34.0149   48.1017 H   0  0  0  0  0  0  0  0  0  0  0  0
   61.5343   32.5626   50.2251 H   0  0  0  0  0  0  0  0  0  0  0  0
   62.2998   31.4849   49.0022 H   0  0  0  0  0  0  0  0  0  0  0  0
   63.1157   34.3508   49.6946 H   0  0  0  0  0  0  0  0  0  0  0  0
   64.0164   32.8136   50.0706 H   0  0  0  0  0  0  0  0  0  0  0  0
   64.5047   34.4419   47.9048 H   0  0  0  0  0  0  0  0  0  0  0  0
   64.9013   32.6614   48.0364 H   0  0  0  0  0  0  0  0  0  0  0  0
   63.6636   33.5980   45.9070 H   0  0  0  0  0  0  0  0  0  0  0  0
   63.1871   32.0205   46.6700 H   0  0  0  0  0  0  0  0  0  0  0  0
   61.8014   34.7180   47.0193 H   0  0  0  0  0  0  0  0  0  0  0  0
   61.1889   33.2708   46.1218 H   0  0  0  0  0  0  0  0  0  0  0  0
  1  2  2  0
  2  3  1  0
  3  4  1  0
  4  5  2  3
  5  6  1  0
  6  7  2  0
  7  8  1  0
  8  9  1  0
  8 10  2  0
 10 11  1  0
 10 12  1  0
 12 13  2  0
 13 14  1  0
  4 15  1  0
 15 16  2  0
 15 17  1  0
 17 18  1  0
 18 19  1  0
 19 20  2  0
 19 21  1  0
 21 22  1  0
 22 23  1  0
 23 24  1  0
 24 25  1  0
 25 26  1  0
 17  2  1  0
 26 21  1  0
 13  6  1  0
  1 27  1  0
  1 28  1  0
  5 29  1  0
  7 30  1  0
 11 31  1  0
 12 32  1  0
 18 33  1  0
 18 34  1  0
 22 35  1  0
 22 36  1  0
 23 37  1  0
 23 38  1  0
 24 39  1  0
 24 40  1  0
 25 41  1  0
 25 42  1  0
 26 43  1  0
 26 44  1  0
M  CHG  1  14  -1
M  END
>  <UniqueID>  (2) 
2

>  <SMILES>  (2) 
C=c1sc(=Cc2cc(Br)c(O)cc2[O-])c(=O)n1CC(=O)N1CCCCC1

>  <Energy>  (2) 
87.28619023230341

>  <Genealogy>  (2) 
C=c1sc(=Cc2cc(Br)c(O)cc2[O-])c(=O)n1CC(=O)N1CCCCC1 (protonated)
C=c1sc(=Cc2cc(Br)c(O)cc2[O-])c(=O)n1CC(=O)N1CCCCC1 (3D coordinates assigned)
C=c1sc(=Cc2cc(Br)c(O)cc2[O-])c(=O)n1CC(=O)N1CCCCC1 (nonaromatic ring conformer: 87.28619023230341 kcal/mol)

>  <smiles>  (2) 
C=c1sc(=Cc2cc(Br)c(O)cc2O)c(=O)n1CC(=O)N1CCCCC1

>  <score_type>  (2) 
oracle

>  <origin>  (2) 
adg

>  <m_score__min__energy>  (2) 
-12.949999999999999

>  <m_primary>  (2) 
energy

$$$$
2:0
     RDKit          3D

 31 33  0  0  0  0  0  0  0  0999 V2000
   59.0280   34.8660   46.1980 C   0  0  0  0  0  0  0  0  0  0  0  0
   57.8330   33.5600   46.0040 S   0  0  0  0  0  0  0  0  0  0  0  0
   56.6520   34.0720   45.2290 O   0  0  0  0  0  0  0  0  0  0  0  0
   57.3800   33.1220   47.3680 O   0  0  0  0  0  0  0  0  0  0  0  0
   58.5370   32.2050   45.1830 N   0  0  0  0  0  0  0  0  0  0  0  0
   58.4970   30.8800   45.7210 C   0  0  0  0  0  0  0  0  0  0  0  0
   57.4630   30.0280   45.3130 C   0  0  0  0  0  0  0  0  0  0  0  0
   57.3280   28.7560   45.8740 C   0  0  0  0  0  0  0  0  0  0  0  0
   56.3110   27.9410   45.4840 N   0  0  0  0  0  0  0  0  0  0  0  0
   56.1450   26.7000   46.0130 C   0  0  0  0  0  0  0  0  0  0  0  0
   55.1910   25.9760   45.6240 O   0  0  0  0  0  0  0  0  0  0  0  0
   57.0320   26.2280   46.9860 C   0  0  0  0  0  0  0  0  0  0  0  0
   58.0850   27.0430   47.4070 C   0  0  0  0  0  0  0  0  0  0  0  0
   58.2430   28.3210   46.8540 C   0  0  0  0  0  0  0  0  0  0  0  0
   59.2940   29.1590   47.2490 C   0  0  0  0  0  0  0  0  0  0  0  0
   59.4420   30.4340   46.6760 C   0  0  0  0  0  0  0  0  0  0  0  0
   60.6140   31.2570   47.0530 C   0  0  0  0  0  0  0  0  0  0  0  0
   60.5060   32.5090   47.6800 C   0  0  0  0  0  0  0  0  0  0  0  0
   61.7300   33.0920   47.9740 C   0  0  0  0  0  0  0  0  0  0  0  0
   62.9410   32.0450   47.4680 S   0  0  0  0  0  0  0  0  0  0  0  0
   61.9310   30.8440   46.8680 C   0  0  0  0  0  0  0  0  0  0  0  0
   59.1978   35.0515   47.2689 H   0  0  0  0  0  0  0  0  0  0  0  0
   59.9748   34.5703   45.7225 H   0  0  0  0  0  0  0  0  0  0  0  0
   58.6496   35.7829   45.7225 H   0  0  0  0  0  0  0  0  0  0  0  0
   56.7512   30.3634   44.5443 H   0  0  0  0  0  0  0  0  0  0  0  0
   56.9014   25.2239   47.4157 H   0  0  0  0  0  0  0  0  0  0  0  0
   58.7892   26.6825   48.1713 H   0  0  0  0  0  0  0  0  0  0  0  0
   60.0081   28.8169   48.0126 H   0  0  0  0  0  0  0  0  0  0  0  0
   59.5417   32.9828   47.9158 H   0  0  0  0  0  0  0  0  0  0  0  0
   61.8808   34.0698   48.4548 H   0  0  0  0  0  0  0  0  0  0  0  0
   62.2534   29.8975   46.4095 H   0  0  0  0  0  0  0  0  0  0  0  0
  1  2  1  0
  2  3  2  0
  2  4  2  0
  2  5  1  0
  5  6  1  0
  6  7  2  0
  7  8  1  0
  8  9  1  0
  9 10  1  0
 10 11  2  0
 10 12  1  0
 12 13  2  0
 13 14  1  0
 14 15  1  0
 15 16  2  0
 16 17  1  0
 17 18  1  0
 18 19  2  0
 19 20  1  0
 20 21  1  0
 16  6  1  0
 21 17  2  0
 14  8  2  0
  1 22  1  0
  1 23  1  0
  1 24  1  0
  7 25  1  0
 12 26  1  0
 13 27  1  0
 15 28  1  0
 18 29  1  0
 19 30  1  0
 21 31  1  0
M  CHG  2   5  -1   9  -1
M  END
>  <UniqueID>  (3) 
3

>  <SMILES>  (3) 
CS(=O)(=O)[N-]c1cc2[n-]c(=O)ccc2cc1-c1ccsc1

>  <Energy>  (3) 
71.74868220249269

>  <Genealogy>  (3) 
CS(=O)(=O)[N-]c1cc2[n-]c(=O)ccc2cc1-c1ccsc1 (protonated)
CS(=O)(=O)[N-]c1cc2[n-]c(=O)ccc2cc1-c1ccsc1 (3D coordinates assigned)
CS(=O)(=O)[N-]c1cc2[n-]c(=O)ccc2cc1-c1ccsc1 (optimized conformer: 71.74868220249269 kcal/mol)

>  <smiles>  (3) 
CS(=O)(=O)Nc1cc2[nH]c(=O)ccc2cc1-c1ccsc1

>  <score_type>  (3) 
oracle

>  <origin>  (3) 
adg

>  <m_score__min__energy>  (3) 
-10.09

>  <m_primary>  (3) 
energy

$$$$
3:0
     RDKit          3D

 49 51  0  0  0  0  0  0  0  0999 V2000
   56.7120   29.4500   43.0020 O   0  0  0  0  0  0  0  0  0  0  0  0
   57.3800   30.4270   43.4350 C   0  0  0  0  0  0  0  0  0  0  0  0
   57.3900   31.7110   42.6590 C   0  0  0  0  0  0  0  0  0  0  0  0
   58.2500   32.7090   43.2970 N   0  0  0  0  0  0  0  0  0  0  0  0
   57.5480   33.3130   44.7710 S   0  0  0  0  0  0  0  0  0  0  0  0
   56.9060   34.6440   44.4950 O   0  0  0  0  0  0  0  0  0  0  0  0
   56.4820   32.3670   45.2480 O   0  0  0  0  0  0  0  0  0  0  0  0
   58.7710   33.5240   46.0230 C   0  0  0  0  0  0  0  0  0  0  0  0
   58.4650   33.2230   47.3570 C   0  0  0  0  0  0  0  0  0  0  0  0
   59.4240   33.4060   48.3570 C   0  0  0  0  0  0  0  0  0  0  0  0
   60.6920   33.8960   48.0300 C   0  0  0  0  0  0  0  0  0  0  0  0
   62.0020   34.1490   49.3980 Br  0  0  0  0  0  0  0  0  0  0  0  0
   61.0010   34.2040   46.7010 C   0  0  0  0  0  0  0  0  0  0  0  0
   60.0430   34.0200   45.6990 C   0  0  0  0  0  0  0  0  0  0  0  0
   58.0800   30.3380   44.6860 N   0  0  0  0  0  0  0  0  0  0  0  0
   58.3470   29.1050   45.3740 C   0  0  0  0  0  0  0  0  0  0  0  0
   59.5630   28.8880   46.0480 C   0  0  0  0  0  0  0  0  0  0  0  0
   59.7880   27.6880   46.7260 C   0  0  0  0  0  0  0  0  0  0  0  0
   58.8010   26.7000   46.7530 C   0  0  0  0  0  0  0  0  0  0  0  0
   57.5740   26.9150   46.1100 C   0  0  0  0  0  0  0  0  0  0  0  0
   56.3270   25.6710   46.1220 S   0  0  0  0  0  0  0  0  0  0  0  0
   56.3660   24.9190   47.4250 O   0  0  0  0  0  0  0  0  0  0  0  0
   54.9830   26.3320   45.9910 O   0  0  0  0  0  0  0  0  0  0  0  0
   56.5760   24.5760   44.7860 N   0  0  0  0  0  0  0  0  0  0  0  0
   57.4900   23.4920   45.1860 C   0  0  0  0  0  0  0  0  0  0  0  0
   57.4970   22.3620   44.1370 C   0  0  0  0  0  0  0  0  0  0  0  0
   56.8770   22.7800   42.9370 O   0  0  0  0  0  0  0  0  0  0  0  0
   55.5050   23.0410   43.1740 C   0  0  0  0  0  0  0  0  0  0  0  0
   55.2880   24.0210   44.3470 C   0  0  0  0  0  0  0  0  0  0  0  0
   57.3520   28.1170   45.4250 C   0  0  0  0  0  0  0  0  0  0  0  0
   57.7626   31.5133   41.6431 H   0  0  0  0  0  0  0  0  0  0  0  0
   56.3638   32.1058   42.6260 H   0  0  0  0  0  0  0  0  0  0  0  0
   57.4668   32.8415   47.6179 H   0  0  0  0  0  0  0  0  0  0  0  0
   59.1810   33.1643   49.4022 H   0  0  0  0  0  0  0  0  0  0  0  0
   61.9980   34.5911   46.4439 H   0  0  0  0  0  0  0  0  0  0  0  0
   60.2871   34.2646   44.6547 H   0  0  0  0  0  0  0  0  0  0  0  0
   58.3530   31.2330   45.1530 H   0  0  0  0  0  0  0  0  0  0  0  0
   60.3397   29.6669   46.0408 H   0  0  0  0  0  0  0  0  0  0  0  0
   60.7457   27.5203   47.2405 H   0  0  0  0  0  0  0  0  0  0  0  0
   58.9867   25.7522   47.2794 H   0  0  0  0  0  0  0  0  0  0  0  0
   58.5077   23.8974   45.2852 H   0  0  0  0  0  0  0  0  0  0  0  0
   57.1456   23.0784   46.1453 H   0  0  0  0  0  0  0  0  0  0  0  0
   58.5375   22.0760   43.9235 H   0  0  0  0  0  0  0  0  0  0  0  0
   56.9368   21.5058   44.5408 H   0  0  0  0  0  0  0  0  0  0  0  0
   55.0655   23.4758   42.2642 H   0  0  0  0  0  0  0  0  0  0  0  0
   55.0225   22.0885   43.4383 H   0  0  0  0  0  0  0  0  0  0  0  0
   54.6313   24.8405   44.0197 H   0  0  0  0  0  0  0  0  0  0  0  0
   54.8237   23.4816   45.1857 H   0  0  0  0  0  0  0  0  0  0  0  0
   56.3885   28.2877   44.9224 H   0  0  0  0  0  0  0  0  0  0  0  0
  1  2  2  0
  2  3  1  0
  3  4  1  0
  4  5  1  0
  5  6  2  0
  5  7  2  0
  5  8  1  0
  8  9  2  0
  9 10  1  0
 10 11  2  0
 11 12  1  0
 11 13  1  0
 13 14  2  0
  2 15  1  0
 15 16  1  0
 16 17  2  0
 17 18  1  0
 18 19  2  0
 19 20  1  0
 20 21  1  0
 21 22  2  0
 21 23  2  0
 21 24  1  0
 24 25  1  0
 25 26  1  0
 26 27  1  0
 27 28  1  0
 28 29  1  0
 20 30  2  0
 14  8  1  0
 30 16  1  0
 29 24  1  0
  3 31  1  0
  3 32  1  0
  9 33  1  0
 10 34  1  0
 13 35  1  0
 14 36  1  0
 15 37  1  0
 17 38  1  0
 18 39  1  0
 19 40  1  0
 25 41  1  0
 25 42  1  0
 26 43  1  0
 26 44  1  0
 28 45  1  0
 28 46  1  0
 29 47  1  0
 29 48  1  0
 30 49  1  0
M  CHG  1   4  -1
M  END
>  <UniqueID>  (4) 
4

>  <SMILES>  (4) 
O=C(C[N-]S(=O)(=O)c1ccc(Br)cc1)Nc1cccc(S(=O)(=O)N2CCOCC2)c1

>  <Energy>  (4) 
58.34216208782824

>  <Genealogy>  (4) 
O=C(C[N-]S(=O)(=O)c1ccc(Br)cc1)Nc1cccc(S(=O)(=O)N2CCOCC2)c1 (protonated)
O=C(C[N-]S(=O)(=O)c1ccc(Br)cc1)Nc1cccc(S(=O)(=O)N2CCOCC2)c1 (3D coordinates assigned)
O=C(C[N-]S(=O)(=O)c1ccc(Br)cc1)Nc1cccc(S(=O)(=O)N2CCOCC2)c1 (nonaromatic ring conformer: 58.34216208782824 kcal/mol)

>  <smiles>  (4) 
O=C(CNS(=O)(=O)c1ccc(Br)cc1)Nc1cccc(S(=O)(=O)N2CCOCC2)c1

>  <score_type>  (4) 
oracle

>  <origin>  (4) 
adg

>  <m_score__min__energy>  (4) 
-12.57

>  <m_primary>  (4) 
energy

$$$$
4:0
     RDKit          3D

 68 72  0  0  0  0  0  0  0  0999 V2000
   58.6605   31.4245   48.3160 H   0  0  0  0  0  0  0  0  0  0  0  0
   58.5580   30.4930   47.7400 C   0  0  0  0  0  0  0  0  0  0  0  0
   58.5063   29.5263   48.2622 H   0  0  0  0  0  0  0  0  0  0  0  0
   58.4960   30.5360   46.4000 C   0  0  0  0  0  0  0  0  0  0  0  0
   58.3660   29.4410   45.5280 C   0  0  0  0  0  0  0  0  0  0  0  0
   58.4570   28.1150   45.7530 C   0  0  0  0  0  0  0  0  0  0  0  0
   59.4634   27.6709   45.7495 H   0  0  0  0  0  0  0  0  0  0  0  0
   57.3220   27.2120   46.0030 C   0  0  0  0  0  0  0  0  0  0  0  0
   57.4320   25.9700   46.5110 N   0  0  0  0  0  0  0  0  0  0  0  0
   56.1680   25.4960   46.4470 C   0  0  0  0  0  0  0  0  0  0  0  0
   55.8560   24.3470   46.8530 O   0  0  0  0  0  0  0  0  0  0  0  0
   55.2680   26.3480   45.9110 N   0  0  0  0  0  0  0  0  0  0  0  0
   56.0180   27.4250   45.6250 C   0  0  0  0  0  0  0  0  0  0  0  0
   55.5200   28.5820   45.0340 O   0  0  0  0  0  0  0  0  0  0  0  0
   58.1370   29.9720   44.2710 C   0  0  0  0  0  0  0  0  0  0  0  0
   57.9459   29.4073   43.3465 H   0  0  0  0  0  0  0  0  0  0  0  0
   58.1940   31.3450   44.3980 C   0  0  0  0  0  0  0  0  0  0  0  0
   58.0810   32.3040   43.2510 C   0  0  0  0  0  0  0  0  0  0  0  0
   57.9605   33.3264   43.6384 H   0  0  0  0  0  0  0  0  0  0  0  0
   58.9918   32.2497   42.6365 H   0  0  0  0  0  0  0  0  0  0  0  0
   57.2078   32.0395   42.6365 H   0  0  0  0  0  0  0  0  0  0  0  0
   58.4160   31.6940   45.6880 N   0  0  0  0  0  0  0  0  0  0  0  0
   58.4540   33.0690   46.2170 C   0  0  0  0  0  0  0  0  0  0  0  0
   58.4179   33.7788   45.3774 H   0  0  0  0  0  0  0  0  0  0  0  0
   57.5888   33.2138   46.8807 H   0  0  0  0  0  0  0  0  0  0  0  0
   59.7150   33.3070   47.0110 C   0  0  0  0  0  0  0  0  0  0  0  0
   60.9590   32.9080   46.5010 C   0  0  0  0  0  0  0  0  0  0  0  0
   61.0226   32.4758   45.4915 H   0  0  0  0  0  0  0  0  0  0  0  0
   62.1180   33.0560   47.2670 C   0  0  0  0  0  0  0  0  0  0  0  0
   63.0853   32.7181   46.8669 H   0  0  0  0  0  0  0  0  0  0  0  0
   62.0540   33.6340   48.5450 C   0  0  0  0  0  0  0  0  0  0  0  0
   63.2290   33.6890   49.3730 N   0  0  0  0  0  0  0  0  0  0  0  0
   63.1520   34.1830   50.7500 C   0  0  0  0  0  0  0  0  0  0  0  0
   63.7783   35.0812   50.8547 H   0  0  0  0  0  0  0  0  0  0  0  0
   62.1102   34.4375   50.9948 H   0  0  0  0  0  0  0  0  0  0  0  0
   63.6520   33.0990   51.6970 C   0  0  0  0  0  0  0  0  0  0  0  0
   63.6208   33.4869   52.7258 H   0  0  0  0  0  0  0  0  0  0  0  0
   62.9993   32.2217   51.5769 H   0  0  0  0  0  0  0  0  0  0  0  0
   65.1100   32.6540   51.3740 C   0  0  0  0  0  0  0  0  0  0  0  0
   65.7713   33.2466   52.0232 H   0  0  0  0  0  0  0  0  0  0  0  0
   65.3440   31.2210   51.7420 N   0  0  2  0  0  0  0  0  0  0  0  0
   64.5200   30.6950   51.3590 H   0  0  0  0  0  0  0  0  0  0  0  0
   65.2430   31.0170   53.2200 C   0  0  0  0  0  0  0  0  0  0  0  0
   64.1802   31.0106   53.5036 H   0  0  0  0  0  0  0  0  0  0  0  0
   65.7866   31.8386   53.7093 H   0  0  0  0  0  0  0  0  0  0  0  0
   65.8680   29.7270   53.6650 C   0  0  0  0  0  0  0  0  0  0  0  0
   65.3380   29.0450   54.5810 O   0  0  0  0  0  0  0  0  0  0  0  0
   67.1080   29.3290   53.0730 N   0  0  0  0  0  0  0  0  0  0  0  0
   67.7530   28.0710   53.4450 C   0  0  0  0  0  0  0  0  0  0  0  0
   67.7944   27.9903   54.5413 H   0  0  0  0  0  0  0  0  0  0  0  0
   67.1758   27.2283   53.0368 H   0  0  0  0  0  0  0  0  0  0  0  0
   68.7742   28.0478   53.0368 H   0  0  0  0  0  0  0  0  0  0  0  0
   67.6620   30.2110   52.0460 C   0  0  0  0  0  0  0  0  0  0  0  0
   68.4541   29.6826   51.4951 H   0  0  0  0  0  0  0  0  0  0  0  0
   68.0863   31.1090   52.5188 H   0  0  0  0  0  0  0  0  0  0  0  0
   66.5450   30.6170   51.0760 C   0  0  0  0  0  0  0  0  0  0  0  0
   66.2212   29.7202   50.5275 H   0  0  0  0  0  0  0  0  0  0  0  0
   66.9641   31.3909   50.4161 H   0  0  0  0  0  0  0  0  0  0  0  0
   65.5830   33.0350   49.9290 C   0  0  0  0  0  0  0  0  0  0  0  0
   66.0695   34.0202   49.9820 H   0  0  0  0  0  0  0  0  0  0  0  0
   66.2517   32.2220   49.6098 H   0  0  0  0  0  0  0  0  0  0  0  0
   64.4780   33.1110   48.8600 C   0  0  0  0  0  0  0  0  0  0  0  0
   64.8371   33.7331   48.0269 H   0  0  0  0  0  0  0  0  0  0  0  0
   64.2588   32.0828   48.5363 H   0  0  0  0  0  0  0  0  0  0  0  0
   60.8180   34.0790   49.0350 C   0  0  0  0  0  0  0  0  0  0  0  0
   60.7622   34.5578   50.0238 H   0  0  0  0  0  0  0  0  0  0  0  0
   59.6570   33.9180   48.2750 C   0  0  0  0  0  0  0  0  0  0  0  0
   58.6923   34.2714   48.6681 H   0  0  0  0  0  0  0  0  0  0  0  0
  1  2  1  0
  2  3  1  0
  2  4  2  0
  4  5  1  0
  5  6  2  0
  6  7  1  0
  6  8  1  0
  8  9  1  0
  9 10  1  0
 10 11  2  0
 10 12  1  0
 12 13  1  0
 13 14  1  0
  5 15  1  0
 15 16  1  0
 15 17  2  0
 17 18  1  0
 18 19  1  0
 18 20  1  0
 18 21  1  0
 17 22  1  0
 22 23  1  0
 23 24  1  0
 23 25  1  0
 23 26  1  0
 26 27  2  0
 27 28  1  0
 27 29  1  0
 29 30  1  0
 29 31  2  0
 31 32  1  0
 32 33  1  0
 33 34  1  0
 33 35  1  0
 33 36  1  0
 36 37  1  0
 36 38  1  0
 36 39  1  0
 39 40  1  0
 39 41  1  0
 41 42  1  6
 41 43  1  0
 43 44  1  0
 43 45  1  0
 43 46  1  0
 46 47  2  0
 46 48  1  0
 48 49  1  0
 49 50  1  0
 49 51  1  0
 49 52  1  0
 48 53  1  0
 53 54  1  0
 53 55  1  0
 53 56  1  0
 56 57  1  0
 56 58  1  0
 39 59  1  0
 59 60  1  0
 59 61  1  0
 59 62  1  0
 62 63  1  0
 62 64  1  0
 31 65  1  0
 65 66  1  0
 65 67  2  0
 67 68  1  0
 22  4  1  0
 67 26  1  0
 13  8  2  0
 62 32  1  0
 56 41  1  0
M  CHG  4   9  -1  12  -1  14  -1  41   1
M  END
>  <UniqueID>  (5) 
5

>  <SMILES>  (5) 
C=c1/c(=C\c2[n-]c(=O)[n-]c2[O-])cc(C)n1Cc1ccc(N2CCC([N@H+]3CCN(C)C(=O)C3)CC2)cc1

>  <Energy>  (5) 
162.47766415612037

>  <Genealogy>  (5) 
C=c1c(=Cc2[n-]c(=O)[n-]c2[O-])cc(C)n1Cc1ccc(N2CCC([NH+]3CCN(C)C(=O)C3)CC2)cc1 (protonated)
C=c1c(=Cc2[n-]c(=O)[n-]c2[O-])cc(C)n1Cc1ccc(N2CCC([N@H+]3CCN(C)C(=O)C3)CC2)cc1 (chirality)
C=c1/c(=C\c2[n-]c(=O)[n-]c2[O-])cc(C)n1Cc1ccc(N2CCC([N@H+]3CCN(C)C(=O)C3)CC2)cc1 (cis-trans isomerization)
C=c1/c(=C\c2[n-]c(=O)[n-]c2[O-])cc(C)n1Cc1ccc(N2CCC([N@H+]3CCN(C)C(=O)C3)CC2)cc1 (3D coordinates assigned)
C=c1/c(=C\c2[n-]c(=O)[n-]c2[O-])cc(C)n1Cc1ccc(N2CCC([N@H+]3CCN(C)C(=O)C3)CC2)cc1 (nonaromatic ring conformer: 162.47766415612037 kcal/mol)

>  <smiles>  (5) 
C=c1c(=Cc2[nH]c(=O)[nH]c2O)cc(C)n1Cc1ccc(N2CCC(N3CCN(C)C(=O)C3)CC2)cc1

>  <score_type>  (5) 
oracle

>  <origin>  (5) 
adg

>  <m_score__min__energy>  (5) 
-15.99

>  <m_primary>  (5) 
energy

$$$$
5:0
     RDKit          3D

 75 78  0  0  0  0  0  0  0  0999 V2000
   56.3290   22.9530   43.2100 C   0  0  0  0  0  0  0  0  0  0  0  0
   57.2160   23.7000   43.8710 C   0  0  0  0  0  0  0  0  0  0  0  0
   57.9280   23.1870   45.0930 C   0  0  0  0  0  0  0  0  0  0  0  0
   57.6800   24.0680   46.3270 C   0  0  0  0  0  0  0  0  0  0  0  0
   57.4290   25.4740   45.9410 N   0  0  0  0  0  0  0  0  0  0  0  0
   56.1620   25.9820   45.9440 C   0  0  0  0  0  0  0  0  0  0  0  0
   55.1720   25.2600   46.2440 O   0  0  0  0  0  0  0  0  0  0  0  0
   55.9500   27.2750   45.6220 N   0  0  0  0  0  0  0  0  0  0  0  0
   56.9760   28.1040   45.3180 C   0  0  0  0  0  0  0  0  0  0  0  0
   56.6220   29.5190   44.9310 C   0  0  0  0  0  0  0  0  0  0  0  0
   56.8430   29.7490   43.4290 C   0  0  0  0  0  0  0  0  0  0  0  0
   57.3970   31.1490   43.1250 C   0  0  0  0  0  0  0  0  0  0  0  0
   57.7910   31.9160   44.3870 C   0  0  0  0  0  0  0  0  0  0  0  0
   58.2660   27.6230   45.3160 N   0  0  0  0  0  0  0  0  0  0  0  0
   59.4230   28.5140   45.0670 C   0  0  0  0  0  0  0  0  0  0  0  0
   59.9770   29.0580   46.3640 C   0  0  0  0  0  0  0  0  0  0  0  0
   61.0590   29.9540   46.3560 C   0  0  0  0  0  0  0  0  0  0  0  0
   61.5330   30.5010   47.5500 C   0  0  0  0  0  0  0  0  0  0  0  0
   60.9400   30.1530   48.7730 C   0  0  0  0  0  0  0  0  0  0  0  0
   61.4130   30.7770   50.0260 C   0  0  0  0  0  0  0  0  0  0  0  0
   62.6700   30.3940   50.5260 C   0  0  0  0  0  0  0  0  0  0  0  0
   63.1620   30.9420   51.7110 C   0  0  0  0  0  0  0  0  0  0  0  0
   62.4070   31.8810   52.4120 C   0  0  0  0  0  0  0  0  0  0  0  0
   61.1630   32.2850   51.9230 C   0  0  0  0  0  0  0  0  0  0  0  0
   60.6540   31.7510   50.7270 C   0  0  0  0  0  0  0  0  0  0  0  0
   59.0920   32.3580   50.1420 S   0  0  0  0  0  0  0  0  0  0  0  0
   57.9920   31.5410   50.7580 O   0  0  0  0  0  0  0  0  0  0  0  0
   58.9040   33.7930   50.5480 O   0  0  0  0  0  0  0  0  0  0  0  0
   58.9690   32.2590   48.4150 N   0  0  0  0  0  0  0  0  0  0  0  0
   58.6040   33.3360   47.5430 C   0  0  0  0  0  0  0  0  0  0  0  0
   57.3810   33.5940   47.3900 O   0  0  0  0  0  0  0  0  0  0  0  0
   59.6200   34.1150   46.7490 C   0  0  0  0  0  0  0  0  0  0  0  0
   61.0000   33.9240   47.3180 C   0  0  0  0  0  0  0  0  0  0  0  0
   61.2570   34.2390   48.6630 C   0  0  0  0  0  0  0  0  0  0  0  0
   62.5470   34.0950   49.1860 C   0  0  0  0  0  0  0  0  0  0  0  0
   63.5870   33.6420   48.3690 C   0  0  0  0  0  0  0  0  0  0  0  0
   63.3420   33.3400   47.0270 C   0  0  0  0  0  0  0  0  0  0  0  0
   62.0540   33.4830   46.5000 C   0  0  0  0  0  0  0  0  0  0  0  0
   59.9110   29.2000   48.7920 C   0  0  0  0  0  0  0  0  0  0  0  0
   59.4280   28.6610   47.5970 C   0  0  0  0  0  0  0  0  0  0  0  0
   58.4780   26.2960   45.6150 C   0  0  0  0  0  0  0  0  0  0  0  0
   59.6510   25.8270   45.5960 O   0  0  0  0  0  0  0  0  0  0  0  0
   55.8249   23.3567   42.3196 H   0  0  0  0  0  0  0  0  0  0  0  0
   56.1022   21.9337   43.5557 H   0  0  0  0  0  0  0  0  0  0  0  0
   57.4321   24.7174   43.5128 H   0  0  0  0  0  0  0  0  0  0  0  0
   57.5718   22.1688   45.3083 H   0  0  0  0  0  0  0  0  0  0  0  0
   59.0077   23.1997   44.8828 H   0  0  0  0  0  0  0  0  0  0  0  0
   56.8048   23.6840   46.8715 H   0  0  0  0  0  0  0  0  0  0  0  0
   58.5775   24.0369   46.9623 H   0  0  0  0  0  0  0  0  0  0  0  0
   55.5648   29.7042   45.1718 H   0  0  0  0  0  0  0  0  0  0  0  0
   57.2707   30.2087   45.4909 H   0  0  0  0  0  0  0  0  0  0  0  0
   57.5568   28.9987   43.0582 H   0  0  0  0  0  0  0  0  0  0  0  0
   55.8671   29.6593   42.9294 H   0  0  0  0  0  0  0  0  0  0  0  0
   58.2858   31.0442   42.4854 H   0  0  0  0  0  0  0  0  0  0  0  0
   56.6002   31.7196   42.6254 H   0  0  0  0  0  0  0  0  0  0  0  0
   57.4943   31.3383   45.2748 H   0  0  0  0  0  0  0  0  0  0  0  0
   58.8801   32.0705   44.3972 H   0  0  0  0  0  0  0  0  0  0  0  0
   57.2823   32.8912   44.3972 H   0  0  0  0  0  0  0  0  0  0  0  0
   60.2101   27.9455   44.5500 H   0  0  0  0  0  0  0  0  0  0  0  0
   59.0877   29.3589   44.4475 H   0  0  0  0  0  0  0  0  0  0  0  0
   61.5359   30.2264   45.4029 H   0  0  0  0  0  0  0  0  0  0  0  0
   62.3754   31.2082   47.5317 H   0  0  0  0  0  0  0  0  0  0  0  0
   63.2718   29.6546   49.9772 H   0  0  0  0  0  0  0  0  0  0  0  0
   64.1464   30.6329   52.0924 H   0  0  0  0  0  0  0  0  0  0  0  0
   62.7917   32.3043   53.3516 H   0  0  0  0  0  0  0  0  0  0  0  0
   60.5751   33.0293   52.4801 H   0  0  0  0  0  0  0  0  0  0  0  0
   59.6080   33.7658   45.7060 H   0  0  0  0  0  0  0  0  0  0  0  0
   59.3625   35.1834   46.7968 H   0  0  0  0  0  0  0  0  0  0  0  0
   60.4415   34.6000   49.3070 H   0  0  0  0  0  0  0  0  0  0  0  0
   62.7428   34.3384   50.2407 H   0  0  0  0  0  0  0  0  0  0  0  0
   64.5992   33.5232   48.7831 H   0  0  0  0  0  0  0  0  0  0  0  0
   64.1628   32.9894   46.3841 H   0  0  0  0  0  0  0  0  0  0  0  0
   61.8657   33.2494   45.4417 H   0  0  0  0  0  0  0  0  0  0  0  0
   59.4825   28.8757   49.7518 H   0  0  0  0  0  0  0  0  0  0  0  0
   58.6137   27.9219   47.6203 H   0  0  0  0  0  0  0  0  0  0  0  0
  1  2  2  0
  2  3  1  0
  3  4  1  0
  4  5  1  0
  5  6  1  0
  6  7  2  0
  6  8  1  0
  8  9  2  0
  9 10  1  0
 10 11  1  0
 11 12  1  0
 12 13  1  0
  9 14  1  0
 14 15  1  0
 15 16  1  0
 16 17  2  0
 17 18  1  0
 18 19  2  0
 19 20  1  0
 20 21  2  0
 21 22  1  0
 22 23  2  0
 23 24  1  0
 24 25  2  0
 25 26  1  0
 26 27  2  0
 26 28  2  0
 26 29  1  0
 29 30  1  0
 30 31  2  0
 30 32  1  0
 32 33  1  0
 33 34  2  0
 34 35  1  0
 35 36  2  0
 36 37  1  0
 37 38  2  0
 19 39  1  0
 39 40  2  0
 14 41  1  0
 41 42  2  0
 41  5  1  0
 40 16  1  0
 25 20  1  0
 38 33  1  0
  1 43  1  0
  1 44  1  0
  2 45  1  0
  3 46  1  0
  3 47  1  0
  4 48  1  0
  4 49  1  0
 10 50  1  0
 10 51  1  0
 11 52  1  0
 11 53  1  0
 12 54  1  0
 12 55  1  0
 13 56  1  0
 13 57  1  0
 13 58  1  0
 15 59  1  0
 15 60  1  0
 17 61  1  0
 18 62  1  0
 21 63  1  0
 22 64  1  0
 23 65  1  0
 24 66  1  0
 32 67  1  0
 32 68  1  0
 34 69  1  0
 35 70  1  0
 36 71  1  0
 37 72  1  0
 38 73  1  0
 39 74  1  0
 40 75  1  0
M  CHG  1  29  -1
M  END
>  <UniqueID>  (6) 
6

>  <SMILES>  (6) 
C=CCCn1c(=O)nc(CCCC)n(Cc2ccc(-c3ccccc3S(=O)(=O)[N-]C(=O)Cc3ccccc3)cc2)c1=O

>  <Energy>  (6) 
82.37531935161964

>  <Genealogy>  (6) 
C=CCCn1c(=O)nc(CCCC)n(Cc2ccc(-c3ccccc3S(=O)(=O)[N-]C(=O)Cc3ccccc3)cc2)c1=O (protonated)
C=CCCn1c(=O)nc(CCCC)n(Cc2ccc(-c3ccccc3S(=O)(=O)[N-]C(=O)Cc3ccccc3)cc2)c1=O (3D coordinates assigned)
C=CCCn1c(=O)nc(CCCC)n(Cc2ccc(-c3ccccc3S(=O)(=O)[N-]C(=O)Cc3ccccc3)cc2)c1=O (optimized conformer: 82.37531935161964 kcal/mol)

>  <smiles>  (6) 
C=CCCn1c(=O)nc(CCCC)n(Cc2ccc(-c3ccccc3S(=O)(=O)NC(=O)Cc3ccccc3)cc2)c1=O

>  <score_type>  (6) 
oracle

>  <origin>  (6) 
adg

>  <m_score__min__energy>  (6) 
-11.69

>  <m_primary>  (6) 
energy

$$$$
6:0
     RDKit          3D

 44 45  0  0  0  0  0  0  0  0999 V2000
   62.8740   33.8290   46.8790 C   0  0  0  0  0  0  0  0  0  0  0  0
   62.0480   33.8330   47.9290 C   0  0  0  0  0  0  0  0  0  0  0  0
   60.7520   34.5940   47.9120 C   0  0  0  0  0  0  0  0  0  0  0  0
   59.7190   33.8770   47.0800 C   0  0  0  0  0  0  0  0  0  0  0  0
   59.6760   34.0770   45.6910 C   0  0  0  0  0  0  0  0  0  0  0  0
   58.7070   33.4370   44.9140 C   0  0  0  0  0  0  0  0  0  0  0  0
   57.7700   32.5830   45.5050 C   0  0  0  0  0  0  0  0  0  0  0  0
   56.8140   31.9700   44.6830 O   0  0  0  0  0  0  0  0  0  0  0  0
   56.6060   30.5900   44.5720 C   0  0  0  0  0  0  0  0  0  0  0  0
   55.4390   30.1150   44.5070 O   0  0  0  0  0  0  0  0  0  0  0  0
   57.7460   29.7230   44.5360 N   0  0  0  0  0  0  0  0  0  0  0  0
   58.1760   28.8290   45.5750 C   0  0  0  0  0  0  0  0  0  0  0  0
   58.5740   29.3190   46.8320 C   0  0  0  0  0  0  0  0  0  0  0  0
   58.9760   28.4430   47.8390 C   0  0  0  0  0  0  0  0  0  0  0  0
   59.0030   27.0710   47.6030 C   0  0  0  0  0  0  0  0  0  0  0  0
   58.6630   26.5580   46.3400 C   0  0  0  0  0  0  0  0  0  0  0  0
   58.6470   25.1390   46.1120 N   0  0  0  0  0  0  0  0  0  0  0  0
   57.4920   24.2910   46.1170 C   0  0  0  0  0  0  0  0  0  0  0  0
   57.4230   23.3640   46.9690 O   0  0  0  0  0  0  0  0  0  0  0  0
   56.3460   24.5030   45.1660 C   0  0  0  0  0  0  0  0  0  0  0  0
   55.1920   25.1470   45.8670 C   0  0  0  0  0  0  0  0  0  0  0  0
   54.2450   24.4430   46.3060 O   0  0  0  0  0  0  0  0  0  0  0  0
   55.1420   26.5300   45.9990 O   0  0  0  0  0  0  0  0  0  0  0  0
   58.2550   27.4410   45.3140 C   0  0  0  0  0  0  0  0  0  0  0  0
   57.8340   26.8970   43.9700 C   0  0  0  0  0  0  0  0  0  0  0  0
   57.7910   32.4030   46.9000 C   0  0  0  0  0  0  0  0  0  0  0  0
   58.7570   33.0450   47.6830 C   0  0  0  0  0  0  0  0  0  0  0  0
   58.7500   32.8550   49.0620 O   0  0  0  0  0  0  0  0  0  0  0  0
   63.8157   33.2621   46.9222 H   0  0  0  0  0  0  0  0  0  0  0  0
   62.6124   34.3926   45.9713 H   0  0  0  0  0  0  0  0  0  0  0  0
   62.3236   33.2645   48.8295 H   0  0  0  0  0  0  0  0  0  0  0  0
   60.3791   34.6936   48.9421 H   0  0  0  0  0  0  0  0  0  0  0  0
   60.9321   35.5857   47.4714 H   0  0  0  0  0  0  0  0  0  0  0  0
   60.4097   34.7416   45.2115 H   0  0  0  0  0  0  0  0  0  0  0  0
   58.6808   33.6063   43.8274 H   0  0  0  0  0  0  0  0  0  0  0  0
   58.5680   30.4025   47.0219 H   0  0  0  0  0  0  0  0  0  0  0  0
   59.2726   28.8365   48.8224 H   0  0  0  0  0  0  0  0  0  0  0  0
   59.2927   26.3836   48.4115 H   0  0  0  0  0  0  0  0  0  0  0  0
   56.6759   25.1520   44.3414 H   0  0  0  0  0  0  0  0  0  0  0  0
   56.0236   23.5263   44.7760 H   0  0  0  0  0  0  0  0  0  0  0  0
   57.1667   26.0348   44.1161 H   0  0  0  0  0  0  0  0  0  0  0  0
   57.3040   27.6796   43.4073 H   0  0  0  0  0  0  0  0  0  0  0  0
   58.7246   26.5802   43.4073 H   0  0  0  0  0  0  0  0  0  0  0  0
   57.0433   31.7534   47.3785 H   0  0  0  0  0  0  0  0  0  0  0  0
  1  2  2  0
  2  3  1  0
  3  4  1  0
  4  5  2  0
  5  6  1  0
  6  7  2  0
  7  8  1  0
  8  9  1  0
  9 10  2  0
  9 11  1  0
 11 12  1  0
 12 13  2  0
 13 14  1  0
 14 15  2  0
 15 16  1  0
 16 17  1  0
 17 18  1  0
 18 19  2  0
 18 20  1  0
 20 21  1  0
 21 22  2  0
 21 23  1  0
 16 24  2  0
 24 25  1  0
  7 26  1  0
 26 27  2  0
 27 28  1  0
 27  4  1  0
 24 12  1  0
  1 29  1  0
  1 30  1  0
  2 31  1  0
  3 32  1  0
  3 33  1  0
  5 34  1  0
  6 35  1  0
 13 36  1  0
 14 37  1  0
 15 38  1  0
 20 39  1  0
 20 40  1  0
 25 41  1  0
 25 42  1  0
 25 43  1  0
 26 44  1  0
M  CHG  4  11  -1  17  -1  23  -1  28  -1
M  END
>  <UniqueID>  (7) 
7

>  <SMILES>  (7) 
C=CCc1ccc(OC(=O)[N-]c2cccc([N-]C(=O)CC(=O)[O-])c2C)cc1[O-]

>  <Energy>  (7) 
54.69677382537837

>  <Genealogy>  (7) 
C=CCc1ccc(OC(=O)[N-]c2cccc([N-]C(=O)CC(=O)[O-])c2C)cc1[O-] (protonated)
C=CCc1ccc(OC(=O)[N-]c2cccc([N-]C(=O)CC(=O)[O-])c2C)cc1[O-] (3D coordinates assigned)
C=CCc1ccc(OC(=O)[N-]c2cccc([N-]C(=O)CC(=O)[O-])c2C)cc1[O-] (optimized conformer: 54.69677382537837 kcal/mol)

>  <smiles>  (7) 
C=CCc1ccc(OC(=O)Nc2cccc(NC(=O)CC(=O)O)c2C)cc1O

>  <score_type>  (7) 
oracle

>  <origin>  (7) 
adg

>  <m_score__min__energy>  (7) 
-15.539999999999999

>  <m_primary>  (7) 
energy

$$$$
7:0
     RDKit          3D

 50 53  0  0  0  0  0  0  0  0999 V2000
   56.3620   29.3640   44.8150 C   0  0  0  0  0  0  0  0  0  0  0  0
   57.6410   28.9860   44.9770 C   0  0  0  0  0  0  0  0  0  0  0  0
   58.1500   27.6860   44.8570 C   0  0  0  0  0  0  0  0  0  0  0  0
   57.4520   26.5680   44.5580 C   0  0  0  0  0  0  0  0  0  0  0  0
   56.9210   25.5930   45.5370 C   0  0  0  0  0  0  0  0  0  0  0  0
   57.5560   24.4950   45.9840 N   0  0  0  0  0  0  0  0  0  0  0  0
   56.6900   23.9680   46.8750 C   0  0  0  0  0  0  0  0  0  0  0  0
   56.9320   22.9110   47.5140 O   0  0  0  0  0  0  0  0  0  0  0  0
   55.5440   24.6650   47.0300 N   0  0  0  0  0  0  0  0  0  0  0  0
   55.7090   25.6900   46.1800 C   0  0  0  0  0  0  0  0  0  0  0  0
   54.7700   26.6970   45.9970 O   0  0  0  0  0  0  0  0  0  0  0  0
   59.5200   27.7890   45.0850 C   0  0  0  0  0  0  0  0  0  0  0  0
   59.7810   29.1190   45.3440 C   0  0  0  0  0  0  0  0  0  0  0  0
   61.1420   29.6800   45.6260 C   0  0  0  0  0  0  0  0  0  0  0  0
   58.6470   29.8470   45.2680 N   0  0  0  0  0  0  0  0  0  0  0  0
   58.5420   31.2650   45.4830 C   0  0  0  0  0  0  0  0  0  0  0  0
   59.1570   31.8510   46.5990 C   0  0  0  0  0  0  0  0  0  0  0  0
   59.0790   33.2390   46.8160 C   0  0  0  0  0  0  0  0  0  0  0  0
   59.7340   33.8310   48.0130 C   0  0  0  0  0  0  0  0  0  0  0  0
   59.3570   34.9710   48.4080 O   0  0  0  0  0  0  0  0  0  0  0  0
   60.7990   33.1500   48.7250 N   0  0  0  0  0  0  0  0  0  0  0  0
   61.2810   33.9760   49.8760 C   0  0  0  0  0  0  0  0  0  0  0  0
   62.6760   34.5830   49.6670 C   0  0  0  0  0  0  0  0  0  0  0  0
   63.6340   33.4870   49.3080 C   0  0  0  0  0  0  0  0  0  0  0  0
   64.7890   33.5170   49.7080 O   0  0  0  0  0  0  0  0  0  0  0  0
   63.1640   32.3580   48.4410 C   0  0  0  0  0  0  0  0  0  0  0  0
   61.8500   32.7500   47.7530 C   0  0  0  0  0  0  0  0  0  0  0  0
   58.3580   34.0290   45.9020 C   0  0  0  0  0  0  0  0  0  0  0  0
   57.7440   33.4450   44.7910 C   0  0  0  0  0  0  0  0  0  0  0  0
   57.8360   32.0690   44.5770 C   0  0  0  0  0  0  0  0  0  0  0  0
   57.2190   31.5140   43.5040 F   0  0  0  0  0  0  0  0  0  0  0  0
   56.0813   30.4207   44.9357 H   0  0  0  0  0  0  0  0  0  0  0  0
   55.5955   28.6168   44.5617 H   0  0  0  0  0  0  0  0  0  0  0  0
   57.2618   26.3648   43.4938 H   0  0  0  0  0  0  0  0  0  0  0  0
   60.2525   26.9687   45.0629 H   0  0  0  0  0  0  0  0  0  0  0  0
   61.2945   29.7429   46.7136 H   0  0  0  0  0  0  0  0  0  0  0  0
   61.9074   29.0241   45.1857 H   0  0  0  0  0  0  0  0  0  0  0  0
   61.2229   30.6848   45.1857 H   0  0  0  0  0  0  0  0  0  0  0  0
   59.7062   31.2187   47.3122 H   0  0  0  0  0  0  0  0  0  0  0  0
   60.4130   32.2720   49.1440 H   0  0  0  0  0  0  0  0  0  0  0  0
   60.5667   34.7971   50.0358 H   0  0  0  0  0  0  0  0  0  0  0  0
   61.3529   33.3030   50.7431 H   0  0  0  0  0  0  0  0  0  0  0  0
   62.6389   35.3222   48.8532 H   0  0  0  0  0  0  0  0  0  0  0  0
   63.0080   35.0805   50.5902 H   0  0  0  0  0  0  0  0  0  0  0  0
   63.9260   32.1406   47.6781 H   0  0  0  0  0  0  0  0  0  0  0  0
   62.9991   31.4650   49.0617 H   0  0  0  0  0  0  0  0  0  0  0  0
   62.0443   33.5944   47.0753 H   0  0  0  0  0  0  0  0  0  0  0  0
   61.4827   31.8698   47.2051 H   0  0  0  0  0  0  0  0  0  0  0  0
   58.2771   35.1141   46.0631 H   0  0  0  0  0  0  0  0  0  0  0  0
   57.1853   34.0730   44.0815 H   0  0  0  0  0  0  0  0  0  0  0  0
  1  2  2  0
  2  3  1  0
  3  4  2  3
  4  5  1  0
  5  6  1  0
  6  7  1  0
  7  8  2  0
  7  9  1  0
  9 10  1  0
 10 11  1  0
  3 12  1  0
 12 13  2  0
 13 14  1  0
 13 15  1  0
 15 16  1  0
 16 17  2  0
 17 18  1  0
 18 19  1  0
 19 20  2  0
 19 21  1  0
 21 22  1  0
 22 23  1  0
 23 24  1  0
 24 25  2  0
 24 26  1  0
 26 27  1  0
 18 28  2  0
 28 29  1  0
 29 30  2  0
 30 31  1  0
 15  2  1  0
 30 16  1  0
 10  5  2  0
 27 21  1  0
  1 32  1  0
  1 33  1  0
  4 34  1  0
 12 35  1  0
 14 36  1  0
 14 37  1  0
 14 38  1  0
 17 39  1  0
 21 40  1  0
 22 41  1  0
 22 42  1  0
 23 43  1  0
 23 44  1  0
 26 45  1  0
 26 46  1  0
 27 47  1  0
 27 48  1  0
 28 49  1  0
 29 50  1  0
M  CHG  4   6  -1   9  -1  11  -1  21   1
M  END
>  <UniqueID>  (8) 
8

>  <SMILES>  (8) 
C=c1c(=Cc2[n-]c(=O)[n-]c2[O-])cc(C)n1-c1cc(C(=O)[NH+]2CCC(=O)CC2)ccc1F

>  <Energy>  (8) 
132.9297656662429

>  <Genealogy>  (8) 
C=c1c(=Cc2[n-]c(=O)[n-]c2[O-])cc(C)n1-c1cc(C(=O)[NH+]2CCC(=O)CC2)ccc1F (protonated)
C=c1c(=Cc2[n-]c(=O)[n-]c2[O-])cc(C)n1-c1cc(C(=O)[NH+]2CCC(=O)CC2)ccc1F (3D coordinates assigned)
C=c1c(=Cc2[n-]c(=O)[n-]c2[O-])cc(C)n1-c1cc(C(=O)[NH+]2CCC(=O)CC2)ccc1F (nonaromatic ring conformer: 132.9297656662429 kcal/mol)

>  <smiles>  (8) 
C=c1c(=Cc2[nH]c(=O)[nH]c2O)cc(C)n1-c1cc(C(=O)N2CCC(=O)CC2)ccc1F

>  <score_type>  (8) 
oracle

>  <origin>  (8) 
adg

>  <m_score__min__energy>  (8) 
-15.74

>  <m_primary>  (8) 
energy

$$$$
8:0
     RDKit          3D

 46 48  0  0  0  0  0  0  0  0999 V2000
   55.5070   26.7220   46.0440 O   0  0  0  0  0  0  0  0  0  0  0  0
   56.2740   27.6290   45.6220 C   0  0  0  0  0  0  0  0  0  0  0  0
   57.7440   27.3840   45.5400 C   0  0  0  0  0  0  0  0  0  0  0  0
   58.2240   26.9040   46.8300 N   0  0  0  0  0  0  0  0  0  0  0  0
   59.2130   27.5640   47.6290 C   0  0  0  0  0  0  0  0  0  0  0  0
   59.8840   26.8810   48.4470 O   0  0  0  0  0  0  0  0  0  0  0  0
   59.4400   29.0210   47.5540 C   0  0  0  0  0  0  0  0  0  0  0  0
   58.8950   29.8840   48.5170 C   0  0  0  0  0  0  0  0  0  0  0  0
   59.1210   31.2610   48.4370 C   0  0  0  0  0  0  0  0  0  0  0  0
   59.8870   31.7930   47.3920 C   0  0  0  0  0  0  0  0  0  0  0  0
   60.2000   33.5290   47.3120 S   0  0  0  0  0  0  0  0  0  0  0  0
   59.1420   34.2560   48.0950 O   0  0  0  0  0  0  0  0  0  0  0  0
   60.1100   33.9830   45.8810 O   0  0  0  0  0  0  0  0  0  0  0  0
   61.7760   33.9410   47.9560 N   0  0  0  0  0  0  0  0  0  0  0  0
   62.1490   33.0440   49.0550 C   0  0  0  0  0  0  0  0  0  0  0  0
   63.0580   31.9580   48.5010 C   0  0  0  0  0  0  0  0  0  0  0  0
   63.5150   32.4540   47.1450 C   0  0  0  0  0  0  0  0  0  0  0  0
   62.8210   33.7940   46.9360 C   0  0  0  0  0  0  0  0  0  0  0  0
   60.4020   30.9360   46.4080 C   0  0  0  0  0  0  0  0  0  0  0  0
   60.1770   29.5580   46.4870 C   0  0  0  0  0  0  0  0  0  0  0  0
   55.7490   28.9070   45.2450 N   0  0  0  0  0  0  0  0  0  0  0  0
   55.7680   29.4140   43.8780 C   0  0  0  0  0  0  0  0  0  0  0  0
   56.6620   30.6100   43.7790 C   0  0  0  0  0  0  0  0  0  0  0  0
   57.0820   31.2170   42.6020 C   0  0  0  0  0  0  0  0  0  0  0  0
   57.9370   32.3040   42.8180 C   0  0  0  0  0  0  0  0  0  0  0  0
   58.1990   32.5500   44.1620 C   0  0  0  0  0  0  0  0  0  0  0  0
   57.3630   31.4150   45.0790 S   0  0  0  0  0  0  0  0  0  0  0  0
   57.9482   26.6282   44.7673 H   0  0  0  0  0  0  0  0  0  0  0  0
   58.2600   28.3198   45.2793 H   0  0  0  0  0  0  0  0  0  0  0  0
   58.2876   29.4752   49.3380 H   0  0  0  0  0  0  0  0  0  0  0  0
   58.6950   31.9305   49.1988 H   0  0  0  0  0  0  0  0  0  0  0  0
   62.6799   33.6113   49.8337 H   0  0  0  0  0  0  0  0  0  0  0  0
   61.2482   32.5935   49.4974 H   0  0  0  0  0  0  0  0  0  0  0  0
   63.9221   31.8065   49.1646 H   0  0  0  0  0  0  0  0  0  0  0  0
   62.5354   30.9931   48.4240 H   0  0  0  0  0  0  0  0  0  0  0  0
   64.6074   32.5826   47.1327 H   0  0  0  0  0  0  0  0  0  0  0  0
   63.2632   31.7396   46.3473 H   0  0  0  0  0  0  0  0  0  0  0  0
   63.5523   34.6099   47.0337 H   0  0  0  0  0  0  0  0  0  0  0  0
   62.3754   33.8351   45.9311 H   0  0  0  0  0  0  0  0  0  0  0  0
   60.9847   31.3492   45.5715 H   0  0  0  0  0  0  0  0  0  0  0  0
   60.5794   28.8920   45.7095 H   0  0  0  0  0  0  0  0  0  0  0  0
   56.1388   28.6273   43.2045 H   0  0  0  0  0  0  0  0  0  0  0  0
   54.7471   29.7062   43.5909 H   0  0  0  0  0  0  0  0  0  0  0  0
   56.7739   30.8778   41.6020 H   0  0  0  0  0  0  0  0  0  0  0  0
   58.3618   32.9070   42.0019 H   0  0  0  0  0  0  0  0  0  0  0  0
   58.8426   33.3498   44.5571 H   0  0  0  0  0  0  0  0  0  0  0  0
  1  2  2  0
  2  3  1  0
  3  4  1  0
  4  5  1  0
  5  6  2  0
  5  7  1  0
  7  8  2  0
  8  9  1  0
  9 10  2  0
 10 11  1  0
 11 12  2  0
 11 13  2  0
 11 14  1  0
 14 15  1  0
 15 16  1  0
 16 17  1  0
 17 18  1  0
 10 19  1  0
 19 20  2  0
  2 21  1  0
 21 22  1  0
 22 23  1  0
 23 24  2  0
 24 25  1  0
 25 26  2  0
 26 27  1  0
 20  7  1  0
 27 23  1  0
 18 14  1  0
  3 28  1  0
  3 29  1  0
  8 30  1  0
  9 31  1  0
 15 32  1  0
 15 33  1  0
 16 34  1  0
 16 35  1  0
 17 36  1  0
 17 37  1  0
 18 38  1  0
 18 39  1  0
 19 40  1  0
 20 41  1  0
 22 42  1  0
 22 43  1  0
 24 44  1  0
 25 45  1  0
 26 46  1  0
M  CHG  2   4  -1  21  -1
M  END
>  <UniqueID>  (9) 
9

>  <SMILES>  (9) 
O=C(C[N-]C(=O)c1ccc(S(=O)(=O)N2CCCC2)cc1)[N-]Cc1cccs1

>  <Energy>  (9) 
71.89713896534647

>  <Genealogy>  (9) 
O=C(C[N-]C(=O)c1ccc(S(=O)(=O)N2CCCC2)cc1)[N-]Cc1cccs1 (protonated)
O=C(C[N-]C(=O)c1ccc(S(=O)(=O)N2CCCC2)cc1)[N-]Cc1cccs1 (3D coordinates assigned)
O=C(C[N-]C(=O)c1ccc(S(=O)(=O)N2CCCC2)cc1)[N-]Cc1cccs1 (nonaromatic ring conformer: 71.89713896534647 kcal/mol)

>  <smiles>  (9) 
O=C(CNC(=O)c1ccc(S(=O)(=O)N2CCCC2)cc1)NCc1cccs1

>  <score_type>  (9) 
oracle

>  <origin>  (9) 
adg

>  <m_score__min__energy>  (9) 
-13.18

>  <m_primary>  (9) 
energy

$$$$
9:0
     RDKit          3D

 59 62  0  0  1  0  0  0  0  0999 V2000
   57.4060   30.8450   45.2800 O   0  0  0  0  0  0  0  0  0  0  0  0
   58.1140   30.5100   44.2740 C   0  0  0  0  0  0  0  0  0  0  0  0
   58.2740   31.4810   43.1860 N   0  0  0  0  0  0  0  0  0  0  0  0
   57.6160   32.7100   43.3660 C   0  0  0  0  0  0  0  0  0  0  0  0
   57.8680   33.5780   44.5240 C   0  0  0  0  0  0  0  0  0  0  0  0
   58.8930   33.3060   45.4510 N   0  0  0  0  0  0  0  0  0  0  0  0
   59.7980   34.1400   46.1110 C   0  0  0  0  0  0  0  0  0  0  0  0
   59.7740   35.3630   45.9270 O   0  0  0  0  0  0  0  0  0  0  0  0
   60.8260   33.6500   47.0550 C   0  0  0  0  0  0  0  0  0  0  0  0
   60.5260   33.2140   48.3210 C   0  0  0  0  0  0  0  0  0  0  0  0
   61.5320   32.7630   49.1680 C   0  0  0  0  0  0  0  0  0  0  0  0
   62.8590   32.7270   48.7980 C   0  0  0  0  0  0  0  0  0  0  0  0
   63.9240   32.2570   49.6750 C   0  0  0  0  0  0  0  0  0  0  0  0
   65.2370   32.6940   49.5000 C   0  0  0  0  0  0  0  0  0  0  0  0
   66.2610   32.2470   50.3380 C   0  0  0  0  0  0  0  0  0  0  0  0
   67.4770   32.6530   50.1720 N   0  0  0  0  0  0  0  0  0  0  0  0
   67.8860   33.9160   50.6590 C   0  0  0  0  0  0  0  0  0  0  0  0
   69.0170   34.5750   50.2610 C   0  0  0  0  0  0  0  0  0  0  0  0
   69.3230   35.8120   50.8050 C   0  0  0  0  0  0  0  0  0  0  0  0
   68.5120   36.4210   51.7550 C   0  0  0  0  0  0  0  0  0  0  0  0
   68.8520   37.6630   52.2780 O   0  0  0  0  0  0  0  0  0  0  0  0
   67.3590   35.7400   52.1550 C   0  0  0  0  0  0  0  0  0  0  0  0
   67.0560   34.5080   51.6130 C   0  0  0  0  0  0  0  0  0  0  0  0
   66.0020   31.3850   51.3340 N   0  0  0  0  0  0  0  0  0  0  0  0
   64.7350   30.9720   51.4960 C   0  0  0  0  0  0  0  0  0  0  0  0
   63.7280   31.3970   50.6890 N   0  0  0  0  0  0  0  0  0  0  0  0
   63.1610   33.1660   47.5260 C   0  0  0  0  0  0  0  0  0  0  0  0
   62.1540   33.6150   46.6820 C   0  0  0  0  0  0  0  0  0  0  0  0
   58.7250   29.2510   44.2010 N   0  0  0  0  0  0  0  0  0  0  0  0
   58.5820   28.2930   45.2470 C   0  0  0  0  0  0  0  0  0  0  0  0
   57.6840   27.2520   45.0370 C   0  0  0  0  0  0  0  0  0  0  0  0
   57.4920   26.2860   46.0050 C   0  0  0  0  0  0  0  0  0  0  0  0
   58.1840   26.3460   47.1810 C   0  0  0  0  0  0  0  0  0  0  0  0
   59.0750   27.3930   47.3710 C   0  0  0  0  0  0  0  0  0  0  0  0
   59.2910   28.3700   46.4290 C   0  0  0  0  0  0  0  0  0  0  0  0
   60.4090   29.6870   46.6640 Cl  0  0  0  0  0  0  0  0  0  0  0  0
   58.8420   31.1180   42.4130 H   0  0  0  0  0  0  0  0  0  0  0  0
   57.8471   33.3135   42.4758 H   0  0  0  0  0  0  0  0  0  0  0  0
   56.5803   32.3868   43.5476 H   0  0  0  0  0  0  0  0  0  0  0  0
   58.0768   34.5791   44.1189 H   0  0  0  0  0  0  0  0  0  0  0  0
   56.9623   33.4249   45.1292 H   0  0  0  0  0  0  0  0  0  0  0  0
   59.0130   32.2540   45.7100 H   0  0  0  0  0  0  0  0  0  0  0  0
   59.4822   33.2214   48.6682 H   0  0  0  0  0  0  0  0  0  0  0  0
   61.2570   32.4203   50.1764 H   0  0  0  0  0  0  0  0  0  0  0  0
   65.4694   33.4011   48.6901 H   0  0  0  0  0  0  0  0  0  0  0  0
   69.6823   34.1235   49.5103 H   0  0  0  0  0  0  0  0  0  0  0  0
   70.2365   36.3281   50.4746 H   0  0  0  0  0  0  0  0  0  0  0  0
   68.1300   38.1620   52.7800 H   0  0  0  0  0  0  0  0  0  0  0  0
   66.6905   36.1880   52.9049 H   0  0  0  0  0  0  0  0  0  0  0  0
   66.1454   33.9834   51.9378 H   0  0  0  0  0  0  0  0  0  0  0  0
   64.5047   30.2668   52.3082 H   0  0  0  0  0  0  0  0  0  0  0  0
   62.7940   31.0190   50.8970 H   0  0  0  0  0  0  0  0  0  0  0  0
   64.2046   33.1604   47.1784 H   0  0  0  0  0  0  0  0  0  0  0  0
   62.4266   33.9575   45.6728 H   0  0  0  0  0  0  0  0  0  0  0  0
   59.2990   28.9800   43.3840 H   0  0  0  0  0  0  0  0  0  0  0  0
   57.1224   27.1977   44.0927 H   0  0  0  0  0  0  0  0  0  0  0  0
   56.7800   25.4663   45.8285 H   0  0  0  0  0  0  0  0  0  0  0  0
   58.0385   25.5824   47.9593 H   0  0  0  0  0  0  0  0  0  0  0  0
   59.6331   27.4430   48.3176 H   0  0  0  0  0  0  0  0  0  0  0  0
  1  2  2  0
  2  3  1  0
  3  4  1  0
  4  5  1  0
  5  6  1  0
  6  7  1  0
  7  8  2  0
  7  9  1  0
  9 10  2  0
 10 11  1  0
 11 12  2  0
 12 13  1  0
 13 14  2  0
 14 15  1  0
 15 16  2  0
 16 17  1  0
 17 18  2  0
 18 19  1  0
 19 20  2  0
 20 21  1  0
 20 22  1  0
 22 23  2  0
 15 24  1  0
 24 25  2  0
 25 26  1  0
 12 27  1  0
 27 28  2  0
  2 29  1  0
 29 30  1  0
 30 31  2  0
 31 32  1  0
 32 33  2  0
 33 34  1  0
 34 35  2  0
 35 36  1  0
 28  9  1  0
 35 30  1  0
 26 13  1  0
 23 17  1  0
  3 37  1  0
  4 38  1  0
  4 39  1  0
  5 40  1  0
  5 41  1  0
  6 42  1  0
 10 43  1  0
 11 44  1  0
 14 45  1  0
 18 46  1  0
 19 47  1  0
 21 48  1  0
 22 49  1  0
 23 50  1  0
 25 51  1  0
 26 52  1  0
 27 53  1  0
 28 54  1  0
 29 55  1  0
 31 56  1  0
 32 57  1  0
 33 58  1  0
 34 59  1  0
M  END
>  <smiles>  (10) 
O=C(NCCNC(=O)c1ccc(-c2cc(=Nc3ccc(O)cc3)nc[nH]2)cc1)Nc1ccccc1Cl

>  <score_type>  (10) 
oracle

>  <origin>  (10) 
adg

>  <m_score__min__energy>  (10) 
-9.8300000000000001

>  <m_primary>  (10) 
energy

$$$$
10:0
     RDKit          3D

 39 41  0  0  0  0  0  0  0  0999 V2000
   54.7300   26.2770   45.7620 N   0  0  0  0  0  0  0  0  0  0  0  0
   55.9360   25.7500   46.3140 C   0  0  0  0  0  0  0  0  0  0  0  0
   55.8810   24.7000   47.0070 O   0  0  0  0  0  0  0  0  0  0  0  0
   57.2180   26.4480   46.0620 C   0  0  0  0  0  0  0  0  0  0  0  0
   57.1970   27.8100   46.0290 N   0  0  0  0  0  0  0  0  0  0  0  0
   58.3060   28.5660   45.8050 C   0  0  0  0  0  0  0  0  0  0  0  0
   58.1950   30.0410   45.7790 C   0  0  0  0  0  0  0  0  0  0  0  0
   57.0790   30.5780   45.5350 O   0  0  0  0  0  0  0  0  0  0  0  0
   59.3390   30.8630   46.0700 N   0  0  0  0  0  0  0  0  0  0  0  0
   59.3080   32.2980   46.0120 C   0  0  0  0  0  0  0  0  0  0  0  0
   58.2950   32.9580   45.2930 C   0  0  0  0  0  0  0  0  0  0  0  0
   58.2720   34.3530   45.2190 C   0  0  0  0  0  0  0  0  0  0  0  0
   57.2900   34.9790   44.5240 F   0  0  0  0  0  0  0  0  0  0  0  0
   59.2620   35.1040   45.8550 C   0  0  0  0  0  0  0  0  0  0  0  0
   60.2820   34.4610   46.5620 C   0  0  0  0  0  0  0  0  0  0  0  0
   60.3130   33.0630   46.6430 C   0  0  0  0  0  0  0  0  0  0  0  0
   61.6330   32.2820   47.5850 S   0  0  0  0  0  0  0  0  0  0  0  0
   60.4900   31.4500   48.6880 C   0  0  0  0  0  0  0  0  0  0  0  0
   60.6540   30.0890   48.9740 C   0  0  0  0  0  0  0  0  0  0  0  0
   59.7670   29.4430   49.8410 C   0  0  0  0  0  0  0  0  0  0  0  0
   58.7120   30.1550   50.4200 C   0  0  0  0  0  0  0  0  0  0  0  0
   58.5410   31.5110   50.1290 C   0  0  0  0  0  0  0  0  0  0  0  0
   59.4260   32.1590   49.2610 C   0  0  0  0  0  0  0  0  0  0  0  0
   59.5370   27.9290   45.5980 C   0  0  0  0  0  0  0  0  0  0  0  0
   59.6000   26.5370   45.6250 C   0  0  0  0  0  0  0  0  0  0  0  0
   58.4490   25.7790   45.8560 C   0  0  0  0  0  0  0  0  0  0  0  0
   58.6200   24.0260   45.8710 Cl  0  0  0  0  0  0  0  0  0  0  0  0
   54.0070   26.7190   46.3720 H   0  0  0  0  0  0  0  0  0  0  0  0
   60.2010   30.4070   46.4450 H   0  0  0  0  0  0  0  0  0  0  0  0
   57.5152   32.3715   44.7852 H   0  0  0  0  0  0  0  0  0  0  0  0
   59.2394   36.2024   45.7997 H   0  0  0  0  0  0  0  0  0  0  0  0
   61.0639   35.0556   47.0570 H   0  0  0  0  0  0  0  0  0  0  0  0
   61.4816   29.5273   48.5161 H   0  0  0  0  0  0  0  0  0  0  0  0
   59.8993   28.3747   50.0675 H   0  0  0  0  0  0  0  0  0  0  0  0
   58.0165   29.6476   51.1047 H   0  0  0  0  0  0  0  0  0  0  0  0
   57.7093   32.0696   50.5831 H   0  0  0  0  0  0  0  0  0  0  0  0
   59.2867   33.2250   49.0283 H   0  0  0  0  0  0  0  0  0  0  0  0
   60.4452   28.5223   45.4159 H   0  0  0  0  0  0  0  0  0  0  0  0
   60.5633   26.0311   45.4632 H   0  0  0  0  0  0  0  0  0  0  0  0
  1  2  1  0
  2  3  2  0
  2  4  1  0
  4  5  2  0
  5  6  1  0
  6  7  1  0
  7  8  2  0
  7  9  1  0
  9 10  1  0
 10 11  2  0
 11 12  1  0
 12 13  1  0
 12 14  2  0
 14 15  1  0
 15 16  2  0
 16 17  1  0
 17 18  1  0
 18 19  2  0
 19 20  1  0
 20 21  2  0
 21 22  1  0
 22 23  2  0
  6 24  2  0
 24 25  1  0
 25 26  2  0
 26 27  1  0
 26  4  1  0
 16 10  1  0
 23 18  1  0
  1 28  1  0
  9 29  1  0
 11 30  1  0
 14 31  1  0
 15 32  1  0
 19 33  1  0
 20 34  1  0
 21 35  1  0
 22 36  1  0
 23 37  1  0
 24 38  1  0
 25 39  1  0
M  CHG  1   1  -1
M  END
>  <UniqueID>  (11) 
10

>  <SMILES>  (11) 
[NH-]C(=O)c1nc(C(=O)Nc2cc(F)ccc2Sc2ccccc2)ccc1Cl

>  <Energy>  (11) 
44.063144144220324

>  <Genealogy>  (11) 
[NH-]C(=O)c1nc(C(=O)Nc2cc(F)ccc2Sc2ccccc2)ccc1Cl (protonated)
[NH-]C(=O)c1nc(C(=O)Nc2cc(F)ccc2Sc2ccccc2)ccc1Cl (3D coordinates assigned)
[NH-]C(=O)c1nc(C(=O)Nc2cc(F)ccc2Sc2ccccc2)ccc1Cl (optimized conformer: 44.063144144220324 kcal/mol)

>  <smiles>  (11) 
NC(=O)c1nc(C(=O)Nc2cc(F)ccc2Sc2ccccc2)ccc1Cl

>  <score_type>  (11) 
oracle

>  <origin>  (11) 
adg

>  <m_score__min__energy>  (11) 
-12.48

>  <m_primary>  (11) 
energy

$$$$
11:0
     RDKit          3D

 65 69  0  0  0  0  0  0  0  0999 V2000
   57.7660   32.0120   42.3890 C   0  0  0  0  0  0  0  0  0  0  0  0
   57.7050   32.4710   43.7760 N   0  0  0  0  0  0  0  0  0  0  0  0
   57.8930   33.7450   44.1750 C   0  0  0  0  0  0  0  0  0  0  0  0
   57.7020   33.8460   45.5380 C   0  0  0  0  0  0  0  0  0  0  0  0
   57.3870   32.5790   45.9900 C   0  0  0  0  0  0  0  0  0  0  0  0
   57.4170   31.7510   44.8850 C   0  0  0  0  0  0  0  0  0  0  0  0
   57.1380   30.3020   44.9210 C   0  0  0  0  0  0  0  0  0  0  0  0
   55.9480   29.9050   44.7980 O   0  0  0  0  0  0  0  0  0  0  0  0
   58.1900   29.3470   45.1430 N   0  0  0  0  0  0  0  0  0  0  0  0
   59.5900   29.7760   45.1350 C   0  0  0  0  0  0  0  0  0  0  0  0
   60.3140   29.0620   46.1880 N   0  0  0  0  0  0  0  0  0  0  0  0
   60.7410   29.7540   47.3750 C   0  0  0  0  0  0  0  0  0  0  0  0
   60.6260   29.1870   48.4960 O   0  0  0  0  0  0  0  0  0  0  0  0
   61.3130   31.1200   47.3090 C   0  0  0  0  0  0  0  0  0  0  0  0
   62.6950   31.3190   47.4820 C   0  0  0  0  0  0  0  0  0  0  0  0
   63.2350   32.6070   47.4300 C   0  0  0  0  0  0  0  0  0  0  0  0
   62.4040   33.7080   47.2160 C   0  0  0  0  0  0  0  0  0  0  0  0
   61.0290   33.5250   47.0570 C   0  0  0  0  0  0  0  0  0  0  0  0
   60.4830   32.2380   47.1070 C   0  0  0  0  0  0  0  0  0  0  0  0
   60.3560   27.5950   46.1160 C   0  0  0  0  0  0  0  0  0  0  0  0
   59.0120   27.0220   45.7190 C   0  0  0  0  0  0  0  0  0  0  0  0
   58.8920   25.6810   45.6460 C   0  0  0  0  0  0  0  0  0  0  0  0
   57.6400   24.9280   45.8610 C   0  0  0  0  0  0  0  0  0  0  0  0
   56.9330   24.4340   44.7560 C   0  0  0  0  0  0  0  0  0  0  0  0
   55.7310   23.7440   44.9400 C   0  0  0  0  0  0  0  0  0  0  0  0
   55.2130   23.5520   46.2310 C   0  0  0  0  0  0  0  0  0  0  0  0
   53.9420   22.8270   46.4340 C   0  0  0  0  0  0  0  0  0  0  0  0
   53.9410   21.7870   47.1480 O   0  0  0  0  0  0  0  0  0  0  0  0
   52.7170   23.2700   45.8210 N   0  0  0  0  0  0  0  0  0  0  0  0
   51.4190   22.7220   46.1810 C   0  0  0  0  0  0  0  0  0  0  0  0
   50.4200   23.3950   45.2510 C   0  0  0  0  0  0  0  0  0  0  0  0
   51.2430   23.9350   44.0850 C   0  0  0  0  0  0  0  0  0  0  0  0
   52.6600   24.0910   44.6220 C   0  0  0  0  0  0  0  0  0  0  0  0
   55.8930   24.0980   47.3310 C   0  0  0  0  0  0  0  0  0  0  0  0
   57.0980   24.7810   47.1480 C   0  0  0  0  0  0  0  0  0  0  0  0
   57.8950   27.9660   45.4280 C   0  0  0  0  0  0  0  0  0  0  0  0
   56.6960   27.5770   45.4730 O   0  0  0  0  0  0  0  0  0  0  0  0
   57.9109   30.9218   42.3696 H   0  0  0  0  0  0  0  0  0  0  0  0
   56.8262   32.2662   41.8770 H   0  0  0  0  0  0  0  0  0  0  0  0
   58.6068   32.5028   41.8770 H   0  0  0  0  0  0  0  0  0  0  0  0
   58.1595   34.5810   43.5116 H   0  0  0  0  0  0  0  0  0  0  0  0
   57.7846   34.7585   46.1467 H   0  0  0  0  0  0  0  0  0  0  0  0
   57.1576   32.2873   47.0255 H   0  0  0  0  0  0  0  0  0  0  0  0
   60.0402   29.5471   44.1578 H   0  0  0  0  0  0  0  0  0  0  0  0
   59.6473   30.8598   45.3143 H   0  0  0  0  0  0  0  0  0  0  0  0
   63.3540   30.4562   47.6591 H   0  0  0  0  0  0  0  0  0  0  0  0
   64.3177   32.7535   47.5580 H   0  0  0  0  0  0  0  0  0  0  0  0
   62.8326   34.7201   47.1726 H   0  0  0  0  0  0  0  0  0  0  0  0
   60.3745   34.3936   46.8923 H   0  0  0  0  0  0  0  0  0  0  0  0
   59.3983   32.0992   46.9877 H   0  0  0  0  0  0  0  0  0  0  0  0
   61.1072   27.2947   45.3706 H   0  0  0  0  0  0  0  0  0  0  0  0
   60.6169   27.2072   47.1118 H   0  0  0  0  0  0  0  0  0  0  0  0
   59.7970   25.1030   45.4078 H   0  0  0  0  0  0  0  0  0  0  0  0
   57.3254   24.5898   43.7402 H   0  0  0  0  0  0  0  0  0  0  0  0
   55.1880   23.3493   44.0686 H   0  0  0  0  0  0  0  0  0  0  0  0
   51.4077   21.6320   46.0331 H   0  0  0  0  0  0  0  0  0  0  0  0
   51.1785   22.9049   47.2387 H   0  0  0  0  0  0  0  0  0  0  0  0
   49.6783   22.6662   44.8923 H   0  0  0  0  0  0  0  0  0  0  0  0
   49.8642   24.1953   45.7616 H   0  0  0  0  0  0  0  0  0  0  0  0
   51.2270   23.2270   43.2432 H   0  0  0  0  0  0  0  0  0  0  0  0
   50.8421   24.8885   43.7107 H   0  0  0  0  0  0  0  0  0  0  0  0
   53.3924   23.7390   43.8806 H   0  0  0  0  0  0  0  0  0  0  0  0
   52.8999   25.1427   44.8373 H   0  0  0  0  0  0  0  0  0  0  0  0
   55.4749   23.9875   48.3424 H   0  0  0  0  0  0  0  0  0  0  0  0
   57.6243   25.2053   48.0157 H   0  0  0  0  0  0  0  0  0  0  0  0
  1  2  1  0
  2  3  1  0
  3  4  2  0
  4  5  1  0
  5  6  2  0
  6  7  1  0
  7  8  2  0
  7  9  1  0
  9 10  1  0
 10 11  1  0
 11 12  1  0
 12 13  2  0
 12 14  1  0
 14 15  2  0
 15 16  1  0
 16 17  2  0
 17 18  1  0
 18 19  2  0
 11 20  1  0
 20 21  1  0
 21 22  2  3
 22 23  1  0
 23 24  2  0
 24 25  1  0
 25 26  2  0
 26 27  1  0
 27 28  2  0
 27 29  1  0
 29 30  1  0
 30 31  1  0
 31 32  1  0
 32 33  1  0
 26 34  1  0
 34 35  2  0
 21 36  1  0
 36 37  2  0
  6  2  1  0
 36  9  1  0
 19 14  1  0
 35 23  1  0
 33 29  1  0
  1 38  1  0
  1 39  1  0
  1 40  1  0
  3 41  1  0
  4 42  1  0
  5 43  1  0
 10 44  1  0
 10 45  1  0
 15 46  1  0
 16 47  1  0
 17 48  1  0
 18 49  1  0
 19 50  1  0
 20 51  1  0
 20 52  1  0
 22 53  1  0
 24 54  1  0
 25 55  1  0
 30 56  1  0
 30 57  1  0
 31 58  1  0
 31 59  1  0
 32 60  1  0
 32 61  1  0
 33 62  1  0
 33 63  1  0
 34 64  1  0
 35 65  1  0
M  END
>  <UniqueID>  (12) 
11

>  <SMILES>  (12) 
Cn1cccc1C(=O)N1CN(C(=O)c2ccccc2)CC(=Cc2ccc(C(=O)N3CCCC3)cc2)C1=O

>  <Energy>  (12) 
121.68805415353664

>  <Genealogy>  (12) 
Cn1cccc1C(=O)N1CN(C(=O)c2ccccc2)CC(=Cc2ccc(C(=O)N3CCCC3)cc2)C1=O (3D coordinates assigned)
Cn1cccc1C(=O)N1CN(C(=O)c2ccccc2)CC(=Cc2ccc(C(=O)N3CCCC3)cc2)C1=O (nonaromatic ring conformer: 121.68805415353664 kcal/mol)

>  <smiles>  (12) 
Cn1cccc1C(=O)N1CN(C(=O)c2ccccc2)CC(=Cc2ccc(C(=O)N3CCCC3)cc2)C1=O

>  <score_type>  (12) 
oracle

>  <origin>  (12) 
adg

>  <m_score__min__energy>  (12) 
-10.380000000000001

>  <m_primary>  (12) 
energy

$$$$
12:0
     RDKit          3D

 43 45  0  0  0  0  0  0  0  0999 V2000
   57.3600   24.0050   47.8430 O   0  0  0  0  0  0  0  0  0  0  0  0
   56.2310   24.2200   46.8740 S   0  0  0  0  0  0  0  0  0  0  0  0
   54.9660   23.6800   47.4780 O   0  0  0  0  0  0  0  0  0  0  0  0
   56.0460   25.9190   46.5850 N   0  0  0  0  0  0  0  0  0  0  0  0
   57.0400   26.7730   46.0020 C   0  0  0  0  0  0  0  0  0  0  0  0
   58.4160   26.5350   46.1610 C   0  0  0  0  0  0  0  0  0  0  0  0
   59.3520   27.4000   45.5840 C   0  0  0  0  0  0  0  0  0  0  0  0
   58.9230   28.5070   44.8490 C   0  0  0  0  0  0  0  0  0  0  0  0
   57.5540   28.7520   44.6810 C   0  0  0  0  0  0  0  0  0  0  0  0
   56.9950   30.1610   43.7800 S   0  0  0  0  0  0  0  0  0  0  0  0
   56.3820   29.7370   42.4740 O   0  0  0  0  0  0  0  0  0  0  0  0
   55.9480   30.8720   44.5890 O   0  0  0  0  0  0  0  0  0  0  0  0
   58.3180   31.2450   43.4690 N   0  0  0  0  0  0  0  0  0  0  0  0
   57.8320   32.6270   43.4730 C   0  0  0  0  0  0  0  0  0  0  0  0
   58.2390   33.3040   44.7520 C   0  0  0  0  0  0  0  0  0  0  0  0
   59.2330   34.2940   44.7520 C   0  0  0  0  0  0  0  0  0  0  0  0
   59.5800   34.9360   45.9420 C   0  0  0  0  0  0  0  0  0  0  0  0
   58.9190   34.5910   47.1230 C   0  0  0  0  0  0  0  0  0  0  0  0
   57.9460   33.6410   47.1070 N   0  0  0  0  0  0  0  0  0  0  0  0
   57.5910   33.0020   45.9600 C   0  0  0  0  0  0  0  0  0  0  0  0
   56.6180   27.8840   45.2610 C   0  0  0  0  0  0  0  0  0  0  0  0
   56.5350   23.3890   45.3520 C   0  0  0  0  0  0  0  0  0  0  0  0
   57.5010   22.3750   45.2990 C   0  0  0  0  0  0  0  0  0  0  0  0
   57.7390   21.6930   44.1010 C   0  0  0  0  0  0  0  0  0  0  0  0
   57.0190   22.0270   42.9510 C   0  0  0  0  0  0  0  0  0  0  0  0
   56.0580   23.0400   42.9980 C   0  0  0  0  0  0  0  0  0  0  0  0
   55.8150   23.7210   44.1950 C   0  0  0  0  0  0  0  0  0  0  0  0
   58.7583   25.6654   46.7412 H   0  0  0  0  0  0  0  0  0  0  0  0
   60.4278   27.2077   45.7096 H   0  0  0  0  0  0  0  0  0  0  0  0
   59.6615   29.1881   44.4010 H   0  0  0  0  0  0  0  0  0  0  0  0
   58.6700   31.0270   42.5080 H   0  0  0  0  0  0  0  0  0  0  0  0
   58.2642   33.1690   42.6189 H   0  0  0  0  0  0  0  0  0  0  0  0
   56.7348   32.6273   43.3940 H   0  0  0  0  0  0  0  0  0  0  0  0
   59.7393   34.5645   43.8137 H   0  0  0  0  0  0  0  0  0  0  0  0
   60.3659   35.7056   45.9495 H   0  0  0  0  0  0  0  0  0  0  0  0
   59.1857   35.0883   48.0672 H   0  0  0  0  0  0  0  0  0  0  0  0
   56.7928   32.2454   45.9791 H   0  0  0  0  0  0  0  0  0  0  0  0
   55.5427   28.0773   45.1329 H   0  0  0  0  0  0  0  0  0  0  0  0
   58.0734   22.1148   46.2016 H   0  0  0  0  0  0  0  0  0  0  0  0
   58.4934   20.8933   44.0643 H   0  0  0  0  0  0  0  0  0  0  0  0
   57.2088   21.4923   42.0086 H   0  0  0  0  0  0  0  0  0  0  0  0
   55.4917   23.3023   42.0922 H   0  0  0  0  0  0  0  0  0  0  0  0
   55.0580   24.5183   44.2292 H   0  0  0  0  0  0  0  0  0  0  0  0
  1  2  2  0
  2  3  2  0
  2  4  1  0
  4  5  1  0
  5  6  2  0
  6  7  1  0
  7  8  2  0
  8  9  1  0
  9 10  1  0
 10 11  2  0
 10 12  2  0
 10 13  1  0
 13 14  1  0
 14 15  1  0
 15 16  2  0
 16 17  1  0
 17 18  2  0
 18 19  1  0
 19 20  2  0
  9 21  2  0
  2 22  1  0
 22 23  2  0
 23 24  1  0
 24 25  2  0
 25 26  1  0
 26 27  2  0
 21  5  1  0
 27 22  1  0
 20 15  1  0
  6 28  1  0
  7 29  1  0
  8 30  1  0
 13 31  1  0
 14 32  1  0
 14 33  1  0
 16 34  1  0
 17 35  1  0
 18 36  1  0
 20 37  1  0
 21 38  1  0
 23 39  1  0
 24 40  1  0
 25 41  1  0
 26 42  1  0
 27 43  1  0
M  CHG  1   4  -1
M  END
>  <UniqueID>  (13) 
12

>  <SMILES>  (13) 
O=S(=O)([N-]c1cccc(S(=O)(=O)NCc2cccnc2)c1)c1ccccc1

>  <Energy>  (13) 
46.605405388190654

>  <Genealogy>  (13) 
O=S(=O)([N-]c1cccc(S(=O)(=O)NCc2cccnc2)c1)c1ccccc1 (protonated)
O=S(=O)([N-]c1cccc(S(=O)(=O)NCc2cccnc2)c1)c1ccccc1 (3D coordinates assigned)
O=S(=O)([N-]c1cccc(S(=O)(=O)NCc2cccnc2)c1)c1ccccc1 (optimized conformer: 46.605405388190654 kcal/mol)

>  <smiles>  (13) 
O=S(=O)(NCc1cccnc1)c1cccc(NS(=O)(=O)c2ccccc2)c1

>  <score_type>  (13) 
oracle

>  <origin>  (13) 
adg

>  <m_score__min__energy>  (13) 
-12.029999999999999

>  <m_primary>  (13) 
energy

$$$$
13:0
     RDKit          3D

 43 44  0  0  0  0  0  0  0  0999 V2000
   54.4660   29.3430   45.2250 H   0  0  0  0  0  0  0  0  0  0  0  0
   55.5060   29.2560   45.1660 N   0  0  0  0  0  0  0  0  0  0  0  0
   56.2580   30.0550   44.2540 C   0  0  0  0  0  0  0  0  0  0  0  0
   56.0870   29.8990   43.0160 O   0  0  0  0  0  0  0  0  0  0  0  0
   57.2300   31.0550   44.7550 C   0  0  0  0  0  0  0  0  0  0  0  0
   57.0550   32.4230   44.4940 C   0  0  0  0  0  0  0  0  0  0  0  0
   56.1869   32.7626   43.9100 H   0  0  0  0  0  0  0  0  0  0  0  0
   57.9770   33.3530   44.9720 C   0  0  0  0  0  0  0  0  0  0  0  0
   57.8332   34.4259   44.7765 H   0  0  0  0  0  0  0  0  0  0  0  0
   59.0910   32.9110   45.7050 C   0  0  0  0  0  0  0  0  0  0  0  0
   60.0370   33.8100   46.2190 O   0  0  0  0  0  0  0  0  0  0  0  0
   61.0260   33.5010   47.1650 C   0  0  0  0  0  0  0  0  0  0  0  0
   60.6840   33.5050   48.5210 C   0  0  0  0  0  0  0  0  0  0  0  0
   59.6575   33.7589   48.8241 H   0  0  0  0  0  0  0  0  0  0  0  0
   61.6360   33.1890   49.4940 C   0  0  0  0  0  0  0  0  0  0  0  0
   61.3568   33.2103   50.5578 H   0  0  0  0  0  0  0  0  0  0  0  0
   62.9480   32.8440   49.1240 C   0  0  0  0  0  0  0  0  0  0  0  0
   63.9590   32.5140   50.1640 C   0  0  0  0  0  0  0  0  0  0  0  0
   63.7780   31.4590   50.9730 C   0  0  0  0  0  0  0  0  0  0  0  0
   64.1151   31.5123   52.0187 H   0  0  0  0  0  0  0  0  0  0  0  0
   63.1670   30.2940   50.5040 O   0  0  0  0  0  0  0  0  0  0  0  0
   61.8240   29.9720   50.8390 C   0  0  0  0  0  0  0  0  0  0  0  0
   61.4656   30.6569   51.6216 H   0  0  0  0  0  0  0  0  0  0  0  0
   61.7733   28.9379   51.2105 H   0  0  0  0  0  0  0  0  0  0  0  0
   60.9690   30.1110   49.6240 C   0  0  0  0  0  0  0  0  0  0  0  0
   61.5070   30.1940   48.4870 O   0  0  0  0  0  0  0  0  0  0  0  0
   59.5780   30.0970   49.7560 O   0  0  0  0  0  0  0  0  0  0  0  0
   58.9250   30.3220   50.9990 C   0  0  0  0  0  0  0  0  0  0  0  0
   59.6137   30.0847   51.8232 H   0  0  0  0  0  0  0  0  0  0  0  0
   58.6207   31.3768   51.0677 H   0  0  0  0  0  0  0  0  0  0  0  0
   58.0355   29.6785   51.0677 H   0  0  0  0  0  0  0  0  0  0  0  0
   65.1410   33.4250   50.3690 C   0  0  0  0  0  0  0  0  0  0  0  0
   65.3169   33.5606   51.4463 H   0  0  0  0  0  0  0  0  0  0  0  0
   66.0329   32.9785   49.9052 H   0  0  0  0  0  0  0  0  0  0  0  0
   64.9363   34.4012   49.9052 H   0  0  0  0  0  0  0  0  0  0  0  0
   63.2860   32.8250   47.7580 C   0  0  0  0  0  0  0  0  0  0  0  0
   64.3081   32.5575   47.4518 H   0  0  0  0  0  0  0  0  0  0  0  0
   62.3310   33.1440   46.7870 C   0  0  0  0  0  0  0  0  0  0  0  0
   62.6034   33.1152   45.7216 H   0  0  0  0  0  0  0  0  0  0  0  0
   59.2360   31.5830   45.9660 N   0  0  0  0  0  0  0  0  0  0  0  0
   60.0560   31.2600   46.5260 H   0  0  0  0  0  0  0  0  0  0  0  0
   58.3460   30.6590   45.5090 C   0  0  0  0  0  0  0  0  0  0  0  0
   58.5029   29.5934   45.7326 H   0  0  0  0  0  0  0  0  0  0  0  0
  1  2  1  0
  2  3  1  0
  3  4  2  0
  3  5  1  0
  5  6  2  0
  6  7  1  0
  6  8  1  0
  8  9  1  0
  8 10  2  0
 10 11  1  0
 11 12  1  0
 12 13  2  0
 13 14  1  0
 13 15  1  0
 15 16  1  0
 15 17  2  0
 17 18  1  0
 18 19  2  0
 19 20  1  0
 19 21  1  0
 21 22  1  0
 22 23  1  0
 22 24  1  0
 22 25  1  0
 25 26  2  0
 25 27  1  0
 27 28  1  0
 28 29  1  0
 28 30  1  0
 28 31  1  0
 18 32  1  0
 32 33  1  0
 32 34  1  0
 32 35  1  0
 17 36  1  0
 36 37  1  0
 36 38  2  0
 38 39  1  0
 10 40  1  0
 40 41  1  0
 40 42  2  0
 42 43  1  0
 42  5  1  0
 38 12  1  0
M  CHG  2   2  -1  40   1
M  END
>  <UniqueID>  (14) 
13

>  <SMILES>  (14) 
COC(=O)CO/C=C(\C)c1ccc(Oc2ccc(C([NH-])=O)c[nH+]2)cc1

>  <Energy>  (14) 
46.66311532195526

>  <Genealogy>  (14) 
COC(=O)COC=C(C)c1ccc(Oc2ccc(C([NH-])=O)c[nH+]2)cc1 (protonated)
COC(=O)CO/C=C(\C)c1ccc(Oc2ccc(C([NH-])=O)c[nH+]2)cc1 (cis-trans isomerization)
COC(=O)CO/C=C(\C)c1ccc(Oc2ccc(C([NH-])=O)c[nH+]2)cc1 (3D coordinates assigned)
COC(=O)CO/C=C(\C)c1ccc(Oc2ccc(C([NH-])=O)c[nH+]2)cc1 (optimized conformer: 46.66311532195526 kcal/mol)

>  <smiles>  (14) 
COC(=O)COC=C(C)c1ccc(Oc2ccc(C(N)=O)cn2)cc1

>  <score_type>  (14) 
oracle

>  <origin>  (14) 
adg

>  <m_score__min__energy>  (14) 
-7.2800000000000002

>  <m_primary>  (14) 
energy

$$$$
14:0
     RDKit          3D

 43 45  0  0  0  0  0  0  0  0999 V2000
   61.4480   31.4210   47.1330 C   0  0  0  0  0  0  0  0  0  0  0  0
   60.4810   30.3890   47.5690 C   0  0  0  0  0  0  0  0  0  0  0  0
   59.2320   30.4870   48.0380 N   0  0  0  0  0  0  0  0  0  0  0  0
   58.7160   29.2970   48.3090 N   0  0  0  0  0  0  0  0  0  0  0  0
   59.6580   28.4010   48.0070 C   0  0  0  0  0  0  0  0  0  0  0  0
   59.6120   26.5980   48.1230 S   0  0  0  0  0  0  0  0  0  0  0  0
   59.2730   25.9390   46.4340 C   0  0  0  0  0  0  0  0  0  0  0  0
   57.7920   26.1550   46.2260 C   0  0  0  0  0  0  0  0  0  0  0  0
   56.8030   25.2480   46.3750 N   0  0  0  0  0  0  0  0  0  0  0  0
   55.6220   25.8210   46.0030 C   0  0  0  0  0  0  0  0  0  0  0  0
   54.4740   25.3120   45.9950 O   0  0  0  0  0  0  0  0  0  0  0  0
   55.8590   27.1030   45.6190 N   0  0  0  0  0  0  0  0  0  0  0  0
   57.1990   27.3410   45.7480 C   0  0  0  0  0  0  0  0  0  0  0  0
   57.9820   28.5540   45.5550 C   0  0  0  0  0  0  0  0  0  0  0  0
   57.1160   29.7520   45.3090 C   0  0  0  0  0  0  0  0  0  0  0  0
   55.9510   29.6960   44.8980 O   0  0  0  0  0  0  0  0  0  0  0  0
   57.7130   31.0110   45.5810 N   0  0  0  0  0  0  0  0  0  0  0  0
   57.0810   32.2900   45.3870 C   0  0  0  0  0  0  0  0  0  0  0  0
   57.9860   33.4190   45.7430 C   0  0  0  0  0  0  0  0  0  0  0  0
   58.3210   33.4570   47.1120 C   0  0  0  0  0  0  0  0  0  0  0  0
   59.1650   34.4160   47.6180 C   0  0  0  0  0  0  0  0  0  0  0  0
   59.6700   35.3410   46.7290 C   0  0  0  0  0  0  0  0  0  0  0  0
   59.3470   35.3170   45.3770 C   0  0  0  0  0  0  0  0  0  0  0  0
   58.4850   34.3370   44.8590 C   0  0  0  0  0  0  0  0  0  0  0  0
   60.7540   29.0590   47.5510 N   0  0  0  0  0  0  0  0  0  0  0  0
   61.8965   31.8996   48.0160 H   0  0  0  0  0  0  0  0  0  0  0  0
   62.2385   30.9511   46.5294 H   0  0  0  0  0  0  0  0  0  0  0  0
   60.9277   32.1793   46.5294 H   0  0  0  0  0  0  0  0  0  0  0  0
   57.7610   29.0630   48.6890 H   0  0  0  0  0  0  0  0  0  0  0  0
   59.8546   26.4889   45.6795 H   0  0  0  0  0  0  0  0  0  0  0  0
   59.5562   24.8806   46.3365 H   0  0  0  0  0  0  0  0  0  0  0  0
   56.9200   24.2540   46.7230 H   0  0  0  0  0  0  0  0  0  0  0  0
   55.1560   27.7790   45.2860 H   0  0  0  0  0  0  0  0  0  0  0  0
   58.5867   28.7328   46.4563 H   0  0  0  0  0  0  0  0  0  0  0  0
   58.6180   28.4087   44.6694 H   0  0  0  0  0  0  0  0  0  0  0  0
   58.6860   31.0160   45.9550 H   0  0  0  0  0  0  0  0  0  0  0  0
   56.7914   32.3865   44.3302 H   0  0  0  0  0  0  0  0  0  0  0  0
   56.2017   32.3382   46.0462 H   0  0  0  0  0  0  0  0  0  0  0  0
   57.8971   32.7019   47.7903 H   0  0  0  0  0  0  0  0  0  0  0  0
   59.4264   34.4445   48.6861 H   0  0  0  0  0  0  0  0  0  0  0  0
   60.3494   36.1221   47.1009 H   0  0  0  0  0  0  0  0  0  0  0  0
   59.7724   36.0760   44.7040 H   0  0  0  0  0  0  0  0  0  0  0  0
   58.2227   34.3084   43.7911 H   0  0  0  0  0  0  0  0  0  0  0  0
  1  2  1  0
  2  3  2  0
  3  4  1  0
  4  5  1  0
  5  6  1  0
  6  7  1  0
  7  8  1  0
  8  9  1  0
  9 10  1  0
 10 11  2  0
 10 12  1  0
 12 13  1  0
 13 14  1  0
 14 15  1  0
 15 16  2  0
 15 17  1  0
 17 18  1  0
 18 19  1  0
 19 20  2  0
 20 21  1  0
 21 22  2  0
 22 23  1  0
 23 24  2  0
  5 25  2  0
 25  2  1  0
 13  8  2  0
 24 19  1  0
  1 26  1  0
  1 27  1  0
  1 28  1  0
  4 29  1  0
  7 30  1  0
  7 31  1  0
  9 32  1  0
 12 33  1  0
 14 34  1  0
 14 35  1  0
 17 36  1  0
 18 37  1  0
 18 38  1  0
 20 39  1  0
 21 40  1  0
 22 41  1  0
 23 42  1  0
 24 43  1  0
M  END
>  <smiles>  (15) 
Cc1n[nH]c(SCc2[nH]c(=O)[nH]c2CC(=O)NCc2ccccc2)n1

>  <score_type>  (15) 
oracle

>  <origin>  (15) 
adg

>  <m_score__min__energy>  (15) 
-8.4199999999999999

>  <m_primary>  (15) 
energy

$$$$
15:0
     RDKit          3D

 38 40  0  0  0  0  0  0  0  0999 V2000
   54.3430   26.2400   46.3900 H   0  0  0  0  0  0  0  0  0  0  0  0
   53.7530   25.9600   45.6170 O   0  0  0  0  0  0  0  0  0  0  0  0
   53.3100   24.6460   45.5040 C   0  0  0  0  0  0  0  0  0  0  0  0
   52.1330   24.2990   44.9540 N   0  0  0  0  0  0  0  0  0  0  0  0
   52.1080   22.9610   45.1260 C   0  0  0  0  0  0  0  0  0  0  0  0
   51.1460   22.2460   44.7430 O   0  0  0  0  0  0  0  0  0  0  0  0
   53.1910   22.4490   45.7500 N   0  0  0  0  0  0  0  0  0  0  0  0
   53.9660   23.5260   45.9680 C   0  0  0  0  0  0  0  0  0  0  0  0
   55.2420   23.4680   46.7040 C   0  0  0  0  0  0  0  0  0  0  0  0
   55.2869   22.8475   47.6112 H   0  0  0  0  0  0  0  0  0  0  0  0
   56.3560   24.1280   46.3340 C   0  0  0  0  0  0  0  0  0  0  0  0
   56.8150   25.3340   46.8460 C   0  0  0  0  0  0  0  0  0  0  0  0
   56.3556   25.9208   47.6551 H   0  0  0  0  0  0  0  0  0  0  0  0
   57.9650   25.6560   46.1400 C   0  0  0  0  0  0  0  0  0  0  0  0
   58.7990   26.8710   46.3260 C   0  0  0  0  0  0  0  0  0  0  0  0
   58.2130   28.0600   46.5870 C   0  0  0  0  0  0  0  0  0  0  0  0
   58.1257   28.3657   47.6401 H   0  0  0  0  0  0  0  0  0  0  0  0
   57.6800   28.9810   45.5580 C   0  0  0  0  0  0  0  0  0  0  0  0
   58.4540   30.0530   45.0790 C   0  0  0  0  0  0  0  0  0  0  0  0
   59.4801   30.1952   45.4489 H   0  0  0  0  0  0  0  0  0  0  0  0
   57.9260   30.9390   44.1350 C   0  0  0  0  0  0  0  0  0  0  0  0
   58.5418   31.7668   43.7536 H   0  0  0  0  0  0  0  0  0  0  0  0
   56.6180   30.7740   43.6760 C   0  0  0  0  0  0  0  0  0  0  0  0
   56.2064   31.4682   42.9285 H   0  0  0  0  0  0  0  0  0  0  0  0
   55.8310   29.7280   44.1650 C   0  0  0  0  0  0  0  0  0  0  0  0
   54.7980   29.6051   43.8074 H   0  0  0  0  0  0  0  0  0  0  0  0
   56.3540   28.8360   45.1090 C   0  0  0  0  0  0  0  0  0  0  0  0
   55.5540   27.8050   45.5890 O   0  0  0  0  0  0  0  0  0  0  0  0
   60.2990   26.7230   46.2440 C   0  0  0  0  0  0  0  0  0  0  0  0
   60.7194   26.6815   47.2596 H   0  0  0  0  0  0  0  0  0  0  0  0
   60.5471   25.7960   45.7063 H   0  0  0  0  0  0  0  0  0  0  0  0
   60.7235   27.5836   45.7063 H   0  0  0  0  0  0  0  0  0  0  0  0
   58.2190   24.7060   45.2170 N   0  0  0  0  0  0  0  0  0  0  0  0
   59.0240   24.6840   44.5510 H   0  0  0  0  0  0  0  0  0  0  0  0
   57.2500   23.7750   45.3220 C   0  0  0  0  0  0  0  0  0  0  0  0
   57.2090   22.6850   44.5480 C   0  0  0  0  0  0  0  0  0  0  0  0
   56.3973   21.9530   44.6715 H   0  0  0  0  0  0  0  0  0  0  0  0
   57.9870   22.5205   43.7880 H   0  0  0  0  0  0  0  0  0  0  0  0
  1  2  1  0
  2  3  1  0
  3  4  1  0
  4  5  1  0
  5  6  2  0
  5  7  1  0
  7  8  1  0
  8  9  1  0
  9 10  1  0
  9 11  2  3
 11 12  1  0
 12 13  1  0
 12 14  2  0
 14 15  1  0
 15 16  2  0
 16 17  1  0
 16 18  1  0
 18 19  2  0
 19 20  1  0
 19 21  1  0
 21 22  1  0
 21 23  2  0
 23 24  1  0
 23 25  1  0
 25 26  1  0
 25 27  2  0
 27 28  1  0
 15 29  1  0
 29 30  1  0
 29 31  1  0
 29 32  1  0
 14 33  1  0
 33 34  1  0
 33 35  1  0
 35 36  2  0
 36 37  1  0
 36 38  1  0
  8  3  2  0
 35 11  1  0
 27 18  1  0
M  CHG  3   4  -1   7  -1  28  -1
M  END
>  <UniqueID>  (16) 
14

>  <SMILES>  (16) 
C=c1[nH]c(/C(C)=C/c2ccccc2[O-])cc1=Cc1[n-]c(=O)[n-]c1O

>  <Energy>  (16) 
111.16270301817022

>  <Genealogy>  (16) 
C=c1[nH]c(C(C)=Cc2ccccc2[O-])cc1=Cc1[n-]c(=O)[n-]c1O (protonated)
C=c1[nH]c(/C(C)=C/c2ccccc2[O-])cc1=Cc1[n-]c(=O)[n-]c1O (cis-trans isomerization)
C=c1[nH]c(/C(C)=C/c2ccccc2[O-])cc1=Cc1[n-]c(=O)[n-]c1O (3D coordinates assigned)
C=c1[nH]c(/C(C)=C/c2ccccc2[O-])cc1=Cc1[n-]c(=O)[n-]c1O (optimized conformer: 111.16270301817022 kcal/mol)

>  <smiles>  (16) 
C=c1[nH]c(C(C)=Cc2ccccc2O)cc1=Cc1[nH]c(=O)[nH]c1O

>  <score_type>  (16) 
oracle

>  <origin>  (16) 
adg

>  <m_score__min__energy>  (16) 
-14.949999999999999

>  <m_primary>  (16) 
energy

$$$$
16:0
     RDKit          3D

 44 46  0  0  0  0  0  0  0  0999 V2000
   57.1840   27.4210   45.3270 C   0  0  0  0  0  0  0  0  0  0  0  0
   57.4200   28.8820   45.0240 C   0  0  0  0  0  0  0  0  0  0  0  0
   58.7260   29.4290   44.9790 C   0  0  0  0  0  0  0  0  0  0  0  0
   59.9640   28.6120   45.2480 C   0  0  0  0  0  0  0  0  0  0  0  0
   60.1220   28.3380   46.7200 C   0  0  0  0  0  0  0  0  0  0  0  0
   59.9180   29.3620   47.6620 C   0  0  0  0  0  0  0  0  0  0  0  0
   60.0690   29.1030   49.0270 C   0  0  0  0  0  0  0  0  0  0  0  0
   60.4190   27.8230   49.4650 C   0  0  0  0  0  0  0  0  0  0  0  0
   60.6160   26.7970   48.5360 C   0  0  0  0  0  0  0  0  0  0  0  0
   60.4650   27.0500   47.1700 C   0  0  0  0  0  0  0  0  0  0  0  0
   58.8830   30.7580   44.7440 N   0  0  0  0  0  0  0  0  0  0  0  0
   57.8220   31.5780   44.5520 C   0  0  0  0  0  0  0  0  0  0  0  0
   58.0790   33.3290   44.2820 S   0  0  0  0  0  0  0  0  0  0  0  0
   57.6220   33.8140   45.9840 C   0  0  0  0  0  0  0  0  0  0  0  0
   58.8060   33.7670   46.9010 C   0  0  0  0  0  0  0  0  0  0  0  0
   58.8880   34.5970   47.8480 O   0  0  0  0  0  0  0  0  0  0  0  0
   59.8080   32.7550   46.7310 N   0  0  0  0  0  0  0  0  0  0  0  0
   61.1210   32.8080   47.3180 C   0  0  0  0  0  0  0  0  0  0  0  0
   62.1330   33.5380   46.6730 C   0  0  0  0  0  0  0  0  0  0  0  0
   63.4090   33.6300   47.2360 C   0  0  0  0  0  0  0  0  0  0  0  0
   63.6830   33.0080   48.4570 C   0  0  0  0  0  0  0  0  0  0  0  0
   64.9520   33.0980   49.0150 O   0  0  0  0  0  0  0  0  0  0  0  0
   62.6770   32.2970   49.1180 C   0  0  0  0  0  0  0  0  0  0  0  0
   61.4010   32.2000   48.5570 C   0  0  0  0  0  0  0  0  0  0  0  0
   56.5630   31.0790   44.5950 N   0  0  0  0  0  0  0  0  0  0  0  0
   56.3370   29.7620   44.8280 C   0  0  0  0  0  0  0  0  0  0  0  0
   55.1490   29.3450   44.8690 O   0  0  0  0  0  0  0  0  0  0  0  0
   57.1599   27.2717   46.4166 H   0  0  0  0  0  0  0  0  0  0  0  0
   56.2235   27.1069   44.8925 H   0  0  0  0  0  0  0  0  0  0  0  0
   57.9968   26.8205   44.8925 H   0  0  0  0  0  0  0  0  0  0  0  0
   59.8872   27.6553   44.7105 H   0  0  0  0  0  0  0  0  0  0  0  0
   60.8401   29.1800   44.9019 H   0  0  0  0  0  0  0  0  0  0  0  0
   59.6386   30.3705   47.3232 H   0  0  0  0  0  0  0  0  0  0  0  0
   59.9119   29.9091   49.7588 H   0  0  0  0  0  0  0  0  0  0  0  0
   60.5394   27.6228   50.5399 H   0  0  0  0  0  0  0  0  0  0  0  0
   60.8903   25.7891   48.8808 H   0  0  0  0  0  0  0  0  0  0  0  0
   60.6151   26.2381   46.4431 H   0  0  0  0  0  0  0  0  0  0  0  0
   57.2210   34.8382   45.9691 H   0  0  0  0  0  0  0  0  0  0  0  0
   56.8672   33.1054   46.3557 H   0  0  0  0  0  0  0  0  0  0  0  0
   59.5520   31.9060   46.1770 H   0  0  0  0  0  0  0  0  0  0  0  0
   61.9198   34.0408   45.7181 H   0  0  0  0  0  0  0  0  0  0  0  0
   64.1988   34.1929   46.7171 H   0  0  0  0  0  0  0  0  0  0  0  0
   62.8906   31.8127   50.0823 H   0  0  0  0  0  0  0  0  0  0  0  0
   60.6113   31.6460   49.0857 H   0  0  0  0  0  0  0  0  0  0  0  0
  1  2  1  0
  2  3  2  0
  3  4  1  0
  4  5  1  0
  5  6  2  0
  6  7  1  0
  7  8  2  0
  8  9  1  0
  9 10  2  0
  3 11  1  0
 11 12  1  0
 12 13  1  0
 13 14  1  0
 14 15  1  0
 15 16  2  0
 15 17  1  0
 17 18  1  0
 18 19  2  0
 19 20  1  0
 20 21  2  0
 21 22  1  0
 21 23  1  0
 23 24  2  0
 12 25  2  0
 25 26  1  0
 26 27  2  0
 26  2  1  0
 10  5  1  0
 24 18  1  0
  1 28  1  0
  1 29  1  0
  1 30  1  0
  4 31  1  0
  4 32  1  0
  6 33  1  0
  7 34  1  0
  8 35  1  0
  9 36  1  0
 10 37  1  0
 14 38  1  0
 14 39  1  0
 17 40  1  0
 19 41  1  0
 20 42  1  0
 23 43  1  0
 24 44  1  0
M  CHG  2  11  -1  22  -1
M  END
>  <UniqueID>  (17) 
15

>  <SMILES>  (17) 
Cc1c(Cc2ccccc2)[n-]c(SCC(=O)Nc2ccc([O-])cc2)nc1=O

>  <Energy>  (17) 
45.49318328165275

>  <Genealogy>  (17) 
Cc1c(Cc2ccccc2)[n-]c(SCC(=O)Nc2ccc([O-])cc2)nc1=O (protonated)
Cc1c(Cc2ccccc2)[n-]c(SCC(=O)Nc2ccc([O-])cc2)nc1=O (3D coordinates assigned)
Cc1c(Cc2ccccc2)[n-]c(SCC(=O)Nc2ccc([O-])cc2)nc1=O (optimized conformer: 45.49318328165275 kcal/mol)

>  <smiles>  (17) 
Cc1c(Cc2ccccc2)[nH]c(SCC(=O)Nc2ccc(O)cc2)nc1=O

>  <score_type>  (17) 
oracle

>  <origin>  (17) 
adg

>  <m_score__min__energy>  (17) 
-12.869999999999999

>  <m_primary>  (17) 
energy

$$$$
17:0
     RDKit          3D

 43 45  0  0  0  0  0  0  0  0999 V2000
   57.7590   31.8930   54.2050 C   0  0  0  0  0  0  0  0  0  0  0  0
   57.3650   31.4720   52.9960 C   0  0  0  0  0  0  0  0  0  0  0  0
   56.1180   30.6750   52.8570 C   0  0  0  0  0  0  0  0  0  0  0  0
   56.0560   29.3670   53.3720 C   0  0  0  0  0  0  0  0  0  0  0  0
   54.8880   28.6110   53.2430 C   0  0  0  0  0  0  0  0  0  0  0  0
   53.7710   29.1490   52.6030 C   0  0  0  0  0  0  0  0  0  0  0  0
   53.8140   30.4510   52.0980 C   0  0  0  0  0  0  0  0  0  0  0  0
   52.2810   31.1930   51.2350 Br  0  0  0  0  0  0  0  0  0  0  0  0
   54.9820   31.2100   52.2220 C   0  0  0  0  0  0  0  0  0  0  0  0
   58.1590   31.8290   51.7890 C   0  0  0  0  0  0  0  0  0  0  0  0
   58.7560   33.0960   51.6850 C   0  0  0  0  0  0  0  0  0  0  0  0
   59.4930   33.4430   50.5500 C   0  0  0  0  0  0  0  0  0  0  0  0
   59.6500   32.5360   49.4990 C   0  0  0  0  0  0  0  0  0  0  0  0
   60.4060   32.9380   48.3870 O   0  0  0  0  0  0  0  0  0  0  0  0
   59.8120   33.8990   47.1010 S   0  0  0  0  0  0  0  0  0  0  0  0
   60.9680   34.5630   46.4060 O   0  0  0  0  0  0  0  0  0  0  0  0
   58.8990   34.9580   47.6540 O   0  0  0  0  0  0  0  0  0  0  0  0
   58.9080   32.8930   45.9770 C   0  0  0  0  0  0  0  0  0  0  0  0
   58.5070   33.4200   44.7430 C   0  0  0  0  0  0  0  0  0  0  0  0
   57.7820   32.6340   43.8440 C   0  0  0  0  0  0  0  0  0  0  0  0
   57.4430   31.3140   44.1720 C   0  0  0  0  0  0  0  0  0  0  0  0
   56.6730   30.4780   43.1940 C   0  0  0  0  0  0  0  0  0  0  0  0
   57.8540   30.7820   45.4060 C   0  0  0  0  0  0  0  0  0  0  0  0
   58.5810   31.5690   46.3040 C   0  0  0  0  0  0  0  0  0  0  0  0
   59.0570   31.2640   49.5970 C   0  0  0  0  0  0  0  0  0  0  0  0
   58.3210   30.9100   50.7330 C   0  0  0  0  0  0  0  0  0  0  0  0
   57.7750   29.6340   50.8110 O   0  0  0  0  0  0  0  0  0  0  0  0
   58.6817   32.4828   54.3083 H   0  0  0  0  0  0  0  0  0  0  0  0
   57.1598   31.6489   55.0946 H   0  0  0  0  0  0  0  0  0  0  0  0
   56.9323   28.9370   53.8792 H   0  0  0  0  0  0  0  0  0  0  0  0
   54.8490   27.5887   53.6472 H   0  0  0  0  0  0  0  0  0  0  0  0
   52.8561   28.5478   52.4960 H   0  0  0  0  0  0  0  0  0  0  0  0
   55.0129   32.2334   51.8199 H   0  0  0  0  0  0  0  0  0  0  0  0
   58.6423   33.8213   52.5042 H   0  0  0  0  0  0  0  0  0  0  0  0
   59.9539   34.4395   50.4832 H   0  0  0  0  0  0  0  0  0  0  0  0
   58.7639   34.4569   44.4806 H   0  0  0  0  0  0  0  0  0  0  0  0
   57.4757   33.0529   42.8741 H   0  0  0  0  0  0  0  0  0  0  0  0
   56.0264   29.7760   43.7410 H   0  0  0  0  0  0  0  0  0  0  0  0
   56.0532   31.1308   42.5618 H   0  0  0  0  0  0  0  0  0  0  0  0
   57.3745   29.9139   42.5618 H   0  0  0  0  0  0  0  0  0  0  0  0
   57.6029   29.7431   45.6662 H   0  0  0  0  0  0  0  0  0  0  0  0
   58.8975   31.1485   47.2699 H   0  0  0  0  0  0  0  0  0  0  0  0
   59.1728   30.5427   48.7747 H   0  0  0  0  0  0  0  0  0  0  0  0
  1  2  2  0
  2  3  1  0
  3  4  2  0
  4  5  1  0
  5  6  2  0
  6  7  1  0
  7  8  1  0
  7  9  2  0
  2 10  1  0
 10 11  2  0
 11 12  1  0
 12 13  2  0
 13 14  1  0
 14 15  1  0
 15 16  2  0
 15 17  2  0
 15 18  1  0
 18 19  2  0
 19 20  1  0
 20 21  2  0
 21 22  1  0
 21 23  1  0
 23 24  2  0
 13 25  1  0
 25 26  2  0
 26 27  1  0
  9  3  1  0
 26 10  1  0
 24 18  1  0
  1 28  1  0
  1 29  1  0
  4 30  1  0
  5 31  1  0
  6 32  1  0
  9 33  1  0
 11 34  1  0
 12 35  1  0
 19 36  1  0
 20 37  1  0
 22 38  1  0
 22 39  1  0
 22 40  1  0
 23 41  1  0
 24 42  1  0
 25 43  1  0
M  CHG  1  27  -1
M  END
>  <UniqueID>  (18) 
16

>  <SMILES>  (18) 
C=C(c1cccc(Br)c1)c1ccc(OS(=O)(=O)c2ccc(C)cc2)cc1[O-]

>  <Energy>  (18) 
54.02391469465784

>  <Genealogy>  (18) 
C=C(c1cccc(Br)c1)c1ccc(OS(=O)(=O)c2ccc(C)cc2)cc1[O-] (protonated)
C=C(c1cccc(Br)c1)c1ccc(OS(=O)(=O)c2ccc(C)cc2)cc1[O-] (3D coordinates assigned)
C=C(c1cccc(Br)c1)c1ccc(OS(=O)(=O)c2ccc(C)cc2)cc1[O-] (optimized conformer: 54.02391469465784 kcal/mol)

>  <smiles>  (18) 
C=C(c1cccc(Br)c1)c1ccc(OS(=O)(=O)c2ccc(C)cc2)cc1O

>  <score_type>  (18) 
oracle

>  <origin>  (18) 
adg

>  <m_score__min__energy>  (18) 
-12.890000000000001

>  <m_primary>  (18) 
energy

$$$$
18:0
     RDKit          3D

 47 50  0  0  0  0  0  0  0  0999 V2000
   65.8520   32.1840   50.5400 C   0  0  0  0  0  0  0  0  0  0  0  0
   65.4700   33.2980   49.7390 O   0  0  0  0  0  0  0  0  0  0  0  0
   64.2140   33.4440   49.1330 C   0  0  0  0  0  0  0  0  0  0  0  0
   63.1450   33.8860   49.9170 C   0  0  0  0  0  0  0  0  0  0  0  0
   61.8730   34.0490   49.3610 C   0  0  0  0  0  0  0  0  0  0  0  0
   61.6460   33.7680   48.0030 C   0  0  0  0  0  0  0  0  0  0  0  0
   60.2910   33.9450   47.4270 C   0  0  0  0  0  0  0  0  0  0  0  0
   59.9360   33.8880   46.0890 C   0  0  0  0  0  0  0  0  0  0  0  0
   58.5800   34.1260   46.1030 C   0  0  0  0  0  0  0  0  0  0  0  0
   57.6740   34.1760   44.9130 C   0  0  0  0  0  0  0  0  0  0  0  0
   56.8070   33.0430   44.8980 O   0  0  0  0  0  0  0  0  0  0  0  0
   57.2250   31.7030   44.8570 C   0  0  0  0  0  0  0  0  0  0  0  0
   56.7690   30.7940   43.8850 C   0  0  0  0  0  0  0  0  0  0  0  0
   57.2140   29.4690   43.8940 C   0  0  0  0  0  0  0  0  0  0  0  0
   58.1290   29.0240   44.8660 C   0  0  0  0  0  0  0  0  0  0  0  0
   58.5880   27.6110   44.8600 C   0  0  0  0  0  0  0  0  0  0  0  0
   59.7550   27.3410   45.2610 O   0  0  0  0  0  0  0  0  0  0  0  0
   57.7090   26.4990   44.3390 C   0  0  0  0  0  0  0  0  0  0  0  0
   57.2470   25.5820   45.4320 C   0  0  0  0  0  0  0  0  0  0  0  0
   58.1240   24.2780   46.0410 S   0  0  0  0  0  0  0  0  0  0  0  0
   56.9530   23.9290   47.1980 C   0  0  0  0  0  0  0  0  0  0  0  0
   57.0330   22.9830   48.0240 O   0  0  0  0  0  0  0  0  0  0  0  0
   55.9080   24.7810   47.1550 N   0  0  0  0  0  0  0  0  0  0  0  0
   56.0750   25.7070   46.1740 C   0  0  0  0  0  0  0  0  0  0  0  0
   55.1360   26.7040   45.9430 O   0  0  0  0  0  0  0  0  0  0  0  0
   58.5800   29.9390   45.8360 C   0  0  0  0  0  0  0  0  0  0  0  0
   58.1330   31.2630   45.8260 C   0  0  0  0  0  0  0  0  0  0  0  0
   58.1870   34.3000   47.3410 O   0  0  0  0  0  0  0  0  0  0  0  0
   59.1890   34.1990   48.1650 N   0  0  0  0  0  0  0  0  0  0  0  0
   62.7230   33.3230   47.2140 C   0  0  0  0  0  0  0  0  0  0  0  0
   63.9940   33.1610   47.7720 C   0  0  0  0  0  0  0  0  0  0  0  0
   65.7612   32.4489   51.6037 H   0  0  0  0  0  0  0  0  0  0  0  0
   65.1953   31.3300   50.3174 H   0  0  0  0  0  0  0  0  0  0  0  0
   66.8945   31.9127   50.3174 H   0  0  0  0  0  0  0  0  0  0  0  0
   63.3062   34.1079   50.9823 H   0  0  0  0  0  0  0  0  0  0  0  0
   61.0429   34.4001   49.9916 H   0  0  0  0  0  0  0  0  0  0  0  0
   60.5842   33.6976   45.2209 H   0  0  0  0  0  0  0  0  0  0  0  0
   57.0695   35.0940   44.9564 H   0  0  0  0  0  0  0  0  0  0  0  0
   58.2860   34.1682   43.9990 H   0  0  0  0  0  0  0  0  0  0  0  0
   56.0588   31.1276   43.1141 H   0  0  0  0  0  0  0  0  0  0  0  0
   56.8447   28.7662   43.1326 H   0  0  0  0  0  0  0  0  0  0  0  0
   56.8277   26.9426   43.8527 H   0  0  0  0  0  0  0  0  0  0  0  0
   58.3022   25.9049   43.6283 H   0  0  0  0  0  0  0  0  0  0  0  0
   59.2903   29.6090   46.6084 H   0  0  0  0  0  0  0  0  0  0  0  0
   58.4990   31.9667   46.5882 H   0  0  0  0  0  0  0  0  0  0  0  0
   62.5630   33.1007   46.1486 H   0  0  0  0  0  0  0  0  0  0  0  0
   64.8266   32.8106   47.1444 H   0  0  0  0  0  0  0  0  0  0  0  0
  1  2  1  0
  2  3  1  0
  3  4  2  0
  4  5  1  0
  5  6  2  0
  6  7  1  0
  7  8  1  0
  8  9  2  0
  9 10  1  0
 10 11  1  0
 11 12  1  0
 12 13  2  0
 13 14  1  0
 14 15  2  0
 15 16  1  0
 16 17  2  0
 16 18  1  0
 18 19  1  0
 19 20  1  0
 20 21  1  0
 21 22  2  0
 21 23  1  0
 23 24  1  0
 24 25  1  0
 15 26  1  0
 26 27  2  0
  9 28  1  0
 28 29  1  0
  6 30  1  0
 30 31  2  0
 31  3  1  0
 29  7  2  0
 27 12  1  0
 24 19  2  0
  1 32  1  0
  1 33  1  0
  1 34  1  0
  4 35  1  0
  5 36  1  0
  8 37  1  0
 10 38  1  0
 10 39  1  0
 13 40  1  0
 14 41  1  0
 18 42  1  0
 18 43  1  0
 26 44  1  0
 27 45  1  0
 30 46  1  0
 31 47  1  0
M  CHG  2  23  -1  25  -1
M  END
>  <UniqueID>  (19) 
17

>  <SMILES>  (19) 
COc1ccc(-c2cc(COc3ccc(C(=O)Cc4sc(=O)[n-]c4[O-])cc3)on2)cc1

>  <Energy>  (19) 
114.1917522970801

>  <Genealogy>  (19) 
COc1ccc(-c2cc(COc3ccc(C(=O)Cc4sc(=O)[n-]c4[O-])cc3)on2)cc1 (protonated)
COc1ccc(-c2cc(COc3ccc(C(=O)Cc4sc(=O)[n-]c4[O-])cc3)on2)cc1 (3D coordinates assigned)
COc1ccc(-c2cc(COc3ccc(C(=O)Cc4sc(=O)[n-]c4[O-])cc3)on2)cc1 (optimized conformer: 114.1917522970801 kcal/mol)

>  <smiles>  (19) 
COc1ccc(-c2cc(COc3ccc(C(=O)Cc4sc(=O)[nH]c4O)cc3)on2)cc1

>  <score_type>  (19) 
oracle

>  <origin>  (19) 
adg

>  <m_score__min__energy>  (19) 
-15.109999999999999

>  <m_primary>  (19) 
energy

$$$$
19:0
     RDKit          3D

 65 69  0  0  0  0  0  0  0  0999 V2000
   68.3710   26.5750   49.7480 C   0  0  0  0  0  0  0  0  0  0  0  0
   68.8820   27.3950   50.9290 C   0  0  0  0  0  0  0  0  0  0  0  0
   68.1210   28.5930   51.0810 O   0  0  0  0  0  0  0  0  0  0  0  0
   66.7430   28.6040   51.3380 C   0  0  0  0  0  0  0  0  0  0  0  0
   66.0800   27.5310   51.2660 O   0  0  0  0  0  0  0  0  0  0  0  0
   66.0810   29.8430   51.6640 N   0  0  0  0  0  0  0  0  0  0  0  0
   66.8330   31.0990   51.5550 C   0  0  0  0  0  0  0  0  0  0  0  0
   66.2300   32.2030   52.4460 C   0  0  0  0  0  0  0  0  0  0  0  0
   64.7520   32.2890   52.3920 N   0  0  0  0  0  0  0  0  0  0  0  0
   64.2510   32.9170   51.1780 C   0  0  0  0  0  0  0  0  0  0  0  0
   64.7260   34.0260   50.8040 O   0  0  0  0  0  0  0  0  0  0  0  0
   63.2230   32.2590   50.3140 C   0  0  0  0  0  0  0  0  0  0  0  0
   63.5120   31.8360   49.0000 C   0  0  0  0  0  0  0  0  0  0  0  0
   62.5310   31.2180   48.2190 C   0  0  0  0  0  0  0  0  0  0  0  0
   61.2400   31.0200   48.7250 C   0  0  0  0  0  0  0  0  0  0  0  0
   60.2450   30.3430   47.9370 N   0  0  0  0  0  0  0  0  0  0  0  0
   59.3790   30.8970   47.0650 C   0  0  0  0  0  0  0  0  0  0  0  0
   59.3750   32.3250   46.7030 C   0  0  0  0  0  0  0  0  0  0  0  0
   60.5790   32.9890   46.4250 C   0  0  0  0  0  0  0  0  0  0  0  0
   60.5690   34.3490   46.0940 C   0  0  0  0  0  0  0  0  0  0  0  0
   59.3580   35.0430   46.0260 C   0  0  0  0  0  0  0  0  0  0  0  0
   58.1550   34.3810   46.2900 C   0  0  0  0  0  0  0  0  0  0  0  0
   58.1620   33.0250   46.6320 C   0  0  0  0  0  0  0  0  0  0  0  0
   58.7530   29.8680   46.3680 C   0  0  0  0  0  0  0  0  0  0  0  0
   57.8340   29.9920   45.2140 C   0  0  0  0  0  0  0  0  0  0  0  0
   58.1320   30.8340   44.1290 C   0  0  0  0  0  0  0  0  0  0  0  0
   57.2650   30.9110   43.0360 C   0  0  0  0  0  0  0  0  0  0  0  0
   56.0890   30.1580   43.0200 C   0  0  0  0  0  0  0  0  0  0  0  0
   55.7710   29.3360   44.1030 C   0  0  0  0  0  0  0  0  0  0  0  0
   56.6350   29.2570   45.1970 C   0  0  0  0  0  0  0  0  0  0  0  0
   59.2180   28.6790   46.8120 N   0  0  0  0  0  0  0  0  0  0  0  0
   60.1170   29.0120   47.7590 C   0  0  0  0  0  0  0  0  0  0  0  0
   60.7820   28.1540   48.4000 O   0  0  0  0  0  0  0  0  0  0  0  0
   60.9370   31.4550   50.0200 C   0  0  0  0  0  0  0  0  0  0  0  0
   61.9170   32.0670   50.8080 C   0  0  0  0  0  0  0  0  0  0  0  0
   64.1180   30.9780   52.6270 C   0  0  0  0  0  0  0  0  0  0  0  0
   64.6160   29.9030   51.6560 C   0  0  0  0  0  0  0  0  0  0  0  0
   67.8237   25.6967   50.1209 H   0  0  0  0  0  0  0  0  0  0  0  0
   67.6982   27.1936   49.1359 H   0  0  0  0  0  0  0  0  0  0  0  0
   69.2227   26.2436   49.1359 H   0  0  0  0  0  0  0  0  0  0  0  0
   68.7983   26.7955   51.8475 H   0  0  0  0  0  0  0  0  0  0  0  0
   69.9319   27.6653   50.7428 H   0  0  0  0  0  0  0  0  0  0  0  0
   67.8733   30.9197   51.8642 H   0  0  0  0  0  0  0  0  0  0  0  0
   66.7856   31.4377   50.5095 H   0  0  0  0  0  0  0  0  0  0  0  0
   66.5260   32.0059   53.4869 H   0  0  0  0  0  0  0  0  0  0  0  0
   66.6159   33.1606   52.0664 H   0  0  0  0  0  0  0  0  0  0  0  0
   64.4950   32.9060   53.1970 H   0  0  0  0  0  0  0  0  0  0  0  0
   64.5187   31.9938   48.5858 H   0  0  0  0  0  0  0  0  0  0  0  0
   62.7748   30.8847   47.1994 H   0  0  0  0  0  0  0  0  0  0  0  0
   61.5316   32.4406   46.4671 H   0  0  0  0  0  0  0  0  0  0  0  0
   61.5146   34.8716   45.8874 H   0  0  0  0  0  0  0  0  0  0  0  0
   59.3511   36.1114   45.7645 H   0  0  0  0  0  0  0  0  0  0  0  0
   57.2022   34.9273   46.2286 H   0  0  0  0  0  0  0  0  0  0  0  0
   57.2153   32.5071   46.8455 H   0  0  0  0  0  0  0  0  0  0  0  0
   59.0528   31.4357   44.1403 H   0  0  0  0  0  0  0  0  0  0  0  0
   57.5092   31.5659   42.1866 H   0  0  0  0  0  0  0  0  0  0  0  0
   55.4130   30.2125   42.1539 H   0  0  0  0  0  0  0  0  0  0  0  0
   54.8397   28.7506   44.0943 H   0  0  0  0  0  0  0  0  0  0  0  0
   56.3760   28.6151   46.0519 H   0  0  0  0  0  0  0  0  0  0  0  0
   59.9221   31.3148   50.4205 H   0  0  0  0  0  0  0  0  0  0  0  0
   61.6657   32.4024   51.8250 H   0  0  0  0  0  0  0  0  0  0  0  0
   64.3429   30.6566   53.6547 H   0  0  0  0  0  0  0  0  0  0  0  0
   63.0360   31.0967   52.4679 H   0  0  0  0  0  0  0  0  0  0  0  0
   64.2120   28.9259   51.9594 H   0  0  0  0  0  0  0  0  0  0  0  0
   64.2757   30.1553   50.6408 H   0  0  0  0  0  0  0  0  0  0  0  0
  1  2  1  0
  2  3  1  0
  3  4  1  0
  4  5  2  0
  4  6  1  0
  6  7  1  0
  7  8  1  0
  8  9  1  0
  9 10  1  0
 10 11  2  0
 10 12  1  0
 12 13  2  0
 13 14  1  0
 14 15  2  0
 15 16  1  0
 16 17  1  0
 17 18  1  0
 18 19  2  0
 19 20  1  0
 20 21  2  0
 21 22  1  0
 22 23  2  0
 17 24  2  0
 24 25  1  0
 25 26  2  0
 26 27  1  0
 27 28  2  0
 28 29  1  0
 29 30  2  0
 24 31  1  0
 31 32  1  0
 32 33  2  0
 15 34  1  0
 34 35  2  0
  9 36  1  0
 36 37  1  0
 37  6  1  0
 35 12  1  0
 32 16  1  0
 23 18  1  0
 30 25  1  0
  1 38  1  0
  1 39  1  0
  1 40  1  0
  2 41  1  0
  2 42  1  0
  7 43  1  0
  7 44  1  0
  8 45  1  0
  8 46  1  0
  9 47  1  0
 13 48  1  0
 14 49  1  0
 19 50  1  0
 20 51  1  0
 21 52  1  0
 22 53  1  0
 23 54  1  0
 26 55  1  0
 27 56  1  0
 28 57  1  0
 29 58  1  0
 30 59  1  0
 34 60  1  0
 35 61  1  0
 36 62  1  0
 36 63  1  0
 37 64  1  0
 37 65  1  0
M  CHG  2   9   1  31  -1
M  END
>  <UniqueID>  (20) 
18

>  <SMILES>  (20) 
CCOC(=O)N1CC[NH+](C(=O)c2ccc(-n3c(-c4ccccc4)c(-c4ccccc4)[n-]c3=O)cc2)CC1

>  <Energy>  (20) 
123.39687416193567

>  <Genealogy>  (20) 
CCOC(=O)N1CC[NH+](C(=O)c2ccc(-n3c(-c4ccccc4)c(-c4ccccc4)[n-]c3=O)cc2)CC1 (protonated)
CCOC(=O)N1CC[NH+](C(=O)c2ccc(-n3c(-c4ccccc4)c(-c4ccccc4)[n-]c3=O)cc2)CC1 (3D coordinates assigned)
CCOC(=O)N1CC[NH+](C(=O)c2ccc(-n3c(-c4ccccc4)c(-c4ccccc4)[n-]c3=O)cc2)CC1 (nonaromatic ring conformer: 123.39687416193567 kcal/mol)

>  <smiles>  (20) 
CCOC(=O)N1CCN(C(=O)c2ccc(-n3c(-c4ccccc4)c(-c4ccccc4)[nH]c3=O)cc2)CC1

>  <score_type>  (20) 
oracle

>  <origin>  (20) 
adg

>  <m_score__min__energy>  (20) 
-8.8800000000000008

>  <m_primary>  (20) 
energy

$$$$
20:0
     RDKit          3D

 48 50  0  0  0  0  0  0  0  0999 V2000
   55.2620   29.5980   44.9630 N   0  0  0  0  0  0  0  0  0  0  0  0
   56.4440   29.5490   44.1080 C   0  0  0  0  0  0  0  0  0  0  0  0
   56.7830   30.9510   43.5960 C   0  0  0  0  0  0  0  0  0  0  0  0
   57.7580   31.6310   44.5180 C   0  0  0  0  0  0  0  0  0  0  0  0
   58.5820   30.8700   45.3630 C   0  0  0  0  0  0  0  0  0  0  0  0
   59.4630   31.5020   46.2450 C   0  0  0  0  0  0  0  0  0  0  0  0
   59.5260   32.9020   46.2970 C   0  0  0  0  0  0  0  0  0  0  0  0
   60.6110   33.7080   47.4280 S   0  0  0  0  0  0  0  0  0  0  0  0
   61.8300   34.1910   46.6950 O   0  0  0  0  0  0  0  0  0  0  0  0
   59.8980   34.9060   47.9950 O   0  0  0  0  0  0  0  0  0  0  0  0
   61.0370   32.6140   48.7310 N   0  0  1  0  0  0  0  0  0  0  0  0
   61.9220   31.5160   48.2970 C   0  0  0  0  0  0  0  0  0  0  0  0
   63.3500   31.9790   47.9770 C   0  0  0  0  0  0  0  0  0  0  0  0
   63.9850   32.8700   49.0630 C   0  0  2  0  0  0  0  0  0  0  0  0
   64.7760   32.0780   50.0450 N   0  0  0  0  0  0  0  0  0  0  0  0
   64.1650   31.1410   50.8370 C   0  0  0  0  0  0  0  0  0  0  0  0
   64.8960   30.3860   51.7530 C   0  0  0  0  0  0  0  0  0  0  0  0
   66.2660   30.5960   51.8450 C   0  0  0  0  0  0  0  0  0  0  0  0
   67.1710   29.7380   52.9010 S   0  0  0  0  0  0  0  0  0  0  0  0
   66.8560   31.5170   51.0470 N   0  0  0  0  0  0  0  0  0  0  0  0
   66.1380   32.2500   50.1560 C   0  0  0  0  0  0  0  0  0  0  0  0
   66.7500   33.0860   49.4360 O   0  0  0  0  0  0  0  0  0  0  0  0
   62.9960   33.8500   49.7420 C   0  0  0  0  0  0  0  0  0  0  0  0
   61.5580   33.3240   49.9140 C   0  0  0  0  0  0  0  0  0  0  0  0
   58.6910   33.6630   45.4690 C   0  0  0  0  0  0  0  0  0  0  0  0
   57.8100   33.0320   44.5870 C   0  0  0  0  0  0  0  0  0  0  0  0
   55.5890   29.7130   45.9500 H   0  0  0  0  0  0  0  0  0  0  0  0
   54.7230   30.4630   44.7270 H   0  0  0  0  0  0  0  0  0  0  0  0
   57.2944   29.1573   44.6854 H   0  0  0  0  0  0  0  0  0  0  0  0
   56.2396   28.8925   43.2494 H   0  0  0  0  0  0  0  0  0  0  0  0
   57.2288   30.8716   42.5935 H   0  0  0  0  0  0  0  0  0  0  0  0
   55.8590   31.5465   43.5559 H   0  0  0  0  0  0  0  0  0  0  0  0
   58.5339   29.7715   45.3306 H   0  0  0  0  0  0  0  0  0  0  0  0
   60.1090   30.8994   46.9004 H   0  0  0  0  0  0  0  0  0  0  0  0
   60.1340   32.1700   49.0230 H   0  0  0  0  0  0  0  0  0  0  0  0
   61.4928   31.0576   47.3939 H   0  0  0  0  0  0  0  0  0  0  0  0
   61.9897   30.8023   49.1313 H   0  0  0  0  0  0  0  0  0  0  0  0
   63.3253   32.5475   47.0356 H   0  0  0  0  0  0  0  0  0  0  0  0
   63.9687   31.0718   47.9116 H   0  0  0  0  0  0  0  0  0  0  0  0
   64.6923   33.5201   48.5271 H   0  0  0  0  0  0  0  0  0  0  0  0
   63.0801   30.9821   50.7484 H   0  0  0  0  0  0  0  0  0  0  0  0
   64.3983   29.6396   52.3896 H   0  0  0  0  0  0  0  0  0  0  0  0
   62.9522   34.7646   49.1324 H   0  0  0  0  0  0  0  0  0  0  0  0
   63.3823   34.0145   50.7587 H   0  0  0  0  0  0  0  0  0  0  0  0
   60.8988   34.1794   50.1230 H   0  0  0  0  0  0  0  0  0  0  0  0
   61.5800   32.5970   50.7393 H   0  0  0  0  0  0  0  0  0  0  0  0
   58.7290   34.7614   45.5133 H   0  0  0  0  0  0  0  0  0  0  0  0
   57.1538   33.6363   43.9434 H   0  0  0  0  0  0  0  0  0  0  0  0
  1  2  1  0
  2  3  1  0
  3  4  1  0
  4  5  2  0
  5  6  1  0
  6  7  2  0
  7  8  1  0
  8  9  2  0
  8 10  2  0
  8 11  1  0
 11 12  1  0
 12 13  1  0
 13 14  1  0
 14 15  1  0
 15 16  1  0
 16 17  2  0
 17 18  1  0
 18 19  2  0
 18 20  1  0
 20 21  1  0
 21 22  2  0
 14 23  1  0
 23 24  1  0
  7 25  1  0
 25 26  2  0
 26  4  1  0
 24 11  1  0
 21 15  1  0
  1 27  1  0
  1 28  1  0
  2 29  1  0
  2 30  1  0
  3 31  1  0
  3 32  1  0
  5 33  1  0
  6 34  1  0
 11 35  1  1
 12 36  1  0
 12 37  1  0
 13 38  1  0
 13 39  1  0
 14 40  1  6
 16 41  1  0
 17 42  1  0
 23 43  1  0
 23 44  1  0
 24 45  1  0
 24 46  1  0
 25 47  1  0
 26 48  1  0
M  CHG  2  11   1  20  -1
M  END
>  <UniqueID>  (21) 
19

>  <SMILES>  (21) 
NCCc1ccc(S(=O)(=O)[NH+]2CCC(n3ccc(=S)[n-]c3=O)CC2)cc1

>  <Energy>  (21) 
56.50492159335906

>  <Genealogy>  (21) 
NCCc1ccc(S(=O)(=O)[NH+]2CCC(n3ccc(=S)[n-]c3=O)CC2)cc1 (protonated)
NCCc1ccc(S(=O)(=O)[NH+]2CCC(n3ccc(=S)[n-]c3=O)CC2)cc1 (3D coordinates assigned)
NCCc1ccc(S(=O)(=O)[NH+]2CCC(n3ccc(=S)[n-]c3=O)CC2)cc1 (nonaromatic ring conformer: 56.50492159335906 kcal/mol)

>  <smiles>  (21) 
NCCc1ccc(S(=O)(=O)N2CCC(n3ccc(=S)[nH]c3=O)CC2)cc1

>  <score_type>  (21) 
oracle

>  <origin>  (21) 
adg

>  <m_score__min__energy>  (21) 
-9.6699999999999999

>  <m_primary>  (21) 
energy

$$$$
21:0
     RDKit          3D

 47 49  0  0  0  0  0  0  0  0999 V2000
   58.3945   32.6443   42.9529 H   0  0  0  0  0  0  0  0  0  0  0  0
   57.7220   32.4200   43.7940 C   0  0  0  0  0  0  0  0  0  0  0  0
   57.5940   33.4060   44.8900 C   0  0  0  0  0  0  0  0  0  0  0  0
   56.6490   34.2400   44.8690 O   0  0  0  0  0  0  0  0  0  0  0  0
   58.5590   33.4300   46.0150 C   0  0  0  0  0  0  0  0  0  0  0  0
   58.7270   32.4490   46.9810 C   0  0  0  0  0  0  0  0  0  0  0  0
   58.1804   31.4972   47.0535 H   0  0  0  0  0  0  0  0  0  0  0  0
   59.7170   32.9020   47.8360 C   0  0  0  0  0  0  0  0  0  0  0  0
   60.1930   32.1800   49.0350 C   0  0  0  0  0  0  0  0  0  0  0  0
   59.3360   31.7390   49.8520 O   0  0  0  0  0  0  0  0  0  0  0  0
   61.6090   32.0490   49.3250 N   0  0  0  0  0  0  0  0  0  0  0  0
   61.7180   31.3730   50.1170 H   0  0  0  0  0  0  0  0  0  0  0  0
   62.3290   31.4790   48.1510 C   0  0  0  0  0  0  0  0  0  0  0  0
   63.0388   30.7188   48.5092 H   0  0  0  0  0  0  0  0  0  0  0  0
   61.5742   31.0473   47.4772 H   0  0  0  0  0  0  0  0  0  0  0  0
   63.1050   32.5390   47.3570 C   0  0  0  0  0  0  0  0  0  0  0  0
   63.6191   32.0522   46.5151 H   0  0  0  0  0  0  0  0  0  0  0  0
   62.3921   33.2927   46.9912 H   0  0  0  0  0  0  0  0  0  0  0  0
   64.1470   33.2420   48.2430 C   0  0  0  0  0  0  0  0  0  0  0  0
   65.0855   32.6696   48.2038 H   0  0  0  0  0  0  0  0  0  0  0  0
   64.2764   34.2636   47.8561 H   0  0  0  0  0  0  0  0  0  0  0  0
   63.7000   33.3550   49.7130 C   0  0  0  0  0  0  0  0  0  0  0  0
   64.1138   32.5089   50.2812 H   0  0  0  0  0  0  0  0  0  0  0  0
   64.0684   34.3083   50.1197 H   0  0  0  0  0  0  0  0  0  0  0  0
   62.1710   33.3340   49.8240 C   0  0  0  0  0  0  0  0  0  0  0  0
   61.8867   33.4637   50.8787 H   0  0  0  0  0  0  0  0  0  0  0  0
   61.7674   34.1513   49.2083 H   0  0  0  0  0  0  0  0  0  0  0  0
   60.1530   34.1160   47.4420 N   0  0  0  0  0  0  0  0  0  0  0  0
   60.8660   34.7150   47.9140 H   0  0  0  0  0  0  0  0  0  0  0  0
   59.4580   34.4430   46.3360 C   0  0  0  0  0  0  0  0  0  0  0  0
   59.6460   35.7360   45.6030 C   0  0  0  0  0  0  0  0  0  0  0  0
   59.7650   36.5546   46.3281 H   0  0  0  0  0  0  0  0  0  0  0  0
   60.5443   35.6722   44.9714 H   0  0  0  0  0  0  0  0  0  0  0  0
   58.7667   35.9306   44.9714 H   0  0  0  0  0  0  0  0  0  0  0  0
   57.0460   31.2630   43.7920 C   0  0  0  0  0  0  0  0  0  0  0  0
   56.0808   31.2204   43.2661 H   0  0  0  0  0  0  0  0  0  0  0  0
   57.5380   30.0390   44.4650 C   0  0  0  0  0  0  0  0  0  0  0  0
   58.9240   29.8200   44.5270 C   0  0  0  0  0  0  0  0  0  0  0  0
   59.6128   30.5545   44.0842 H   0  0  0  0  0  0  0  0  0  0  0  0
   59.4350   28.6760   45.1470 C   0  0  0  0  0  0  0  0  0  0  0  0
   60.5225   28.5196   45.2007 H   0  0  0  0  0  0  0  0  0  0  0  0
   58.5670   27.7320   45.6980 C   0  0  0  0  0  0  0  0  0  0  0  0
   58.9709   26.8366   46.1930 H   0  0  0  0  0  0  0  0  0  0  0  0
   57.1860   27.9240   45.6210 C   0  0  0  0  0  0  0  0  0  0  0  0
   56.5041   27.1743   46.0488 H   0  0  0  0  0  0  0  0  0  0  0  0
   56.6660   29.0660   45.0020 C   0  0  0  0  0  0  0  0  0  0  0  0
   55.3190   29.1860   44.8860 F   0  0  0  0  0  0  0  0  0  0  0  0
  1  2  1  0
  2  3  1  0
  3  4  2  0
  3  5  1  0
  5  6  1  0
  6  7  1  0
  6  8  2  0
  8  9  1  0
  9 10  2  0
  9 11  1  0
 11 12  1  0
 11 13  1  0
 13 14  1  0
 13 15  1  0
 13 16  1  0
 16 17  1  0
 16 18  1  0
 16 19  1  0
 19 20  1  0
 19 21  1  0
 19 22  1  0
 22 23  1  0
 22 24  1  0
 22 25  1  0
 25 26  1  0
 25 27  1  0
  8 28  1  0
 28 29  1  0
 28 30  1  0
 30 31  1  0
 31 32  1  0
 31 33  1  0
 31 34  1  0
  2 35  2  0
 35 36  1  0
 35 37  1  0
 37 38  2  0
 38 39  1  0
 38 40  1  0
 40 41  1  0
 40 42  2  0
 42 43  1  0
 42 44  1  0
 44 45  1  0
 44 46  2  0
 46 47  1  0
 30  5  2  0
 46 37  1  0
 25 11  1  0
M  CHG  1  11   1
M  END
>  <UniqueID>  (22) 
20

>  <SMILES>  (22) 
Cc1[nH]c(C(=O)[NH+]2CCCCC2)cc1C(=O)/C=C/c1ccccc1F

>  <Energy>  (22) 
86.97309890101035

>  <Genealogy>  (22) 
Cc1[nH]c(C(=O)[NH+]2CCCCC2)cc1C(=O)C=Cc1ccccc1F (protonated)
Cc1[nH]c(C(=O)[NH+]2CCCCC2)cc1C(=O)/C=C/c1ccccc1F (cis-trans isomerization)
Cc1[nH]c(C(=O)[NH+]2CCCCC2)cc1C(=O)/C=C/c1ccccc1F (3D coordinates assigned)
Cc1[nH]c(C(=O)[NH+]2CCCCC2)cc1C(=O)/C=C/c1ccccc1F (nonaromatic ring conformer: 86.97309890101035 kcal/mol)

>  <smiles>  (22) 
Cc1[nH]c(C(=O)N2CCCCC2)cc1C(=O)C=Cc1ccccc1F

>  <score_type>  (22) 
oracle

>  <origin>  (22) 
adg

>  <m_score__min__energy>  (22) 
-7.5899999999999999

>  <m_primary>  (22) 
energy

$$$$
22:0
     RDKit          3D

 75 78  0  0  0  0  0  0  0  0999 V2000
   65.3210   30.7840   51.6100 C   0  0  0  0  0  0  0  0  0  0  0  0
   64.1500   30.3580   52.2940 O   0  0  0  0  0  0  0  0  0  0  0  0
   62.8950   30.9190   52.0380 C   0  0  0  0  0  0  0  0  0  0  0  0
   62.5910   32.2390   52.4210 C   0  0  0  0  0  0  0  0  0  0  0  0
   63.5910   33.1340   52.9300 N   0  0  0  0  0  0  0  0  0  0  0  0
   64.1250   34.2690   52.2310 C   0  0  0  0  0  0  0  0  0  0  0  0
   64.2600   35.3560   52.8480 O   0  0  0  0  0  0  0  0  0  0  0  0
   64.5300   34.1940   50.8570 N   0  0  0  0  0  0  0  0  0  0  0  0
   63.7060   33.7410   49.7770 C   0  0  0  0  0  0  0  0  0  0  0  0
   64.1740   32.7260   48.9400 C   0  0  0  0  0  0  0  0  0  0  0  0
   63.3620   32.2230   47.9230 C   0  0  0  0  0  0  0  0  0  0  0  0
   62.0710   32.7280   47.7180 C   0  0  0  0  0  0  0  0  0  0  0  0
   61.2970   32.1160   46.7170 O   0  0  0  0  0  0  0  0  0  0  0  0
   60.2250   31.2440   46.9250 C   0  0  0  0  0  0  0  0  0  0  0  0
   60.2520   30.3860   48.0290 C   0  0  0  0  0  0  0  0  0  0  0  0
   59.2190   29.4660   48.2070 C   0  0  0  0  0  0  0  0  0  0  0  0
   58.1940   29.4110   47.3140 N   0  0  0  0  0  0  0  0  0  0  0  0
   58.1450   30.2260   46.2210 C   0  0  0  0  0  0  0  0  0  0  0  0
   57.1500   30.1710   45.3850 N   0  0  0  0  0  0  0  0  0  0  0  0
   56.4430   28.9780   45.0160 C   0  0  0  0  0  0  0  0  0  0  0  0
   55.2880   29.0520   44.5290 O   0  0  0  0  0  0  0  0  0  0  0  0
   57.0180   27.6540   45.3320 C   0  0  0  0  0  0  0  0  0  0  0  0
   56.2230   26.7280   46.0280 C   0  0  0  0  0  0  0  0  0  0  0  0
   56.7260   25.4660   46.3560 C   0  0  0  0  0  0  0  0  0  0  0  0
   58.0180   25.1070   45.9700 C   0  0  0  0  0  0  0  0  0  0  0  0
   58.8180   26.0100   45.2630 C   0  0  0  0  0  0  0  0  0  0  0  0
   58.3300   27.2880   44.9350 C   0  0  0  0  0  0  0  0  0  0  0  0
   59.2010   28.2190   44.1300 C   0  0  0  0  0  0  0  0  0  0  0  0
   59.1690   31.1580   46.0070 C   0  0  0  0  0  0  0  0  0  0  0  0
   61.6160   33.7890   48.5300 C   0  0  0  0  0  0  0  0  0  0  0  0
   60.4000   34.3550   48.3630 F   0  0  0  0  0  0  0  0  0  0  0  0
   62.4390   34.2960   49.5400 C   0  0  0  0  0  0  0  0  0  0  0  0
   61.2920   32.7260   52.2510 C   0  0  0  0  0  0  0  0  0  0  0  0
   60.2880   31.9530   51.6280 C   0  0  0  0  0  0  0  0  0  0  0  0
   58.8810   32.5550   51.4210 C   0  0  0  0  0  0  0  0  0  0  0  0
   58.7360   33.9830   52.0000 C   0  0  0  0  0  0  0  0  0  0  0  0
   57.8340   31.6610   52.1150 C   0  0  0  0  0  0  0  0  0  0  0  0
   58.5670   32.6350   49.9110 C   0  0  0  0  0  0  0  0  0  0  0  0
   60.6400   30.6600   51.1740 C   0  0  0  0  0  0  0  0  0  0  0  0
   61.9290   30.1410   51.3880 C   0  0  0  0  0  0  0  0  0  0  0  0
   62.2900   28.8180   50.9660 N   0  0  0  0  0  0  0  0  0  0  0  0
   61.2510   27.4330   51.0010 S   0  0  0  0  0  0  0  0  0  0  0  0
   62.1680   26.0480   51.6440 C   0  0  0  0  0  0  0  0  0  0  0  0
   60.0780   27.6960   51.9030 O   0  0  0  0  0  0  0  0  0  0  0  0
   60.7680   27.1110   49.6110 O   0  0  0  0  0  0  0  0  0  0  0  0
   66.0920   31.0645   52.3427 H   0  0  0  0  0  0  0  0  0  0  0  0
   65.6956   29.9646   50.9790 H   0  0  0  0  0  0  0  0  0  0  0  0
   65.0815   31.6526   50.9790 H   0  0  0  0  0  0  0  0  0  0  0  0
   65.1868   32.3214   49.0830 H   0  0  0  0  0  0  0  0  0  0  0  0
   63.7401   31.4196   47.2737 H   0  0  0  0  0  0  0  0  0  0  0  0
   61.0807   30.4363   48.7506 H   0  0  0  0  0  0  0  0  0  0  0  0
   59.2330   28.7843   49.0701 H   0  0  0  0  0  0  0  0  0  0  0  0
   55.1967   26.9984   46.3170 H   0  0  0  0  0  0  0  0  0  0  0  0
   56.1030   24.7553   46.9188 H   0  0  0  0  0  0  0  0  0  0  0  0
   58.4085   24.1102   46.2228 H   0  0  0  0  0  0  0  0  0  0  0  0
   59.8351   25.7193   44.9615 H   0  0  0  0  0  0  0  0  0  0  0  0
   59.7911   28.8497   44.8112 H   0  0  0  0  0  0  0  0  0  0  0  0
   59.8795   27.6296   43.4958 H   0  0  0  0  0  0  0  0  0  0  0  0
   58.5678   28.8568   43.4958 H   0  0  0  0  0  0  0  0  0  0  0  0
   59.1446   31.8166   45.1263 H   0  0  0  0  0  0  0  0  0  0  0  0
   62.0899   35.1385   50.1552 H   0  0  0  0  0  0  0  0  0  0  0  0
   61.0459   33.7358   52.6112 H   0  0  0  0  0  0  0  0  0  0  0  0
   58.7408   33.9353   53.0990 H   0  0  0  0  0  0  0  0  0  0  0  0
   59.5756   34.6050   51.6563 H   0  0  0  0  0  0  0  0  0  0  0  0
   57.7885   34.4236   51.6563 H   0  0  0  0  0  0  0  0  0  0  0  0
   57.9400   31.7515   53.2061 H   0  0  0  0  0  0  0  0  0  0  0  0
   56.8243   31.9798   51.8170 H   0  0  0  0  0  0  0  0  0  0  0  0
   57.9907   30.6138   51.8170 H   0  0  0  0  0  0  0  0  0  0  0  0
   57.5098   32.9043   49.7701 H   0  0  0  0  0  0  0  0  0  0  0  0
   59.2055   33.3992   49.4437 H   0  0  0  0  0  0  0  0  0  0  0  0
   58.7620   31.6585   49.4437 H   0  0  0  0  0  0  0  0  0  0  0  0
   59.8926   30.0506   50.6447 H   0  0  0  0  0  0  0  0  0  0  0  0
   62.1501   26.0751   52.7435 H   0  0  0  0  0  0  0  0  0  0  0  0
   61.7112   25.1110   51.2928 H   0  0  0  0  0  0  0  0  0  0  0  0
   63.2090   26.1026   51.2928 H   0  0  0  0  0  0  0  0  0  0  0  0
  1  2  1  0
  2  3  1  0
  3  4  2  0
  4  5  1  0
  5  6  1  0
  6  7  2  0
  6  8  1  0
  8  9  1  0
  9 10  2  0
 10 11  1  0
 11 12  2  0
 12 13  1  0
 13 14  1  0
 14 15  1  0
 15 16  2  0
 16 17  1  0
 17 18  1  0
 18 19  2  3
 19 20  1  0
 20 21  2  0
 20 22  1  0
 22 23  2  0
 23 24  1  0
 24 25  2  0
 25 26  1  0
 26 27  2  0
 27 28  1  0
 18 29  1  0
 12 30  1  0
 30 31  1  0
 30 32  2  0
  4 33  1  0
 33 34  2  0
 34 35  1  0
 35 36  1  0
 35 37  1  0
 35 38  1  0
 34 39  1  0
 39 40  2  0
 40 41  1  0
 41 42  1  0
 42 43  1  0
 42 44  2  0
 42 45  2  0
 40  3  1  0
 32  9  1  0
 29 14  2  0
 27 22  1  0
  1 46  1  0
  1 47  1  0
  1 48  1  0
 10 49  1  0
 11 50  1  0
 15 51  1  0
 16 52  1  0
 23 53  1  0
 24 54  1  0
 25 55  1  0
 26 56  1  0
 28 57  1  0
 28 58  1  0
 28 59  1  0
 29 60  1  0
 32 61  1  0
 33 62  1  0
 36 63  1  0
 36 64  1  0
 36 65  1  0
 37 66  1  0
 37 67  1  0
 37 68  1  0
 38 69  1  0
 38 70  1  0
 38 71  1  0
 39 72  1  0
 43 73  1  0
 43 74  1  0
 43 75  1  0
M  CHG  4   5  -1   8  -1  17  -1  41  -1
M  END
>  <UniqueID>  (23) 
21

>  <SMILES>  (23) 
COc1c([N-]C(=O)[N-]c2ccc(Oc3cc[n-]c(=NC(=O)c4ccccc4C)c3)c(F)c2)cc(C(C)(C)C)cc1[N-]S(C)(=O)=O

>  <Energy>  (23) 
111.27100460359196

>  <Genealogy>  (23) 
COc1c([N-]C(=O)[N-]c2ccc(Oc3cc[n-]c(=NC(=O)c4ccccc4C)c3)c(F)c2)cc(C(C)(C)C)cc1[N-]S(C)(=O)=O (protonated)
COc1c([N-]C(=O)[N-]c2ccc(Oc3cc[n-]c(=NC(=O)c4ccccc4C)c3)c(F)c2)cc(C(C)(C)C)cc1[N-]S(C)(=O)=O (3D coordinates assigned)
COc1c([N-]C(=O)[N-]c2ccc(Oc3cc[n-]c(=NC(=O)c4ccccc4C)c3)c(F)c2)cc(C(C)(C)C)cc1[N-]S(C)(=O)=O (optimized conformer: 111.27100460359196 kcal/mol)

>  <smiles>  (23) 
COc1c(NC(=O)Nc2ccc(Oc3cc[nH]c(=NC(=O)c4ccccc4C)c3)c(F)c2)cc(C(C)(C)C)cc1NS(C)(=O)=O

>  <score_type>  (23) 
oracle

>  <origin>  (23) 
adg

>  <m_score__min__energy>  (23) 
-17.100000000000001

>  <m_primary>  (23) 
energy

$$$$
23:0
     RDKit          3D

 44 47  0  0  0  0  0  0  0  0999 V2000
   57.9160   29.7310   50.4310 O   0  0  0  0  0  0  0  0  0  0  0  0
   57.3380   30.4100   51.3210 C   0  0  0  0  0  0  0  0  0  0  0  0
   56.4680   29.7370   52.2400 N   0  0  0  0  0  0  0  0  0  0  0  0
   55.0710   30.0020   52.4240 C   0  0  0  0  0  0  0  0  0  0  0  0
   54.3280   29.1690   53.2950 C   0  0  0  0  0  0  0  0  0  0  0  0
   52.9630   29.4160   53.5360 C   0  0  0  0  0  0  0  0  0  0  0  0
   52.3820   30.5090   52.9010 C   0  0  0  0  0  0  0  0  0  0  0  0
   51.1120   30.9320   52.9940 N   0  0  0  0  0  0  0  0  0  0  0  0
   51.1180   32.0260   52.1920 C   0  0  0  0  0  0  0  0  0  0  0  0
   50.0920   32.7310   52.0040 O   0  0  0  0  0  0  0  0  0  0  0  0
   52.3110   32.3100   51.6090 N   0  0  0  0  0  0  0  0  0  0  0  0
   53.0930   31.3280   52.0790 C   0  0  0  0  0  0  0  0  0  0  0  0
   54.4450   31.1190   51.8190 C   0  0  0  0  0  0  0  0  0  0  0  0
   57.5220   31.8360   51.3910 N   0  0  0  0  0  0  0  0  0  0  0  0
   58.4280   32.5730   50.5540 C   0  0  0  0  0  0  0  0  0  0  0  0
   59.4040   33.3870   51.1510 C   0  0  0  0  0  0  0  0  0  0  0  0
   60.2850   34.1290   50.3610 C   0  0  0  0  0  0  0  0  0  0  0  0
   60.1910   34.0800   48.9690 C   0  0  0  0  0  0  0  0  0  0  0  0
   59.2050   33.2920   48.3580 C   0  0  0  0  0  0  0  0  0  0  0  0
   59.0660   33.2190   46.6050 S   0  0  0  0  0  0  0  0  0  0  0  0
   58.6180   34.5600   46.0940 O   0  0  0  0  0  0  0  0  0  0  0  0
   60.3990   32.8810   45.9910 O   0  0  0  0  0  0  0  0  0  0  0  0
   57.8900   32.0010   46.1760 N   0  0  0  0  0  0  0  0  0  0  0  0
   58.5130   30.6760   46.0250 C   0  0  0  0  0  0  0  0  0  0  0  0
   58.1620   30.1450   44.6430 C   0  0  0  0  0  0  0  0  0  0  0  0
   57.0120   31.0080   44.1830 C   0  0  0  0  0  0  0  0  0  0  0  0
   57.2420   32.3210   44.8990 C   0  0  0  0  0  0  0  0  0  0  0  0
   58.3210   32.5490   49.1520 C   0  0  0  0  0  0  0  0  0  0  0  0
   54.8226   28.3196   53.7888 H   0  0  0  0  0  0  0  0  0  0  0  0
   52.3764   28.7673   54.2032 H   0  0  0  0  0  0  0  0  0  0  0  0
   55.0089   31.7999   51.1645 H   0  0  0  0  0  0  0  0  0  0  0  0
   57.0330   32.3640   52.1470 H   0  0  0  0  0  0  0  0  0  0  0  0
   59.4752   33.4406   52.2474 H   0  0  0  0  0  0  0  0  0  0  0  0
   61.0551   34.7538   50.8370 H   0  0  0  0  0  0  0  0  0  0  0  0
   60.8914   34.6604   48.3505 H   0  0  0  0  0  0  0  0  0  0  0  0
   59.6050   30.7636   46.1248 H   0  0  0  0  0  0  0  0  0  0  0  0
   58.1447   29.9902   46.8023 H   0  0  0  0  0  0  0  0  0  0  0  0
   59.0187   30.2437   43.9602 H   0  0  0  0  0  0  0  0  0  0  0  0
   57.9001   29.0768   44.6612 H   0  0  0  0  0  0  0  0  0  0  0  0
   57.0369   31.1462   43.0920 H   0  0  0  0  0  0  0  0  0  0  0  0
   56.0301   30.5658   44.4073 H   0  0  0  0  0  0  0  0  0  0  0  0
   57.8932   32.9715   44.2967 H   0  0  0  0  0  0  0  0  0  0  0  0
   56.2930   32.8532   45.0609 H   0  0  0  0  0  0  0  0  0  0  0  0
   57.5373   31.9423   48.6748 H   0  0  0  0  0  0  0  0  0  0  0  0
  1  2  2  0
  2  3  1  0
  3  4  1  0
  4  5  2  0
  5  6  1  0
  6  7  2  0
  7  8  1  0
  8  9  1  0
  9 10  2  0
  9 11  1  0
 11 12  1  0
 12 13  2  0
  2 14  1  0
 14 15  1  0
 15 16  2  0
 16 17  1  0
 17 18  2  0
 18 19  1  0
 19 20  1  0
 20 21  2  0
 20 22  2  0
 20 23  1  0
 23 24  1  0
 24 25  1  0
 25 26  1  0
 26 27  1  0
 19 28  2  0
 13  4  1  0
 28 15  1  0
 12  7  1  0
 27 23  1  0
  5 29  1  0
  6 30  1  0
 13 31  1  0
 14 32  1  0
 16 33  1  0
 17 34  1  0
 18 35  1  0
 24 36  1  0
 24 37  1  0
 25 38  1  0
 25 39  1  0
 26 40  1  0
 26 41  1  0
 27 42  1  0
 27 43  1  0
 28 44  1  0
M  CHG  3   3  -1   8  -1  11  -1
M  END
>  <UniqueID>  (24) 
22

>  <SMILES>  (24) 
O=C([N-]c1ccc2[n-]c(=O)[n-]c2c1)Nc1cccc(S(=O)(=O)N2CCCC2)c1

>  <Energy>  (24) 
91.58857873649842

>  <Genealogy>  (24) 
O=C([N-]c1ccc2[n-]c(=O)[n-]c2c1)Nc1cccc(S(=O)(=O)N2CCCC2)c1 (protonated)
O=C([N-]c1ccc2[n-]c(=O)[n-]c2c1)Nc1cccc(S(=O)(=O)N2CCCC2)c1 (3D coordinates assigned)
O=C([N-]c1ccc2[n-]c(=O)[n-]c2c1)Nc1cccc(S(=O)(=O)N2CCCC2)c1 (nonaromatic ring conformer: 91.58857873649842 kcal/mol)

>  <smiles>  (24) 
O=C(Nc1cccc(S(=O)(=O)N2CCCC2)c1)Nc1ccc2[nH]c(=O)[nH]c2c1

>  <score_type>  (24) 
oracle

>  <origin>  (24) 
adg

>  <m_score__min__energy>  (24) 
-13.66

>  <m_primary>  (24) 
energy

$$$$
24:0
     RDKit          3D

 52 55  0  0  0  0  0  0  0  0999 V2000
   54.9530   25.8460   45.9650 N   0  0  0  0  0  0  0  0  0  0  0  0
   54.6300   24.1820   45.6210 S   0  0  0  0  0  0  0  0  0  0  0  0
   53.9750   24.1010   44.2710 O   0  0  0  0  0  0  0  0  0  0  0  0
   53.6940   23.6190   46.6520 O   0  0  0  0  0  0  0  0  0  0  0  0
   56.1400   23.2550   45.6170 C   0  0  0  0  0  0  0  0  0  0  0  0
   56.0700   21.8670   45.8240 C   0  0  0  0  0  0  0  0  0  0  0  0
   57.2190   21.0780   45.7570 C   0  0  0  0  0  0  0  0  0  0  0  0
   58.4520   21.6610   45.4770 C   0  0  0  0  0  0  0  0  0  0  0  0
   58.5440   23.0390   45.2790 C   0  0  0  0  0  0  0  0  0  0  0  0
   57.4020   23.8540   45.3620 C   0  0  0  0  0  0  0  0  0  0  0  0
   57.5730   25.3090   45.1840 C   0  0  0  0  0  0  0  0  0  0  0  0
   57.7200   25.9620   43.9640 C   0  0  0  0  0  0  0  0  0  0  0  0
   57.9560   27.3360   44.0930 C   0  0  0  0  0  0  0  0  0  0  0  0
   58.0190   27.7660   45.4150 C   0  0  0  0  0  0  0  0  0  0  0  0
   58.2600   29.1520   45.8560 C   0  0  0  0  0  0  0  0  0  0  0  0
   57.3870   30.0320   45.6260 O   0  0  0  0  0  0  0  0  0  0  0  0
   59.4740   29.5060   46.5400 N   0  0  0  0  0  0  0  0  0  0  0  0
   59.7200   30.8670   47.0260 C   0  0  0  0  0  0  0  0  0  0  0  0
   61.2140   31.0910   47.2710 C   0  0  0  0  0  0  0  0  0  0  0  0
   61.4630   32.5490   47.6760 C   0  0  0  0  0  0  0  0  0  0  0  0
   60.5270   33.0400   48.7150 N   0  0  0  0  0  0  0  0  0  0  0  0
   59.9260   34.3640   48.4500 C   0  0  0  0  0  0  0  0  0  0  0  0
   59.2340   34.4470   47.1190 C   0  0  0  0  0  0  0  0  0  0  0  0
   59.7420   35.0520   45.9750 C   0  0  0  0  0  0  0  0  0  0  0  0
   58.8830   34.9600   44.8740 C   0  0  0  0  0  0  0  0  0  0  0  0
   57.7070   34.2730   45.1400 C   0  0  0  0  0  0  0  0  0  0  0  0
   57.7360   33.7780   46.7460 S   0  0  0  0  0  0  0  0  0  0  0  0
   59.6240   32.0420   49.3320 C   0  0  0  0  0  0  0  0  0  0  0  0
   58.9060   31.1350   48.3110 C   0  0  0  0  0  0  0  0  0  0  0  0
   57.7840   26.4350   46.4190 S   0  0  0  0  0  0  0  0  0  0  0  0
   54.0310   26.3370   45.9930 H   0  0  0  0  0  0  0  0  0  0  0  0
   55.0993   21.3974   46.0412 H   0  0  0  0  0  0  0  0  0  0  0  0
   57.1505   19.9932   45.9257 H   0  0  0  0  0  0  0  0  0  0  0  0
   59.3540   21.0348   45.4119 H   0  0  0  0  0  0  0  0  0  0  0  0
   59.5209   23.4925   45.0555 H   0  0  0  0  0  0  0  0  0  0  0  0
   57.6569   25.4488   42.9931 H   0  0  0  0  0  0  0  0  0  0  0  0
   58.0796   28.0103   43.2327 H   0  0  0  0  0  0  0  0  0  0  0  0
   60.2120   28.7780   46.6740 H   0  0  0  0  0  0  0  0  0  0  0  0
   59.3911   31.5782   46.2540 H   0  0  0  0  0  0  0  0  0  0  0  0
   61.5554   30.4250   48.0772 H   0  0  0  0  0  0  0  0  0  0  0  0
   61.7696   30.8715   46.3474 H   0  0  0  0  0  0  0  0  0  0  0  0
   62.4891   32.6327   48.0635 H   0  0  0  0  0  0  0  0  0  0  0  0
   61.3052   33.1663   46.7793 H   0  0  0  0  0  0  0  0  0  0  0  0
   59.1908   34.5780   49.2397 H   0  0  0  0  0  0  0  0  0  0  0  0
   60.7459   35.0972   48.4372 H   0  0  0  0  0  0  0  0  0  0  0  0
   60.7208   35.5527   45.9389 H   0  0  0  0  0  0  0  0  0  0  0  0
   59.1180   35.3918   43.8900 H   0  0  0  0  0  0  0  0  0  0  0  0
   56.8948   34.0846   44.4225 H   0  0  0  0  0  0  0  0  0  0  0  0
   60.2185   31.4051   50.0035 H   0  0  0  0  0  0  0  0  0  0  0  0
   58.8431   32.6038   49.8655 H   0  0  0  0  0  0  0  0  0  0  0  0
   58.6952   30.1696   48.7944 H   0  0  0  0  0  0  0  0  0  0  0  0
   57.9918   31.6639   48.0037 H   0  0  0  0  0  0  0  0  0  0  0  0
  1  2  1  0
  2  3  2  0
  2  4  2  0
  2  5  1  0
  5  6  2  0
  6  7  1  0
  7  8  2  0
  8  9  1  0
  9 10  2  0
 10 11  1  0
 11 12  2  0
 12 13  1  0
 13 14  2  0
 14 15  1  0
 15 16  2  0
 15 17  1  0
 17 18  1  0
 18 19  1  0
 19 20  1  0
 20 21  1  0
 21 22  1  0
 22 23  1  0
 23 24  2  0
 24 25  1  0
 25 26  2  0
 26 27  1  0
 21 28  1  0
 28 29  1  0
 14 30  1  0
 10  5  1  0
 30 11  1  0
 29 18  1  0
 27 23  1  0
  1 31  1  0
  6 32  1  0
  7 33  1  0
  8 34  1  0
  9 35  1  0
 12 36  1  0
 13 37  1  0
 17 38  1  0
 18 39  1  0
 19 40  1  0
 19 41  1  0
 20 42  1  0
 20 43  1  0
 22 44  1  0
 22 45  1  0
 24 46  1  0
 25 47  1  0
 26 48  1  0
 28 49  1  0
 28 50  1  0
 29 51  1  0
 29 52  1  0
M  CHG  1   1  -1
M  END
>  <UniqueID>  (25) 
23

>  <SMILES>  (25) 
[NH-]S(=O)(=O)c1ccccc1-c1ccc(C(=O)NC2CCN(Cc3cccs3)CC2)s1

>  <Energy>  (25) 
123.3829088185851

>  <Genealogy>  (25) 
[NH-]S(=O)(=O)c1ccccc1-c1ccc(C(=O)NC2CCN(Cc3cccs3)CC2)s1 (protonated)
[NH-]S(=O)(=O)c1ccccc1-c1ccc(C(=O)NC2CCN(Cc3cccs3)CC2)s1 (3D coordinates assigned)
[NH-]S(=O)(=O)c1ccccc1-c1ccc(C(=O)NC2CCN(Cc3cccs3)CC2)s1 (nonaromatic ring conformer: 123.3829088185851 kcal/mol)

>  <smiles>  (25) 
NS(=O)(=O)c1ccccc1-c1ccc(C(=O)NC2CCN(Cc3cccs3)CC2)s1

>  <score_type>  (25) 
oracle

>  <origin>  (25) 
adg

>  <m_score__min__energy>  (25) 
-11.77

>  <m_primary>  (25) 
energy

$$$$
25:0
     RDKit          3D

 57 59  0  0  0  0  0  0  0  0999 V2000
   60.7550   34.0100   46.2950 C   0  0  0  0  0  0  0  0  0  0  0  0
   59.4800   34.7490   46.2460 N   0  0  0  0  0  0  0  0  0  0  0  0
   58.9640   34.8630   44.8650 C   0  0  0  0  0  0  0  0  0  0  0  0
   58.5280   33.5000   44.3020 C   0  0  0  0  0  0  0  0  0  0  0  0
   57.8910   32.6880   45.3460 N   0  0  0  0  0  0  0  0  0  0  0  0
   57.7950   31.2580   45.1930 C   0  0  0  0  0  0  0  0  0  0  0  0
   56.8970   30.6990   44.2710 C   0  0  0  0  0  0  0  0  0  0  0  0
   56.7950   29.3130   44.1330 C   0  0  0  0  0  0  0  0  0  0  0  0
   57.5750   28.4580   44.9270 C   0  0  0  0  0  0  0  0  0  0  0  0
   57.5230   27.0360   44.7320 N   0  0  0  0  0  0  0  0  0  0  0  0
   56.6120   26.1750   45.4390 C   0  0  0  0  0  0  0  0  0  0  0  0
   55.8960   26.6530   46.3630 O   0  0  0  0  0  0  0  0  0  0  0  0
   56.5570   24.6860   45.1250 C   0  0  0  0  0  0  0  0  0  0  0  0
   57.4850   23.9170   46.0870 C   0  0  0  0  0  0  0  0  0  0  0  0
   55.1090   24.1840   45.2860 C   0  0  0  0  0  0  0  0  0  0  0  0
   57.0190   24.4110   43.6770 C   0  0  0  0  0  0  0  0  0  0  0  0
   58.4740   29.0120   45.8600 C   0  0  0  0  0  0  0  0  0  0  0  0
   59.2670   28.1650   46.7040 N   0  0  0  0  0  0  0  0  0  0  0  0
   59.3100   28.2950   48.1490 C   0  0  0  0  0  0  0  0  0  0  0  0
   60.1760   27.1390   48.6290 C   0  0  0  0  0  0  0  0  0  0  0  0
   60.9560   26.6620   47.4040 C   0  0  0  0  0  0  0  0  0  0  0  0
   60.1790   27.1610   46.1910 C   0  0  0  0  0  0  0  0  0  0  0  0
   58.5770   30.4050   45.9880 C   0  0  0  0  0  0  0  0  0  0  0  0
   57.3750   33.3630   46.5390 C   0  0  0  0  0  0  0  0  0  0  0  0
   58.4860   34.1980   47.2030 C   0  0  0  0  0  0  0  0  0  0  0  0
   61.0422   33.8435   47.3437 H   0  0  0  0  0  0  0  0  0  0  0  0
   60.6366   33.0405   45.7889 H   0  0  0  0  0  0  0  0  0  0  0  0
   61.5374   34.5946   45.7889 H   0  0  0  0  0  0  0  0  0  0  0  0
   58.0984   35.5418   44.8636 H   0  0  0  0  0  0  0  0  0  0  0  0
   59.7734   35.2515   44.2294 H   0  0  0  0  0  0  0  0  0  0  0  0
   57.8125   33.6600   43.4820 H   0  0  0  0  0  0  0  0  0  0  0  0
   59.4176   32.9683   43.9334 H   0  0  0  0  0  0  0  0  0  0  0  0
   56.2690   31.3571   43.6526 H   0  0  0  0  0  0  0  0  0  0  0  0
   56.0977   28.8880   43.3960 H   0  0  0  0  0  0  0  0  0  0  0  0
   58.2590   26.6020   44.1300 H   0  0  0  0  0  0  0  0  0  0  0  0
   57.2075   24.1470   47.1263 H   0  0  0  0  0  0  0  0  0  0  0  0
   57.3817   22.8362   45.9105 H   0  0  0  0  0  0  0  0  0  0  0  0
   58.5278   24.2193   45.9105 H   0  0  0  0  0  0  0  0  0  0  0  0
   54.8668   24.1000   46.3557 H   0  0  0  0  0  0  0  0  0  0  0  0
   54.4191   24.8954   44.8086 H   0  0  0  0  0  0  0  0  0  0  0  0
   55.0075   23.1982   44.8086 H   0  0  0  0  0  0  0  0  0  0  0  0
   57.9641   23.8484   43.6943 H   0  0  0  0  0  0  0  0  0  0  0  0
   56.2516   23.8226   43.1528 H   0  0  0  0  0  0  0  0  0  0  0  0
   57.1703   25.3661   43.1528 H   0  0  0  0  0  0  0  0  0  0  0  0
   59.7580   29.2576   48.4364 H   0  0  0  0  0  0  0  0  0  0  0  0
   58.3044   28.2673   48.5940 H   0  0  0  0  0  0  0  0  0  0  0  0
   60.8674   27.4793   49.4140 H   0  0  0  0  0  0  0  0  0  0  0  0
   59.5672   26.3304   49.0597 H   0  0  0  0  0  0  0  0  0  0  0  0
   61.9711   27.0856   47.4084 H   0  0  0  0  0  0  0  0  0  0  0  0
   61.0598   25.5670   47.3936 H   0  0  0  0  0  0  0  0  0  0  0  0
   60.8626   27.6039   45.4517 H   0  0  0  0  0  0  0  0  0  0  0  0
   59.6448   26.3444   45.6833 H   0  0  0  0  0  0  0  0  0  0  0  0
   59.2781   30.8338   46.7192 H   0  0  0  0  0  0  0  0  0  0  0  0
   56.5458   34.0259   46.2509 H   0  0  0  0  0  0  0  0  0  0  0  0
   57.0208   32.6056   47.2538 H   0  0  0  0  0  0  0  0  0  0  0  0
   58.0162   35.0378   47.7359 H   0  0  0  0  0  0  0  0  0  0  0  0
   59.0330   33.5223   47.8770 H   0  0  0  0  0  0  0  0  0  0  0  0
  1  2  1  0
  2  3  1  0
  3  4  1  0
  4  5  1  0
  5  6  1  0
  6  7  2  0
  7  8  1  0
  8  9  2  0
  9 10  1  0
 10 11  1  0
 11 12  2  0
 11 13  1  0
 13 14  1  0
 13 15  1  0
 13 16  1  0
  9 17  1  0
 17 18  1  0
 18 19  1  0
 19 20  1  0
 20 21  1  0
 21 22  1  0
 17 23  2  0
  5 24  1  0
 24 25  1  0
 25  2  1  0
 23  6  1  0
 22 18  1  0
  1 26  1  0
  1 27  1  0
  1 28  1  0
  3 29  1  0
  3 30  1  0
  4 31  1  0
  4 32  1  0
  7 33  1  0
  8 34  1  0
 10 35  1  0
 14 36  1  0
 14 37  1  0
 14 38  1  0
 15 39  1  0
 15 40  1  0
 15 41  1  0
 16 42  1  0
 16 43  1  0
 16 44  1  0
 19 45  1  0
 19 46  1  0
 20 47  1  0
 20 48  1  0
 21 49  1  0
 21 50  1  0
 22 51  1  0
 22 52  1  0
 23 53  1  0
 24 54  1  0
 24 55  1  0
 25 56  1  0
 25 57  1  0
M  END
>  <UniqueID>  (26) 
24

>  <SMILES>  (26) 
CN1CCN(c2ccc(NC(=O)C(C)(C)C)c(N3CCCC3)c2)CC1

>  <Energy>  (26) 
71.72423573705291

>  <Genealogy>  (26) 
CN1CCN(c2ccc(NC(=O)C(C)(C)C)c(N3CCCC3)c2)CC1 (3D coordinates assigned)
CN1CCN(c2ccc(NC(=O)C(C)(C)C)c(N3CCCC3)c2)CC1 (nonaromatic ring conformer: 71.72423573705291 kcal/mol)

>  <smiles>  (26) 
CN1CCN(c2ccc(NC(=O)C(C)(C)C)c(N3CCCC3)c2)CC1

>  <score_type>  (26) 
oracle

>  <origin>  (26) 
adg

>  <m_score__min__energy>  (26) 
-7.9400000000000004

>  <m_primary>  (26) 
energy

$$$$
26:0
     RDKit          3D

 45 47  0  0  0  0  0  0  0  0999 V2000
   56.1110   29.6680   45.4990 O   0  0  0  0  0  0  0  0  0  0  0  0
   56.5990   29.2790   44.4060 C   0  0  0  0  0  0  0  0  0  0  0  0
   56.0870   29.8740   43.1230 C   0  0  0  0  0  0  0  0  0  0  0  0
   57.1030   31.2920   42.5760 S   0  0  0  0  0  0  0  0  0  0  0  0
   57.6680   31.7560   44.2200 C   0  0  0  0  0  0  0  0  0  0  0  0
   57.0300   32.8040   44.8940 C   0  0  0  0  0  0  0  0  0  0  0  0
   57.4670   33.1690   46.1660 C   0  0  0  0  0  0  0  0  0  0  0  0
   58.5390   32.4950   46.7480 C   0  0  0  0  0  0  0  0  0  0  0  0
   59.1640   31.4640   46.0440 C   0  0  0  0  0  0  0  0  0  0  0  0
   58.7290   31.1140   44.7980 N   0  0  0  0  0  0  0  0  0  0  0  0
   59.3710   30.1070   44.1070 O   0  0  0  0  0  0  0  0  0  0  0  0
   57.5510   28.2060   44.4210 N   0  0  0  0  0  0  0  0  0  0  0  0
   58.1690   27.6350   45.5840 C   0  0  0  0  0  0  0  0  0  0  0  0
   59.3970   28.1300   46.0530 C   0  0  0  0  0  0  0  0  0  0  0  0
   59.9980   27.5760   47.1840 C   0  0  0  0  0  0  0  0  0  0  0  0
   59.3700   26.5360   47.8710 C   0  0  0  0  0  0  0  0  0  0  0  0
   58.1350   26.0540   47.4330 C   0  0  0  0  0  0  0  0  0  0  0  0
   57.5220   26.5980   46.2910 C   0  0  0  0  0  0  0  0  0  0  0  0
   56.2060   26.0790   45.8530 C   0  0  0  0  0  0  0  0  0  0  0  0
   55.1640   26.7160   46.1680 O   0  0  0  0  0  0  0  0  0  0  0  0
   56.0930   24.8680   45.0790 N   0  0  0  0  0  0  0  0  0  0  0  0
   54.9440   23.9750   45.2670 C   0  0  0  0  0  0  0  0  0  0  0  0
   54.5690   23.3210   43.9340 C   0  0  0  0  0  0  0  0  0  0  0  0
   55.6990   22.7160   43.3350 O   0  0  0  0  0  0  0  0  0  0  0  0
   56.6460   23.7100   42.9890 C   0  0  0  0  0  0  0  0  0  0  0  0
   57.2000   24.3920   44.2430 C   0  0  0  0  0  0  0  0  0  0  0  0
   56.1047   29.1010   42.3406 H   0  0  0  0  0  0  0  0  0  0  0  0
   55.0634   30.2360   43.2997 H   0  0  0  0  0  0  0  0  0  0  0  0
   56.1899   33.3355   44.4231 H   0  0  0  0  0  0  0  0  0  0  0  0
   56.9679   33.9856   46.7083 H   0  0  0  0  0  0  0  0  0  0  0  0
   58.8895   32.7728   47.7530 H   0  0  0  0  0  0  0  0  0  0  0  0
   60.0127   30.9300   46.4963 H   0  0  0  0  0  0  0  0  0  0  0  0
   58.8610   29.4550   43.5210 H   0  0  0  0  0  0  0  0  0  0  0  0
   59.8885   28.9604   45.5249 H   0  0  0  0  0  0  0  0  0  0  0  0
   60.9677   27.9593   47.5344 H   0  0  0  0  0  0  0  0  0  0  0  0
   59.8484   26.0957   48.7583 H   0  0  0  0  0  0  0  0  0  0  0  0
   57.6382   25.2428   47.9855 H   0  0  0  0  0  0  0  0  0  0  0  0
   55.2047   23.1937   45.9961 H   0  0  0  0  0  0  0  0  0  0  0  0
   54.0884   24.5586   45.6376 H   0  0  0  0  0  0  0  0  0  0  0  0
   53.8013   22.5536   44.1123 H   0  0  0  0  0  0  0  0  0  0  0  0
   54.1845   24.0976   43.2564 H   0  0  0  0  0  0  0  0  0  0  0  0
   57.4745   23.2424   42.4368 H   0  0  0  0  0  0  0  0  0  0  0  0
   56.1500   24.4680   42.3649 H   0  0  0  0  0  0  0  0  0  0  0  0
   57.8051   23.6719   44.8134 H   0  0  0  0  0  0  0  0  0  0  0  0
   57.8248   25.2472   43.9457 H   0  0  0  0  0  0  0  0  0  0  0  0
  1  2  2  0
  2  3  1  0
  3  4  1  0
  4  5  1  0
  5  6  2  0
  6  7  1  0
  7  8  2  0
  8  9  1  0
  9 10  2  0
 10 11  1  0
  2 12  1  0
 12 13  1  0
 13 14  2  0
 14 15  1  0
 15 16  2  0
 16 17  1  0
 17 18  2  0
 18 19  1  0
 19 20  2  0
 19 21  1  0
 21 22  1  0
 22 23  1  0
 23 24  1  0
 24 25  1  0
 25 26  1  0
 10  5  1  0
 18 13  1  0
 26 21  1  0
  3 27  1  0
  3 28  1  0
  6 29  1  0
  7 30  1  0
  8 31  1  0
  9 32  1  0
 11 33  1  0
 14 34  1  0
 15 35  1  0
 16 36  1  0
 17 37  1  0
 22 38  1  0
 22 39  1  0
 23 40  1  0
 23 41  1  0
 25 42  1  0
 25 43  1  0
 26 44  1  0
 26 45  1  0
M  CHG  2  10   1  12  -1
M  END
>  <UniqueID>  (27) 
25

>  <SMILES>  (27) 
O=C(CSc1cccc[n+]1O)[N-]c1ccccc1C(=O)N1CCOCC1

>  <Energy>  (27) 
56.38470166523984

>  <Genealogy>  (27) 
O=C(CSc1cccc[n+]1O)[N-]c1ccccc1C(=O)N1CCOCC1 (protonated)
O=C(CSc1cccc[n+]1O)[N-]c1ccccc1C(=O)N1CCOCC1 (3D coordinates assigned)
O=C(CSc1cccc[n+]1O)[N-]c1ccccc1C(=O)N1CCOCC1 (nonaromatic ring conformer: 56.38470166523984 kcal/mol)

>  <smiles>  (27) 
O=C(CSc1cccc[n+]1[O-])Nc1ccccc1C(=O)N1CCOCC1

>  <score_type>  (27) 
oracle

>  <origin>  (27) 
adg

>  <m_score__min__energy>  (27) 
-8.1099999999999994

>  <m_primary>  (27) 
energy

$$$$
27:0
     RDKit          3D

 46 48  0  0  0  0  0  0  0  0999 V2000
   58.9586   25.2071   47.8472 H   0  0  0  0  0  0  0  0  0  0  0  0
   58.1260   25.7560   47.3830 C   0  0  0  0  0  0  0  0  0  0  0  0
   58.4400   27.0360   46.7190 C   0  0  0  0  0  0  0  0  0  0  0  0
   59.5230   27.6110   47.0070 O   0  0  0  0  0  0  0  0  0  0  0  0
   57.5480   27.6000   45.7400 N   0  0  0  0  0  0  0  0  0  0  0  0
   56.7050   27.0490   45.4620 H   0  0  0  0  0  0  0  0  0  0  0  0
   57.6350   28.9520   45.2640 C   0  0  0  0  0  0  0  0  0  0  0  0
   58.8250   29.6920   45.3650 C   0  0  0  0  0  0  0  0  0  0  0  0
   59.7124   29.2410   45.8332 H   0  0  0  0  0  0  0  0  0  0  0  0
   58.8860   30.9990   44.8730 C   0  0  0  0  0  0  0  0  0  0  0  0
   59.8166   31.5771   44.9724 H   0  0  0  0  0  0  0  0  0  0  0  0
   57.7680   31.5790   44.2530 C   0  0  0  0  0  0  0  0  0  0  0  0
   57.8440   32.9860   43.7030 C   0  0  0  0  0  0  0  0  0  0  0  0
   58.8230   33.1162   43.2187 H   0  0  0  0  0  0  0  0  0  0  0  0
   57.0065   33.0995   42.9990 H   0  0  0  0  0  0  0  0  0  0  0  0
   57.6880   34.0410   44.7310 N   0  0  0  0  0  0  0  0  0  0  0  0
   58.8680   34.9090   44.9290 C   0  0  0  0  0  0  0  0  0  0  0  0
   59.5552   34.7675   44.0818 H   0  0  0  0  0  0  0  0  0  0  0  0
   58.5100   35.9471   44.9932 H   0  0  0  0  0  0  0  0  0  0  0  0
   59.6230   34.5960   46.2330 C   0  0  0  0  0  0  0  0  0  0  0  0
   60.7011   34.7396   46.0687 H   0  0  0  0  0  0  0  0  0  0  0  0
   59.2616   35.2736   47.0205 H   0  0  0  0  0  0  0  0  0  0  0  0
   59.3910   33.2670   46.6400 O   0  0  0  0  0  0  0  0  0  0  0  0
   58.0470   33.1260   47.0510 C   0  0  0  0  0  0  0  0  0  0  0  0
   57.8547   32.0640   47.2636 H   0  0  0  0  0  0  0  0  0  0  0  0
   57.9073   33.7542   47.9431 H   0  0  0  0  0  0  0  0  0  0  0  0
   57.0370   33.6060   45.9830 C   0  0  0  0  0  0  0  0  0  0  0  0
   56.3502   32.7783   45.7523 H   0  0  0  0  0  0  0  0  0  0  0  0
   56.5057   34.4751   46.3981 H   0  0  0  0  0  0  0  0  0  0  0  0
   56.5810   30.8360   44.1480 C   0  0  0  0  0  0  0  0  0  0  0  0
   55.6938   31.2858   43.6784 H   0  0  0  0  0  0  0  0  0  0  0  0
   56.5210   29.5280   44.6370 C   0  0  0  0  0  0  0  0  0  0  0  0
   55.5935   28.9465   44.5292 H   0  0  0  0  0  0  0  0  0  0  0  0
   56.9020   25.2100   47.4640 C   0  0  0  0  0  0  0  0  0  0  0  0
   56.3567   25.3276   48.4121 H   0  0  0  0  0  0  0  0  0  0  0  0
   56.2280   24.4620   46.3780 C   0  0  0  0  0  0  0  0  0  0  0  0
   56.6630   23.1760   46.0060 C   0  0  0  0  0  0  0  0  0  0  0  0
   57.5099   22.7120   46.5327 H   0  0  0  0  0  0  0  0  0  0  0  0
   56.0260   22.4850   44.9720 C   0  0  0  0  0  0  0  0  0  0  0  0
   56.3614   21.4736   44.6988 H   0  0  0  0  0  0  0  0  0  0  0  0
   54.9640   23.0770   44.2850 C   0  0  0  0  0  0  0  0  0  0  0  0
   54.4590   22.5294   43.4756 H   0  0  0  0  0  0  0  0  0  0  0  0
   54.5430   24.3650   44.6260 C   0  0  0  0  0  0  0  0  0  0  0  0
   53.7121   24.8331   44.0778 H   0  0  0  0  0  0  0  0  0  0  0  0
   55.1750   25.0620   45.6630 C   0  0  0  0  0  0  0  0  0  0  0  0
   54.7400   26.3430   45.9860 O   0  0  0  0  0  0  0  0  0  0  0  0
  1  2  1  0
  2  3  1  0
  3  4  2  0
  3  5  1  0
  5  6  1  0
  5  7  1  0
  7  8  2  0
  8  9  1  0
  8 10  1  0
 10 11  1  0
 10 12  2  0
 12 13  1  0
 13 14  1  0
 13 15  1  0
 13 16  1  0
 16 17  1  0
 17 18  1  0
 17 19  1  0
 17 20  1  0
 20 21  1  0
 20 22  1  0
 20 23  1  0
 23 24  1  0
 24 25  1  0
 24 26  1  0
 24 27  1  0
 27 28  1  0
 27 29  1  0
 12 30  1  0
 30 31  1  0
 30 32  2  0
 32 33  1  0
  2 34  2  0
 34 35  1  0
 34 36  1  0
 36 37  2  0
 37 38  1  0
 37 39  1  0
 39 40  1  0
 39 41  2  0
 41 42  1  0
 41 43  1  0
 43 44  1  0
 43 45  2  0
 45 46  1  0
 32  7  1  0
 45 36  1  0
 27 16  1  0
M  CHG  1  46  -1
M  END
>  <UniqueID>  (28) 
26

>  <SMILES>  (28) 
O=C(/C=C\c1ccccc1[O-])Nc1ccc(CN2CCOCC2)cc1

>  <Energy>  (28) 
74.3842087337281

>  <Genealogy>  (28) 
O=C(C=Cc1ccccc1[O-])Nc1ccc(CN2CCOCC2)cc1 (protonated)
O=C(/C=C\c1ccccc1[O-])Nc1ccc(CN2CCOCC2)cc1 (cis-trans isomerization)
O=C(/C=C\c1ccccc1[O-])Nc1ccc(CN2CCOCC2)cc1 (3D coordinates assigned)
O=C(/C=C\c1ccccc1[O-])Nc1ccc(CN2CCOCC2)cc1 (nonaromatic ring conformer: 74.3842087337281 kcal/mol)

>  <smiles>  (28) 
O=C(C=Cc1ccccc1O)Nc1ccc(CN2CCOCC2)cc1

>  <score_type>  (28) 
oracle

>  <origin>  (28) 
adg

>  <m_score__min__energy>  (28) 
-11.69

>  <m_primary>  (28) 
energy

$$$$
28:0
     RDKit          3D

 48 51  0  0  0  0  0  0  0  0999 V2000
   56.2251   31.3510   43.9539 H   0  0  0  0  0  0  0  0  0  0  0  0
   56.1100   30.2580   44.0010 C   0  0  0  0  0  0  0  0  0  0  0  0
   55.3930   29.7514   43.3383 H   0  0  0  0  0  0  0  0  0  0  0  0
   56.8410   29.5460   44.8630 C   0  0  0  0  0  0  0  0  0  0  0  0
   56.7400   28.2000   44.9630 N   0  0  0  0  0  0  0  0  0  0  0  0
   57.6100   27.8570   45.9400 C   0  0  0  0  0  0  0  0  0  0  0  0
   57.8180   26.5780   46.2940 C   0  0  0  0  0  0  0  0  0  0  0  0
   58.7491   26.3508   46.8338 H   0  0  0  0  0  0  0  0  0  0  0  0
   56.9050   25.4520   46.0210 C   0  0  0  0  0  0  0  0  0  0  0  0
   57.2670   24.1540   45.9400 N   0  0  0  0  0  0  0  0  0  0  0  0
   56.0960   23.5020   45.7590 C   0  0  0  0  0  0  0  0  0  0  0  0
   56.0220   22.2510   45.6370 O   0  0  0  0  0  0  0  0  0  0  0  0
   55.0240   24.3170   45.7220 N   0  0  0  0  0  0  0  0  0  0  0  0
   53.6170   23.9420   45.6160 C   0  0  0  0  0  0  0  0  0  0  0  0
   53.1909   23.8284   46.6237 H   0  0  0  0  0  0  0  0  0  0  0  0
   53.0687   24.7254   45.0722 H   0  0  0  0  0  0  0  0  0  0  0  0
   53.5313   22.9897   45.0722 H   0  0  0  0  0  0  0  0  0  0  0  0
   55.5340   25.5440   45.9170 C   0  0  0  0  0  0  0  0  0  0  0  0
   54.7810   26.7130   45.9960 O   0  0  0  0  0  0  0  0  0  0  0  0
   58.2260   29.0130   46.4000 C   0  0  0  0  0  0  0  0  0  0  0  0
   59.1560   29.0920   47.2460 O   0  0  0  0  0  0  0  0  0  0  0  0
   57.7380   30.0720   45.7320 N   0  0  0  0  0  0  0  0  0  0  0  0
   58.1680   31.4370   45.8700 C   0  0  0  0  0  0  0  0  0  0  0  0
   57.2800   32.4900   45.5990 C   0  0  0  0  0  0  0  0  0  0  0  0
   56.2380   32.2716   45.3223 H   0  0  0  0  0  0  0  0  0  0  0  0
   57.7170   33.8160   45.6800 C   0  0  0  0  0  0  0  0  0  0  0  0
   57.0191   34.6383   45.4640 H   0  0  0  0  0  0  0  0  0  0  0  0
   59.0390   34.0980   46.0350 C   0  0  0  0  0  0  0  0  0  0  0  0
   59.3843   35.1413   46.0834 H   0  0  0  0  0  0  0  0  0  0  0  0
   59.9270   33.0510   46.3300 C   0  0  0  0  0  0  0  0  0  0  0  0
   61.3090   33.3520   46.7390 C   0  0  0  0  0  0  0  0  0  0  0  0
   61.9700   34.1880   46.0570 O   0  0  0  0  0  0  0  0  0  0  0  0
   61.9060   32.7130   47.8930 N   0  0  0  0  0  0  0  0  0  0  0  0
   63.2980   33.0390   48.2360 C   0  0  0  0  0  0  0  0  0  0  0  0
   63.8985   33.0688   47.3148 H   0  0  0  0  0  0  0  0  0  0  0  0
   63.3165   34.0175   48.7382 H   0  0  0  0  0  0  0  0  0  0  0  0
   63.8880   31.9880   49.1870 C   0  0  0  0  0  0  0  0  0  0  0  0
   64.0373   31.0481   48.6354 H   0  0  0  0  0  0  0  0  0  0  0  0
   64.8458   32.3660   49.5740 H   0  0  0  0  0  0  0  0  0  0  0  0
   63.0250   31.7490   50.2810 O   0  0  0  0  0  0  0  0  0  0  0  0
   61.8230   31.1710   49.8150 C   0  0  0  0  0  0  0  0  0  0  0  0
   62.0590   30.2802   49.2143 H   0  0  0  0  0  0  0  0  0  0  0  0
   61.2039   30.8922   50.6804 H   0  0  0  0  0  0  0  0  0  0  0  0
   61.0470   32.1680   48.9530 C   0  0  0  0  0  0  0  0  0  0  0  0
   60.1872   31.6573   48.4948 H   0  0  0  0  0  0  0  0  0  0  0  0
   60.7024   32.9953   49.5908 H   0  0  0  0  0  0  0  0  0  0  0  0
   59.4920   31.7210   46.2330 C   0  0  0  0  0  0  0  0  0  0  0  0
   60.1917   30.8985   46.4424 H   0  0  0  0  0  0  0  0  0  0  0  0
  1  2  1  0
  2  3  1  0
  2  4  2  0
  4  5  1  0
  5  6  1  0
  6  7  2  0
  7  8  1  0
  7  9  1  0
  9 10  1  0
 10 11  1  0
 11 12  2  0
 11 13  1  0
 13 14  1  0
 14 15  1  0
 14 16  1  0
 14 17  1  0
 13 18  1  0
 18 19  1  0
  6 20  1  0
 20 21  2  0
 20 22  1  0
 22 23  1  0
 23 24  2  0
 24 25  1  0
 24 26  1  0
 26 27  1  0
 26 28  2  0
 28 29  1  0
 28 30  1  0
 30 31  1  0
 31 32  2  0
 31 33  1  0
 33 34  1  0
 34 35  1  0
 34 36  1  0
 34 37  1  0
 37 38  1  0
 37 39  1  0
 37 40  1  0
 40 41  1  0
 41 42  1  0
 41 43  1  0
 41 44  1  0
 44 45  1  0
 44 46  1  0
 30 47  2  0
 47 48  1  0
 22  4  1  0
 47 23  1  0
 18  9  2  0
 44 33  1  0
M  CHG  3   5  -1  10  -1  19  -1
M  END
>  <UniqueID>  (29) 
27

>  <SMILES>  (29) 
C=c1[n-]/c(=C/c2[n-]c(=O)n(C)c2[O-])c(=O)n1-c1cccc(C(=O)N2CCOCC2)c1

>  <Energy>  (29) 
136.5535673206246

>  <Genealogy>  (29) 
C=c1[n-]c(=Cc2[n-]c(=O)n(C)c2[O-])c(=O)n1-c1cccc(C(=O)N2CCOCC2)c1 (protonated)
C=c1[n-]/c(=C/c2[n-]c(=O)n(C)c2[O-])c(=O)n1-c1cccc(C(=O)N2CCOCC2)c1 (cis-trans isomerization)
C=c1[n-]/c(=C/c2[n-]c(=O)n(C)c2[O-])c(=O)n1-c1cccc(C(=O)N2CCOCC2)c1 (3D coordinates assigned)
C=c1[n-]/c(=C/c2[n-]c(=O)n(C)c2[O-])c(=O)n1-c1cccc(C(=O)N2CCOCC2)c1 (nonaromatic ring conformer: 136.5535673206246 kcal/mol)

>  <smiles>  (29) 
C=c1[nH]c(=Cc2[nH]c(=O)n(C)c2O)c(=O)n1-c1cccc(C(=O)N2CCOCC2)c1

>  <score_type>  (29) 
oracle

>  <origin>  (29) 
adg

>  <m_score__min__energy>  (29) 
-16.170000000000002

>  <m_primary>  (29) 
energy

$$$$
29:0
     RDKit          3D

 66 69  0  0  0  0  0  0  0  0999 V2000
   57.6180   27.9220   44.4920 C   0  0  0  0  0  0  0  0  0  0  0  0
   57.0270   29.4920   43.8910 S   0  0  0  0  0  0  0  0  0  0  0  0
   55.9320   29.9730   44.7980 O   0  0  0  0  0  0  0  0  0  0  0  0
   56.4700   29.3470   42.5020 O   0  0  0  0  0  0  0  0  0  0  0  0
   58.3170   30.6550   43.8980 N   0  0  0  0  0  0  0  0  0  0  0  0
   58.2920   31.8970   44.6270 C   0  0  0  0  0  0  0  0  0  0  0  0
   57.4390   32.9560   44.2680 C   0  0  0  0  0  0  0  0  0  0  0  0
   57.4610   34.1540   44.9840 C   0  0  0  0  0  0  0  0  0  0  0  0
   58.3220   34.3100   46.0710 C   0  0  0  0  0  0  0  0  0  0  0  0
   59.1690   33.2610   46.4620 C   0  0  0  0  0  0  0  0  0  0  0  0
   60.0620   33.4450   47.6330 C   0  0  0  0  0  0  0  0  0  0  0  0
   61.3910   33.8810   47.4880 C   0  0  0  0  0  0  0  0  0  0  0  0
   62.1960   34.0100   48.6210 C   0  0  0  0  0  0  0  0  0  0  0  0
   63.3910   34.3930   48.4950 O   0  0  0  0  0  0  0  0  0  0  0  0
   61.6640   33.7040   49.8820 C   0  0  0  0  0  0  0  0  0  0  0  0
   62.4210   33.8010   51.0630 C   0  0  0  0  0  0  0  0  0  0  0  0
   61.8460   33.4800   52.2960 C   0  0  0  0  0  0  0  0  0  0  0  0
   60.5020   33.0660   52.3710 C   0  0  0  0  0  0  0  0  0  0  0  0
   59.8740   32.7400   53.5850 O   0  0  0  0  0  0  0  0  0  0  0  0
   58.4660   32.6270   53.7870 C   0  0  0  0  0  0  0  0  0  0  0  0
   57.8910   31.4620   52.9740 C   0  0  0  0  0  0  0  0  0  0  0  0
   58.8510   30.2650   52.9760 C   0  0  0  0  0  0  0  0  0  0  0  0
   58.7290   29.4240   51.6960 C   0  0  0  0  0  0  0  0  0  0  0  0
   59.5620   29.9660   50.5970 N   0  0  0  0  0  0  0  0  0  0  0  0
   58.8300   29.9900   49.3090 C   0  0  0  0  0  0  0  0  0  0  0  0
   59.4390   29.0960   48.2100 C   0  0  0  0  0  0  0  0  0  0  0  0
   60.6940   29.6580   47.5210 C   0  0  0  0  0  0  0  0  0  0  0  0
   61.4830   30.6650   48.3750 C   0  0  0  0  0  0  0  0  0  0  0  0
   61.9700   30.1470   49.7540 C   0  0  0  0  0  0  0  0  0  0  0  0
   60.9240   29.3670   50.5790 C   0  0  0  0  0  0  0  0  0  0  0  0
   59.7520   32.9640   51.1940 C   0  0  0  0  0  0  0  0  0  0  0  0
   60.3210   33.2760   49.9540 C   0  0  0  0  0  0  0  0  0  0  0  0
   59.5920   33.1620   48.8480 O   0  0  0  0  0  0  0  0  0  0  0  0
   59.1570   32.0620   45.7210 C   0  0  0  0  0  0  0  0  0  0  0  0
   57.6164   27.9263   45.5920 H   0  0  0  0  0  0  0  0  0  0  0  0
   56.9607   27.1189   44.1275 H   0  0  0  0  0  0  0  0  0  0  0  0
   58.6418   27.7517   44.1275 H   0  0  0  0  0  0  0  0  0  0  0  0
   59.1780   30.4010   43.3620 H   0  0  0  0  0  0  0  0  0  0  0  0
   56.7505   32.8395   43.4180 H   0  0  0  0  0  0  0  0  0  0  0  0
   56.7961   34.9795   44.6898 H   0  0  0  0  0  0  0  0  0  0  0  0
   58.3371   35.2604   46.6247 H   0  0  0  0  0  0  0  0  0  0  0  0
   61.7922   34.1181   46.4916 H   0  0  0  0  0  0  0  0  0  0  0  0
   63.4694   34.1307   51.0164 H   0  0  0  0  0  0  0  0  0  0  0  0
   62.4475   33.5513   53.2142 H   0  0  0  0  0  0  0  0  0  0  0  0
   58.2677   32.4539   54.8550 H   0  0  0  0  0  0  0  0  0  0  0  0
   57.9863   33.5594   53.4546 H   0  0  0  0  0  0  0  0  0  0  0  0
   56.9313   31.1545   53.4149 H   0  0  0  0  0  0  0  0  0  0  0  0
   57.7480   31.7955   51.9356 H   0  0  0  0  0  0  0  0  0  0  0  0
   59.8826   30.6378   53.0584 H   0  0  0  0  0  0  0  0  0  0  0  0
   58.5894   29.6225   53.8296 H   0  0  0  0  0  0  0  0  0  0  0  0
   59.0531   28.3957   51.9139 H   0  0  0  0  0  0  0  0  0  0  0  0
   57.6784   29.4483   51.3711 H   0  0  0  0  0  0  0  0  0  0  0  0
   57.7991   29.6534   49.4935 H   0  0  0  0  0  0  0  0  0  0  0  0
   58.8852   31.0238   48.9373 H   0  0  0  0  0  0  0  0  0  0  0  0
   59.7060   28.1315   48.6666 H   0  0  0  0  0  0  0  0  0  0  0  0
   58.6725   29.0171   47.4249 H   0  0  0  0  0  0  0  0  0  0  0  0
   61.3594   28.8169   47.2763 H   0  0  0  0  0  0  0  0  0  0  0  0
   60.3490   30.2012   46.6288 H   0  0  0  0  0  0  0  0  0  0  0  0
   62.3677   30.9750   47.7995 H   0  0  0  0  0  0  0  0  0  0  0  0
   60.7819   31.4837   48.5946 H   0  0  0  0  0  0  0  0  0  0  0  0
   62.8297   29.4826   49.5820 H   0  0  0  0  0  0  0  0  0  0  0  0
   62.2126   31.0430   50.3443 H   0  0  0  0  0  0  0  0  0  0  0  0
   60.8453   28.3534   50.1590 H   0  0  0  0  0  0  0  0  0  0  0  0
   61.2800   29.3827   51.6197 H   0  0  0  0  0  0  0  0  0  0  0  0
   58.7036   32.6349   51.2440 H   0  0  0  0  0  0  0  0  0  0  0  0
   59.8352   31.2434   46.0038 H   0  0  0  0  0  0  0  0  0  0  0  0
  1  2  1  0
  2  3  2  0
  2  4  2  0
  2  5  1  0
  5  6  1  0
  6  7  2  0
  7  8  1  0
  8  9  2  0
  9 10  1  0
 10 11  1  0
 11 12  2  0
 12 13  1  0
 13 14  2  0
 13 15  1  0
 15 16  2  0
 16 17  1  0
 17 18  2  0
 18 19  1  0
 19 20  1  0
 20 21  1  0
 21 22  1  0
 22 23  1  0
 23 24  1  0
 24 25  1  0
 25 26  1  0
 26 27  1  0
 27 28  1  0
 28 29  1  0
 29 30  1  0
 18 31  1  0
 31 32  2  0
 32 33  1  0
 10 34  2  0
 34  6  1  0
 33 11  1  0
 32 15  1  0
 30 24  1  0
  1 35  1  0
  1 36  1  0
  1 37  1  0
  5 38  1  0
  7 39  1  0
  8 40  1  0
  9 41  1  0
 12 42  1  0
 16 43  1  0
 17 44  1  0
 20 45  1  0
 20 46  1  0
 21 47  1  0
 21 48  1  0
 22 49  1  0
 22 50  1  0
 23 51  1  0
 23 52  1  0
 25 53  1  0
 25 54  1  0
 26 55  1  0
 26 56  1  0
 27 57  1  0
 27 58  1  0
 28 59  1  0
 28 60  1  0
 29 61  1  0
 29 62  1  0
 30 63  1  0
 30 64  1  0
 31 65  1  0
 34 66  1  0
M  END
>  <UniqueID>  (30) 
28

>  <SMILES>  (30) 
CS(=O)(=O)Nc1cccc(-c2cc(=O)c3ccc(OCCCCN4CCCCCC4)cc3o2)c1

>  <Energy>  (30) 
86.17019584366736

>  <Genealogy>  (30) 
CS(=O)(=O)Nc1cccc(-c2cc(=O)c3ccc(OCCCCN4CCCCCC4)cc3o2)c1 (3D coordinates assigned)
CS(=O)(=O)Nc1cccc(-c2cc(=O)c3ccc(OCCCCN4CCCCCC4)cc3o2)c1 (nonaromatic ring conformer: 86.17019584366736 kcal/mol)

>  <smiles>  (30) 
CS(=O)(=O)Nc1cccc(-c2cc(=O)c3ccc(OCCCCN4CCCCCC4)cc3o2)c1

>  <score_type>  (30) 
oracle

>  <origin>  (30) 
adg

>  <m_score__min__energy>  (30) 
-6.2699999999999996

>  <m_primary>  (30) 
energy

$$$$
30:0
     RDKit          3D

 42 44  0  0  0  0  0  0  0  0999 V2000
   55.9110   24.8390   46.7250 C   0  0  0  0  0  0  0  0  0  0  0  0
   56.4560   25.8960   46.1290 C   0  0  0  0  0  0  0  0  0  0  0  0
   57.7880   26.0110   45.7440 C   0  0  0  0  0  0  0  0  0  0  0  0
   57.8450   27.2730   45.1940 C   0  0  0  0  0  0  0  0  0  0  0  0
   58.9280   27.9360   44.6340 C   0  0  0  0  0  0  0  0  0  0  0  0
   58.7180   29.2310   44.1440 C   0  0  0  0  0  0  0  0  0  0  0  0
   57.4330   29.8430   44.2130 C   0  0  0  0  0  0  0  0  0  0  0  0
   57.2040   31.0760   43.7080 C   0  0  0  0  0  0  0  0  0  0  0  0
   57.5530   32.3360   44.4020 C   0  0  0  0  0  0  0  0  0  0  0  0
   58.1810   33.2150   43.7480 O   0  0  0  0  0  0  0  0  0  0  0  0
   57.3350   32.5140   45.8330 N   0  0  0  0  0  0  0  0  0  0  0  0
   58.0920   31.5230   46.6320 C   0  0  0  0  0  0  0  0  0  0  0  0
   59.6250   31.6890   46.4490 C   0  0  2  0  0  0  0  0  0  0  0  0
   60.3830   31.3930   47.7540 C   0  0  0  0  0  0  0  0  0  0  0  0
   59.9750   33.0170   45.9030 N   0  0  0  0  0  0  0  0  0  0  0  0
   59.1920   34.1120   46.5000 C   0  0  1  0  0  0  0  0  0  0  0  0
   59.6100   35.4450   45.8690 C   0  0  0  0  0  0  0  0  0  0  0  0
   57.6630   33.8750   46.3280 C   0  0  0  0  0  0  0  0  0  0  0  0
   56.3740   29.0960   44.7950 C   0  0  0  0  0  0  0  0  0  0  0  0
   55.2060   29.5710   44.8900 O   0  0  0  0  0  0  0  0  0  0  0  0
   56.6340   27.8450   45.2580 N   0  0  0  0  0  0  0  0  0  0  0  0
   55.7680   27.0220   45.8250 N   0  0  0  0  0  0  0  0  0  0  0  0
   54.8435   24.8468   46.9902 H   0  0  0  0  0  0  0  0  0  0  0  0
   56.5279   23.9572   46.9527 H   0  0  0  0  0  0  0  0  0  0  0  0
   58.5977   25.2744   45.8522 H   0  0  0  0  0  0  0  0  0  0  0  0
   59.9182   27.4603   44.5769 H   0  0  0  0  0  0  0  0  0  0  0  0
   59.5581   29.7844   43.6989 H   0  0  0  0  0  0  0  0  0  0  0  0
   56.7282   31.1474   42.7188 H   0  0  0  0  0  0  0  0  0  0  0  0
   56.3140   32.3490   46.0030 H   0  0  0  0  0  0  0  0  0  0  0  0
   57.8432   31.6571   47.6951 H   0  0  0  0  0  0  0  0  0  0  0  0
   57.8120   30.5172   46.2858 H   0  0  0  0  0  0  0  0  0  0  0  0
   59.9454   30.9435   45.7063 H   0  0  0  0  0  0  0  0  0  0  0  0
   59.7440   31.6425   48.6139 H   0  0  0  0  0  0  0  0  0  0  0  0
   60.6469   30.3258   47.7908 H   0  0  0  0  0  0  0  0  0  0  0  0
   61.3003   31.9990   47.7908 H   0  0  0  0  0  0  0  0  0  0  0  0
   60.9980   33.1990   46.0310 H   0  0  0  0  0  0  0  0  0  0  0  0
   59.3990   34.1425   47.5799 H   0  0  0  0  0  0  0  0  0  0  0  0
   59.8377   36.1712   46.6632 H   0  0  0  0  0  0  0  0  0  0  0  0
   60.5031   35.2914   45.2455 H   0  0  0  0  0  0  0  0  0  0  0  0
   58.7891   35.8289   45.2455 H   0  0  0  0  0  0  0  0  0  0  0  0
   57.1747   34.0197   47.3030 H   0  0  0  0  0  0  0  0  0  0  0  0
   57.3032   34.5924   45.5758 H   0  0  0  0  0  0  0  0  0  0  0  0
  1  2  2  0
  2  3  1  0
  3  4  2  0
  4  5  1  0
  5  6  2  0
  6  7  1  0
  7  8  2  3
  8  9  1  0
  9 10  2  0
  9 11  1  0
 11 12  1  0
 12 13  1  0
 13 14  1  0
 13 15  1  0
 15 16  1  0
 16 17  1  0
 16 18  1  0
  7 19  1  0
 19 20  2  0
 19 21  1  0
 21 22  1  0
 22  2  1  0
 21  4  1  0
 18 11  1  0
  1 23  1  0
  1 24  1  0
  3 25  1  0
  5 26  1  0
  6 27  1  0
  8 28  1  0
 11 29  1  0
 12 30  1  0
 12 31  1  0
 13 32  1  6
 14 33  1  0
 14 34  1  0
 14 35  1  0
 15 36  1  0
 16 37  1  1
 17 38  1  0
 17 39  1  0
 17 40  1  0
 18 41  1  0
 18 42  1  0
M  CHG  2  11   1  22  -1
M  END
>  <UniqueID>  (31) 
29

>  <SMILES>  (31) 
C=c1cc2ccc(=CC(=O)[NH+]3C[C@H](C)N[C@@H](C)C3)c(=O)n2[n-]1

>  <Energy>  (31) 
98.93558614941105

>  <Genealogy>  (31) 
C=c1cc2ccc(=CC(=O)[NH+]3CC(C)NC(C)C3)c(=O)n2[n-]1 (protonated)
C=c1cc2ccc(=CC(=O)[NH+]3C[C@H](C)N[C@@H](C)C3)c(=O)n2[n-]1 (chirality)
C=c1cc2ccc(=CC(=O)[NH+]3C[C@H](C)N[C@@H](C)C3)c(=O)n2[n-]1 (3D coordinates assigned)
C=c1cc2ccc(=CC(=O)[NH+]3C[C@H](C)N[C@@H](C)C3)c(=O)n2[n-]1 (nonaromatic ring conformer: 98.93558614941105 kcal/mol)

>  <smiles>  (31) 
C=c1cc2ccc(=CC(=O)N3CC(C)NC(C)C3)c(=O)n2[nH]1

>  <score_type>  (31) 
oracle

>  <origin>  (31) 
adg

>  <m_score__min__energy>  (31) 
-8.6600000000000001

>  <m_primary>  (31) 
energy

$$$$
31:0
     RDKit          3D

 41 43  0  0  0  0  0  0  0  0999 V2000
   55.1620   26.9720   45.2860 H   0  0  0  0  0  0  0  0  0  0  0  0
   54.7150   26.3410   45.9870 N   0  0  0  0  0  0  0  0  0  0  0  0
   54.6600   24.9340   45.7640 C   0  0  0  0  0  0  0  0  0  0  0  0
   54.0040   24.4800   44.7900 O   0  0  0  0  0  0  0  0  0  0  0  0
   55.3910   23.9990   46.6810 C   0  0  0  0  0  0  0  0  0  0  0  0
   55.6074   24.5150   47.6280 H   0  0  0  0  0  0  0  0  0  0  0  0
   54.7616   23.1164   46.8678 H   0  0  0  0  0  0  0  0  0  0  0  0
   56.6890   23.5520   46.0490 C   0  0  0  0  0  0  0  0  0  0  0  0
   56.6580   22.4370   45.1910 C   0  0  0  0  0  0  0  0  0  0  0  0
   55.7068   21.9136   45.0145 H   0  0  0  0  0  0  0  0  0  0  0  0
   57.8200   21.9870   44.5610 C   0  0  0  0  0  0  0  0  0  0  0  0
   57.7792   21.1139   43.8931 H   0  0  0  0  0  0  0  0  0  0  0  0
   59.0340   22.6430   44.7770 C   0  0  0  0  0  0  0  0  0  0  0  0
   60.2000   22.2010   44.1560 O   0  0  0  0  0  0  0  0  0  0  0  0
   61.1030   22.2780   44.6090 H   0  0  0  0  0  0  0  0  0  0  0  0
   59.0820   23.7550   45.6220 C   0  0  0  0  0  0  0  0  0  0  0  0
   60.0424   24.2620   45.7968 H   0  0  0  0  0  0  0  0  0  0  0  0
   57.9200   24.2350   46.2520 C   0  0  0  0  0  0  0  0  0  0  0  0
   58.0370   25.4290   47.1660 C   0  0  0  0  0  0  0  0  0  0  0  0
   57.0341   25.8279   47.3784 H   0  0  0  0  0  0  0  0  0  0  0  0
   58.5174   25.1244   48.1075 H   0  0  0  0  0  0  0  0  0  0  0  0
   58.8440   26.4600   46.5190 N   0  0  0  0  0  0  0  0  0  0  0  0
   58.3950   27.6360   46.1970 C   0  0  0  0  0  0  0  0  0  0  0  0
   59.1460   28.7530   46.4080 N   0  0  0  0  0  0  0  0  0  0  0  0
   58.6920   29.9940   46.0810 C   0  0  0  0  0  0  0  0  0  0  0  0
   59.5460   31.1770   46.3590 C   0  0  0  0  0  0  0  0  0  0  0  0
   60.8350   30.9980   46.8990 C   0  0  0  0  0  0  0  0  0  0  0  0
   61.2063   29.9823   47.1003 H   0  0  0  0  0  0  0  0  0  0  0  0
   61.6460   32.1020   47.1810 C   0  0  0  0  0  0  0  0  0  0  0  0
   62.6467   31.9522   47.6125 H   0  0  0  0  0  0  0  0  0  0  0  0
   61.1880   33.3930   46.9160 C   0  0  0  0  0  0  0  0  0  0  0  0
   61.8261   34.2599   47.1424 H   0  0  0  0  0  0  0  0  0  0  0  0
   59.9210   33.5850   46.3640 C   0  0  0  0  0  0  0  0  0  0  0  0
   59.5650   34.6032   46.1484 H   0  0  0  0  0  0  0  0  0  0  0  0
   59.1020   32.4850   46.0840 C   0  0  0  0  0  0  0  0  0  0  0  0
   58.1053   32.6431   45.6464 H   0  0  0  0  0  0  0  0  0  0  0  0
   57.4090   30.1200   45.5250 C   0  0  0  0  0  0  0  0  0  0  0  0
   57.0089   31.1091   45.2576 H   0  0  0  0  0  0  0  0  0  0  0  0
   56.6510   28.9670   45.3180 C   0  0  0  0  0  0  0  0  0  0  0  0
   55.4940   29.0490   44.8310 O   0  0  0  0  0  0  0  0  0  0  0  0
   57.1560   27.7520   45.6530 N   0  0  0  0  0  0  0  0  0  0  0  0
  1  2  1  0
  2  3  1  0
  3  4  2  0
  3  5  1  0
  5  6  1  0
  5  7  1  0
  5  8  1  0
  8  9  2  0
  9 10  1  0
  9 11  1  0
 11 12  1  0
 11 13  2  0
 13 14  1  0
 14 15  1  0
 13 16  1  0
 16 17  1  0
 16 18  2  0
 18 19  1  0
 19 20  1  0
 19 21  1  0
 19 22  1  0
 22 23  2  0
 23 24  1  0
 24 25  1  0
 25 26  1  0
 26 27  2  0
 27 28  1  0
 27 29  1  0
 29 30  1  0
 29 31  2  0
 31 32  1  0
 31 33  1  0
 33 34  1  0
 33 35  2  0
 35 36  1  0
 25 37  2  0
 37 38  1  0
 37 39  1  0
 39 40  2  0
 39 41  1  0
 18  8  1  0
 41 23  1  0
 35 26  1  0
M  CHG  3   2  -1  24  -1  41  -1
M  END
>  <UniqueID>  (32) 
30

>  <SMILES>  (32) 
[NH-]C(=O)Cc1ccc(O)cc1C/N=c1\[n-]c(-c2ccccc2)cc(=O)[n-]1

>  <Energy>  (32) 
46.809933104941955

>  <Genealogy>  (32) 
[NH-]C(=O)Cc1ccc(O)cc1CN=c1[n-]c(-c2ccccc2)cc(=O)[n-]1 (protonated)
[NH-]C(=O)Cc1ccc(O)cc1C/N=c1\[n-]c(-c2ccccc2)cc(=O)[n-]1 (cis-trans isomerization)
[NH-]C(=O)Cc1ccc(O)cc1C/N=c1\[n-]c(-c2ccccc2)cc(=O)[n-]1 (3D coordinates assigned)
[NH-]C(=O)Cc1ccc(O)cc1C/N=c1\[n-]c(-c2ccccc2)cc(=O)[n-]1 (optimized conformer: 46.809933104941955 kcal/mol)

>  <smiles>  (32) 
NC(=O)Cc1ccc(O)cc1CN=c1[nH]c(-c2ccccc2)cc(=O)[nH]1

>  <score_type>  (32) 
oracle

>  <origin>  (32) 
adg

>  <m_score__min__energy>  (32) 
-13.779999999999999

>  <m_primary>  (32) 
energy

$$$$
32:0
     RDKit          3D

 49 51  0  0  0  0  0  0  0  0999 V2000
   58.6586   31.1942   48.3361 H   0  0  0  0  0  0  0  0  0  0  0  0
   58.5420   30.6720   47.3750 C   0  0  0  0  0  0  0  0  0  0  0  0
   58.8142   29.6096   47.2897 H   0  0  0  0  0  0  0  0  0  0  0  0
   58.0670   31.3320   46.3050 C   0  0  0  0  0  0  0  0  0  0  0  0
   57.8610   30.8090   45.0150 C   0  0  0  0  0  0  0  0  0  0  0  0
   57.9760   29.5570   44.5290 C   0  0  0  0  0  0  0  0  0  0  0  0
   58.5430   29.4318   43.5948 H   0  0  0  0  0  0  0  0  0  0  0  0
   57.4090   28.3410   45.1390 C   0  0  0  0  0  0  0  0  0  0  0  0
   56.0210   28.1730   45.2680 C   0  0  0  0  0  0  0  0  0  0  0  0
   55.1450   29.1720   44.8560 O   0  0  0  0  0  0  0  0  0  0  0  0
   55.5230   27.0270   45.7990 N   0  0  0  0  0  0  0  0  0  0  0  0
   56.3480   26.0240   46.1990 C   0  0  0  0  0  0  0  0  0  0  0  0
   55.8660   24.9720   46.6930 O   0  0  0  0  0  0  0  0  0  0  0  0
   57.6930   26.1550   46.0640 N   0  0  0  0  0  0  0  0  0  0  0  0
   58.2390   27.2820   45.5390 C   0  0  0  0  0  0  0  0  0  0  0  0
   59.4910   27.3680   45.4210 O   0  0  0  0  0  0  0  0  0  0  0  0
   57.4720   31.8750   44.2230 C   0  0  0  0  0  0  0  0  0  0  0  0
   57.2504   31.8433   43.1460 H   0  0  0  0  0  0  0  0  0  0  0  0
   57.4150   32.9820   45.0380 C   0  0  0  0  0  0  0  0  0  0  0  0
   57.0220   34.3520   44.5700 C   0  0  0  0  0  0  0  0  0  0  0  0
   56.8367   34.9979   45.4409 H   0  0  0  0  0  0  0  0  0  0  0  0
   57.8339   34.7790   43.9629 H   0  0  0  0  0  0  0  0  0  0  0  0
   56.1072   34.2837   43.9629 H   0  0  0  0  0  0  0  0  0  0  0  0
   57.7790   32.6640   46.3030 N   0  0  0  0  0  0  0  0  0  0  0  0
   57.9330   33.6280   47.4040 C   0  0  0  0  0  0  0  0  0  0  0  0
   57.5826   34.6161   47.0709 H   0  0  0  0  0  0  0  0  0  0  0  0
   57.3387   33.2830   48.2629 H   0  0  0  0  0  0  0  0  0  0  0  0
   59.3800   33.7300   47.8230 C   0  0  0  0  0  0  0  0  0  0  0  0
   59.7200   33.2320   48.8890 O   0  0  0  0  0  0  0  0  0  0  0  0
   60.3560   34.4070   46.9880 N   0  0  2  0  0  0  0  0  0  0  0  0
   60.8720   35.0980   47.5820 H   0  0  0  0  0  0  0  0  0  0  0  0
   59.6970   35.1960   45.9340 C   0  0  0  0  0  0  0  0  0  0  0  0
   59.0569   35.9623   46.3956 H   0  0  0  0  0  0  0  0  0  0  0  0
   60.4602   35.6833   45.3094 H   0  0  0  0  0  0  0  0  0  0  0  0
   59.0815   34.5318   45.3094 H   0  0  0  0  0  0  0  0  0  0  0  0
   61.3790   33.4770   46.4470 C   0  0  0  0  0  0  0  0  0  0  0  0
   60.8590   32.6196   45.9948 H   0  0  0  0  0  0  0  0  0  0  0  0
   61.9719   34.0524   45.7208 H   0  0  0  0  0  0  0  0  0  0  0  0
   62.3540   32.9490   47.4760 C   0  0  0  0  0  0  0  0  0  0  0  0
   62.0890   31.7440   48.1490 C   0  0  0  0  0  0  0  0  0  0  0  0
   61.1678   31.1850   47.9279 H   0  0  0  0  0  0  0  0  0  0  0  0
   62.9900   31.2520   49.0980 C   0  0  0  0  0  0  0  0  0  0  0  0
   62.7804   30.3037   49.6146 H   0  0  0  0  0  0  0  0  0  0  0  0
   64.1560   31.9630   49.3910 C   0  0  0  0  0  0  0  0  0  0  0  0
   64.8669   31.5721   50.1339 H   0  0  0  0  0  0  0  0  0  0  0  0
   64.4190   33.1710   48.7400 C   0  0  0  0  0  0  0  0  0  0  0  0
   65.3342   33.7340   48.9756 H   0  0  0  0  0  0  0  0  0  0  0  0
   63.5210   33.6650   47.7900 C   0  0  0  0  0  0  0  0  0  0  0  0
   63.7292   34.6199   47.2853 H   0  0  0  0  0  0  0  0  0  0  0  0
  1  2  1  0
  2  3  1  0
  2  4  2  0
  4  5  1  0
  5  6  2  0
  6  7  1  0
  6  8  1  0
  8  9  2  0
  9 10  1  0
  9 11  1  0
 11 12  1  0
 12 13  2  0
 12 14  1  0
 14 15  1  0
 15 16  2  0
  5 17  1  0
 17 18  1  0
 17 19  2  0
 19 20  1  0
 20 21  1  0
 20 22  1  0
 20 23  1  0
 19 24  1  0
 24 25  1  0
 25 26  1  0
 25 27  1  0
 25 28  1  0
 28 29  2  0
 28 30  1  0
 30 31  1  1
 30 32  1  0
 32 33  1  0
 32 34  1  0
 32 35  1  0
 30 36  1  0
 36 37  1  0
 36 38  1  0
 36 39  1  0
 39 40  2  0
 40 41  1  0
 40 42  1  0
 42 43  1  0
 42 44  2  0
 44 45  1  0
 44 46  1  0
 46 47  1  0
 46 48  2  0
 48 49  1  0
 24  4  1  0
 48 39  1  0
 15  8  1  0
M  CHG  4  10  -1  11  -1  14  -1  30   1
M  END
>  <UniqueID>  (33) 
31

>  <SMILES>  (33) 
C=c1/c(=C\c2c([O-])[n-]c(=O)[n-]c2=O)cc(C)n1CC(=O)[N@H+](C)Cc1ccccc1

>  <Energy>  (33) 
95.14908296211513

>  <Genealogy>  (33) 
C=c1c(=Cc2c([O-])[n-]c(=O)[n-]c2=O)cc(C)n1CC(=O)[NH+](C)Cc1ccccc1 (protonated)
C=c1c(=Cc2c([O-])[n-]c(=O)[n-]c2=O)cc(C)n1CC(=O)[N@H+](C)Cc1ccccc1 (chirality)
C=c1/c(=C\c2c([O-])[n-]c(=O)[n-]c2=O)cc(C)n1CC(=O)[N@H+](C)Cc1ccccc1 (cis-trans isomerization)
C=c1/c(=C\c2c([O-])[n-]c(=O)[n-]c2=O)cc(C)n1CC(=O)[N@H+](C)Cc1ccccc1 (3D coordinates assigned)
C=c1/c(=C\c2c([O-])[n-]c(=O)[n-]c2=O)cc(C)n1CC(=O)[N@H+](C)Cc1ccccc1 (optimized conformer: 95.14908296211513 kcal/mol)

>  <smiles>  (33) 
C=c1c(=Cc2c(O)[nH]c(=O)[nH]c2=O)cc(C)n1CC(=O)N(C)Cc1ccccc1

>  <score_type>  (33) 
oracle

>  <origin>  (33) 
adg

>  <m_score__min__energy>  (33) 
-15.039999999999999

>  <m_primary>  (33) 
energy

$$$$
33:0
     RDKit          3D

 50 54  0  0  0  0  0  0  0  0999 V2000
   60.9620   27.2590   47.9840 O   0  0  0  0  0  0  0  0  0  0  0  0
   60.1160   28.1660   48.2140 C   0  0  0  0  0  0  0  0  0  0  0  0
   58.9200   28.2700   47.3480 C   0  0  0  0  0  0  0  0  0  0  0  0
   58.5330   29.5060   46.8120 C   0  0  0  0  0  0  0  0  0  0  0  0
   57.4090   29.5950   45.9900 C   0  0  0  0  0  0  0  0  0  0  0  0
   56.6490   28.4600   45.7000 C   0  0  0  0  0  0  0  0  0  0  0  0
   55.5440   28.5970   44.8670 O   0  0  0  0  0  0  0  0  0  0  0  0
   57.0070   27.2100   46.2510 C   0  0  0  0  0  0  0  0  0  0  0  0
   56.2190   25.9780   45.9810 C   0  0  0  0  0  0  0  0  0  0  0  0
   54.8470   26.0030   45.9430 N   0  0  0  0  0  0  0  0  0  0  0  0
   54.3420   24.7840   45.6790 C   0  0  0  0  0  0  0  0  0  0  0  0
   53.1150   24.5330   45.5850 O   0  0  0  0  0  0  0  0  0  0  0  0
   55.5760   23.6960   45.4990 S   0  0  0  0  0  0  0  0  0  0  0  0
   56.8160   24.7710   45.7580 N   0  0  0  0  0  0  0  0  0  0  0  0
   58.1450   27.1330   47.0780 C   0  0  0  0  0  0  0  0  0  0  0  0
   60.3450   29.0930   49.2940 N   0  0  0  0  0  0  0  0  0  0  0  0
   60.1540   30.5350   49.0640 C   0  0  0  0  0  0  0  0  0  0  0  0
   60.8010   31.3790   50.1700 C   0  0  0  0  0  0  0  0  0  0  0  0
   62.1370   30.8520   50.4980 N   0  0  0  0  0  0  0  0  0  0  0  0
   63.2700   31.7250   50.6770 C   0  0  0  0  0  0  0  0  0  0  0  0
   64.4390   31.5660   50.0130 N   0  0  0  0  0  0  0  0  0  0  0  0
   65.3480   32.5210   50.3410 C   0  0  0  0  0  0  0  0  0  0  0  0
   66.6040   32.5620   49.7450 O   0  0  0  0  0  0  0  0  0  0  0  0
   64.9170   33.4600   51.2820 C   0  0  0  0  0  0  0  0  0  0  0  0
   65.6720   34.6210   51.8050 C   0  0  0  0  0  0  0  0  0  0  0  0
   67.0730   34.6580   51.6880 C   0  0  0  0  0  0  0  0  0  0  0  0
   67.7970   35.7480   52.1810 C   0  0  0  0  0  0  0  0  0  0  0  0
   67.1300   36.8160   52.7870 C   0  0  0  0  0  0  0  0  0  0  0  0
   65.7390   36.7950   52.8990 C   0  0  0  0  0  0  0  0  0  0  0  0
   65.0100   35.7040   52.4110 C   0  0  0  0  0  0  0  0  0  0  0  0
   63.3310   33.0670   51.6980 S   0  0  0  0  0  0  0  0  0  0  0  0
   62.3200   29.4070   50.7080 C   0  0  0  0  0  0  0  0  0  0  0  0
   61.0090   28.6380   50.5210 C   0  0  0  0  0  0  0  0  0  0  0  0
   59.1177   30.4093   47.0403 H   0  0  0  0  0  0  0  0  0  0  0  0
   57.1190   30.5680   45.5666 H   0  0  0  0  0  0  0  0  0  0  0  0
   58.4299   26.1662   47.5186 H   0  0  0  0  0  0  0  0  0  0  0  0
   60.6076   30.8048   48.0989 H   0  0  0  0  0  0  0  0  0  0  0  0
   59.0735   30.7411   49.0644 H   0  0  0  0  0  0  0  0  0  0  0  0
   60.8956   32.4191   49.8247 H   0  0  0  0  0  0  0  0  0  0  0  0
   60.1686   31.3372   51.0691 H   0  0  0  0  0  0  0  0  0  0  0  0
   66.7000   32.7270   48.7510 H   0  0  0  0  0  0  0  0  0  0  0  0
   67.6030   33.8237   51.2053 H   0  0  0  0  0  0  0  0  0  0  0  0
   68.8932   35.7648   52.0917 H   0  0  0  0  0  0  0  0  0  0  0  0
   67.7007   37.6724   53.1754 H   0  0  0  0  0  0  0  0  0  0  0  0
   65.2140   37.6380   53.3720 H   0  0  0  0  0  0  0  0  0  0  0  0
   63.9138   35.6937   52.5020 H   0  0  0  0  0  0  0  0  0  0  0  0
   63.0595   29.0323   49.9850 H   0  0  0  0  0  0  0  0  0  0  0  0
   62.6652   29.2511   51.7408 H   0  0  0  0  0  0  0  0  0  0  0  0
   61.2231   27.5617   50.4444 H   0  0  0  0  0  0  0  0  0  0  0  0
   60.3508   28.8208   51.3832 H   0  0  0  0  0  0  0  0  0  0  0  0
  1  2  2  0
  2  3  1  0
  3  4  2  0
  4  5  1  0
  5  6  2  0
  6  7  1  0
  6  8  1  0
  8  9  1  0
  9 10  2  0
 10 11  1  0
 11 12  2  0
 11 13  1  0
 13 14  1  0
  8 15  2  0
  2 16  1  0
 16 17  1  0
 17 18  1  0
 18 19  1  0
 19 20  1  0
 20 21  2  0
 21 22  1  0
 22 23  1  0
 22 24  2  0
 24 25  1  0
 25 26  2  0
 26 27  1  0
 27 28  2  0
 28 29  1  0
 29 30  2  0
 24 31  1  0
 19 32  1  0
 32 33  1  0
 15  3  1  0
 33 16  1  0
 14  9  1  0
 31 20  1  0
 30 25  1  0
  4 34  1  0
  5 35  1  0
 15 36  1  0
 17 37  1  0
 17 38  1  0
 18 39  1  0
 18 40  1  0
 23 41  1  0
 26 42  1  0
 27 43  1  0
 28 44  1  0
 29 45  1  0
 30 46  1  0
 32 47  1  0
 32 48  1  0
 33 49  1  0
 33 50  1  0
M  CHG  2   7  -1  14  -1
M  END
>  <UniqueID>  (34) 
32

>  <SMILES>  (34) 
O=C(c1ccc([O-])c(-c2nc(=O)s[n-]2)c1)N1CCN(c2nc(O)c(-c3ccccc3)s2)CC1

>  <Energy>  (34) 
136.9210505529669

>  <Genealogy>  (34) 
O=C(c1ccc([O-])c(-c2nc(=O)s[n-]2)c1)N1CCN(c2nc(O)c(-c3ccccc3)s2)CC1 (protonated)
O=C(c1ccc([O-])c(-c2nc(=O)s[n-]2)c1)N1CCN(c2nc(O)c(-c3ccccc3)s2)CC1 (3D coordinates assigned)
O=C(c1ccc([O-])c(-c2nc(=O)s[n-]2)c1)N1CCN(c2nc(O)c(-c3ccccc3)s2)CC1 (nonaromatic ring conformer: 136.9210505529669 kcal/mol)

>  <smiles>  (34) 
O=C(c1ccc(O)c(-c2nc(=O)s[nH]2)c1)N1CCN(c2nc(O)c(-c3ccccc3)s2)CC1

>  <score_type>  (34) 
oracle

>  <origin>  (34) 
adg

>  <m_score__min__energy>  (34) 
-11.880000000000001

>  <m_primary>  (34) 
energy

$$$$
34:0
     RDKit          3D

 58 61  0  0  0  0  0  0  0  0999 V2000
   60.6980   33.8460   45.9900 O   0  0  0  0  0  0  0  0  0  0  0  0
   59.5900   33.9070   46.5860 C   0  0  0  0  0  0  0  0  0  0  0  0
   58.4690   34.4910   45.9110 N   0  0  0  0  0  0  0  0  0  0  0  0
   57.3370   33.7250   45.3950 C   0  0  0  0  0  0  0  0  0  0  0  0
   57.7610   32.8980   44.1810 C   0  0  0  0  0  0  0  0  0  0  0  0
   57.5470   31.4280   44.4290 C   0  0  0  0  0  0  0  0  0  0  0  0
   58.6120   30.6180   44.8570 C   0  0  0  0  0  0  0  0  0  0  0  0
   58.3960   29.2680   45.1500 C   0  0  0  0  0  0  0  0  0  0  0  0
   57.1140   28.7160   45.0280 C   0  0  0  0  0  0  0  0  0  0  0  0
   56.8920   27.3720   45.3240 O   0  0  0  0  0  0  0  0  0  0  0  0
   56.0470   29.5210   44.6100 C   0  0  0  0  0  0  0  0  0  0  0  0
   54.7710   28.9830   44.4940 O   0  0  0  0  0  0  0  0  0  0  0  0
   56.2630   30.8710   44.3130 C   0  0  0  0  0  0  0  0  0  0  0  0
   59.4650   33.3460   47.9450 C   0  0  0  0  0  0  0  0  0  0  0  0
   59.6590   34.1520   49.0760 C   0  0  0  0  0  0  0  0  0  0  0  0
   59.5070   33.6110   50.3550 C   0  0  0  0  0  0  0  0  0  0  0  0
   59.1760   32.2540   50.4970 C   0  0  0  0  0  0  0  0  0  0  0  0
   58.9470   31.6770   51.7980 N   0  0  0  0  0  0  0  0  0  0  0  0
   59.1050   30.2360   52.0080 C   0  0  0  0  0  0  0  0  0  0  0  0
   57.7230   29.5760   52.1750 C   0  0  0  0  0  0  0  0  0  0  0  0
   56.7010   30.4730   52.7830 N   0  0  0  0  0  0  0  0  0  0  0  0
   55.7870   31.0580   51.7770 C   0  0  0  0  0  0  0  0  0  0  0  0
   54.3920   30.5120   51.9400 C   0  0  0  0  0  0  0  0  0  0  0  0
   54.1550   29.3860   52.7470 C   0  0  0  0  0  0  0  0  0  0  0  0
   52.8580   28.8840   52.8920 C   0  0  0  0  0  0  0  0  0  0  0  0
   51.7900   29.5040   52.2350 C   0  0  0  0  0  0  0  0  0  0  0  0
   52.0190   30.6230   51.4300 C   0  0  0  0  0  0  0  0  0  0  0  0
   53.3150   31.1260   51.2810 C   0  0  0  0  0  0  0  0  0  0  0  0
   57.3070   31.5170   53.6430 C   0  0  0  0  0  0  0  0  0  0  0  0
   58.2450   32.4400   52.8390 C   0  0  0  0  0  0  0  0  0  0  0  0
   59.0340   31.4840   49.3830 N   0  0  0  0  0  0  0  0  0  0  0  0
   59.1750   31.9880   48.1310 C   0  0  0  0  0  0  0  0  0  0  0  0
   56.9672   33.0507   46.1815 H   0  0  0  0  0  0  0  0  0  0  0  0
   56.5431   34.4231   45.0911 H   0  0  0  0  0  0  0  0  0  0  0  0
   57.1649   33.2064   43.3095 H   0  0  0  0  0  0  0  0  0  0  0  0
   58.8315   33.0703   43.9957 H   0  0  0  0  0  0  0  0  0  0  0  0
   59.6193   31.0473   44.9620 H   0  0  0  0  0  0  0  0  0  0  0  0
   59.2355   28.6371   45.4774 H   0  0  0  0  0  0  0  0  0  0  0  0
   56.2710   26.8020   44.7610 H   0  0  0  0  0  0  0  0  0  0  0  0
   55.4218   31.5001   43.9866 H   0  0  0  0  0  0  0  0  0  0  0  0
   59.9311   35.2110   48.9560 H   0  0  0  0  0  0  0  0  0  0  0  0
   59.6456   34.2435   51.2442 H   0  0  0  0  0  0  0  0  0  0  0  0
   59.6174   29.7949   51.1403 H   0  0  0  0  0  0  0  0  0  0  0  0
   59.7001   30.0656   52.9173 H   0  0  0  0  0  0  0  0  0  0  0  0
   57.3650   29.2638   51.1828 H   0  0  0  0  0  0  0  0  0  0  0  0
   57.8534   28.7257   52.8606 H   0  0  0  0  0  0  0  0  0  0  0  0
   55.7637   32.1505   51.9030 H   0  0  0  0  0  0  0  0  0  0  0  0
   56.1532   30.7961   50.7733 H   0  0  0  0  0  0  0  0  0  0  0  0
   54.9928   28.8979   53.2664 H   0  0  0  0  0  0  0  0  0  0  0  0
   52.6775   28.0012   53.5229 H   0  0  0  0  0  0  0  0  0  0  0  0
   50.7695   29.1105   52.3521 H   0  0  0  0  0  0  0  0  0  0  0  0
   51.1785   31.1088   50.9128 H   0  0  0  0  0  0  0  0  0  0  0  0
   53.4915   32.0061   50.6451 H   0  0  0  0  0  0  0  0  0  0  0  0
   56.5043   32.1235   54.0877 H   0  0  0  0  0  0  0  0  0  0  0  0
   57.9006   31.0184   54.4234 H   0  0  0  0  0  0  0  0  0  0  0  0
   57.6516   33.2366   52.3663 H   0  0  0  0  0  0  0  0  0  0  0  0
   58.9877   32.8765   53.5230 H   0  0  0  0  0  0  0  0  0  0  0  0
   59.0611   31.3277   47.2586 H   0  0  0  0  0  0  0  0  0  0  0  0
  1  2  2  0
  2  3  1  0
  3  4  1  0
  4  5  1  0
  5  6  1  0
  6  7  2  0
  7  8  1  0
  8  9  2  0
  9 10  1  0
  9 11  1  0
 11 12  1  0
 11 13  2  0
  2 14  1  0
 14 15  2  0
 15 16  1  0
 16 17  2  0
 17 18  1  0
 18 19  1  0
 19 20  1  0
 20 21  1  0
 21 22  1  0
 22 23  1  0
 23 24  2  0
 24 25  1  0
 25 26  2  0
 26 27  1  0
 27 28  2  0
 21 29  1  0
 29 30  1  0
 17 31  1  0
 31 32  2  0
 13  6  1  0
 32 14  1  0
 30 18  1  0
 28 23  1  0
  4 33  1  0
  4 34  1  0
  5 35  1  0
  5 36  1  0
  7 37  1  0
  8 38  1  0
 10 39  1  0
 13 40  1  0
 15 41  1  0
 16 42  1  0
 19 43  1  0
 19 44  1  0
 20 45  1  0
 20 46  1  0
 22 47  1  0
 22 48  1  0
 24 49  1  0
 25 50  1  0
 26 51  1  0
 27 52  1  0
 28 53  1  0
 29 54  1  0
 29 55  1  0
 30 56  1  0
 30 57  1  0
 32 58  1  0
M  CHG  2   3  -1  12  -1
M  END
>  <UniqueID>  (35) 
33

>  <SMILES>  (35) 
O=C([N-]CCc1ccc(O)c([O-])c1)c1ccc(N2CCN(Cc3ccccc3)CC2)nc1

>  <Energy>  (35) 
73.2024761586687

>  <Genealogy>  (35) 
O=C([N-]CCc1ccc(O)c([O-])c1)c1ccc(N2CCN(Cc3ccccc3)CC2)nc1 (protonated)
O=C([N-]CCc1ccc(O)c([O-])c1)c1ccc(N2CCN(Cc3ccccc3)CC2)nc1 (3D coordinates assigned)
O=C([N-]CCc1ccc(O)c([O-])c1)c1ccc(N2CCN(Cc3ccccc3)CC2)nc1 (nonaromatic ring conformer: 73.2024761586687 kcal/mol)

>  <smiles>  (35) 
O=C(NCCc1ccc(O)c(O)c1)c1ccc(N2CCN(Cc3ccccc3)CC2)nc1

>  <score_type>  (35) 
oracle

>  <origin>  (35) 
adg

>  <m_score__min__energy>  (35) 
-13.279999999999999

>  <m_primary>  (35) 
energy

$$$$
35:0
     RDKit          3D

 56 59  0  0  0  0  0  0  0  0999 V2000
   56.4150   29.6960   44.4120 C   0  0  0  0  0  0  0  0  0  0  0  0
   57.6540   29.4210   44.8520 C   0  0  0  0  0  0  0  0  0  0  0  0
   58.1870   28.1510   45.1310 C   0  0  0  0  0  0  0  0  0  0  0  0
   57.7140   26.9160   44.8750 C   0  0  0  0  0  0  0  0  0  0  0  0
   57.2070   25.9650   45.8760 C   0  0  0  0  0  0  0  0  0  0  0  0
   57.9250   24.9340   46.3530 N   0  0  0  0  0  0  0  0  0  0  0  0
   57.0400   24.2670   47.1260 C   0  0  0  0  0  0  0  0  0  0  0  0
   57.3480   23.2300   47.7670 O   0  0  0  0  0  0  0  0  0  0  0  0
   55.7960   24.7920   47.1460 N   0  0  0  0  0  0  0  0  0  0  0  0
   55.9140   25.8570   46.3380 C   0  0  0  0  0  0  0  0  0  0  0  0
   54.8560   26.6960   46.0070 O   0  0  0  0  0  0  0  0  0  0  0  0
   59.3980   28.3700   45.7650 C   0  0  0  0  0  0  0  0  0  0  0  0
   59.5900   29.7350   45.8020 C   0  0  0  0  0  0  0  0  0  0  0  0
   60.8020   30.4050   46.3760 C   0  0  0  0  0  0  0  0  0  0  0  0
   58.5470   30.3770   45.2280 N   0  0  0  0  0  0  0  0  0  0  0  0
   58.3800   31.8360   45.1530 C   0  0  0  0  0  0  0  0  0  0  0  0
   57.7610   32.3700   46.4490 C   0  0  0  0  0  0  0  0  0  0  0  0
   58.8320   32.6880   47.4550 C   0  0  0  0  0  0  0  0  0  0  0  0
   58.9960   31.8840   48.5940 C   0  0  0  0  0  0  0  0  0  0  0  0
   59.9710   32.1980   49.5430 C   0  0  0  0  0  0  0  0  0  0  0  0
   60.7850   33.3260   49.3750 C   0  0  0  0  0  0  0  0  0  0  0  0
   62.0280   33.6940   50.5670 S   0  0  0  0  0  0  0  0  0  0  0  0
   62.7400   34.9640   50.1870 O   0  0  0  0  0  0  0  0  0  0  0  0
   61.3710   33.8960   51.9040 O   0  0  0  0  0  0  0  0  0  0  0  0
   63.1640   32.3720   50.6600 N   0  0  0  0  0  0  0  0  0  0  0  0
   63.0500   31.6970   51.9670 C   0  0  0  0  0  0  0  0  0  0  0  0
   64.1950   30.6820   52.1770 C   0  0  0  0  0  0  0  0  0  0  0  0
   64.9500   30.5040   50.9960 O   0  0  0  0  0  0  0  0  0  0  0  0
   65.5670   31.7260   50.6370 C   0  0  0  0  0  0  0  0  0  0  0  0
   64.5370   32.8610   50.4440 C   0  0  0  0  0  0  0  0  0  0  0  0
   60.6180   34.1360   48.2420 C   0  0  0  0  0  0  0  0  0  0  0  0
   59.6420   33.8240   47.2920 C   0  0  0  0  0  0  0  0  0  0  0  0
   56.1149   30.7384   44.2294 H   0  0  0  0  0  0  0  0  0  0  0  0
   55.7005   28.8788   44.2343 H   0  0  0  0  0  0  0  0  0  0  0  0
   57.7062   26.5899   43.8245 H   0  0  0  0  0  0  0  0  0  0  0  0
   60.0773   27.6019   46.1632 H   0  0  0  0  0  0  0  0  0  0  0  0
   60.7509   30.3768   47.4744 H   0  0  0  0  0  0  0  0  0  0  0  0
   61.7067   29.8789   46.0374 H   0  0  0  0  0  0  0  0  0  0  0  0
   60.8377   31.4510   46.0374 H   0  0  0  0  0  0  0  0  0  0  0  0
   59.3628   32.3059   45.0002 H   0  0  0  0  0  0  0  0  0  0  0  0
   57.7116   32.0760   44.3130 H   0  0  0  0  0  0  0  0  0  0  0  0
   57.1904   33.2839   46.2273 H   0  0  0  0  0  0  0  0  0  0  0  0
   57.0975   31.5996   46.8689 H   0  0  0  0  0  0  0  0  0  0  0  0
   58.3537   31.0029   48.7395 H   0  0  0  0  0  0  0  0  0  0  0  0
   60.1007   31.5565   50.4271 H   0  0  0  0  0  0  0  0  0  0  0  0
   62.9190   31.6940   49.9010 H   0  0  0  0  0  0  0  0  0  0  0  0
   63.0905   32.4528   52.7652 H   0  0  0  0  0  0  0  0  0  0  0  0
   62.0945   31.1526   51.9941 H   0  0  0  0  0  0  0  0  0  0  0  0
   64.8582   31.0505   52.9735 H   0  0  0  0  0  0  0  0  0  0  0  0
   63.7525   29.7137   52.4539 H   0  0  0  0  0  0  0  0  0  0  0  0
   66.2697   32.0158   51.4321 H   0  0  0  0  0  0  0  0  0  0  0  0
   66.0882   31.5746   49.6802 H   0  0  0  0  0  0  0  0  0  0  0  0
   64.7495   33.6655   51.1635 H   0  0  0  0  0  0  0  0  0  0  0  0
   64.6172   33.2346   49.4125 H   0  0  0  0  0  0  0  0  0  0  0  0
   61.2575   35.0198   48.1009 H   0  0  0  0  0  0  0  0  0  0  0  0
   59.5074   34.4709   46.4125 H   0  0  0  0  0  0  0  0  0  0  0  0
  1  2  2  0
  2  3  1  0
  3  4  2  3
  4  5  1  0
  5  6  1  0
  6  7  1  0
  7  8  2  0
  7  9  1  0
  9 10  1  0
 10 11  1  0
  3 12  1  0
 12 13  2  0
 13 14  1  0
 13 15  1  0
 15 16  1  0
 16 17  1  0
 17 18  1  0
 18 19  2  0
 19 20  1  0
 20 21  2  0
 21 22  1  0
 22 23  2  0
 22 24  2  0
 22 25  1  0
 25 26  1  0
 26 27  1  0
 27 28  1  0
 28 29  1  0
 29 30  1  0
 21 31  1  0
 31 32  2  0
 15  2  1  0
 32 18  1  0
 10  5  2  0
 30 25  1  0
  1 33  1  0
  1 34  1  0
  4 35  1  0
 12 36  1  0
 14 37  1  0
 14 38  1  0
 14 39  1  0
 16 40  1  0
 16 41  1  0
 17 42  1  0
 17 43  1  0
 19 44  1  0
 20 45  1  0
 25 46  1  0
 26 47  1  0
 26 48  1  0
 27 49  1  0
 27 50  1  0
 29 51  1  0
 29 52  1  0
 30 53  1  0
 30 54  1  0
 31 55  1  0
 32 56  1  0
M  CHG  4   6  -1   9  -1  11  -1  25   1
M  END
>  <UniqueID>  (36) 
34

>  <SMILES>  (36) 
C=c1c(=Cc2[n-]c(=O)[n-]c2[O-])cc(C)n1CCc1ccc(S(=O)(=O)[NH+]2CCOCC2)cc1

>  <Energy>  (36) 
132.03070971718685

>  <Genealogy>  (36) 
C=c1c(=Cc2[n-]c(=O)[n-]c2[O-])cc(C)n1CCc1ccc(S(=O)(=O)[NH+]2CCOCC2)cc1 (protonated)
C=c1c(=Cc2[n-]c(=O)[n-]c2[O-])cc(C)n1CCc1ccc(S(=O)(=O)[NH+]2CCOCC2)cc1 (3D coordinates assigned)
C=c1c(=Cc2[n-]c(=O)[n-]c2[O-])cc(C)n1CCc1ccc(S(=O)(=O)[NH+]2CCOCC2)cc1 (nonaromatic ring conformer: 132.03070971718685 kcal/mol)

>  <smiles>  (36) 
C=c1c(=Cc2[nH]c(=O)[nH]c2O)cc(C)n1CCc1ccc(S(=O)(=O)N2CCOCC2)cc1

>  <score_type>  (36) 
oracle

>  <origin>  (36) 
adg

>  <m_score__min__energy>  (36) 
-16.719999999999999

>  <m_primary>  (36) 
energy

$$$$
36:0
     RDKit          3D

 41 44  0  0  0  0  0  0  0  0999 V2000
   56.7140   26.3980   43.7260 H   0  0  0  0  0  0  0  0  0  0  0  0
   57.4180   26.5240   44.4390 O   0  0  0  0  0  0  0  0  0  0  0  0
   57.9580   27.7730   44.7410 C   0  0  0  0  0  0  0  0  0  0  0  0
   58.9180   27.8920   45.7610 C   0  0  0  0  0  0  0  0  0  0  0  0
   59.2375   26.9976   46.3160 H   0  0  0  0  0  0  0  0  0  0  0  0
   59.4750   29.1480   46.0790 C   0  0  0  0  0  0  0  0  0  0  0  0
   60.2257   29.2249   46.8793 H   0  0  0  0  0  0  0  0  0  0  0  0
   59.0790   30.3020   45.3820 C   0  0  0  0  0  0  0  0  0  0  0  0
   59.5070   31.2855   45.6261 H   0  0  0  0  0  0  0  0  0  0  0  0
   58.1260   30.1640   44.3700 C   0  0  0  0  0  0  0  0  0  0  0  0
   57.5300   31.0910   43.5290 C   0  0  0  0  0  0  0  0  0  0  0  0
   57.7400   32.5450   43.4440 C   0  0  0  0  0  0  0  0  0  0  0  0
   58.1928   32.9759   42.5388 H   0  0  0  0  0  0  0  0  0  0  0  0
   57.3980   33.3260   44.4230 N   0  0  0  0  0  0  0  0  0  0  0  0
   58.2030   33.6420   45.5710 C   0  0  0  0  0  0  0  0  0  0  0  0
   59.2160   34.5980   45.4280 C   0  0  0  0  0  0  0  0  0  0  0  0
   59.3646   35.0943   44.4576 H   0  0  0  0  0  0  0  0  0  0  0  0
   60.0400   34.9270   46.5080 C   0  0  0  0  0  0  0  0  0  0  0  0
   60.8164   35.6969   46.3881 H   0  0  0  0  0  0  0  0  0  0  0  0
   59.8840   34.2840   47.7400 C   0  0  0  0  0  0  0  0  0  0  0  0
   60.7300   34.6400   48.8000 O   0  0  0  0  0  0  0  0  0  0  0  0
   62.0250   34.1420   49.0080 C   0  0  0  0  0  0  0  0  0  0  0  0
   62.6210   34.1250   50.2840 C   0  0  0  0  0  0  0  0  0  0  0  0
   62.0725   34.5215   51.1512 H   0  0  0  0  0  0  0  0  0  0  0  0
   63.9090   33.6050   50.4510 C   0  0  0  0  0  0  0  0  0  0  0  0
   64.3745   33.6008   51.4476 H   0  0  0  0  0  0  0  0  0  0  0  0
   64.6050   33.0910   49.3540 C   0  0  0  0  0  0  0  0  0  0  0  0
   65.6201   32.6885   49.4865 H   0  0  0  0  0  0  0  0  0  0  0  0
   64.0120   33.0880   48.0880 C   0  0  0  0  0  0  0  0  0  0  0  0
   64.5588   32.6792   47.2255 H   0  0  0  0  0  0  0  0  0  0  0  0
   62.7230   33.6050   47.9180 C   0  0  0  0  0  0  0  0  0  0  0  0
   62.2547   33.5898   46.9228 H   0  0  0  0  0  0  0  0  0  0  0  0
   58.8640   33.3280   47.8920 C   0  0  0  0  0  0  0  0  0  0  0  0
   58.7170   32.8343   48.8639 H   0  0  0  0  0  0  0  0  0  0  0  0
   58.0360   33.0020   46.8140 C   0  0  0  0  0  0  0  0  0  0  0  0
   57.2504   32.2420   46.9373 H   0  0  0  0  0  0  0  0  0  0  0  0
   56.6370   30.3680   42.7460 C   0  0  0  0  0  0  0  0  0  0  0  0
   55.9914   30.8029   41.9688 H   0  0  0  0  0  0  0  0  0  0  0  0
   56.6720   29.0570   43.0720 N   0  0  0  0  0  0  0  0  0  0  0  0
   56.0980   28.3030   42.6360 H   0  0  0  0  0  0  0  0  0  0  0  0
   57.5800   28.9390   44.0600 C   0  0  0  0  0  0  0  0  0  0  0  0
  1  2  1  0
  2  3  1  0
  3  4  2  0
  4  5  1  0
  4  6  1  0
  6  7  1  0
  6  8  2  0
  8  9  1  0
  8 10  1  0
 10 11  1  0
 11 12  1  0
 12 13  1  0
 12 14  2  0
 14 15  1  0
 15 16  2  0
 16 17  1  0
 16 18  1  0
 18 19  1  0
 18 20  2  0
 20 21  1  0
 21 22  1  0
 22 23  2  0
 23 24  1  0
 23 25  1  0
 25 26  1  0
 25 27  2  0
 27 28  1  0
 27 29  1  0
 29 30  1  0
 29 31  2  0
 31 32  1  0
 20 33  1  0
 33 34  1  0
 33 35  2  0
 35 36  1  0
 11 37  2  0
 37 38  1  0
 37 39  1  0
 39 40  1  0
 39 41  1  0
 41  3  1  0
 41 10  2  0
 35 15  1  0
 31 22  1  0
M  END
>  <UniqueID>  (37) 
35

>  <SMILES>  (37) 
Oc1cccc2c(/C=N/c3ccc(Oc4ccccc4)cc3)c[nH]c12

>  <Energy>  (37) 
88.55663031852498

>  <Genealogy>  (37) 
Oc1cccc2c(/C=N/c3ccc(Oc4ccccc4)cc3)c[nH]c12 (cis-trans isomerization)
Oc1cccc2c(/C=N/c3ccc(Oc4ccccc4)cc3)c[nH]c12 (3D coordinates assigned)
Oc1cccc2c(/C=N/c3ccc(Oc4ccccc4)cc3)c[nH]c12 (optimized conformer: 88.55663031852498 kcal/mol)

>  <smiles>  (37) 
Oc1cccc2c(C=Nc3ccc(Oc4ccccc4)cc3)c[nH]c12

>  <score_type>  (37) 
oracle

>  <origin>  (37) 
adg

>  <m_score__min__energy>  (37) 
-10.449999999999999

>  <m_primary>  (37) 
energy

$$$$
37:0
     RDKit          3D

 57 60  0  0  0  0  0  0  0  0999 V2000
   56.6690   22.8980   42.9760 C   0  0  0  0  0  0  0  0  0  0  0  0
   57.2780   23.7270   44.0680 C   0  0  0  0  0  0  0  0  0  0  0  0
   56.6720   24.8870   44.4340 N   0  0  0  0  0  0  0  0  0  0  0  0
   57.1620   25.6910   45.4150 C   0  0  0  0  0  0  0  0  0  0  0  0
   56.3600   26.8660   45.8020 C   0  0  0  0  0  0  0  0  0  0  0  0
   55.1370   26.7160   46.0650 O   0  0  0  0  0  0  0  0  0  0  0  0
   56.9730   28.1610   45.9020 N   0  0  0  0  0  0  0  0  0  0  0  0
   57.1040   29.1380   44.8620 C   0  0  0  0  0  0  0  0  0  0  0  0
   58.2370   29.9630   44.8570 C   0  0  0  0  0  0  0  0  0  0  0  0
   58.3950   30.9440   43.8730 C   0  0  0  0  0  0  0  0  0  0  0  0
   57.4120   31.1180   42.8930 C   0  0  0  0  0  0  0  0  0  0  0  0
   57.6090   32.3520   41.6610 Cl  0  0  0  0  0  0  0  0  0  0  0  0
   56.2660   30.3160   42.9050 C   0  0  0  0  0  0  0  0  0  0  0  0
   56.1050   29.3340   43.8870 C   0  0  0  0  0  0  0  0  0  0  0  0
   58.3710   25.3200   46.0530 C   0  0  0  0  0  0  0  0  0  0  0  0
   59.0770   26.1720   47.0280 C   0  0  0  0  0  0  0  0  0  0  0  0
   58.9040   26.0010   48.2660 O   0  0  0  0  0  0  0  0  0  0  0  0
   59.9490   27.2050   46.5510 N   0  0  0  0  0  0  0  0  0  0  0  0
   59.9320   28.5850   46.9440 C   0  0  0  0  0  0  0  0  0  0  0  0
   60.8050   29.5330   46.3800 C   0  0  0  0  0  0  0  0  0  0  0  0
   60.7610   30.8670   46.7970 C   0  0  0  0  0  0  0  0  0  0  0  0
   59.8530   31.2700   47.7850 C   0  0  0  0  0  0  0  0  0  0  0  0
   59.7890   32.9600   48.3010 S   0  0  0  0  0  0  0  0  0  0  0  0
   59.1040   33.0380   49.6370 O   0  0  0  0  0  0  0  0  0  0  0  0
   61.1920   33.4740   48.4670 O   0  0  0  0  0  0  0  0  0  0  0  0
   58.9390   33.9810   47.1660 N   0  0  0  0  0  0  0  0  0  0  0  0
   59.7390   34.2640   45.9760 C   0  0  0  0  0  0  0  0  0  0  0  0
   58.7530   34.5770   44.8620 C   0  0  0  0  0  0  0  0  0  0  0  0
   57.4320   33.9680   45.3100 C   0  0  0  0  0  0  0  0  0  0  0  0
   57.7130   33.3540   46.6740 C   0  0  0  0  0  0  0  0  0  0  0  0
   59.0120   30.3160   48.3770 C   0  0  0  0  0  0  0  0  0  0  0  0
   59.0560   28.9830   47.9610 C   0  0  0  0  0  0  0  0  0  0  0  0
   58.9580   24.1440   45.7020 N   0  0  0  0  0  0  0  0  0  0  0  0
   58.4470   23.3300   44.7420 C   0  0  0  0  0  0  0  0  0  0  0  0
   59.1640   22.0550   44.4100 C   0  0  0  0  0  0  0  0  0  0  0  0
   56.0732   22.0870   43.4202 H   0  0  0  0  0  0  0  0  0  0  0  0
   56.0198   23.5313   42.3535 H   0  0  0  0  0  0  0  0  0  0  0  0
   57.4674   22.4678   42.3535 H   0  0  0  0  0  0  0  0  0  0  0  0
   59.0072   29.8380   45.6324 H   0  0  0  0  0  0  0  0  0  0  0  0
   59.2930   31.5793   43.8696 H   0  0  0  0  0  0  0  0  0  0  0  0
   55.4891   30.4584   42.1394 H   0  0  0  0  0  0  0  0  0  0  0  0
   55.1970   28.7131   43.8988 H   0  0  0  0  0  0  0  0  0  0  0  0
   61.5250   29.2237   45.6080 H   0  0  0  0  0  0  0  0  0  0  0  0
   61.4427   31.6037   46.3471 H   0  0  0  0  0  0  0  0  0  0  0  0
   60.3967   35.1272   46.1559 H   0  0  0  0  0  0  0  0  0  0  0  0
   60.3801   33.4096   45.7134 H   0  0  0  0  0  0  0  0  0  0  0  0
   58.6512   35.6646   44.7322 H   0  0  0  0  0  0  0  0  0  0  0  0
   59.0846   34.1701   43.8953 H   0  0  0  0  0  0  0  0  0  0  0  0
   56.6573   34.7448   45.3897 H   0  0  0  0  0  0  0  0  0  0  0  0
   57.0617   33.2205   44.5930 H   0  0  0  0  0  0  0  0  0  0  0  0
   56.8792   33.5581   47.3618 H   0  0  0  0  0  0  0  0  0  0  0  0
   57.8248   32.2620   46.6036 H   0  0  0  0  0  0  0  0  0  0  0  0
   58.3149   30.6188   49.1722 H   0  0  0  0  0  0  0  0  0  0  0  0
   58.3976   28.2408   48.4360 H   0  0  0  0  0  0  0  0  0  0  0  0
   59.4518   21.5433   45.3402 H   0  0  0  0  0  0  0  0  0  0  0  0
   58.5002   21.4031   43.8232 H   0  0  0  0  0  0  0  0  0  0  0  0
   60.0659   22.2836   43.8232 H   0  0  0  0  0  0  0  0  0  0  0  0
  1  2  1  0
  2  3  2  0
  3  4  1  0
  4  5  1  0
  5  6  2  0
  5  7  1  0
  7  8  1  0
  8  9  2  0
  9 10  1  0
 10 11  2  0
 11 12  1  0
 11 13  1  0
 13 14  2  0
  4 15  2  0
 15 16  1  0
 16 17  2  0
 16 18  1  0
 18 19  1  0
 19 20  2  0
 20 21  1  0
 21 22  2  0
 22 23  1  0
 23 24  2  0
 23 25  2  0
 23 26  1  0
 26 27  1  0
 27 28  1  0
 28 29  1  0
 29 30  1  0
 22 31  1  0
 31 32  2  0
 15 33  1  0
 33 34  2  0
 34 35  1  0
 34  2  1  0
 14  8  1  0
 32 19  1  0
 30 26  1  0
  1 36  1  0
  1 37  1  0
  1 38  1  0
  9 39  1  0
 10 40  1  0
 13 41  1  0
 14 42  1  0
 20 43  1  0
 21 44  1  0
 27 45  1  0
 27 46  1  0
 28 47  1  0
 28 48  1  0
 29 49  1  0
 29 50  1  0
 30 51  1  0
 30 52  1  0
 31 53  1  0
 32 54  1  0
 35 55  1  0
 35 56  1  0
 35 57  1  0
M  CHG  2   7  -1  18  -1
M  END
>  <UniqueID>  (38) 
36

>  <SMILES>  (38) 
Cc1nc(C(=O)[N-]c2ccc(Cl)cc2)c(C(=O)[N-]c2ccc(S(=O)(=O)N3CCCC3)cc2)nc1C

>  <Energy>  (38) 
75.82377923194151

>  <Genealogy>  (38) 
Cc1nc(C(=O)[N-]c2ccc(Cl)cc2)c(C(=O)[N-]c2ccc(S(=O)(=O)N3CCCC3)cc2)nc1C (protonated)
Cc1nc(C(=O)[N-]c2ccc(Cl)cc2)c(C(=O)[N-]c2ccc(S(=O)(=O)N3CCCC3)cc2)nc1C (3D coordinates assigned)
Cc1nc(C(=O)[N-]c2ccc(Cl)cc2)c(C(=O)[N-]c2ccc(S(=O)(=O)N3CCCC3)cc2)nc1C (nonaromatic ring conformer: 75.82377923194151 kcal/mol)

>  <smiles>  (38) 
Cc1nc(C(=O)Nc2ccc(Cl)cc2)c(C(=O)Nc2ccc(S(=O)(=O)N3CCCC3)cc2)nc1C

>  <score_type>  (38) 
oracle

>  <origin>  (38) 
adg

>  <m_score__min__energy>  (38) 
-13.029999999999999

>  <m_primary>  (38) 
energy

$$$$
38:0
     RDKit          3D

 27 28  0  0  0  0  0  0  0  0999 V2000
   55.1450   28.0700   45.7950 H   0  0  0  0  0  0  0  0  0  0  0  0
   55.5190   28.6250   45.0350 O   0  0  0  0  0  0  0  0  0  0  0  0
   56.5050   29.5810   45.2640 C   0  0  0  0  0  0  0  0  0  0  0  0
   56.3490   30.8340   44.7600 N   0  0  0  0  0  0  0  0  0  0  0  0
   57.2590   31.8200   44.9750 C   0  0  0  0  0  0  0  0  0  0  0  0
   57.0660   32.9590   44.4720 O   0  0  0  0  0  0  0  0  0  0  0  0
   58.4000   31.5650   45.7540 C   0  0  0  0  0  0  0  0  0  0  0  0
   59.4260   32.6380   45.9940 C   0  0  0  0  0  0  0  0  0  0  0  0
   59.5618   32.7800   47.0763 H   0  0  0  0  0  0  0  0  0  0  0  0
   60.3825   32.3387   45.5406 H   0  0  0  0  0  0  0  0  0  0  0  0
   59.0842   33.5801   45.5406 H   0  0  0  0  0  0  0  0  0  0  0  0
   58.5860   30.2770   46.2740 C   0  0  0  0  0  0  0  0  0  0  0  0
   59.4745   30.0577   46.8843 H   0  0  0  0  0  0  0  0  0  0  0  0
   57.6480   29.2660   46.0220 C   0  0  0  0  0  0  0  0  0  0  0  0
   57.8610   27.9100   46.5820 C   0  0  0  0  0  0  0  0  0  0  0  0
   59.0200   27.5730   46.9410 O   0  0  0  0  0  0  0  0  0  0  0  0
   56.7870   26.9740   46.7660 N   0  0  0  0  0  0  0  0  0  0  0  0
   56.6120   25.8590   46.1160 C   0  0  0  0  0  0  0  0  0  0  0  0
   57.6590   25.0210   45.8600 N   0  0  0  0  0  0  0  0  0  0  0  0
   57.4980   23.8470   45.1950 C   0  0  0  0  0  0  0  0  0  0  0  0
   58.3672   23.2014   45.0010 H   0  0  0  0  0  0  0  0  0  0  0  0
   56.2300   23.4600   44.7580 C   0  0  0  0  0  0  0  0  0  0  0  0
   56.0932   22.5115   44.2180 H   0  0  0  0  0  0  0  0  0  0  0  0
   55.1380   24.2900   45.0140 C   0  0  0  0  0  0  0  0  0  0  0  0
   54.1326   23.9967   44.6776 H   0  0  0  0  0  0  0  0  0  0  0  0
   55.3230   25.4940   45.6980 C   0  0  0  0  0  0  0  0  0  0  0  0
   54.2320   26.3190   45.9560 O   0  0  0  0  0  0  0  0  0  0  0  0
  1  2  1  0
  2  3  1  0
  3  4  1  0
  4  5  1  0
  5  6  2  0
  5  7  1  0
  7  8  1  0
  8  9  1  0
  8 10  1  0
  8 11  1  0
  7 12  2  0
 12 13  1  0
 12 14  1  0
 14 15  1  0
 15 16  2  0
 15 17  1  0
 17 18  2  0
 18 19  1  0
 19 20  1  0
 20 21  1  0
 20 22  2  0
 22 23  1  0
 22 24  1  0
 24 25  1  0
 24 26  2  0
 26 27  1  0
 14  3  2  0
 26 18  1  0
M  CHG  3   4  -1  19  -1  27  -1
M  END
>  <UniqueID>  (39) 
37

>  <SMILES>  (39) 
Cc1cc(C(=O)/N=c2\[n-]cccc2[O-])c(O)[n-]c1=O

>  <Energy>  (39) 
38.37790133787577

>  <Genealogy>  (39) 
Cc1cc(C(=O)N=c2[n-]cccc2[O-])c(O)[n-]c1=O (protonated)
Cc1cc(C(=O)/N=c2\[n-]cccc2[O-])c(O)[n-]c1=O (cis-trans isomerization)
Cc1cc(C(=O)/N=c2\[n-]cccc2[O-])c(O)[n-]c1=O (3D coordinates assigned)
Cc1cc(C(=O)/N=c2\[n-]cccc2[O-])c(O)[n-]c1=O (optimized conformer: 38.37790133787577 kcal/mol)

>  <smiles>  (39) 
Cc1cc(C(=O)N=c2[nH]cccc2O)c(O)[nH]c1=O

>  <score_type>  (39) 
oracle

>  <origin>  (39) 
adg

>  <m_score__min__energy>  (39) 
-14.09

>  <m_primary>  (39) 
energy

$$$$
39:0
     RDKit          3D

 39 42  0  0  0  0  0  0  0  0999 V2000
   55.9650   35.0290   45.4560 H   0  0  0  0  0  0  0  0  0  0  0  0
   56.6600   34.5060   44.8780 N   0  0  0  0  0  0  0  0  0  0  0  0
   57.3440   33.5000   45.3270 C   0  0  0  0  0  0  0  0  0  0  0  0
   57.0160   32.2240   44.8770 O   0  0  0  0  0  0  0  0  0  0  0  0
   57.6700   31.0610   45.3020 C   0  0  0  0  0  0  0  0  0  0  0  0
   58.8150   31.1380   46.0180 C   0  0  0  0  0  0  0  0  0  0  0  0
   59.5740   29.8850   46.2970 C   0  0  0  0  0  0  0  0  0  0  0  0
   60.7870   29.9360   46.6340 O   0  0  0  0  0  0  0  0  0  0  0  0
   58.9080   28.5740   46.1610 C   0  0  0  0  0  0  0  0  0  0  0  0
   59.4990   27.4140   46.6910 C   0  0  0  0  0  0  0  0  0  0  0  0
   60.4817   27.4762   47.1813 H   0  0  0  0  0  0  0  0  0  0  0  0
   58.8470   26.1850   46.5990 C   0  0  0  0  0  0  0  0  0  0  0  0
   59.3188   25.2797   47.0088 H   0  0  0  0  0  0  0  0  0  0  0  0
   57.5960   26.1040   45.9870 C   0  0  0  0  0  0  0  0  0  0  0  0
   57.0758   25.1365   45.9288 H   0  0  0  0  0  0  0  0  0  0  0  0
   57.0020   27.2470   45.4480 C   0  0  0  0  0  0  0  0  0  0  0  0
   56.0122   27.1751   44.9735 H   0  0  0  0  0  0  0  0  0  0  0  0
   57.6620   28.4960   45.5070 C   0  0  0  0  0  0  0  0  0  0  0  0
   57.0870   29.7430   44.9160 C   0  0  0  0  0  0  0  0  0  0  0  0
   56.0970   29.7060   44.0100 C   0  0  0  0  0  0  0  0  0  0  0  0
   55.6963   30.6424   43.5947 H   0  0  0  0  0  0  0  0  0  0  0  0
   55.6866   28.7392   43.6830 H   0  0  0  0  0  0  0  0  0  0  0  0
   59.4310   32.5020   46.3430 C   0  0  2  0  0  0  0  0  0  0  0  0
   60.1164   32.7003   45.5058 H   0  0  0  0  0  0  0  0  0  0  0  0
   60.2110   32.4800   47.6510 C   0  0  0  0  0  0  0  0  0  0  0  0
   59.5590   32.2340   48.8740 C   0  0  0  0  0  0  0  0  0  0  0  0
   58.4759   32.0422   48.8872 H   0  0  0  0  0  0  0  0  0  0  0  0
   60.2790   32.2320   50.0710 C   0  0  0  0  0  0  0  0  0  0  0  0
   59.7629   32.0324   51.0217 H   0  0  0  0  0  0  0  0  0  0  0  0
   61.6530   32.4830   50.0630 C   0  0  0  0  0  0  0  0  0  0  0  0
   62.2183   32.4785   51.0066 H   0  0  0  0  0  0  0  0  0  0  0  0
   62.3100   32.7400   48.8560 C   0  0  0  0  0  0  0  0  0  0  0  0
   64.1870   33.0910   48.8480 Br  0  0  0  0  0  0  0  0  0  0  0  0
   61.5920   32.7420   47.6540 C   0  0  0  0  0  0  0  0  0  0  0  0
   62.1114   32.9497   46.7069 H   0  0  0  0  0  0  0  0  0  0  0  0
   58.3940   33.6570   46.3970 C   0  0  1  0  0  0  0  0  0  0  0  0
   57.8680   33.6223   47.3624 H   0  0  0  0  0  0  0  0  0  0  0  0
   59.0950   34.9530   46.2890 C   0  0  0  0  0  0  0  0  0  0  0  0
   59.6440   35.9680   46.2060 N   0  0  0  0  0  0  0  0  0  0  0  0
  1  2  1  0
  2  3  2  0
  3  4  1  0
  4  5  1  0
  5  6  2  0
  6  7  1  0
  7  8  2  0
  7  9  1  0
  9 10  2  0
 10 11  1  0
 10 12  1  0
 12 13  1  0
 12 14  2  0
 14 15  1  0
 14 16  1  0
 16 17  1  0
 16 18  2  0
 18 19  1  0
 19 20  2  0
 20 21  1  0
 20 22  1  0
  6 23  1  0
 23 24  1  6
 23 25  1  0
 25 26  2  0
 26 27  1  0
 26 28  1  0
 28 29  1  0
 28 30  2  0
 30 31  1  0
 30 32  1  0
 32 33  1  0
 32 34  2  0
 34 35  1  0
 23 36  1  0
 36 37  1  1
 36 38  1  0
 38 39  3  0
 36  3  1  0
 19  5  1  0
 34 25  1  0
 18  9  1  0
M  END
>  <UniqueID>  (40) 
38

>  <SMILES>  (40) 
[H]/N=C1/OC2=C(C(=O)c3ccccc3C2=C)[C@H](c2cccc(Br)c2)[C@H]1C#N

>  <Energy>  (40) 
56.04262239754505

>  <Genealogy>  (40) 
C=C1C2=C(C(=O)c3ccccc31)[C@H](c1cccc(Br)c1)[C@@H](C#N)C(=N)O2 (chirality)
[H]/N=C1/OC2=C(C(=O)c3ccccc3C2=C)[C@H](c2cccc(Br)c2)[C@H]1C#N (cis-trans isomerization)
[H]/N=C1/OC2=C(C(=O)c3ccccc3C2=C)[C@H](c2cccc(Br)c2)[C@H]1C#N (3D coordinates assigned)
[H]/N=C1/OC2=C(C(=O)c3ccccc3C2=C)[C@H](c2cccc(Br)c2)[C@H]1C#N (nonaromatic ring conformer: 56.04262239754505 kcal/mol)

>  <smiles>  (40) 
C=C1C2=C(C(=O)c3ccccc31)C(c1cccc(Br)c1)C(C#N)C(=N)O2

>  <score_type>  (40) 
oracle

>  <origin>  (40) 
adg

>  <m_score__min__energy>  (40) 
-8.9600000000000009

>  <m_primary>  (40) 
energy

$$$$
40:0
     RDKit          3D

 54 57  0  0  0  0  0  0  0  0999 V2000
   55.5780   30.1370   44.4740 O   0  0  0  0  0  0  0  0  0  0  0  0
   56.8270   30.0040   44.5670 C   0  0  0  0  0  0  0  0  0  0  0  0
   57.4210   28.7690   44.1410 N   0  0  0  0  0  0  0  0  0  0  0  0
   58.1240   27.8430   44.9830 C   0  0  0  0  0  0  0  0  0  0  0  0
   59.4920   28.0030   45.2720 C   0  0  0  0  0  0  0  0  0  0  0  0
   60.1450   27.0900   46.1040 C   0  0  0  0  0  0  0  0  0  0  0  0
   59.4470   26.0040   46.6390 C   0  0  0  0  0  0  0  0  0  0  0  0
   58.0920   25.8200   46.3320 C   0  0  0  0  0  0  0  0  0  0  0  0
   57.1920   24.4730   47.0240 S   0  0  0  0  0  0  0  0  0  0  0  0
   55.7230   24.6310   46.7440 O   0  0  0  0  0  0  0  0  0  0  0  0
   57.3960   24.4590   48.5130 O   0  0  0  0  0  0  0  0  0  0  0  0
   57.7530   22.9750   46.3560 N   0  0  0  0  0  0  0  0  0  0  0  0
   58.1780   23.2050   44.9790 C   0  0  0  0  0  0  0  0  0  0  0  0
   57.7410   22.0890   44.0480 C   0  0  0  0  0  0  0  0  0  0  0  0
   57.0320   23.4340   44.0090 C   0  0  0  0  0  0  0  0  0  0  0  0
   57.4370   26.7390   45.5000 C   0  0  0  0  0  0  0  0  0  0  0  0
   57.6360   31.0990   45.1480 C   0  0  0  0  0  0  0  0  0  0  0  0
   57.7810   32.3210   44.4710 C   0  0  0  0  0  0  0  0  0  0  0  0
   58.5120   33.3640   45.0450 C   0  0  0  0  0  0  0  0  0  0  0  0
   59.1140   33.1990   46.2980 C   0  0  0  0  0  0  0  0  0  0  0  0
   59.9830   34.5420   47.0450 S   0  0  0  0  0  0  0  0  0  0  0  0
   59.2530   34.9700   48.2880 O   0  0  0  0  0  0  0  0  0  0  0  0
   60.0110   35.7090   46.0970 O   0  0  0  0  0  0  0  0  0  0  0  0
   61.6180   34.0890   47.4620 N   0  0  0  0  0  0  0  0  0  0  0  0
   61.7460   33.9120   48.9170 C   0  0  0  0  0  0  0  0  0  0  0  0
   63.2270   33.7620   49.3100 C   0  0  0  0  0  0  0  0  0  0  0  0
   64.0920   33.2400   48.1490 C   0  0  0  0  0  0  0  0  0  0  0  0
   63.3140   32.2420   47.2870 C   0  0  0  0  0  0  0  0  0  0  0  0
   62.0040   32.8570   46.7420 C   0  0  0  0  0  0  0  0  0  0  0  0
   58.9990   31.9710   46.9630 C   0  0  0  0  0  0  0  0  0  0  0  0
   58.2700   30.9260   46.3900 C   0  0  0  0  0  0  0  0  0  0  0  0
   60.0485   28.8488   44.8419 H   0  0  0  0  0  0  0  0  0  0  0  0
   61.2110   27.2264   46.3384 H   0  0  0  0  0  0  0  0  0  0  0  0
   59.9616   25.2928   47.3018 H   0  0  0  0  0  0  0  0  0  0  0  0
   59.1201   23.7293   45.1970 H   0  0  0  0  0  0  0  0  0  0  0  0
   58.3886   21.7842   43.2128 H   0  0  0  0  0  0  0  0  0  0  0  0
   57.4217   21.0448   44.1814 H   0  0  0  0  0  0  0  0  0  0  0  0
   57.1669   24.1023   43.1458 H   0  0  0  0  0  0  0  0  0  0  0  0
   55.9876   23.7664   44.1026 H   0  0  0  0  0  0  0  0  0  0  0  0
   56.3756   26.5911   45.2519 H   0  0  0  0  0  0  0  0  0  0  0  0
   57.3164   32.4576   43.4833 H   0  0  0  0  0  0  0  0  0  0  0  0
   58.6150   34.3195   44.5098 H   0  0  0  0  0  0  0  0  0  0  0  0
   61.3223   34.7893   49.4277 H   0  0  0  0  0  0  0  0  0  0  0  0
   61.2033   33.0029   49.2155 H   0  0  0  0  0  0  0  0  0  0  0  0
   63.6108   34.7443   49.6226 H   0  0  0  0  0  0  0  0  0  0  0  0
   63.2845   33.0282   50.1274 H   0  0  0  0  0  0  0  0  0  0  0  0
   64.4033   34.0892   47.5229 H   0  0  0  0  0  0  0  0  0  0  0  0
   64.9697   32.7278   48.5702 H   0  0  0  0  0  0  0  0  0  0  0  0
   63.9442   31.9363   46.4388 H   0  0  0  0  0  0  0  0  0  0  0  0
   63.0520   31.3777   47.9149 H   0  0  0  0  0  0  0  0  0  0  0  0
   62.1430   33.0985   45.6779 H   0  0  0  0  0  0  0  0  0  0  0  0
   61.2014   32.1187   46.8861 H   0  0  0  0  0  0  0  0  0  0  0  0
   59.4845   31.8293   47.9398 H   0  0  0  0  0  0  0  0  0  0  0  0
   58.1919   29.9621   46.9142 H   0  0  0  0  0  0  0  0  0  0  0  0
  1  2  2  0
  2  3  1  0
  3  4  1  0
  4  5  2  0
  5  6  1  0
  6  7  2  0
  7  8  1  0
  8  9  1  0
  9 10  2  0
  9 11  2  0
  9 12  1  0
 12 13  1  0
 13 14  1  0
 14 15  1  0
  8 16  2  0
  2 17  1  0
 17 18  2  0
 18 19  1  0
 19 20  2  0
 20 21  1  0
 21 22  2  0
 21 23  2  0
 21 24  1  0
 24 25  1  0
 25 26  1  0
 26 27  1  0
 27 28  1  0
 28 29  1  0
 20 30  1  0
 30 31  2  0
 16  4  1  0
 31 17  1  0
 15 13  1  0
 29 24  1  0
  5 32  1  0
  6 33  1  0
  7 34  1  0
 13 35  1  0
 14 36  1  0
 14 37  1  0
 15 38  1  0
 15 39  1  0
 16 40  1  0
 18 41  1  0
 19 42  1  0
 25 43  1  0
 25 44  1  0
 26 45  1  0
 26 46  1  0
 27 47  1  0
 27 48  1  0
 28 49  1  0
 28 50  1  0
 29 51  1  0
 29 52  1  0
 30 53  1  0
 31 54  1  0
M  CHG  2   3  -1  12  -1
M  END
>  <UniqueID>  (41) 
39

>  <SMILES>  (41) 
O=C([N-]c1cccc(S(=O)(=O)[N-]C2CC2)c1)c1ccc(S(=O)(=O)N2CCCCC2)cc1

>  <Energy>  (41) 
326.9171476303293

>  <Genealogy>  (41) 
O=C([N-]c1cccc(S(=O)(=O)[N-]C2CC2)c1)c1ccc(S(=O)(=O)N2CCCCC2)cc1 (protonated)
O=C([N-]c1cccc(S(=O)(=O)[N-]C2CC2)c1)c1ccc(S(=O)(=O)N2CCCCC2)cc1 (3D coordinates assigned)
O=C([N-]c1cccc(S(=O)(=O)[N-]C2CC2)c1)c1ccc(S(=O)(=O)N2CCCCC2)cc1 (nonaromatic ring conformer: 326.9171476303293 kcal/mol)

>  <smiles>  (41) 
O=C(Nc1cccc(S(=O)(=O)NC2CC2)c1)c1ccc(S(=O)(=O)N2CCCCC2)cc1

>  <score_type>  (41) 
oracle

>  <origin>  (41) 
adg

>  <m_score__min__energy>  (41) 
-13.359999999999999

>  <m_primary>  (41) 
energy

$$$$
41:0
     RDKit          3D

 56 59  0  0  0  0  0  0  0  0999 V2000
   62.8080   34.8890   50.2170 N   0  0  0  0  0  0  0  0  0  0  0  0
   62.9670   33.8550   49.2360 C   0  0  0  0  0  0  0  0  0  0  0  0
   63.2350   34.2060   47.9030 C   0  0  0  0  0  0  0  0  0  0  0  0
   63.3940   33.2180   46.9290 C   0  0  0  0  0  0  0  0  0  0  0  0
   63.2800   31.8720   47.2750 C   0  0  0  0  0  0  0  0  0  0  0  0
   63.0120   31.5080   48.5990 C   0  0  0  0  0  0  0  0  0  0  0  0
   62.8740   32.4940   49.5960 C   0  0  0  0  0  0  0  0  0  0  0  0
   62.5750   32.1440   50.9560 N   0  0  0  0  0  0  0  0  0  0  0  0
   61.5750   31.2230   51.4180 C   0  0  0  0  0  0  0  0  0  0  0  0
   61.3440   31.1040   52.6500 O   0  0  0  0  0  0  0  0  0  0  0  0
   60.7690   30.4570   50.4370 C   0  0  0  0  0  0  0  0  0  0  0  0
   61.2370   29.2300   49.9330 C   0  0  0  0  0  0  0  0  0  0  0  0
   60.4740   28.5000   49.0160 C   0  0  0  0  0  0  0  0  0  0  0  0
   59.2290   28.9830   48.5870 C   0  0  0  0  0  0  0  0  0  0  0  0
   58.4010   28.1980   47.6050 C   0  0  0  0  0  0  0  0  0  0  0  0
   59.0860   28.0890   46.3210 N   0  0  0  0  0  0  0  0  0  0  0  0
   58.7030   27.1660   45.2950 C   0  0  0  0  0  0  0  0  0  0  0  0
   59.1080   25.9730   45.3260 O   0  0  0  0  0  0  0  0  0  0  0  0
   57.8090   27.6210   44.1850 C   0  0  0  0  0  0  0  0  0  0  0  0
   57.5210   29.0850   44.3130 C   0  0  0  0  0  0  0  0  0  0  0  0
   58.4210   30.0560   44.0780 N   0  0  0  0  0  0  0  0  0  0  0  0
   57.7260   31.1960   44.2970 C   0  0  0  0  0  0  0  0  0  0  0  0
   58.3290   32.5590   44.1540 C   0  0  0  0  0  0  0  0  0  0  0  0
   58.8050   33.0720   45.4890 C   0  0  0  0  0  0  0  0  0  0  0  0
   58.4710   34.3800   45.8800 C   0  0  0  0  0  0  0  0  0  0  0  0
   58.8900   34.8800   47.1150 C   0  0  0  0  0  0  0  0  0  0  0  0
   59.6450   34.0780   47.9740 C   0  0  0  0  0  0  0  0  0  0  0  0
   59.9810   32.7750   47.6000 C   0  0  0  0  0  0  0  0  0  0  0  0
   59.5640   32.2630   46.3620 C   0  0  0  0  0  0  0  0  0  0  0  0
   59.9030   30.9590   46.0010 O   0  0  0  0  0  0  0  0  0  0  0  0
   56.4380   30.9990   44.6550 N   0  0  0  0  0  0  0  0  0  0  0  0
   56.3240   29.6630   44.6590 C   0  0  0  0  0  0  0  0  0  0  0  0
   55.1520   28.9870   44.9710 O   0  0  0  0  0  0  0  0  0  0  0  0
   58.7630   30.2100   49.0790 C   0  0  0  0  0  0  0  0  0  0  0  0
   59.5230   30.9400   49.9980 C   0  0  0  0  0  0  0  0  0  0  0  0
   62.8760   35.9000   49.9660 H   0  0  0  0  0  0  0  0  0  0  0  0
   62.5940   34.6460   51.2100 H   0  0  0  0  0  0  0  0  0  0  0  0
   63.3203   35.2666   47.6241 H   0  0  0  0  0  0  0  0  0  0  0  0
   63.6093   33.5017   45.8883 H   0  0  0  0  0  0  0  0  0  0  0  0
   63.4010   31.0951   46.5057 H   0  0  0  0  0  0  0  0  0  0  0  0
   62.9084   30.4453   48.8633 H   0  0  0  0  0  0  0  0  0  0  0  0
   62.2117   28.8412   50.2630 H   0  0  0  0  0  0  0  0  0  0  0  0
   60.8522   27.5422   48.6292 H   0  0  0  0  0  0  0  0  0  0  0  0
   58.2250   27.1892   48.0068 H   0  0  0  0  0  0  0  0  0  0  0  0
   57.4454   28.7209   47.4518 H   0  0  0  0  0  0  0  0  0  0  0  0
   58.3035   27.4319   43.2208 H   0  0  0  0  0  0  0  0  0  0  0  0
   56.8614   27.0650   44.2395 H   0  0  0  0  0  0  0  0  0  0  0  0
   59.1825   32.5058   43.4621 H   0  0  0  0  0  0  0  0  0  0  0  0
   57.5639   33.2457   43.7629 H   0  0  0  0  0  0  0  0  0  0  0  0
   57.8749   35.0150   45.2081 H   0  0  0  0  0  0  0  0  0  0  0  0
   58.6253   35.9057   47.4113 H   0  0  0  0  0  0  0  0  0  0  0  0
   59.9753   34.4731   48.9460 H   0  0  0  0  0  0  0  0  0  0  0  0
   60.5757   32.1469   48.2796 H   0  0  0  0  0  0  0  0  0  0  0  0
   59.2040   30.2280   45.9320 H   0  0  0  0  0  0  0  0  0  0  0  0
   57.7926   30.6014   48.7397 H   0  0  0  0  0  0  0  0  0  0  0  0
   59.1437   31.8991   50.3805 H   0  0  0  0  0  0  0  0  0  0  0  0
  1  2  1  0
  2  3  2  0
  3  4  1  0
  4  5  2  0
  5  6  1  0
  6  7  2  0
  7  8  1  0
  8  9  1  0
  9 10  2  0
  9 11  1  0
 11 12  2  0
 12 13  1  0
 13 14  2  0
 14 15  1  0
 15 16  1  0
 16 17  1  0
 17 18  2  0
 17 19  1  0
 19 20  1  0
 20 21  1  0
 21 22  2  0
 22 23  1  0
 23 24  1  0
 24 25  2  0
 25 26  1  0
 26 27  2  0
 27 28  1  0
 28 29  2  0
 29 30  1  0
 22 31  1  0
 31 32  1  0
 32 33  1  0
 14 34  1  0
 34 35  2  0
  7  2  1  0
 35 11  1  0
 32 20  2  0
 29 24  1  0
  1 36  1  0
  1 37  1  0
  3 38  1  0
  4 39  1  0
  5 40  1  0
  6 41  1  0
 12 42  1  0
 13 43  1  0
 15 44  1  0
 15 45  1  0
 19 46  1  0
 19 47  1  0
 23 48  1  0
 23 49  1  0
 25 50  1  0
 26 51  1  0
 27 52  1  0
 28 53  1  0
 30 54  1  0
 34 55  1  0
 35 56  1  0
M  CHG  4   8  -1  16  -1  31  -1  33  -1
M  END
>  <UniqueID>  (42) 
40

>  <SMILES>  (42) 
Nc1ccccc1[N-]C(=O)c1ccc(C[N-]C(=O)Cc2nc(Cc3ccccc3O)[n-]c2[O-])cc1

>  <Energy>  (42) 
88.80799907168662

>  <Genealogy>  (42) 
Nc1ccccc1[N-]C(=O)c1ccc(C[N-]C(=O)Cc2nc(Cc3ccccc3O)[n-]c2[O-])cc1 (protonated)
Nc1ccccc1[N-]C(=O)c1ccc(C[N-]C(=O)Cc2nc(Cc3ccccc3O)[n-]c2[O-])cc1 (3D coordinates assigned)
Nc1ccccc1[N-]C(=O)c1ccc(C[N-]C(=O)Cc2nc(Cc3ccccc3O)[n-]c2[O-])cc1 (optimized conformer: 88.80799907168662 kcal/mol)

>  <smiles>  (42) 
Nc1ccccc1NC(=O)c1ccc(CNC(=O)Cc2nc(Cc3ccccc3O)[nH]c2O)cc1

>  <score_type>  (42) 
oracle

>  <origin>  (42) 
adg

>  <m_score__min__energy>  (42) 
-15.869999999999999

>  <m_primary>  (42) 
energy

$$$$
42:0
     RDKit          3D

 59 63  0  0  0  0  0  0  0  0999 V2000
   61.4690   28.0320   51.1380 N   0  0  0  0  0  0  0  0  0  0  0  0
   60.1760   28.6000   50.9520 C   0  0  0  0  0  0  0  0  0  0  0  0
   59.3960   28.6920   51.9370 O   0  0  0  0  0  0  0  0  0  0  0  0
   59.7360   29.0820   49.6280 C   0  0  0  0  0  0  0  0  0  0  0  0
   58.8820   30.1550   49.4090 C   0  0  0  0  0  0  0  0  0  0  0  0
   58.6300   30.3050   48.0910 N   0  0  0  0  0  0  0  0  0  0  0  0
   59.3290   29.3420   47.4520 C   0  0  0  0  0  0  0  0  0  0  0  0
   59.3400   28.9990   46.0760 C   0  0  0  0  0  0  0  0  0  0  0  0
   58.7720   29.6950   45.1290 N   0  0  0  0  0  0  0  0  0  0  0  0
   57.8980   30.8190   45.2690 C   0  0  0  0  0  0  0  0  0  0  0  0
   56.6500   30.6420   45.2080 O   0  0  0  0  0  0  0  0  0  0  0  0
   58.4450   32.1690   45.5330 C   0  0  0  0  0  0  0  0  0  0  0  0
   57.6440   33.3130   45.3750 C   0  0  0  0  0  0  0  0  0  0  0  0
   58.1530   34.5800   45.6720 C   0  0  0  0  0  0  0  0  0  0  0  0
   59.4600   34.7190   46.1450 C   0  0  0  0  0  0  0  0  0  0  0  0
   60.2670   33.5870   46.3170 C   0  0  0  0  0  0  0  0  0  0  0  0
   61.6350   33.7170   46.8480 C   0  0  0  0  0  0  0  0  0  0  0  0
   62.5910   33.6990   46.0310 O   0  0  0  0  0  0  0  0  0  0  0  0
   61.8960   33.8460   48.2650 N   0  0  0  0  0  0  0  0  0  0  0  0
   60.8780   33.5170   49.2710 C   0  0  0  0  0  0  0  0  0  0  0  0
   61.1560   32.1150   49.8230 C   0  0  0  0  0  0  0  0  0  0  0  0
   62.5630   31.9980   50.2390 N   0  0  0  0  0  0  0  0  0  0  0  0
   62.9120   31.0130   51.2310 C   0  0  0  0  0  0  0  0  0  0  0  0
   63.7700   30.1290   50.9550 O   0  0  0  0  0  0  0  0  0  0  0  0
   62.2880   31.0220   52.5760 C   0  0  0  0  0  0  0  0  0  0  0  0
   62.3790   32.1540   53.4020 C   0  0  0  0  0  0  0  0  0  0  0  0
   61.7910   32.1360   54.6700 C   0  0  0  0  0  0  0  0  0  0  0  0
   61.1300   30.9940   55.1100 C   0  0  0  0  0  0  0  0  0  0  0  0
   61.0680   29.8750   54.2750 C   0  0  0  0  0  0  0  0  0  0  0  0
   61.6430   29.9090   53.0400 N   0  0  0  0  0  0  0  0  0  0  0  0
   63.6120   32.4600   49.3110 C   0  0  0  0  0  0  0  0  0  0  0  0
   63.2760   33.8530   48.7690 C   0  0  0  0  0  0  0  0  0  0  0  0
   59.7660   32.3190   45.9920 C   0  0  0  0  0  0  0  0  0  0  0  0
   59.9950   27.8530   45.7210 N   0  0  0  0  0  0  0  0  0  0  0  0
   60.6630   27.0710   46.6190 C   0  0  0  0  0  0  0  0  0  0  0  0
   60.6930   27.4140   47.9790 C   0  0  0  0  0  0  0  0  0  0  0  0
   59.9990   28.5580   48.3680 C   0  0  0  0  0  0  0  0  0  0  0  0
   62.2700   28.6220   51.4560 H   0  0  0  0  0  0  0  0  0  0  0  0
   58.4673   30.7955   50.2014 H   0  0  0  0  0  0  0  0  0  0  0  0
   57.9480   30.9890   47.7050 H   0  0  0  0  0  0  0  0  0  0  0  0
   56.6096   33.2103   45.0152 H   0  0  0  0  0  0  0  0  0  0  0  0
   57.5226   35.4706   45.5329 H   0  0  0  0  0  0  0  0  0  0  0  0
   59.8556   35.7176   46.3825 H   0  0  0  0  0  0  0  0  0  0  0  0
   60.9184   34.2503   50.0899 H   0  0  0  0  0  0  0  0  0  0  0  0
   59.8791   33.5437   48.8110 H   0  0  0  0  0  0  0  0  0  0  0  0
   60.5049   31.9311   50.6904 H   0  0  0  0  0  0  0  0  0  0  0  0
   60.9536   31.3744   49.0353 H   0  0  0  0  0  0  0  0  0  0  0  0
   62.9109   33.0512   53.0526 H   0  0  0  0  0  0  0  0  0  0  0  0
   61.8509   33.0227   55.3182 H   0  0  0  0  0  0  0  0  0  0  0  0
   60.6610   30.9718   56.1047 H   0  0  0  0  0  0  0  0  0  0  0  0
   60.5536   28.9643   54.6156 H   0  0  0  0  0  0  0  0  0  0  0  0
   61.5730   29.0550   52.4400 H   0  0  0  0  0  0  0  0  0  0  0  0
   64.5735   32.5015   49.8438 H   0  0  0  0  0  0  0  0  0  0  0  0
   63.6747   31.7566   48.4676 H   0  0  0  0  0  0  0  0  0  0  0  0
   63.3714   34.5958   49.5747 H   0  0  0  0  0  0  0  0  0  0  0  0
   63.9691   34.1142   47.9557 H   0  0  0  0  0  0  0  0  0  0  0  0
   60.4110   31.4342   46.0967 H   0  0  0  0  0  0  0  0  0  0  0  0
   61.1818   26.1647   46.2733 H   0  0  0  0  0  0  0  0  0  0  0  0
   61.2432   26.8034   48.7101 H   0  0  0  0  0  0  0  0  0  0  0  0
  1  2  1  0
  2  3  2  0
  2  4  1  0
  4  5  2  0
  5  6  1  0
  6  7  1  0
  7  8  1  0
  8  9  2  3
  9 10  1  0
 10 11  2  0
 10 12  1  0
 12 13  2  0
 13 14  1  0
 14 15  2  0
 15 16  1  0
 16 17  1  0
 17 18  2  0
 17 19  1  0
 19 20  1  0
 20 21  1  0
 21 22  1  0
 22 23  1  0
 23 24  2  0
 23 25  1  0
 25 26  2  0
 26 27  1  0
 27 28  2  0
 28 29  1  0
 29 30  2  0
 22 31  1  0
 31 32  1  0
 16 33  2  0
  8 34  1  0
 34 35  1  0
 35 36  2  0
 36 37  1  0
 37  4  1  0
 37  7  2  0
 33 12  1  0
 32 19  1  0
 30 25  1  0
  1 38  1  0
  5 39  1  0
  6 40  1  0
 13 41  1  0
 14 42  1  0
 15 43  1  0
 20 44  1  0
 20 45  1  0
 21 46  1  0
 21 47  1  0
 26 48  1  0
 27 49  1  0
 28 50  1  0
 29 51  1  0
 30 52  1  0
 31 53  1  0
 31 54  1  0
 32 55  1  0
 32 56  1  0
 33 57  1  0
 35 58  1  0
 36 59  1  0
M  CHG  3   1  -1  30   1  34  -1
M  END
>  <UniqueID>  (43) 
41

>  <SMILES>  (43) 
[NH-]C(=O)c1c[nH]c2c(=NC(=O)c3cccc(C(=O)N4CCN(C(=O)c5cccc[nH+]5)CC4)c3)[n-]ccc12

>  <Energy>  (43) 
125.84447562143752

>  <Genealogy>  (43) 
[NH-]C(=O)c1c[nH]c2c(=NC(=O)c3cccc(C(=O)N4CCN(C(=O)c5cccc[nH+]5)CC4)c3)[n-]ccc12 (protonated)
[NH-]C(=O)c1c[nH]c2c(=NC(=O)c3cccc(C(=O)N4CCN(C(=O)c5cccc[nH+]5)CC4)c3)[n-]ccc12 (3D coordinates assigned)
[NH-]C(=O)c1c[nH]c2c(=NC(=O)c3cccc(C(=O)N4CCN(C(=O)c5cccc[nH+]5)CC4)c3)[n-]ccc12 (nonaromatic ring conformer: 125.84447562143752 kcal/mol)

>  <smiles>  (43) 
NC(=O)c1c[nH]c2c(=NC(=O)c3cccc(C(=O)N4CCN(C(=O)c5ccccn5)CC4)c3)[nH]ccc12

>  <score_type>  (43) 
oracle

>  <origin>  (43) 
adg

>  <m_score__min__energy>  (43) 
-13.050000000000001

>  <m_primary>  (43) 
energy

$$$$
43:0
     RDKit          3D

 58 61  0  0  0  0  0  0  0  0999 V2000
   63.3650   33.2290   47.2420 C   0  0  0  0  0  0  0  0  0  0  0  0
   62.2580   33.8320   46.5820 O   0  0  0  0  0  0  0  0  0  0  0  0
   61.0150   34.0020   47.1990 C   0  0  0  0  0  0  0  0  0  0  0  0
   60.9390   34.5220   48.3490 O   0  0  0  0  0  0  0  0  0  0  0  0
   59.8300   33.5840   46.5120 N   0  0  0  0  0  0  0  0  0  0  0  0
   58.4830   33.8360   47.0340 C   0  0  2  0  0  0  0  0  0  0  0  0
   58.1670   32.8280   48.1390 C   0  0  0  0  0  0  0  0  0  0  0  0
   57.4670   33.7520   45.8840 C   0  0  0  0  0  0  0  0  0  0  0  0
   57.9840   32.9390   44.7820 N   0  0  0  0  0  0  0  0  0  0  0  0
   57.5130   31.7900   44.3950 C   0  0  0  0  0  0  0  0  0  0  0  0
   57.5220   30.7050   45.2220 N   0  0  0  0  0  0  0  0  0  0  0  0
   57.1000   29.4870   44.7880 C   0  0  0  0  0  0  0  0  0  0  0  0
   57.1720   28.3220   45.6830 C   0  0  0  0  0  0  0  0  0  0  0  0
   56.3390   27.2730   45.5830 N   0  0  0  0  0  0  0  0  0  0  0  0
   56.8020   26.4010   46.5020 C   0  0  0  0  0  0  0  0  0  0  0  0
   56.1580   25.0610   46.7280 C   0  0  0  0  0  0  0  0  0  0  0  0
   55.2100   24.5900   45.6360 C   0  0  0  0  0  0  0  0  0  0  0  0
   56.5870   23.9600   45.7700 C   0  0  0  0  0  0  0  0  0  0  0  0
   57.8810   26.8500   47.1820 N   0  0  0  0  0  0  0  0  0  0  0  0
   58.1130   28.0680   46.6630 C   0  0  0  0  0  0  0  0  0  0  0  0
   59.1460   28.9810   47.1940 C   0  0  0  0  0  0  0  0  0  0  0  0
   60.1860   29.4470   46.3720 C   0  0  0  0  0  0  0  0  0  0  0  0
   61.1080   30.3740   46.8610 C   0  0  0  0  0  0  0  0  0  0  0  0
   61.0050   30.8390   48.1740 C   0  0  0  0  0  0  0  0  0  0  0  0
   59.9760   30.3890   49.0080 C   0  0  0  0  0  0  0  0  0  0  0  0
   59.9070   30.8970   50.3470 N   0  0  0  0  0  0  0  0  0  0  0  0
   58.6010   30.6220   51.4530 S   0  0  0  0  0  0  0  0  0  0  0  0
   57.4980   32.0160   51.3990 C   0  0  0  0  0  0  0  0  0  0  0  0
   59.1350   30.4730   52.8490 O   0  0  0  0  0  0  0  0  0  0  0  0
   57.8470   29.3830   51.0570 O   0  0  0  0  0  0  0  0  0  0  0  0
   59.0390   29.4660   48.5070 C   0  0  0  0  0  0  0  0  0  0  0  0
   56.6560   29.3390   43.4720 C   0  0  0  0  0  0  0  0  0  0  0  0
   56.6220   30.4630   42.6520 C   0  0  0  0  0  0  0  0  0  0  0  0
   57.0540   31.6600   43.1230 N   0  0  0  0  0  0  0  0  0  0  0  0
   63.2278   33.3037   48.3309 H   0  0  0  0  0  0  0  0  0  0  0  0
   63.4319   32.1698   46.9527 H   0  0  0  0  0  0  0  0  0  0  0  0
   64.2911   33.7473   46.9527 H   0  0  0  0  0  0  0  0  0  0  0  0
   59.9340   33.2290   45.5340 H   0  0  0  0  0  0  0  0  0  0  0  0
   58.4252   34.8449   47.4684 H   0  0  0  0  0  0  0  0  0  0  0  0
   58.3155   33.3015   49.1207 H   0  0  0  0  0  0  0  0  0  0  0  0
   57.1221   32.4972   48.0457 H   0  0  0  0  0  0  0  0  0  0  0  0
   58.8361   31.9599   48.0457 H   0  0  0  0  0  0  0  0  0  0  0  0
   56.5370   33.2995   46.2587 H   0  0  0  0  0  0  0  0  0  0  0  0
   57.2787   34.7689   45.5093 H   0  0  0  0  0  0  0  0  0  0  0  0
   56.0946   25.1649   47.8212 H   0  0  0  0  0  0  0  0  0  0  0  0
   54.3124   24.0111   45.8990 H   0  0  0  0  0  0  0  0  0  0  0  0
   54.6552   25.0809   44.8228 H   0  0  0  0  0  0  0  0  0  0  0  0
   56.6857   22.9253   46.1301 H   0  0  0  0  0  0  0  0  0  0  0  0
   57.4411   23.8063   45.0941 H   0  0  0  0  0  0  0  0  0  0  0  0
   60.2740   29.0798   45.3388 H   0  0  0  0  0  0  0  0  0  0  0  0
   61.9171   30.7389   46.2112 H   0  0  0  0  0  0  0  0  0  0  0  0
   61.7386   31.5646   48.5552 H   0  0  0  0  0  0  0  0  0  0  0  0
   57.2511   32.3281   52.4245 H   0  0  0  0  0  0  0  0  0  0  0  0
   57.9847   32.8484   50.8696 H   0  0  0  0  0  0  0  0  0  0  0  0
   56.5760   31.7338   50.8696 H   0  0  0  0  0  0  0  0  0  0  0  0
   58.2156   29.1216   49.1500 H   0  0  0  0  0  0  0  0  0  0  0  0
   56.3403   28.3561   43.0922 H   0  0  0  0  0  0  0  0  0  0  0  0
   56.2449   30.3810   41.6219 H   0  0  0  0  0  0  0  0  0  0  0  0
  1  2  1  0
  2  3  1  0
  3  4  2  0
  3  5  1  0
  5  6  1  0
  6  7  1  0
  6  8  1  0
  8  9  1  0
  9 10  2  3
 10 11  1  0
 11 12  2  0
 12 13  1  0
 13 14  1  0
 14 15  1  0
 15 16  1  0
 16 17  1  0
 17 18  1  0
 15 19  2  0
 19 20  1  0
 20 21  1  0
 21 22  2  0
 22 23  1  0
 23 24  2  0
 24 25  1  0
 25 26  1  0
 26 27  1  0
 27 28  1  0
 27 29  2  0
 27 30  2  0
 25 31  2  0
 12 32  1  0
 32 33  2  0
 33 34  1  0
 34 10  1  0
 20 13  2  0
 31 21  1  0
 18 16  1  0
  1 35  1  0
  1 36  1  0
  1 37  1  0
  5 38  1  0
  6 39  1  1
  7 40  1  0
  7 41  1  0
  7 42  1  0
  8 43  1  0
  8 44  1  0
 16 45  1  0
 17 46  1  0
 17 47  1  0
 18 48  1  0
 18 49  1  0
 22 50  1  0
 23 51  1  0
 24 52  1  0
 28 53  1  0
 28 54  1  0
 28 55  1  0
 31 56  1  0
 32 57  1  0
 33 58  1  0
M  CHG  3  14  -1  26  -1  34  -1
M  END
>  <UniqueID>  (44) 
42

>  <SMILES>  (44) 
COC(=O)N[C@H](C)CN=c1nc(-c2[n-]c(C3CC3)nc2-c2cccc([N-]S(C)(=O)=O)c2)cc[n-]1

>  <Energy>  (44) 
352.0774621671713

>  <Genealogy>  (44) 
COC(=O)NC(C)CN=c1nc(-c2[n-]c(C3CC3)nc2-c2cccc([N-]S(C)(=O)=O)c2)cc[n-]1 (protonated)
COC(=O)N[C@H](C)CN=c1nc(-c2[n-]c(C3CC3)nc2-c2cccc([N-]S(C)(=O)=O)c2)cc[n-]1 (chirality)
COC(=O)N[C@H](C)CN=c1nc(-c2[n-]c(C3CC3)nc2-c2cccc([N-]S(C)(=O)=O)c2)cc[n-]1 (3D coordinates assigned)
COC(=O)N[C@H](C)CN=c1nc(-c2[n-]c(C3CC3)nc2-c2cccc([N-]S(C)(=O)=O)c2)cc[n-]1 (nonaromatic ring conformer: 352.0774621671713 kcal/mol)

>  <smiles>  (44) 
COC(=O)NC(C)CN=c1nc(-c2[nH]c(C3CC3)nc2-c2cccc(NS(C)(=O)=O)c2)cc[nH]1

>  <score_type>  (44) 
oracle

>  <origin>  (44) 
adg

>  <m_score__min__energy>  (44) 
-11.92

>  <m_primary>  (44) 
energy

$$$$
44:0
     RDKit          3D

 49 51  0  0  0  0  0  0  0  0999 V2000
   54.9508   27.4486   53.4890 H   0  0  0  0  0  0  0  0  0  0  0  0
   54.2480   28.2140   53.1280 C   0  0  0  0  0  0  0  0  0  0  0  0
   53.1753   27.9832   53.0510 H   0  0  0  0  0  0  0  0  0  0  0  0
   54.7000   29.4310   52.7810 C   0  0  0  0  0  0  0  0  0  0  0  0
   53.9300   30.5010   52.3070 C   0  0  0  0  0  0  0  0  0  0  0  0
   52.5870   30.5290   52.1560 C   0  0  0  0  0  0  0  0  0  0  0  0
   51.9762   30.2705   53.0335 H   0  0  0  0  0  0  0  0  0  0  0  0
   51.8690   30.8780   50.9100 C   0  0  0  0  0  0  0  0  0  0  0  0
   51.7740   30.1100   49.8110 N   0  0  0  0  0  0  0  0  0  0  0  0
   51.0130   30.8490   48.9750 C   0  0  0  0  0  0  0  0  0  0  0  0
   50.6890   30.4510   47.8250 O   0  0  0  0  0  0  0  0  0  0  0  0
   50.6110   32.0360   49.4740 N   0  0  0  0  0  0  0  0  0  0  0  0
   51.1580   32.0370   50.6990 C   0  0  0  0  0  0  0  0  0  0  0  0
   51.0190   33.0820   51.6050 O   0  0  0  0  0  0  0  0  0  0  0  0
   54.8260   31.5330   52.0460 C   0  0  0  0  0  0  0  0  0  0  0  0
   54.5813   32.5346   51.6628 H   0  0  0  0  0  0  0  0  0  0  0  0
   56.0790   31.0560   52.3610 C   0  0  0  0  0  0  0  0  0  0  0  0
   57.3240   31.8300   52.1870 C   0  0  0  0  0  0  0  0  0  0  0  0
   57.7920   32.4200   53.1990 O   0  0  0  0  0  0  0  0  0  0  0  0
   57.9680   32.0120   50.8940 N   0  0  0  0  0  0  0  0  0  0  0  0
   57.2090   32.3020   50.2340 H   0  0  0  0  0  0  0  0  0  0  0  0
   58.9750   33.0980   50.9810 C   0  0  0  0  0  0  0  0  0  0  0  0
   58.4513   34.0642   50.9348 H   0  0  0  0  0  0  0  0  0  0  0  0
   59.5165   32.9649   51.9292 H   0  0  0  0  0  0  0  0  0  0  0  0
   60.0220   33.0530   49.8460 C   0  0  0  0  0  0  0  0  0  0  0  0
   60.2937   34.0844   49.5770 H   0  0  0  0  0  0  0  0  0  0  0  0
   60.8893   32.4870   50.2167 H   0  0  0  0  0  0  0  0  0  0  0  0
   59.5250   32.3660   48.6390 N   0  0  0  0  0  0  0  0  0  0  0  0
   58.5290   33.1640   47.8820 C   0  0  0  0  0  0  0  0  0  0  0  0
   58.1546   32.5653   47.0386 H   0  0  0  0  0  0  0  0  0  0  0  0
   57.7057   33.4314   48.5608 H   0  0  0  0  0  0  0  0  0  0  0  0
   59.1550   34.4560   47.3410 C   0  0  0  0  0  0  0  0  0  0  0  0
   58.6697   35.3156   47.8264 H   0  0  0  0  0  0  0  0  0  0  0  0
   60.2323   34.4287   47.5618 H   0  0  0  0  0  0  0  0  0  0  0  0
   58.9880   34.5860   45.8270 C   0  0  0  0  0  0  0  0  0  0  0  0
   58.1375   35.2481   45.6074 H   0  0  0  0  0  0  0  0  0  0  0  0
   59.9049   35.0105   45.3921 H   0  0  0  0  0  0  0  0  0  0  0  0
   58.8015   33.5930   45.3921 H   0  0  0  0  0  0  0  0  0  0  0  0
   59.0980   30.9770   48.9270 C   0  0  0  0  0  0  0  0  0  0  0  0
   58.2961   30.7076   48.2239 H   0  0  0  0  0  0  0  0  0  0  0  0
   59.9867   30.3384   48.8156 H   0  0  0  0  0  0  0  0  0  0  0  0
   58.5740   30.7730   50.3650 C   0  0  0  0  0  0  0  0  0  0  0  0
   57.8157   29.9762   50.3608 H   0  0  0  0  0  0  0  0  0  0  0  0
   59.4224   30.4980   51.0089 H   0  0  0  0  0  0  0  0  0  0  0  0
   56.0080   29.7880   52.8230 N   0  0  0  0  0  0  0  0  0  0  0  0
   57.1380   28.9530   53.2410 C   0  0  0  0  0  0  0  0  0  0  0  0
   57.1828   28.9199   54.3396 H   0  0  0  0  0  0  0  0  0  0  0  0
   57.0058   27.9339   52.8485 H   0  0  0  0  0  0  0  0  0  0  0  0
   58.0733   29.3786   52.8485 H   0  0  0  0  0  0  0  0  0  0  0  0
  1  2  1  0
  2  3  1  0
  2  4  2  0
  4  5  1  0
  5  6  2  0
  6  7  1  0
  6  8  1  0
  8  9  1  0
  9 10  1  0
 10 11  2  0
 10 12  1  0
 12 13  1  0
 13 14  1  0
  5 15  1  0
 15 16  1  0
 15 17  2  0
 17 18  1  0
 18 19  2  0
 18 20  1  0
 20 21  1  0
 20 22  1  0
 22 23  1  0
 22 24  1  0
 22 25  1  0
 25 26  1  0
 25 27  1  0
 25 28  1  0
 28 29  1  0
 29 30  1  0
 29 31  1  0
 29 32  1  0
 32 33  1  0
 32 34  1  0
 32 35  1  0
 35 36  1  0
 35 37  1  0
 35 38  1  0
 28 39  1  0
 39 40  1  0
 39 41  1  0
 39 42  1  0
 42 43  1  0
 42 44  1  0
 17 45  1  0
 45 46  1  0
 46 47  1  0
 46 48  1  0
 46 49  1  0
 45  4  1  0
 13  8  2  0
 42 20  1  0
M  CHG  4   9  -1  12  -1  14  -1  20   1
M  END
>  <UniqueID>  (45) 
43

>  <SMILES>  (45) 
C=c1/c(=C/c2[n-]c(=O)[n-]c2[O-])cc(C(=O)[NH+]2CCN(CCC)CC2)n1C

>  <Energy>  (45) 
133.72270355558854

>  <Genealogy>  (45) 
C=c1c(=Cc2[n-]c(=O)[n-]c2[O-])cc(C(=O)[NH+]2CCN(CCC)CC2)n1C (protonated)
C=c1/c(=C/c2[n-]c(=O)[n-]c2[O-])cc(C(=O)[NH+]2CCN(CCC)CC2)n1C (cis-trans isomerization)
C=c1/c(=C/c2[n-]c(=O)[n-]c2[O-])cc(C(=O)[NH+]2CCN(CCC)CC2)n1C (3D coordinates assigned)
C=c1/c(=C/c2[n-]c(=O)[n-]c2[O-])cc(C(=O)[NH+]2CCN(CCC)CC2)n1C (nonaromatic ring conformer: 133.72270355558854 kcal/mol)

>  <smiles>  (45) 
C=c1c(=Cc2[nH]c(=O)[nH]c2O)cc(C(=O)N2CCN(CCC)CC2)n1C

>  <score_type>  (45) 
oracle

>  <origin>  (45) 
adg

>  <m_score__min__energy>  (45) 
-15.85

>  <m_primary>  (45) 
energy

$$$$
45:0
     RDKit          3D

 52 55  0  0  0  0  0  0  0  0999 V2000
   62.9960   34.2420   46.3710 C   0  0  0  0  0  0  0  0  0  0  0  0
   62.7270   33.0700   47.2380 C   0  0  0  0  0  0  0  0  0  0  0  0
   63.6620   32.0930   47.3710 N   0  0  0  0  0  0  0  0  0  0  0  0
   63.1990   31.2090   48.2180 N   0  0  0  0  0  0  0  0  0  0  0  0
   61.9600   31.5890   48.6510 C   0  0  0  0  0  0  0  0  0  0  0  0
   61.2560   30.7770   49.6160 C   0  0  0  0  0  0  0  0  0  0  0  0
   61.9870   30.1760   50.4780 O   0  0  0  0  0  0  0  0  0  0  0  0
   59.9160   30.5780   49.7220 O   0  0  0  0  0  0  0  0  0  0  0  0
   61.6190   32.7780   48.0430 C   0  0  0  0  0  0  0  0  0  0  0  0
   60.4380   33.6320   48.1090 C   0  0  0  0  0  0  0  0  0  0  0  0
   59.5670   33.6720   46.9140 C   0  0  0  0  0  0  0  0  0  0  0  0
   59.4290   34.8670   46.2110 C   0  0  0  0  0  0  0  0  0  0  0  0
   58.7330   34.9590   45.0120 C   0  0  0  0  0  0  0  0  0  0  0  0
   58.1420   33.8490   44.4680 C   0  0  0  0  0  0  0  0  0  0  0  0
   58.2580   32.6330   45.1500 C   0  0  0  0  0  0  0  0  0  0  0  0
   57.6150   31.4940   44.5160 C   0  0  0  0  0  0  0  0  0  0  0  0
   57.9550   31.1410   43.1570 N   0  0  0  0  0  0  0  0  0  0  0  0
   56.7610   30.7610   45.0560 O   0  0  0  0  0  0  0  0  0  0  0  0
   58.9510   32.5720   46.3390 C   0  0  0  0  0  0  0  0  0  0  0  0
   59.0200   31.3260   47.0200 O   0  0  0  0  0  0  0  0  0  0  0  0
   59.9810   30.3900   46.5240 C   0  0  0  0  0  0  0  0  0  0  0  0
   59.4110   29.1590   45.9880 C   0  0  0  0  0  0  0  0  0  0  0  0
   59.1840   28.9940   44.6460 N   0  0  0  0  0  0  0  0  0  0  0  0
   58.6670   27.7910   44.3980 C   0  0  0  0  0  0  0  0  0  0  0  0
   58.2790   27.1710   43.2190 C   0  0  0  0  0  0  0  0  0  0  0  0
   57.7720   25.8840   43.3040 C   0  0  0  0  0  0  0  0  0  0  0  0
   57.6440   25.2190   44.4950 C   0  0  0  0  0  0  0  0  0  0  0  0
   58.0400   25.8630   45.6650 C   0  0  0  0  0  0  0  0  0  0  0  0
   58.5470   27.1420   45.6000 C   0  0  0  0  0  0  0  0  0  0  0  0
   59.0130   28.0170   46.5360 N   0  0  0  0  0  0  0  0  0  0  0  0
   59.0440   27.6870   47.9350 C   0  0  0  0  0  0  0  0  0  0  0  0
   63.1982   35.1230   46.9978 H   0  0  0  0  0  0  0  0  0  0  0  0
   63.8701   34.0354   45.7359 H   0  0  0  0  0  0  0  0  0  0  0  0
   62.1193   34.4372   45.7359 H   0  0  0  0  0  0  0  0  0  0  0  0
   64.5990   32.0190   46.9030 H   0  0  0  0  0  0  0  0  0  0  0  0
   59.2580   30.7650   48.9460 H   0  0  0  0  0  0  0  0  0  0  0  0
   59.8252   33.2851   48.9541 H   0  0  0  0  0  0  0  0  0  0  0  0
   60.8316   34.6544   48.2082 H   0  0  0  0  0  0  0  0  0  0  0  0
   59.8908   35.7765   46.6228 H   0  0  0  0  0  0  0  0  0  0  0  0
   58.6561   35.9279   44.4969 H   0  0  0  0  0  0  0  0  0  0  0  0
   57.5900   33.9124   43.5186 H   0  0  0  0  0  0  0  0  0  0  0  0
   57.6550   31.7520   42.3480 H   0  0  0  0  0  0  0  0  0  0  0  0
   58.5110   30.2570   43.0160 H   0  0  0  0  0  0  0  0  0  0  0  0
   60.5545   30.8794   45.7230 H   0  0  0  0  0  0  0  0  0  0  0  0
   60.6021   30.0969   47.3833 H   0  0  0  0  0  0  0  0  0  0  0  0
   58.3707   27.6834   42.2500 H   0  0  0  0  0  0  0  0  0  0  0  0
   57.4602   25.3766   42.3792 H   0  0  0  0  0  0  0  0  0  0  0  0
   57.2369   24.1976   44.5267 H   0  0  0  0  0  0  0  0  0  0  0  0
   57.9483   25.3530   46.6353 H   0  0  0  0  0  0  0  0  0  0  0  0
   58.9575   28.6076   48.5309 H   0  0  0  0  0  0  0  0  0  0  0  0
   58.2049   27.0165   48.1722 H   0  0  0  0  0  0  0  0  0  0  0  0
   59.9933   27.1845   48.1722 H   0  0  0  0  0  0  0  0  0  0  0  0
  1  2  1  0
  2  3  1  0
  3  4  1  0
  4  5  2  0
  5  6  1  0
  6  7  2  0
  6  8  1  0
  5  9  1  0
  9 10  1  0
 10 11  1  0
 11 12  2  0
 12 13  1  0
 13 14  2  0
 14 15  1  0
 15 16  1  0
 16 17  1  0
 16 18  2  0
 15 19  2  0
 19 20  1  0
 20 21  1  0
 21 22  1  0
 22 23  2  0
 23 24  1  0
 24 25  2  0
 25 26  1  0
 26 27  2  0
 27 28  1  0
 28 29  2  0
 29 30  1  0
 30 31  1  0
  9  2  2  0
 19 11  1  0
 30 22  1  0
 29 24  1  0
  1 32  1  0
  1 33  1  0
  1 34  1  0
  3 35  1  0
  8 36  1  0
 10 37  1  0
 10 38  1  0
 12 39  1  0
 13 40  1  0
 14 41  1  0
 17 42  1  0
 17 43  1  0
 21 44  1  0
 21 45  1  0
 25 46  1  0
 26 47  1  0
 27 48  1  0
 28 49  1  0
 31 50  1  0
 31 51  1  0
 31 52  1  0
M  END
>  <smiles>  (46) 
Cc1[nH]nc(C(=O)O)c1Cc1cccc(C(N)=O)c1OCc1nc2ccccc2n1C

>  <score_type>  (46) 
oracle

>  <origin>  (46) 
adg

>  <m_score__min__energy>  (46) 
-8.5700000000000003

>  <m_primary>  (46) 
energy

$$$$
46:0
     RDKit          3D

 56 59  0  0  0  0  0  0  0  0999 V2000
   57.1420   28.9480   43.0880 O   0  0  0  0  0  0  0  0  0  0  0  0
   56.6550   29.3130   44.1890 C   0  0  0  0  0  0  0  0  0  0  0  0
   56.4060   28.2820   45.2500 C   0  0  0  0  0  0  0  0  0  0  0  0
   57.5920   26.9090   45.0420 S   0  0  0  0  0  0  0  0  0  0  0  0
   59.0560   27.9280   45.2570 C   0  0  0  0  0  0  0  0  0  0  0  0
   59.6010   28.6550   44.2650 N   0  0  0  0  0  0  0  0  0  0  0  0
   60.6630   29.2730   44.8140 C   0  0  0  0  0  0  0  0  0  0  0  0
   60.7580   28.8960   46.1370 C   0  0  0  0  0  0  0  0  0  0  0  0
   59.7500   28.0460   46.4110 N   0  0  0  0  0  0  0  0  0  0  0  0
   59.5270   27.3450   47.6760 C   0  0  0  0  0  0  0  0  0  0  0  0
   59.7420   28.2720   48.8400 C   0  0  0  0  0  0  0  0  0  0  0  0
   60.7940   28.0460   49.7420 C   0  0  0  0  0  0  0  0  0  0  0  0
   61.0060   28.9240   50.8100 C   0  0  0  0  0  0  0  0  0  0  0  0
   60.1700   30.0320   50.9840 C   0  0  0  0  0  0  0  0  0  0  0  0
   59.1080   30.2520   50.1010 C   0  0  0  0  0  0  0  0  0  0  0  0
   58.2900   31.3220   50.2760 F   0  0  0  0  0  0  0  0  0  0  0  0
   58.8870   29.3710   49.0380 C   0  0  0  0  0  0  0  0  0  0  0  0
   56.4980   30.7130   44.4450 N   0  0  0  0  0  0  0  0  0  0  0  0
   57.4150   31.5370   45.1730 C   0  0  0  0  0  0  0  0  0  0  0  0
   57.5590   32.8810   44.8100 C   0  0  0  0  0  0  0  0  0  0  0  0
   58.4140   33.7190   45.5290 C   0  0  0  0  0  0  0  0  0  0  0  0
   59.1080   33.2290   46.6460 C   0  0  0  0  0  0  0  0  0  0  0  0
   60.1550   34.2980   47.5830 S   0  0  0  0  0  0  0  0  0  0  0  0
   59.9900   35.7080   47.0870 O   0  0  0  0  0  0  0  0  0  0  0  0
   59.7170   34.2650   49.0200 O   0  0  0  0  0  0  0  0  0  0  0  0
   61.8470   33.8590   47.4740 N   0  0  0  0  0  0  0  0  0  0  0  0
   62.0390   32.4660   47.0290 C   0  0  0  0  0  0  0  0  0  0  0  0
   61.9010   31.4390   48.1800 C   0  0  0  0  0  0  0  0  0  0  0  0
   61.9010   32.0270   49.4660 O   0  0  0  0  0  0  0  0  0  0  0  0
   62.9320   32.9790   49.5610 C   0  0  0  0  0  0  0  0  0  0  0  0
   62.6140   34.2040   48.6910 C   0  0  0  0  0  0  0  0  0  0  0  0
   58.9380   31.8920   47.0320 C   0  0  0  0  0  0  0  0  0  0  0  0
   58.1010   31.0480   46.2970 C   0  0  0  0  0  0  0  0  0  0  0  0
   56.5392   28.7362   46.2430 H   0  0  0  0  0  0  0  0  0  0  0  0
   55.3784   27.8999   45.1605 H   0  0  0  0  0  0  0  0  0  0  0  0
   59.2750   28.7230   43.2770 H   0  0  0  0  0  0  0  0  0  0  0  0
   61.3425   29.9641   44.2937 H   0  0  0  0  0  0  0  0  0  0  0  0
   61.5268   29.2325   46.8481 H   0  0  0  0  0  0  0  0  0  0  0  0
   58.4948   26.9656   47.7019 H   0  0  0  0  0  0  0  0  0  0  0  0
   60.2409   26.5114   47.7500 H   0  0  0  0  0  0  0  0  0  0  0  0
   61.4535   27.1758   49.6084 H   0  0  0  0  0  0  0  0  0  0  0  0
   61.8314   28.7429   51.5142 H   0  0  0  0  0  0  0  0  0  0  0  0
   60.3479   30.7301   51.8152 H   0  0  0  0  0  0  0  0  0  0  0  0
   58.0416   29.5380   48.3543 H   0  0  0  0  0  0  0  0  0  0  0  0
   56.9955   33.2795   43.9535 H   0  0  0  0  0  0  0  0  0  0  0  0
   58.5439   34.7664   45.2189 H   0  0  0  0  0  0  0  0  0  0  0  0
   61.2852   32.2360   46.2616 H   0  0  0  0  0  0  0  0  0  0  0  0
   63.0631   32.3842   46.6358 H   0  0  0  0  0  0  0  0  0  0  0  0
   60.9554   30.8928   48.0473 H   0  0  0  0  0  0  0  0  0  0  0  0
   62.7775   30.7764   48.1281 H   0  0  0  0  0  0  0  0  0  0  0  0
   63.0363   33.2964   50.6090 H   0  0  0  0  0  0  0  0  0  0  0  0
   63.8695   32.5250   49.2075 H   0  0  0  0  0  0  0  0  0  0  0  0
   62.0247   34.9156   49.2879 H   0  0  0  0  0  0  0  0  0  0  0  0
   63.5715   34.6379   48.3672 H   0  0  0  0  0  0  0  0  0  0  0  0
   59.4654   31.5058   47.9167 H   0  0  0  0  0  0  0  0  0  0  0  0
   57.9790   29.9975   46.5996 H   0  0  0  0  0  0  0  0  0  0  0  0
  1  2  2  0
  2  3  1  0
  3  4  1  0
  4  5  1  0
  5  6  2  0
  6  7  1  0
  7  8  2  0
  8  9  1  0
  9 10  1  0
 10 11  1  0
 11 12  2  0
 12 13  1  0
 13 14  2  0
 14 15  1  0
 15 16  1  0
 15 17  2  0
  2 18  1  0
 18 19  1  0
 19 20  2  0
 20 21  1  0
 21 22  2  0
 22 23  1  0
 23 24  2  0
 23 25  2  0
 23 26  1  0
 26 27  1  0
 27 28  1  0
 28 29  1  0
 29 30  1  0
 30 31  1  0
 22 32  1  0
 32 33  2  0
  9  5  1  0
 17 11  1  0
 33 19  1  0
 31 26  1  0
  3 34  1  0
  3 35  1  0
  6 36  1  0
  7 37  1  0
  8 38  1  0
 10 39  1  0
 10 40  1  0
 12 41  1  0
 13 42  1  0
 14 43  1  0
 17 44  1  0
 20 45  1  0
 21 46  1  0
 27 47  1  0
 27 48  1  0
 28 49  1  0
 28 50  1  0
 30 51  1  0
 30 52  1  0
 31 53  1  0
 31 54  1  0
 32 55  1  0
 33 56  1  0
M  CHG  2   6   1  18  -1
M  END
>  <UniqueID>  (47) 
44

>  <SMILES>  (47) 
O=C(CSc1[nH+]ccn1Cc1cccc(F)c1)[N-]c1ccc(S(=O)(=O)N2CCOCC2)cc1

>  <Energy>  (47) 
93.46904982264907

>  <Genealogy>  (47) 
O=C(CSc1[nH+]ccn1Cc1cccc(F)c1)[N-]c1ccc(S(=O)(=O)N2CCOCC2)cc1 (protonated)
O=C(CSc1[nH+]ccn1Cc1cccc(F)c1)[N-]c1ccc(S(=O)(=O)N2CCOCC2)cc1 (3D coordinates assigned)
O=C(CSc1[nH+]ccn1Cc1cccc(F)c1)[N-]c1ccc(S(=O)(=O)N2CCOCC2)cc1 (nonaromatic ring conformer: 93.46904982264907 kcal/mol)

>  <smiles>  (47) 
O=C(CSc1nccn1Cc1cccc(F)c1)Nc1ccc(S(=O)(=O)N2CCOCC2)cc1

>  <score_type>  (47) 
oracle

>  <origin>  (47) 
adg

>  <m_score__min__energy>  (47) 
-9.7100000000000009

>  <m_primary>  (47) 
energy

$$$$
47:0
     RDKit          3D

 49 52  0  0  0  0  0  0  0  0999 V2000
   56.0360   29.7670   43.0320 C   0  0  0  0  0  0  0  0  0  0  0  0
   56.7060   29.5680   44.1680 C   0  0  0  0  0  0  0  0  0  0  0  0
   56.6990   28.3990   44.8370 N   0  0  0  0  0  0  0  0  0  0  0  0
   57.5020   28.5610   45.9130 C   0  0  0  0  0  0  0  0  0  0  0  0
   57.7970   27.6110   46.8130 C   0  0  0  0  0  0  0  0  0  0  0  0
   57.2460   26.2460   46.7810 C   0  0  0  0  0  0  0  0  0  0  0  0
   57.9150   25.1700   47.2310 N   0  0  0  0  0  0  0  0  0  0  0  0
   57.0220   24.1660   47.0950 C   0  0  0  0  0  0  0  0  0  0  0  0
   57.2870   22.9760   47.4060 O   0  0  0  0  0  0  0  0  0  0  0  0
   55.8190   24.5400   46.6110 N   0  0  0  0  0  0  0  0  0  0  0  0
   55.9720   25.8610   46.4290 C   0  0  0  0  0  0  0  0  0  0  0  0
   54.9530   26.7010   45.9950 O   0  0  0  0  0  0  0  0  0  0  0  0
   58.0350   29.8390   45.9270 C   0  0  0  0  0  0  0  0  0  0  0  0
   57.5140   30.4900   44.8230 C   0  0  0  0  0  0  0  0  0  0  0  0
   57.8720   31.8840   44.3900 C   0  0  0  0  0  0  0  0  0  0  0  0
   58.5320   32.6320   45.5180 C   0  0  0  0  0  0  0  0  0  0  0  0
   57.9190   33.7600   46.0840 C   0  0  0  0  0  0  0  0  0  0  0  0
   58.5500   34.4630   47.1140 C   0  0  0  0  0  0  0  0  0  0  0  0
   59.7950   34.0430   47.5900 C   0  0  0  0  0  0  0  0  0  0  0  0
   60.4090   32.9080   47.0470 C   0  0  0  0  0  0  0  0  0  0  0  0
   61.7330   32.4840   47.5400 C   0  0  0  0  0  0  0  0  0  0  0  0
   62.7400   33.1390   47.1600 O   0  0  0  0  0  0  0  0  0  0  0  0
   61.9130   31.3400   48.4200 N   0  0  0  0  0  0  0  0  0  0  0  0
   61.7550   31.6890   49.8510 C   0  0  0  0  0  0  0  0  0  0  0  0
   60.2750   31.7390   50.3090 C   0  0  0  0  0  0  0  0  0  0  0  0
   59.3720   31.2240   49.3510 O   0  0  0  0  0  0  0  0  0  0  0  0
   59.8370   29.9840   48.8760 C   0  0  0  0  0  0  0  0  0  0  0  0
   61.0910   30.1750   48.0050 C   0  0  0  0  0  0  0  0  0  0  0  0
   59.7860   32.2170   45.9980 C   0  0  0  0  0  0  0  0  0  0  0  0
   56.0807   30.7454   42.5313 H   0  0  0  0  0  0  0  0  0  0  0  0
   55.4387   28.9527   42.5959 H   0  0  0  0  0  0  0  0  0  0  0  0
   56.2100   27.5260   44.5360 H   0  0  0  0  0  0  0  0  0  0  0  0
   58.4934   27.8676   47.6249 H   0  0  0  0  0  0  0  0  0  0  0  0
   58.7336   30.2540   46.6684 H   0  0  0  0  0  0  0  0  0  0  0  0
   58.5637   31.8317   43.5363 H   0  0  0  0  0  0  0  0  0  0  0  0
   56.9528   32.4143   44.1004 H   0  0  0  0  0  0  0  0  0  0  0  0
   56.9374   34.0925   45.7154 H   0  0  0  0  0  0  0  0  0  0  0  0
   58.0657   35.3487   47.5509 H   0  0  0  0  0  0  0  0  0  0  0  0
   60.2937   34.6054   48.3931 H   0  0  0  0  0  0  0  0  0  0  0  0
   62.9150   31.0480   48.3120 H   0  0  0  0  0  0  0  0  0  0  0  0
   62.2822   30.9355   50.4546 H   0  0  0  0  0  0  0  0  0  0  0  0
   62.1735   32.6968   49.9892 H   0  0  0  0  0  0  0  0  0  0  0  0
   60.1761   31.1503   51.2329 H   0  0  0  0  0  0  0  0  0  0  0  0
   60.0181   32.7978   50.4604 H   0  0  0  0  0  0  0  0  0  0  0  0
   60.0857   29.3390   49.7317 H   0  0  0  0  0  0  0  0  0  0  0  0
   59.0485   29.5188   48.2662 H   0  0  0  0  0  0  0  0  0  0  0  0
   61.7084   29.2673   48.0754 H   0  0  0  0  0  0  0  0  0  0  0  0
   60.7516   30.3615   46.9754 H   0  0  0  0  0  0  0  0  0  0  0  0
   60.2820   31.3444   45.5478 H   0  0  0  0  0  0  0  0  0  0  0  0
  1  2  2  0
  2  3  1  0
  3  4  1  0
  4  5  2  3
  5  6  1  0
  6  7  1  0
  7  8  1  0
  8  9  2  0
  8 10  1  0
 10 11  1  0
 11 12  1  0
  4 13  1  0
 13 14  2  0
 14 15  1  0
 15 16  1  0
 16 17  2  0
 17 18  1  0
 18 19  2  0
 19 20  1  0
 20 21  1  0
 21 22  2  0
 21 23  1  0
 23 24  1  0
 24 25  1  0
 25 26  1  0
 26 27  1  0
 27 28  1  0
 20 29  2  0
 14  2  1  0
 29 16  1  0
 11  6  2  0
 28 23  1  0
  1 30  1  0
  1 31  1  0
  3 32  1  0
  5 33  1  0
 13 34  1  0
 15 35  1  0
 15 36  1  0
 17 37  1  0
 18 38  1  0
 19 39  1  0
 23 40  1  0
 24 41  1  0
 24 42  1  0
 25 43  1  0
 25 44  1  0
 27 45  1  0
 27 46  1  0
 28 47  1  0
 28 48  1  0
 29 49  1  0
M  CHG  4   7  -1  10  -1  12  -1  23   1
M  END
>  <UniqueID>  (48) 
45

>  <SMILES>  (48) 
C=c1[nH]c(=Cc2[n-]c(=O)[n-]c2[O-])cc1Cc1cccc(C(=O)[NH+]2CCOCC2)c1

>  <Energy>  (48) 
133.47528342755902

>  <Genealogy>  (48) 
C=c1[nH]c(=Cc2[n-]c(=O)[n-]c2[O-])cc1Cc1cccc(C(=O)[NH+]2CCOCC2)c1 (protonated)
C=c1[nH]c(=Cc2[n-]c(=O)[n-]c2[O-])cc1Cc1cccc(C(=O)[NH+]2CCOCC2)c1 (3D coordinates assigned)
C=c1[nH]c(=Cc2[n-]c(=O)[n-]c2[O-])cc1Cc1cccc(C(=O)[NH+]2CCOCC2)c1 (nonaromatic ring conformer: 133.47528342755902 kcal/mol)

>  <smiles>  (48) 
C=c1[nH]c(=Cc2[nH]c(=O)[nH]c2O)cc1Cc1cccc(C(=O)N2CCOCC2)c1

>  <score_type>  (48) 
oracle

>  <origin>  (48) 
adg

>  <m_score__min__energy>  (48) 
-16.34

>  <m_primary>  (48) 
energy

$$$$
48:0
     RDKit          3D

 50 52  0  0  0  0  0  0  0  0999 V2000
   62.9570   33.8150   46.6320 C   0  0  0  0  0  0  0  0  0  0  0  0
   63.3880   33.2110   48.2500 S   0  0  0  0  0  0  0  0  0  0  0  0
   64.8450   33.4870   48.4960 O   0  0  0  0  0  0  0  0  0  0  0  0
   62.5800   33.9170   49.3020 O   0  0  0  0  0  0  0  0  0  0  0  0
   63.1220   31.4990   48.3490 N   0  0  0  0  0  0  0  0  0  0  0  0
   61.8650   30.8330   48.1720 C   0  0  0  0  0  0  0  0  0  0  0  0
   61.2270   30.1450   49.2180 C   0  0  0  0  0  0  0  0  0  0  0  0
   60.0180   29.4810   48.9920 C   0  0  0  0  0  0  0  0  0  0  0  0
   59.4240   29.4980   47.7210 C   0  0  0  0  0  0  0  0  0  0  0  0
   58.1800   28.6830   47.4670 C   0  0  0  0  0  0  0  0  0  0  0  0
   57.6580   28.9020   46.1200 N   0  0  0  0  0  0  0  0  0  0  0  0
   58.0120   28.0690   45.0070 C   0  0  0  0  0  0  0  0  0  0  0  0
   58.7170   27.0380   45.1810 O   0  0  0  0  0  0  0  0  0  0  0  0
   57.5400   28.4250   43.6310 C   0  0  0  0  0  0  0  0  0  0  0  0
   56.6730   29.5980   43.6800 N   0  0  0  0  0  0  0  0  0  0  0  0
   57.0980   30.8090   43.8840 C   0  0  0  0  0  0  0  0  0  0  0  0
   58.0200   31.4590   43.0900 C   0  0  0  0  0  0  0  0  0  0  0  0
   58.1380   32.7020   43.6760 C   0  0  0  0  0  0  0  0  0  0  0  0
   57.3170   32.7550   44.7450 N   0  0  0  0  0  0  0  0  0  0  0  0
   57.1600   33.8840   45.6540 C   0  0  0  0  0  0  0  0  0  0  0  0
   58.0760   33.7250   46.8410 C   0  0  0  0  0  0  0  0  0  0  0  0
   57.7810   32.7360   47.7970 C   0  0  0  0  0  0  0  0  0  0  0  0
   58.6070   32.5570   48.9080 C   0  0  0  0  0  0  0  0  0  0  0  0
   59.7460   33.3480   49.0680 C   0  0  0  0  0  0  0  0  0  0  0  0
   60.0670   34.3130   48.1120 C   0  0  0  0  0  0  0  0  0  0  0  0
   59.2440   34.5050   46.9960 C   0  0  0  0  0  0  0  0  0  0  0  0
   59.7120   35.7340   45.8250 Cl  0  0  0  0  0  0  0  0  0  0  0  0
   56.6830   31.6020   44.8890 N   0  0  0  0  0  0  0  0  0  0  0  0
   60.0640   30.1850   46.6760 C   0  0  0  0  0  0  0  0  0  0  0  0
   61.2670   30.8570   46.9060 C   0  0  0  0  0  0  0  0  0  0  0  0
   62.3207   34.7068   46.7310 H   0  0  0  0  0  0  0  0  0  0  0  0
   63.8731   34.0774   46.0826 H   0  0  0  0  0  0  0  0  0  0  0  0
   62.4109   33.0340   46.0826 H   0  0  0  0  0  0  0  0  0  0  0  0
   61.6813   30.1289   50.2197 H   0  0  0  0  0  0  0  0  0  0  0  0
   59.5288   28.9414   49.8163 H   0  0  0  0  0  0  0  0  0  0  0  0
   58.4215   27.6166   47.5870 H   0  0  0  0  0  0  0  0  0  0  0  0
   57.4110   28.9959   48.1886 H   0  0  0  0  0  0  0  0  0  0  0  0
   57.0470   29.7330   45.9530 H   0  0  0  0  0  0  0  0  0  0  0  0
   58.4100   28.6433   42.9942 H   0  0  0  0  0  0  0  0  0  0  0  0
   56.9728   27.5782   43.2173 H   0  0  0  0  0  0  0  0  0  0  0  0
   58.5391   31.0760   42.1990 H   0  0  0  0  0  0  0  0  0  0  0  0
   58.7928   33.5150   43.3292 H   0  0  0  0  0  0  0  0  0  0  0  0
   57.4095   34.8151   45.1241 H   0  0  0  0  0  0  0  0  0  0  0  0
   56.1183   33.9209   46.0056 H   0  0  0  0  0  0  0  0  0  0  0  0
   56.8933   32.0993   47.6682 H   0  0  0  0  0  0  0  0  0  0  0  0
   58.3600   31.7916   49.6584 H   0  0  0  0  0  0  0  0  0  0  0  0
   60.3911   33.2107   49.9483 H   0  0  0  0  0  0  0  0  0  0  0  0
   60.9718   34.9261   48.2362 H   0  0  0  0  0  0  0  0  0  0  0  0
   59.6156   30.1938   45.6716 H   0  0  0  0  0  0  0  0  0  0  0  0
   61.7485   31.4096   46.0858 H   0  0  0  0  0  0  0  0  0  0  0  0
  1  2  1  0
  2  3  2  0
  2  4  2  0
  2  5  1  0
  5  6  1  0
  6  7  2  0
  7  8  1  0
  8  9  2  0
  9 10  1  0
 10 11  1  0
 11 12  1  0
 12 13  2  0
 12 14  1  0
 14 15  1  0
 15 16  2  3
 16 17  1  0
 17 18  2  0
 18 19  1  0
 19 20  1  0
 20 21  1  0
 21 22  2  0
 22 23  1  0
 23 24  2  0
 24 25  1  0
 25 26  2  0
 26 27  1  0
 19 28  1  0
  9 29  1  0
 29 30  2  0
 30  6  1  0
 28 16  1  0
 26 21  1  0
  1 31  1  0
  1 32  1  0
  1 33  1  0
  7 34  1  0
  8 35  1  0
 10 36  1  0
 10 37  1  0
 11 38  1  0
 14 39  1  0
 14 40  1  0
 17 41  1  0
 18 42  1  0
 20 43  1  0
 20 44  1  0
 22 45  1  0
 23 46  1  0
 24 47  1  0
 25 48  1  0
 29 49  1  0
 30 50  1  0
M  CHG  2   5  -1  28  -1
M  END
>  <UniqueID>  (49) 
46

>  <SMILES>  (49) 
CS(=O)(=O)[N-]c1ccc(CNC(=O)CN=c2ccn(Cc3ccccc3Cl)[n-]2)cc1

>  <Energy>  (49) 
72.18657941564224

>  <Genealogy>  (49) 
CS(=O)(=O)[N-]c1ccc(CNC(=O)CN=c2ccn(Cc3ccccc3Cl)[n-]2)cc1 (protonated)
CS(=O)(=O)[N-]c1ccc(CNC(=O)CN=c2ccn(Cc3ccccc3Cl)[n-]2)cc1 (3D coordinates assigned)
CS(=O)(=O)[N-]c1ccc(CNC(=O)CN=c2ccn(Cc3ccccc3Cl)[n-]2)cc1 (optimized conformer: 72.18657941564224 kcal/mol)

>  <smiles>  (49) 
CS(=O)(=O)Nc1ccc(CNC(=O)CN=c2ccn(Cc3ccccc3Cl)[nH]2)cc1

>  <score_type>  (49) 
oracle

>  <origin>  (49) 
adg

>  <m_score__min__energy>  (49) 
-11.4

>  <m_primary>  (49) 
energy

$$$$
49:0
     RDKit          3D

 59 63  0  0  0  0  0  0  0  0999 V2000
   60.0788   30.0659   48.6277 H   0  0  0  0  0  0  0  0  0  0  0  0
   59.6790   29.3860   47.8610 C   0  0  0  0  0  0  0  0  0  0  0  0
   59.7561   28.2972   47.9972 H   0  0  0  0  0  0  0  0  0  0  0  0
   59.0970   29.8850   46.7590 C   0  0  0  0  0  0  0  0  0  0  0  0
   58.5470   29.1470   45.7060 C   0  0  0  0  0  0  0  0  0  0  0  0
   58.4740   27.8060   45.5990 C   0  0  0  0  0  0  0  0  0  0  0  0
   59.3782   27.2624   45.2877 H   0  0  0  0  0  0  0  0  0  0  0  0
   57.2550   27.0230   45.8740 C   0  0  0  0  0  0  0  0  0  0  0  0
   57.2770   25.7510   46.3130 N   0  0  0  0  0  0  0  0  0  0  0  0
   55.9710   25.4100   46.3510 C   0  0  0  0  0  0  0  0  0  0  0  0
   55.5790   24.2750   46.7280 O   0  0  0  0  0  0  0  0  0  0  0  0
   55.1190   26.3760   45.9410 N   0  0  0  0  0  0  0  0  0  0  0  0
   55.9470   27.3860   45.6300 C   0  0  0  0  0  0  0  0  0  0  0  0
   55.5190   28.5910   45.0860 O   0  0  0  0  0  0  0  0  0  0  0  0
   58.0220   30.0740   44.8130 C   0  0  0  0  0  0  0  0  0  0  0  0
   57.4995   29.8551   43.8701 H   0  0  0  0  0  0  0  0  0  0  0  0
   58.2840   31.3230   45.3400 C   0  0  0  0  0  0  0  0  0  0  0  0
   57.8540   32.6160   44.7160 C   0  0  0  0  0  0  0  0  0  0  0  0
   57.6125   33.3421   45.5063 H   0  0  0  0  0  0  0  0  0  0  0  0
   58.6692   33.0109   44.0919 H   0  0  0  0  0  0  0  0  0  0  0  0
   56.9647   32.4440   44.0919 H   0  0  0  0  0  0  0  0  0  0  0  0
   58.9300   31.2100   46.5220 N   0  0  0  0  0  0  0  0  0  0  0  0
   59.3460   32.3030   47.3590 C   0  0  0  0  0  0  0  0  0  0  0  0
   59.9960   33.4120   46.8010 C   0  0  0  0  0  0  0  0  0  0  0  0
   60.1896   33.4467   45.7187 H   0  0  0  0  0  0  0  0  0  0  0  0
   60.3990   34.4740   47.6150 C   0  0  0  0  0  0  0  0  0  0  0  0
   60.9036   35.3451   47.1716 H   0  0  0  0  0  0  0  0  0  0  0  0
   60.1620   34.4310   48.9910 C   0  0  0  0  0  0  0  0  0  0  0  0
   60.4782   35.2707   49.6273 H   0  0  0  0  0  0  0  0  0  0  0  0
   59.5220   33.3210   49.5660 C   0  0  0  0  0  0  0  0  0  0  0  0
   59.2720   33.2650   51.0210 C   0  0  0  0  0  0  0  0  0  0  0  0
   59.7850   34.1490   51.7630 O   0  0  0  0  0  0  0  0  0  0  0  0
   58.4430   32.2390   51.6040 N   0  0  0  0  0  0  0  0  0  0  0  0
   57.2730   31.7420   50.8630 C   0  0  0  0  0  0  0  0  0  0  0  0
   56.8188   32.5784   50.3116 H   0  0  0  0  0  0  0  0  0  0  0  0
   57.6128   30.9539   50.1749 H   0  0  0  0  0  0  0  0  0  0  0  0
   56.2230   31.1370   51.8000 C   0  0  0  0  0  0  0  0  0  0  0  0
   55.7471   31.9435   52.3771 H   0  0  0  0  0  0  0  0  0  0  0  0
   55.4738   30.6062   51.1943 H   0  0  0  0  0  0  0  0  0  0  0  0
   56.8420   30.1800   52.7290 N   0  0  0  0  0  0  0  0  0  0  0  0
   56.0890   29.0420   53.2050 C   0  0  0  0  0  0  0  0  0  0  0  0
   54.6950   28.9790   53.0170 C   0  0  0  0  0  0  0  0  0  0  0  0
   54.1689   29.7995   52.5071 H   0  0  0  0  0  0  0  0  0  0  0  0
   53.9840   27.8720   53.4800 C   0  0  0  0  0  0  0  0  0  0  0  0
   52.8949   27.8168   53.3355 H   0  0  0  0  0  0  0  0  0  0  0  0
   54.6560   26.8360   54.1260 C   0  0  0  0  0  0  0  0  0  0  0  0
   54.1027   25.9604   54.4964 H   0  0  0  0  0  0  0  0  0  0  0  0
   56.0380   26.9210   54.2980 C   0  0  0  0  0  0  0  0  0  0  0  0
   56.5779   26.1081   54.8057 H   0  0  0  0  0  0  0  0  0  0  0  0
   56.7210   28.0060   53.8400 N   0  0  0  0  0  0  0  0  0  0  0  0
   57.7580   28.0180   53.9670 H   0  0  0  0  0  0  0  0  0  0  0  0
   58.1790   30.4530   53.2800 C   0  0  0  0  0  0  0  0  0  0  0  0
   58.1610   30.2741   54.3652 H   0  0  0  0  0  0  0  0  0  0  0  0
   58.8983   29.7854   52.7831 H   0  0  0  0  0  0  0  0  0  0  0  0
   58.6120   31.9000   53.0220 C   0  0  0  0  0  0  0  0  0  0  0  0
   57.9964   32.5770   53.6325 H   0  0  0  0  0  0  0  0  0  0  0  0
   59.6731   32.0085   53.2911 H   0  0  0  0  0  0  0  0  0  0  0  0
   59.1010   32.2660   48.7400 C   0  0  0  0  0  0  0  0  0  0  0  0
   58.5756   31.4049   49.1787 H   0  0  0  0  0  0  0  0  0  0  0  0
  1  2  1  0
  2  3  1  0
  2  4  2  0
  4  5  1  0
  5  6  2  0
  6  7  1  0
  6  8  1  0
  8  9  1  0
  9 10  1  0
 10 11  2  0
 10 12  1  0
 12 13  1  0
 13 14  1  0
  5 15  1  0
 15 16  1  0
 15 17  2  0
 17 18  1  0
 18 19  1  0
 18 20  1  0
 18 21  1  0
 17 22  1  0
 22 23  1  0
 23 24  2  0
 24 25  1  0
 24 26  1  0
 26 27  1  0
 26 28  2  0
 28 29  1  0
 28 30  1  0
 30 31  1  0
 31 32  2  0
 31 33  1  0
 33 34  1  0
 34 35  1  0
 34 36  1  0
 34 37  1  0
 37 38  1  0
 37 39  1  0
 37 40  1  0
 40 41  1  0
 41 42  2  0
 42 43  1  0
 42 44  1  0
 44 45  1  0
 44 46  2  0
 46 47  1  0
 46 48  1  0
 48 49  1  0
 48 50  2  0
 50 51  1  0
 40 52  1  0
 52 53  1  0
 52 54  1  0
 52 55  1  0
 55 56  1  0
 55 57  1  0
 30 58  2  0
 58 59  1  0
 22  4  1  0
 58 23  1  0
 13  8  2  0
 55 33  1  0
 50 41  1  0
M  CHG  4   9  -1  12  -1  14  -1  50   1
M  END
>  <UniqueID>  (50) 
47

>  <SMILES>  (50) 
C=c1/c(=C/c2[n-]c(=O)[n-]c2[O-])cc(C)n1-c1cccc(C(=O)N2CCN(c3cccc[nH+]3)CC2)c1

>  <Energy>  (50) 
143.3034625335366

>  <Genealogy>  (50) 
C=c1c(=Cc2[n-]c(=O)[n-]c2[O-])cc(C)n1-c1cccc(C(=O)N2CCN(c3cccc[nH+]3)CC2)c1 (protonated)
C=c1/c(=C/c2[n-]c(=O)[n-]c2[O-])cc(C)n1-c1cccc(C(=O)N2CCN(c3cccc[nH+]3)CC2)c1 (cis-trans isomerization)
C=c1/c(=C/c2[n-]c(=O)[n-]c2[O-])cc(C)n1-c1cccc(C(=O)N2CCN(c3cccc[nH+]3)CC2)c1 (3D coordinates assigned)
C=c1/c(=C/c2[n-]c(=O)[n-]c2[O-])cc(C)n1-c1cccc(C(=O)N2CCN(c3cccc[nH+]3)CC2)c1 (nonaromatic ring conformer: 143.3034625335366 kcal/mol)

>  <smiles>  (50) 
C=c1c(=Cc2[nH]c(=O)[nH]c2O)cc(C)n1-c1cccc(C(=O)N2CCN(c3ccccn3)CC2)c1

>  <score_type>  (50) 
oracle

>  <origin>  (50) 
adg

>  <m_score__min__energy>  (50) 
-16.920000000000002

>  <m_primary>  (50) 
energy

$$$$
50:0
     RDKit          3D

 47 50  0  0  0  0  0  0  0  0999 V2000
   59.4400   36.8370   46.9520 H   0  0  0  0  0  0  0  0  0  0  0  0
   59.9120   36.1230   46.4150 O   0  0  0  0  0  0  0  0  0  0  0  0
   59.3400   34.8920   46.0780 C   0  0  0  0  0  0  0  0  0  0  0  0
   58.6520   34.8210   44.8660 C   0  0  0  0  0  0  0  0  0  0  0  0
   58.6039   35.7071   44.2160 H   0  0  0  0  0  0  0  0  0  0  0  0
   58.0270   33.6450   44.4700 C   0  0  0  0  0  0  0  0  0  0  0  0
   57.5023   33.6031   43.5041 H   0  0  0  0  0  0  0  0  0  0  0  0
   58.0610   32.5160   45.2910 C   0  0  0  0  0  0  0  0  0  0  0  0
   57.3950   31.3490   44.8890 C   0  0  0  0  0  0  0  0  0  0  0  0
   56.8753   31.3159   43.9200 H   0  0  0  0  0  0  0  0  0  0  0  0
   57.3940   30.2310   45.7220 C   0  0  0  0  0  0  0  0  0  0  0  0
   56.7750   29.1500   45.3410 N   0  0  0  0  0  0  0  0  0  0  0  0
   57.3720   28.0110   44.7000 C   0  0  0  0  0  0  0  0  0  0  0  0
   57.7400   28.1210   43.5000 O   0  0  0  0  0  0  0  0  0  0  0  0
   57.4960   26.6980   45.3800 C   0  0  0  0  0  0  0  0  0  0  0  0
   58.7420   26.0470   45.4270 C   0  0  0  0  0  0  0  0  0  0  0  0
   59.6189   26.5113   44.9521 H   0  0  0  0  0  0  0  0  0  0  0  0
   58.8740   24.8140   46.0730 C   0  0  0  0  0  0  0  0  0  0  0  0
   59.8508   24.3088   46.0975 H   0  0  0  0  0  0  0  0  0  0  0  0
   57.7680   24.2230   46.6870 C   0  0  0  0  0  0  0  0  0  0  0  0
   57.8739   23.2521   47.1931 H   0  0  0  0  0  0  0  0  0  0  0  0
   56.5270   24.8640   46.6590 C   0  0  0  0  0  0  0  0  0  0  0  0
   55.4580   24.2850   47.2590 F   0  0  0  0  0  0  0  0  0  0  0  0
   56.3850   26.0990   46.0100 C   0  0  0  0  0  0  0  0  0  0  0  0
   55.1360   26.7120   45.9830 O   0  0  0  0  0  0  0  0  0  0  0  0
   58.0560   30.2820   46.9090 N   0  0  0  0  0  0  0  0  0  0  0  0
   58.7190   31.3890   47.3290 C   0  0  0  0  0  0  0  0  0  0  0  0
   59.2342   31.3794   48.3008 H   0  0  0  0  0  0  0  0  0  0  0  0
   58.7540   32.5540   46.5300 C   0  0  0  0  0  0  0  0  0  0  0  0
   59.4360   33.7500   46.9170 C   0  0  0  0  0  0  0  0  0  0  0  0
   60.2560   33.8450   48.1950 C   0  0  0  0  0  0  0  0  0  0  0  0
   60.1139   34.8402   48.6416 H   0  0  0  0  0  0  0  0  0  0  0  0
   59.9183   33.0620   48.8898 H   0  0  0  0  0  0  0  0  0  0  0  0
   61.6920   33.6410   47.9130 N   0  0  0  0  0  0  0  0  0  0  0  0
   61.9040   32.3400   47.2470 C   0  0  0  0  0  0  0  0  0  0  0  0
   61.3988   31.5532   47.8264 H   0  0  0  0  0  0  0  0  0  0  0  0
   61.4901   32.3967   46.2294 H   0  0  0  0  0  0  0  0  0  0  0  0
   63.4070   32.0060   47.1470 C   0  0  0  0  0  0  0  0  0  0  0  0
   63.6418   31.1917   47.8482 H   0  0  0  0  0  0  0  0  0  0  0  0
   63.6300   31.7017   46.1137 H   0  0  0  0  0  0  0  0  0  0  0  0
   64.1990   33.1320   47.4650 O   0  0  0  0  0  0  0  0  0  0  0  0
   63.9940   33.4910   48.8190 C   0  0  0  0  0  0  0  0  0  0  0  0
   64.3828   32.6870   49.4612 H   0  0  0  0  0  0  0  0  0  0  0  0
   64.5214   34.4392   49.0000 H   0  0  0  0  0  0  0  0  0  0  0  0
   62.5010   33.7100   49.1460 C   0  0  0  0  0  0  0  0  0  0  0  0
   62.1643   32.9304   49.8452 H   0  0  0  0  0  0  0  0  0  0  0  0
   62.3760   34.7035   49.6014 H   0  0  0  0  0  0  0  0  0  0  0  0
  1  2  1  0
  2  3  1  0
  3  4  1  0
  4  5  1  0
  4  6  2  0
  6  7  1  0
  6  8  1  0
  8  9  2  0
  9 10  1  0
  9 11  1  0
 11 12  2  0
 12 13  1  0
 13 14  2  0
 13 15  1  0
 15 16  2  0
 16 17  1  0
 16 18  1  0
 18 19  1  0
 18 20  2  0
 20 21  1  0
 20 22  1  0
 22 23  1  0
 22 24  2  0
 24 25  1  0
 11 26  1  0
 26 27  1  0
 27 28  1  0
 27 29  2  0
 29 30  1  0
 30 31  1  0
 31 32  1  0
 31 33  1  0
 31 34  1  0
 34 35  1  0
 35 36  1  0
 35 37  1  0
 35 38  1  0
 38 39  1  0
 38 40  1  0
 38 41  1  0
 41 42  1  0
 42 43  1  0
 42 44  1  0
 42 45  1  0
 45 46  1  0
 45 47  1  0
 30  3  2  0
 45 34  1  0
 29  8  1  0
 24 15  1  0
M  CHG  2  25  -1  26  -1
M  END
>  <UniqueID>  (51) 
48

>  <SMILES>  (51) 
O=C(/N=c1/cc2ccc(O)c(CN3CCOCC3)c2c[n-]1)c1cccc(F)c1[O-]

>  <Energy>  (51) 
78.6255427060468

>  <Genealogy>  (51) 
O=C(N=c1cc2ccc(O)c(CN3CCOCC3)c2c[n-]1)c1cccc(F)c1[O-] (protonated)
O=C(/N=c1/cc2ccc(O)c(CN3CCOCC3)c2c[n-]1)c1cccc(F)c1[O-] (cis-trans isomerization)
O=C(/N=c1/cc2ccc(O)c(CN3CCOCC3)c2c[n-]1)c1cccc(F)c1[O-] (3D coordinates assigned)
O=C(/N=c1/cc2ccc(O)c(CN3CCOCC3)c2c[n-]1)c1cccc(F)c1[O-] (nonaromatic ring conformer: 78.6255427060468 kcal/mol)

>  <smiles>  (51) 
O=C(N=c1cc2ccc(O)c(CN3CCOCC3)c2c[nH]1)c1cccc(F)c1O

>  <score_type>  (51) 
oracle

>  <origin>  (51) 
adg

>  <m_score__min__energy>  (51) 
-13.970000000000001

>  <m_primary>  (51) 
energy

$$$$
51:0
     RDKit          3D

 57 60  0  0  0  0  0  0  0  0999 V2000
   67.2220   33.8280   50.5010 C   0  0  0  0  0  0  0  0  0  0  0  0
   66.6170   32.5160   50.9260 C   0  0  0  0  0  0  0  0  0  0  0  0
   67.4590   31.4460   51.2830 C   0  0  0  0  0  0  0  0  0  0  0  0
   66.9230   30.2040   51.6300 C   0  0  0  0  0  0  0  0  0  0  0  0
   65.5420   30.0100   51.6130 C   0  0  0  0  0  0  0  0  0  0  0  0
   64.6920   31.0600   51.2600 C   0  0  0  0  0  0  0  0  0  0  0  0
   65.2170   32.3190   50.9280 C   0  0  0  0  0  0  0  0  0  0  0  0
   64.2840   33.4060   50.5710 C   0  0  0  0  0  0  0  0  0  0  0  0
   64.2750   34.4470   51.2800 O   0  0  0  0  0  0  0  0  0  0  0  0
   63.3930   33.2940   49.4410 N   0  0  0  0  0  0  0  0  0  0  0  0
   62.1850   34.1360   49.4050 C   0  0  0  0  0  0  0  0  0  0  0  0
   61.4880   34.0830   48.0420 C   0  0  0  0  0  0  0  0  0  0  0  0
   61.3830   32.6940   47.5730 N   0  0  0  0  0  0  0  0  0  0  0  0
   60.2090   32.2600   46.8580 C   0  0  0  0  0  0  0  0  0  0  0  0
   59.9540   30.8920   46.6670 C   0  0  0  0  0  0  0  0  0  0  0  0
   58.8050   30.4740   45.9880 C   0  0  0  0  0  0  0  0  0  0  0  0
   57.8880   31.4180   45.4990 C   0  0  0  0  0  0  0  0  0  0  0  0
   56.7170   31.0230   44.7720 N   0  0  0  0  0  0  0  0  0  0  0  0
   56.2700   29.6800   44.5390 C   0  0  0  0  0  0  0  0  0  0  0  0
   55.1310   29.3400   44.9550 O   0  0  0  0  0  0  0  0  0  0  0  0
   57.1390   28.6580   43.8690 C   0  0  0  0  0  0  0  0  0  0  0  0
   57.7640   27.8150   44.8800 N   0  0  0  0  0  0  0  0  0  0  0  0
   57.0900   27.1120   45.9330 C   0  0  0  0  0  0  0  0  0  0  0  0
   57.3410   27.4350   47.1240 O   0  0  0  0  0  0  0  0  0  0  0  0
   56.1550   25.9930   45.6990 C   0  0  0  0  0  0  0  0  0  0  0  0
   56.4340   24.7520   45.1520 C   0  0  0  0  0  0  0  0  0  0  0  0
   55.2320   24.0820   45.1070 C   0  0  0  0  0  0  0  0  0  0  0  0
   54.2910   24.9500   45.6180 C   0  0  0  0  0  0  0  0  0  0  0  0
   54.8700   26.0780   45.9580 O   0  0  0  0  0  0  0  0  0  0  0  0
   58.1570   32.7800   45.6590 C   0  0  0  0  0  0  0  0  0  0  0  0
   59.3000   33.2010   46.3420 C   0  0  0  0  0  0  0  0  0  0  0  0
   62.5410   31.7940   47.6750 C   0  0  0  0  0  0  0  0  0  0  0  0
   63.7690   32.5050   48.2580 C   0  0  0  0  0  0  0  0  0  0  0  0
   67.4919   34.4132   51.3925 H   0  0  0  0  0  0  0  0  0  0  0  0
   68.1236   33.6384   49.9001 H   0  0  0  0  0  0  0  0  0  0  0  0
   66.4924   34.3906   49.9001 H   0  0  0  0  0  0  0  0  0  0  0  0
   68.5496   31.5895   51.2887 H   0  0  0  0  0  0  0  0  0  0  0  0
   67.5905   29.3781   51.9169 H   0  0  0  0  0  0  0  0  0  0  0  0
   65.1219   29.0285   51.8780 H   0  0  0  0  0  0  0  0  0  0  0  0
   63.6039   30.8997   51.2419 H   0  0  0  0  0  0  0  0  0  0  0  0
   61.4839   33.7841   50.1761 H   0  0  0  0  0  0  0  0  0  0  0  0
   62.4908   35.1764   49.5896 H   0  0  0  0  0  0  0  0  0  0  0  0
   60.4791   34.5115   48.1341 H   0  0  0  0  0  0  0  0  0  0  0  0
   62.0796   34.6605   47.3164 H   0  0  0  0  0  0  0  0  0  0  0  0
   60.6625   30.1447   47.0539 H   0  0  0  0  0  0  0  0  0  0  0  0
   58.6189   29.4005   45.8364 H   0  0  0  0  0  0  0  0  0  0  0  0
   56.5252   28.0359   43.2010 H   0  0  0  0  0  0  0  0  0  0  0  0
   57.9183   29.1667   43.2825 H   0  0  0  0  0  0  0  0  0  0  0  0
   57.4143   24.3782   44.8214 H   0  0  0  0  0  0  0  0  0  0  0  0
   55.0578   23.0605   44.7379 H   0  0  0  0  0  0  0  0  0  0  0  0
   53.2183   24.7309   45.7246 H   0  0  0  0  0  0  0  0  0  0  0  0
   57.4633   33.5259   45.2439 H   0  0  0  0  0  0  0  0  0  0  0  0
   59.4907   34.2759   46.4773 H   0  0  0  0  0  0  0  0  0  0  0  0
   62.2774   30.9479   48.3266 H   0  0  0  0  0  0  0  0  0  0  0  0
   62.7956   31.4501   46.6616 H   0  0  0  0  0  0  0  0  0  0  0  0
   64.5190   31.7540   48.5470 H   0  0  0  0  0  0  0  0  0  0  0  0
   64.1841   33.1812   47.4961 H   0  0  0  0  0  0  0  0  0  0  0  0
  1  2  1  0
  2  3  2  0
  3  4  1  0
  4  5  2  0
  5  6  1  0
  6  7  2  0
  7  8  1  0
  8  9  2  0
  8 10  1  0
 10 11  1  0
 11 12  1  0
 12 13  1  0
 13 14  1  0
 14 15  2  0
 15 16  1  0
 16 17  2  0
 17 18  1  0
 18 19  1  0
 19 20  2  0
 19 21  1  0
 21 22  1  0
 22 23  1  0
 23 24  2  0
 23 25  1  0
 25 26  2  0
 26 27  1  0
 27 28  2  0
 28 29  1  0
 17 30  1  0
 30 31  2  0
 13 32  1  0
 32 33  1  0
  7  2  1  0
 33 10  1  0
 31 14  1  0
 29 25  1  0
  1 34  1  0
  1 35  1  0
  1 36  1  0
  3 37  1  0
  4 38  1  0
  5 39  1  0
  6 40  1  0
 11 41  1  0
 11 42  1  0
 12 43  1  0
 12 44  1  0
 15 45  1  0
 16 46  1  0
 21 47  1  0
 21 48  1  0
 26 49  1  0
 27 50  1  0
 28 51  1  0
 30 52  1  0
 31 53  1  0
 32 54  1  0
 32 55  1  0
 33 56  1  0
 33 57  1  0
M  CHG  2  18  -1  22  -1
M  END
>  <UniqueID>  (52) 
49

>  <SMILES>  (52) 
Cc1ccccc1C(=O)N1CCN(c2ccc([N-]C(=O)C[N-]C(=O)c3ccco3)cc2)CC1

>  <Energy>  (52) 
103.29544950124047

>  <Genealogy>  (52) 
Cc1ccccc1C(=O)N1CCN(c2ccc([N-]C(=O)C[N-]C(=O)c3ccco3)cc2)CC1 (protonated)
Cc1ccccc1C(=O)N1CCN(c2ccc([N-]C(=O)C[N-]C(=O)c3ccco3)cc2)CC1 (3D coordinates assigned)
Cc1ccccc1C(=O)N1CCN(c2ccc([N-]C(=O)C[N-]C(=O)c3ccco3)cc2)CC1 (nonaromatic ring conformer: 103.29544950124047 kcal/mol)

>  <smiles>  (52) 
Cc1ccccc1C(=O)N1CCN(c2ccc(NC(=O)CNC(=O)c3ccco3)cc2)CC1

>  <score_type>  (52) 
oracle

>  <origin>  (52) 
adg

>  <m_score__min__energy>  (52) 
-12.56

>  <m_primary>  (52) 
energy

$$$$
52:0
     RDKit          3D

 70 73  0  0  0  0  0  0  0  0999 V2000
   59.6490   34.1810   44.0250 O   0  0  0  0  0  0  0  0  0  0  0  0
   58.6200   33.7880   44.6340 C   0  0  0  0  0  0  0  0  0  0  0  0
   57.8740   32.5900   44.1180 C   0  0  0  0  0  0  0  0  0  0  0  0
   57.3220   31.8420   45.2000 O   0  0  0  0  0  0  0  0  0  0  0  0
   57.4450   30.4530   45.3150 C   0  0  0  0  0  0  0  0  0  0  0  0
   56.4520   29.7000   45.1260 O   0  0  0  0  0  0  0  0  0  0  0  0
   58.7770   29.8570   45.6460 C   0  0  0  0  0  0  0  0  0  0  0  0
   59.6700   30.8750   46.1940 N   0  0  0  0  0  0  0  0  0  0  0  0
   60.7550   30.5470   47.0780 C   0  0  0  0  0  0  0  0  0  0  0  0
   60.8550   29.3740   47.5320 O   0  0  0  0  0  0  0  0  0  0  0  0
   61.7490   31.5700   47.4860 C   0  0  0  0  0  0  0  0  0  0  0  0
   62.5440   31.3620   48.6280 C   0  0  0  0  0  0  0  0  0  0  0  0
   63.4890   32.3160   49.0180 C   0  0  0  0  0  0  0  0  0  0  0  0
   63.6570   33.4830   48.2690 C   0  0  0  0  0  0  0  0  0  0  0  0
   62.8820   33.6960   47.1270 C   0  0  0  0  0  0  0  0  0  0  0  0
   61.9340   32.7460   46.7330 C   0  0  0  0  0  0  0  0  0  0  0  0
   58.2150   34.4710   45.8240 N   0  0  0  0  0  0  0  0  0  0  0  0
   59.1390   35.0040   46.8190 C   0  0  0  0  0  0  0  0  0  0  0  0
   59.2180   34.0560   47.9800 C   0  0  0  0  0  0  0  0  0  0  0  0
   60.0740   34.3310   49.0570 C   0  0  0  0  0  0  0  0  0  0  0  0
   60.1220   33.4720   50.1580 C   0  0  0  0  0  0  0  0  0  0  0  0
   59.2980   32.3340   50.2090 C   0  0  0  0  0  0  0  0  0  0  0  0
   59.3570   31.4240   51.3760 C   0  0  0  0  0  0  0  0  0  0  0  0
   60.4800   31.0370   51.8030 O   0  0  0  0  0  0  0  0  0  0  0  0
   58.1590   30.9520   52.0180 N   0  0  0  0  0  0  0  0  0  0  0  0
   58.1230   29.5770   52.5320 C   0  0  0  0  0  0  0  0  0  0  0  0
   56.7210   29.2130   53.0280 C   0  0  0  0  0  0  0  0  0  0  0  0
   55.7280   29.8110   52.1200 N   0  0  0  0  0  0  0  0  0  0  0  0
   54.3860   29.1920   52.2160 C   0  0  0  0  0  0  0  0  0  0  0  0
   53.2430   30.1850   52.1370 C   0  0  0  0  0  0  0  0  0  0  0  0
   52.8420   30.7090   50.8950 C   0  0  0  0  0  0  0  0  0  0  0  0
   51.7860   31.6220   50.8210 C   0  0  0  0  0  0  0  0  0  0  0  0
   51.1150   32.0130   51.9820 C   0  0  0  0  0  0  0  0  0  0  0  0
   51.4960   31.4860   53.2200 C   0  0  0  0  0  0  0  0  0  0  0  0
   52.5500   30.5720   53.2980 C   0  0  0  0  0  0  0  0  0  0  0  0
   55.7020   31.2890   52.2100 C   0  0  0  0  0  0  0  0  0  0  0  0
   57.1050   31.8970   52.4150 C   0  0  0  0  0  0  0  0  0  0  0  0
   58.4420   32.0610   49.1290 C   0  0  0  0  0  0  0  0  0  0  0  0
   58.3940   32.9220   48.0270 C   0  0  0  0  0  0  0  0  0  0  0  0
   57.0607   32.9264   43.4582 H   0  0  0  0  0  0  0  0  0  0  0  0
   58.5726   31.9482   43.5612 H   0  0  0  0  0  0  0  0  0  0  0  0
   58.6413   29.0567   46.3884 H   0  0  0  0  0  0  0  0  0  0  0  0
   59.2231   29.4493   44.7269 H   0  0  0  0  0  0  0  0  0  0  0  0
   59.4790   31.8720   45.9490 H   0  0  0  0  0  0  0  0  0  0  0  0
   62.4213   30.4421   49.2184 H   0  0  0  0  0  0  0  0  0  0  0  0
   64.1012   32.1472   49.9162 H   0  0  0  0  0  0  0  0  0  0  0  0
   64.3992   34.2336   48.5785 H   0  0  0  0  0  0  0  0  0  0  0  0
   63.0175   34.6135   46.5356 H   0  0  0  0  0  0  0  0  0  0  0  0
   61.3296   32.9182   45.8302 H   0  0  0  0  0  0  0  0  0  0  0  0
   60.1365   35.1190   46.3699 H   0  0  0  0  0  0  0  0  0  0  0  0
   58.7809   35.9841   47.1670 H   0  0  0  0  0  0  0  0  0  0  0  0
   60.7108   35.2277   49.0346 H   0  0  0  0  0  0  0  0  0  0  0  0
   60.8087   33.6874   50.9899 H   0  0  0  0  0  0  0  0  0  0  0  0
   58.4109   28.8845   51.7273 H   0  0  0  0  0  0  0  0  0  0  0  0
   58.8242   29.5000   53.3760 H   0  0  0  0  0  0  0  0  0  0  0  0
   56.6037   28.1193   53.0359 H   0  0  0  0  0  0  0  0  0  0  0  0
   56.5737   29.5961   54.0486 H   0  0  0  0  0  0  0  0  0  0  0  0
   54.2770   28.4724   51.3912 H   0  0  0  0  0  0  0  0  0  0  0  0
   54.3254   28.7142   53.2050 H   0  0  0  0  0  0  0  0  0  0  0  0
   53.3622   30.3987   49.9768 H   0  0  0  0  0  0  0  0  0  0  0  0
   51.4830   32.0332   49.8468 H   0  0  0  0  0  0  0  0  0  0  0  0
   50.2873   32.7351   51.9225 H   0  0  0  0  0  0  0  0  0  0  0  0
   50.9652   31.7914   54.1337 H   0  0  0  0  0  0  0  0  0  0  0  0
   52.8394   30.1528   54.2730 H   0  0  0  0  0  0  0  0  0  0  0  0
   55.2768   31.6910   51.2786 H   0  0  0  0  0  0  0  0  0  0  0  0
   55.0918   31.5583   53.0847 H   0  0  0  0  0  0  0  0  0  0  0  0
   57.1931   32.8088   51.8060 H   0  0  0  0  0  0  0  0  0  0  0  0
   57.2306   32.1292   53.4829 H   0  0  0  0  0  0  0  0  0  0  0  0
   57.8052   31.1643   49.1498 H   0  0  0  0  0  0  0  0  0  0  0  0
   57.7074   32.7087   47.1945 H   0  0  0  0  0  0  0  0  0  0  0  0
  1  2  2  0
  2  3  1  0
  3  4  1  0
  4  5  1  0
  5  6  2  0
  5  7  1  0
  7  8  1  0
  8  9  1  0
  9 10  2  0
  9 11  1  0
 11 12  2  0
 12 13  1  0
 13 14  2  0
 14 15  1  0
 15 16  2  0
  2 17  1  0
 17 18  1  0
 18 19  1  0
 19 20  2  0
 20 21  1  0
 21 22  2  0
 22 23  1  0
 23 24  2  0
 23 25  1  0
 25 26  1  0
 26 27  1  0
 27 28  1  0
 28 29  1  0
 29 30  1  0
 30 31  2  0
 31 32  1  0
 32 33  2  0
 33 34  1  0
 34 35  2  0
 28 36  1  0
 36 37  1  0
 22 38  1  0
 38 39  2  0
 16 11  1  0
 39 19  1  0
 37 25  1  0
 35 30  1  0
  3 40  1  0
  3 41  1  0
  7 42  1  0
  7 43  1  0
  8 44  1  0
 12 45  1  0
 13 46  1  0
 14 47  1  0
 15 48  1  0
 16 49  1  0
 18 50  1  0
 18 51  1  0
 20 52  1  0
 21 53  1  0
 26 54  1  0
 26 55  1  0
 27 56  1  0
 27 57  1  0
 29 58  1  0
 29 59  1  0
 31 60  1  0
 32 61  1  0
 33 62  1  0
 34 63  1  0
 35 64  1  0
 36 65  1  0
 36 66  1  0
 37 67  1  0
 37 68  1  0
 38 69  1  0
 39 70  1  0
M  CHG  1  17  -1
M  END
>  <UniqueID>  (53) 
50

>  <SMILES>  (53) 
O=C(COC(=O)CNC(=O)c1ccccc1)[N-]Cc1ccc(C(=O)N2CCN(Cc3ccccc3)CC2)cc1

>  <Energy>  (53) 
80.46868628781294

>  <Genealogy>  (53) 
O=C(COC(=O)CNC(=O)c1ccccc1)[N-]Cc1ccc(C(=O)N2CCN(Cc3ccccc3)CC2)cc1 (protonated)
O=C(COC(=O)CNC(=O)c1ccccc1)[N-]Cc1ccc(C(=O)N2CCN(Cc3ccccc3)CC2)cc1 (3D coordinates assigned)
O=C(COC(=O)CNC(=O)c1ccccc1)[N-]Cc1ccc(C(=O)N2CCN(Cc3ccccc3)CC2)cc1 (nonaromatic ring conformer: 80.46868628781294 kcal/mol)

>  <smiles>  (53) 
O=C(COC(=O)CNC(=O)c1ccccc1)NCc1ccc(C(=O)N2CCN(Cc3ccccc3)CC2)cc1

>  <score_type>  (53) 
oracle

>  <origin>  (53) 
adg

>  <m_score__min__energy>  (53) 
-11.52

>  <m_primary>  (53) 
energy

$$$$
53:0
     RDKit          3D

 42 44  0  0  0  0  0  0  0  0999 V2000
   56.6120   27.4580   45.6230 N   0  0  0  0  0  0  0  0  0  0  0  0
   57.3770   28.3490   46.1750 C   0  0  0  0  0  0  0  0  0  0  0  0
   58.0250   28.0300   47.3250 N   0  0  0  0  0  0  0  0  0  0  0  0
   58.8070   28.9220   47.9830 C   0  0  0  0  0  0  0  0  0  0  0  0
   58.9570   30.2210   47.4720 C   0  0  0  0  0  0  0  0  0  0  0  0
   59.7690   31.2540   48.1650 C   0  0  0  0  0  0  0  0  0  0  0  0
   59.3620   31.8050   49.3960 C   0  0  0  0  0  0  0  0  0  0  0  0
   60.1390   32.7810   50.0240 C   0  0  0  0  0  0  0  0  0  0  0  0
   61.3300   33.2170   49.4400 C   0  0  0  0  0  0  0  0  0  0  0  0
   61.7580   32.6670   48.2260 C   0  0  0  0  0  0  0  0  0  0  0  0
   63.2500   33.2150   47.4680 S   0  0  0  0  0  0  0  0  0  0  0  0
   64.0790   31.8650   46.7780 N   0  0  0  0  0  0  0  0  0  0  0  0
   62.9450   34.2150   46.3870 O   0  0  0  0  0  0  0  0  0  0  0  0
   64.1250   33.8710   48.5000 O   0  0  0  0  0  0  0  0  0  0  0  0
   60.9790   31.6890   47.5940 C   0  0  0  0  0  0  0  0  0  0  0  0
   58.3070   30.5410   46.3200 N   0  0  0  0  0  0  0  0  0  0  0  0
   57.5270   29.6530   45.6490 C   0  0  0  0  0  0  0  0  0  0  0  0
   56.8720   30.0940   44.4010 C   0  0  0  0  0  0  0  0  0  0  0  0
   55.6810   29.7540   44.1730 O   0  0  0  0  0  0  0  0  0  0  0  0
   57.5590   30.8940   43.4290 N   0  0  0  0  0  0  0  0  0  0  0  0
   57.4220   32.3410   43.2680 C   0  0  0  0  0  0  0  0  0  0  0  0
   57.9100   33.0720   44.4920 C   0  0  0  0  0  0  0  0  0  0  0  0
   59.1520   33.7290   44.4820 C   0  0  0  0  0  0  0  0  0  0  0  0
   59.6110   34.3830   45.6300 C   0  0  0  0  0  0  0  0  0  0  0  0
   58.8300   34.3990   46.7880 C   0  0  0  0  0  0  0  0  0  0  0  0
   59.2770   35.0340   47.8990 F   0  0  0  0  0  0  0  0  0  0  0  0
   57.5860   33.7620   46.8000 C   0  0  0  0  0  0  0  0  0  0  0  0
   57.1230   33.1050   45.6560 C   0  0  0  0  0  0  0  0  0  0  0  0
   55.9110   27.6650   44.8800 H   0  0  0  0  0  0  0  0  0  0  0  0
   59.3202   28.6294   48.9109 H   0  0  0  0  0  0  0  0  0  0  0  0
   58.4271   31.4647   49.8652 H   0  0  0  0  0  0  0  0  0  0  0  0
   59.8111   33.2082   50.9832 H   0  0  0  0  0  0  0  0  0  0  0  0
   61.9325   33.9933   49.9343 H   0  0  0  0  0  0  0  0  0  0  0  0
   64.8510   32.2500   46.1880 H   0  0  0  0  0  0  0  0  0  0  0  0
   64.5320   31.3490   47.5660 H   0  0  0  0  0  0  0  0  0  0  0  0
   61.3171   31.2564   46.6408 H   0  0  0  0  0  0  0  0  0  0  0  0
   58.0128   32.6631   42.3979 H   0  0  0  0  0  0  0  0  0  0  0  0
   56.3576   32.5769   43.1216 H   0  0  0  0  0  0  0  0  0  0  0  0
   59.7651   33.7290   43.5687 H   0  0  0  0  0  0  0  0  0  0  0  0
   60.5893   34.8859   45.6209 H   0  0  0  0  0  0  0  0  0  0  0  0
   56.9700   33.7776   47.7112 H   0  0  0  0  0  0  0  0  0  0  0  0
   56.1396   32.6123   45.6670 H   0  0  0  0  0  0  0  0  0  0  0  0
  1  2  2  3
  2  3  1  0
  3  4  1  0
  4  5  2  0
  5  6  1  0
  6  7  2  0
  7  8  1  0
  8  9  2  0
  9 10  1  0
 10 11  1  0
 11 12  1  0
 11 13  2  0
 11 14  2  0
 10 15  2  0
  5 16  1  0
 16 17  2  0
 17 18  1  0
 18 19  2  0
 18 20  1  0
 20 21  1  0
 21 22  1  0
 22 23  2  0
 23 24  1  0
 24 25  2  0
 25 26  1  0
 25 27  1  0
 27 28  2  0
 17  2  1  0
 28 22  1  0
 15  6  1  0
  1 29  1  0
  4 30  1  0
  7 31  1  0
  8 32  1  0
  9 33  1  0
 12 34  1  0
 12 35  1  0
 15 36  1  0
 21 37  1  0
 21 38  1  0
 23 39  1  0
 24 40  1  0
 27 41  1  0
 28 42  1  0
M  CHG  2   3  -1  20  -1
M  END
>  <UniqueID>  (54) 
51

>  <SMILES>  (54) 
N=c1[n-]cc(-c2cccc(S(N)(=O)=O)c2)nc1C(=O)[N-]Cc1ccc(F)cc1

>  <Energy>  (54) 
51.68198859494197

>  <Genealogy>  (54) 
N=c1[n-]cc(-c2cccc(S(N)(=O)=O)c2)nc1C(=O)[N-]Cc1ccc(F)cc1 (protonated)
N=c1[n-]cc(-c2cccc(S(N)(=O)=O)c2)nc1C(=O)[N-]Cc1ccc(F)cc1 (3D coordinates assigned)
N=c1[n-]cc(-c2cccc(S(N)(=O)=O)c2)nc1C(=O)[N-]Cc1ccc(F)cc1 (optimized conformer: 51.68198859494197 kcal/mol)

>  <smiles>  (54) 
N=c1[nH]cc(-c2cccc(S(N)(=O)=O)c2)nc1C(=O)NCc1ccc(F)cc1

>  <score_type>  (54) 
oracle

>  <origin>  (54) 
adg

>  <m_score__min__energy>  (54) 
-12.119999999999999

>  <m_primary>  (54) 
energy

$$$$
54:0
     RDKit          3D

 40 41  0  0  0  0  0  0  0  0999 V2000
   57.8580   30.8850   44.8390 C   0  0  0  0  0  0  0  0  0  0  0  0
   56.5680   29.7320   44.2710 S   0  0  0  0  0  0  0  0  0  0  0  0
   57.7420   28.4550   43.6970 C   0  0  0  0  0  0  0  0  0  0  0  0
   57.7750   27.2540   44.6540 C   0  0  0  0  0  0  0  0  0  0  0  0
   57.0300   27.5080   45.9830 C   0  0  2  0  0  0  0  0  0  0  0  0
   57.9960   27.7340   47.0630 N   0  0  0  0  0  0  0  0  0  0  0  0
   59.2660   27.0650   47.1150 C   0  0  0  0  0  0  0  0  0  0  0  0
   59.5910   26.2410   46.2200 O   0  0  0  0  0  0  0  0  0  0  0  0
   60.2380   27.3840   48.2050 C   0  0  0  0  0  0  0  0  0  0  0  0
   59.7340   28.5030   48.9840 N   0  0  0  0  0  0  0  0  0  0  0  0
   59.6130   29.8300   48.4610 C   0  0  0  0  0  0  0  0  0  0  0  0
   58.4870   30.2520   48.0810 O   0  0  0  0  0  0  0  0  0  0  0  0
   60.8030   30.7040   48.3680 C   0  0  0  0  0  0  0  0  0  0  0  0
   61.0340   31.4800   47.2050 C   0  0  0  0  0  0  0  0  0  0  0  0
   62.1640   32.3110   47.1060 C   0  0  0  0  0  0  0  0  0  0  0  0
   63.0560   32.3640   48.1750 C   0  0  0  0  0  0  0  0  0  0  0  0
   64.1800   33.1230   48.2000 N   0  0  0  0  0  0  0  0  0  0  0  0
   64.8500   32.9730   49.3690 C   0  0  0  0  0  0  0  0  0  0  0  0
   64.0640   31.8940   50.4090 S   0  0  0  0  0  0  0  0  0  0  0  0
   62.8260   31.6120   49.3130 C   0  0  0  0  0  0  0  0  0  0  0  0
   61.7190   30.7770   49.4430 C   0  0  0  0  0  0  0  0  0  0  0  0
   56.1260   26.3590   46.3410 C   0  0  0  0  0  0  0  0  0  0  0  0
   54.7960   26.3020   45.8320 N   0  0  0  0  0  0  0  0  0  0  0  0
   56.5370   25.4510   47.1130 O   0  0  0  0  0  0  0  0  0  0  0  0
   57.8766   30.9016   45.9387 H   0  0  0  0  0  0  0  0  0  0  0  0
   58.8369   30.5553   44.4607 H   0  0  0  0  0  0  0  0  0  0  0  0
   57.6398   31.8946   44.4607 H   0  0  0  0  0  0  0  0  0  0  0  0
   57.4350   28.1091   42.6990 H   0  0  0  0  0  0  0  0  0  0  0  0
   58.7478   28.8991   43.6636 H   0  0  0  0  0  0  0  0  0  0  0  0
   57.3078   26.3945   44.1511 H   0  0  0  0  0  0  0  0  0  0  0  0
   58.8298   27.0666   44.9037 H   0  0  0  0  0  0  0  0  0  0  0  0
   56.4046   28.4033   45.8512 H   0  0  0  0  0  0  0  0  0  0  0  0
   57.7660   28.4110   47.8280 H   0  0  0  0  0  0  0  0  0  0  0  0
   60.3596   26.5068   48.8575 H   0  0  0  0  0  0  0  0  0  0  0  0
   61.2112   27.6486   47.7659 H   0  0  0  0  0  0  0  0  0  0  0  0
   60.3204   31.4317   46.3692 H   0  0  0  0  0  0  0  0  0  0  0  0
   62.3407   32.9091   46.1999 H   0  0  0  0  0  0  0  0  0  0  0  0
   65.7902   33.4898   49.6119 H   0  0  0  0  0  0  0  0  0  0  0  0
   61.5611   30.1889   50.3591 H   0  0  0  0  0  0  0  0  0  0  0  0
   53.9990   26.7210   46.3600 H   0  0  0  0  0  0  0  0  0  0  0  0
  1  2  1  0
  2  3  1  0
  3  4  1  0
  4  5  1  0
  5  6  1  0
  6  7  1  0
  7  8  2  0
  7  9  1  0
  9 10  1  0
 10 11  1  0
 11 12  2  0
 11 13  1  0
 13 14  2  0
 14 15  1  0
 15 16  2  0
 16 17  1  0
 17 18  2  0
 18 19  1  0
 19 20  1  0
 20 21  2  0
  5 22  1  0
 22 23  1  0
 22 24  2  0
 21 13  1  0
 20 16  1  0
  1 25  1  0
  1 26  1  0
  1 27  1  0
  3 28  1  0
  3 29  1  0
  4 30  1  0
  4 31  1  0
  5 32  1  6
  6 33  1  0
  9 34  1  0
  9 35  1  0
 14 36  1  0
 15 37  1  0
 18 38  1  0
 21 39  1  0
 23 40  1  0
M  CHG  2  10  -1  23  -1
M  END
>  <UniqueID>  (55) 
52

>  <SMILES>  (55) 
CSCC[C@H](NC(=O)C[N-]C(=O)c1ccc2ncsc2c1)C([NH-])=O

>  <Energy>  (55) 
63.7695582310467

>  <Genealogy>  (55) 
CSCCC(NC(=O)C[N-]C(=O)c1ccc2ncsc2c1)C([NH-])=O (protonated)
CSCC[C@H](NC(=O)C[N-]C(=O)c1ccc2ncsc2c1)C([NH-])=O (chirality)
CSCC[C@H](NC(=O)C[N-]C(=O)c1ccc2ncsc2c1)C([NH-])=O (3D coordinates assigned)
CSCC[C@H](NC(=O)C[N-]C(=O)c1ccc2ncsc2c1)C([NH-])=O (optimized conformer: 63.7695582310467 kcal/mol)

>  <smiles>  (55) 
CSCCC(NC(=O)CNC(=O)c1ccc2ncsc2c1)C(N)=O

>  <score_type>  (55) 
oracle

>  <origin>  (55) 
adg

>  <m_score__min__energy>  (55) 
-12.41

>  <m_primary>  (55) 
energy

$$$$
55:0
     RDKit          3D

 66 69  0  0  1  0  0  0  0  0999 V2000
   63.3460   34.1770   46.3720 C   0  0  0  0  0  0  0  0  0  0  0  0
   63.5250   32.9370   47.0570 N   0  0  0  0  0  0  0  0  0  0  0  0
   62.5470   32.3680   47.6330 C   0  0  0  0  0  0  0  0  0  0  0  0
   61.4370   32.2030   46.8600 N   0  0  0  0  0  0  0  0  0  0  0  0
   60.3230   31.6070   47.2960 C   0  0  0  0  0  0  0  0  0  0  0  0
   59.2900   31.4700   46.5410 N   0  0  0  0  0  0  0  0  0  0  0  0
   58.7170   30.2080   46.2300 C   0  0  0  0  0  0  0  0  0  0  0  0
   59.4670   29.0540   46.3270 C   0  0  0  0  0  0  0  0  0  0  0  0
   58.9560   27.8120   46.0340 C   0  0  0  0  0  0  0  0  0  0  0  0
   57.6250   27.6560   45.6170 C   0  0  0  0  0  0  0  0  0  0  0  0
   57.1870   26.3190   45.3350 C   0  0  0  0  0  0  0  0  0  0  0  0
   55.9820   25.9840   45.6140 O   0  0  0  0  0  0  0  0  0  0  0  0
   57.9680   25.2840   44.7640 N   0  0  0  0  0  0  0  0  0  0  0  0
   57.3930   23.9880   44.5400 C   0  0  0  0  0  0  0  0  0  0  0  0
   56.7670   23.8480   43.1760 C   0  0  0  0  0  0  0  0  0  0  0  0
   55.8950   22.5870   43.2280 C   0  0  0  0  0  0  0  0  0  0  0  0
   56.5730   21.6360   44.0460 N   0  0  0  0  0  0  0  0  0  0  0  0
   55.9940   20.3350   44.1110 C   0  0  0  0  0  0  0  0  0  0  0  0
   55.7170   19.9790   45.5500 C   0  0  0  0  0  0  0  0  0  0  0  0
   55.6300   21.2830   46.2860 C   0  0  0  0  0  0  0  0  0  0  0  0
   54.5450   22.1350   46.1320 C   0  0  0  0  0  0  0  0  0  0  0  0
   54.4800   23.3210   46.8090 C   0  0  0  0  0  0  0  0  0  0  0  0
   55.5140   23.6800   47.6660 C   0  0  0  0  0  0  0  0  0  0  0  0
   56.6060   22.8300   47.8250 C   0  0  0  0  0  0  0  0  0  0  0  0
   56.6600   21.6280   47.1320 C   0  0  0  0  0  0  0  0  0  0  0  0
   58.0010   21.6720   43.9930 C   0  0  0  0  0  0  0  0  0  0  0  0
   58.4750   22.9510   44.6730 C   0  0  0  0  0  0  0  0  0  0  0  0
   56.8960   28.7980   45.5250 C   0  0  0  0  0  0  0  0  0  0  0  0
   55.5810   28.7570   45.1250 O   0  0  0  0  0  0  0  0  0  0  0  0
   57.4080   30.0650   45.8210 C   0  0  0  0  0  0  0  0  0  0  0  0
   60.3160   31.1560   48.5570 N   0  0  0  0  0  0  0  0  0  0  0  0
   61.3810   31.2940   49.3560 C   0  0  0  0  0  0  0  0  0  0  0  0
   62.5760   31.9110   48.9530 C   0  0  0  0  0  0  0  0  0  0  0  0
   63.7250   32.1230   49.8080 C   0  0  0  0  0  0  0  0  0  0  0  0
   63.7190   30.8610   50.5090 F   0  0  0  0  0  0  0  0  0  0  0  0
   64.9890   32.0020   49.4240 F   0  0  0  0  0  0  0  0  0  0  0  0
   63.4610   32.7840   51.0290 F   0  0  0  0  0  0  0  0  0  0  0  0
   63.2290   34.9878   47.1061 H   0  0  0  0  0  0  0  0  0  0  0  0
   64.2245   34.3775   45.7411 H   0  0  0  0  0  0  0  0  0  0  0  0
   62.4466   34.1209   45.7411 H   0  0  0  0  0  0  0  0  0  0  0  0
   61.4110   32.5480   45.8590 H   0  0  0  0  0  0  0  0  0  0  0  0
   60.5152   29.1309   46.6516 H   0  0  0  0  0  0  0  0  0  0  0  0
   59.6009   26.9258   46.1279 H   0  0  0  0  0  0  0  0  0  0  0  0
   58.9520   25.4370   44.4980 H   0  0  0  0  0  0  0  0  0  0  0  0
   56.5968   23.8515   45.2866 H   0  0  0  0  0  0  0  0  0  0  0  0
   56.1489   24.7291   42.9487 H   0  0  0  0  0  0  0  0  0  0  0  0
   57.5337   23.7710   42.3910 H   0  0  0  0  0  0  0  0  0  0  0  0
   54.9134   22.8258   43.6631 H   0  0  0  0  0  0  0  0  0  0  0  0
   55.7313   22.1848   42.2173 H   0  0  0  0  0  0  0  0  0  0  0  0
   55.0522   20.3241   43.5428 H   0  0  0  0  0  0  0  0  0  0  0  0
   56.6912   19.6016   43.6797 H   0  0  0  0  0  0  0  0  0  0  0  0
   54.7679   19.4290   45.6323 H   0  0  0  0  0  0  0  0  0  0  0  0
   56.5042   19.3324   45.9651 H   0  0  0  0  0  0  0  0  0  0  0  0
   53.7254   21.8517   45.4553 H   0  0  0  0  0  0  0  0  0  0  0  0
   53.6147   23.9871   46.6764 H   0  0  0  0  0  0  0  0  0  0  0  0
   55.4700   24.6314   48.2163 H   0  0  0  0  0  0  0  0  0  0  0  0
   57.4270   23.1115   48.5008 H   0  0  0  0  0  0  0  0  0  0  0  0
   57.5210   20.9551   47.2582 H   0  0  0  0  0  0  0  0  0  0  0  0
   58.4145   20.7975   44.5167 H   0  0  0  0  0  0  0  0  0  0  0  0
   58.3413   21.6513   42.9472 H   0  0  0  0  0  0  0  0  0  0  0  0
   58.6728   22.7547   45.7371 H   0  0  0  0  0  0  0  0  0  0  0  0
   59.4019   23.3090   44.2012 H   0  0  0  0  0  0  0  0  0  0  0  0
   55.1420   27.8610   44.9220 H   0  0  0  0  0  0  0  0  0  0  0  0
   56.7637   30.9516   45.7272 H   0  0  0  0  0  0  0  0  0  0  0  0
   59.4580   30.6850   48.9230 H   0  0  0  0  0  0  0  0  0  0  0  0
   61.3165   30.9035   50.3823 H   0  0  0  0  0  0  0  0  0  0  0  0
  1  2  1  0
  2  3  2  0
  3  4  1  0
  4  5  1  0
  5  6  2  0
  6  7  1  0
  7  8  2  0
  8  9  1  0
  9 10  2  0
 10 11  1  0
 11 12  2  0
 11 13  1  0
 13 14  1  0
 14 15  1  0
 15 16  1  0
 16 17  1  0
 17 18  1  0
 18 19  1  0
 19 20  1  0
 20 21  2  0
 21 22  1  0
 22 23  2  0
 23 24  1  0
 24 25  2  0
 17 26  1  0
 26 27  1  0
 10 28  1  0
 28 29  1  0
 28 30  2  0
  5 31  1  0
 31 32  1  0
 32 33  2  0
 33 34  1  0
 34 35  1  0
 34 36  1  0
 34 37  1  0
 33  3  1  0
 30  7  1  0
 27 14  1  0
 25 20  1  0
  1 38  1  0
  1 39  1  0
  1 40  1  0
  4 41  1  0
  8 42  1  0
  9 43  1  0
 13 44  1  0
 14 45  1  0
 15 46  1  0
 15 47  1  0
 16 48  1  0
 16 49  1  0
 18 50  1  0
 18 51  1  0
 19 52  1  0
 19 53  1  0
 21 54  1  0
 22 55  1  0
 23 56  1  0
 24 57  1  0
 25 58  1  0
 26 59  1  0
 26 60  1  0
 27 61  1  0
 27 62  1  0
 29 63  1  0
 30 64  1  0
 31 65  1  0
 32 66  1  0
M  END
>  <smiles>  (56) 
CN=c1[nH]c(=Nc2ccc(C(=O)NC3CCN(CCc4ccccc4)CC3)c(O)c2)[nH]cc1C(F)(F)F

>  <score_type>  (56) 
oracle

>  <origin>  (56) 
adg

>  <m_score__min__energy>  (56) 
-9.4499999999999993

>  <m_primary>  (56) 
energy

$$$$
56:0
     RDKit          3D

 56 60  0  0  0  0  0  0  0  0999 V2000
   50.4210   32.2850   50.8840 H   0  0  0  0  0  0  0  0  0  0  0  0
   51.4400   32.2400   51.1130 N   0  0  0  0  0  0  0  0  0  0  0  0
   51.8830   30.5690   51.1060 S   0  0  0  0  0  0  0  0  0  0  0  0
   50.9620   29.7990   52.0070 O   0  0  0  0  0  0  0  0  0  0  0  0
   51.7680   30.0350   49.7060 O   0  0  0  0  0  0  0  0  0  0  0  0
   53.5320   30.3900   51.6640 C   0  0  0  0  0  0  0  0  0  0  0  0
   54.5160   31.2700   51.3990 N   0  0  0  0  0  0  0  0  0  0  0  0
   55.6130   30.8040   51.9730 N   0  0  0  0  0  0  0  0  0  0  0  0
   56.9200   31.4440   51.8670 C   0  0  0  0  0  0  0  0  0  0  0  0
   56.8718   32.2507   51.1207 H   0  0  0  0  0  0  0  0  0  0  0  0
   57.2004   31.8599   52.8460 H   0  0  0  0  0  0  0  0  0  0  0  0
   57.9510   30.4340   51.4440 C   0  0  0  0  0  0  0  0  0  0  0  0
   58.1410   30.1480   50.0880 C   0  0  0  0  0  0  0  0  0  0  0  0
   57.5161   30.6447   49.3312 H   0  0  0  0  0  0  0  0  0  0  0  0
   59.1180   29.2370   49.6910 C   0  0  0  0  0  0  0  0  0  0  0  0
   59.3170   28.9920   48.2910 N   0  0  0  0  0  0  0  0  0  0  0  0
   58.7670   29.5610   47.2480 C   0  0  0  0  0  0  0  0  0  0  0  0
   57.8900   28.7650   46.4990 C   0  0  0  0  0  0  0  0  0  0  0  0
   57.8279   27.6849   46.6979 H   0  0  0  0  0  0  0  0  0  0  0  0
   57.0960   29.3320   45.5040 C   0  0  0  0  0  0  0  0  0  0  0  0
   56.3885   28.7042   44.9425 H   0  0  0  0  0  0  0  0  0  0  0  0
   57.1930   30.6520   45.2270 N   0  0  0  0  0  0  0  0  0  0  0  0
   58.0860   31.4540   45.8600 C   0  0  0  0  0  0  0  0  0  0  0  0
   58.1730   32.7990   45.4830 C   0  0  0  0  0  0  0  0  0  0  0  0
   57.4612   33.2112   44.7527 H   0  0  0  0  0  0  0  0  0  0  0  0
   59.1600   33.6180   46.0310 C   0  0  0  0  0  0  0  0  0  0  0  0
   59.2770   35.2930   45.5470 Cl  0  0  0  0  0  0  0  0  0  0  0  0
   60.0880   33.0850   46.9260 C   0  0  0  0  0  0  0  0  0  0  0  0
   60.8907   33.7219   47.3260 H   0  0  0  0  0  0  0  0  0  0  0  0
   60.0030   31.7490   47.3160 C   0  0  0  0  0  0  0  0  0  0  0  0
   60.7649   31.3310   47.9904 H   0  0  0  0  0  0  0  0  0  0  0  0
   58.9500   30.9240   46.8560 C   0  0  0  0  0  0  0  0  0  0  0  0
   59.9700   28.6680   50.6500 C   0  0  0  0  0  0  0  0  0  0  0  0
   60.7893   28.0116   50.3216 H   0  0  0  0  0  0  0  0  0  0  0  0
   59.7960   28.9220   52.0310 C   0  0  0  0  0  0  0  0  0  0  0  0
   60.6490   28.2850   53.0340 N   0  0  0  0  0  0  0  0  0  0  0  0
   61.5810   27.2170   52.6070 C   0  0  0  0  0  0  0  0  0  0  0  0
   60.9867   26.3591   52.2594 H   0  0  0  0  0  0  0  0  0  0  0  0
   62.2127   27.6464   51.8154 H   0  0  0  0  0  0  0  0  0  0  0  0
   62.5250   26.7320   53.7080 C   0  0  0  0  0  0  0  0  0  0  0  0
   62.9310   25.7493   53.4260 H   0  0  0  0  0  0  0  0  0  0  0  0
   63.3355   27.4669   53.8221 H   0  0  0  0  0  0  0  0  0  0  0  0
   61.8270   26.6110   54.9820 N   0  0  0  0  0  0  0  0  0  0  0  0
   60.9700   26.0200   54.8580 H   0  0  0  0  0  0  0  0  0  0  0  0
   61.4340   27.9430   55.4300 C   0  0  0  0  0  0  0  0  0  0  0  0
   60.9611   27.8591   56.4196 H   0  0  0  0  0  0  0  0  0  0  0  0
   62.3390   28.5669   55.4714 H   0  0  0  0  0  0  0  0  0  0  0  0
   60.4440   28.6100   54.4630 C   0  0  0  0  0  0  0  0  0  0  0  0
   59.4283   28.2933   54.7425 H   0  0  0  0  0  0  0  0  0  0  0  0
   60.6056   29.6940   54.5576 H   0  0  0  0  0  0  0  0  0  0  0  0
   58.7710   29.8260   52.4050 C   0  0  0  0  0  0  0  0  0  0  0  0
   58.6157   30.0551   53.4696 H   0  0  0  0  0  0  0  0  0  0  0  0
   55.3540   29.6350   52.5860 C   0  0  0  0  0  0  0  0  0  0  0  0
   56.0837   29.0202   53.1333 H   0  0  0  0  0  0  0  0  0  0  0  0
   54.0190   29.3380   52.4120 C   0  0  0  0  0  0  0  0  0  0  0  0
   53.4678   28.4620   52.7846 H   0  0  0  0  0  0  0  0  0  0  0  0
  1  2  1  0
  2  3  1  0
  3  4  2  0
  3  5  2  0
  3  6  1  0
  6  7  2  0
  7  8  1  0
  8  9  1  0
  9 10  1  0
  9 11  1  0
  9 12  1  0
 12 13  2  0
 13 14  1  0
 13 15  1  0
 15 16  1  0
 16 17  2  0
 17 18  1  0
 18 19  1  0
 18 20  2  0
 20 21  1  0
 20 22  1  0
 22 23  1  0
 23 24  2  0
 24 25  1  0
 24 26  1  0
 26 27  1  0
 26 28  2  0
 28 29  1  0
 28 30  1  0
 30 31  1  0
 30 32  2  0
 15 33  2  0
 33 34  1  0
 33 35  1  0
 35 36  1  0
 36 37  1  0
 37 38  1  0
 37 39  1  0
 37 40  1  0
 40 41  1  0
 40 42  1  0
 40 43  1  0
 43 44  1  0
 43 45  1  0
 45 46  1  0
 45 47  1  0
 45 48  1  0
 48 49  1  0
 48 50  1  0
 35 51  2  0
 51 52  1  0
  8 53  1  0
 53 54  1  0
 53 55  2  0
 55 56  1  0
 55  6  1  0
 51 12  1  0
 32 17  1  0
 48 36  1  0
 32 23  1  0
M  CHG  2   2  -1  22  -1
M  END
>  <UniqueID>  (57) 
53

>  <SMILES>  (57) 
[NH-]S(=O)(=O)c1ccn(Cc2cc(/N=c3/cc[n-]c4cc(Cl)ccc34)cc(N3CCNCC3)c2)n1

>  <Energy>  (57) 
118.41235159929631

>  <Genealogy>  (57) 
[NH-]S(=O)(=O)c1ccn(Cc2cc(N=c3cc[n-]c4cc(Cl)ccc34)cc(N3CCNCC3)c2)n1 (protonated)
[NH-]S(=O)(=O)c1ccn(Cc2cc(/N=c3/cc[n-]c4cc(Cl)ccc34)cc(N3CCNCC3)c2)n1 (cis-trans isomerization)
[NH-]S(=O)(=O)c1ccn(Cc2cc(/N=c3/cc[n-]c4cc(Cl)ccc34)cc(N3CCNCC3)c2)n1 (3D coordinates assigned)
[NH-]S(=O)(=O)c1ccn(Cc2cc(/N=c3/cc[n-]c4cc(Cl)ccc34)cc(N3CCNCC3)c2)n1 (nonaromatic ring conformer: 118.41235159929631 kcal/mol)

>  <smiles>  (57) 
NS(=O)(=O)c1ccn(Cc2cc(N=c3cc[nH]c4cc(Cl)ccc34)cc(N3CCNCC3)c2)n1

>  <score_type>  (57) 
oracle

>  <origin>  (57) 
adg

>  <m_score__min__energy>  (57) 
-13.140000000000001

>  <m_primary>  (57) 
energy

$$$$
57:0
     RDKit          3D

 27 28  0  0  1  0  0  0  0  0999 V2000
   60.2080   28.2010   44.8940 C   0  0  0  0  0  0  0  0  0  0  0  0
   58.9320   28.4550   44.7920 C   0  0  0  0  0  0  0  0  0  0  0  0
   58.4440   29.4610   44.0210 N   0  0  0  0  0  0  0  0  0  0  0  0
   57.0920   29.4900   44.1050 C   0  0  0  0  0  0  0  0  0  0  0  0
   56.1790   30.4460   43.4090 C   0  0  0  0  0  0  0  0  0  0  0  0
   56.6970   28.5040   44.9300 N   0  0  0  0  0  0  0  0  0  0  0  0
   57.8240   27.8710   45.3490 C   0  0  0  0  0  0  0  0  0  0  0  0
   57.8380   26.8530   46.1670 C   0  0  0  0  0  0  0  0  0  0  0  0
   57.1940   25.5740   45.9530 C   0  0  0  0  0  0  0  0  0  0  0  0
   55.7910   25.5110   45.8970 C   0  0  0  0  0  0  0  0  0  0  0  0
   55.0870   26.6790   46.0060 O   0  0  0  0  0  0  0  0  0  0  0  0
   55.2480   24.2930   45.7370 N   0  0  0  0  0  0  0  0  0  0  0  0
   55.9840   23.1660   45.6340 C   0  0  0  0  0  0  0  0  0  0  0  0
   55.4400   22.0460   45.4860 O   0  0  0  0  0  0  0  0  0  0  0  0
   57.3370   23.2110   45.6870 N   0  0  0  0  0  0  0  0  0  0  0  0
   57.9530   24.3970   45.8450 C   0  0  0  0  0  0  0  0  0  0  0  0
   59.2210   24.4720   45.8970 O   0  0  0  0  0  0  0  0  0  0  0  0
   60.5550   27.3746   45.5317 H   0  0  0  0  0  0  0  0  0  0  0  0
   60.9365   28.8133   44.3423 H   0  0  0  0  0  0  0  0  0  0  0  0
   58.9560   30.1480   43.4280 H   0  0  0  0  0  0  0  0  0  0  0  0
   55.6212   31.0300   44.1559 H   0  0  0  0  0  0  0  0  0  0  0  0
   56.7713   31.1262   42.7793 H   0  0  0  0  0  0  0  0  0  0  0  0
   55.4722   29.8856   42.7793 H   0  0  0  0  0  0  0  0  0  0  0  0
   58.3921   26.9794   47.1088 H   0  0  0  0  0  0  0  0  0  0  0  0
   55.1430   27.4740   45.3960 H   0  0  0  0  0  0  0  0  0  0  0  0
   54.2020   24.2300   45.6940 H   0  0  0  0  0  0  0  0  0  0  0  0
   57.9400   22.3630   45.6110 H   0  0  0  0  0  0  0  0  0  0  0  0
  1  2  2  0
  2  3  1  0
  3  4  1  0
  4  5  1  0
  4  6  2  0
  6  7  1  0
  7  8  2  0
  8  9  1  0
  9 10  2  0
 10 11  1  0
 10 12  1  0
 12 13  1  0
 13 14  2  0
 13 15  1  0
 15 16  1  0
 16 17  2  0
  7  2  1  0
 16  9  1  0
  1 18  1  0
  1 19  1  0
  3 20  1  0
  5 21  1  0
  5 22  1  0
  5 23  1  0
  8 24  1  0
 11 25  1  0
 12 26  1  0
 15 27  1  0
M  END
>  <smiles>  (58) 
C=c1[nH]c(C)nc1=Cc1c(O)[nH]c(=O)[nH]c1=O

>  <score_type>  (58) 
oracle

>  <origin>  (58) 
adg

>  <m_score__min__energy>  (58) 
-6.79

>  <m_primary>  (58) 
energy

$$$$
58:0
     RDKit          3D

 34 36  0  0  0  0  0  0  0  0999 V2000
   58.5233   32.6731   42.2746 H   0  0  0  0  0  0  0  0  0  0  0  0
   57.9130   32.0950   42.9840 C   0  0  0  0  0  0  0  0  0  0  0  0
   57.0280   31.1390   42.6500 N   0  0  0  0  0  0  0  0  0  0  0  0
   56.5450   30.7180   43.8380 C   0  0  0  0  0  0  0  0  0  0  0  0
   55.4430   29.7120   43.9480 C   0  0  0  0  0  0  0  0  0  0  0  0
   55.5192   29.0034   43.1101 H   0  0  0  0  0  0  0  0  0  0  0  0
   54.4811   30.2449   43.9194 H   0  0  0  0  0  0  0  0  0  0  0  0
   55.5250   28.9730   45.2060 N   0  0  0  0  0  0  0  0  0  0  0  0
   56.4280   27.8990   45.5020 C   0  0  0  0  0  0  0  0  0  0  0  0
   55.9570   26.8290   45.9700 O   0  0  0  0  0  0  0  0  0  0  0  0
   57.9150   28.0080   45.2980 C   0  0  0  0  0  0  0  0  0  0  0  0
   58.3046   27.0356   44.9622 H   0  0  0  0  0  0  0  0  0  0  0  0
   58.1098   28.7824   44.5414 H   0  0  0  0  0  0  0  0  0  0  0  0
   58.6030   28.3990   46.5710 C   0  0  0  0  0  0  0  0  0  0  0  0
   58.5010   29.6550   47.0830 N   0  0  0  0  0  0  0  0  0  0  0  0
   59.2200   29.7860   48.2190 C   0  0  0  0  0  0  0  0  0  0  0  0
   59.2720   30.8700   48.9360 N   0  0  0  0  0  0  0  0  0  0  0  0
   59.3080   32.2220   48.4470 C   0  0  0  0  0  0  0  0  0  0  0  0
   59.9800   33.2460   49.1420 C   0  0  0  0  0  0  0  0  0  0  0  0
   60.5081   33.0241   50.0811 H   0  0  0  0  0  0  0  0  0  0  0  0
   59.9710   34.5430   48.6310 C   0  0  0  0  0  0  0  0  0  0  0  0
   60.5051   35.3470   49.1585 H   0  0  0  0  0  0  0  0  0  0  0  0
   59.2830   34.8190   47.4490 C   0  0  0  0  0  0  0  0  0  0  0  0
   59.2776   35.8375   47.0335 H   0  0  0  0  0  0  0  0  0  0  0  0
   58.6020   33.7890   46.8000 C   0  0  0  0  0  0  0  0  0  0  0  0
   58.0493   33.9969   45.8719 H   0  0  0  0  0  0  0  0  0  0  0  0
   58.6190   32.5280   47.3110 N   0  0  0  0  0  0  0  0  0  0  0  0
   58.1020   31.7740   46.8060 H   0  0  0  0  0  0  0  0  0  0  0  0
   59.9940   28.3600   48.6440 S   0  0  0  0  0  0  0  0  0  0  0  0
   59.4070   27.5270   47.3050 C   0  0  0  0  0  0  0  0  0  0  0  0
   59.6201   26.4778   47.0526 H   0  0  0  0  0  0  0  0  0  0  0  0
   57.0600   31.3760   44.8990 N   0  0  0  0  0  0  0  0  0  0  0  0
   57.9350   32.2360   44.3490 C   0  0  0  0  0  0  0  0  0  0  0  0
   58.5690   32.9418   44.9057 H   0  0  0  0  0  0  0  0  0  0  0  0
  1  2  1  0
  2  3  1  0
  3  4  2  0
  4  5  1  0
  5  6  1  0
  5  7  1  0
  5  8  1  0
  8  9  1  0
  9 10  2  0
  9 11  1  0
 11 12  1  0
 11 13  1  0
 11 14  1  0
 14 15  1  0
 15 16  1  0
 16 17  2  0
 17 18  1  0
 18 19  2  0
 19 20  1  0
 19 21  1  0
 21 22  1  0
 21 23  2  0
 23 24  1  0
 23 25  1  0
 25 26  1  0
 25 27  2  0
 27 28  1  0
 16 29  1  0
 29 30  1  0
 30 31  1  0
  4 32  1  0
 32 33  1  0
 33 34  1  0
 33  2  2  0
 30 14  2  0
 27 18  1  0
M  CHG  4   8  -1  15  -1  27   1  32  -1
M  END
>  <UniqueID>  (59) 
54

>  <SMILES>  (59) 
O=C(Cc1cs/c(=N/c2cccc[nH+]2)[n-]1)[N-]Cc1ncc[n-]1

>  <Energy>  (59) 
91.4904270624821

>  <Genealogy>  (59) 
O=C(Cc1csc(=Nc2cccc[nH+]2)[n-]1)[N-]Cc1ncc[n-]1 (protonated)
O=C(Cc1cs/c(=N/c2cccc[nH+]2)[n-]1)[N-]Cc1ncc[n-]1 (cis-trans isomerization)
O=C(Cc1cs/c(=N/c2cccc[nH+]2)[n-]1)[N-]Cc1ncc[n-]1 (3D coordinates assigned)
O=C(Cc1cs/c(=N/c2cccc[nH+]2)[n-]1)[N-]Cc1ncc[n-]1 (optimized conformer: 91.4904270624821 kcal/mol)

>  <smiles>  (59) 
O=C(Cc1csc(=Nc2ccccn2)[nH]1)NCc1ncc[nH]1

>  <score_type>  (59) 
oracle

>  <origin>  (59) 
adg

>  <m_score__min__energy>  (59) 
-10.76

>  <m_primary>  (59) 
energy

$$$$
59:0
     RDKit          3D

 52 54  0  0  0  0  0  0  0  0999 V2000
   56.2070   26.5800   53.9110 H   0  0  0  0  0  0  0  0  0  0  0  0
   55.7120   25.8320   54.3370 O   0  0  0  0  0  0  0  0  0  0  0  0
   54.6430   26.4190   55.0260 C   0  0  0  0  0  0  0  0  0  0  0  0
   54.3635   25.7812   55.8775 H   0  0  0  0  0  0  0  0  0  0  0  0
   53.7864   26.5245   54.3440 H   0  0  0  0  0  0  0  0  0  0  0  0
   55.0510   27.7990   55.5390 C   0  0  0  0  0  0  0  0  0  0  0  0
   56.1486   27.8704   55.5486 H   0  0  0  0  0  0  0  0  0  0  0  0
   54.6505   27.9307   56.5550 H   0  0  0  0  0  0  0  0  0  0  0  0
   54.5050   28.8600   54.6740 N   0  0  0  0  0  0  0  0  0  0  0  0
   55.1110   29.3960   53.5890 C   0  0  0  0  0  0  0  0  0  0  0  0
   56.4850   29.1030   53.1400 C   0  0  0  0  0  0  0  0  0  0  0  0
   56.9490   27.9500   53.3460 O   0  0  0  0  0  0  0  0  0  0  0  0
   57.2870   30.0900   52.4570 N   0  0  0  0  0  0  0  0  0  0  0  0
   56.6620   31.1230   51.6170 C   0  0  0  0  0  0  0  0  0  0  0  0
   56.7027   30.8083   50.5638 H   0  0  0  0  0  0  0  0  0  0  0  0
   55.6157   31.2548   51.9298 H   0  0  0  0  0  0  0  0  0  0  0  0
   57.4020   32.4540   51.7760 C   0  0  0  0  0  0  0  0  0  0  0  0
   57.0652   33.1438   50.9882 H   0  0  0  0  0  0  0  0  0  0  0  0
   57.1754   32.8511   52.7765 H   0  0  0  0  0  0  0  0  0  0  0  0
   58.8610   32.2900   51.6720 N   0  0  0  0  0  0  0  0  0  0  0  0
   59.6830   33.4740   51.5970 C   0  0  0  0  0  0  0  0  0  0  0  0
   59.2230   34.5750   52.0100 O   0  0  0  0  0  0  0  0  0  0  0  0
   61.0880   33.4270   51.0660 C   0  0  0  0  0  0  0  0  0  0  0  0
   61.7749   33.8511   51.8133 H   0  0  0  0  0  0  0  0  0  0  0  0
   61.3628   32.3820   50.8597 H   0  0  0  0  0  0  0  0  0  0  0  0
   61.1750   34.1760   49.8710 O   0  0  0  0  0  0  0  0  0  0  0  0
   60.0260   33.9420   49.0870 C   0  0  0  0  0  0  0  0  0  0  0  0
   59.1625   33.7661   49.7453 H   0  0  0  0  0  0  0  0  0  0  0  0
   59.8305   34.8188   48.4521 H   0  0  0  0  0  0  0  0  0  0  0  0
   60.1890   33.0586   48.4521 H   0  0  0  0  0  0  0  0  0  0  0  0
   59.4390   30.9440   51.5300 C   0  0  0  0  0  0  0  0  0  0  0  0
   59.3076   30.6028   50.4926 H   0  0  0  0  0  0  0  0  0  0  0  0
   60.5079   30.9907   51.7854 H   0  0  0  0  0  0  0  0  0  0  0  0
   58.7500   29.9520   52.4770 C   0  0  0  0  0  0  0  0  0  0  0  0
   59.0135   28.9288   52.1710 H   0  0  0  0  0  0  0  0  0  0  0  0
   59.0954   30.1656   53.4993 H   0  0  0  0  0  0  0  0  0  0  0  0
   54.2630   30.2660   52.9390 C   0  0  0  0  0  0  0  0  0  0  0  0
   54.4924   30.8538   52.0380 H   0  0  0  0  0  0  0  0  0  0  0  0
   53.0680   30.2590   53.6360 C   0  0  0  0  0  0  0  0  0  0  0  0
   51.9850   30.9480   53.2250 C   0  0  0  0  0  0  0  0  0  0  0  0
   51.3641   31.4171   54.0024 H   0  0  0  0  0  0  0  0  0  0  0  0
   51.5600   31.1280   51.8270 C   0  0  0  0  0  0  0  0  0  0  0  0
   51.8160   30.2600   50.8310 N   0  0  0  0  0  0  0  0  0  0  0  0
   51.3700   30.9070   49.7320 C   0  0  0  0  0  0  0  0  0  0  0  0
   51.4210   30.4020   48.5800 O   0  0  0  0  0  0  0  0  0  0  0  0
   50.8750   32.1420   49.9640 N   0  0  0  0  0  0  0  0  0  0  0  0
   51.0170   32.2700   51.2920 C   0  0  0  0  0  0  0  0  0  0  0  0
   50.6630   33.4100   52.0020 O   0  0  0  0  0  0  0  0  0  0  0  0
   53.2600   29.4090   54.7370 C   0  0  0  0  0  0  0  0  0  0  0  0
   52.4310   29.2430   55.7800 C   0  0  0  0  0  0  0  0  0  0  0  0
   52.6948   28.5427   56.5862 H   0  0  0  0  0  0  0  0  0  0  0  0
   51.4880   29.8073   55.8283 H   0  0  0  0  0  0  0  0  0  0  0  0
  1  2  1  0
  2  3  1  0
  3  4  1  0
  3  5  1  0
  3  6  1  0
  6  7  1  0
  6  8  1  0
  6  9  1  0
  9 10  1  0
 10 11  1  0
 11 12  2  0
 11 13  1  0
 13 14  1  0
 14 15  1  0
 14 16  1  0
 14 17  1  0
 17 18  1  0
 17 19  1  0
 17 20  1  0
 20 21  1  0
 21 22  2  0
 21 23  1  0
 23 24  1  0
 23 25  1  0
 23 26  1  0
 26 27  1  0
 27 28  1  0
 27 29  1  0
 27 30  1  0
 20 31  1  0
 31 32  1  0
 31 33  1  0
 31 34  1  0
 34 35  1  0
 34 36  1  0
 10 37  2  0
 37 38  1  0
 37 39  1  0
 39 40  2  0
 40 41  1  0
 40 42  1  0
 42 43  1  0
 43 44  1  0
 44 45  2  0
 44 46  1  0
 46 47  1  0
 47 48  1  0
 39 49  1  0
 49 50  2  0
 50 51  1  0
 50 52  1  0
 49  9  1  0
 34 13  1  0
 47 42  2  0
M  CHG  3  43  -1  46  -1  48  -1
M  END
>  <UniqueID>  (60) 
55

>  <SMILES>  (60) 
C=c1/c(=C\c2[n-]c(=O)[n-]c2[O-])cc(C(=O)N2CCN(C(=O)COC)CC2)n1CCO

>  <Energy>  (60) 
126.39013585430753

>  <Genealogy>  (60) 
C=c1c(=Cc2[n-]c(=O)[n-]c2[O-])cc(C(=O)N2CCN(C(=O)COC)CC2)n1CCO (protonated)
C=c1/c(=C\c2[n-]c(=O)[n-]c2[O-])cc(C(=O)N2CCN(C(=O)COC)CC2)n1CCO (cis-trans isomerization)
C=c1/c(=C\c2[n-]c(=O)[n-]c2[O-])cc(C(=O)N2CCN(C(=O)COC)CC2)n1CCO (3D coordinates assigned)
C=c1/c(=C\c2[n-]c(=O)[n-]c2[O-])cc(C(=O)N2CCN(C(=O)COC)CC2)n1CCO (nonaromatic ring conformer: 126.39013585430753 kcal/mol)

>  <smiles>  (60) 
C=c1c(=Cc2[nH]c(=O)[nH]c2O)cc(C(=O)N2CCN(C(=O)COC)CC2)n1CCO

>  <score_type>  (60) 
oracle

>  <origin>  (60) 
adg

>  <m_score__min__energy>  (60) 
-15.35

>  <m_primary>  (60) 
energy

$$$$
60:0
     RDKit          3D

 42 44  0  0  0  0  0  0  0  0999 V2000
   59.2740   35.0710   45.4390 C   0  0  0  0  0  0  0  0  0  0  0  0
   58.8750   33.7960   45.4230 C   0  0  0  0  0  0  0  0  0  0  0  0
   58.4250   32.9880   44.0180 S   0  0  0  0  0  0  0  0  0  0  0  0
   58.0560   31.5480   44.8150 C   0  0  0  0  0  0  0  0  0  0  0  0
   57.5750   30.4260   44.2560 C   0  0  0  0  0  0  0  0  0  0  0  0
   57.5690   29.1190   44.9440 C   0  0  0  0  0  0  0  0  0  0  0  0
   58.7930   28.5210   45.2780 C   0  0  0  0  0  0  0  0  0  0  0  0
   58.8210   27.2880   45.9370 C   0  0  0  0  0  0  0  0  0  0  0  0
   57.6280   26.6320   46.2520 C   0  0  0  0  0  0  0  0  0  0  0  0
   57.6740   25.4090   46.9130 O   0  0  0  0  0  0  0  0  0  0  0  0
   56.3950   27.2050   45.8950 C   0  0  0  0  0  0  0  0  0  0  0  0
   55.1930   26.5590   46.1870 O   0  0  0  0  0  0  0  0  0  0  0  0
   56.3670   28.4400   45.2300 C   0  0  0  0  0  0  0  0  0  0  0  0
   55.1440   28.9780   44.8390 O   0  0  0  0  0  0  0  0  0  0  0  0
   58.2890   31.7470   46.1780 C   0  0  0  0  0  0  0  0  0  0  0  0
   58.0800   30.8490   47.0400 O   0  0  0  0  0  0  0  0  0  0  0  0
   58.7580   32.9870   46.5160 N   0  0  0  0  0  0  0  0  0  0  0  0
   59.0460   33.3970   47.8990 C   0  0  0  0  0  0  0  0  0  0  0  0
   60.1560   32.5570   48.4760 C   0  0  0  0  0  0  0  0  0  0  0  0
   59.8480   31.5420   49.1640 O   0  0  0  0  0  0  0  0  0  0  0  0
   61.5480   32.8620   48.2410 N   0  0  0  0  0  0  0  0  0  0  0  0
   61.9510   33.7630   47.1530 C   0  0  0  0  0  0  0  0  0  0  0  0
   63.3840   33.4490   46.7060 C   0  0  0  0  0  0  0  0  0  0  0  0
   64.2600   33.4210   47.8160 O   0  0  0  0  0  0  0  0  0  0  0  0
   63.9190   32.3410   48.6620 C   0  0  0  0  0  0  0  0  0  0  0  0
   62.5340   32.5510   49.2830 C   0  0  0  0  0  0  0  0  0  0  0  0
   59.5565   35.5470   46.3896 H   0  0  0  0  0  0  0  0  0  0  0  0
   59.3200   35.6447   44.5016 H   0  0  0  0  0  0  0  0  0  0  0  0
   57.1657   30.4829   43.2366 H   0  0  0  0  0  0  0  0  0  0  0  0
   59.7362   29.0248   45.0201 H   0  0  0  0  0  0  0  0  0  0  0  0
   59.7851   26.8330   46.2083 H   0  0  0  0  0  0  0  0  0  0  0  0
   55.1550   25.7320   46.7720 H   0  0  0  0  0  0  0  0  0  0  0  0
   59.3496   34.4542   47.9078 H   0  0  0  0  0  0  0  0  0  0  0  0
   58.1405   33.2585   48.5080 H   0  0  0  0  0  0  0  0  0  0  0  0
   61.2679   33.6314   46.3009 H   0  0  0  0  0  0  0  0  0  0  0  0
   61.9077   34.8014   47.5134 H   0  0  0  0  0  0  0  0  0  0  0  0
   63.4002   32.4680   46.2086 H   0  0  0  0  0  0  0  0  0  0  0  0
   63.7178   34.2347   46.0123 H   0  0  0  0  0  0  0  0  0  0  0  0
   63.9134   31.4109   48.0747 H   0  0  0  0  0  0  0  0  0  0  0  0
   64.6619   32.2792   49.4709 H   0  0  0  0  0  0  0  0  0  0  0  0
   62.2293   31.6337   49.8081 H   0  0  0  0  0  0  0  0  0  0  0  0
   62.5837   33.3923   49.9899 H   0  0  0  0  0  0  0  0  0  0  0  0
  1  2  2  0
  2  3  1  0
  3  4  1  0
  4  5  2  3
  5  6  1  0
  6  7  2  0
  7  8  1  0
  8  9  2  0
  9 10  1  0
  9 11  1  0
 11 12  1  0
 11 13  2  0
 13 14  1  0
  4 15  1  0
 15 16  2  0
 15 17  1  0
 17 18  1  0
 18 19  1  0
 19 20  2  0
 19 21  1  0
 21 22  1  0
 22 23  1  0
 23 24  1  0
 24 25  1  0
 25 26  1  0
 17  2  1  0
 26 21  1  0
 13  6  1  0
  1 27  1  0
  1 28  1  0
  5 29  1  0
  7 30  1  0
  8 31  1  0
 12 32  1  0
 18 33  1  0
 18 34  1  0
 22 35  1  0
 22 36  1  0
 23 37  1  0
 23 38  1  0
 25 39  1  0
 25 40  1  0
 26 41  1  0
 26 42  1  0
M  CHG  2  10  -1  14  -1
M  END
>  <UniqueID>  (61) 
56

>  <SMILES>  (61) 
C=c1sc(=Cc2ccc([O-])c(O)c2[O-])c(=O)n1CC(=O)N1CCOCC1

>  <Energy>  (61) 
86.06155136558627

>  <Genealogy>  (61) 
C=c1sc(=Cc2ccc([O-])c(O)c2[O-])c(=O)n1CC(=O)N1CCOCC1 (protonated)
C=c1sc(=Cc2ccc([O-])c(O)c2[O-])c(=O)n1CC(=O)N1CCOCC1 (3D coordinates assigned)
C=c1sc(=Cc2ccc([O-])c(O)c2[O-])c(=O)n1CC(=O)N1CCOCC1 (nonaromatic ring conformer: 86.06155136558627 kcal/mol)

>  <smiles>  (61) 
C=c1sc(=Cc2ccc(O)c(O)c2O)c(=O)n1CC(=O)N1CCOCC1

>  <score_type>  (61) 
oracle

>  <origin>  (61) 
adg

>  <m_score__min__energy>  (61) 
-14.49

>  <m_primary>  (61) 
energy

$$$$
61:0
     RDKit          3D

 77 81  0  0  0  0  0  0  0  0999 V2000
   62.4663   29.0900   49.4142 H   0  0  0  0  0  0  0  0  0  0  0  0
   61.5110   29.4440   49.8290 C   0  0  0  0  0  0  0  0  0  0  0  0
   60.2710   28.8570   49.3040 C   0  0  0  0  0  0  0  0  0  0  0  0
   59.9820   27.6610   49.5690 O   0  0  0  0  0  0  0  0  0  0  0  0
   59.4400   29.6070   48.4120 N   0  0  0  0  0  0  0  0  0  0  0  0
   59.0010   28.9890   47.1970 C   0  0  0  0  0  0  0  0  0  0  0  0
   59.6520   27.8500   46.7100 C   0  0  0  0  0  0  0  0  0  0  0  0
   60.4986   27.4205   47.2657 H   0  0  0  0  0  0  0  0  0  0  0  0
   59.2270   27.2590   45.5190 C   0  0  0  0  0  0  0  0  0  0  0  0
   59.7387   26.3624   45.1392 H   0  0  0  0  0  0  0  0  0  0  0  0
   58.1520   27.8030   44.8060 C   0  0  0  0  0  0  0  0  0  0  0  0
   57.8214   27.3313   43.8688 H   0  0  0  0  0  0  0  0  0  0  0  0
   57.4920   28.9520   45.2840 C   0  0  0  0  0  0  0  0  0  0  0  0
   56.3310   29.5530   44.5860 C   0  0  0  0  0  0  0  0  0  0  0  0
   55.3886   28.9861   44.5640 H   0  0  0  0  0  0  0  0  0  0  0  0
   56.3640   30.7480   43.9800 C   0  0  0  0  0  0  0  0  0  0  0  0
   55.4378   31.1539   43.5472 H   0  0  0  0  0  0  0  0  0  0  0  0
   57.6130   31.5370   43.8770 C   0  0  0  0  0  0  0  0  0  0  0  0
   58.4930   31.2040   43.0360 O   0  0  0  0  0  0  0  0  0  0  0  0
   57.8320   32.6960   44.7040 N   0  0  0  0  0  0  0  0  0  0  0  0
   58.5730   33.8520   44.1840 C   0  0  0  0  0  0  0  0  0  0  0  0
   58.9794   33.6078   43.1914 H   0  0  0  0  0  0  0  0  0  0  0  0
   57.8922   34.7125   44.1067 H   0  0  0  0  0  0  0  0  0  0  0  0
   59.7220   34.2040   45.1290 C   0  0  0  0  0  0  0  0  0  0  0  0
   60.4581   33.3866   45.1215 H   0  0  0  0  0  0  0  0  0  0  0  0
   60.1856   35.1407   44.7860 H   0  0  0  0  0  0  0  0  0  0  0  0
   59.2050   34.4070   46.5720 C   0  0  0  0  0  0  0  0  0  0  0  0
   58.5231   35.2701   46.5683 H   0  0  0  0  0  0  0  0  0  0  0  0
   60.3610   34.7140   47.5470 C   0  0  0  0  0  0  0  0  0  0  0  0
   60.7488   35.7204   47.3306 H   0  0  0  0  0  0  0  0  0  0  0  0
   59.9648   34.6486   48.5711 H   0  0  0  0  0  0  0  0  0  0  0  0
   61.4900   33.7220   47.4240 C   0  0  0  0  0  0  0  0  0  0  0  0
   61.2390   32.3410   47.5140 C   0  0  0  0  0  0  0  0  0  0  0  0
   60.2160   31.9809   47.6977 H   0  0  0  0  0  0  0  0  0  0  0  0
   62.2840   31.4250   47.3710 C   0  0  0  0  0  0  0  0  0  0  0  0
   62.0821   30.3463   47.4458 H   0  0  0  0  0  0  0  0  0  0  0  0
   63.5860   31.8760   47.1330 C   0  0  0  0  0  0  0  0  0  0  0  0
   64.4072   31.1528   47.0206 H   0  0  0  0  0  0  0  0  0  0  0  0
   63.8430   33.2470   47.0380 C   0  0  0  0  0  0  0  0  0  0  0  0
   64.8672   33.6020   46.8511 H   0  0  0  0  0  0  0  0  0  0  0  0
   62.8010   34.1670   47.1800 C   0  0  0  0  0  0  0  0  0  0  0  0
   63.0075   35.2445   47.1005 H   0  0  0  0  0  0  0  0  0  0  0  0
   58.4440   33.1500   47.0420 C   0  0  0  0  0  0  0  0  0  0  0  0
   59.1490   32.3079   47.1036 H   0  0  0  0  0  0  0  0  0  0  0  0
   58.0008   33.3635   48.0259 H   0  0  0  0  0  0  0  0  0  0  0  0
   57.3120   32.7820   46.0750 C   0  0  0  0  0  0  0  0  0  0  0  0
   56.8864   31.8100   46.3650 H   0  0  0  0  0  0  0  0  0  0  0  0
   56.5331   33.5575   46.1183 H   0  0  0  0  0  0  0  0  0  0  0  0
   57.9200   29.5310   46.4890 C   0  0  0  0  0  0  0  0  0  0  0  0
   57.4019   30.4186   46.8812 H   0  0  0  0  0  0  0  0  0  0  0  0
   58.8370   30.8700   48.8390 C   0  0  0  0  0  0  0  0  0  0  0  0
   57.9483   31.0766   48.2246 H   0  0  0  0  0  0  0  0  0  0  0  0
   59.5690   31.6819   48.7165 H   0  0  0  0  0  0  0  0  0  0  0  0
   58.4360   30.7790   50.2780 C   0  0  0  0  0  0  0  0  0  0  0  0
   57.9030   29.7120   50.8260 O   0  0  0  0  0  0  0  0  0  0  0  0
   57.6640   29.9740   52.0900 C   0  0  0  0  0  0  0  0  0  0  0  0
   57.0810   28.9910   53.0480 C   0  0  0  0  0  0  0  0  0  0  0  0
   57.2775   29.3223   54.0783 H   0  0  0  0  0  0  0  0  0  0  0  0
   55.9952   28.9209   52.8861 H   0  0  0  0  0  0  0  0  0  0  0  0
   57.5402   28.0046   52.8861 H   0  0  0  0  0  0  0  0  0  0  0  0
   58.0620   31.2610   52.3930 C   0  0  0  0  0  0  0  0  0  0  0  0
   57.9971   31.7640   53.3691 H   0  0  0  0  0  0  0  0  0  0  0  0
   58.5580   31.7850   51.2170 C   0  0  0  0  0  0  0  0  0  0  0  0
   58.9660   32.7944   51.0597 H   0  0  0  0  0  0  0  0  0  0  0  0
   61.5490   30.3850   50.7830 C   0  0  0  0  0  0  0  0  0  0  0  0
   60.9001   30.2446   51.6601 H   0  0  0  0  0  0  0  0  0  0  0  0
   62.3960   31.5980   50.7480 C   0  0  0  0  0  0  0  0  0  0  0  0
   63.7870   31.5240   50.5470 C   0  0  0  0  0  0  0  0  0  0  0  0
   64.2699   30.5447   50.4137 H   0  0  0  0  0  0  0  0  0  0  0  0
   64.5580   32.6910   50.5160 C   0  0  0  0  0  0  0  0  0  0  0  0
   65.6474   32.6263   50.3781 H   0  0  0  0  0  0  0  0  0  0  0  0
   63.9460   33.9380   50.6600 C   0  0  0  0  0  0  0  0  0  0  0  0
   64.5549   34.8541   50.6491 H   0  0  0  0  0  0  0  0  0  0  0  0
   62.5600   34.0220   50.8180 C   0  0  0  0  0  0  0  0  0  0  0  0
   62.0770   35.0052   50.9181 H   0  0  0  0  0  0  0  0  0  0  0  0
   61.7870   32.8580   50.8490 C   0  0  0  0  0  0  0  0  0  0  0  0
   60.6943   32.9302   50.9532 H   0  0  0  0  0  0  0  0  0  0  0  0
  1  2  1  0
  2  3  1  0
  3  4  2  0
  3  5  1  0
  5  6  1  0
  6  7  2  0
  7  8  1  0
  7  9  1  0
  9 10  1  0
  9 11  2  0
 11 12  1  0
 11 13  1  0
 13 14  1  0
 14 15  1  0
 14 16  2  0
 16 17  1  0
 16 18  1  0
 18 19  2  0
 18 20  1  0
 20 21  1  0
 21 22  1  0
 21 23  1  0
 21 24  1  0
 24 25  1  0
 24 26  1  0
 24 27  1  0
 27 28  1  0
 27 29  1  0
 29 30  1  0
 29 31  1  0
 29 32  1  0
 32 33  2  0
 33 34  1  0
 33 35  1  0
 35 36  1  0
 35 37  2  0
 37 38  1  0
 37 39  1  0
 39 40  1  0
 39 41  2  0
 41 42  1  0
 27 43  1  0
 43 44  1  0
 43 45  1  0
 43 46  1  0
 46 47  1  0
 46 48  1  0
 13 49  2  0
 49 50  1  0
  5 51  1  0
 51 52  1  0
 51 53  1  0
 51 54  1  0
 54 55  1  0
 55 56  1  0
 56 57  1  0
 57 58  1  0
 57 59  1  0
 57 60  1  0
 56 61  2  0
 61 62  1  0
 61 63  1  0
 63 64  1  0
  2 65  2  3
 65 66  1  0
 65 67  1  0
 67 68  2  0
 68 69  1  0
 68 70  1  0
 70 71  1  0
 70 72  2  0
 72 73  1  0
 72 74  1  0
 74 75  1  0
 74 76  2  0
 76 77  1  0
 49  6  1  0
 63 54  2  0
 76 67  1  0
 46 20  1  0
 41 32  1  0
M  END
>  <UniqueID>  (62) 
57

>  <SMILES>  (62) 
Cc1ccc(CN(C(=O)C=Cc2ccccc2)c2cccc(/C=C/C(=O)N3CCC(Cc4ccccc4)CC3)c2)o1

>  <Energy>  (62) 
127.13233877130729

>  <Genealogy>  (62) 
Cc1ccc(CN(C(=O)C=Cc2ccccc2)c2cccc(/C=C/C(=O)N3CCC(Cc4ccccc4)CC3)c2)o1 (cis-trans isomerization)
Cc1ccc(CN(C(=O)C=Cc2ccccc2)c2cccc(/C=C/C(=O)N3CCC(Cc4ccccc4)CC3)c2)o1 (3D coordinates assigned)
Cc1ccc(CN(C(=O)C=Cc2ccccc2)c2cccc(/C=C/C(=O)N3CCC(Cc4ccccc4)CC3)c2)o1 (nonaromatic ring conformer: 127.13233877130729 kcal/mol)

>  <smiles>  (62) 
Cc1ccc(CN(C(=O)C=Cc2ccccc2)c2cccc(C=CC(=O)N3CCC(Cc4ccccc4)CC3)c2)o1

>  <score_type>  (62) 
oracle

>  <origin>  (62) 
adg

>  <m_score__min__energy>  (62) 
-10.91

>  <m_primary>  (62) 
energy

$$$$
62:0
     RDKit          3D

 43 45  0  0  0  0  0  0  0  0999 V2000
   56.0930   28.6600   45.2380 N   0  0  0  0  0  0  0  0  0  0  0  0
   56.9800   29.7430   44.9720 C   0  0  0  0  0  0  0  0  0  0  0  0
   56.5220   30.9060   44.8120 O   0  0  0  0  0  0  0  0  0  0  0  0
   58.4560   29.5070   44.9300 C   0  0  0  0  0  0  0  0  0  0  0  0
   59.0660   29.8120   46.2710 C   0  0  0  0  0  0  0  0  0  0  0  0
   58.8420   28.9560   47.3560 C   0  0  0  0  0  0  0  0  0  0  0  0
   59.3760   29.2560   48.6050 C   0  0  0  0  0  0  0  0  0  0  0  0
   60.1330   30.4140   48.7860 C   0  0  0  0  0  0  0  0  0  0  0  0
   60.3720   31.3070   47.7180 C   0  0  0  0  0  0  0  0  0  0  0  0
   61.2340   32.5680   47.9720 C   0  0  1  0  0  0  0  0  0  0  0  0
   60.3360   33.8400   48.0530 C   0  0  0  0  0  0  0  0  0  0  0  0
   59.3050   33.8990   46.9470 C   0  0  0  0  0  0  0  0  0  0  0  0
   59.6760   34.2940   45.6490 C   0  0  0  0  0  0  0  0  0  0  0  0
   58.7300   34.3140   44.6200 C   0  0  0  0  0  0  0  0  0  0  0  0
   57.4070   33.9450   44.8780 C   0  0  0  0  0  0  0  0  0  0  0  0
   57.0280   33.5590   46.1650 C   0  0  0  0  0  0  0  0  0  0  0  0
   57.9710   33.5350   47.1970 C   0  0  0  0  0  0  0  0  0  0  0  0
   62.1610   32.4870   49.1930 C   0  0  0  0  0  0  0  0  0  0  0  0
   63.3740   31.7190   48.6980 C   0  0  0  0  0  0  0  0  0  0  0  0
   63.4420   31.8870   47.2440 N   0  0  0  0  0  0  0  0  0  0  0  0
   62.2850   32.6980   46.8550 C   0  0  0  0  0  0  0  0  0  0  0  0
   59.8160   30.9850   46.4550 C   0  0  0  0  0  0  0  0  0  0  0  0
   55.1460   28.8290   45.6430 H   0  0  0  0  0  0  0  0  0  0  0  0
   58.6492   28.4550   44.6731 H   0  0  0  0  0  0  0  0  0  0  0  0
   58.9048   30.1656   44.1718 H   0  0  0  0  0  0  0  0  0  0  0  0
   58.2422   28.0439   47.2205 H   0  0  0  0  0  0  0  0  0  0  0  0
   59.2008   28.5778   49.4531 H   0  0  0  0  0  0  0  0  0  0  0  0
   60.5515   30.6356   49.7789 H   0  0  0  0  0  0  0  0  0  0  0  0
   59.8138   33.8409   49.0212 H   0  0  0  0  0  0  0  0  0  0  0  0
   60.9913   34.7166   47.9431 H   0  0  0  0  0  0  0  0  0  0  0  0
   60.7155   34.5886   45.4426 H   0  0  0  0  0  0  0  0  0  0  0  0
   59.0272   34.6205   43.6062 H   0  0  0  0  0  0  0  0  0  0  0  0
   56.6641   33.9587   44.0669 H   0  0  0  0  0  0  0  0  0  0  0  0
   55.9853   33.2731   46.3676 H   0  0  0  0  0  0  0  0  0  0  0  0
   57.6673   33.2298   48.2092 H   0  0  0  0  0  0  0  0  0  0  0  0
   62.4490   33.4937   49.5302 H   0  0  0  0  0  0  0  0  0  0  0  0
   61.6789   31.9991   50.0530 H   0  0  0  0  0  0  0  0  0  0  0  0
   64.2866   32.1180   49.1647 H   0  0  0  0  0  0  0  0  0  0  0  0
   63.2902   30.6540   48.9602 H   0  0  0  0  0  0  0  0  0  0  0  0
   64.3170   32.4070   46.9990 H   0  0  0  0  0  0  0  0  0  0  0  0
   62.5847   33.7503   46.7416 H   0  0  0  0  0  0  0  0  0  0  0  0
   61.8749   32.3532   45.8943 H   0  0  0  0  0  0  0  0  0  0  0  0
   59.9744   31.6649   45.6049 H   0  0  0  0  0  0  0  0  0  0  0  0
  1  2  1  0
  2  3  2  0
  2  4  1  0
  4  5  1  0
  5  6  2  0
  6  7  1  0
  7  8  2  0
  8  9  1  0
  9 10  1  0
 10 11  1  1
 11 12  1  0
 12 13  2  0
 13 14  1  0
 14 15  2  0
 15 16  1  0
 16 17  2  0
 10 18  1  0
 18 19  1  0
 19 20  1  0
 20 21  1  0
  9 22  2  0
 22  5  1  0
 21 10  1  0
 17 12  1  0
  1 23  1  0
  4 24  1  0
  4 25  1  0
  6 26  1  0
  7 27  1  0
  8 28  1  0
 11 29  1  0
 11 30  1  0
 13 31  1  0
 14 32  1  0
 15 33  1  0
 16 34  1  0
 17 35  1  0
 18 36  1  0
 18 37  1  0
 19 38  1  0
 19 39  1  0
 20 40  1  0
 21 41  1  0
 21 42  1  0
 22 43  1  0
M  CHG  1   1  -1
M  END
>  <UniqueID>  (63) 
58

>  <SMILES>  (63) 
[NH-]C(=O)Cc1cccc([C@@]2(Cc3ccccc3)CCNC2)c1

>  <Energy>  (63) 
49.36886905181172

>  <Genealogy>  (63) 
[NH-]C(=O)Cc1cccc(C2(Cc3ccccc3)CCNC2)c1 (protonated)
[NH-]C(=O)Cc1cccc([C@@]2(Cc3ccccc3)CCNC2)c1 (chirality)
[NH-]C(=O)Cc1cccc([C@@]2(Cc3ccccc3)CCNC2)c1 (3D coordinates assigned)
[NH-]C(=O)Cc1cccc([C@@]2(Cc3ccccc3)CCNC2)c1 (nonaromatic ring conformer: 49.36886905181172 kcal/mol)

>  <smiles>  (63) 
NC(=O)Cc1cccc(C2(Cc3ccccc3)CCNC2)c1

>  <score_type>  (63) 
oracle

>  <origin>  (63) 
adg

>  <m_score__min__energy>  (63) 
-11.5

>  <m_primary>  (63) 
energy

$$$$
63:0
     RDKit          3D

 41 44  0  0  0  0  0  0  0  0999 V2000
   55.4513   29.1336   42.0215 H   0  0  0  0  0  0  0  0  0  0  0  0
   56.2780   29.5290   42.6300 C   0  0  0  0  0  0  0  0  0  0  0  0
   57.3010   29.1546   42.4777 H   0  0  0  0  0  0  0  0  0  0  0  0
   56.0400   30.4620   43.5520 C   0  0  0  0  0  0  0  0  0  0  0  0
   55.0057   30.8143   43.6785 H   0  0  0  0  0  0  0  0  0  0  0  0
   57.0870   31.0500   44.4140 C   0  0  0  0  0  0  0  0  0  0  0  0
   57.3800   30.4150   45.5820 N   0  0  0  0  0  0  0  0  0  0  0  0
   58.3170   30.8800   46.4490 C   0  0  0  0  0  0  0  0  0  0  0  0
   58.5228   30.3290   47.3786 H   0  0  0  0  0  0  0  0  0  0  0  0
   59.0240   32.0590   46.1660 C   0  0  0  0  0  0  0  0  0  0  0  0
   60.0520   32.5770   47.1040 C   0  0  0  0  0  0  0  0  0  0  0  0
   59.7600   33.6560   47.9580 C   0  0  0  0  0  0  0  0  0  0  0  0
   58.7621   34.1180   47.9302 H   0  0  0  0  0  0  0  0  0  0  0  0
   60.7260   34.1470   48.8420 C   0  0  0  0  0  0  0  0  0  0  0  0
   60.4834   34.9902   49.5054 H   0  0  0  0  0  0  0  0  0  0  0  0
   62.0020   33.5690   48.8860 C   0  0  0  0  0  0  0  0  0  0  0  0
   62.9780   34.0500   49.7670 C   0  0  0  0  0  0  0  0  0  0  0  0
   62.7482   34.8879   50.4417 H   0  0  0  0  0  0  0  0  0  0  0  0
   64.2570   33.4560   49.7860 C   0  0  0  0  0  0  0  0  0  0  0  0
   65.2080   33.8630   50.5830 N   0  0  0  0  0  0  0  0  0  0  0  0
   66.5540   33.3720   50.7030 C   0  0  0  0  0  0  0  0  0  0  0  0
   66.7960   32.1790   50.3830 O   0  0  0  0  0  0  0  0  0  0  0  0
   67.7010   34.2590   51.1070 C   0  0  0  0  0  0  0  0  0  0  0  0
   67.0914   35.0058   51.6368 H   0  0  0  0  0  0  0  0  0  0  0  0
   68.8570   34.3360   50.1220 C   0  0  0  0  0  0  0  0  0  0  0  0
   68.7777   33.8431   49.1418 H   0  0  0  0  0  0  0  0  0  0  0  0
   69.4356   35.1524   49.6652 H   0  0  0  0  0  0  0  0  0  0  0  0
   68.9920   33.5010   51.3820 C   0  0  0  0  0  0  0  0  0  0  0  0
   69.0101   32.4032   51.3149 H   0  0  0  0  0  0  0  0  0  0  0  0
   69.7082   33.4619   52.2159 H   0  0  0  0  0  0  0  0  0  0  0  0
   64.5050   32.3910   48.9710 N   0  0  0  0  0  0  0  0  0  0  0  0
   65.4450   31.9320   48.9930 H   0  0  0  0  0  0  0  0  0  0  0  0
   63.5740   31.9040   48.1070 C   0  0  0  0  0  0  0  0  0  0  0  0
   63.8218   31.0500   47.4595 H   0  0  0  0  0  0  0  0  0  0  0  0
   62.3030   32.4840   48.0380 C   0  0  0  0  0  0  0  0  0  0  0  0
   61.3310   31.9940   47.1530 C   0  0  0  0  0  0  0  0  0  0  0  0
   61.5709   31.1477   46.4926 H   0  0  0  0  0  0  0  0  0  0  0  0
   58.7240   32.7430   44.9780 C   0  0  0  0  0  0  0  0  0  0  0  0
   59.2575   33.6735   44.7341 H   0  0  0  0  0  0  0  0  0  0  0  0
   57.7530   32.2510   44.1030 C   0  0  0  0  0  0  0  0  0  0  0  0
   57.4360   32.9760   43.0010 F   0  0  0  0  0  0  0  0  0  0  0  0
  1  2  1  0
  2  3  1  0
  2  4  2  0
  4  5  1  0
  4  6  1  0
  6  7  2  0
  7  8  1  0
  8  9  1  0
  8 10  2  0
 10 11  1  0
 11 12  1  0
 12 13  1  0
 12 14  2  0
 14 15  1  0
 14 16  1  0
 16 17  2  0
 17 18  1  0
 17 19  1  0
 19 20  2  0
 20 21  1  0
 21 22  2  0
 21 23  1  0
 23 24  1  0
 23 25  1  0
 25 26  1  0
 25 27  1  0
 25 28  1  0
 28 29  1  0
 28 30  1  0
 19 31  1  0
 31 32  1  0
 31 33  1  0
 33 34  1  0
 33 35  2  0
 35 36  1  0
 36 37  1  0
 10 38  1  0
 38 39  1  0
 38 40  2  0
 40 41  1  0
 40  6  1  0
 36 11  2  0
 35 16  1  0
 28 23  1  0
M  END
>  <UniqueID>  (64) 
59

>  <SMILES>  (64) 
C=Cc1ncc(-c2ccc3c/c(=N\C(=O)C4CC4)[nH]cc3c2)cc1F

>  <Energy>  (64) 
328.3959330152488

>  <Genealogy>  (64) 
C=Cc1ncc(-c2ccc3c/c(=N\C(=O)C4CC4)[nH]cc3c2)cc1F (cis-trans isomerization)
C=Cc1ncc(-c2ccc3c/c(=N\C(=O)C4CC4)[nH]cc3c2)cc1F (3D coordinates assigned)
C=Cc1ncc(-c2ccc3c/c(=N\C(=O)C4CC4)[nH]cc3c2)cc1F (nonaromatic ring conformer: 328.3959330152488 kcal/mol)

>  <smiles>  (64) 
C=Cc1ncc(-c2ccc3cc(=NC(=O)C4CC4)[nH]cc3c2)cc1F

>  <score_type>  (64) 
oracle

>  <origin>  (64) 
adg

>  <m_score__min__energy>  (64) 
-7.7199999999999998

>  <m_primary>  (64) 
energy

$$$$
64:0
     RDKit          3D

 24 25  0  0  0  0  0  0  0  0999 V2000
   55.1400   29.3470   44.4970 N   0  0  0  0  0  0  0  0  0  0  0  0
   56.3860   29.4840   44.8190 C   0  0  0  0  0  0  0  0  0  0  0  0
   56.8640   30.7010   45.1850 N   0  0  0  0  0  0  0  0  0  0  0  0
   58.1650   30.8870   45.5310 C   0  0  0  0  0  0  0  0  0  0  0  0
   58.6000   32.2670   45.8320 C   0  0  0  0  0  0  0  0  0  0  0  0
   58.5870   33.2570   44.8350 C   0  0  0  0  0  0  0  0  0  0  0  0
   58.9640   34.5680   45.1400 C   0  0  0  0  0  0  0  0  0  0  0  0
   59.3410   34.9040   46.4430 C   0  0  0  0  0  0  0  0  0  0  0  0
   59.3360   33.9290   47.4450 C   0  0  0  0  0  0  0  0  0  0  0  0
   58.9590   32.6160   47.1440 C   0  0  0  0  0  0  0  0  0  0  0  0
   59.0460   29.7770   45.5400 C   0  0  0  0  0  0  0  0  0  0  0  0
   60.4530   29.8610   46.0090 C   0  0  0  0  0  0  0  0  0  0  0  0
   60.7370   29.9690   47.2310 O   0  0  0  0  0  0  0  0  0  0  0  0
   58.5300   28.5320   45.1320 C   0  0  0  0  0  0  0  0  0  0  0  0
   59.2700   27.5100   45.1040 O   0  0  0  0  0  0  0  0  0  0  0  0
   57.2210   28.4130   44.7810 N   0  0  0  0  0  0  0  0  0  0  0  0
   54.4810   30.1580   44.5080 H   0  0  0  0  0  0  0  0  0  0  0  0
   58.2791   32.9995   43.8109 H   0  0  0  0  0  0  0  0  0  0  0  0
   58.9639   35.3365   44.3530 H   0  0  0  0  0  0  0  0  0  0  0  0
   59.6416   35.9352   46.6802 H   0  0  0  0  0  0  0  0  0  0  0  0
   59.6289   34.1948   48.4714 H   0  0  0  0  0  0  0  0  0  0  0  0
   58.9437   31.8544   47.9376 H   0  0  0  0  0  0  0  0  0  0  0  0
   61.2673   29.8280   45.2702 H   0  0  0  0  0  0  0  0  0  0  0  0
   56.8500   27.4790   44.4880 H   0  0  0  0  0  0  0  0  0  0  0  0
  1  2  2  3
  2  3  1  0
  3  4  1  0
  4  5  1  0
  5  6  2  0
  6  7  1  0
  7  8  2  0
  8  9  1  0
  9 10  2  0
  4 11  2  0
 11 12  1  0
 12 13  2  0
 11 14  1  0
 14 15  2  0
 14 16  1  0
 16  2  1  0
 10  5  1  0
  1 17  1  0
  6 18  1  0
  7 19  1  0
  8 20  1  0
  9 21  1  0
 10 22  1  0
 12 23  1  0
 16 24  1  0
M  CHG  1   3  -1
M  END
>  <UniqueID>  (65) 
60

>  <SMILES>  (65) 
N=c1[n-]c(-c2ccccc2)c(C=O)c(=O)[nH]1

>  <Energy>  (65) 
36.368278688182976

>  <Genealogy>  (65) 
N=c1[n-]c(-c2ccccc2)c(C=O)c(=O)[nH]1 (protonated)
N=c1[n-]c(-c2ccccc2)c(C=O)c(=O)[nH]1 (3D coordinates assigned)
N=c1[n-]c(-c2ccccc2)c(C=O)c(=O)[nH]1 (optimized conformer: 36.368278688182976 kcal/mol)

>  <smiles>  (65) 
N=c1[nH]c(-c2ccccc2)c(C=O)c(=O)[nH]1

>  <score_type>  (65) 
oracle

>  <origin>  (65) 
adg

>  <m_score__min__energy>  (65) 
-8.4000000000000004

>  <m_primary>  (65) 
energy

$$$$
65:0
     RDKit          3D

 59 62  0  0  0  0  0  0  0  0999 V2000
   62.2780   33.9580   50.6610 C   0  0  0  0  0  0  0  0  0  0  0  0
   62.2340   33.8510   49.1580 C   0  0  0  0  0  0  0  0  0  0  0  0
   63.4480   33.8270   48.4490 C   0  0  0  0  0  0  0  0  0  0  0  0
   63.4580   33.7140   47.0610 C   0  0  0  0  0  0  0  0  0  0  0  0
   62.2600   33.6190   46.3580 C   0  0  0  0  0  0  0  0  0  0  0  0
   61.0280   33.6590   47.0340 C   0  0  0  0  0  0  0  0  0  0  0  0
   59.8050   33.4920   46.2930 N   0  0  0  0  0  0  0  0  0  0  0  0
   59.1570   34.5710   45.6010 C   0  0  0  0  0  0  0  0  0  0  0  0
   59.6140   35.7440   45.6710 O   0  0  0  0  0  0  0  0  0  0  0  0
   57.8840   34.3250   44.8530 C   0  0  0  0  0  0  0  0  0  0  0  0
   57.4190   32.9640   45.1000 N   0  0  0  0  0  0  0  0  0  0  0  0
   57.6090   31.8680   44.1960 C   0  0  0  0  0  0  0  0  0  0  0  0
   57.5350   32.0820   42.9570 O   0  0  0  0  0  0  0  0  0  0  0  0
   57.8350   30.4910   44.6750 C   0  0  0  0  0  0  0  0  0  0  0  0
   59.1470   30.0330   44.8900 C   0  0  0  0  0  0  0  0  0  0  0  0
   59.3790   28.7250   45.3310 C   0  0  0  0  0  0  0  0  0  0  0  0
   58.3000   27.8710   45.5730 C   0  0  0  0  0  0  0  0  0  0  0  0
   58.5070   26.5880   45.9690 N   0  0  0  0  0  0  0  0  0  0  0  0
   57.4710   25.7320   46.1880 C   0  0  0  0  0  0  0  0  0  0  0  0
   57.7680   24.3160   46.5930 C   0  0  0  0  0  0  0  0  0  0  0  0
   59.0170   23.5380   45.5080 S   0  0  0  0  0  0  0  0  0  0  0  0
   57.9590   22.2100   44.8220 C   0  0  0  0  0  0  0  0  0  0  0  0
   56.5010   22.5880   44.8580 C   0  0  0  0  0  0  0  0  0  0  0  0
   55.6790   22.1620   45.9160 C   0  0  0  0  0  0  0  0  0  0  0  0
   54.3300   22.5340   45.9590 C   0  0  0  0  0  0  0  0  0  0  0  0
   53.7870   23.3220   44.9440 C   0  0  0  0  0  0  0  0  0  0  0  0
   52.4820   23.6810   44.9910 F   0  0  0  0  0  0  0  0  0  0  0  0
   54.5890   23.7270   43.8730 C   0  0  0  0  0  0  0  0  0  0  0  0
   55.9370   23.3530   43.8230 C   0  0  0  0  0  0  0  0  0  0  0  0
   56.1530   26.2050   46.0320 C   0  0  0  0  0  0  0  0  0  0  0  0
   55.1660   25.4550   46.2580 O   0  0  0  0  0  0  0  0  0  0  0  0
   55.9440   27.4880   45.6280 N   0  0  0  0  0  0  0  0  0  0  0  0
   56.9810   28.3300   45.3840 C   0  0  0  0  0  0  0  0  0  0  0  0
   56.7510   29.6390   44.9430 C   0  0  0  0  0  0  0  0  0  0  0  0
   61.0060   33.7970   48.4460 C   0  0  0  0  0  0  0  0  0  0  0  0
   59.6790   33.8340   49.1750 C   0  0  0  0  0  0  0  0  0  0  0  0
   61.8954   33.0277   51.1062 H   0  0  0  0  0  0  0  0  0  0  0  0
   63.3160   34.1206   50.9868 H   0  0  0  0  0  0  0  0  0  0  0  0
   61.6547   34.8038   50.9868 H   0  0  0  0  0  0  0  0  0  0  0  0
   64.3995   33.8982   48.9963 H   0  0  0  0  0  0  0  0  0  0  0  0
   64.4149   33.6998   46.5187 H   0  0  0  0  0  0  0  0  0  0  0  0
   62.2776   33.5116   45.2634 H   0  0  0  0  0  0  0  0  0  0  0  0
   59.3190   32.5700   46.3360 H   0  0  0  0  0  0  0  0  0  0  0  0
   57.1185   35.0391   45.1907 H   0  0  0  0  0  0  0  0  0  0  0  0
   58.0651   34.4564   43.7760 H   0  0  0  0  0  0  0  0  0  0  0  0
   59.9971   30.7075   44.7103 H   0  0  0  0  0  0  0  0  0  0  0  0
   60.4085   28.3702   45.4867 H   0  0  0  0  0  0  0  0  0  0  0  0
   58.1453   24.3143   47.6263 H   0  0  0  0  0  0  0  0  0  0  0  0
   56.8368   23.7367   46.5072 H   0  0  0  0  0  0  0  0  0  0  0  0
   58.2534   22.0221   43.7789 H   0  0  0  0  0  0  0  0  0  0  0  0
   58.0960   21.3086   45.4374 H   0  0  0  0  0  0  0  0  0  0  0  0
   56.0983   21.5326   46.7148 H   0  0  0  0  0  0  0  0  0  0  0  0
   53.6965   22.2040   46.7955 H   0  0  0  0  0  0  0  0  0  0  0  0
   54.1597   24.3411   43.0676 H   0  0  0  0  0  0  0  0  0  0  0  0
   56.5583   23.6597   42.9686 H   0  0  0  0  0  0  0  0  0  0  0  0
   55.7210   30.0002   44.8064 H   0  0  0  0  0  0  0  0  0  0  0  0
   59.8567   33.8290   50.2605 H   0  0  0  0  0  0  0  0  0  0  0  0
   59.1333   34.7477   48.8970 H   0  0  0  0  0  0  0  0  0  0  0  0
   59.0832   32.9521   48.8970 H   0  0  0  0  0  0  0  0  0  0  0  0
  1  2  1  0
  2  3  2  0
  3  4  1  0
  4  5  2  0
  5  6  1  0
  6  7  1  0
  7  8  1  0
  8  9  2  0
  8 10  1  0
 10 11  1  0
 11 12  1  0
 12 13  2  0
 12 14  1  0
 14 15  2  0
 15 16  1  0
 16 17  2  0
 17 18  1  0
 18 19  2  0
 19 20  1  0
 20 21  1  0
 21 22  1  0
 22 23  1  0
 23 24  2  0
 24 25  1  0
 25 26  2  0
 26 27  1  0
 26 28  1  0
 28 29  2  0
 19 30  1  0
 30 31  2  0
 30 32  1  0
 32 33  1  0
 33 34  2  0
  6 35  2  0
 35 36  1  0
 35  2  1  0
 34 14  1  0
 33 17  1  0
 29 23  1  0
  1 37  1  0
  1 38  1  0
  1 39  1  0
  3 40  1  0
  4 41  1  0
  5 42  1  0
  7 43  1  0
 10 44  1  0
 10 45  1  0
 15 46  1  0
 16 47  1  0
 20 48  1  0
 20 49  1  0
 22 50  1  0
 22 51  1  0
 24 52  1  0
 25 53  1  0
 28 54  1  0
 29 55  1  0
 34 56  1  0
 36 57  1  0
 36 58  1  0
 36 59  1  0
M  CHG  2  11  -1  32  -1
M  END
>  <UniqueID>  (66) 
61

>  <SMILES>  (66) 
Cc1cccc(NC(=O)C[N-]C(=O)c2ccc3nc(CSCc4ccc(F)cc4)c(=O)[n-]c3c2)c1C

>  <Energy>  (66) 
69.04477105382749

>  <Genealogy>  (66) 
Cc1cccc(NC(=O)C[N-]C(=O)c2ccc3nc(CSCc4ccc(F)cc4)c(=O)[n-]c3c2)c1C (protonated)
Cc1cccc(NC(=O)C[N-]C(=O)c2ccc3nc(CSCc4ccc(F)cc4)c(=O)[n-]c3c2)c1C (3D coordinates assigned)
Cc1cccc(NC(=O)C[N-]C(=O)c2ccc3nc(CSCc4ccc(F)cc4)c(=O)[n-]c3c2)c1C (optimized conformer: 69.04477105382749 kcal/mol)

>  <smiles>  (66) 
Cc1cccc(NC(=O)CNC(=O)c2ccc3nc(CSCc4ccc(F)cc4)c(=O)[nH]c3c2)c1C

>  <score_type>  (66) 
oracle

>  <origin>  (66) 
adg

>  <m_score__min__energy>  (66) 
-12.869999999999999

>  <m_primary>  (66) 
energy

$$$$
66:0
     RDKit          3D

 55 58  0  0  0  0  0  0  0  0999 V2000
   60.4500   27.0340   49.9530 O   0  0  0  0  0  0  0  0  0  0  0  0
   60.4670   28.1770   49.4180 C   0  0  0  0  0  0  0  0  0  0  0  0
   61.1460   29.2950   50.1670 C   0  0  0  0  0  0  0  0  0  0  0  0
   60.1540   30.3270   50.6440 C   0  0  0  0  0  0  0  0  0  0  0  0
   58.7820   30.0230   50.7050 C   0  0  0  0  0  0  0  0  0  0  0  0
   57.8640   30.9860   51.1340 C   0  0  0  0  0  0  0  0  0  0  0  0
   58.3030   32.2640   51.4900 C   0  0  0  0  0  0  0  0  0  0  0  0
   59.6600   32.5830   51.4130 C   0  0  0  0  0  0  0  0  0  0  0  0
   60.5830   31.6220   50.9860 C   0  0  0  0  0  0  0  0  0  0  0  0
   59.8260   28.3700   48.1340 N   0  0  0  0  0  0  0  0  0  0  0  0
   59.3540   27.1780   47.4070 C   0  0  0  0  0  0  0  0  0  0  0  0
   58.8650   27.5250   45.9980 C   0  0  0  0  0  0  0  0  0  0  0  0
   57.9700   28.6840   46.0550 N   0  0  0  0  0  0  0  0  0  0  0  0
   56.6440   28.6040   45.5000 C   0  0  0  0  0  0  0  0  0  0  0  0
   55.9830   27.5380   45.6120 O   0  0  0  0  0  0  0  0  0  0  0  0
   56.0290   29.7340   44.8710 N   0  0  0  0  0  0  0  0  0  0  0  0
   56.7040   30.6950   44.0480 C   0  0  0  0  0  0  0  0  0  0  0  0
   56.6580   30.6230   42.6440 C   0  0  0  0  0  0  0  0  0  0  0  0
   57.3090   31.5870   41.8710 C   0  0  0  0  0  0  0  0  0  0  0  0
   58.0080   32.6270   42.4890 C   0  0  0  0  0  0  0  0  0  0  0  0
   58.0640   32.7110   43.8840 C   0  0  0  0  0  0  0  0  0  0  0  0
   58.7640   33.7770   44.4680 O   0  0  0  0  0  0  0  0  0  0  0  0
   59.2520   33.8040   45.7830 C   0  0  0  0  0  0  0  0  0  0  0  0
   60.6380   33.8240   45.9870 C   0  0  0  0  0  0  0  0  0  0  0  0
   61.1610   33.8360   47.2830 C   0  0  0  0  0  0  0  0  0  0  0  0
   60.3030   33.8160   48.3850 C   0  0  0  0  0  0  0  0  0  0  0  0
   58.9190   33.7780   48.1930 C   0  0  0  0  0  0  0  0  0  0  0  0
   58.3920   33.7660   46.8980 C   0  0  0  0  0  0  0  0  0  0  0  0
   57.3850   31.7540   44.6610 C   0  0  0  0  0  0  0  0  0  0  0  0
   58.3630   29.8730   46.8290 C   0  0  0  0  0  0  0  0  0  0  0  0
   59.7340   29.6910   47.4920 C   0  0  0  0  0  0  0  0  0  0  0  0
   61.6702   28.8745   51.0379 H   0  0  0  0  0  0  0  0  0  0  0  0
   61.8528   29.7876   49.4831 H   0  0  0  0  0  0  0  0  0  0  0  0
   58.4297   29.0225   50.4137 H   0  0  0  0  0  0  0  0  0  0  0  0
   56.7940   30.7373   51.1914 H   0  0  0  0  0  0  0  0  0  0  0  0
   57.5792   33.0189   51.8310 H   0  0  0  0  0  0  0  0  0  0  0  0
   60.0039   33.5909   51.6883 H   0  0  0  0  0  0  0  0  0  0  0  0
   61.6499   31.8808   50.9174 H   0  0  0  0  0  0  0  0  0  0  0  0
   60.1820   26.4581   47.3288 H   0  0  0  0  0  0  0  0  0  0  0  0
   58.5083   26.7506   47.9657 H   0  0  0  0  0  0  0  0  0  0  0  0
   59.7289   27.7617   45.3595 H   0  0  0  0  0  0  0  0  0  0  0  0
   58.3202   26.6654   45.5805 H   0  0  0  0  0  0  0  0  0  0  0  0
   56.1083   29.8059   42.1539 H   0  0  0  0  0  0  0  0  0  0  0  0
   57.2713   31.5273   40.7733 H   0  0  0  0  0  0  0  0  0  0  0  0
   58.5173   33.3842   41.8748 H   0  0  0  0  0  0  0  0  0  0  0  0
   61.3182   33.8303   45.1225 H   0  0  0  0  0  0  0  0  0  0  0  0
   62.2501   33.8612   47.4354 H   0  0  0  0  0  0  0  0  0  0  0  0
   60.7166   33.8302   49.4042 H   0  0  0  0  0  0  0  0  0  0  0  0
   58.2440   33.7575   49.0613 H   0  0  0  0  0  0  0  0  0  0  0  0
   57.3028   33.7268   46.7495 H   0  0  0  0  0  0  0  0  0  0  0  0
   57.3892   31.8385   45.7577 H   0  0  0  0  0  0  0  0  0  0  0  0
   58.4061   30.7399   46.1533 H   0  0  0  0  0  0  0  0  0  0  0  0
   57.6166   30.0279   47.6220 H   0  0  0  0  0  0  0  0  0  0  0  0
   60.5200   29.7771   46.7273 H   0  0  0  0  0  0  0  0  0  0  0  0
   59.8637   30.4686   48.2591 H   0  0  0  0  0  0  0  0  0  0  0  0
  1  2  2  0
  2  3  1  0
  3  4  1  0
  4  5  2  0
  5  6  1  0
  6  7  2  0
  7  8  1  0
  8  9  2  0
  2 10  1  0
 10 11  1  0
 11 12  1  0
 12 13  1  0
 13 14  1  0
 14 15  2  0
 14 16  1  0
 16 17  1  0
 17 18  2  0
 18 19  1  0
 19 20  2  0
 20 21  1  0
 21 22  1  0
 22 23  1  0
 23 24  2  0
 24 25  1  0
 25 26  2  0
 26 27  1  0
 27 28  2  0
 21 29  2  0
 13 30  1  0
 30 31  1  0
  9  4  1  0
 31 10  1  0
 29 17  1  0
 28 23  1  0
  3 32  1  0
  3 33  1  0
  5 34  1  0
  6 35  1  0
  7 36  1  0
  8 37  1  0
  9 38  1  0
 11 39  1  0
 11 40  1  0
 12 41  1  0
 12 42  1  0
 18 43  1  0
 19 44  1  0
 20 45  1  0
 24 46  1  0
 25 47  1  0
 26 48  1  0
 27 49  1  0
 28 50  1  0
 29 51  1  0
 30 52  1  0
 30 53  1  0
 31 54  1  0
 31 55  1  0
M  CHG  1  16  -1
M  END
>  <UniqueID>  (67) 
62

>  <SMILES>  (67) 
O=C(Cc1ccccc1)N1CCN(C(=O)[N-]c2cccc(Oc3ccccc3)c2)CC1

>  <Energy>  (67) 
71.24670537630087

>  <Genealogy>  (67) 
O=C(Cc1ccccc1)N1CCN(C(=O)[N-]c2cccc(Oc3ccccc3)c2)CC1 (protonated)
O=C(Cc1ccccc1)N1CCN(C(=O)[N-]c2cccc(Oc3ccccc3)c2)CC1 (3D coordinates assigned)
O=C(Cc1ccccc1)N1CCN(C(=O)[N-]c2cccc(Oc3ccccc3)c2)CC1 (nonaromatic ring conformer: 71.24670537630087 kcal/mol)

>  <smiles>  (67) 
O=C(Cc1ccccc1)N1CCN(C(=O)Nc2cccc(Oc3ccccc3)c2)CC1

>  <score_type>  (67) 
oracle

>  <origin>  (67) 
adg

>  <m_score__min__energy>  (67) 
-10.51

>  <m_primary>  (67) 
energy

$$$$
67:0
     RDKit          3D

 56 58  0  0  0  0  0  0  0  0999 V2000
   56.6970   34.6160   44.8640 C   0  0  0  0  0  0  0  0  0  0  0  0
   58.1180   34.7010   44.8770 O   0  0  0  0  0  0  0  0  0  0  0  0
   58.9510   33.9620   45.7330 C   0  0  0  0  0  0  0  0  0  0  0  0
   59.7140   34.5810   46.7430 C   0  0  0  0  0  0  0  0  0  0  0  0
   60.5170   33.8150   47.5900 C   0  0  0  0  0  0  0  0  0  0  0  0
   60.5690   32.4300   47.4450 C   0  0  0  0  0  0  0  0  0  0  0  0
   59.8210   31.8030   46.4480 C   0  0  0  0  0  0  0  0  0  0  0  0
   59.0210   32.5610   45.5760 C   0  0  0  0  0  0  0  0  0  0  0  0
   58.2060   31.8630   44.5220 C   0  0  0  0  0  0  0  0  0  0  0  0
   56.9650   31.3790   45.1200 N   0  0  0  0  0  0  0  0  0  0  0  0
   56.6330   29.7660   44.5670 S   0  0  0  0  0  0  0  0  0  0  0  0
   56.8240   29.6940   43.0770 O   0  0  0  0  0  0  0  0  0  0  0  0
   55.2040   29.4210   44.8810 O   0  0  0  0  0  0  0  0  0  0  0  0
   57.6910   28.6110   45.3750 C   0  0  0  0  0  0  0  0  0  0  0  0
   57.6700   27.2580   45.0300 C   0  0  0  0  0  0  0  0  0  0  0  0
   58.5390   26.3700   45.6590 C   0  0  0  0  0  0  0  0  0  0  0  0
   59.4270   26.8430   46.6310 C   0  0  0  0  0  0  0  0  0  0  0  0
   60.2170   26.0290   47.1840 O   0  0  0  0  0  0  0  0  0  0  0  0
   59.4360   28.1730   46.9730 N   0  0  0  0  0  0  0  0  0  0  0  0
   60.3870   28.6830   47.9760 C   0  0  0  0  0  0  0  0  0  0  0  0
   59.6630   29.3280   49.1310 C   0  0  0  0  0  0  0  0  0  0  0  0
   58.4180   29.5090   49.0440 O   0  0  0  0  0  0  0  0  0  0  0  0
   60.3580   29.7270   50.3360 N   0  0  0  0  0  0  0  0  0  0  0  0
   61.5850   29.0290   50.7740 C   0  0  0  0  0  0  0  0  0  0  0  0
   62.7380   30.0020   51.1050 C   0  0  0  0  0  0  0  0  0  0  0  0
   62.8710   31.2040   50.1580 C   0  0  0  0  0  0  0  0  0  0  0  0
   61.7600   32.2530   50.3170 C   0  0  0  0  0  0  0  0  0  0  0  0
   60.7480   31.9720   51.4450 C   0  0  0  0  0  0  0  0  0  0  0  0
   59.7690   30.8240   51.1350 C   0  0  0  0  0  0  0  0  0  0  0  0
   58.5940   29.0530   46.3480 C   0  0  0  0  0  0  0  0  0  0  0  0
   56.3216   34.5935   45.8977 H   0  0  0  0  0  0  0  0  0  0  0  0
   56.2821   35.4909   44.3421 H   0  0  0  0  0  0  0  0  0  0  0  0
   56.3894   33.6978   44.3421 H   0  0  0  0  0  0  0  0  0  0  0  0
   59.6767   35.6736   46.8647 H   0  0  0  0  0  0  0  0  0  0  0  0
   61.1108   34.3065   48.3747 H   0  0  0  0  0  0  0  0  0  0  0  0
   61.2004   31.8305   48.1172 H   0  0  0  0  0  0  0  0  0  0  0  0
   59.8577   30.7086   46.3439 H   0  0  0  0  0  0  0  0  0  0  0  0
   57.9732   32.5675   43.7099 H   0  0  0  0  0  0  0  0  0  0  0  0
   58.7759   31.0152   44.1140 H   0  0  0  0  0  0  0  0  0  0  0  0
   56.9693   26.8948   44.2638 H   0  0  0  0  0  0  0  0  0  0  0  0
   58.5272   25.3027   45.3931 H   0  0  0  0  0  0  0  0  0  0  0  0
   60.9936   27.8468   48.3540 H   0  0  0  0  0  0  0  0  0  0  0  0
   61.0270   29.4394   47.4982 H   0  0  0  0  0  0  0  0  0  0  0  0
   61.3527   28.4396   51.6733 H   0  0  0  0  0  0  0  0  0  0  0  0
   61.9180   28.3893   49.9434 H   0  0  0  0  0  0  0  0  0  0  0  0
   62.5771   30.3868   52.1229 H   0  0  0  0  0  0  0  0  0  0  0  0
   63.6670   29.4231   50.9961 H   0  0  0  0  0  0  0  0  0  0  0  0
   63.8374   31.6920   50.3527 H   0  0  0  0  0  0  0  0  0  0  0  0
   62.7924   30.8112   49.1335 H   0  0  0  0  0  0  0  0  0  0  0  0
   62.2354   33.2239   50.5205 H   0  0  0  0  0  0  0  0  0  0  0  0
   61.1851   32.2329   49.3794 H   0  0  0  0  0  0  0  0  0  0  0  0
   61.3079   31.7130   52.3557 H   0  0  0  0  0  0  0  0  0  0  0  0
   60.1433   32.8830   51.5650 H   0  0  0  0  0  0  0  0  0  0  0  0
   59.4147   30.4052   52.0885 H   0  0  0  0  0  0  0  0  0  0  0  0
   58.9561   31.2546   50.5319 H   0  0  0  0  0  0  0  0  0  0  0  0
   58.6278   30.1199   46.6138 H   0  0  0  0  0  0  0  0  0  0  0  0
  1  2  1  0
  2  3  1  0
  3  4  2  0
  4  5  1  0
  5  6  2  0
  6  7  1  0
  7  8  2  0
  8  9  1  0
  9 10  1  0
 10 11  1  0
 11 12  2  0
 11 13  2  0
 11 14  1  0
 14 15  1  0
 15 16  2  0
 16 17  1  0
 17 18  2  0
 17 19  1  0
 19 20  1  0
 20 21  1  0
 21 22  2  0
 21 23  1  0
 23 24  1  0
 24 25  1  0
 25 26  1  0
 26 27  1  0
 27 28  1  0
 28 29  1  0
 19 30  1  0
  8  3  1  0
 30 14  2  0
 29 23  1  0
  1 31  1  0
  1 32  1  0
  1 33  1  0
  4 34  1  0
  5 35  1  0
  6 36  1  0
  7 37  1  0
  9 38  1  0
  9 39  1  0
 15 40  1  0
 16 41  1  0
 20 42  1  0
 20 43  1  0
 24 44  1  0
 24 45  1  0
 25 46  1  0
 25 47  1  0
 26 48  1  0
 26 49  1  0
 27 50  1  0
 27 51  1  0
 28 52  1  0
 28 53  1  0
 29 54  1  0
 29 55  1  0
 30 56  1  0
M  CHG  1  10  -1
M  END
>  <UniqueID>  (68) 
63

>  <SMILES>  (68) 
COc1ccccc1C[N-]S(=O)(=O)c1ccc(=O)n(CC(=O)N2CCCCCC2)c1

>  <Energy>  (68) 
63.22704913289007

>  <Genealogy>  (68) 
COc1ccccc1C[N-]S(=O)(=O)c1ccc(=O)n(CC(=O)N2CCCCCC2)c1 (protonated)
COc1ccccc1C[N-]S(=O)(=O)c1ccc(=O)n(CC(=O)N2CCCCCC2)c1 (3D coordinates assigned)
COc1ccccc1C[N-]S(=O)(=O)c1ccc(=O)n(CC(=O)N2CCCCCC2)c1 (nonaromatic ring conformer: 63.22704913289007 kcal/mol)

>  <smiles>  (68) 
COc1ccccc1CNS(=O)(=O)c1ccc(=O)n(CC(=O)N2CCCCCC2)c1

>  <score_type>  (68) 
oracle

>  <origin>  (68) 
adg

>  <m_score__min__energy>  (68) 
-8.4199999999999999

>  <m_primary>  (68) 
energy

$$$$
68:0
     RDKit          3D

 63 66  0  0  0  0  0  0  0  0999 V2000
   64.3994   32.1937   48.3625 H   0  0  0  0  0  0  0  0  0  0  0  0
   63.3350   32.0390   48.1320 C   0  0  0  0  0  0  0  0  0  0  0  0
   62.9680   31.1140   47.2060 N   0  0  0  0  0  0  0  0  0  0  0  0
   61.6580   30.8950   46.9110 C   0  0  0  0  0  0  0  0  0  0  0  0
   61.3010   30.0220   46.0160 N   0  0  0  0  0  0  0  0  0  0  0  0
   60.1850   29.1160   46.0740 C   0  0  0  0  0  0  0  0  0  0  0  0
   59.8260   28.4230   44.9130 C   0  0  0  0  0  0  0  0  0  0  0  0
   60.4153   28.5574   43.9939 H   0  0  0  0  0  0  0  0  0  0  0  0
   58.7250   27.5610   44.9100 C   0  0  0  0  0  0  0  0  0  0  0  0
   58.4597   27.0164   43.9918 H   0  0  0  0  0  0  0  0  0  0  0  0
   57.9550   27.3860   46.0730 C   0  0  0  0  0  0  0  0  0  0  0  0
   56.7780   26.4860   46.0580 C   0  0  0  0  0  0  0  0  0  0  0  0
   55.6200   26.9830   45.9870 O   0  0  0  0  0  0  0  0  0  0  0  0
   56.9270   25.0560   46.1390 N   0  0  0  0  0  0  0  0  0  0  0  0
   55.7420   24.2100   46.3440 C   0  0  0  0  0  0  0  0  0  0  0  0
   55.9773   23.4282   47.0812 H   0  0  0  0  0  0  0  0  0  0  0  0
   54.9144   24.8355   46.7097 H   0  0  0  0  0  0  0  0  0  0  0  0
   55.3260   23.5540   45.0290 C   0  0  0  0  0  0  0  0  0  0  0  0
   54.4356   22.9371   45.2204 H   0  0  0  0  0  0  0  0  0  0  0  0
   55.1405   24.3729   44.3183 H   0  0  0  0  0  0  0  0  0  0  0  0
   56.3810   22.6750   44.4010 C   0  0  0  0  0  0  0  0  0  0  0  0
   56.0730   22.0900   43.3260 O   0  0  0  0  0  0  0  0  0  0  0  0
   57.7100   22.4830   44.9480 N   0  0  0  0  0  0  0  0  0  0  0  0
   58.1460   21.1010   45.1960 C   0  0  0  0  0  0  0  0  0  0  0  0
   58.2021   20.9232   46.2801 H   0  0  0  0  0  0  0  0  0  0  0  0
   57.4245   20.4027   44.7467 H   0  0  0  0  0  0  0  0  0  0  0  0
   59.1376   20.9431   44.7467 H   0  0  0  0  0  0  0  0  0  0  0  0
   58.6840   23.5610   45.2140 C   0  0  0  0  0  0  0  0  0  0  0  0
   59.6471   23.1004   45.4791 H   0  0  0  0  0  0  0  0  0  0  0  0
   58.7455   24.1696   44.2998 H   0  0  0  0  0  0  0  0  0  0  0  0
   58.2700   24.5030   46.3500 C   0  0  0  0  0  0  0  0  0  0  0  0
   58.2798   23.9439   47.2973 H   0  0  0  0  0  0  0  0  0  0  0  0
   58.9834   25.3398   46.3767 H   0  0  0  0  0  0  0  0  0  0  0  0
   58.2930   28.1110   47.2280 C   0  0  0  0  0  0  0  0  0  0  0  0
   57.6876   27.9978   48.1394 H   0  0  0  0  0  0  0  0  0  0  0  0
   59.3920   28.9750   47.2290 C   0  0  0  0  0  0  0  0  0  0  0  0
   59.6383   29.5470   48.1357 H   0  0  0  0  0  0  0  0  0  0  0  0
   60.7000   31.6310   47.5320 N   0  0  0  0  0  0  0  0  0  0  0  0
   61.0170   32.5750   48.4590 C   0  0  0  0  0  0  0  0  0  0  0  0
   59.9650   33.3310   49.0790 N   0  0  0  0  0  0  0  0  0  0  0  0
   59.3760   34.4670   48.3620 C   0  0  0  0  0  0  0  0  0  0  0  0
   58.4859   34.8177   48.9049 H   0  0  0  0  0  0  0  0  0  0  0  0
   60.1186   35.2760   48.2978 H   0  0  0  0  0  0  0  0  0  0  0  0
   58.9790   34.0520   46.9710 C   0  0  0  0  0  0  0  0  0  0  0  0
   57.9730   33.0940   46.7750 C   0  0  0  0  0  0  0  0  0  0  0  0
   57.4406   32.6654   47.6369 H   0  0  0  0  0  0  0  0  0  0  0  0
   57.6520   32.6880   45.4760 C   0  0  0  0  0  0  0  0  0  0  0  0
   56.8579   31.9442   45.3144 H   0  0  0  0  0  0  0  0  0  0  0  0
   58.3200   33.2110   44.4100 N   0  0  0  0  0  0  0  0  0  0  0  0
   58.0720   32.8970   43.4460 H   0  0  0  0  0  0  0  0  0  0  0  0
   59.3090   34.1320   44.5760 C   0  0  0  0  0  0  0  0  0  0  0  0
   59.8345   34.5359   43.6981 H   0  0  0  0  0  0  0  0  0  0  0  0
   59.6590   34.5660   45.8570 C   0  0  0  0  0  0  0  0  0  0  0  0
   60.4622   35.3056   45.9911 H   0  0  0  0  0  0  0  0  0  0  0  0
   59.3260   32.7990   50.2880 C   0  0  0  0  0  0  0  0  0  0  0  0
   58.7170   33.5877   50.7539 H   0  0  0  0  0  0  0  0  0  0  0  0
   60.1058   32.4634   50.9875 H   0  0  0  0  0  0  0  0  0  0  0  0
   58.4320   31.6150   49.9350 C   0  0  0  0  0  0  0  0  0  0  0  0
   58.0724   31.1388   50.8591 H   0  0  0  0  0  0  0  0  0  0  0  0
   57.5726   31.9673   49.3457 H   0  0  0  0  0  0  0  0  0  0  0  0
   59.0061   30.8849   49.3457 H   0  0  0  0  0  0  0  0  0  0  0  0
   62.3630   32.7920   48.7900 C   0  0  0  0  0  0  0  0  0  0  0  0
   62.8440   33.9310   50.0390 Cl  0  0  0  0  0  0  0  0  0  0  0  0
  1  2  1  0
  2  3  1  0
  3  4  1  0
  4  5  2  0
  5  6  1  0
  6  7  2  0
  7  8  1  0
  7  9  1  0
  9 10  1  0
  9 11  2  0
 11 12  1  0
 12 13  2  0
 12 14  1  0
 14 15  1  0
 15 16  1  0
 15 17  1  0
 15 18  1  0
 18 19  1  0
 18 20  1  0
 18 21  1  0
 21 22  2  0
 21 23  1  0
 23 24  1  0
 24 25  1  0
 24 26  1  0
 24 27  1  0
 23 28  1  0
 28 29  1  0
 28 30  1  0
 28 31  1  0
 31 32  1  0
 31 33  1  0
 11 34  1  0
 34 35  1  0
 34 36  2  0
 36 37  1  0
  4 38  1  0
 38 39  2  0
 39 40  1  0
 40 41  1  0
 41 42  1  0
 41 43  1  0
 41 44  1  0
 44 45  2  0
 45 46  1  0
 45 47  1  0
 47 48  1  0
 47 49  2  0
 49 50  1  0
 49 51  1  0
 51 52  1  0
 51 53  2  0
 53 54  1  0
 40 55  1  0
 55 56  1  0
 55 57  1  0
 55 58  1  0
 58 59  1  0
 58 60  1  0
 58 61  1  0
 39 62  1  0
 62 63  1  0
 62  2  2  0
 36  6  1  0
 53 44  1  0
 31 14  1  0
M  CHG  2   3  -1  49   1
M  END
>  <UniqueID>  (69) 
64

>  <SMILES>  (69) 
CCN(Cc1cc[nH+]cc1)c1n/c(=N/c2ccc(C(=O)N3CCC(=O)N(C)CC3)cc2)[n-]cc1Cl

>  <Energy>  (69) 
83.59240998091158

>  <Genealogy>  (69) 
CCN(Cc1cc[nH+]cc1)c1nc(=Nc2ccc(C(=O)N3CCC(=O)N(C)CC3)cc2)[n-]cc1Cl (protonated)
CCN(Cc1cc[nH+]cc1)c1n/c(=N/c2ccc(C(=O)N3CCC(=O)N(C)CC3)cc2)[n-]cc1Cl (cis-trans isomerization)
CCN(Cc1cc[nH+]cc1)c1n/c(=N/c2ccc(C(=O)N3CCC(=O)N(C)CC3)cc2)[n-]cc1Cl (3D coordinates assigned)
CCN(Cc1cc[nH+]cc1)c1n/c(=N/c2ccc(C(=O)N3CCC(=O)N(C)CC3)cc2)[n-]cc1Cl (nonaromatic ring conformer: 83.59240998091158 kcal/mol)

>  <smiles>  (69) 
CCN(Cc1ccncc1)c1nc(=Nc2ccc(C(=O)N3CCC(=O)N(C)CC3)cc2)[nH]cc1Cl

>  <score_type>  (69) 
oracle

>  <origin>  (69) 
adg

>  <m_score__min__energy>  (69) 
-7.0800000000000001

>  <m_primary>  (69) 
energy

$$$$
69:0
     RDKit          3D

 41 44  0  0  0  0  0  0  0  0999 V2000
   53.6320   25.1420   45.5750 O   0  0  0  0  0  0  0  0  0  0  0  0
   54.8890   25.2080   45.6300 C   0  0  0  0  0  0  0  0  0  0  0  0
   55.4940   26.3690   46.2140 N   0  0  0  0  0  0  0  0  0  0  0  0
   56.6940   27.0170   45.7620 C   0  0  0  0  0  0  0  0  0  0  0  0
   57.9250   26.3420   45.7140 C   0  0  0  0  0  0  0  0  0  0  0  0
   59.0720   27.0040   45.2680 C   0  0  0  0  0  0  0  0  0  0  0  0
   58.9960   28.3350   44.8510 C   0  0  0  0  0  0  0  0  0  0  0  0
   57.7670   29.0130   44.8630 C   0  0  0  0  0  0  0  0  0  0  0  0
   57.6950   30.3870   44.4350 N   0  0  0  0  0  0  0  0  0  0  0  0
   57.0870   30.7210   43.1430 C   0  0  0  0  0  0  0  0  0  0  0  0
   57.7070   32.0140   42.6030 C   0  0  0  0  0  0  0  0  0  0  0  0
   57.6380   33.0470   43.5690 O   0  0  0  0  0  0  0  0  0  0  0  0
   58.4350   32.7090   44.6880 C   0  0  0  0  0  0  0  0  0  0  0  0
   57.8780   31.4730   45.4020 C   0  0  0  0  0  0  0  0  0  0  0  0
   56.6180   28.3410   45.3150 C   0  0  0  0  0  0  0  0  0  0  0  0
   55.6910   24.0830   45.1060 C   0  0  0  0  0  0  0  0  0  0  0  0
   55.7570   23.8460   43.7150 C   0  0  0  0  0  0  0  0  0  0  0  0
   56.5620   22.8080   43.1950 C   0  0  0  0  0  0  0  0  0  0  0  0
   57.3040   21.9800   44.0550 C   0  0  0  0  0  0  0  0  0  0  0  0
   57.2080   22.2170   45.4220 C   0  0  0  0  0  0  0  0  0  0  0  0
   57.7830   21.5250   46.4220 N   0  0  0  0  0  0  0  0  0  0  0  0
   57.3870   22.0410   47.5790 N   0  0  0  0  0  0  0  0  0  0  0  0
   56.5560   23.0700   47.3020 C   0  0  0  0  0  0  0  0  0  0  0  0
   55.9700   23.7480   48.1860 O   0  0  0  0  0  0  0  0  0  0  0  0
   56.4280   23.2220   45.9340 C   0  0  0  0  0  0  0  0  0  0  0  0
   57.9862   25.2896   46.0283 H   0  0  0  0  0  0  0  0  0  0  0  0
   60.0367   26.4759   45.2453 H   0  0  0  0  0  0  0  0  0  0  0  0
   59.9041   28.8546   44.5114 H   0  0  0  0  0  0  0  0  0  0  0  0
   57.2680   29.9027   42.4306 H   0  0  0  0  0  0  0  0  0  0  0  0
   56.0039   30.8618   43.2741 H   0  0  0  0  0  0  0  0  0  0  0  0
   58.7608   31.8292   42.3474 H   0  0  0  0  0  0  0  0  0  0  0  0
   57.1457   32.3280   41.7106 H   0  0  0  0  0  0  0  0  0  0  0  0
   59.4602   32.4981   44.3496 H   0  0  0  0  0  0  0  0  0  0  0  0
   58.4293   33.5542   45.3920 H   0  0  0  0  0  0  0  0  0  0  0  0
   58.5832   31.1527   46.1831 H   0  0  0  0  0  0  0  0  0  0  0  0
   56.9091   31.7214   45.8598 H   0  0  0  0  0  0  0  0  0  0  0  0
   55.6489   28.8613   45.3174 H   0  0  0  0  0  0  0  0  0  0  0  0
   55.1744   24.4775   43.0282 H   0  0  0  0  0  0  0  0  0  0  0  0
   56.6085   22.6464   42.1079 H   0  0  0  0  0  0  0  0  0  0  0  0
   57.9385   21.1727   43.6605 H   0  0  0  0  0  0  0  0  0  0  0  0
   58.4230   20.7050   46.3270 H   0  0  0  0  0  0  0  0  0  0  0  0
  1  2  2  0
  2  3  1  0
  3  4  1  0
  4  5  2  0
  5  6  1  0
  6  7  2  0
  7  8  1  0
  8  9  1  0
  9 10  1  0
 10 11  1  0
 11 12  1  0
 12 13  1  0
 13 14  1  0
  8 15  2  0
  2 16  1  0
 16 17  2  0
 17 18  1  0
 18 19  2  0
 19 20  1  0
 20 21  1  0
 21 22  1  0
 22 23  1  0
 23 24  2  0
 23 25  1  0
 15  4  1  0
 25 16  1  0
 14  9  1  0
 25 20  2  0
  5 26  1  0
  6 27  1  0
  7 28  1  0
 10 29  1  0
 10 30  1  0
 11 31  1  0
 11 32  1  0
 13 33  1  0
 13 34  1  0
 14 35  1  0
 14 36  1  0
 15 37  1  0
 17 38  1  0
 18 39  1  0
 19 40  1  0
 21 41  1  0
M  CHG  2   3  -1  22  -1
M  END
>  <UniqueID>  (70) 
65

>  <SMILES>  (70) 
O=C([N-]c1cccc(N2CCOCC2)c1)c1cccc2[nH][n-]c(=O)c12

>  <Energy>  (70) 
98.44388911164985

>  <Genealogy>  (70) 
O=C([N-]c1cccc(N2CCOCC2)c1)c1cccc2[nH][n-]c(=O)c12 (protonated)
O=C([N-]c1cccc(N2CCOCC2)c1)c1cccc2[nH][n-]c(=O)c12 (3D coordinates assigned)
O=C([N-]c1cccc(N2CCOCC2)c1)c1cccc2[nH][n-]c(=O)c12 (nonaromatic ring conformer: 98.44388911164985 kcal/mol)

>  <smiles>  (70) 
O=C(Nc1cccc(N2CCOCC2)c1)c1cccc2[nH][nH]c(=O)c12

>  <score_type>  (70) 
oracle

>  <origin>  (70) 
adg

>  <m_score__min__energy>  (70) 
-12.09

>  <m_primary>  (70) 
energy

$$$$
70:0
     RDKit          3D

 60 63  0  0  0  0  0  0  0  0999 V2000
   54.9750   26.3080   46.0160 N   0  0  0  0  0  0  0  0  0  0  0  0
   56.6750   25.9940   46.0850 S   0  0  0  0  0  0  0  0  0  0  0  0
   57.0060   25.4210   47.4360 O   0  0  0  0  0  0  0  0  0  0  0  0
   57.0350   24.9940   45.0200 O   0  0  0  0  0  0  0  0  0  0  0  0
   57.5560   27.4810   45.8490 N   0  0  0  0  0  0  0  0  0  0  0  0
   58.6710   27.2690   44.9070 C   0  0  0  0  0  0  0  0  0  0  0  0
   59.3320   28.6120   44.5270 C   0  0  0  0  0  0  0  0  0  0  0  0
   59.0650   29.7300   45.5650 C   0  0  0  0  0  0  0  0  0  0  0  0
   57.7640   30.4760   45.3370 C   0  0  0  0  0  0  0  0  0  0  0  0
   56.6520   29.8760   45.4000 O   0  0  0  0  0  0  0  0  0  0  0  0
   57.7860   31.8910   45.1160 N   0  0  0  0  0  0  0  0  0  0  0  0
   58.3000   32.4870   43.8950 C   0  0  0  0  0  0  0  0  0  0  0  0
   58.2880   33.9960   44.1370 C   0  0  0  0  0  0  0  0  0  0  0  0
   57.4690   34.2190   45.4110 C   0  0  0  0  0  0  0  0  0  0  0  0
   57.4210   32.8690   46.1270 C   0  0  2  0  0  0  0  0  0  0  0  0
   58.4090   32.8020   47.2570 C   0  0  0  0  0  0  0  0  0  0  0  0
   58.0290   32.4430   48.4060 O   0  0  0  0  0  0  0  0  0  0  0  0
   59.7820   33.1310   47.0100 N   0  0  0  0  0  0  0  0  0  0  0  0
   60.9080   32.6220   47.7350 C   0  0  0  0  0  0  0  0  0  0  0  0
   62.2030   33.1320   47.5480 C   0  0  0  0  0  0  0  0  0  0  0  0
   63.2690   32.6240   48.2960 C   0  0  0  0  0  0  0  0  0  0  0  0
   63.0560   31.6130   49.2350 C   0  0  0  0  0  0  0  0  0  0  0  0
   61.7530   31.1210   49.4560 C   0  0  0  0  0  0  0  0  0  0  0  0
   61.4430   30.1120   50.4300 N   0  0  0  0  0  0  0  0  0  0  0  0
   60.1790   29.5660   50.8300 C   0  0  0  0  0  0  0  0  0  0  0  0
   59.9780   28.3210   50.8250 O   0  0  0  0  0  0  0  0  0  0  0  0
   59.0950   30.4730   51.2650 C   0  0  0  0  0  0  0  0  0  0  0  0
   59.3670   31.7890   51.6760 C   0  0  0  0  0  0  0  0  0  0  0  0
   58.3100   32.6200   52.0550 C   0  0  0  0  0  0  0  0  0  0  0  0
   57.0000   32.1340   52.0490 C   0  0  0  0  0  0  0  0  0  0  0  0
   56.7660   30.8190   51.6410 C   0  0  0  0  0  0  0  0  0  0  0  0
   57.8040   30.0310   51.2490 N   0  0  0  0  0  0  0  0  0  0  0  0
   60.6960   31.6280   48.6910 C   0  0  0  0  0  0  0  0  0  0  0  0
   59.0830   29.1270   46.9850 C   0  0  0  0  0  0  0  0  0  0  0  0
   58.0520   27.9810   47.1510 C   0  0  0  0  0  0  0  0  0  0  0  0
   54.7720   26.7080   45.0700 H   0  0  0  0  0  0  0  0  0  0  0  0
   59.4222   26.6181   45.3782 H   0  0  0  0  0  0  0  0  0  0  0  0
   58.2761   26.8000   43.9937 H   0  0  0  0  0  0  0  0  0  0  0  0
   60.4184   28.4586   44.4480 H   0  0  0  0  0  0  0  0  0  0  0  0
   58.8940   28.9369   43.5717 H   0  0  0  0  0  0  0  0  0  0  0  0
   59.8690   30.4712   45.4458 H   0  0  0  0  0  0  0  0  0  0  0  0
   59.3245   32.1378   43.6991 H   0  0  0  0  0  0  0  0  0  0  0  0
   57.6929   32.2104   43.0204 H   0  0  0  0  0  0  0  0  0  0  0  0
   59.3141   34.3683   44.2735 H   0  0  0  0  0  0  0  0  0  0  0  0
   57.8535   34.5351   43.2823 H   0  0  0  0  0  0  0  0  0  0  0  0
   57.9537   34.9724   46.0493 H   0  0  0  0  0  0  0  0  0  0  0  0
   56.4585   34.5868   45.1795 H   0  0  0  0  0  0  0  0  0  0  0  0
   56.4263   32.6940   46.5628 H   0  0  0  0  0  0  0  0  0  0  0  0
   62.3785   33.9313   46.8129 H   0  0  0  0  0  0  0  0  0  0  0  0
   64.2825   33.0235   48.1438 H   0  0  0  0  0  0  0  0  0  0  0  0
   63.9037   31.2006   49.8019 H   0  0  0  0  0  0  0  0  0  0  0  0
   60.4019   32.1611   51.6990 H   0  0  0  0  0  0  0  0  0  0  0  0
   58.5093   33.6583   52.3586 H   0  0  0  0  0  0  0  0  0  0  0  0
   56.1647   32.7781   52.3612 H   0  0  0  0  0  0  0  0  0  0  0  0
   55.7411   30.4196   51.6365 H   0  0  0  0  0  0  0  0  0  0  0  0
   59.6801   31.2358   48.8463 H   0  0  0  0  0  0  0  0  0  0  0  0
   60.0886   28.7302   47.1880 H   0  0  0  0  0  0  0  0  0  0  0  0
   58.8155   29.9253   47.6929 H   0  0  0  0  0  0  0  0  0  0  0  0
   58.5300   27.1501   47.6906 H   0  0  0  0  0  0  0  0  0  0  0  0
   57.1919   28.3793   47.7092 H   0  0  0  0  0  0  0  0  0  0  0  0
  1  2  1  0
  2  3  2  0
  2  4  2  0
  2  5  1  0
  5  6  1  0
  6  7  1  0
  7  8  1  0
  8  9  1  0
  9 10  2  0
  9 11  1  0
 11 12  1  0
 12 13  1  0
 13 14  1  0
 14 15  1  0
 15 16  1  0
 16 17  2  0
 16 18  1  0
 18 19  1  0
 19 20  2  0
 20 21  1  0
 21 22  2  0
 22 23  1  0
 23 24  1  0
 24 25  1  0
 25 26  2  0
 25 27  1  0
 27 28  2  0
 28 29  1  0
 29 30  2  0
 30 31  1  0
 31 32  2  0
 23 33  2  0
  8 34  1  0
 34 35  1  0
 35  5  1  0
 15 11  1  0
 33 19  1  0
 32 27  1  0
  1 36  1  0
  6 37  1  0
  6 38  1  0
  7 39  1  0
  7 40  1  0
  8 41  1  0
 12 42  1  0
 12 43  1  0
 13 44  1  0
 13 45  1  0
 14 46  1  0
 14 47  1  0
 15 48  1  1
 20 49  1  0
 21 50  1  0
 22 51  1  0
 28 52  1  0
 29 53  1  0
 30 54  1  0
 31 55  1  0
 33 56  1  0
 34 57  1  0
 34 58  1  0
 35 59  1  0
 35 60  1  0
M  CHG  3   1  -1  18  -1  24  -1
M  END
>  <UniqueID>  (71) 
66

>  <SMILES>  (71) 
[NH-]S(=O)(=O)N1CCC(C(=O)N2CCC[C@@H]2C(=O)[N-]c2cccc([N-]C(=O)c3ccccn3)c2)CC1

>  <Energy>  (71) 
76.3766672461398

>  <Genealogy>  (71) 
[NH-]S(=O)(=O)N1CCC(C(=O)N2CCCC2C(=O)[N-]c2cccc([N-]C(=O)c3ccccn3)c2)CC1 (protonated)
[NH-]S(=O)(=O)N1CCC(C(=O)N2CCC[C@@H]2C(=O)[N-]c2cccc([N-]C(=O)c3ccccn3)c2)CC1 (chirality)
[NH-]S(=O)(=O)N1CCC(C(=O)N2CCC[C@@H]2C(=O)[N-]c2cccc([N-]C(=O)c3ccccn3)c2)CC1 (3D coordinates assigned)
[NH-]S(=O)(=O)N1CCC(C(=O)N2CCC[C@@H]2C(=O)[N-]c2cccc([N-]C(=O)c3ccccn3)c2)CC1 (nonaromatic ring conformer: 76.3766672461398 kcal/mol)

>  <smiles>  (71) 
NS(=O)(=O)N1CCC(C(=O)N2CCCC2C(=O)Nc2cccc(NC(=O)c3ccccn3)c2)CC1

>  <score_type>  (71) 
oracle

>  <origin>  (71) 
adg

>  <m_score__min__energy>  (71) 
-14.609999999999999

>  <m_primary>  (71) 
energy

$$$$
71:0
     RDKit          3D

 55 58  0  0  0  0  0  0  0  0999 V2000
   57.1977   33.8957   47.2558 H   0  0  0  0  0  0  0  0  0  0  0  0
   58.0710   33.9480   46.5890 C   0  0  0  0  0  0  0  0  0  0  0  0
   59.1110   34.7000   46.9870 C   0  0  0  0  0  0  0  0  0  0  0  0
   59.1069   35.7625   46.7022 H   0  0  0  0  0  0  0  0  0  0  0  0
   60.2620   34.2100   47.7790 C   0  0  0  0  0  0  0  0  0  0  0  0
   60.4360   34.5730   49.1260 C   0  0  0  0  0  0  0  0  0  0  0  0
   59.7043   35.2334   49.6144 H   0  0  0  0  0  0  0  0  0  0  0  0
   61.5350   34.0980   49.8470 C   0  0  0  0  0  0  0  0  0  0  0  0
   61.6756   34.4025   50.8946 H   0  0  0  0  0  0  0  0  0  0  0  0
   62.4560   33.2380   49.2430 C   0  0  0  0  0  0  0  0  0  0  0  0
   63.8250   32.6610   50.1820 Cl  0  0  0  0  0  0  0  0  0  0  0  0
   62.2700   32.8430   47.9070 C   0  0  0  0  0  0  0  0  0  0  0  0
   63.3990   31.7540   47.1140 Cl  0  0  0  0  0  0  0  0  0  0  0  0
   61.1700   33.3220   47.1850 C   0  0  0  0  0  0  0  0  0  0  0  0
   61.0172   32.9994   46.1445 H   0  0  0  0  0  0  0  0  0  0  0  0
   58.0100   33.1850   45.3230 C   0  0  0  0  0  0  0  0  0  0  0  0
   58.5550   33.7350   44.1570 C   0  0  0  0  0  0  0  0  0  0  0  0
   59.0068   34.7376   44.1833 H   0  0  0  0  0  0  0  0  0  0  0  0
   58.5280   33.0340   42.9910 N   0  0  0  0  0  0  0  0  0  0  0  0
   57.9690   31.7970   42.9130 C   0  0  0  0  0  0  0  0  0  0  0  0
   57.9772   31.2509   41.9581 H   0  0  0  0  0  0  0  0  0  0  0  0
   57.3830   31.2160   44.0440 C   0  0  0  0  0  0  0  0  0  0  0  0
   56.7880   29.8680   43.9730 C   0  0  0  0  0  0  0  0  0  0  0  0
   55.1600   29.7070   44.0590 S   0  0  0  0  0  0  0  0  0  0  0  0
   57.6080   28.6930   43.8760 N   0  0  0  0  0  0  0  0  0  0  0  0
   57.1360   27.7770   43.7000 H   0  0  0  0  0  0  0  0  0  0  0  0
   59.0440   28.7170   44.1610 C   0  0  0  0  0  0  0  0  0  0  0  0
   59.5514   27.9762   43.5255 H   0  0  0  0  0  0  0  0  0  0  0  0
   59.4309   29.7253   43.9520 H   0  0  0  0  0  0  0  0  0  0  0  0
   59.3010   28.3880   45.6060 C   0  0  0  0  0  0  0  0  0  0  0  0
   59.4470   27.0560   46.0100 C   0  0  0  0  0  0  0  0  0  0  0  0
   59.3980   26.2442   45.2694 H   0  0  0  0  0  0  0  0  0  0  0  0
   59.6550   26.7650   47.3580 C   0  0  0  0  0  0  0  0  0  0  0  0
   59.7876   25.7218   47.6809 H   0  0  0  0  0  0  0  0  0  0  0  0
   59.6940   27.7690   48.2730 N   0  0  0  0  0  0  0  0  0  0  0  0
   59.5290   29.0760   47.9270 C   0  0  0  0  0  0  0  0  0  0  0  0
   59.5820   30.0910   48.9500 N   0  0  0  0  0  0  0  0  0  0  0  0
   60.4640   29.8780   50.1050 C   0  0  0  0  0  0  0  0  0  0  0  0
   60.1283   28.9857   50.6537 H   0  0  0  0  0  0  0  0  0  0  0  0
   61.4925   29.7425   49.7391 H   0  0  0  0  0  0  0  0  0  0  0  0
   60.4380   31.0830   51.0470 C   0  0  0  0  0  0  0  0  0  0  0  0
   60.9402   30.8188   51.9893 H   0  0  0  0  0  0  0  0  0  0  0  0
   60.9588   31.9251   50.5679 H   0  0  0  0  0  0  0  0  0  0  0  0
   59.0530   31.4740   51.3290 N   0  0  0  0  0  0  0  0  0  0  0  0
   58.5630   30.6580   51.7650 H   0  0  0  0  0  0  0  0  0  0  0  0
   58.3100   31.8900   50.1230 C   0  0  0  0  0  0  0  0  0  0  0  0
   57.2817   31.5084   50.2063 H   0  0  0  0  0  0  0  0  0  0  0  0
   58.3648   32.9881   50.0896 H   0  0  0  0  0  0  0  0  0  0  0  0
   58.9030   31.3850   48.7890 C   0  0  0  0  0  0  0  0  0  0  0  0
   58.0893   31.2718   48.0575 H   0  0  0  0  0  0  0  0  0  0  0  0
   59.6447   32.1203   48.4437 H   0  0  0  0  0  0  0  0  0  0  0  0
   59.3350   29.4060   46.5710 C   0  0  0  0  0  0  0  0  0  0  0  0
   59.2108   30.4568   46.2703 H   0  0  0  0  0  0  0  0  0  0  0  0
   57.3820   31.9310   45.2470 C   0  0  0  0  0  0  0  0  0  0  0  0
   56.8882   31.5099   46.1352 H   0  0  0  0  0  0  0  0  0  0  0  0
  1  2  1  0
  2  3  2  0
  3  4  1  0
  3  5  1  0
  5  6  2  0
  6  7  1  0
  6  8  1  0
  8  9  1  0
  8 10  2  0
 10 11  1  0
 10 12  1  0
 12 13  1  0
 12 14  2  0
 14 15  1  0
  2 16  1  0
 16 17  2  0
 17 18  1  0
 17 19  1  0
 19 20  2  0
 20 21  1  0
 20 22  1  0
 22 23  1  0
 23 24  2  0
 23 25  1  0
 25 26  1  0
 25 27  1  0
 27 28  1  0
 27 29  1  0
 27 30  1  0
 30 31  2  0
 31 32  1  0
 31 33  1  0
 33 34  1  0
 33 35  2  0
 35 36  1  0
 36 37  1  0
 37 38  1  0
 38 39  1  0
 38 40  1  0
 38 41  1  0
 41 42  1  0
 41 43  1  0
 41 44  1  0
 44 45  1  0
 44 46  1  0
 46 47  1  0
 46 48  1  0
 46 49  1  0
 49 50  1  0
 49 51  1  0
 36 52  2  0
 52 53  1  0
 22 54  2  0
 54 55  1  0
 14  5  1  0
 54 16  1  0
 52 30  1  0
 49 37  1  0
M  END
>  <UniqueID>  (72) 
67

>  <SMILES>  (72) 
S=C(NCc1ccnc(N2CCNCC2)c1)c1cncc(/C=C\c2ccc(Cl)c(Cl)c2)c1

>  <Energy>  (72) 
78.04931601040316

>  <Genealogy>  (72) 
S=C(NCc1ccnc(N2CCNCC2)c1)c1cncc(/C=C\c2ccc(Cl)c(Cl)c2)c1 (cis-trans isomerization)
S=C(NCc1ccnc(N2CCNCC2)c1)c1cncc(/C=C\c2ccc(Cl)c(Cl)c2)c1 (3D coordinates assigned)
S=C(NCc1ccnc(N2CCNCC2)c1)c1cncc(/C=C\c2ccc(Cl)c(Cl)c2)c1 (nonaromatic ring conformer: 78.04931601040316 kcal/mol)

>  <smiles>  (72) 
S=C(NCc1ccnc(N2CCNCC2)c1)c1cncc(C=Cc2ccc(Cl)c(Cl)c2)c1

>  <score_type>  (72) 
oracle

>  <origin>  (72) 
adg

>  <m_score__min__energy>  (72) 
-9.6999999999999993

>  <m_primary>  (72) 
energy

$$$$
72:0
     RDKit          3D

 46 49  0  0  0  0  0  0  0  0999 V2000
   57.6637   32.7005   45.2268 H   0  0  0  0  0  0  0  0  0  0  0  0
   57.3280   31.8410   44.6280 C   0  0  0  0  0  0  0  0  0  0  0  0
   56.8140   30.7430   45.2450 N   0  0  0  0  0  0  0  0  0  0  0  0
   56.3930   29.6480   44.5530 C   0  0  0  0  0  0  0  0  0  0  0  0
   55.9040   28.6450   45.2280 N   0  0  0  0  0  0  0  0  0  0  0  0
   56.5420   27.4100   45.5890 C   0  0  0  0  0  0  0  0  0  0  0  0
   56.0090   26.6180   46.4120 O   0  0  0  0  0  0  0  0  0  0  0  0
   57.7960   26.9990   44.8800 C   0  0  0  0  0  0  0  0  0  0  0  0
   57.7942   25.9074   44.7443 H   0  0  0  0  0  0  0  0  0  0  0  0
   57.8337   27.5020   43.9025 H   0  0  0  0  0  0  0  0  0  0  0  0
   58.9830   27.3890   45.6640 N   0  0  0  0  0  0  0  0  0  0  0  0
   58.9970   28.8430   45.9790 C   0  0  0  0  0  0  0  0  0  0  0  0
   60.0227   29.2209   45.8561 H   0  0  0  0  0  0  0  0  0  0  0  0
   58.2979   29.3412   45.2912 H   0  0  0  0  0  0  0  0  0  0  0  0
   58.5310   29.1380   47.4150 C   0  0  0  0  0  0  0  0  0  0  0  0
   58.5981   30.2216   47.5919 H   0  0  0  0  0  0  0  0  0  0  0  0
   57.4970   28.7752   47.5116 H   0  0  0  0  0  0  0  0  0  0  0  0
   59.3520   28.4370   48.4360 N   0  0  0  0  0  0  0  0  0  0  0  0
   60.3590   29.3250   49.0500 C   0  0  0  0  0  0  0  0  0  0  0  0
   60.1901   29.3695   50.1360 H   0  0  0  0  0  0  0  0  0  0  0  0
   61.3630   28.9267   48.8418 H   0  0  0  0  0  0  0  0  0  0  0  0
   60.2520   30.7040   48.4760 C   0  0  0  0  0  0  0  0  0  0  0  0
   61.1130   31.1780   47.5370 N   0  0  0  0  0  0  0  0  0  0  0  0
   60.6430   32.4120   47.3120 C   0  0  0  0  0  0  0  0  0  0  0  0
   61.1410   33.3680   46.4280 C   0  0  0  0  0  0  0  0  0  0  0  0
   62.0249   33.1628   45.8062 H   0  0  0  0  0  0  0  0  0  0  0  0
   60.4730   34.6050   46.3590 C   0  0  0  0  0  0  0  0  0  0  0  0
   60.8363   35.3850   45.6738 H   0  0  0  0  0  0  0  0  0  0  0  0
   59.3380   34.8510   47.1650 C   0  0  0  0  0  0  0  0  0  0  0  0
   58.8232   35.8212   47.1038 H   0  0  0  0  0  0  0  0  0  0  0  0
   58.8630   33.8600   48.0460 C   0  0  0  0  0  0  0  0  0  0  0  0
   57.9811   34.0365   48.6794 H   0  0  0  0  0  0  0  0  0  0  0  0
   59.5490   32.6490   48.0870 C   0  0  0  0  0  0  0  0  0  0  0  0
   59.2750   31.5750   48.8410 N   0  0  0  0  0  0  0  0  0  0  0  0
   59.9910   27.2000   47.9290 C   0  0  0  0  0  0  0  0  0  0  0  0
   60.9677   27.4541   47.4913 H   0  0  0  0  0  0  0  0  0  0  0  0
   60.1129   26.5010   48.7696 H   0  0  0  0  0  0  0  0  0  0  0  0
   59.1240   26.5270   46.8600 C   0  0  0  0  0  0  0  0  0  0  0  0
   59.5924   25.5767   46.5642 H   0  0  0  0  0  0  0  0  0  0  0  0
   58.1237   26.3514   47.2826 H   0  0  0  0  0  0  0  0  0  0  0  0
   56.4650   29.6640   43.1420 C   0  0  0  0  0  0  0  0  0  0  0  0
   56.1099   28.8018   42.5584 H   0  0  0  0  0  0  0  0  0  0  0  0
   56.9910   30.7840   42.4950 C   0  0  0  0  0  0  0  0  0  0  0  0
   57.0592   30.8027   41.3973 H   0  0  0  0  0  0  0  0  0  0  0  0
   57.4300   31.8790   43.2390 C   0  0  0  0  0  0  0  0  0  0  0  0
   57.8515   32.7615   42.7355 H   0  0  0  0  0  0  0  0  0  0  0  0
  1  2  1  0
  2  3  1  0
  3  4  1  0
  4  5  2  0
  5  6  1  0
  6  7  2  0
  6  8  1  0
  8  9  1  0
  8 10  1  0
  8 11  1  0
 11 12  1  0
 12 13  1  0
 12 14  1  0
 12 15  1  0
 15 16  1  0
 15 17  1  0
 15 18  1  0
 18 19  1  0
 19 20  1  0
 19 21  1  0
 19 22  1  0
 22 23  2  0
 23 24  1  0
 24 25  2  0
 25 26  1  0
 25 27  1  0
 27 28  1  0
 27 29  2  0
 29 30  1  0
 29 31  1  0
 31 32  1  0
 31 33  2  0
 33 34  1  0
 18 35  1  0
 35 36  1  0
 35 37  1  0
 35 38  1  0
 38 39  1  0
 38 40  1  0
  4 41  1  0
 41 42  1  0
 41 43  2  0
 43 44  1  0
 43 45  1  0
 45 46  1  0
 45  2  2  0
 38 11  1  0
 34 22  1  0
 33 24  1  0
M  CHG  2   3  -1  34  -1
M  END
>  <UniqueID>  (73) 
68

>  <SMILES>  (73) 
O=C(CN1CCN(Cc2nc3ccccc3[n-]2)CC1)/N=c1\cccc[n-]1

>  <Energy>  (73) 
103.5352346534283

>  <Genealogy>  (73) 
O=C(CN1CCN(Cc2nc3ccccc3[n-]2)CC1)N=c1cccc[n-]1 (protonated)
O=C(CN1CCN(Cc2nc3ccccc3[n-]2)CC1)/N=c1\cccc[n-]1 (cis-trans isomerization)
O=C(CN1CCN(Cc2nc3ccccc3[n-]2)CC1)/N=c1\cccc[n-]1 (3D coordinates assigned)
O=C(CN1CCN(Cc2nc3ccccc3[n-]2)CC1)/N=c1\cccc[n-]1 (nonaromatic ring conformer: 103.5352346534283 kcal/mol)

>  <smiles>  (73) 
O=C(CN1CCN(Cc2nc3ccccc3[nH]2)CC1)N=c1cccc[nH]1

>  <score_type>  (73) 
oracle

>  <origin>  (73) 
adg

>  <m_score__min__energy>  (73) 
-11.74

>  <m_primary>  (73) 
energy

$$$$
73:0
     RDKit          3D

 48 50  0  0  0  0  0  0  0  0999 V2000
   56.3470   24.0890   42.8670 N   0  0  0  0  0  0  0  0  0  0  0  0
   55.8860   23.1760   43.8620 C   0  0  0  0  0  0  0  0  0  0  0  0
   55.9100   21.9380   43.6290 O   0  0  0  0  0  0  0  0  0  0  0  0
   55.4280   23.6710   45.2000 C   0  0  0  0  0  0  0  0  0  0  0  0
   56.3130   24.7960   45.6720 C   0  0  0  0  0  0  0  0  0  0  0  0
   57.6940   24.5900   45.7970 C   0  0  0  0  0  0  0  0  0  0  0  0
   58.5370   25.6180   46.2390 C   0  0  0  0  0  0  0  0  0  0  0  0
   59.9450   25.3570   46.3470 N   0  0  0  0  0  0  0  0  0  0  0  0
   60.9920   26.3400   46.3240 C   0  0  0  0  0  0  0  0  0  0  0  0
   62.1880   25.9800   46.1450 O   0  0  0  0  0  0  0  0  0  0  0  0
   60.6720   27.7400   46.4400 N   0  0  0  0  0  0  0  0  0  0  0  0
   60.4550   28.3130   47.7820 C   0  0  0  0  0  0  0  0  0  0  0  0
   60.4610   29.8160   47.7840 C   0  0  0  0  0  0  0  0  0  0  0  0
   60.1420   30.5220   46.6950 C   0  0  0  0  0  0  0  0  0  0  0  0
   60.0360   31.9920   46.7710 C   0  0  0  0  0  0  0  0  0  0  0  0
   58.8340   32.5930   46.3640 C   0  0  0  0  0  0  0  0  0  0  0  0
   58.6800   33.9790   46.4280 C   0  0  0  0  0  0  0  0  0  0  0  0
   57.5120   34.5500   46.0420 F   0  0  0  0  0  0  0  0  0  0  0  0
   59.7250   34.7780   46.8890 C   0  0  0  0  0  0  0  0  0  0  0  0
   60.9320   34.1970   47.2850 C   0  0  0  0  0  0  0  0  0  0  0  0
   61.1110   32.7990   47.2310 C   0  0  0  0  0  0  0  0  0  0  0  0
   62.4370   32.1830   47.6310 C   0  0  0  0  0  0  0  0  0  0  0  0
   62.3380   31.6570   48.9060 F   0  0  0  0  0  0  0  0  0  0  0  0
   62.8130   31.1660   46.7710 F   0  0  0  0  0  0  0  0  0  0  0  0
   63.4270   33.1500   47.6150 F   0  0  0  0  0  0  0  0  0  0  0  0
   59.7400   29.8100   45.4370 C   0  0  0  0  0  0  0  0  0  0  0  0
   60.6130   28.5710   45.2250 C   0  0  0  0  0  0  0  0  0  0  0  0
   57.9890   26.8830   46.5170 C   0  0  0  0  0  0  0  0  0  0  0  0
   56.6180   27.1040   46.3760 C   0  0  0  0  0  0  0  0  0  0  0  0
   55.7780   26.0690   45.9560 C   0  0  0  0  0  0  0  0  0  0  0  0
   54.4130   26.3170   45.8150 O   0  0  0  0  0  0  0  0  0  0  0  0
   56.6840   23.7370   41.9430 H   0  0  0  0  0  0  0  0  0  0  0  0
   56.3350   25.1190   43.0360 H   0  0  0  0  0  0  0  0  0  0  0  0
   54.3927   24.0336   45.1179 H   0  0  0  0  0  0  0  0  0  0  0  0
   55.4815   22.8452   45.9247 H   0  0  0  0  0  0  0  0  0  0  0  0
   58.1214   23.6083   45.5447 H   0  0  0  0  0  0  0  0  0  0  0  0
   59.4818   27.9654   48.1589 H   0  0  0  0  0  0  0  0  0  0  0  0
   61.2849   27.9787   48.4219 H   0  0  0  0  0  0  0  0  0  0  0  0
   60.7352   30.3491   48.7063 H   0  0  0  0  0  0  0  0  0  0  0  0
   58.0087   31.9679   45.9925 H   0  0  0  0  0  0  0  0  0  0  0  0
   59.5988   35.8695   46.9411 H   0  0  0  0  0  0  0  0  0  0  0  0
   61.7520   34.8369   47.6429 H   0  0  0  0  0  0  0  0  0  0  0  0
   58.6867   29.5026   45.5149 H   0  0  0  0  0  0  0  0  0  0  0  0
   59.8720   30.4908   44.5831 H   0  0  0  0  0  0  0  0  0  0  0  0
   60.1924   27.9734   44.4029 H   0  0  0  0  0  0  0  0  0  0  0  0
   61.6333   28.9039   44.9837 H   0  0  0  0  0  0  0  0  0  0  0  0
   58.6442   27.7025   46.8473 H   0  0  0  0  0  0  0  0  0  0  0  0
   56.1973   28.0962   46.5962 H   0  0  0  0  0  0  0  0  0  0  0  0
  1  2  1  0
  2  3  2  0
  2  4  1  0
  4  5  1  0
  5  6  2  0
  6  7  1  0
  7  8  1  0
  8  9  1  0
  9 10  2  0
  9 11  1  0
 11 12  1  0
 12 13  1  0
 13 14  2  0
 14 15  1  0
 15 16  2  0
 16 17  1  0
 17 18  1  0
 17 19  2  0
 19 20  1  0
 20 21  2  0
 21 22  1  0
 22 23  1  0
 22 24  1  0
 22 25  1  0
 14 26  1  0
 26 27  1  0
  7 28  2  0
 28 29  1  0
 29 30  2  0
 30 31  1  0
 30  5  1  0
 27 11  1  0
 21 15  1  0
  1 32  1  0
  1 33  1  0
  4 34  1  0
  4 35  1  0
  6 36  1  0
 12 37  1  0
 12 38  1  0
 13 39  1  0
 16 40  1  0
 19 41  1  0
 20 42  1  0
 26 43  1  0
 26 44  1  0
 27 45  1  0
 27 46  1  0
 28 47  1  0
 29 48  1  0
M  CHG  2   8  -1  31  -1
M  END
>  <UniqueID>  (74) 
69

>  <SMILES>  (74) 
NC(=O)Cc1cc([N-]C(=O)N2CC=C(c3cc(F)ccc3C(F)(F)F)CC2)ccc1[O-]

>  <Energy>  (74) 
60.291777087014054

>  <Genealogy>  (74) 
NC(=O)Cc1cc([N-]C(=O)N2CC=C(c3cc(F)ccc3C(F)(F)F)CC2)ccc1[O-] (protonated)
NC(=O)Cc1cc([N-]C(=O)N2CC=C(c3cc(F)ccc3C(F)(F)F)CC2)ccc1[O-] (3D coordinates assigned)
NC(=O)Cc1cc([N-]C(=O)N2CC=C(c3cc(F)ccc3C(F)(F)F)CC2)ccc1[O-] (nonaromatic ring conformer: 60.291777087014054 kcal/mol)

>  <smiles>  (74) 
NC(=O)Cc1cc(NC(=O)N2CC=C(c3cc(F)ccc3C(F)(F)F)CC2)ccc1O

>  <score_type>  (74) 
oracle

>  <origin>  (74) 
adg

>  <m_score__min__energy>  (74) 
-13.15

>  <m_primary>  (74) 
energy

$$$$
74:0
     RDKit          3D

 28 29  0  0  0  0  0  0  0  0999 V2000
   59.3040   34.0530   47.8610 C   0  0  0  0  0  0  0  0  0  0  0  0
   58.8010   33.5680   46.7230 C   0  0  0  0  0  0  0  0  0  0  0  0
   58.1770   32.3430   46.5830 C   0  0  0  0  0  0  0  0  0  0  0  0
   57.8220   32.2630   45.2490 C   0  0  0  0  0  0  0  0  0  0  0  0
   57.1280   31.1410   44.6070 C   0  0  0  0  0  0  0  0  0  0  0  0
   55.8700   31.1510   44.5140 O   0  0  0  0  0  0  0  0  0  0  0  0
   57.8760   30.0470   44.1550 O   0  0  0  0  0  0  0  0  0  0  0  0
   58.0190   28.8270   44.8310 C   0  0  0  0  0  0  0  0  0  0  0  0
   59.3100   28.3360   45.0520 C   0  0  0  0  0  0  0  0  0  0  0  0
   59.5010   27.1220   45.7140 C   0  0  0  0  0  0  0  0  0  0  0  0
   58.4020   26.3790   46.1500 C   0  0  0  0  0  0  0  0  0  0  0  0
   57.0950   26.8420   45.9200 C   0  0  0  0  0  0  0  0  0  0  0  0
   55.9260   26.0490   46.3640 C   0  0  0  0  0  0  0  0  0  0  0  0
   54.7670   26.3380   45.9640 O   0  0  0  0  0  0  0  0  0  0  0  0
   56.0910   24.9730   47.2290 O   0  0  0  0  0  0  0  0  0  0  0  0
   56.9110   28.0660   45.2530 C   0  0  0  0  0  0  0  0  0  0  0  0
   58.1940   33.3500   44.6090 O   0  0  0  0  0  0  0  0  0  0  0  0
   58.7850   34.1560   45.4620 C   0  0  0  0  0  0  0  0  0  0  0  0
   59.2770   35.3470   45.1150 C   0  0  0  0  0  0  0  0  0  0  0  0
   59.7841   35.0426   47.8724 H   0  0  0  0  0  0  0  0  0  0  0  0
   59.2383   33.4629   48.7870 H   0  0  0  0  0  0  0  0  0  0  0  0
   58.0002   31.5912   47.3663 H   0  0  0  0  0  0  0  0  0  0  0  0
   60.1804   28.9103   44.7018 H   0  0  0  0  0  0  0  0  0  0  0  0
   60.5204   26.7495   45.8928 H   0  0  0  0  0  0  0  0  0  0  0  0
   58.5600   25.4261   46.6764 H   0  0  0  0  0  0  0  0  0  0  0  0
   55.8923   28.4329   45.0588 H   0  0  0  0  0  0  0  0  0  0  0  0
   59.7626   35.9827   45.8701 H   0  0  0  0  0  0  0  0  0  0  0  0
   59.1969   35.6930   44.0739 H   0  0  0  0  0  0  0  0  0  0  0  0
  1  2  2  0
  2  3  1  0
  3  4  2  0
  4  5  1  0
  5  6  2  0
  5  7  1  0
  7  8  1  0
  8  9  2  0
  9 10  1  0
 10 11  2  0
 11 12  1  0
 12 13  1  0
 13 14  2  0
 13 15  1  0
 12 16  2  0
  4 17  1  0
 17 18  1  0
 18 19  2  0
 18  2  1  0
 16  8  1  0
  1 20  1  0
  1 21  1  0
  3 22  1  0
  9 23  1  0
 10 24  1  0
 11 25  1  0
 16 26  1  0
 19 27  1  0
 19 28  1  0
M  CHG  1  15  -1
M  END
>  <UniqueID>  (75) 
70

>  <SMILES>  (75) 
C=c1cc(C(=O)Oc2cccc(C(=O)[O-])c2)oc1=C

>  <Energy>  (75) 
60.47359882388731

>  <Genealogy>  (75) 
C=c1cc(C(=O)Oc2cccc(C(=O)[O-])c2)oc1=C (protonated)
C=c1cc(C(=O)Oc2cccc(C(=O)[O-])c2)oc1=C (3D coordinates assigned)
C=c1cc(C(=O)Oc2cccc(C(=O)[O-])c2)oc1=C (optimized conformer: 60.47359882388731 kcal/mol)

>  <smiles>  (75) 
C=c1cc(C(=O)Oc2cccc(C(=O)O)c2)oc1=C

>  <score_type>  (75) 
oracle

>  <origin>  (75) 
adg

>  <m_score__min__energy>  (75) 
-10.07

>  <m_primary>  (75) 
energy

$$$$
75:0
     RDKit          3D

 37 39  0  0  0  0  0  0  0  0999 V2000
   58.6940   33.0220   49.1570 O   0  0  0  0  0  0  0  0  0  0  0  0
   58.9200   32.5590   48.0070 C   0  0  0  0  0  0  0  0  0  0  0  0
   58.0020   32.8160   46.9400 N   0  0  0  0  0  0  0  0  0  0  0  0
   58.4280   32.9190   45.5520 C   0  0  0  0  0  0  0  0  0  0  0  0
   57.4330   33.6670   44.6870 C   0  0  0  0  0  0  0  0  0  0  0  0
   58.7300   34.3380   45.1130 C   0  0  0  0  0  0  0  0  0  0  0  0
   60.1220   31.7220   47.7720 C   0  0  0  0  0  0  0  0  0  0  0  0
   60.0460   30.4220   47.6630 N   0  0  0  0  0  0  0  0  0  0  0  0
   59.5650   29.6630   46.5430 C   0  0  0  0  0  0  0  0  0  0  0  0
   60.4470   29.1380   45.5840 C   0  0  0  0  0  0  0  0  0  0  0  0
   59.9560   28.3730   44.5240 C   0  0  0  0  0  0  0  0  0  0  0  0
   58.5880   28.1060   44.4260 C   0  0  0  0  0  0  0  0  0  0  0  0
   57.6960   28.5930   45.3980 C   0  0  0  0  0  0  0  0  0  0  0  0
   56.2490   28.3000   45.3080 C   0  0  0  0  0  0  0  0  0  0  0  0
   55.8040   27.1630   45.6200 O   0  0  0  0  0  0  0  0  0  0  0  0
   55.3580   29.2760   44.8760 O   0  0  0  0  0  0  0  0  0  0  0  0
   58.2000   29.3620   46.4610 C   0  0  0  0  0  0  0  0  0  0  0  0
   61.4640   32.3570   47.7120 C   0  0  0  0  0  0  0  0  0  0  0  0
   61.7360   33.3500   46.7490 C   0  0  0  0  0  0  0  0  0  0  0  0
   62.9990   33.9470   46.6820 C   0  0  0  0  0  0  0  0  0  0  0  0
   64.0070   33.5570   47.5650 C   0  0  0  0  0  0  0  0  0  0  0  0
   63.7550   32.5670   48.5170 C   0  0  0  0  0  0  0  0  0  0  0  0
   62.4940   31.9670   48.5910 C   0  0  0  0  0  0  0  0  0  0  0  0
   58.9585   31.9576   45.4860 H   0  0  0  0  0  0  0  0  0  0  0  0
   57.2849   33.3718   43.6377 H   0  0  0  0  0  0  0  0  0  0  0  0
   56.3646   33.9163   44.7672 H   0  0  0  0  0  0  0  0  0  0  0  0
   59.5203   34.5284   44.3720 H   0  0  0  0  0  0  0  0  0  0  0  0
   58.9892   35.2741   45.6292 H   0  0  0  0  0  0  0  0  0  0  0  0
   61.5268   29.3299   45.6682 H   0  0  0  0  0  0  0  0  0  0  0  0
   60.6477   27.9797   43.7645 H   0  0  0  0  0  0  0  0  0  0  0  0
   58.2063   27.5111   43.5832 H   0  0  0  0  0  0  0  0  0  0  0  0
   57.5142   29.7317   47.2375 H   0  0  0  0  0  0  0  0  0  0  0  0
   60.9489   33.6576   46.0449 H   0  0  0  0  0  0  0  0  0  0  0  0
   63.1984   34.7260   45.9314 H   0  0  0  0  0  0  0  0  0  0  0  0
   64.9991   34.0291   47.5111 H   0  0  0  0  0  0  0  0  0  0  0  0
   64.5508   32.2582   49.2108 H   0  0  0  0  0  0  0  0  0  0  0  0
   62.3047   31.1848   49.3409 H   0  0  0  0  0  0  0  0  0  0  0  0
  1  2  2  0
  2  3  1  0
  3  4  1  0
  4  5  1  0
  5  6  1  0
  2  7  1  0
  7  8  2  3
  8  9  1  0
  9 10  2  0
 10 11  1  0
 11 12  2  0
 12 13  1  0
 13 14  1  0
 14 15  2  0
 14 16  1  0
 13 17  2  0
  7 18  1  0
 18 19  2  0
 19 20  1  0
 20 21  2  0
 21 22  1  0
 22 23  2  0
  6  4  1  0
 17  9  1  0
 23 18  1  0
  4 24  1  0
  5 25  1  0
  5 26  1  0
  6 27  1  0
  6 28  1  0
 10 29  1  0
 11 30  1  0
 12 31  1  0
 17 32  1  0
 19 33  1  0
 20 34  1  0
 21 35  1  0
 22 36  1  0
 23 37  1  0
M  CHG  2   3  -1  16  -1
M  END
>  <UniqueID>  (76) 
71

>  <SMILES>  (76) 
O=C([N-]C1CC1)C(=Nc1cccc(C(=O)[O-])c1)c1ccccc1

>  <Energy>  (76) 
315.1296243196173

>  <Genealogy>  (76) 
O=C([N-]C1CC1)C(=Nc1cccc(C(=O)[O-])c1)c1ccccc1 (protonated)
O=C([N-]C1CC1)C(=Nc1cccc(C(=O)[O-])c1)c1ccccc1 (3D coordinates assigned)
O=C([N-]C1CC1)C(=Nc1cccc(C(=O)[O-])c1)c1ccccc1 (nonaromatic ring conformer: 315.1296243196173 kcal/mol)

>  <smiles>  (76) 
O=C(NC1CC1)C(=Nc1cccc(C(=O)O)c1)c1ccccc1

>  <score_type>  (76) 
oracle

>  <origin>  (76) 
adg

>  <m_score__min__energy>  (76) 
-11.83

>  <m_primary>  (76) 
energy

$$$$
76:0
     RDKit          3D

 53 55  0  0  0  0  0  0  0  0999 V2000
   57.3900   22.0990   49.4230 O   0  0  0  0  0  0  0  0  0  0  0  0
   56.5730   22.1520   48.4660 C   0  0  0  0  0  0  0  0  0  0  0  0
   55.1430   21.7420   48.6950 C   0  0  0  0  0  0  0  0  0  0  0  0
   54.3090   22.1200   47.5540 N   0  0  0  0  0  0  0  0  0  0  0  0
   52.9010   22.3500   47.6970 C   0  0  0  0  0  0  0  0  0  0  0  0
   52.3480   22.2130   48.8210 O   0  0  0  0  0  0  0  0  0  0  0  0
   52.0700   22.7390   46.5140 C   0  0  0  0  0  0  0  0  0  0  0  0
   52.8690   22.6330   45.3000 N   0  0  0  0  0  0  0  0  0  0  0  0
   53.9630   23.5080   45.0130 C   0  0  0  0  0  0  0  0  0  0  0  0
   53.9010   24.7280   45.3210 O   0  0  0  0  0  0  0  0  0  0  0  0
   55.1560   22.9800   44.3410 C   0  0  0  0  0  0  0  0  0  0  0  0
   55.8980   23.6270   43.3720 C   0  0  0  0  0  0  0  0  0  0  0  0
   56.9000   22.7460   43.0260 C   0  0  0  0  0  0  0  0  0  0  0  0
   56.7110   21.6220   43.8060 C   0  0  0  0  0  0  0  0  0  0  0  0
   55.6640   21.7930   44.5810 O   0  0  0  0  0  0  0  0  0  0  0  0
   57.0570   22.4850   47.1580 N   0  0  0  0  0  0  0  0  0  0  0  0
   57.1490   23.8120   46.6310 C   0  0  0  0  0  0  0  0  0  0  0  0
   56.2800   24.8250   47.0650 C   0  0  0  0  0  0  0  0  0  0  0  0
   56.4040   26.1220   46.5590 C   0  0  0  0  0  0  0  0  0  0  0  0
   57.3860   26.4160   45.6020 C   0  0  0  0  0  0  0  0  0  0  0  0
   57.5200   28.0440   44.9340 S   0  0  0  0  0  0  0  0  0  0  0  0
   57.7310   27.9510   43.4480 O   0  0  0  0  0  0  0  0  0  0  0  0
   56.2220   28.7660   45.1680 O   0  0  0  0  0  0  0  0  0  0  0  0
   58.8170   28.9720   45.6600 N   0  0  0  0  0  0  0  0  0  0  0  0
   60.1620   28.4510   45.3410 C   0  0  0  0  0  0  0  0  0  0  0  0
   60.6060   27.2800   46.2400 C   0  0  0  0  0  0  0  0  0  0  0  0
   60.0500   27.3540   47.6690 C   0  0  0  0  0  0  0  0  0  0  0  0
   59.6590   28.7800   48.0400 C   0  0  0  0  0  0  0  0  0  0  0  0
   58.5730   29.3030   47.0860 C   0  0  0  0  0  0  0  0  0  0  0  0
   58.2850   25.4120   45.2070 C   0  0  0  0  0  0  0  0  0  0  0  0
   58.1710   24.1190   45.7260 C   0  0  0  0  0  0  0  0  0  0  0  0
   55.0971   20.6514   48.8305 H   0  0  0  0  0  0  0  0  0  0  0  0
   54.7673   22.2537   49.5933 H   0  0  0  0  0  0  0  0  0  0  0  0
   54.7450   22.2460   46.6120 H   0  0  0  0  0  0  0  0  0  0  0  0
   51.2012   22.0683   46.4403 H   0  0  0  0  0  0  0  0  0  0  0  0
   51.7248   23.7764   46.6350 H   0  0  0  0  0  0  0  0  0  0  0  0
   55.7255   24.6333   42.9627 H   0  0  0  0  0  0  0  0  0  0  0  0
   57.6912   22.9060   42.2788 H   0  0  0  0  0  0  0  0  0  0  0  0
   57.3412   20.7207   43.7820 H   0  0  0  0  0  0  0  0  0  0  0  0
   55.4990   24.5976   47.8055 H   0  0  0  0  0  0  0  0  0  0  0  0
   55.7288   26.9151   46.9128 H   0  0  0  0  0  0  0  0  0  0  0  0
   60.1611   28.1053   44.2967 H   0  0  0  0  0  0  0  0  0  0  0  0
   60.8725   29.2731   45.5123 H   0  0  0  0  0  0  0  0  0  0  0  0
   60.2624   26.3408   45.7819 H   0  0  0  0  0  0  0  0  0  0  0  0
   61.7020   27.3324   46.3183 H   0  0  0  0  0  0  0  0  0  0  0  0
   59.1619   26.7089   47.7414 H   0  0  0  0  0  0  0  0  0  0  0  0
   60.8340   27.0179   48.3636 H   0  0  0  0  0  0  0  0  0  0  0  0
   59.2738   28.7939   49.0702 H   0  0  0  0  0  0  0  0  0  0  0  0
   60.5459   29.4257   47.9595 H   0  0  0  0  0  0  0  0  0  0  0  0
   57.6094   28.8640   47.3838 H   0  0  0  0  0  0  0  0  0  0  0  0
   58.5789   30.4001   47.1653 H   0  0  0  0  0  0  0  0  0  0  0  0
   59.0826   25.6441   44.4859 H   0  0  0  0  0  0  0  0  0  0  0  0
   58.8867   23.3409   45.4221 H   0  0  0  0  0  0  0  0  0  0  0  0
  1  2  2  0
  2  3  1  0
  3  4  1  0
  4  5  1  0
  5  6  2  0
  5  7  1  0
  7  8  1  0
  8  9  1  0
  9 10  2  0
  9 11  1  0
 11 12  2  0
 12 13  1  0
 13 14  2  0
 14 15  1  0
  2 16  1  0
 16 17  1  0
 17 18  2  0
 18 19  1  0
 19 20  2  0
 20 21  1  0
 21 22  2  0
 21 23  2  0
 21 24  1  0
 24 25  1  0
 25 26  1  0
 26 27  1  0
 27 28  1  0
 28 29  1  0
 20 30  1  0
 30 31  2  0
 15 11  1  0
 31 17  1  0
 29 24  1  0
  3 32  1  0
  3 33  1  0
  4 34  1  0
  7 35  1  0
  7 36  1  0
 12 37  1  0
 13 38  1  0
 14 39  1  0
 18 40  1  0
 19 41  1  0
 25 42  1  0
 25 43  1  0
 26 44  1  0
 26 45  1  0
 27 46  1  0
 27 47  1  0
 28 48  1  0
 28 49  1  0
 29 50  1  0
 29 51  1  0
 30 52  1  0
 31 53  1  0
M  CHG  2   8  -1  16  -1
M  END
>  <UniqueID>  (77) 
72

>  <SMILES>  (77) 
O=C(CNC(=O)C[N-]C(=O)c1ccco1)[N-]c1ccc(S(=O)(=O)N2CCCCC2)cc1

>  <Energy>  (77) 
81.81458930849514

>  <Genealogy>  (77) 
O=C(CNC(=O)C[N-]C(=O)c1ccco1)[N-]c1ccc(S(=O)(=O)N2CCCCC2)cc1 (protonated)
O=C(CNC(=O)C[N-]C(=O)c1ccco1)[N-]c1ccc(S(=O)(=O)N2CCCCC2)cc1 (3D coordinates assigned)
O=C(CNC(=O)C[N-]C(=O)c1ccco1)[N-]c1ccc(S(=O)(=O)N2CCCCC2)cc1 (nonaromatic ring conformer: 81.81458930849514 kcal/mol)

>  <smiles>  (77) 
O=C(CNC(=O)c1ccco1)NCC(=O)Nc1ccc(S(=O)(=O)N2CCCCC2)cc1

>  <score_type>  (77) 
oracle

>  <origin>  (77) 
adg

>  <m_score__min__energy>  (77) 
-13.35

>  <m_primary>  (77) 
energy

$$$$
77:0
     RDKit          3D

 58 61  0  0  0  0  0  0  0  0999 V2000
   55.5650   29.7490   43.7480 C   0  0  0  0  0  0  0  0  0  0  0  0
   56.8640   30.1740   44.3570 C   0  0  0  0  0  0  0  0  0  0  0  0
   57.9400   29.2820   44.4310 C   0  0  0  0  0  0  0  0  0  0  0  0
   59.1370   29.7240   45.0070 C   0  0  0  0  0  0  0  0  0  0  0  0
   60.3030   28.7960   45.1460 C   0  0  0  0  0  0  0  0  0  0  0  0
   59.2200   30.9890   45.4990 N   0  0  0  0  0  0  0  0  0  0  0  0
   58.1580   31.8400   45.4420 C   0  0  0  0  0  0  0  0  0  0  0  0
   58.2700   33.2460   45.9830 C   0  0  2  0  0  0  0  0  0  0  0  0
   58.3900   34.2670   44.8200 C   0  0  0  0  0  0  0  0  0  0  0  0
   59.5870   35.0220   44.8880 O   0  0  0  0  0  0  0  0  0  0  0  0
   59.6440   35.7170   46.1200 C   0  0  0  0  0  0  0  0  0  0  0  0
   59.8090   34.7450   47.2970 C   0  0  0  0  0  0  0  0  0  0  0  0
   59.4040   33.3870   46.9150 N   0  0  0  0  0  0  0  0  0  0  0  0
   59.7220   32.3320   47.8410 C   0  0  0  0  0  0  0  0  0  0  0  0
   58.7940   31.6060   48.2920 O   0  0  0  0  0  0  0  0  0  0  0  0
   61.0820   32.1170   48.2730 N   0  0  0  0  0  0  0  0  0  0  0  0
   62.1860   32.5370   47.3870 C   0  0  0  0  0  0  0  0  0  0  0  0
   63.5140   31.9150   47.7960 C   0  0  0  0  0  0  0  0  0  0  0  0
   63.6890   32.1120   49.2470 N   0  0  0  0  0  0  0  0  0  0  0  0
   65.0780   31.9740   49.7590 C   0  0  0  0  0  0  0  0  0  0  0  0
   65.7870   33.3000   50.1040 C   0  0  0  0  0  0  0  0  0  0  0  0
   66.1560   33.2190   51.5820 C   0  0  0  0  0  0  0  0  0  0  0  0
   66.1790   31.7370   51.9210 C   0  0  0  0  0  0  0  0  0  0  0  0
   65.1370   31.0940   51.0150 C   0  0  0  0  0  0  0  0  0  0  0  0
   62.7400   31.2420   49.9550 C   0  0  0  0  0  0  0  0  0  0  0  0
   61.2980   31.6860   49.6700 C   0  0  0  0  0  0  0  0  0  0  0  0
   56.9950   31.4290   44.8640 N   0  0  0  0  0  0  0  0  0  0  0  0
   54.8455   29.5136   44.5461 H   0  0  0  0  0  0  0  0  0  0  0  0
   55.1680   30.5641   43.1251 H   0  0  0  0  0  0  0  0  0  0  0  0
   55.7265   28.8569   43.1251 H   0  0  0  0  0  0  0  0  0  0  0  0
   57.8472   28.2561   44.0450 H   0  0  0  0  0  0  0  0  0  0  0  0
   60.5133   28.6286   46.2127 H   0  0  0  0  0  0  0  0  0  0  0  0
   60.0670   27.8359   44.6637 H   0  0  0  0  0  0  0  0  0  0  0  0
   61.1856   29.2414   44.6637 H   0  0  0  0  0  0  0  0  0  0  0  0
   57.3507   33.4571   46.5489 H   0  0  0  0  0  0  0  0  0  0  0  0
   58.3706   33.7200   43.8658 H   0  0  0  0  0  0  0  0  0  0  0  0
   57.5456   34.9675   44.8990 H   0  0  0  0  0  0  0  0  0  0  0  0
   60.4992   36.4086   46.1029 H   0  0  0  0  0  0  0  0  0  0  0  0
   58.7021   36.2693   46.2530 H   0  0  0  0  0  0  0  0  0  0  0  0
   60.8639   34.7321   47.6084 H   0  0  0  0  0  0  0  0  0  0  0  0
   59.1684   35.0832   48.1248 H   0  0  0  0  0  0  0  0  0  0  0  0
   61.9518   32.2289   46.3573 H   0  0  0  0  0  0  0  0  0  0  0  0
   62.2852   33.6299   47.4627 H   0  0  0  0  0  0  0  0  0  0  0  0
   63.5083   30.8397   47.5645 H   0  0  0  0  0  0  0  0  0  0  0  0
   64.3404   32.3892   47.2463 H   0  0  0  0  0  0  0  0  0  0  0  0
   65.6077   31.5138   48.9118 H   0  0  0  0  0  0  0  0  0  0  0  0
   66.6931   33.4175   49.4915 H   0  0  0  0  0  0  0  0  0  0  0  0
   65.1371   34.1641   49.9019 H   0  0  0  0  0  0  0  0  0  0  0  0
   67.1455   33.6672   51.7552 H   0  0  0  0  0  0  0  0  0  0  0  0
   65.4383   33.7675   52.2098 H   0  0  0  0  0  0  0  0  0  0  0  0
   67.1745   31.3130   51.7227 H   0  0  0  0  0  0  0  0  0  0  0  0
   65.9598   31.5589   52.9841 H   0  0  0  0  0  0  0  0  0  0  0  0
   65.4380   30.0693   50.7514 H   0  0  0  0  0  0  0  0  0  0  0  0
   64.1565   31.0257   51.5090 H   0  0  0  0  0  0  0  0  0  0  0  0
   62.8746   30.2047   49.6146 H   0  0  0  0  0  0  0  0  0  0  0  0
   62.9291   31.3103   51.0365 H   0  0  0  0  0  0  0  0  0  0  0  0
   60.6249   30.8424   49.8827 H   0  0  0  0  0  0  0  0  0  0  0  0
   61.0924   32.5543   50.3133 H   0  0  0  0  0  0  0  0  0  0  0  0
  1  2  1  0
  2  3  2  0
  3  4  1  0
  4  5  1  0
  4  6  2  0
  6  7  1  0
  7  8  1  0
  8  9  1  0
  9 10  1  0
 10 11  1  0
 11 12  1  0
 12 13  1  0
 13 14  1  0
 14 15  2  0
 14 16  1  0
 16 17  1  0
 17 18  1  0
 18 19  1  0
 19 20  1  0
 20 21  1  0
 21 22  1  0
 22 23  1  0
 23 24  1  0
 19 25  1  0
 25 26  1  0
  7 27  2  0
 27  2  1  0
 13  8  1  0
 26 16  1  0
 24 20  1  0
  1 28  1  0
  1 29  1  0
  1 30  1  0
  3 31  1  0
  5 32  1  0
  5 33  1  0
  5 34  1  0
  8 35  1  1
  9 36  1  0
  9 37  1  0
 11 38  1  0
 11 39  1  0
 12 40  1  0
 12 41  1  0
 17 42  1  0
 17 43  1  0
 18 44  1  0
 18 45  1  0
 20 46  1  0
 21 47  1  0
 21 48  1  0
 22 49  1  0
 22 50  1  0
 23 51  1  0
 23 52  1  0
 24 53  1  0
 24 54  1  0
 25 55  1  0
 25 56  1  0
 26 57  1  0
 26 58  1  0
M  END
>  <UniqueID>  (78) 
73

>  <SMILES>  (78) 
Cc1cc(C)nc([C@@H]2COCCN2C(=O)N2CCN(C3CCCC3)CC2)n1

>  <Energy>  (78) 
78.79452132475218

>  <Genealogy>  (78) 
Cc1cc(C)nc([C@@H]2COCCN2C(=O)N2CCN(C3CCCC3)CC2)n1 (chirality)
Cc1cc(C)nc([C@@H]2COCCN2C(=O)N2CCN(C3CCCC3)CC2)n1 (3D coordinates assigned)
Cc1cc(C)nc([C@@H]2COCCN2C(=O)N2CCN(C3CCCC3)CC2)n1 (nonaromatic ring conformer: 78.79452132475218 kcal/mol)

>  <smiles>  (78) 
Cc1cc(C)nc(C2COCCN2C(=O)N2CCN(C3CCCC3)CC2)n1

>  <score_type>  (78) 
oracle

>  <origin>  (78) 
adg

>  <m_score__min__energy>  (78) 
-8.2799999999999994

>  <m_primary>  (78) 
energy

$$$$
78:0
     RDKit          3D

 22 23  0  0  0  0  0  0  0  0999 V2000
   57.0050   28.5910   42.6620 O   0  0  0  0  0  0  0  0  0  0  0  0
   57.6550   29.0690   43.9530 S   0  0  0  0  0  0  0  0  0  0  0  0
   58.2820   30.6260   43.5250 N   0  0  0  0  0  0  0  0  0  0  0  0
   57.4890   31.5140   44.0020 C   0  0  0  0  0  0  0  0  0  0  0  0
   57.7670   32.9830   43.8980 C   0  0  0  0  0  0  0  0  0  0  0  0
   58.3160   33.4970   45.2000 C   0  0  0  0  0  0  0  0  0  0  0  0
   57.9990   32.8530   46.4070 C   0  0  0  0  0  0  0  0  0  0  0  0
   58.5380   33.3120   47.6130 C   0  0  0  0  0  0  0  0  0  0  0  0
   59.4030   34.4090   47.6210 C   0  0  0  0  0  0  0  0  0  0  0  0
   59.7330   35.0470   46.4220 C   0  0  0  0  0  0  0  0  0  0  0  0
   59.1970   34.5920   45.2140 C   0  0  0  0  0  0  0  0  0  0  0  0
   56.3890   30.9930   44.7440 N   0  0  0  0  0  0  0  0  0  0  0  0
   56.3210   29.6360   44.8710 O   0  0  0  0  0  0  0  0  0  0  0  0
   59.1760   30.8140   43.0200 H   0  0  0  0  0  0  0  0  0  0  0  0
   58.5016   33.1588   43.0984 H   0  0  0  0  0  0  0  0  0  0  0  0
   56.8304   33.5119   43.6677 H   0  0  0  0  0  0  0  0  0  0  0  0
   57.3242   31.9843   46.4038 H   0  0  0  0  0  0  0  0  0  0  0  0
   58.2805   32.8086   48.5566 H   0  0  0  0  0  0  0  0  0  0  0  0
   59.8243   34.7705   48.5706 H   0  0  0  0  0  0  0  0  0  0  0  0
   60.4161   35.9092   46.4291 H   0  0  0  0  0  0  0  0  0  0  0  0
   59.4654   35.0922   44.2718 H   0  0  0  0  0  0  0  0  0  0  0  0
   55.7070   31.6130   45.2340 H   0  0  0  0  0  0  0  0  0  0  0  0
  1  2  2  0
  2  3  1  0
  3  4  2  0
  4  5  1  0
  5  6  1  0
  6  7  2  0
  7  8  1  0
  8  9  2  0
  9 10  1  0
 10 11  2  0
  4 12  1  0
 12 13  1  0
  2 13  1  1
 11  6  1  0
  3 14  1  0
  5 15  1  0
  5 16  1  0
  7 17  1  0
  8 18  1  0
  9 19  1  0
 10 20  1  0
 11 21  1  0
 12 22  1  0
M  CHG  1   3   1
M  END
>  <UniqueID>  (79) 
74

>  <SMILES>  (79) 
O=[S@]1[NH+]=C(Cc2ccccc2)NO1

>  <Energy>  (79) 
39.737924711563835

>  <Genealogy>  (79) 
O=S1[NH+]=C(Cc2ccccc2)NO1 (protonated)
O=[S@]1[NH+]=C(Cc2ccccc2)NO1 (chirality)
O=[S@]1[NH+]=C(Cc2ccccc2)NO1 (3D coordinates assigned)
O=[S@]1[NH+]=C(Cc2ccccc2)NO1 (nonaromatic ring conformer: 39.737924711563835 kcal/mol)

>  <smiles>  (79) 
O=S1N=C(Cc2ccccc2)NO1

>  <score_type>  (79) 
oracle

>  <origin>  (79) 
adg

>  <m_score__min__energy>  (79) 
-4.8399999999999999

>  <m_primary>  (79) 
energy

$$$$
79:0
     RDKit          3D

 54 57  0  0  0  0  0  0  0  0999 V2000
   55.3930   31.6400   52.0780 C   0  0  0  0  0  0  0  0  0  0  0  0
   54.9990   30.4950   52.6560 C   0  0  0  0  0  0  0  0  0  0  0  0
   53.6840   30.1420   53.0110 C   0  0  0  0  0  0  0  0  0  0  0  0
   52.5070   30.7730   52.8260 C   0  0  0  0  0  0  0  0  0  0  0  0
   51.8190   30.9660   51.5420 C   0  0  0  0  0  0  0  0  0  0  0  0
   52.0350   30.2000   50.4590 N   0  0  0  0  0  0  0  0  0  0  0  0
   51.3210   30.8170   49.4930 C   0  0  0  0  0  0  0  0  0  0  0  0
   51.2570   30.3810   48.3140 O   0  0  0  0  0  0  0  0  0  0  0  0
   50.6900   31.9440   49.8860 N   0  0  0  0  0  0  0  0  0  0  0  0
   51.0290   32.0340   51.1810 C   0  0  0  0  0  0  0  0  0  0  0  0
   50.6450   33.0820   52.0100 O   0  0  0  0  0  0  0  0  0  0  0  0
   53.7660   28.8960   53.6040 C   0  0  0  0  0  0  0  0  0  0  0  0
   55.0860   28.5080   53.5470 C   0  0  0  0  0  0  0  0  0  0  0  0
   55.5860   27.1750   54.0170 C   0  0  0  0  0  0  0  0  0  0  0  0
   55.8490   29.4910   53.0140 N   0  0  0  0  0  0  0  0  0  0  0  0
   57.2900   29.4450   52.9050 C   0  0  0  0  0  0  0  0  0  0  0  0
   57.7910   28.9800   51.8430 O   0  0  0  0  0  0  0  0  0  0  0  0
   58.1600   29.9630   53.9620 N   0  0  0  0  0  0  0  0  0  0  0  0
   57.9230   31.3970   54.2820 C   0  0  0  0  0  0  0  0  0  0  0  0
   58.6780   32.3820   53.3620 C   0  0  0  0  0  0  0  0  0  0  0  0
   59.2840   31.7000   52.2160 N   0  0  0  0  0  0  0  0  0  0  0  0
   59.3640   32.3770   50.9470 C   0  0  0  0  0  0  0  0  0  0  0  0
   58.4830   32.0360   49.9080 C   0  0  0  0  0  0  0  0  0  0  0  0
   58.5520   32.6890   48.6770 C   0  0  0  0  0  0  0  0  0  0  0  0
   59.4980   33.6920   48.4700 C   0  0  0  0  0  0  0  0  0  0  0  0
   60.3770   34.0480   49.4950 C   0  0  0  0  0  0  0  0  0  0  0  0
   60.3150   33.4000   50.7450 C   0  0  0  0  0  0  0  0  0  0  0  0
   61.1620   33.7560   51.8060 O   0  0  0  0  0  0  0  0  0  0  0  0
   62.5790   33.6170   51.7920 C   0  0  0  0  0  0  0  0  0  0  0  0
   60.0870   30.4940   52.4520 C   0  0  0  0  0  0  0  0  0  0  0  0
   59.5950   29.7300   53.6920 C   0  0  0  0  0  0  0  0  0  0  0  0
   56.4562   31.8020   51.8470 H   0  0  0  0  0  0  0  0  0  0  0  0
   54.6528   32.4166   51.8352 H   0  0  0  0  0  0  0  0  0  0  0  0
   52.0152   31.1820   53.7209 H   0  0  0  0  0  0  0  0  0  0  0  0
   52.9341   28.3228   54.0391 H   0  0  0  0  0  0  0  0  0  0  0  0
   55.5941   27.1534   55.1168 H   0  0  0  0  0  0  0  0  0  0  0  0
   54.9244   26.3814   53.6395 H   0  0  0  0  0  0  0  0  0  0  0  0
   56.6063   27.0122   53.6395 H   0  0  0  0  0  0  0  0  0  0  0  0
   57.9230   29.4440   54.8350 H   0  0  0  0  0  0  0  0  0  0  0  0
   56.8452   31.5974   54.1920 H   0  0  0  0  0  0  0  0  0  0  0  0
   58.3022   31.5612   55.3014 H   0  0  0  0  0  0  0  0  0  0  0  0
   57.9698   33.1383   52.9926 H   0  0  0  0  0  0  0  0  0  0  0  0
   59.4839   32.8480   53.9480 H   0  0  0  0  0  0  0  0  0  0  0  0
   57.7324   31.2476   50.0660 H   0  0  0  0  0  0  0  0  0  0  0  0
   57.8591   32.4121   47.8687 H   0  0  0  0  0  0  0  0  0  0  0  0
   59.5521   34.2037   47.4978 H   0  0  0  0  0  0  0  0  0  0  0  0
   61.1224   34.8391   49.3257 H   0  0  0  0  0  0  0  0  0  0  0  0
   62.9540   33.5802   52.8254 H   0  0  0  0  0  0  0  0  0  0  0  0
   62.8511   32.6878   51.2699 H   0  0  0  0  0  0  0  0  0  0  0  0
   63.0265   34.4756   51.2699 H   0  0  0  0  0  0  0  0  0  0  0  0
   60.0131   29.8365   51.5732 H   0  0  0  0  0  0  0  0  0  0  0  0
   61.1300   30.7989   52.6229 H   0  0  0  0  0  0  0  0  0  0  0  0
   59.7544   28.6536   53.5306 H   0  0  0  0  0  0  0  0  0  0  0  0
   60.1642   30.0947   54.5597 H   0  0  0  0  0  0  0  0  0  0  0  0
  1  2  2  0
  2  3  1  0
  3  4  2  3
  4  5  1  0
  5  6  1  0
  6  7  1  0
  7  8  2  0
  7  9  1  0
  9 10  1  0
 10 11  1  0
  3 12  1  0
 12 13  2  0
 13 14  1  0
 13 15  1  0
 15 16  1  0
 16 17  2  0
 16 18  1  0
 18 19  1  0
 19 20  1  0
 20 21  1  0
 21 22  1  0
 22 23  2  0
 23 24  1  0
 24 25  2  0
 25 26  1  0
 26 27  2  0
 27 28  1  0
 28 29  1  0
 21 30  1  0
 30 31  1  0
 15  2  1  0
 31 18  1  0
 10  5  2  0
 27 22  1  0
  1 32  1  0
  1 33  1  0
  4 34  1  0
 12 35  1  0
 14 36  1  0
 14 37  1  0
 14 38  1  0
 18 39  1  0
 19 40  1  0
 19 41  1  0
 20 42  1  0
 20 43  1  0
 23 44  1  0
 24 45  1  0
 25 46  1  0
 26 47  1  0
 29 48  1  0
 29 49  1  0
 29 50  1  0
 30 51  1  0
 30 52  1  0
 31 53  1  0
 31 54  1  0
M  CHG  4   6  -1   9  -1  11  -1  18   1
M  END
>  <UniqueID>  (80) 
75

>  <SMILES>  (80) 
C=c1c(=Cc2[n-]c(=O)[n-]c2[O-])cc(C)n1C(=O)[NH+]1CCN(c2ccccc2OC)CC1

>  <Energy>  (80) 
149.1544104268078

>  <Genealogy>  (80) 
C=c1c(=Cc2[n-]c(=O)[n-]c2[O-])cc(C)n1C(=O)[NH+]1CCN(c2ccccc2OC)CC1 (protonated)
C=c1c(=Cc2[n-]c(=O)[n-]c2[O-])cc(C)n1C(=O)[NH+]1CCN(c2ccccc2OC)CC1 (3D coordinates assigned)
C=c1c(=Cc2[n-]c(=O)[n-]c2[O-])cc(C)n1C(=O)[NH+]1CCN(c2ccccc2OC)CC1 (nonaromatic ring conformer: 149.1544104268078 kcal/mol)

>  <smiles>  (80) 
C=c1c(=Cc2[nH]c(=O)[nH]c2O)cc(C)n1C(=O)N1CCN(c2ccccc2OC)CC1

>  <score_type>  (80) 
oracle

>  <origin>  (80) 
adg

>  <m_score__min__energy>  (80) 
-15.35

>  <m_primary>  (80) 
energy

$$$$
80:0
     RDKit          3D

 46 49  0  0  0  0  0  0  0  0999 V2000
   52.9220   25.1410   45.2440 O   0  0  0  0  0  0  0  0  0  0  0  0
   54.1110   25.1090   45.6590 C   0  0  0  0  0  0  0  0  0  0  0  0
   54.8360   26.3270   45.8640 N   0  0  0  0  0  0  0  0  0  0  0  0
   56.1830   26.3820   46.4180 C   0  0  0  0  0  0  0  0  0  0  0  0
   57.0420   27.3120   45.6120 C   0  0  0  0  0  0  0  0  0  0  0  0
   58.2520   26.8750   45.0520 C   0  0  0  0  0  0  0  0  0  0  0  0
   59.0210   27.7650   44.3000 C   0  0  0  0  0  0  0  0  0  0  0  0
   58.5800   29.0760   44.1140 C   0  0  0  0  0  0  0  0  0  0  0  0
   57.3710   29.4810   44.6900 C   0  0  0  0  0  0  0  0  0  0  0  0
   56.7870   31.1580   44.4800 S   0  0  0  0  0  0  0  0  0  0  0  0
   57.8090   31.7720   45.8220 C   0  0  0  0  0  0  0  0  0  0  0  0
   58.1670   33.0420   46.0320 C   0  0  0  0  0  0  0  0  0  0  0  0
   57.8210   34.1780   45.1540 C   0  0  0  0  0  0  0  0  0  0  0  0
   56.6170   34.4530   44.9160 O   0  0  0  0  0  0  0  0  0  0  0  0
   58.8190   34.9190   44.5380 O   0  0  0  0  0  0  0  0  0  0  0  0
   59.0270   33.0980   47.1720 N   0  0  0  0  0  0  0  0  0  0  0  0
   59.5520   34.1840   47.8150 C   0  0  0  0  0  0  0  0  0  0  0  0
   59.3070   35.3580   47.4330 O   0  0  0  0  0  0  0  0  0  0  0  0
   60.3570   33.9740   48.9400 C   0  0  0  0  0  0  0  0  0  0  0  0
   60.5710   32.6710   49.3990 C   0  0  0  0  0  0  0  0  0  0  0  0
   59.9730   31.6030   48.7270 C   0  0  0  0  0  0  0  0  0  0  0  0
   60.1290   30.4220   49.1370 O   0  0  0  0  0  0  0  0  0  0  0  0
   59.2130   31.8650   47.6290 N   0  0  0  0  0  0  0  0  0  0  0  0
   58.4830   30.8920   46.8290 C   0  0  0  0  0  0  0  0  0  0  0  0
   56.6360   28.5950   45.4150 N   0  0  0  0  0  0  0  0  0  0  0  0
   54.7050   23.8470   45.9700 N   0  0  0  0  0  0  0  0  0  0  0  0
   55.7810   23.2370   45.2440 C   0  0  0  0  0  0  0  0  0  0  0  0
   55.6270   23.0100   43.8680 C   0  0  0  0  0  0  0  0  0  0  0  0
   54.4650   23.3360   43.2490 F   0  0  0  0  0  0  0  0  0  0  0  0
   56.6640   22.4350   43.1290 C   0  0  0  0  0  0  0  0  0  0  0  0
   57.8660   22.0970   43.7530 C   0  0  0  0  0  0  0  0  0  0  0  0
   58.0420   22.3500   45.1150 C   0  0  0  0  0  0  0  0  0  0  0  0
   57.0110   22.9290   45.8610 C   0  0  0  0  0  0  0  0  0  0  0  0
   57.2370   23.2370   47.1600 F   0  0  0  0  0  0  0  0  0  0  0  0
   56.1336   26.7423   47.4562 H   0  0  0  0  0  0  0  0  0  0  0  0
   56.6227   25.3741   46.3885 H   0  0  0  0  0  0  0  0  0  0  0  0
   58.5918   25.8399   45.2042 H   0  0  0  0  0  0  0  0  0  0  0  0
   59.9713   27.4341   43.8556 H   0  0  0  0  0  0  0  0  0  0  0  0
   59.1771   29.7839   43.5204 H   0  0  0  0  0  0  0  0  0  0  0  0
   60.8178   34.8273   49.4591 H   0  0  0  0  0  0  0  0  0  0  0  0
   61.2038   32.4890   50.2802 H   0  0  0  0  0  0  0  0  0  0  0  0
   59.1655   30.1781   46.3447 H   0  0  0  0  0  0  0  0  0  0  0  0
   57.7899   30.2659   47.4100 H   0  0  0  0  0  0  0  0  0  0  0  0
   56.5329   22.2482   42.0529 H   0  0  0  0  0  0  0  0  0  0  0  0
   58.6751   21.6310   43.1715 H   0  0  0  0  0  0  0  0  0  0  0  0
   58.9942   22.0931   45.6022 H   0  0  0  0  0  0  0  0  0  0  0  0
  1  2  2  0
  2  3  1  0
  3  4  1  0
  4  5  1  0
  5  6  2  0
  6  7  1  0
  7  8  2  0
  8  9  1  0
  9 10  1  0
 10 11  1  0
 11 12  2  0
 12 13  1  0
 13 14  2  0
 13 15  1  0
 12 16  1  0
 16 17  1  0
 17 18  2  0
 17 19  1  0
 19 20  2  0
 20 21  1  0
 21 22  2  0
 21 23  1  0
 23 24  1  0
  9 25  2  0
  2 26  1  0
 26 27  1  0
 27 28  2  0
 28 29  1  0
 28 30  1  0
 30 31  2  0
 31 32  1  0
 32 33  2  0
 33 34  1  0
 25  5  1  0
 33 27  1  0
 24 11  1  0
 23 16  1  0
  4 35  1  0
  4 36  1  0
  6 37  1  0
  7 38  1  0
  8 39  1  0
 19 40  1  0
 20 41  1  0
 24 42  1  0
 24 43  1  0
 30 44  1  0
 31 45  1  0
 32 46  1  0
M  CHG  3   3  -1  15  -1  26  -1
M  END
>  <UniqueID>  (81) 
76

>  <SMILES>  (81) 
O=C([N-]Cc1cccc(SC2=C(C(=O)[O-])n3c(=O)ccc(=O)n3C2)n1)[N-]c1c(F)cccc1F

>  <Energy>  (81) 
78.38909412739162

>  <Genealogy>  (81) 
O=C([N-]Cc1cccc(SC2=C(C(=O)[O-])n3c(=O)ccc(=O)n3C2)n1)[N-]c1c(F)cccc1F (protonated)
O=C([N-]Cc1cccc(SC2=C(C(=O)[O-])n3c(=O)ccc(=O)n3C2)n1)[N-]c1c(F)cccc1F (3D coordinates assigned)
O=C([N-]Cc1cccc(SC2=C(C(=O)[O-])n3c(=O)ccc(=O)n3C2)n1)[N-]c1c(F)cccc1F (nonaromatic ring conformer: 78.38909412739162 kcal/mol)

>  <smiles>  (81) 
O=C(NCc1cccc(SC2=C(C(=O)O)n3c(=O)ccc(=O)n3C2)n1)Nc1c(F)cccc1F

>  <score_type>  (81) 
oracle

>  <origin>  (81) 
adg

>  <m_score__min__energy>  (81) 
-14.279999999999999

>  <m_primary>  (81) 
energy

$$$$
81:0
     RDKit          3D

 38 40  0  0  0  0  0  0  0  0999 V2000
   54.7780   27.4610   46.3390 H   0  0  0  0  0  0  0  0  0  0  0  0
   55.1260   26.6700   45.8130 O   0  0  0  0  0  0  0  0  0  0  0  0
   55.9930   25.7540   46.3990 C   0  0  0  0  0  0  0  0  0  0  0  0
   55.5880   24.7080   47.1370 N   0  0  0  0  0  0  0  0  0  0  0  0
   56.7470   24.0780   47.4220 C   0  0  0  0  0  0  0  0  0  0  0  0
   56.7960   23.0240   48.1080 O   0  0  0  0  0  0  0  0  0  0  0  0
   57.8510   24.6620   46.9060 N   0  0  0  0  0  0  0  0  0  0  0  0
   57.3640   25.7440   46.2740 C   0  0  0  0  0  0  0  0  0  0  0  0
   58.2000   26.6680   45.4910 C   0  0  0  0  0  0  0  0  0  0  0  0
   59.1635   26.9807   45.9197 H   0  0  0  0  0  0  0  0  0  0  0  0
   57.8610   27.1520   44.2890 C   0  0  0  0  0  0  0  0  0  0  0  0
   57.2812   26.5058   43.6135 H   0  0  0  0  0  0  0  0  0  0  0  0
   58.2300   28.5340   43.8100 C   0  0  0  0  0  0  0  0  0  0  0  0
   58.9746   28.4433   43.0055 H   0  0  0  0  0  0  0  0  0  0  0  0
   58.6340   29.0926   44.6672 H   0  0  0  0  0  0  0  0  0  0  0  0
   57.0150   29.3040   43.2750 C   0  0  0  0  0  0  0  0  0  0  0  0
   56.3552   28.6054   42.7396 H   0  0  0  0  0  0  0  0  0  0  0  0
   57.3742   30.0944   42.5996 H   0  0  0  0  0  0  0  0  0  0  0  0
   56.2410   29.9500   44.3950 C   0  0  0  0  0  0  0  0  0  0  0  0
   55.1330   29.4580   44.7340 O   0  0  0  0  0  0  0  0  0  0  0  0
   56.6620   31.1800   44.9970 N   0  0  0  0  0  0  0  0  0  0  0  0
   57.8150   31.3560   45.8330 C   0  0  0  0  0  0  0  0  0  0  0  0
   58.2670   30.3000   46.6410 C   0  0  0  0  0  0  0  0  0  0  0  0
   57.7490   29.3301   46.6105 H   0  0  0  0  0  0  0  0  0  0  0  0
   59.3670   30.4700   47.4820 C   0  0  0  0  0  0  0  0  0  0  0  0
   59.7185   29.6306   48.0999 H   0  0  0  0  0  0  0  0  0  0  0  0
   60.0230   31.6990   47.5430 C   0  0  0  0  0  0  0  0  0  0  0  0
   60.8933   31.8224   48.2043 H   0  0  0  0  0  0  0  0  0  0  0  0
   59.5780   32.7810   46.7640 C   0  0  0  0  0  0  0  0  0  0  0  0
   60.2280   34.0300   46.8250 C   0  0  0  0  0  0  0  0  0  0  0  0
   61.3270   34.2250   47.6560 O   0  0  0  0  0  0  0  0  0  0  0  0
   59.7740   35.0940   46.0420 C   0  0  0  0  0  0  0  0  0  0  0  0
   60.2842   36.0672   46.0927 H   0  0  0  0  0  0  0  0  0  0  0  0
   58.6770   34.9290   45.1960 C   0  0  0  0  0  0  0  0  0  0  0  0
   58.3277   35.7722   44.5820 H   0  0  0  0  0  0  0  0  0  0  0  0
   58.0210   33.7000   45.1250 C   0  0  0  0  0  0  0  0  0  0  0  0
   57.1566   33.5799   44.4553 H   0  0  0  0  0  0  0  0  0  0  0  0
   58.4580   32.6120   45.9050 C   0  0  0  0  0  0  0  0  0  0  0  0
  1  2  1  0
  2  3  1  0
  3  4  1  0
  4  5  1  0
  5  6  2  0
  5  7  1  0
  7  8  1  0
  8  9  1  0
  9 10  1  0
  9 11  2  0
 11 12  1  0
 11 13  1  0
 13 14  1  0
 13 15  1  0
 13 16  1  0
 16 17  1  0
 16 18  1  0
 16 19  1  0
 19 20  2  0
 19 21  1  0
 21 22  1  0
 22 23  2  0
 23 24  1  0
 23 25  1  0
 25 26  1  0
 25 27  2  0
 27 28  1  0
 27 29  1  0
 29 30  2  0
 30 31  1  0
 30 32  1  0
 32 33  1  0
 32 34  2  0
 34 35  1  0
 34 36  1  0
 36 37  1  0
 36 38  2  0
  8  3  2  0
 38 22  1  0
 38 29  1  0
M  CHG  4   4  -1   7  -1  21  -1  31  -1
M  END
>  <UniqueID>  (82) 
77

>  <SMILES>  (82) 
O=C(CC/C=C\c1[n-]c(=O)[n-]c1O)[N-]c1cccc2c([O-])cccc12

>  <Energy>  (82) 
81.53041307487709

>  <Genealogy>  (82) 
O=C(CCC=Cc1[n-]c(=O)[n-]c1O)[N-]c1cccc2c([O-])cccc12 (protonated)
O=C(CC/C=C\c1[n-]c(=O)[n-]c1O)[N-]c1cccc2c([O-])cccc12 (cis-trans isomerization)
O=C(CC/C=C\c1[n-]c(=O)[n-]c1O)[N-]c1cccc2c([O-])cccc12 (3D coordinates assigned)
O=C(CC/C=C\c1[n-]c(=O)[n-]c1O)[N-]c1cccc2c([O-])cccc12 (optimized conformer: 81.53041307487709 kcal/mol)

>  <smiles>  (82) 
O=C(CCC=Cc1[nH]c(=O)[nH]c1O)Nc1cccc2c(O)cccc12

>  <score_type>  (82) 
oracle

>  <origin>  (82) 
adg

>  <m_score__min__energy>  (82) 
-15.359999999999999

>  <m_primary>  (82) 
energy

$$$$
82:0
     RDKit          3D

 54 56  0  0  0  0  0  0  0  0999 V2000
   55.8770   22.4020   48.3130 C   0  0  0  0  0  0  0  0  0  0  0  0
   57.0250   22.6050   47.4940 O   0  0  0  0  0  0  0  0  0  0  0  0
   57.3230   23.8040   46.8330 C   0  0  0  0  0  0  0  0  0  0  0  0
   57.5330   23.8680   45.4420 C   0  0  0  0  0  0  0  0  0  0  0  0
   57.8430   25.0880   44.8330 C   0  0  0  0  0  0  0  0  0  0  0  0
   57.9340   26.2630   45.5930 C   0  0  0  0  0  0  0  0  0  0  0  0
   58.2920   27.4950   44.9380 N   0  0  0  0  0  0  0  0  0  0  0  0
   57.4190   28.6240   44.7840 C   0  0  0  0  0  0  0  0  0  0  0  0
   56.1790   28.5020   44.9750 O   0  0  0  0  0  0  0  0  0  0  0  0
   57.9630   29.8840   44.3590 N   0  0  0  0  0  0  0  0  0  0  0  0
   57.2380   31.1240   44.3940 C   0  0  0  0  0  0  0  0  0  0  0  0
   56.0710   31.1730   44.8660 O   0  0  0  0  0  0  0  0  0  0  0  0
   57.8820   32.3890   43.8840 C   0  0  0  0  0  0  0  0  0  0  0  0
   58.5970   33.1560   44.9270 N   0  0  0  0  0  0  0  0  0  0  0  0
   58.6060   34.6060   44.6840 C   0  0  0  0  0  0  0  0  0  0  0  0
   59.6160   35.3000   45.6230 C   0  0  0  0  0  0  0  0  0  0  0  0
   59.9790   34.4840   46.8080 N   0  0  0  0  0  0  0  0  0  0  0  0
   61.1520   33.6120   46.5650 C   0  0  0  0  0  0  0  0  0  0  0  0
   61.1460   32.4320   47.5030 C   0  0  0  0  0  0  0  0  0  0  0  0
   61.5240   32.6030   48.8460 C   0  0  0  0  0  0  0  0  0  0  0  0
   61.5130   31.5110   49.7210 C   0  0  0  0  0  0  0  0  0  0  0  0
   61.1300   30.2480   49.2630 C   0  0  0  0  0  0  0  0  0  0  0  0
   60.7500   30.0710   47.9280 C   0  0  0  0  0  0  0  0  0  0  0  0
   60.2670   28.4840   47.3540 Cl  0  0  0  0  0  0  0  0  0  0  0  0
   60.7540   31.1610   47.0500 C   0  0  0  0  0  0  0  0  0  0  0  0
   58.8100   33.7520   47.3440 C   0  0  0  0  0  0  0  0  0  0  0  0
   58.1350   32.8430   46.2930 C   0  0  0  0  0  0  0  0  0  0  0  0
   57.7380   26.1930   46.9840 C   0  0  0  0  0  0  0  0  0  0  0  0
   57.4270   24.9740   47.5940 C   0  0  0  0  0  0  0  0  0  0  0  0
   56.1686   22.4536   49.3724 H   0  0  0  0  0  0  0  0  0  0  0  0
   55.1316   23.1823   48.0995 H   0  0  0  0  0  0  0  0  0  0  0  0
   55.4444   21.4134   48.0995 H   0  0  0  0  0  0  0  0  0  0  0  0
   57.4529   22.9556   44.8327 H   0  0  0  0  0  0  0  0  0  0  0  0
   58.0171   25.1264   43.7475 H   0  0  0  0  0  0  0  0  0  0  0  0
   59.2550   27.5690   44.5360 H   0  0  0  0  0  0  0  0  0  0  0  0
   58.9610   29.9040   44.0500 H   0  0  0  0  0  0  0  0  0  0  0  0
   58.6017   32.1191   43.0971 H   0  0  0  0  0  0  0  0  0  0  0  0
   57.0724   33.0331   43.5104 H   0  0  0  0  0  0  0  0  0  0  0  0
   58.8914   34.7971   43.6390 H   0  0  0  0  0  0  0  0  0  0  0  0
   57.6009   35.0080   44.8795 H   0  0  0  0  0  0  0  0  0  0  0  0
   60.5323   35.5128   45.0528 H   0  0  0  0  0  0  0  0  0  0  0  0
   59.1347   36.2162   45.9959 H   0  0  0  0  0  0  0  0  0  0  0  0
   61.1218   33.2479   45.5274 H   0  0  0  0  0  0  0  0  0  0  0  0
   62.0675   34.1962   46.7396 H   0  0  0  0  0  0  0  0  0  0  0  0
   61.8286   33.5956   49.2093 H   0  0  0  0  0  0  0  0  0  0  0  0
   61.8067   31.6475   50.7722 H   0  0  0  0  0  0  0  0  0  0  0  0
   61.1272   29.3913   49.9530 H   0  0  0  0  0  0  0  0  0  0  0  0
   60.4494   31.0222   46.0022 H   0  0  0  0  0  0  0  0  0  0  0  0
   59.1431   33.1273   48.1859 H   0  0  0  0  0  0  0  0  0  0  0  0
   58.0677   34.5007   47.6577 H   0  0  0  0  0  0  0  0  0  0  0  0
   58.3768   31.7942   46.5201 H   0  0  0  0  0  0  0  0  0  0  0  0
   57.0493   33.0142   46.3366 H   0  0  0  0  0  0  0  0  0  0  0  0
   57.8299   27.1027   47.5956 H   0  0  0  0  0  0  0  0  0  0  0  0
   57.2627   24.9342   48.6809 H   0  0  0  0  0  0  0  0  0  0  0  0
  1  2  1  0
  2  3  1  0
  3  4  2  0
  4  5  1  0
  5  6  2  0
  6  7  1  0
  7  8  1  0
  8  9  2  0
  8 10  1  0
 10 11  1  0
 11 12  2  0
 11 13  1  0
 13 14  1  0
 14 15  1  0
 15 16  1  0
 16 17  1  0
 17 18  1  0
 18 19  1  0
 19 20  2  0
 20 21  1  0
 21 22  2  0
 22 23  1  0
 23 24  1  0
 23 25  2  0
 17 26  1  0
 26 27  1  0
  6 28  1  0
 28 29  2  0
 29  3  1  0
 27 14  1  0
 25 19  1  0
  1 30  1  0
  1 31  1  0
  1 32  1  0
  4 33  1  0
  5 34  1  0
  7 35  1  0
 10 36  1  0
 13 37  1  0
 13 38  1  0
 15 39  1  0
 15 40  1  0
 16 41  1  0
 16 42  1  0
 18 43  1  0
 18 44  1  0
 20 45  1  0
 21 46  1  0
 22 47  1  0
 25 48  1  0
 26 49  1  0
 26 50  1  0
 27 51  1  0
 27 52  1  0
 28 53  1  0
 29 54  1  0
M  END
>  <UniqueID>  (83) 
78

>  <SMILES>  (83) 
COc1ccc(NC(=O)NC(=O)CN2CCN(Cc3cccc(Cl)c3)CC2)cc1

>  <Energy>  (83) 
71.04745755405025

>  <Genealogy>  (83) 
COc1ccc(NC(=O)NC(=O)CN2CCN(Cc3cccc(Cl)c3)CC2)cc1 (3D coordinates assigned)
COc1ccc(NC(=O)NC(=O)CN2CCN(Cc3cccc(Cl)c3)CC2)cc1 (nonaromatic ring conformer: 71.04745755405025 kcal/mol)

>  <smiles>  (83) 
COc1ccc(NC(=O)NC(=O)CN2CCN(Cc3cccc(Cl)c3)CC2)cc1

>  <score_type>  (83) 
oracle

>  <origin>  (83) 
adg

>  <m_score__min__energy>  (83) 
-8.9700000000000006

>  <m_primary>  (83) 
energy

$$$$
83:0
     RDKit          3D

 47 49  0  0  1  0  0  0  0  0999 V2000
   60.7430   26.3890   47.6300 C   0  0  0  0  0  0  0  0  0  0  0  0
   59.7370   26.0570   46.8860 C   0  0  0  0  0  0  0  0  0  0  0  0
   59.8170   24.7440   46.2810 N   0  0  0  0  0  0  0  0  0  0  0  0
   58.7420   24.1920   45.5420 C   0  0  0  0  0  0  0  0  0  0  0  0
   58.9340   22.9200   45.0020 C   0  0  0  0  0  0  0  0  0  0  0  0
   60.1240   22.2170   45.1810 O   0  0  0  0  0  0  0  0  0  0  0  0
   57.9560   22.2910   44.2660 C   0  0  0  0  0  0  0  0  0  0  0  0
   56.7840   22.9570   44.0770 C   0  0  0  0  0  0  0  0  0  0  0  0
   56.5950   24.2320   44.6180 C   0  0  0  0  0  0  0  0  0  0  0  0
   57.5500   24.8810   45.3550 C   0  0  0  0  0  0  0  0  0  0  0  0
   57.3530   26.2340   45.9240 C   0  0  0  0  0  0  0  0  0  0  0  0
   56.2200   26.8460   45.7630 C   0  0  0  0  0  0  0  0  0  0  0  0
   56.0690   28.1540   45.2400 O   0  0  0  0  0  0  0  0  0  0  0  0
   54.9600   26.3160   46.0800 O   0  0  0  0  0  0  0  0  0  0  0  0
   58.5020   26.7840   46.6890 C   0  0  0  0  0  0  0  0  0  0  0  0
   58.5030   28.0650   47.0170 C   0  0  0  0  0  0  0  0  0  0  0  0
   59.4700   29.0860   46.5640 C   0  0  0  0  0  0  0  0  0  0  0  0
   58.6090   30.3870   46.6430 C   0  0  0  0  0  0  0  0  0  0  0  0
   57.7140   30.5540   45.7810 O   0  0  0  0  0  0  0  0  0  0  0  0
   58.8890   31.2960   47.6800 N   0  0  0  0  0  0  0  0  0  0  0  0
   58.1950   32.5350   47.8950 C   0  0  0  0  0  0  0  0  0  0  0  0
   58.4770   33.5110   46.8170 C   0  0  0  0  0  0  0  0  0  0  0  0
   59.5410   34.3570   46.9770 C   0  0  0  0  0  0  0  0  0  0  0  0
   59.9140   35.3160   46.0600 C   0  0  0  0  0  0  0  0  0  0  0  0
   59.1680   35.4320   44.9050 C   0  0  0  0  0  0  0  0  0  0  0  0
   58.0940   34.5810   44.7410 C   0  0  0  0  0  0  0  0  0  0  0  0
   57.7330   33.6260   45.6660 C   0  0  0  0  0  0  0  0  0  0  0  0
   60.7597   27.3705   48.1263 H   0  0  0  0  0  0  0  0  0  0  0  0
   61.5811   25.6896   47.7659 H   0  0  0  0  0  0  0  0  0  0  0  0
   60.6750   24.1540   46.3670 H   0  0  0  0  0  0  0  0  0  0  0  0
   60.8390   22.1450   44.4990 H   0  0  0  0  0  0  0  0  0  0  0  0
   58.1155   21.2870   43.8459 H   0  0  0  0  0  0  0  0  0  0  0  0
   55.9784   22.4877   43.4933 H   0  0  0  0  0  0  0  0  0  0  0  0
   55.6340   24.7380   44.4437 H   0  0  0  0  0  0  0  0  0  0  0  0
   56.4330   28.9500   45.7290 H   0  0  0  0  0  0  0  0  0  0  0  0
   54.3860   26.7030   46.7940 H   0  0  0  0  0  0  0  0  0  0  0  0
   57.7050   28.4039   47.6940 H   0  0  0  0  0  0  0  0  0  0  0  0
   60.3412   29.1394   47.2335 H   0  0  0  0  0  0  0  0  0  0  0  0
   59.8962   28.8899   45.5691 H   0  0  0  0  0  0  0  0  0  0  0  0
   59.6690   31.0370   48.3350 H   0  0  0  0  0  0  0  0  0  0  0  0
   57.1132   32.3380   47.9244 H   0  0  0  0  0  0  0  0  0  0  0  0
   58.5418   32.9634   48.8470 H   0  0  0  0  0  0  0  0  0  0  0  0
   60.1370   34.2656   47.8970 H   0  0  0  0  0  0  0  0  0  0  0  0
   60.7800   35.9690   46.2433 H   0  0  0  0  0  0  0  0  0  0  0  0
   59.4215   36.1795   44.1388 H   0  0  0  0  0  0  0  0  0  0  0  0
   57.4944   34.6699   43.8231 H   0  0  0  0  0  0  0  0  0  0  0  0
   56.8684   32.9697   45.4879 H   0  0  0  0  0  0  0  0  0  0  0  0
  1  2  2  0
  2  3  1  0
  3  4  1  0
  4  5  2  0
  5  6  1  0
  5  7  1  0
  7  8  2  0
  8  9  1  0
  9 10  2  0
 10 11  1  0
 11 12  2  0
 12 13  1  0
 12 14  1  0
 11 15  1  0
 15 16  2  0
 16 17  1  0
 17 18  1  0
 18 19  2  0
 18 20  1  0
 20 21  1  0
 21 22  1  0
 22 23  2  0
 23 24  1  0
 24 25  2  0
 25 26  1  0
 26 27  2  0
 15  2  1  0
 27 22  1  0
 10  4  1  0
  1 28  1  0
  1 29  1  0
  3 30  1  0
  6 31  1  0
  7 32  1  0
  8 33  1  0
  9 34  1  0
 13 35  1  0
 14 36  1  0
 16 37  1  0
 17 38  1  0
 17 39  1  0
 20 40  1  0
 21 41  1  0
 21 42  1  0
 23 43  1  0
 24 44  1  0
 25 45  1  0
 26 46  1  0
 27 47  1  0
M  END
>  <smiles>  (84) 
C=C1Nc2c(O)cccc2C(=C(O)O)C1=CCC(=O)NCc1ccccc1

>  <score_type>  (84) 
oracle

>  <origin>  (84) 
adg

>  <m_score__min__energy>  (84) 
-9.9499999999999993

>  <m_primary>  (84) 
energy

$$$$
84:0
     RDKit          3D

 38 40  0  0  0  0  0  0  0  0999 V2000
   55.2570   26.6170   46.1270 N   0  0  0  0  0  0  0  0  0  0  0  0
   56.8770   26.0290   46.2470 S   0  0  0  0  0  0  0  0  0  0  0  0
   57.1860   25.1880   45.0400 O   0  0  0  0  0  0  0  0  0  0  0  0
   57.0220   25.1850   47.4840 O   0  0  0  0  0  0  0  0  0  0  0  0
   57.9900   27.3900   46.3220 C   0  0  0  0  0  0  0  0  0  0  0  0
   58.1420   28.1100   47.5190 C   0  0  0  0  0  0  0  0  0  0  0  0
   59.0100   29.2050   47.5760 C   0  0  0  0  0  0  0  0  0  0  0  0
   59.7290   29.6020   46.4320 C   0  0  0  0  0  0  0  0  0  0  0  0
   60.6130   30.8200   46.4850 C   0  0  0  0  0  0  0  0  0  0  0  0
   59.8440   32.0430   46.1970 N   0  0  0  0  0  0  0  0  0  0  0  0
   58.4050   31.9590   46.2090 C   0  0  0  0  0  0  0  0  0  0  0  0
   57.7730   32.2910   47.2470 O   0  0  0  0  0  0  0  0  0  0  0  0
   57.6520   31.4460   45.0460 C   0  0  0  0  0  0  0  0  0  0  0  0
   57.9050   31.9070   43.7440 C   0  0  0  0  0  0  0  0  0  0  0  0
   57.1620   31.3680   42.6910 C   0  0  0  0  0  0  0  0  0  0  0  0
   57.3650   31.7580   41.5110 O   0  0  0  0  0  0  0  0  0  0  0  0
   56.2200   30.4200   42.9420 N   0  0  0  0  0  0  0  0  0  0  0  0
   55.9750   29.9920   44.2100 C   0  0  0  0  0  0  0  0  0  0  0  0
   55.0950   29.1140   44.4230 O   0  0  0  0  0  0  0  0  0  0  0  0
   56.6840   30.5070   45.2460 N   0  0  0  0  0  0  0  0  0  0  0  0
   60.4350   33.3980   46.2230 C   0  0  0  0  0  0  0  0  0  0  0  0
   59.9280   34.1920   47.4250 C   0  0  0  0  0  0  0  0  0  0  0  0
   59.5200   34.6050   46.0140 C   0  0  0  0  0  0  0  0  0  0  0  0
   59.6000   28.8620   45.2440 C   0  0  0  0  0  0  0  0  0  0  0  0
   58.7360   27.7620   45.1900 C   0  0  0  0  0  0  0  0  0  0  0  0
   55.1560   27.1080   45.1990 H   0  0  0  0  0  0  0  0  0  0  0  0
   57.5765   27.8114   48.4140 H   0  0  0  0  0  0  0  0  0  0  0  0
   59.1317   29.7587   48.5187 H   0  0  0  0  0  0  0  0  0  0  0  0
   61.0544   30.9007   47.4893 H   0  0  0  0  0  0  0  0  0  0  0  0
   61.4013   30.7144   45.7251 H   0  0  0  0  0  0  0  0  0  0  0  0
   58.6704   32.6747   43.5576 H   0  0  0  0  0  0  0  0  0  0  0  0
   61.3948   33.1145   45.7664 H   0  0  0  0  0  0  0  0  0  0  0  0
   59.1855   33.7473   48.1040 H   0  0  0  0  0  0  0  0  0  0  0  0
   60.4031   34.7006   48.2769 H   0  0  0  0  0  0  0  0  0  0  0  0
   58.4837   34.4576   45.6757 H   0  0  0  0  0  0  0  0  0  0  0  0
   59.5793   35.5338   45.4276 H   0  0  0  0  0  0  0  0  0  0  0  0
   60.1797   29.1481   44.3540 H   0  0  0  0  0  0  0  0  0  0  0  0
   58.6403   27.1861   44.2577 H   0  0  0  0  0  0  0  0  0  0  0  0
  1  2  1  0
  2  3  2  0
  2  4  2  0
  2  5  1  0
  5  6  2  0
  6  7  1  0
  7  8  2  0
  8  9  1  0
  9 10  1  0
 10 11  1  0
 11 12  2  0
 11 13  1  0
 13 14  2  0
 14 15  1  0
 15 16  2  0
 15 17  1  0
 17 18  1  0
 18 19  2  0
 18 20  1  0
 10 21  1  0
 21 22  1  0
 22 23  1  0
  8 24  1  0
 24 25  2  0
 25  5  1  0
 20 13  1  0
 23 21  1  0
  1 26  1  0
  6 27  1  0
  7 28  1  0
  9 29  1  0
  9 30  1  0
 14 31  1  0
 21 32  1  0
 22 33  1  0
 22 34  1  0
 23 35  1  0
 23 36  1  0
 24 37  1  0
 25 38  1  0
M  CHG  3   1  -1  17  -1  20  -1
M  END
>  <UniqueID>  (85) 
79

>  <SMILES>  (85) 
[NH-]S(=O)(=O)c1ccc(CN(C(=O)c2cc(=O)[n-]c(=O)[n-]2)C2CC2)cc1

>  <Energy>  (85) 
312.3725322945818

>  <Genealogy>  (85) 
[NH-]S(=O)(=O)c1ccc(CN(C(=O)c2cc(=O)[n-]c(=O)[n-]2)C2CC2)cc1 (protonated)
[NH-]S(=O)(=O)c1ccc(CN(C(=O)c2cc(=O)[n-]c(=O)[n-]2)C2CC2)cc1 (3D coordinates assigned)
[NH-]S(=O)(=O)c1ccc(CN(C(=O)c2cc(=O)[n-]c(=O)[n-]2)C2CC2)cc1 (nonaromatic ring conformer: 312.3725322945818 kcal/mol)

>  <smiles>  (85) 
NS(=O)(=O)c1ccc(CN(C(=O)c2cc(=O)[nH]c(=O)[nH]2)C2CC2)cc1

>  <score_type>  (85) 
oracle

>  <origin>  (85) 
adg

>  <m_score__min__energy>  (85) 
-14.32

>  <m_primary>  (85) 
energy

$$$$
85:0
     RDKit          3D

 56 59  0  0  0  0  0  0  0  0999 V2000
   56.6320   23.4970   42.9890 C   0  0  0  0  0  0  0  0  0  0  0  0
   55.5880   24.0540   43.9540 C   0  0  0  0  0  0  0  0  0  0  0  0
   55.9460   23.7260   45.3840 C   0  0  0  0  0  0  0  0  0  0  0  0
   56.3140   22.4090   45.7190 C   0  0  0  0  0  0  0  0  0  0  0  0
   56.6650   22.0830   47.0310 C   0  0  0  0  0  0  0  0  0  0  0  0
   56.6460   23.0630   48.0240 C   0  0  0  0  0  0  0  0  0  0  0  0
   56.2580   24.3700   47.7120 C   0  0  0  0  0  0  0  0  0  0  0  0
   55.8810   24.7100   46.3980 C   0  0  0  0  0  0  0  0  0  0  0  0
   55.5020   26.0530   46.0530 N   0  0  0  0  0  0  0  0  0  0  0  0
   56.3680   27.1050   45.6100 C   0  0  0  0  0  0  0  0  0  0  0  0
   55.8960   28.2120   45.2320 O   0  0  0  0  0  0  0  0  0  0  0  0
   57.8420   26.8530   45.4870 C   0  0  0  0  0  0  0  0  0  0  0  0
   58.6050   28.0410   45.9070 N   0  0  0  0  0  0  0  0  0  0  0  0
   59.2820   28.7610   44.9670 C   0  0  0  0  0  0  0  0  0  0  0  0
   60.0270   29.8340   45.3260 N   0  0  0  0  0  0  0  0  0  0  0  0
   60.1430   30.2250   46.6190 C   0  0  0  0  0  0  0  0  0  0  0  0
   60.9360   31.4390   46.9100 C   0  0  0  0  0  0  0  0  0  0  0  0
   62.2660   31.3400   47.3610 C   0  0  0  0  0  0  0  0  0  0  0  0
   63.0160   32.4940   47.6040 C   0  0  0  0  0  0  0  0  0  0  0  0
   62.4410   33.7540   47.4180 C   0  0  0  0  0  0  0  0  0  0  0  0
   61.1120   33.8610   46.9950 C   0  0  0  0  0  0  0  0  0  0  0  0
   60.3580   32.7080   46.7500 C   0  0  0  0  0  0  0  0  0  0  0  0
   59.4950   29.4770   47.6280 C   0  0  0  0  0  0  0  0  0  0  0  0
   59.6950   29.7750   49.0670 C   0  0  0  0  0  0  0  0  0  0  0  0
   60.8200   29.5650   49.6040 O   0  0  0  0  0  0  0  0  0  0  0  0
   58.6310   30.3800   49.8170 N   0  0  0  0  0  0  0  0  0  0  0  0
   58.6910   31.6230   50.5300 C   0  0  0  0  0  0  0  0  0  0  0  0
   59.6740   32.5900   50.2410 C   0  0  0  0  0  0  0  0  0  0  0  0
   59.7230   33.7800   50.9710 C   0  0  0  0  0  0  0  0  0  0  0  0
   58.8000   34.0170   51.9940 C   0  0  0  0  0  0  0  0  0  0  0  0
   57.8410   33.0500   52.3070 C   0  0  0  0  0  0  0  0  0  0  0  0
   57.7950   31.8480   51.5920 C   0  0  0  0  0  0  0  0  0  0  0  0
   56.5800   30.6480   52.0130 Cl  0  0  0  0  0  0  0  0  0  0  0  0
   58.7100   28.3760   47.2310 C   0  0  0  0  0  0  0  0  0  0  0  0
   58.1230   27.6780   48.1060 O   0  0  0  0  0  0  0  0  0  0  0  0
   57.4610   23.0547   43.5610 H   0  0  0  0  0  0  0  0  0  0  0  0
   56.1708   22.7251   42.3554 H   0  0  0  0  0  0  0  0  0  0  0  0
   57.0163   24.3099   42.3554 H   0  0  0  0  0  0  0  0  0  0  0  0
   55.5364   25.1466   43.8373 H   0  0  0  0  0  0  0  0  0  0  0  0
   54.6152   23.5962   43.7216 H   0  0  0  0  0  0  0  0  0  0  0  0
   56.3252   21.6309   44.9416 H   0  0  0  0  0  0  0  0  0  0  0  0
   56.9568   21.0525   47.2817 H   0  0  0  0  0  0  0  0  0  0  0  0
   56.9366   22.8073   49.0537 H   0  0  0  0  0  0  0  0  0  0  0  0
   56.2471   25.1385   48.4989 H   0  0  0  0  0  0  0  0  0  0  0  0
   58.1182   26.0010   46.1256 H   0  0  0  0  0  0  0  0  0  0  0  0
   58.0787   26.6313   44.4359 H   0  0  0  0  0  0  0  0  0  0  0  0
   59.2226   28.4679   43.9084 H   0  0  0  0  0  0  0  0  0  0  0  0
   62.7169   30.3498   47.5229 H   0  0  0  0  0  0  0  0  0  0  0  0
   64.0595   32.4104   47.9419 H   0  0  0  0  0  0  0  0  0  0  0  0
   63.0336   34.6618   47.6043 H   0  0  0  0  0  0  0  0  0  0  0  0
   60.6588   34.8534   46.8547 H   0  0  0  0  0  0  0  0  0  0  0  0
   59.3090   32.7964   46.4310 H   0  0  0  0  0  0  0  0  0  0  0  0
   60.4044   32.4076   49.4389 H   0  0  0  0  0  0  0  0  0  0  0  0
   60.4906   34.5333   50.7401 H   0  0  0  0  0  0  0  0  0  0  0  0
   58.8287   34.9643   52.5523 H   0  0  0  0  0  0  0  0  0  0  0  0
   57.1204   33.2341   53.1175 H   0  0  0  0  0  0  0  0  0  0  0  0
  1  2  1  0
  2  3  1  0
  3  4  2  0
  4  5  1  0
  5  6  2  0
  6  7  1  0
  7  8  2  0
  8  9  1  0
  9 10  1  0
 10 11  2  0
 10 12  1  0
 12 13  1  0
 13 14  1  0
 14 15  2  0
 15 16  1  0
 16 17  1  0
 17 18  2  0
 18 19  1  0
 19 20  2  0
 20 21  1  0
 21 22  2  0
 16 23  2  0
 23 24  1  0
 24 25  2  0
 24 26  1  0
 26 27  1  0
 27 28  2  0
 28 29  1  0
 29 30  2  0
 30 31  1  0
 31 32  2  0
 32 33  1  0
 23 34  1  0
 34 35  2  0
  8  3  1  0
 34 13  1  0
 22 17  1  0
 32 27  1  0
  1 36  1  0
  1 37  1  0
  1 38  1  0
  2 39  1  0
  2 40  1  0
  4 41  1  0
  5 42  1  0
  6 43  1  0
  7 44  1  0
 12 45  1  0
 12 46  1  0
 14 47  1  0
 18 48  1  0
 19 49  1  0
 20 50  1  0
 21 51  1  0
 22 52  1  0
 28 53  1  0
 29 54  1  0
 30 55  1  0
 31 56  1  0
M  CHG  2   9  -1  26  -1
M  END
>  <UniqueID>  (86) 
80

>  <SMILES>  (86) 
CCc1ccccc1[N-]C(=O)Cn1cnc(-c2ccccc2)c(C(=O)[N-]c2ccccc2Cl)c1=O

>  <Energy>  (86) 
77.09585918877178

>  <Genealogy>  (86) 
CCc1ccccc1[N-]C(=O)Cn1cnc(-c2ccccc2)c(C(=O)[N-]c2ccccc2Cl)c1=O (protonated)
CCc1ccccc1[N-]C(=O)Cn1cnc(-c2ccccc2)c(C(=O)[N-]c2ccccc2Cl)c1=O (3D coordinates assigned)
CCc1ccccc1[N-]C(=O)Cn1cnc(-c2ccccc2)c(C(=O)[N-]c2ccccc2Cl)c1=O (optimized conformer: 77.09585918877178 kcal/mol)

>  <smiles>  (86) 
CCc1ccccc1NC(=O)Cn1cnc(-c2ccccc2)c(C(=O)Nc2ccccc2Cl)c1=O

>  <score_type>  (86) 
oracle

>  <origin>  (86) 
adg

>  <m_score__min__energy>  (86) 
-12.31

>  <m_primary>  (86) 
energy

$$$$
86:0
     RDKit          3D

 54 55  0  0  0  0  0  0  0  0999 V2000
   57.5253   29.7423   42.5423 H   0  0  0  0  0  0  0  0  0  0  0  0
   57.1030   30.0750   43.5020 C   0  0  0  0  0  0  0  0  0  0  0  0
   56.6610   29.0370   44.4640 C   0  0  0  0  0  0  0  0  0  0  0  0
   55.6820   29.3170   45.2120 O   0  0  0  0  0  0  0  0  0  0  0  0
   57.3160   27.7430   44.5830 N   0  0  2  0  0  0  0  0  0  0  0  0
   56.7220   27.0320   44.0930 H   0  0  0  0  0  0  0  0  0  0  0  0
   57.3840   27.2720   45.9870 C   0  0  0  0  0  0  0  0  0  0  0  0
   58.3070   26.6887   46.1204 H   0  0  0  0  0  0  0  0  0  0  0  0
   57.3709   28.1567   46.6405 H   0  0  0  0  0  0  0  0  0  0  0  0
   56.2070   26.4080   46.3560 C   0  0  0  0  0  0  0  0  0  0  0  0
   55.0520   26.7110   45.9550 O   0  0  0  0  0  0  0  0  0  0  0  0
   56.3830   25.2920   47.1650 O   0  0  0  0  0  0  0  0  0  0  0  0
   58.6470   27.7050   43.9110 C   0  0  0  0  0  0  0  0  0  0  0  0
   59.0195   26.6714   43.9649 H   0  0  0  0  0  0  0  0  0  0  0  0
   58.4688   28.0730   42.8898 H   0  0  0  0  0  0  0  0  0  0  0  0
   59.7380   28.6280   44.4940 C   0  0  0  0  0  0  0  0  0  0  0  0
   60.5577   28.7059   43.7646 H   0  0  0  0  0  0  0  0  0  0  0  0
   59.2712   29.6040   44.6931 H   0  0  0  0  0  0  0  0  0  0  0  0
   60.4050   28.0310   46.0370 Cl  0  0  0  0  0  0  0  0  0  0  0  0
   57.0200   31.3950   43.7290 C   0  0  0  0  0  0  0  0  0  0  0  0
   56.4163   31.9965   43.0335 H   0  0  0  0  0  0  0  0  0  0  0  0
   57.6870   32.1020   44.8550 C   0  0  0  0  0  0  0  0  0  0  0  0
   57.9130   33.4770   44.7260 C   0  0  0  0  0  0  0  0  0  0  0  0
   57.6067   33.9942   43.8047 H   0  0  0  0  0  0  0  0  0  0  0  0
   58.5210   34.1980   45.7500 C   0  0  0  0  0  0  0  0  0  0  0  0
   58.6968   35.2764   45.6226 H   0  0  0  0  0  0  0  0  0  0  0  0
   58.9120   33.5720   46.9390 C   0  0  0  0  0  0  0  0  0  0  0  0
   59.6090   34.6120   48.2470 S   0  0  0  0  0  0  0  0  0  0  0  0
   61.3040   34.0240   48.0380 C   0  0  0  0  0  0  0  0  0  0  0  0
   61.8150   33.9880   46.7300 C   0  0  0  0  0  0  0  0  0  0  0  0
   61.2000   34.3588   45.8968 H   0  0  0  0  0  0  0  0  0  0  0  0
   63.0900   33.4890   46.4740 C   0  0  0  0  0  0  0  0  0  0  0  0
   63.4650   33.4439   45.4409 H   0  0  0  0  0  0  0  0  0  0  0  0
   63.8890   33.0480   47.5220 C   0  0  0  0  0  0  0  0  0  0  0  0
   64.8889   32.6382   47.3166 H   0  0  0  0  0  0  0  0  0  0  0  0
   63.4230   33.1250   48.8340 C   0  0  0  0  0  0  0  0  0  0  0  0
   64.0735   32.7962   49.6578 H   0  0  0  0  0  0  0  0  0  0  0  0
   62.1320   33.6170   49.1250 C   0  0  0  0  0  0  0  0  0  0  0  0
   61.7770   33.8170   50.6010 C   0  0  0  0  0  0  0  0  0  0  0  0
   61.3674   34.8356   50.6699 H   0  0  0  0  0  0  0  0  0  0  0  0
   60.6870   32.8400   51.0580 C   0  0  0  0  0  0  0  0  0  0  0  0
   60.6565   32.8127   52.1572 H   0  0  0  0  0  0  0  0  0  0  0  0
   59.7118   33.1720   50.6723 H   0  0  0  0  0  0  0  0  0  0  0  0
   60.9108   31.8344   50.6723 H   0  0  0  0  0  0  0  0  0  0  0  0
   62.9850   33.8100   51.5400 C   0  0  0  0  0  0  0  0  0  0  0  0
   62.6380   33.8120   52.5838 H   0  0  0  0  0  0  0  0  0  0  0  0
   63.5875   32.9083   51.3556 H   0  0  0  0  0  0  0  0  0  0  0  0
   63.5979   34.7046   51.3556 H   0  0  0  0  0  0  0  0  0  0  0  0
   58.7470   32.1650   47.0730 C   0  0  0  0  0  0  0  0  0  0  0  0
   59.2130   31.4290   48.2300 N   0  0  0  0  0  0  0  0  0  0  0  0
   60.1910   30.6600   48.1650 O   0  0  0  0  0  0  0  0  0  0  0  0
   58.5010   31.4680   49.4060 O   0  0  0  0  0  0  0  0  0  0  0  0
   58.1270   31.4530   46.0250 C   0  0  0  0  0  0  0  0  0  0  0  0
   57.9840   30.3668   46.1237 H   0  0  0  0  0  0  0  0  0  0  0  0
  1  2  1  0
  2  3  1  0
  3  4  2  0
  3  5  1  0
  5  6  1  6
  5  7  1  0
  7  8  1  0
  7  9  1  0
  7 10  1  0
 10 11  2  0
 10 12  1  0
  5 13  1  0
 13 14  1  0
 13 15  1  0
 13 16  1  0
 16 17  1  0
 16 18  1  0
 16 19  1  0
  2 20  2  0
 20 21  1  0
 20 22  1  0
 22 23  2  0
 23 24  1  0
 23 25  1  0
 25 26  1  0
 25 27  2  0
 27 28  1  0
 28 29  1  0
 29 30  2  0
 30 31  1  0
 30 32  1  0
 32 33  1  0
 32 34  2  0
 34 35  1  0
 34 36  1  0
 36 37  1  0
 36 38  2  0
 38 39  1  0
 39 40  1  0
 39 41  1  0
 41 42  1  0
 41 43  1  0
 41 44  1  0
 39 45  1  0
 45 46  1  0
 45 47  1  0
 45 48  1  0
 27 49  1  0
 49 50  1  0
 50 51  2  0
 50 52  1  0
 49 53  2  0
 53 54  1  0
 53 22  1  0
 38 29  1  0
M  CHG  4   5   1  12  -1  50   1  52  -1
M  END
>  <UniqueID>  (87) 
81

>  <SMILES>  (87) 
CC(C)c1ccccc1Sc1ccc(/C=C/C(=O)[N@@H+](CCCl)CC(=O)[O-])cc1[N+](=O)[O-]

>  <Energy>  (87) 
71.9143216192339

>  <Genealogy>  (87) 
CC(C)c1ccccc1Sc1ccc(C=CC(=O)[NH+](CCCl)CC(=O)[O-])cc1[N+](=O)[O-] (protonated)
CC(C)c1ccccc1Sc1ccc(C=CC(=O)[N@@H+](CCCl)CC(=O)[O-])cc1[N+](=O)[O-] (chirality)
CC(C)c1ccccc1Sc1ccc(/C=C/C(=O)[N@@H+](CCCl)CC(=O)[O-])cc1[N+](=O)[O-] (cis-trans isomerization)
CC(C)c1ccccc1Sc1ccc(/C=C/C(=O)[N@@H+](CCCl)CC(=O)[O-])cc1[N+](=O)[O-] (3D coordinates assigned)
CC(C)c1ccccc1Sc1ccc(/C=C/C(=O)[N@@H+](CCCl)CC(=O)[O-])cc1[N+](=O)[O-] (optimized conformer: 71.9143216192339 kcal/mol)

>  <smiles>  (87) 
CC(C)c1ccccc1Sc1ccc(C=CC(=O)N(CCCl)CC(=O)O)cc1[N+](=O)[O-]

>  <score_type>  (87) 
oracle

>  <origin>  (87) 
adg

>  <m_score__min__energy>  (87) 
-11.24

>  <m_primary>  (87) 
energy

$$$$
87:0
     RDKit          3D

 49 52  0  0  0  0  0  0  0  0999 V2000
   58.6610   31.0480   51.2140 N   0  0  0  0  0  0  0  0  0  0  0  0
   58.9890   30.8730   50.1190 C   0  0  0  0  0  0  0  0  0  0  0  0
   59.3980   30.6580   48.7540 C   0  0  0  0  0  0  0  0  0  0  0  0
   58.5070   30.9540   47.7140 C   0  0  0  0  0  0  0  0  0  0  0  0
   58.8950   30.7800   46.3790 C   0  0  0  0  0  0  0  0  0  0  0  0
   57.7920   31.1950   45.0700 S   0  0  0  0  0  0  0  0  0  0  0  0
   57.0690   32.4660   45.4200 O   0  0  0  0  0  0  0  0  0  0  0  0
   58.5500   31.4160   43.7920 O   0  0  0  0  0  0  0  0  0  0  0  0
   56.6340   29.9250   44.8470 N   0  0  0  0  0  0  0  0  0  0  0  0
   56.9200   28.6690   44.9810 C   0  0  0  0  0  0  0  0  0  0  0  0
   56.1380   27.7810   45.6330 N   0  0  0  0  0  0  0  0  0  0  0  0
   56.6820   26.5360   45.6180 C   0  0  0  0  0  0  0  0  0  0  0  0
   57.9000   26.4330   44.9530 C   0  0  0  0  0  0  0  0  0  0  0  0
   58.3070   27.9570   44.3620 S   0  0  0  0  0  0  0  0  0  0  0  0
   60.1770   30.2970   46.0880 C   0  0  0  0  0  0  0  0  0  0  0  0
   61.0640   29.9900   47.1220 C   0  0  0  0  0  0  0  0  0  0  0  0
   60.6910   30.1920   48.4630 C   0  0  0  0  0  0  0  0  0  0  0  0
   61.5800   29.9320   49.5200 O   0  0  0  0  0  0  0  0  0  0  0  0
   61.9290   30.8460   50.5240 C   0  0  0  0  0  0  0  0  0  0  0  0
   61.8830   30.4110   51.8540 C   0  0  0  0  0  0  0  0  0  0  0  0
   62.2560   31.2660   52.8940 C   0  0  0  0  0  0  0  0  0  0  0  0
   62.6680   32.5690   52.6150 C   0  0  0  0  0  0  0  0  0  0  0  0
   62.6900   33.0290   51.2960 C   0  0  0  0  0  0  0  0  0  0  0  0
   62.3050   32.1850   50.2400 C   0  0  0  0  0  0  0  0  0  0  0  0
   62.2700   32.7320   48.8630 C   0  0  0  0  0  0  0  0  0  0  0  0
   63.4230   32.7240   48.0610 C   0  0  0  0  0  0  0  0  0  0  0  0
   63.3930   33.2870   46.7820 C   0  0  0  0  0  0  0  0  0  0  0  0
   62.2140   33.8520   46.2910 C   0  0  0  0  0  0  0  0  0  0  0  0
   61.0540   33.8530   47.0770 C   0  0  0  0  0  0  0  0  0  0  0  0
   59.5700   34.5950   46.4900 S   0  0  0  0  0  0  0  0  0  0  0  0
   59.1720   33.9440   44.9400 N   0  0  0  0  0  0  0  0  0  0  0  0
   59.7660   36.0810   46.3790 O   0  0  0  0  0  0  0  0  0  0  0  0
   58.4400   34.3280   47.4450 O   0  0  0  0  0  0  0  0  0  0  0  0
   61.0840   33.2880   48.3580 C   0  0  0  0  0  0  0  0  0  0  0  0
   57.4979   31.3248   47.9468 H   0  0  0  0  0  0  0  0  0  0  0  0
   56.1955   25.6731   46.0963 H   0  0  0  0  0  0  0  0  0  0  0  0
   58.4943   25.5151   44.8338 H   0  0  0  0  0  0  0  0  0  0  0  0
   60.4863   30.1590   45.0414 H   0  0  0  0  0  0  0  0  0  0  0  0
   62.0603   29.5878   46.8863 H   0  0  0  0  0  0  0  0  0  0  0  0
   61.5504   29.3876   52.0820 H   0  0  0  0  0  0  0  0  0  0  0  0
   62.2247   30.9110   53.9347 H   0  0  0  0  0  0  0  0  0  0  0  0
   62.9759   33.2352   53.4344 H   0  0  0  0  0  0  0  0  0  0  0  0
   63.0110   34.0592   51.0823 H   0  0  0  0  0  0  0  0  0  0  0  0
   64.3520   32.2735   48.4404 H   0  0  0  0  0  0  0  0  0  0  0  0
   64.3006   33.2850   46.1605 H   0  0  0  0  0  0  0  0  0  0  0  0
   62.1960   34.2971   45.2852 H   0  0  0  0  0  0  0  0  0  0  0  0
   58.1780   34.2010   44.7490 H   0  0  0  0  0  0  0  0  0  0  0  0
   59.1970   32.9030   45.0290 H   0  0  0  0  0  0  0  0  0  0  0  0
   60.1719   33.2798   48.9728 H   0  0  0  0  0  0  0  0  0  0  0  0
  1  2  3  0
  2  3  1  0
  3  4  2  0
  4  5  1  0
  5  6  1  0
  6  7  2  0
  6  8  2  0
  6  9  1  0
  9 10  2  3
 10 11  1  0
 11 12  1  0
 12 13  2  0
 13 14  1  0
  5 15  2  0
 15 16  1  0
 16 17  2  0
 17 18  1  0
 18 19  1  0
 19 20  2  0
 20 21  1  0
 21 22  2  0
 22 23  1  0
 23 24  2  0
 24 25  1  0
 25 26  2  0
 26 27  1  0
 27 28  2  0
 28 29  1  0
 29 30  1  0
 30 31  1  0
 30 32  2  0
 30 33  2  0
 29 34  2  0
 17  3  1  0
 24 19  1  0
 34 25  1  0
 14 10  1  0
  4 35  1  0
 12 36  1  0
 13 37  1  0
 15 38  1  0
 16 39  1  0
 20 40  1  0
 21 41  1  0
 22 42  1  0
 23 43  1  0
 26 44  1  0
 27 45  1  0
 28 46  1  0
 31 47  1  0
 31 48  1  0
 34 49  1  0
M  CHG  1  11  -1
M  END
>  <UniqueID>  (88) 
82

>  <SMILES>  (88) 
N#Cc1cc(S(=O)(=O)N=c2[n-]ccs2)ccc1Oc1ccccc1-c1cccc(S(N)(=O)=O)c1

>  <Energy>  (88) 
91.41977032360073

>  <Genealogy>  (88) 
N#Cc1cc(S(=O)(=O)N=c2[n-]ccs2)ccc1Oc1ccccc1-c1cccc(S(N)(=O)=O)c1 (protonated)
N#Cc1cc(S(=O)(=O)N=c2[n-]ccs2)ccc1Oc1ccccc1-c1cccc(S(N)(=O)=O)c1 (3D coordinates assigned)
N#Cc1cc(S(=O)(=O)N=c2[n-]ccs2)ccc1Oc1ccccc1-c1cccc(S(N)(=O)=O)c1 (optimized conformer: 91.41977032360073 kcal/mol)

>  <smiles>  (88) 
N#Cc1cc(S(=O)(=O)N=c2[nH]ccs2)ccc1Oc1ccccc1-c1cccc(S(N)(=O)=O)c1

>  <score_type>  (88) 
oracle

>  <origin>  (88) 
adg

>  <m_score__min__energy>  (88) 
-12.33

>  <m_primary>  (88) 
energy

$$$$
88:0
     RDKit          3D

 40 42  0  0  0  0  0  0  0  0999 V2000
   56.7880   21.8670   42.6190 C   0  0  0  0  0  0  0  0  0  0  0  0
   55.9170   21.7850   43.7260 O   0  0  0  0  0  0  0  0  0  0  0  0
   56.4510   20.9220   44.7140 C   0  0  0  0  0  0  0  0  0  0  0  0
   57.0450   21.7190   45.8800 C   0  0  0  0  0  0  0  0  0  0  0  0
   57.1930   23.1290   45.5230 N   0  0  0  0  0  0  0  0  0  0  0  0
   57.4040   24.1570   46.5040 C   0  0  0  0  0  0  0  0  0  0  0  0
   57.3870   23.8700   47.7320 O   0  0  0  0  0  0  0  0  0  0  0  0
   57.6370   25.5550   46.0950 C   0  0  0  0  0  0  0  0  0  0  0  0
   56.6220   26.4950   45.8470 C   0  0  0  0  0  0  0  0  0  0  0  0
   57.1710   27.7160   45.4770 C   0  0  0  0  0  0  0  0  0  0  0  0
   58.5210   27.7490   45.4280 C   0  0  0  0  0  0  0  0  0  0  0  0
   59.1750   26.2610   45.8250 S   0  0  0  0  0  0  0  0  0  0  0  0
   58.9500   29.0400   44.9270 C   0  0  0  0  0  0  0  0  0  0  0  0
   60.1370   29.3920   44.6960 O   0  0  0  0  0  0  0  0  0  0  0  0
   57.7920   29.8550   44.6910 N   0  0  0  0  0  0  0  0  0  0  0  0
   57.7430   31.0690   43.8800 C   0  0  0  0  0  0  0  0  0  0  0  0
   58.0790   32.2690   44.7240 C   0  0  0  0  0  0  0  0  0  0  0  0
   57.8960   32.2310   46.1160 C   0  0  0  0  0  0  0  0  0  0  0  0
   58.1700   33.3600   46.8940 C   0  0  0  0  0  0  0  0  0  0  0  0
   58.6200   34.5360   46.2870 C   0  0  0  0  0  0  0  0  0  0  0  0
   58.7940   34.5860   44.9010 C   0  0  0  0  0  0  0  0  0  0  0  0
   58.5210   33.4590   44.1200 C   0  0  0  0  0  0  0  0  0  0  0  0
   56.6790   29.0050   45.0140 C   0  0  0  0  0  0  0  0  0  0  0  0
   55.4700   29.3280   44.8770 O   0  0  0  0  0  0  0  0  0  0  0  0
   57.8244   21.9646   42.9744 H   0  0  0  0  0  0  0  0  0  0  0  0
   56.6935   20.9560   42.0098 H   0  0  0  0  0  0  0  0  0  0  0  0
   56.5251   22.7444   42.0098 H   0  0  0  0  0  0  0  0  0  0  0  0
   55.6493   20.2721   45.0946 H   0  0  0  0  0  0  0  0  0  0  0  0
   57.2517   20.3215   44.2575 H   0  0  0  0  0  0  0  0  0  0  0  0
   56.3780   21.6355   46.7507 H   0  0  0  0  0  0  0  0  0  0  0  0
   58.0378   21.3093   46.1176 H   0  0  0  0  0  0  0  0  0  0  0  0
   57.1180   23.3840   44.5140 H   0  0  0  0  0  0  0  0  0  0  0  0
   55.5443   26.2922   45.9337 H   0  0  0  0  0  0  0  0  0  0  0  0
   58.4697   30.9872   43.0583 H   0  0  0  0  0  0  0  0  0  0  0  0
   56.7285   31.1886   43.4720 H   0  0  0  0  0  0  0  0  0  0  0  0
   57.5356   31.3092   46.5961 H   0  0  0  0  0  0  0  0  0  0  0  0
   58.0313   33.3227   47.9846 H   0  0  0  0  0  0  0  0  0  0  0  0
   58.8374   35.4228   46.9005 H   0  0  0  0  0  0  0  0  0  0  0  0
   59.1460   35.5128   44.4244 H   0  0  0  0  0  0  0  0  0  0  0  0
   58.6526   33.5036   43.0288 H   0  0  0  0  0  0  0  0  0  0  0  0
  1  2  1  0
  2  3  1  0
  3  4  1  0
  4  5  1  0
  5  6  1  0
  6  7  2  0
  6  8  1  0
  8  9  2  0
  9 10  1  0
 10 11  2  0
 11 12  1  0
 11 13  1  0
 13 14  2  0
 13 15  1  0
 15 16  1  0
 16 17  1  0
 17 18  2  0
 18 19  1  0
 19 20  2  0
 20 21  1  0
 21 22  2  0
 15 23  1  0
 23 24  2  0
 12  8  1  0
 22 17  1  0
 23 10  1  0
  1 25  1  0
  1 26  1  0
  1 27  1  0
  3 28  1  0
  3 29  1  0
  4 30  1  0
  4 31  1  0
  5 32  1  0
  9 33  1  0
 16 34  1  0
 16 35  1  0
 18 36  1  0
 19 37  1  0
 20 38  1  0
 21 39  1  0
 22 40  1  0
M  END
>  <UniqueID>  (89) 
83

>  <SMILES>  (89) 
COCCNC(=O)c1cc2c(s1)C(=O)N(Cc1ccccc1)C2=O

>  <Energy>  (89) 
109.7399115416786

>  <Genealogy>  (89) 
COCCNC(=O)c1cc2c(s1)C(=O)N(Cc1ccccc1)C2=O (3D coordinates assigned)
COCCNC(=O)c1cc2c(s1)C(=O)N(Cc1ccccc1)C2=O (nonaromatic ring conformer: 109.7399115416786 kcal/mol)

>  <smiles>  (89) 
COCCNC(=O)c1cc2c(s1)C(=O)N(Cc1ccccc1)C2=O

>  <score_type>  (89) 
oracle

>  <origin>  (89) 
adg

>  <m_score__min__energy>  (89) 
-7.5700000000000003

>  <m_primary>  (89) 
energy

$$$$
89:0
     RDKit          3D

 46 48  0  0  0  0  0  0  0  0999 V2000
   60.3830   29.0400   50.5730 C   0  0  0  0  0  0  0  0  0  0  0  0
   60.1110   28.2290   49.4350 O   0  0  0  0  0  0  0  0  0  0  0  0
   59.3890   28.6570   48.3100 C   0  0  0  0  0  0  0  0  0  0  0  0
   59.2300   30.0120   47.9920 C   0  0  0  0  0  0  0  0  0  0  0  0
   58.5280   30.3860   46.8470 C   0  0  0  0  0  0  0  0  0  0  0  0
   57.9570   29.4250   45.9980 C   0  0  0  0  0  0  0  0  0  0  0  0
   57.1780   30.0350   44.5190 S   0  0  0  0  0  0  0  0  0  0  0  0
   56.6700   28.8540   43.7380 O   0  0  0  0  0  0  0  0  0  0  0  0
   55.9910   30.9070   44.8230 O   0  0  0  0  0  0  0  0  0  0  0  0
   58.3200   30.8870   43.5220 N   0  0  0  0  0  0  0  0  0  0  0  0
   57.7590   32.1650   43.0740 C   0  0  0  0  0  0  0  0  0  0  0  0
   58.5450   33.3390   43.6650 C   0  0  0  0  0  0  0  0  0  0  0  0
   58.3240   33.4690   45.1440 C   0  0  0  0  0  0  0  0  0  0  0  0
   57.0940   33.5580   45.7910 C   0  0  0  0  0  0  0  0  0  0  0  0
   57.2720   33.7340   47.1200 N   0  0  0  0  0  0  0  0  0  0  0  0
   58.6020   33.7680   47.3170 C   0  0  0  0  0  0  0  0  0  0  0  0
   59.2720   33.9510   48.5260 C   0  0  0  0  0  0  0  0  0  0  0  0
   60.6780   33.9740   48.5000 C   0  0  0  0  0  0  0  0  0  0  0  0
   61.3750   33.8200   47.2810 C   0  0  0  0  0  0  0  0  0  0  0  0
   60.6720   33.6370   46.0760 C   0  0  0  0  0  0  0  0  0  0  0  0
   59.2780   33.6140   46.1330 C   0  0  0  0  0  0  0  0  0  0  0  0
   58.0480   28.0460   46.3520 C   0  0  0  0  0  0  0  0  0  0  0  0
   57.4330   26.9310   45.5240 C   0  0  0  0  0  0  0  0  0  0  0  0
   56.2580   26.2970   46.2090 C   0  0  0  0  0  0  0  0  0  0  0  0
   55.0920   26.7140   45.9810 O   0  0  0  0  0  0  0  0  0  0  0  0
   56.4540   25.2580   47.1090 O   0  0  0  0  0  0  0  0  0  0  0  0
   58.8080   27.6910   47.4860 C   0  0  0  0  0  0  0  0  0  0  0  0
   60.1894   28.4629   51.4892 H   0  0  0  0  0  0  0  0  0  0  0  0
   61.4364   29.3563   50.5545 H   0  0  0  0  0  0  0  0  0  0  0  0
   59.7333   29.9275   50.5545 H   0  0  0  0  0  0  0  0  0  0  0  0
   59.6603   30.7833   48.6477 H   0  0  0  0  0  0  0  0  0  0  0  0
   58.4196   31.4535   46.6045 H   0  0  0  0  0  0  0  0  0  0  0  0
   58.4760   30.2850   42.6810 H   0  0  0  0  0  0  0  0  0  0  0  0
   57.8065   32.2150   41.9762 H   0  0  0  0  0  0  0  0  0  0  0  0
   56.7152   32.2315   43.4147 H   0  0  0  0  0  0  0  0  0  0  0  0
   59.6172   33.1800   43.4777 H   0  0  0  0  0  0  0  0  0  0  0  0
   58.1927   34.2633   43.1839 H   0  0  0  0  0  0  0  0  0  0  0  0
   56.1160   33.4942   45.2917 H   0  0  0  0  0  0  0  0  0  0  0  0
   56.5250   33.8380   47.8420 H   0  0  0  0  0  0  0  0  0  0  0  0
   58.7191   34.0734   49.4691 H   0  0  0  0  0  0  0  0  0  0  0  0
   61.2391   34.1129   49.4359 H   0  0  0  0  0  0  0  0  0  0  0  0
   62.4747   33.8433   47.2738 H   0  0  0  0  0  0  0  0  0  0  0  0
   61.2037   33.5161   45.1207 H   0  0  0  0  0  0  0  0  0  0  0  0
   57.0998   27.3470   44.5618 H   0  0  0  0  0  0  0  0  0  0  0  0
   58.1993   26.1549   45.3812 H   0  0  0  0  0  0  0  0  0  0  0  0
   58.9464   26.6267   47.7272 H   0  0  0  0  0  0  0  0  0  0  0  0
  1  2  1  0
  2  3  1  0
  3  4  2  0
  4  5  1  0
  5  6  2  0
  6  7  1  0
  7  8  2  0
  7  9  2  0
  7 10  1  0
 10 11  1  0
 11 12  1  0
 12 13  1  0
 13 14  2  0
 14 15  1  0
 15 16  1  0
 16 17  2  0
 17 18  1  0
 18 19  2  0
 19 20  1  0
 20 21  2  0
  6 22  1  0
 22 23  1  0
 23 24  1  0
 24 25  2  0
 24 26  1  0
 22 27  2  0
 27  3  1  0
 21 13  1  0
 21 16  1  0
  1 28  1  0
  1 29  1  0
  1 30  1  0
  4 31  1  0
  5 32  1  0
 10 33  1  0
 11 34  1  0
 11 35  1  0
 12 36  1  0
 12 37  1  0
 14 38  1  0
 15 39  1  0
 17 40  1  0
 18 41  1  0
 19 42  1  0
 20 43  1  0
 23 44  1  0
 23 45  1  0
 27 46  1  0
M  CHG  1  26  -1
M  END
>  <UniqueID>  (90) 
84

>  <SMILES>  (90) 
COc1ccc(S(=O)(=O)NCCc2c[nH]c3ccccc23)c(CC(=O)[O-])c1

>  <Energy>  (90) 
80.44467025780328

>  <Genealogy>  (90) 
COc1ccc(S(=O)(=O)NCCc2c[nH]c3ccccc23)c(CC(=O)[O-])c1 (protonated)
COc1ccc(S(=O)(=O)NCCc2c[nH]c3ccccc23)c(CC(=O)[O-])c1 (3D coordinates assigned)
COc1ccc(S(=O)(=O)NCCc2c[nH]c3ccccc23)c(CC(=O)[O-])c1 (optimized conformer: 80.44467025780328 kcal/mol)

>  <smiles>  (90) 
COc1ccc(S(=O)(=O)NCCc2c[nH]c3ccccc23)c(CC(=O)O)c1

>  <score_type>  (90) 
oracle

>  <origin>  (90) 
adg

>  <m_score__min__energy>  (90) 
-12.119999999999999

>  <m_primary>  (90) 
energy

$$$$
