0:0
     RDKit          3D

 59 62  0  0  0  0  0  0  0  0999 V2000
   58.5187   32.5466   43.2302 H   0  0  0  0  0  0  0  0  0  0  0  0
   57.9560   32.4070   44.1650 C   0  0  0  0  0  0  0  0  0  0  0  0
   57.3880   31.0690   44.4250 C   0  0  0  0  0  0  0  0  0  0  0  0
   56.1960   30.9900   44.8280 O   0  0  0  0  0  0  0  0  0  0  0  0
   58.1220   29.8760   44.1150 N   0  0  0  0  0  0  0  0  0  0  0  0
   58.8360   29.9300   43.3540 H   0  0  0  0  0  0  0  0  0  0  0  0
   57.8320   28.5890   44.6860 C   0  0  0  0  0  0  0  0  0  0  0  0
   57.2790   28.4640   45.9730 C   0  0  0  0  0  0  0  0  0  0  0  0
   57.0450   29.3661   46.5574 H   0  0  0  0  0  0  0  0  0  0  0  0
   57.0250   27.2010   46.5140 C   0  0  0  0  0  0  0  0  0  0  0  0
   56.5815   27.1135   47.5168 H   0  0  0  0  0  0  0  0  0  0  0  0
   57.3330   26.0460   45.7840 C   0  0  0  0  0  0  0  0  0  0  0  0
   57.0210   24.4510   46.4630 S   0  0  0  0  0  0  0  0  0  0  0  0
   58.3130   23.7350   46.7460 O   0  0  0  0  0  0  0  0  0  0  0  0
   56.2580   24.6090   47.7470 O   0  0  0  0  0  0  0  0  0  0  0  0
   56.0800   23.5040   45.3550 N   0  0  0  0  0  0  0  0  0  0  0  0
   56.5810   22.6720   44.4930 C   0  0  0  0  0  0  0  0  0  0  0  0
   55.9050   22.2820   43.3940 N   0  0  0  0  0  0  0  0  0  0  0  0
   56.6320   21.4140   42.6400 C   0  0  0  0  0  0  0  0  0  0  0  0
   56.2490   20.9833   41.7031 H   0  0  0  0  0  0  0  0  0  0  0  0
   57.8950   21.1100   43.1390 C   0  0  0  0  0  0  0  0  0  0  0  0
   58.6272   20.4333   42.6744 H   0  0  0  0  0  0  0  0  0  0  0  0
   58.1070   21.9580   44.5770 S   0  0  0  0  0  0  0  0  0  0  0  0
   57.8980   26.1650   44.5080 C   0  0  0  0  0  0  0  0  0  0  0  0
   58.1410   25.2613   43.9298 H   0  0  0  0  0  0  0  0  0  0  0  0
   58.1540   27.4270   43.9670 C   0  0  0  0  0  0  0  0  0  0  0  0
   58.6113   27.5110   42.9701 H   0  0  0  0  0  0  0  0  0  0  0  0
   57.8380   33.4720   44.9860 C   0  0  0  0  0  0  0  0  0  0  0  0
   58.7040   33.5680   46.1910 C   0  0  0  0  0  0  0  0  0  0  0  0
   59.4720   34.7230   46.4180 C   0  0  0  0  0  0  0  0  0  0  0  0
   59.4385   35.5524   45.6962 H   0  0  0  0  0  0  0  0  0  0  0  0
   60.2770   34.8240   47.5540 C   0  0  0  0  0  0  0  0  0  0  0  0
   60.8757   35.7313   47.7224 H   0  0  0  0  0  0  0  0  0  0  0  0
   60.3250   33.7780   48.4770 C   0  0  0  0  0  0  0  0  0  0  0  0
   60.9575   33.8651   49.3727 H   0  0  0  0  0  0  0  0  0  0  0  0
   59.5690   32.6170   48.2650 C   0  0  0  0  0  0  0  0  0  0  0  0
   59.6080   31.3020   49.4440 S   0  0  0  0  0  0  0  0  0  0  0  0
   60.2560   31.7900   50.7090 O   0  0  0  0  0  0  0  0  0  0  0  0
   58.2000   30.8870   49.7720 O   0  0  0  0  0  0  0  0  0  0  0  0
   60.4900   29.9190   48.8350 N   0  0  0  0  0  0  0  0  0  0  0  0
   59.5930   28.7560   48.6990 C   0  0  0  0  0  0  0  0  0  0  0  0
   59.4639   28.2819   49.6831 H   0  0  0  0  0  0  0  0  0  0  0  0
   58.6223   29.0998   48.3123 H   0  0  0  0  0  0  0  0  0  0  0  0
   60.1830   27.7300   47.7170 C   0  0  0  0  0  0  0  0  0  0  0  0
   61.1544   27.3948   48.1094 H   0  0  0  0  0  0  0  0  0  0  0  0
   59.4531   26.9110   47.6361 H   0  0  0  0  0  0  0  0  0  0  0  0
   60.3820   28.2350   46.4020 O   0  0  0  0  0  0  0  0  0  0  0  0
   60.5280   29.6480   46.3450 C   0  0  0  0  0  0  0  0  0  0  0  0
   61.1276   29.9015   45.4583 H   0  0  0  0  0  0  0  0  0  0  0  0
   59.5167   30.0783   46.2986 H   0  0  0  0  0  0  0  0  0  0  0  0
   61.2190   30.2400   47.5880 C   0  0  0  0  0  0  0  0  0  0  0  0
   62.2374   29.8301   47.6568 H   0  0  0  0  0  0  0  0  0  0  0  0
   61.2363   31.3343   47.4774 H   0  0  0  0  0  0  0  0  0  0  0  0
   58.7720   32.5100   47.1170 C   0  0  0  0  0  0  0  0  0  0  0  0
   58.1945   31.5910   46.9381 H   0  0  0  0  0  0  0  0  0  0  0  0
   56.8380   34.5750   44.7340 C   0  0  0  0  0  0  0  0  0  0  0  0
   56.4789   34.9711   45.6954 H   0  0  0  0  0  0  0  0  0  0  0  0
   57.3187   35.3820   44.1615 H   0  0  0  0  0  0  0  0  0  0  0  0
   55.9879   34.1755   44.1615 H   0  0  0  0  0  0  0  0  0  0  0  0
  1  2  1  0
  2  3  1  0
  3  4  2  0
  3  5  1  0
  5  6  1  0
  5  7  1  0
  7  8  2  0
  8  9  1  0
  8 10  1  0
 10 11  1  0
 10 12  2  0
 12 13  1  0
 13 14  2  0
 13 15  2  0
 13 16  1  0
 16 17  2  0
 17 18  1  0
 18 19  1  0
 19 20  1  0
 19 21  2  0
 21 22  1  0
 21 23  1  0
 12 24  1  0
 24 25  1  0
 24 26  2  0
 26 27  1  0
  2 28  2  3
 28 29  1  0
 29 30  2  0
 30 31  1  0
 30 32  1  0
 32 33  1  0
 32 34  2  0
 34 35  1  0
 34 36  1  0
 36 37  1  0
 37 38  2  0
 37 39  2  0
 37 40  1  0
 40 41  1  0
 41 42  1  0
 41 43  1  0
 41 44  1  0
 44 45  1  0
 44 46  1  0
 44 47  1  0
 47 48  1  0
 48 49  1  0
 48 50  1  0
 48 51  1  0
 51 52  1  0
 51 53  1  0
 36 54  2  0
 54 55  1  0
 28 56  1  0
 56 57  1  0
 56 58  1  0
 56 59  1  0
 26  7  1  0
 54 29  1  0
 23 17  1  0
 51 40  1  0
M  CHG  1  18  -1
M  END
>  <UniqueID>  (1) 
1

>  <SMILES>  (1) 
CC(=CC(=O)Nc1ccc(S(=O)(=O)/N=c2/[n-]ccs2)cc1)c1cccc(S(=O)(=O)N2CCOCC2)c1

>  <Energy>  (1) 
118.55714120240246

>  <Genealogy>  (1) 
CC(=CC(=O)Nc1ccc(S(=O)(=O)N=c2[n-]ccs2)cc1)c1cccc(S(=O)(=O)N2CCOCC2)c1 (protonated)
CC(=CC(=O)Nc1ccc(S(=O)(=O)/N=c2/[n-]ccs2)cc1)c1cccc(S(=O)(=O)N2CCOCC2)c1 (cis-trans isomerization)
CC(=CC(=O)Nc1ccc(S(=O)(=O)/N=c2/[n-]ccs2)cc1)c1cccc(S(=O)(=O)N2CCOCC2)c1 (3D coordinates assigned)
CC(=CC(=O)Nc1ccc(S(=O)(=O)/N=c2/[n-]ccs2)cc1)c1cccc(S(=O)(=O)N2CCOCC2)c1 (nonaromatic ring conformer: 118.55714120240246 kcal/mol)

>  <smiles>  (1) 
CC(=CC(=O)Nc1ccc(S(=O)(=O)N=c2[nH]ccs2)cc1)c1cccc(S(=O)(=O)N2CCOCC2)c1

>  <score_type>  (1) 
oracle

>  <origin>  (1) 
adg

>  <m_score__min__energy>  (1) 
-12.109999999999999

>  <m_primary>  (1) 
energy

$$$$
1:0
     RDKit          3D

 52 54  0  0  0  0  0  0  0  0999 V2000
   57.1350   20.1860   43.5670 H   0  0  0  0  0  0  0  0  0  0  0  0
   56.4300   20.8530   43.2730 O   0  0  0  0  0  0  0  0  0  0  0  0
   56.2000   22.0280   43.9850 C   0  0  0  0  0  0  0  0  0  0  0  0
   55.5120   22.0010   45.2050 C   0  0  0  0  0  0  0  0  0  0  0  0
   55.1444   21.0456   45.6075 H   0  0  0  0  0  0  0  0  0  0  0  0
   55.2920   23.1880   45.9120 C   0  0  0  0  0  0  0  0  0  0  0  0
   54.7709   23.1595   46.8803 H   0  0  0  0  0  0  0  0  0  0  0  0
   55.7320   24.4130   45.3930 C   0  0  0  0  0  0  0  0  0  0  0  0
   55.5120   25.6100   46.1500 N   0  0  0  0  0  0  0  0  0  0  0  0
   56.4310   26.7000   46.2810 C   0  0  0  0  0  0  0  0  0  0  0  0
   56.2750   27.7260   45.5680 O   0  0  0  0  0  0  0  0  0  0  0  0
   57.8640   26.6040   47.3610 S   0  0  0  0  0  0  0  0  0  0  0  0
   58.9650   27.4220   46.1590 C   0  0  0  0  0  0  0  0  0  0  0  0
   58.5297   27.3396   45.1522 H   0  0  0  0  0  0  0  0  0  0  0  0
   59.9500   26.9328   46.1821 H   0  0  0  0  0  0  0  0  0  0  0  0
   59.1280   28.8710   46.5120 C   0  0  0  0  0  0  0  0  0  0  0  0
   59.5127   29.1243   47.5109 H   0  0  0  0  0  0  0  0  0  0  0  0
   58.8280   29.8770   45.6700 C   0  0  0  0  0  0  0  0  0  0  0  0
   59.1870   31.2350   45.8050 C   0  0  0  0  0  0  0  0  0  0  0  0
   58.4770   31.8760   44.8070 C   0  0  0  0  0  0  0  0  0  0  0  0
   57.7930   30.9370   44.0760 C   0  0  0  0  0  0  0  0  0  0  0  0
   56.9720   31.1760   43.0550 C   0  0  0  0  0  0  0  0  0  0  0  0
   56.8308   32.2047   42.6920 H   0  0  0  0  0  0  0  0  0  0  0  0
   56.4351   30.3447   42.5747 H   0  0  0  0  0  0  0  0  0  0  0  0
   58.0270   29.7150   44.5860 N   0  0  0  0  0  0  0  0  0  0  0  0
   57.5960   28.8270   44.2430 H   0  0  0  0  0  0  0  0  0  0  0  0
   58.3410   33.2900   44.7220 N   0  0  0  0  0  0  0  0  0  0  0  0
   59.1310   34.0890   45.5990 C   0  0  0  0  0  0  0  0  0  0  0  0
   58.9360   35.3320   45.6620 O   0  0  0  0  0  0  0  0  0  0  0  0
   60.2680   33.4560   46.3540 C   0  0  0  0  0  0  0  0  0  0  0  0
   61.1363   33.3886   45.6820 H   0  0  0  0  0  0  0  0  0  0  0  0
   60.4645   34.0904   47.2309 H   0  0  0  0  0  0  0  0  0  0  0  0
   59.9440   32.0160   46.8920 C   0  0  1  0  0  0  0  0  0  0  0  0
   59.0810   32.1150   48.0020 O   0  0  0  0  0  0  0  0  0  0  0  0
   58.2460   32.5610   47.7080 H   0  0  0  0  0  0  0  0  0  0  0  0
   61.2650   31.2810   47.3050 C   0  0  0  0  0  0  0  0  0  0  0  0
   60.9888   30.3123   47.7469 H   0  0  0  0  0  0  0  0  0  0  0  0
   61.8619   31.1976   46.3848 H   0  0  0  0  0  0  0  0  0  0  0  0
   62.1590   32.0290   48.3210 C   0  0  0  0  0  0  0  0  0  0  0  0
   61.6444   32.9498   48.6327 H   0  0  0  0  0  0  0  0  0  0  0  0
   62.3332   31.3549   49.1726 H   0  0  0  0  0  0  0  0  0  0  0  0
   63.5310   32.4050   47.7340 C   0  0  0  0  0  0  0  0  0  0  0  0
   64.2011   32.6858   48.5599 H   0  0  0  0  0  0  0  0  0  0  0  0
   63.9052   31.5298   47.1827 H   0  0  0  0  0  0  0  0  0  0  0  0
   63.4570   33.5710   46.7480 C   0  0  0  0  0  0  0  0  0  0  0  0
   63.3969   34.5182   47.3041 H   0  0  0  0  0  0  0  0  0  0  0  0
   64.3568   33.5738   46.1152 H   0  0  0  0  0  0  0  0  0  0  0  0
   62.5641   33.4600   46.1152 H   0  0  0  0  0  0  0  0  0  0  0  0
   56.4430   24.4300   44.1800 C   0  0  0  0  0  0  0  0  0  0  0  0
   56.8223   25.3824   43.7811 H   0  0  0  0  0  0  0  0  0  0  0  0
   56.6700   23.2430   43.4790 C   0  0  0  0  0  0  0  0  0  0  0  0
   57.2199   23.2648   42.5266 H   0  0  0  0  0  0  0  0  0  0  0  0
  1  2  1  0
  2  3  1  0
  3  4  2  0
  4  5  1  0
  4  6  1  0
  6  7  1  0
  6  8  2  0
  8  9  1  0
  9 10  1  0
 10 11  2  0
 10 12  1  0
 12 13  1  0
 13 14  1  0
 13 15  1  0
 13 16  1  0
 16 17  1  0
 16 18  2  0
 18 19  1  0
 19 20  2  0
 20 21  1  0
 21 22  2  0
 22 23  1  0
 22 24  1  0
 21 25  1  0
 25 26  1  0
 20 27  1  0
 27 28  1  0
 28 29  2  0
 28 30  1  0
 30 31  1  0
 30 32  1  0
 30 33  1  0
 33 34  1  1
 34 35  1  0
 33 36  1  0
 36 37  1  0
 36 38  1  0
 36 39  1  0
 39 40  1  0
 39 41  1  0
 39 42  1  0
 42 43  1  0
 42 44  1  0
 42 45  1  0
 45 46  1  0
 45 47  1  0
 45 48  1  0
  8 49  1  0
 49 50  1  0
 49 51  2  0
 51 52  1  0
 51  3  1  0
 25 18  1  0
 33 19  1  0
M  CHG  2   9  -1  27  -1
M  END
>  <UniqueID>  (2) 
2

>  <SMILES>  (2) 
C=c1[nH]/c(=C\CSC(=O)[N-]c2ccc(O)cc2)c2c1[N-]C(=O)C[C@]2(O)CCCC

>  <Energy>  (2) 
88.32360723919417

>  <Genealogy>  (2) 
C=c1[nH]c(=CCSC(=O)[N-]c2ccc(O)cc2)c2c1[N-]C(=O)CC2(O)CCCC (protonated)
C=c1[nH]c(=CCSC(=O)[N-]c2ccc(O)cc2)c2c1[N-]C(=O)C[C@]2(O)CCCC (chirality)
C=c1[nH]/c(=C\CSC(=O)[N-]c2ccc(O)cc2)c2c1[N-]C(=O)C[C@]2(O)CCCC (cis-trans isomerization)
C=c1[nH]/c(=C\CSC(=O)[N-]c2ccc(O)cc2)c2c1[N-]C(=O)C[C@]2(O)CCCC (3D coordinates assigned)
C=c1[nH]/c(=C\CSC(=O)[N-]c2ccc(O)cc2)c2c1[N-]C(=O)C[C@]2(O)CCCC (nonaromatic ring conformer: 88.32360723919417 kcal/mol)

>  <smiles>  (2) 
C=c1[nH]c(=CCSC(=O)Nc2ccc(O)cc2)c2c1NC(=O)CC2(O)CCCC

>  <score_type>  (2) 
oracle

>  <origin>  (2) 
adg

>  <m_score__min__energy>  (2) 
-11.69

>  <m_primary>  (2) 
energy

$$$$
2:0
     RDKit          3D

 38 40  0  0  0  0  0  0  0  0999 V2000
   57.0440   24.8720   46.8090 C   0  0  0  0  0  0  0  0  0  0  0  0
   57.1650   26.2270   46.2800 N   0  0  0  0  0  0  0  0  0  0  0  0
   58.3090   26.8940   46.0250 C   0  0  0  0  0  0  0  0  0  0  0  0
   59.5780   26.3870   46.2880 O   0  0  0  0  0  0  0  0  0  0  0  0
   58.0480   28.1370   45.4750 C   0  0  0  0  0  0  0  0  0  0  0  0
   56.6730   28.2070   45.3610 C   0  0  0  0  0  0  0  0  0  0  0  0
   55.9550   29.3500   44.8810 N   0  0  0  0  0  0  0  0  0  0  0  0
   56.5180   30.4600   44.1740 C   0  0  0  0  0  0  0  0  0  0  0  0
   56.3360   30.5880   42.9330 O   0  0  0  0  0  0  0  0  0  0  0  0
   57.3620   31.4290   44.8880 C   0  0  0  0  0  0  0  0  0  0  0  0
   57.0200   32.7550   45.1470 C   0  0  0  0  0  0  0  0  0  0  0  0
   58.1010   33.2730   45.8280 C   0  0  0  0  0  0  0  0  0  0  0  0
   58.3210   34.5470   46.3400 C   0  0  0  0  0  0  0  0  0  0  0  0
   59.5400   34.7880   46.9980 C   0  0  0  0  0  0  0  0  0  0  0  0
   60.5090   33.7640   47.1300 C   0  0  0  0  0  0  0  0  0  0  0  0
   61.7340   34.0710   47.8100 N   0  0  0  0  0  0  0  0  0  0  0  0
   62.8630   32.9120   48.4360 S   0  0  0  0  0  0  0  0  0  0  0  0
   63.3680   31.7910   47.1490 C   0  0  0  0  0  0  0  0  0  0  0  0
   64.0740   33.6430   48.9410 O   0  0  0  0  0  0  0  0  0  0  0  0
   62.2440   32.1550   49.5770 O   0  0  0  0  0  0  0  0  0  0  0  0
   60.2460   32.4790   46.5960 C   0  0  0  0  0  0  0  0  0  0  0  0
   59.0290   32.2740   45.9500 C   0  0  0  0  0  0  0  0  0  0  0  0
   58.5910   31.1400   45.3800 N   0  0  0  0  0  0  0  0  0  0  0  0
   56.1610   27.0270   45.8730 C   0  0  0  0  0  0  0  0  0  0  0  0
   54.8150   26.7030   46.0030 O   0  0  0  0  0  0  0  0  0  0  0  0
   57.0470   24.9060   47.9085 H   0  0  0  0  0  0  0  0  0  0  0  0
   56.1023   24.4243   46.4586 H   0  0  0  0  0  0  0  0  0  0  0  0
   57.8915   24.2645   46.4586 H   0  0  0  0  0  0  0  0  0  0  0  0
   60.4050   26.9570   46.1550 H   0  0  0  0  0  0  0  0  0  0  0  0
   58.7804   28.9063   45.1891 H   0  0  0  0  0  0  0  0  0  0  0  0
   56.0911   33.2745   44.8690 H   0  0  0  0  0  0  0  0  0  0  0  0
   57.5662   35.3401   46.2338 H   0  0  0  0  0  0  0  0  0  0  0  0
   59.7435   35.7851   47.4157 H   0  0  0  0  0  0  0  0  0  0  0  0
   63.7800   30.8764   47.6003 H   0  0  0  0  0  0  0  0  0  0  0  0
   62.4991   31.5330   46.5257 H   0  0  0  0  0  0  0  0  0  0  0  0
   64.1369   32.2708   46.5257 H   0  0  0  0  0  0  0  0  0  0  0  0
   60.9815   31.6663   46.6887 H   0  0  0  0  0  0  0  0  0  0  0  0
   59.0960   30.2270   45.3280 H   0  0  0  0  0  0  0  0  0  0  0  0
  1  2  1  0
  2  3  1  0
  3  4  1  0
  3  5  2  0
  5  6  1  0
  6  7  1  0
  7  8  1  0
  8  9  2  0
  8 10  1  0
 10 11  2  0
 11 12  1  0
 12 13  2  0
 13 14  1  0
 14 15  2  0
 15 16  1  0
 16 17  1  0
 17 18  1  0
 17 19  2  0
 17 20  2  0
 15 21  1  0
 21 22  2  0
 22 23  1  0
  6 24  2  0
 24 25  1  0
 24  2  1  0
 23 10  1  0
 22 12  1  0
  1 26  1  0
  1 27  1  0
  1 28  1  0
  4 29  1  0
  5 30  1  0
 11 31  1  0
 13 32  1  0
 14 33  1  0
 18 34  1  0
 18 35  1  0
 18 36  1  0
 21 37  1  0
 23 38  1  0
M  CHG  3   7  -1  16  -1  25  -1
M  END
>  <UniqueID>  (3) 
3

>  <SMILES>  (3) 
Cn1c(O)cc([N-]C(=O)c2cc3ccc([N-]S(C)(=O)=O)cc3[nH]2)c1[O-]

>  <Energy>  (3) 
102.24861701682785

>  <Genealogy>  (3) 
Cn1c(O)cc([N-]C(=O)c2cc3ccc([N-]S(C)(=O)=O)cc3[nH]2)c1[O-] (protonated)
Cn1c(O)cc([N-]C(=O)c2cc3ccc([N-]S(C)(=O)=O)cc3[nH]2)c1[O-] (3D coordinates assigned)
Cn1c(O)cc([N-]C(=O)c2cc3ccc([N-]S(C)(=O)=O)cc3[nH]2)c1[O-] (optimized conformer: 102.24861701682785 kcal/mol)

>  <smiles>  (3) 
Cn1c(O)cc(NC(=O)c2cc3ccc(NS(C)(=O)=O)cc3[nH]2)c1O

>  <score_type>  (3) 
oracle

>  <origin>  (3) 
adg

>  <m_score__min__energy>  (3) 
-14.449999999999999

>  <m_primary>  (3) 
energy

$$$$
3:0
     RDKit          3D

 48 50  0  0  0  0  0  0  0  0999 V2000
   56.3920   29.7830   42.5590 C   0  0  0  0  0  0  0  0  0  0  0  0
   56.4180   29.8710   44.3370 S   0  0  0  0  0  0  0  0  0  0  0  0
   57.5540   29.0550   44.8990 O   0  0  0  0  0  0  0  0  0  0  0  0
   55.1230   29.3260   44.8670 O   0  0  0  0  0  0  0  0  0  0  0  0
   56.5750   31.5180   44.8490 N   0  0  0  0  0  0  0  0  0  0  0  0
   57.7220   32.0970   45.4890 C   0  0  0  0  0  0  0  0  0  0  0  0
   57.8040   33.4910   45.5710 C   0  0  0  0  0  0  0  0  0  0  0  0
   58.8960   34.1000   46.1930 C   0  0  0  0  0  0  0  0  0  0  0  0
   59.9240   33.3210   46.7280 C   0  0  0  0  0  0  0  0  0  0  0  0
   59.8780   31.9180   46.6280 C   0  0  0  0  0  0  0  0  0  0  0  0
   60.9820   31.0790   47.1600 C   0  0  0  0  0  0  0  0  0  0  0  0
   61.7990   31.5790   47.9810 O   0  0  0  0  0  0  0  0  0  0  0  0
   61.1800   29.7200   46.7400 N   0  0  0  0  0  0  0  0  0  0  0  0
   60.1820   28.6880   46.7100 C   0  0  0  0  0  0  0  0  0  0  0  0
   59.1810   28.5950   47.6950 C   0  0  0  0  0  0  0  0  0  0  0  0
   58.2020   27.5980   47.6150 C   0  0  0  0  0  0  0  0  0  0  0  0
   58.2280   26.6680   46.5680 C   0  0  0  0  0  0  0  0  0  0  0  0
   56.9710   25.4470   46.4210 S   0  0  0  0  0  0  0  0  0  0  0  0
   56.7860   24.7350   47.7330 O   0  0  0  0  0  0  0  0  0  0  0  0
   55.6860   26.1300   46.0480 O   0  0  0  0  0  0  0  0  0  0  0  0
   57.4130   24.2910   45.1860 N   0  0  0  0  0  0  0  0  0  0  0  0
   57.1950   22.9050   45.6500 C   0  0  0  0  0  0  0  0  0  0  0  0
   55.9420   22.2720   45.0220 C   0  0  0  0  0  0  0  0  0  0  0  0
   55.9820   22.2420   43.6030 O   0  0  0  0  0  0  0  0  0  0  0  0
   56.6340   23.3660   43.0240 C   0  0  0  0  0  0  0  0  0  0  0  0
   56.6910   24.6000   43.9380 C   0  0  0  0  0  0  0  0  0  0  0  0
   59.2480   26.7350   45.6080 C   0  0  0  0  0  0  0  0  0  0  0  0
   60.2250   27.7340   45.6860 C   0  0  0  0  0  0  0  0  0  0  0  0
   58.7620   31.3120   46.0250 C   0  0  0  0  0  0  0  0  0  0  0  0
   56.0932   28.7716   42.2463 H   0  0  0  0  0  0  0  0  0  0  0  0
   55.6720   30.5160   42.1661 H   0  0  0  0  0  0  0  0  0  0  0  0
   57.3947   30.0070   42.1661 H   0  0  0  0  0  0  0  0  0  0  0  0
   57.0031   34.1116   45.1427 H   0  0  0  0  0  0  0  0  0  0  0  0
   58.9465   35.1967   46.2617 H   0  0  0  0  0  0  0  0  0  0  0  0
   60.7739   33.8063   47.2301 H   0  0  0  0  0  0  0  0  0  0  0  0
   59.1680   29.3092   48.5315 H   0  0  0  0  0  0  0  0  0  0  0  0
   57.4100   27.5446   48.3765 H   0  0  0  0  0  0  0  0  0  0  0  0
   58.0719   22.2987   45.3789 H   0  0  0  0  0  0  0  0  0  0  0  0
   57.0488   22.9330   46.7399 H   0  0  0  0  0  0  0  0  0  0  0  0
   55.8493   21.2399   45.3911 H   0  0  0  0  0  0  0  0  0  0  0  0
   55.0817   22.8932   45.3118 H   0  0  0  0  0  0  0  0  0  0  0  0
   57.6645   23.0752   42.7721 H   0  0  0  0  0  0  0  0  0  0  0  0
   56.0447   23.6534   42.1408 H   0  0  0  0  0  0  0  0  0  0  0  0
   57.2105   25.4149   43.4126 H   0  0  0  0  0  0  0  0  0  0  0  0
   55.6635   24.9019   44.1892 H   0  0  0  0  0  0  0  0  0  0  0  0
   59.2803   25.9996   44.7906 H   0  0  0  0  0  0  0  0  0  0  0  0
   61.0313   27.7699   44.9386 H   0  0  0  0  0  0  0  0  0  0  0  0
   58.7002   30.2151   45.9712 H   0  0  0  0  0  0  0  0  0  0  0  0
  1  2  1  0
  2  3  2  0
  2  4  2  0
  2  5  1  0
  5  6  1  0
  6  7  2  0
  7  8  1  0
  8  9  2  0
  9 10  1  0
 10 11  1  0
 11 12  2  0
 11 13  1  0
 13 14  1  0
 14 15  2  0
 15 16  1  0
 16 17  2  0
 17 18  1  0
 18 19  2  0
 18 20  2  0
 18 21  1  0
 21 22  1  0
 22 23  1  0
 23 24  1  0
 24 25  1  0
 25 26  1  0
 17 27  1  0
 27 28  2  0
 10 29  2  0
 29  6  1  0
 28 14  1  0
 26 21  1  0
  1 30  1  0
  1 31  1  0
  1 32  1  0
  7 33  1  0
  8 34  1  0
  9 35  1  0
 15 36  1  0
 16 37  1  0
 22 38  1  0
 22 39  1  0
 23 40  1  0
 23 41  1  0
 25 42  1  0
 25 43  1  0
 26 44  1  0
 26 45  1  0
 27 46  1  0
 28 47  1  0
 29 48  1  0
M  CHG  2   5  -1  13  -1
M  END
>  <UniqueID>  (4) 
4

>  <SMILES>  (4) 
CS(=O)(=O)[N-]c1cccc(C(=O)[N-]c2ccc(S(=O)(=O)N3CCOCC3)cc2)c1

>  <Energy>  (4) 
67.62193244208666

>  <Genealogy>  (4) 
CS(=O)(=O)[N-]c1cccc(C(=O)[N-]c2ccc(S(=O)(=O)N3CCOCC3)cc2)c1 (protonated)
CS(=O)(=O)[N-]c1cccc(C(=O)[N-]c2ccc(S(=O)(=O)N3CCOCC3)cc2)c1 (3D coordinates assigned)
CS(=O)(=O)[N-]c1cccc(C(=O)[N-]c2ccc(S(=O)(=O)N3CCOCC3)cc2)c1 (nonaromatic ring conformer: 67.62193244208666 kcal/mol)

>  <smiles>  (4) 
CS(=O)(=O)Nc1cccc(C(=O)Nc2ccc(S(=O)(=O)N3CCOCC3)cc2)c1

>  <score_type>  (4) 
oracle

>  <origin>  (4) 
adg

>  <m_score__min__energy>  (4) 
-12.57

>  <m_primary>  (4) 
energy

$$$$
4:0
     RDKit          3D

 56 59  0  0  0  0  0  0  0  0999 V2000
   57.7780   27.8330   43.2570 C   0  0  0  0  0  0  0  0  0  0  0  0
   58.3640   27.9920   44.6330 C   0  0  0  0  0  0  0  0  0  0  0  0
   59.6930   28.4150   44.7800 C   0  0  0  0  0  0  0  0  0  0  0  0
   60.2500   28.5790   46.0490 C   0  0  0  0  0  0  0  0  0  0  0  0
   59.4880   28.3270   47.1990 C   0  0  0  0  0  0  0  0  0  0  0  0
   60.1040   28.5080   48.5350 C   0  0  0  0  0  0  0  0  0  0  0  0
   60.3600   29.7010   49.1170 N   0  0  0  0  0  0  0  0  0  0  0  0
   60.9080   29.3920   50.3050 C   0  0  0  0  0  0  0  0  0  0  0  0
   61.2620   30.3980   51.3570 C   0  0  0  0  0  0  0  0  0  0  0  0
   60.5230   31.6770   51.1050 C   0  0  0  0  0  0  0  0  0  0  0  0
   60.1800   32.5280   52.1590 C   0  0  0  0  0  0  0  0  0  0  0  0
   59.5450   33.7330   51.8620 C   0  0  0  0  0  0  0  0  0  0  0  0
   59.2150   34.5210   52.7860 O   0  0  0  0  0  0  0  0  0  0  0  0
   59.2870   34.0620   50.5700 N   0  0  0  0  0  0  0  0  0  0  0  0
   59.6340   33.2330   49.5460 C   0  0  0  0  0  0  0  0  0  0  0  0
   59.3660   33.6080   48.1790 N   0  0  0  0  0  0  0  0  0  0  0  0
   58.2810   32.9410   47.4430 C   0  0  0  0  0  0  0  0  0  0  0  0
   57.8200   33.8020   46.2650 C   0  0  0  0  0  0  0  0  0  0  0  0
   58.9210   34.2160   45.4810 O   0  0  0  0  0  0  0  0  0  0  0  0
   59.7350   35.0870   46.2380 C   0  0  0  0  0  0  0  0  0  0  0  0
   60.3790   34.3480   47.4140 C   0  0  0  0  0  0  0  0  0  0  0  0
   60.2500   32.0520   49.8270 N   0  0  0  0  0  0  0  0  0  0  0  0
   60.9530   28.0150   50.4140 C   0  0  0  0  0  0  0  0  0  0  0  0
   61.4400   27.2110   51.5750 C   0  0  0  0  0  0  0  0  0  0  0  0
   60.4560   27.5040   49.3120 O   0  0  0  0  0  0  0  0  0  0  0  0
   58.1500   27.9190   47.0560 C   0  0  0  0  0  0  0  0  0  0  0  0
   57.5800   27.7510   45.7790 C   0  0  0  0  0  0  0  0  0  0  0  0
   56.2110   27.3450   45.6180 N   0  0  0  0  0  0  0  0  0  0  0  0
   55.6080   25.7310   45.8080 S   0  0  0  0  0  0  0  0  0  0  0  0
   56.3530   24.6890   44.5750 C   0  0  0  0  0  0  0  0  0  0  0  0
   54.1170   25.7180   45.6270 O   0  0  0  0  0  0  0  0  0  0  0  0
   55.9660   25.2100   47.1710 O   0  0  0  0  0  0  0  0  0  0  0  0
   56.7194   27.5458   43.3402 H   0  0  0  0  0  0  0  0  0  0  0  0
   57.8578   28.7853   42.7122 H   0  0  0  0  0  0  0  0  0  0  0  0
   58.3282   27.0517   42.7122 H   0  0  0  0  0  0  0  0  0  0  0  0
   60.3019   28.6194   43.8870 H   0  0  0  0  0  0  0  0  0  0  0  0
   61.2948   28.9085   46.1480 H   0  0  0  0  0  0  0  0  0  0  0  0
   60.1510   30.6590   48.7610 H   0  0  0  0  0  0  0  0  0  0  0  0
   60.9849   30.0049   52.3463 H   0  0  0  0  0  0  0  0  0  0  0  0
   62.3444   30.5915   51.3251 H   0  0  0  0  0  0  0  0  0  0  0  0
   60.4060   32.2532   53.1999 H   0  0  0  0  0  0  0  0  0  0  0  0
   58.6427   31.9738   47.0640 H   0  0  0  0  0  0  0  0  0  0  0  0
   57.4313   32.7891   48.1249 H   0  0  0  0  0  0  0  0  0  0  0  0
   57.1318   33.2159   45.6382 H   0  0  0  0  0  0  0  0  0  0  0  0
   57.3141   34.6955   46.6597 H   0  0  0  0  0  0  0  0  0  0  0  0
   60.5264   35.4936   45.5912 H   0  0  0  0  0  0  0  0  0  0  0  0
   59.1077   35.8992   46.6341 H   0  0  0  0  0  0  0  0  0  0  0  0
   61.1289   33.6411   47.0294 H   0  0  0  0  0  0  0  0  0  0  0  0
   60.8549   35.0852   48.0774 H   0  0  0  0  0  0  0  0  0  0  0  0
   61.1419   27.7031   52.5126 H   0  0  0  0  0  0  0  0  0  0  0  0
   61.0001   26.2036   51.5337 H   0  0  0  0  0  0  0  0  0  0  0  0
   62.5365   27.1343   51.5337 H   0  0  0  0  0  0  0  0  0  0  0  0
   57.5412   27.7288   47.9522 H   0  0  0  0  0  0  0  0  0  0  0  0
   56.9249   23.8890   45.0679 H   0  0  0  0  0  0  0  0  0  0  0  0
   55.5669   24.2443   43.9471 H   0  0  0  0  0  0  0  0  0  0  0  0
   57.0281   25.2890   43.9471 H   0  0  0  0  0  0  0  0  0  0  0  0
  1  2  1  0
  2  3  2  0
  3  4  1  0
  4  5  2  0
  5  6  1  0
  6  7  2  0
  7  8  1  0
  8  9  1  0
  9 10  1  0
 10 11  2  0
 11 12  1  0
 12 13  2  0
 12 14  1  0
 14 15  2  0
 15 16  1  0
 16 17  1  0
 17 18  1  0
 18 19  1  0
 19 20  1  0
 20 21  1  0
 15 22  1  0
  8 23  2  0
 23 24  1  0
 23 25  1  0
  5 26  1  0
 26 27  2  0
 27 28  1  0
 28 29  1  0
 29 30  1  0
 29 31  2  0
 29 32  2  0
 27  2  1  0
 25  6  1  0
 22 10  1  0
 21 16  1  0
  1 33  1  0
  1 34  1  0
  1 35  1  0
  3 36  1  0
  4 37  1  0
  7 38  1  0
  9 39  1  0
  9 40  1  0
 11 41  1  0
 17 42  1  0
 17 43  1  0
 18 44  1  0
 18 45  1  0
 20 46  1  0
 20 47  1  0
 21 48  1  0
 21 49  1  0
 24 50  1  0
 24 51  1  0
 24 52  1  0
 26 53  1  0
 30 54  1  0
 30 55  1  0
 30 56  1  0
M  CHG  3   7   1  22  -1  28  -1
M  END
>  <UniqueID>  (5) 
5

>  <SMILES>  (5) 
Cc1ccc(-c2[nH+]c(Cc3cc(=O)nc(N4CCOCC4)[n-]3)c(C)o2)cc1[N-]S(C)(=O)=O

>  <Energy>  (5) 
88.44166275740537

>  <Genealogy>  (5) 
Cc1ccc(-c2[nH+]c(Cc3cc(=O)nc(N4CCOCC4)[n-]3)c(C)o2)cc1[N-]S(C)(=O)=O (protonated)
Cc1ccc(-c2[nH+]c(Cc3cc(=O)nc(N4CCOCC4)[n-]3)c(C)o2)cc1[N-]S(C)(=O)=O (3D coordinates assigned)
Cc1ccc(-c2[nH+]c(Cc3cc(=O)nc(N4CCOCC4)[n-]3)c(C)o2)cc1[N-]S(C)(=O)=O (nonaromatic ring conformer: 88.44166275740537 kcal/mol)

>  <smiles>  (5) 
Cc1ccc(-c2nc(Cc3cc(=O)nc(N4CCOCC4)[nH]3)c(C)o2)cc1NS(C)(=O)=O

>  <score_type>  (5) 
oracle

>  <origin>  (5) 
adg

>  <m_score__min__energy>  (5) 
-10.09

>  <m_primary>  (5) 
energy

$$$$
5:0
     RDKit          3D

 51 54  0  0  0  0  0  0  0  0999 V2000
   57.8587   32.8769   45.8249 H   0  0  0  0  0  0  0  0  0  0  0  0
   58.4570   33.0900   46.7230 C   0  0  0  0  0  0  0  0  0  0  0  0
   58.1120   32.5370   47.9160 N   0  0  0  0  0  0  0  0  0  0  0  0
   58.8210   32.7780   49.0570 C   0  0  0  0  0  0  0  0  0  0  0  0
   58.4540   32.2590   50.1940 N   0  0  0  0  0  0  0  0  0  0  0  0
   58.2770   30.8570   50.4540 C   0  0  0  0  0  0  0  0  0  0  0  0
   57.3680   30.4960   51.2470 O   0  0  0  0  0  0  0  0  0  0  0  0
   59.1610   29.8350   49.8500 C   0  0  0  0  0  0  0  0  0  0  0  0
   59.2010   29.6820   48.4550 C   0  0  0  0  0  0  0  0  0  0  0  0
   58.5490   30.2993   47.8195 H   0  0  0  0  0  0  0  0  0  0  0  0
   60.0660   28.7480   47.8650 C   0  0  0  0  0  0  0  0  0  0  0  0
   60.1790   28.6320   46.1070 S   0  0  0  0  0  0  0  0  0  0  0  0
   61.0690   29.7340   45.6040 O   0  0  0  0  0  0  0  0  0  0  0  0
   60.8360   27.3240   45.7650 O   0  0  0  0  0  0  0  0  0  0  0  0
   58.6260   28.6980   45.2920 N   0  0  0  0  0  0  0  0  0  0  0  0
   58.5490   27.8830   44.0640 C   0  0  0  0  0  0  0  0  0  0  0  0
   57.7852   28.3205   43.4043 H   0  0  0  0  0  0  0  0  0  0  0  0
   59.5508   27.8911   43.6097 H   0  0  0  0  0  0  0  0  0  0  0  0
   58.1840   26.4120   44.3200 C   0  0  0  0  0  0  0  0  0  0  0  0
   57.8686   25.9514   43.3722 H   0  0  0  0  0  0  0  0  0  0  0  0
   59.0694   25.9014   44.7267 H   0  0  0  0  0  0  0  0  0  0  0  0
   57.0980   26.2930   45.2910 N   0  0  0  0  0  0  0  0  0  0  0  0
   56.2990   25.1030   45.2690 C   0  0  0  0  0  0  0  0  0  0  0  0
   56.8980   23.8770   44.9450 C   0  0  0  0  0  0  0  0  0  0  0  0
   57.9659   23.8412   44.6835 H   0  0  0  0  0  0  0  0  0  0  0  0
   56.1440   22.7010   44.9530 C   0  0  0  0  0  0  0  0  0  0  0  0
   56.6171   21.7430   44.6915 H   0  0  0  0  0  0  0  0  0  0  0  0
   54.7890   22.7410   45.2930 C   0  0  0  0  0  0  0  0  0  0  0  0
   54.1968   21.8141   45.3004 H   0  0  0  0  0  0  0  0  0  0  0  0
   54.1850   23.9590   45.6240 C   0  0  0  0  0  0  0  0  0  0  0  0
   53.1183   23.9880   45.8910 H   0  0  0  0  0  0  0  0  0  0  0  0
   54.9350   25.1400   45.6160 C   0  0  0  0  0  0  0  0  0  0  0  0
   54.3290   26.3370   45.9770 O   0  0  0  0  0  0  0  0  0  0  0  0
   57.1610   27.0890   46.5150 C   0  0  0  0  0  0  0  0  0  0  0  0
   56.1963   27.0258   47.0398 H   0  0  0  0  0  0  0  0  0  0  0  0
   57.9638   26.6976   47.1572 H   0  0  0  0  0  0  0  0  0  0  0  0
   57.4580   28.5490   46.1790 C   0  0  0  0  0  0  0  0  0  0  0  0
   56.5786   28.9820   45.6799 H   0  0  0  0  0  0  0  0  0  0  0  0
   57.6854   29.0691   47.1212 H   0  0  0  0  0  0  0  0  0  0  0  0
   60.8350   27.9080   48.6820 C   0  0  0  0  0  0  0  0  0  0  0  0
   61.4800   27.1416   48.2275 H   0  0  0  0  0  0  0  0  0  0  0  0
   60.7850   28.0410   50.0710 C   0  0  0  0  0  0  0  0  0  0  0  0
   61.3971   27.3839   50.7062 H   0  0  0  0  0  0  0  0  0  0  0  0
   59.9610   29.0050   50.6580 C   0  0  0  0  0  0  0  0  0  0  0  0
   59.9210   29.1030   52.0100 F   0  0  0  0  0  0  0  0  0  0  0  0
   59.9360   33.6280   49.0090 C   0  0  0  0  0  0  0  0  0  0  0  0
   60.6660   33.9100   50.1580 O   0  0  0  0  0  0  0  0  0  0  0  0
   60.3120   34.1950   47.7880 C   0  0  0  0  0  0  0  0  0  0  0  0
   61.1929   34.8517   47.7346 H   0  0  0  0  0  0  0  0  0  0  0  0
   59.5700   33.9280   46.6370 C   0  0  0  0  0  0  0  0  0  0  0  0
   59.8587   34.3726   45.6732 H   0  0  0  0  0  0  0  0  0  0  0  0
  1  2  1  0
  2  3  1  0
  3  4  1  0
  4  5  2  0
  5  6  1  0
  6  7  2  0
  6  8  1  0
  8  9  2  0
  9 10  1  0
  9 11  1  0
 11 12  1  0
 12 13  2  0
 12 14  2  0
 12 15  1  0
 15 16  1  0
 16 17  1  0
 16 18  1  0
 16 19  1  0
 19 20  1  0
 19 21  1  0
 19 22  1  0
 22 23  1  0
 23 24  2  0
 24 25  1  0
 24 26  1  0
 26 27  1  0
 26 28  2  0
 28 29  1  0
 28 30  1  0
 30 31  1  0
 30 32  2  0
 32 33  1  0
 22 34  1  0
 34 35  1  0
 34 36  1  0
 34 37  1  0
 37 38  1  0
 37 39  1  0
 11 40  2  0
 40 41  1  0
 40 42  1  0
 42 43  1  0
 42 44  2  0
 44 45  1  0
  4 46  1  0
 46 47  1  0
 46 48  2  0
 48 49  1  0
 48 50  1  0
 50 51  1  0
 50  2  2  0
 44  8  1  0
 37 15  1  0
 32 23  1  0
M  CHG  3   3  -1  33  -1  47  -1
M  END
>  <UniqueID>  (6) 
6

>  <SMILES>  (6) 
O=C(/N=c1\[n-]cccc1[O-])c1cc(S(=O)(=O)N2CCN(c3ccccc3[O-])CC2)ccc1F

>  <Energy>  (6) 
71.98286988007749

>  <Genealogy>  (6) 
O=C(N=c1[n-]cccc1[O-])c1cc(S(=O)(=O)N2CCN(c3ccccc3[O-])CC2)ccc1F (protonated)
O=C(/N=c1\[n-]cccc1[O-])c1cc(S(=O)(=O)N2CCN(c3ccccc3[O-])CC2)ccc1F (cis-trans isomerization)
O=C(/N=c1\[n-]cccc1[O-])c1cc(S(=O)(=O)N2CCN(c3ccccc3[O-])CC2)ccc1F (3D coordinates assigned)
O=C(/N=c1\[n-]cccc1[O-])c1cc(S(=O)(=O)N2CCN(c3ccccc3[O-])CC2)ccc1F (nonaromatic ring conformer: 71.98286988007749 kcal/mol)

>  <smiles>  (6) 
O=C(N=c1[nH]cccc1O)c1cc(S(=O)(=O)N2CCN(c3ccccc3O)CC2)ccc1F

>  <score_type>  (6) 
oracle

>  <origin>  (6) 
adg

>  <m_score__min__energy>  (6) 
-15.6

>  <m_primary>  (6) 
energy

$$$$
6:0
     RDKit          3D

 50 53  0  0  0  0  0  0  0  0999 V2000
   56.9990   21.8610   45.3990 C   0  0  0  0  0  0  0  0  0  0  0  0
   55.8880   22.8770   45.4600 C   0  0  0  0  0  0  0  0  0  0  0  0
   54.6060   22.4590   45.2520 N   0  0  0  0  0  0  0  0  0  0  0  0
   53.5630   23.3280   45.3030 C   0  0  0  0  0  0  0  0  0  0  0  0
   52.3880   22.9180   45.1140 O   0  0  0  0  0  0  0  0  0  0  0  0
   53.7840   24.6380   45.5610 N   0  0  0  0  0  0  0  0  0  0  0  0
   55.0360   25.1180   45.7620 C   0  0  0  0  0  0  0  0  0  0  0  0
   55.1870   26.3420   46.0120 O   0  0  0  0  0  0  0  0  0  0  0  0
   56.1430   24.2500   45.6960 C   0  0  0  0  0  0  0  0  0  0  0  0
   57.7930   24.8640   45.9630 S   0  0  0  0  0  0  0  0  0  0  0  0
   58.8040   23.9780   45.2920 O   0  0  0  0  0  0  0  0  0  0  0  0
   58.0860   24.8850   47.4360 O   0  0  0  0  0  0  0  0  0  0  0  0
   57.9240   26.4660   45.3130 N   0  0  0  0  0  0  0  0  0  0  0  0
   57.7950   26.7970   43.8960 C   0  0  0  0  0  0  0  0  0  0  0  0
   58.0920   28.3130   43.7880 C   0  0  0  0  0  0  0  0  0  0  0  0
   58.4300   28.7020   45.1890 C   0  0  0  0  0  0  0  0  0  0  0  0
   58.7930   29.9610   45.6760 C   0  0  0  0  0  0  0  0  0  0  0  0
   58.8950   31.0790   44.7960 N   0  0  0  0  0  0  0  0  0  0  0  0
   57.4840   31.8600   44.1660 S   0  0  0  0  0  0  0  0  0  0  0  0
   57.5620   31.8630   42.6660 O   0  0  0  0  0  0  0  0  0  0  0  0
   56.2630   31.0970   44.5950 O   0  0  0  0  0  0  0  0  0  0  0  0
   57.3880   33.5450   44.7520 C   0  0  0  0  0  0  0  0  0  0  0  0
   58.3530   33.7630   45.8830 C   0  0  0  0  0  0  0  0  0  0  0  0
   59.5770   34.4120   45.6540 C   0  0  0  0  0  0  0  0  0  0  0  0
   60.4870   34.5920   46.7010 C   0  0  0  0  0  0  0  0  0  0  0  0
   60.1830   34.1190   47.9810 C   0  0  0  0  0  0  0  0  0  0  0  0
   58.9720   33.4600   48.2140 C   0  0  0  0  0  0  0  0  0  0  0  0
   58.0610   33.2780   47.1690 C   0  0  0  0  0  0  0  0  0  0  0  0
   59.0810   30.0920   47.0470 C   0  0  0  0  0  0  0  0  0  0  0  0
   58.9850   28.9750   47.9000 C   0  0  0  0  0  0  0  0  0  0  0  0
   58.6040   27.7240   47.3890 C   0  0  0  0  0  0  0  0  0  0  0  0
   58.3270   27.6220   46.0230 C   0  0  0  0  0  0  0  0  0  0  0  0
   57.3003   21.5854   46.4204 H   0  0  0  0  0  0  0  0  0  0  0  0
   56.6478   20.9651   44.8660 H   0  0  0  0  0  0  0  0  0  0  0  0
   57.8600   22.2907   44.8660 H   0  0  0  0  0  0  0  0  0  0  0  0
   54.4100   21.4520   45.0530 H   0  0  0  0  0  0  0  0  0  0  0  0
   58.5192   26.2215   43.3008 H   0  0  0  0  0  0  0  0  0  0  0  0
   56.7934   26.5524   43.5127 H   0  0  0  0  0  0  0  0  0  0  0  0
   58.9396   28.5005   43.1124 H   0  0  0  0  0  0  0  0  0  0  0  0
   57.2490   28.8866   43.3754 H   0  0  0  0  0  0  0  0  0  0  0  0
   57.6354   34.2299   43.9276 H   0  0  0  0  0  0  0  0  0  0  0  0
   56.3670   33.7395   45.1121 H   0  0  0  0  0  0  0  0  0  0  0  0
   59.8213   34.7805   44.6468 H   0  0  0  0  0  0  0  0  0  0  0  0
   61.4421   35.1059   46.5172 H   0  0  0  0  0  0  0  0  0  0  0  0
   60.8968   34.2653   48.8051 H   0  0  0  0  0  0  0  0  0  0  0  0
   58.7357   33.0843   49.2205 H   0  0  0  0  0  0  0  0  0  0  0  0
   57.1122   32.7532   47.3543 H   0  0  0  0  0  0  0  0  0  0  0  0
   59.3818   31.0688   47.4537 H   0  0  0  0  0  0  0  0  0  0  0  0
   59.2096   29.0834   48.9714 H   0  0  0  0  0  0  0  0  0  0  0  0
   58.5255   26.8462   48.0473 H   0  0  0  0  0  0  0  0  0  0  0  0
  1  2  1  0
  2  3  1  0
  3  4  1  0
  4  5  2  0
  4  6  1  0
  6  7  1  0
  7  8  2  0
  7  9  1  0
  9 10  1  0
 10 11  2  0
 10 12  2  0
 10 13  1  0
 13 14  1  0
 14 15  1  0
 15 16  1  0
 16 17  2  0
 17 18  1  0
 18 19  1  0
 19 20  2  0
 19 21  2  0
 19 22  1  0
 22 23  1  0
 23 24  2  0
 24 25  1  0
 25 26  2  0
 26 27  1  0
 27 28  2  0
 17 29  1  0
 29 30  2  0
 30 31  1  0
 31 32  2  0
  9  2  2  0
 32 13  1  0
 32 16  1  0
 28 23  1  0
  1 33  1  0
  1 34  1  0
  1 35  1  0
  3 36  1  0
 14 37  1  0
 14 38  1  0
 15 39  1  0
 15 40  1  0
 22 41  1  0
 22 42  1  0
 24 43  1  0
 25 44  1  0
 26 45  1  0
 27 46  1  0
 28 47  1  0
 29 48  1  0
 30 49  1  0
 31 50  1  0
M  CHG  2   6  -1  18  -1
M  END
>  <UniqueID>  (7) 
7

>  <SMILES>  (7) 
Cc1[nH]c(=O)[n-]c(=O)c1S(=O)(=O)N1CCc2c([N-]S(=O)(=O)Cc3ccccc3)cccc21

>  <Energy>  (7) 
77.90613799174326

>  <Genealogy>  (7) 
Cc1[nH]c(=O)[n-]c(=O)c1S(=O)(=O)N1CCc2c([N-]S(=O)(=O)Cc3ccccc3)cccc21 (protonated)
Cc1[nH]c(=O)[n-]c(=O)c1S(=O)(=O)N1CCc2c([N-]S(=O)(=O)Cc3ccccc3)cccc21 (3D coordinates assigned)
Cc1[nH]c(=O)[n-]c(=O)c1S(=O)(=O)N1CCc2c([N-]S(=O)(=O)Cc3ccccc3)cccc21 (nonaromatic ring conformer: 77.90613799174326 kcal/mol)

>  <smiles>  (7) 
Cc1[nH]c(=O)[nH]c(=O)c1S(=O)(=O)N1CCc2c(NS(=O)(=O)Cc3ccccc3)cccc21

>  <score_type>  (7) 
oracle

>  <origin>  (7) 
adg

>  <m_score__min__energy>  (7) 
-13.48

>  <m_primary>  (7) 
energy

$$$$
7:0
     RDKit          3D

 48 50  0  0  0  0  0  0  0  0999 V2000
   55.1400   29.1240   44.5010 O   0  0  0  0  0  0  0  0  0  0  0  0
   56.3000   29.5870   44.6720 C   0  0  0  0  0  0  0  0  0  0  0  0
   56.9840   30.3040   43.5530 C   0  0  0  0  0  0  0  0  0  0  0  0
   58.1040   31.0840   44.0660 N   0  0  0  0  0  0  0  0  0  0  0  0
   58.1970   32.5090   43.9470 C   0  0  0  0  0  0  0  0  0  0  0  0
   57.9580   33.0660   42.8420 O   0  0  0  0  0  0  0  0  0  0  0  0
   58.6380   33.3130   45.1080 C   0  0  0  0  0  0  0  0  0  0  0  0
   59.2760   34.5440   44.8690 C   0  0  0  0  0  0  0  0  0  0  0  0
   59.6480   35.3720   45.9310 C   0  0  0  0  0  0  0  0  0  0  0  0
   59.3880   34.9820   47.2440 C   0  0  0  0  0  0  0  0  0  0  0  0
   58.7750   33.7560   47.5010 C   0  0  0  0  0  0  0  0  0  0  0  0
   58.4130   32.9040   46.4480 C   0  0  0  0  0  0  0  0  0  0  0  0
   57.8700   31.6590   46.7740 O   0  0  0  0  0  0  0  0  0  0  0  0
   56.9640   29.4440   45.9330 N   0  0  0  0  0  0  0  0  0  0  0  0
   57.6980   28.2870   46.3520 C   0  0  0  0  0  0  0  0  0  0  0  0
   57.1730   27.0190   46.0660 C   0  0  0  0  0  0  0  0  0  0  0  0
   57.8510   25.8600   46.4640 C   0  0  0  0  0  0  0  0  0  0  0  0
   57.1920   24.2820   46.0430 S   0  0  0  0  0  0  0  0  0  0  0  0
   57.5200   23.2860   47.1210 O   0  0  0  0  0  0  0  0  0  0  0  0
   55.6970   24.4040   45.9390 O   0  0  0  0  0  0  0  0  0  0  0  0
   57.8690   23.7770   44.5090 N   0  0  0  0  0  0  0  0  0  0  0  0
   58.1700   22.3280   44.4880 C   0  0  0  0  0  0  0  0  0  0  0  0
   57.0800   21.5040   43.7800 C   0  0  0  0  0  0  0  0  0  0  0  0
   55.8160   22.1020   43.9650 O   0  0  0  0  0  0  0  0  0  0  0  0
   55.7440   23.3250   43.2530 C   0  0  0  0  0  0  0  0  0  0  0  0
   57.0210   24.1890   43.3760 C   0  0  0  0  0  0  0  0  0  0  0  0
   59.0590   25.9720   47.1660 C   0  0  0  0  0  0  0  0  0  0  0  0
   59.5720   27.2310   47.4850 C   0  0  0  0  0  0  0  0  0  0  0  0
   58.8920   28.3890   47.0940 C   0  0  0  0  0  0  0  0  0  0  0  0
   59.3930   29.6280   47.4750 O   0  0  0  0  0  0  0  0  0  0  0  0
   57.3564   29.5691   42.8242 H   0  0  0  0  0  0  0  0  0  0  0  0
   56.2659   30.9820   43.0685 H   0  0  0  0  0  0  0  0  0  0  0  0
   59.4840   34.8577   43.8354 H   0  0  0  0  0  0  0  0  0  0  0  0
   60.1463   36.3321   45.7311 H   0  0  0  0  0  0  0  0  0  0  0  0
   59.6668   35.6423   48.0785 H   0  0  0  0  0  0  0  0  0  0  0  0
   58.5736   33.4546   48.5396 H   0  0  0  0  0  0  0  0  0  0  0  0
   58.0360   30.8200   46.2350 H   0  0  0  0  0  0  0  0  0  0  0  0
   56.2197   26.9336   45.5239 H   0  0  0  0  0  0  0  0  0  0  0  0
   59.1240   22.1746   43.9623 H   0  0  0  0  0  0  0  0  0  0  0  0
   58.2201   21.9844   45.5318 H   0  0  0  0  0  0  0  0  0  0  0  0
   57.3040   21.4545   42.7042 H   0  0  0  0  0  0  0  0  0  0  0  0
   57.0625   20.4910   44.2085 H   0  0  0  0  0  0  0  0  0  0  0  0
   55.5781   23.0989   42.1893 H   0  0  0  0  0  0  0  0  0  0  0  0
   54.9184   23.9052   43.6910 H   0  0  0  0  0  0  0  0  0  0  0  0
   57.6023   24.0952   42.4468 H   0  0  0  0  0  0  0  0  0  0  0  0
   56.7078   25.2288   43.5511 H   0  0  0  0  0  0  0  0  0  0  0  0
   59.6046   25.0654   47.4666 H   0  0  0  0  0  0  0  0  0  0  0  0
   60.5147   27.3123   48.0460 H   0  0  0  0  0  0  0  0  0  0  0  0
  1  2  2  0
  2  3  1  0
  3  4  1  0
  4  5  1  0
  5  6  2  0
  5  7  1  0
  7  8  2  0
  8  9  1  0
  9 10  2  0
 10 11  1  0
 11 12  2  0
 12 13  1  0
  2 14  1  0
 14 15  1  0
 15 16  2  0
 16 17  1  0
 17 18  1  0
 18 19  2  0
 18 20  2  0
 18 21  1  0
 21 22  1  0
 22 23  1  0
 23 24  1  0
 24 25  1  0
 25 26  1  0
 17 27  2  0
 27 28  1  0
 28 29  2  0
 29 30  1  0
 12  7  1  0
 29 15  1  0
 26 21  1  0
  3 31  1  0
  3 32  1  0
  8 33  1  0
  9 34  1  0
 10 35  1  0
 11 36  1  0
 13 37  1  0
 16 38  1  0
 22 39  1  0
 22 40  1  0
 23 41  1  0
 23 42  1  0
 25 43  1  0
 25 44  1  0
 26 45  1  0
 26 46  1  0
 27 47  1  0
 28 48  1  0
M  CHG  3   4  -1  14  -1  30  -1
M  END
>  <UniqueID>  (8) 
8

>  <SMILES>  (8) 
O=C(C[N-]C(=O)c1ccccc1O)[N-]c1cc(S(=O)(=O)N2CCOCC2)ccc1[O-]

>  <Energy>  (8) 
67.83489381930539

>  <Genealogy>  (8) 
O=C(C[N-]C(=O)c1ccccc1O)[N-]c1cc(S(=O)(=O)N2CCOCC2)ccc1[O-] (protonated)
O=C(C[N-]C(=O)c1ccccc1O)[N-]c1cc(S(=O)(=O)N2CCOCC2)ccc1[O-] (3D coordinates assigned)
O=C(C[N-]C(=O)c1ccccc1O)[N-]c1cc(S(=O)(=O)N2CCOCC2)ccc1[O-] (nonaromatic ring conformer: 67.83489381930539 kcal/mol)

>  <smiles>  (8) 
O=C(CNC(=O)c1ccccc1O)Nc1cc(S(=O)(=O)N2CCOCC2)ccc1O

>  <score_type>  (8) 
oracle

>  <origin>  (8) 
adg

>  <m_score__min__energy>  (8) 
-14.35

>  <m_primary>  (8) 
energy

$$$$
8:0
     RDKit          3D

 52 55  0  0  0  0  0  0  0  0999 V2000
   53.7455   24.3326   43.9165 H   0  0  0  0  0  0  0  0  0  0  0  0
   53.4760   23.8010   44.8410 C   0  0  0  0  0  0  0  0  0  0  0  0
   52.3660   23.0200   44.8820 N   0  0  0  0  0  0  0  0  0  0  0  0
   52.0050   22.3640   46.0160 C   0  0  0  0  0  0  0  0  0  0  0  0
   51.1092   21.7257   46.0259 H   0  0  0  0  0  0  0  0  0  0  0  0
   52.7820   22.5070   47.1710 C   0  0  0  0  0  0  0  0  0  0  0  0
   52.4070   21.8050   48.4360 C   0  0  0  0  0  0  0  0  0  0  0  0
   52.7286   22.4070   49.2986 H   0  0  0  0  0  0  0  0  0  0  0  0
   51.3160   21.6688   48.4702 H   0  0  0  0  0  0  0  0  0  0  0  0
   52.9004   20.8225   48.4702 H   0  0  0  0  0  0  0  0  0  0  0  0
   53.8950   23.2880   47.1270 N   0  0  0  0  0  0  0  0  0  0  0  0
   54.2770   23.9250   45.9870 C   0  0  0  0  0  0  0  0  0  0  0  0
   55.4730   24.7910   46.0100 C   0  0  0  0  0  0  0  0  0  0  0  0
   55.3210   26.0920   45.6460 N   0  0  0  0  0  0  0  0  0  0  0  0
   56.3650   26.9580   45.6210 C   0  0  0  0  0  0  0  0  0  0  0  0
   56.1550   28.1960   45.2820 N   0  0  0  0  0  0  0  0  0  0  0  0
   57.0300   29.3140   45.5050 C   0  0  0  0  0  0  0  0  0  0  0  0
   57.9990   29.3110   46.5250 C   0  0  0  0  0  0  0  0  0  0  0  0
   58.0842   28.4443   47.1970 H   0  0  0  0  0  0  0  0  0  0  0  0
   58.8540   30.4050   46.6880 C   0  0  0  0  0  0  0  0  0  0  0  0
   59.5947   30.4019   47.5012 H   0  0  0  0  0  0  0  0  0  0  0  0
   58.7750   31.5080   45.8220 C   0  0  0  0  0  0  0  0  0  0  0  0
   59.6440   32.6430   46.0030 N   0  0  0  0  0  0  0  0  0  0  0  0
   59.2870   33.9670   45.4860 C   0  0  0  0  0  0  0  0  0  0  0  0
   60.0117   34.2622   44.7129 H   0  0  0  0  0  0  0  0  0  0  0  0
   58.2752   33.9226   45.0568 H   0  0  0  0  0  0  0  0  0  0  0  0
   59.3040   35.0070   46.6220 C   0  0  0  0  0  0  0  0  0  0  0  0
   59.5297   35.9916   46.1866 H   0  0  0  0  0  0  0  0  0  0  0  0
   58.3140   34.9732   47.1003 H   0  0  0  0  0  0  0  0  0  0  0  0
   60.3060   34.7240   47.6840 N   0  0  0  0  0  0  0  0  0  0  0  0
   59.6740   34.2030   48.9080 C   0  0  0  0  0  0  0  0  0  0  0  0
   60.1817   34.6215   49.7895 H   0  0  0  0  0  0  0  0  0  0  0  0
   58.6128   34.4922   48.9244 H   0  0  0  0  0  0  0  0  0  0  0  0
   59.7554   33.1061   48.9244 H   0  0  0  0  0  0  0  0  0  0  0  0
   61.4150   33.8590   47.2270 C   0  0  0  0  0  0  0  0  0  0  0  0
   61.9445   34.3638   46.4055 H   0  0  0  0  0  0  0  0  0  0  0  0
   62.0849   33.6833   48.0816 H   0  0  0  0  0  0  0  0  0  0  0  0
   60.9100   32.4950   46.7290 C   0  0  0  0  0  0  0  0  0  0  0  0
   61.6619   32.0551   46.0573 H   0  0  0  0  0  0  0  0  0  0  0  0
   60.7444   31.8411   47.5979 H   0  0  0  0  0  0  0  0  0  0  0  0
   57.8210   31.4970   44.7900 C   0  0  0  0  0  0  0  0  0  0  0  0
   57.7457   32.3553   44.1062 H   0  0  0  0  0  0  0  0  0  0  0  0
   56.9670   30.4020   44.6270 C   0  0  0  0  0  0  0  0  0  0  0  0
   56.2396   30.3956   43.8019 H   0  0  0  0  0  0  0  0  0  0  0  0
   57.6010   26.5250   45.9880 N   0  0  0  0  0  0  0  0  0  0  0  0
   57.8120   25.2430   46.3760 C   0  0  0  0  0  0  0  0  0  0  0  0
   58.8243   24.9148   46.6544 H   0  0  0  0  0  0  0  0  0  0  0  0
   56.7460   24.3340   46.4240 C   0  0  0  0  0  0  0  0  0  0  0  0
   56.9960   22.9330   46.9140 C   0  0  0  0  0  0  0  0  0  0  0  0
   56.9976   22.9241   48.0140 H   0  0  0  0  0  0  0  0  0  0  0  0
   56.2024   22.2677   46.5431 H   0  0  0  0  0  0  0  0  0  0  0  0
   57.9707   22.5833   46.5431 H   0  0  0  0  0  0  0  0  0  0  0  0
  1  2  1  0
  2  3  2  0
  3  4  1  0
  4  5  1  0
  4  6  2  0
  6  7  1  0
  7  8  1  0
  7  9  1  0
  7 10  1  0
  6 11  1  0
 11 12  2  0
 12 13  1  0
 13 14  2  0
 14 15  1  0
 15 16  2  0
 16 17  1  0
 17 18  2  0
 18 19  1  0
 18 20  1  0
 20 21  1  0
 20 22  2  0
 22 23  1  0
 23 24  1  0
 24 25  1  0
 24 26  1  0
 24 27  1  0
 27 28  1  0
 27 29  1  0
 27 30  1  0
 30 31  1  0
 31 32  1  0
 31 33  1  0
 31 34  1  0
 30 35  1  0
 35 36  1  0
 35 37  1  0
 35 38  1  0
 38 39  1  0
 38 40  1  0
 22 41  1  0
 41 42  1  0
 41 43  2  0
 43 44  1  0
 15 45  1  0
 45 46  1  0
 46 47  1  0
 46 48  2  0
 48 49  1  0
 49 50  1  0
 49 51  1  0
 49 52  1  0
 12  2  1  0
 48 13  1  0
 43 17  1  0
 38 23  1  0
M  CHG  1  45  -1
M  END
>  <UniqueID>  (9) 
9

>  <SMILES>  (9) 
Cc1cncc(-c2n/c(=N/c3ccc(N4CCN(C)CC4)cc3)[n-]cc2C)n1

>  <Energy>  (9) 
80.78413844052177

>  <Genealogy>  (9) 
Cc1cncc(-c2nc(=Nc3ccc(N4CCN(C)CC4)cc3)[n-]cc2C)n1 (protonated)
Cc1cncc(-c2n/c(=N/c3ccc(N4CCN(C)CC4)cc3)[n-]cc2C)n1 (cis-trans isomerization)
Cc1cncc(-c2n/c(=N/c3ccc(N4CCN(C)CC4)cc3)[n-]cc2C)n1 (3D coordinates assigned)
Cc1cncc(-c2n/c(=N/c3ccc(N4CCN(C)CC4)cc3)[n-]cc2C)n1 (nonaromatic ring conformer: 80.78413844052177 kcal/mol)

>  <smiles>  (9) 
Cc1cncc(-c2nc(=Nc3ccc(N4CCN(C)CC4)cc3)[nH]cc2C)n1

>  <score_type>  (9) 
oracle

>  <origin>  (9) 
adg

>  <m_score__min__energy>  (9) 
-9.4499999999999993

>  <m_primary>  (9) 
energy

$$$$
9:0
     RDKit          3D

 52 54  0  0  0  0  0  0  0  0999 V2000
   58.7670   29.7400   47.6570 C   0  0  0  0  0  0  0  0  0  0  0  0
   58.1590   30.8860   47.0680 O   0  0  0  0  0  0  0  0  0  0  0  0
   58.8210   32.0990   46.8140 C   0  0  0  0  0  0  0  0  0  0  0  0
   60.0690   32.3990   47.3980 C   0  0  0  0  0  0  0  0  0  0  0  0
   60.6980   33.6330   47.1510 C   0  0  0  0  0  0  0  0  0  0  0  0
   61.9660   33.9740   47.7270 N   0  0  0  0  0  0  0  0  0  0  0  0
   63.3780   32.9670   47.7210 S   0  0  0  0  0  0  0  0  0  0  0  0
   64.4090   33.4200   49.1000 C   0  0  0  0  0  0  0  0  0  0  0  0
   64.1450   33.1760   46.4470 O   0  0  0  0  0  0  0  0  0  0  0  0
   62.9810   31.5240   47.8510 O   0  0  0  0  0  0  0  0  0  0  0  0
   60.0720   34.5690   46.3260 C   0  0  0  0  0  0  0  0  0  0  0  0
   58.8450   34.2800   45.7320 C   0  0  0  0  0  0  0  0  0  0  0  0
   58.2190   33.0420   45.9520 C   0  0  0  0  0  0  0  0  0  0  0  0
   56.8900   32.7700   45.3020 C   0  0  0  0  0  0  0  0  0  0  0  0
   56.7370   31.3320   45.1020 N   0  0  0  0  0  0  0  0  0  0  0  0
   57.2480   30.6070   43.9810 C   0  0  0  0  0  0  0  0  0  0  0  0
   56.7810   30.8520   42.8430 O   0  0  0  0  0  0  0  0  0  0  0  0
   58.3100   29.5500   44.1170 C   0  0  0  0  0  0  0  0  0  0  0  0
   57.7980   28.3350   44.8340 C   0  0  0  0  0  0  0  0  0  0  0  0
   58.6180   26.8780   45.0520 S   0  0  0  0  0  0  0  0  0  0  0  0
   57.3020   26.1230   45.7920 C   0  0  0  0  0  0  0  0  0  0  0  0
   57.2870   24.7750   46.2990 N   0  0  0  0  0  0  0  0  0  0  0  0
   58.1180   23.7550   45.6440 C   0  0  0  0  0  0  0  0  0  0  0  0
   57.5940   22.3470   45.9480 C   0  0  0  0  0  0  0  0  0  0  0  0
   57.3810   22.1780   47.3360 O   0  0  0  0  0  0  0  0  0  0  0  0
   56.3260   23.0210   47.7520 C   0  0  0  0  0  0  0  0  0  0  0  0
   56.7260   24.4940   47.6290 C   0  0  0  0  0  0  0  0  0  0  0  0
   56.2300   26.9470   45.8500 N   0  0  0  0  0  0  0  0  0  0  0  0
   56.5020   28.1670   45.3120 C   0  0  0  0  0  0  0  0  0  0  0  0
   55.5390   29.1680   45.2440 O   0  0  0  0  0  0  0  0  0  0  0  0
   58.7225   29.8238   48.7529 H   0  0  0  0  0  0  0  0  0  0  0  0
   58.2305   28.8348   47.3364 H   0  0  0  0  0  0  0  0  0  0  0  0
   59.8173   29.6766   47.3364 H   0  0  0  0  0  0  0  0  0  0  0  0
   60.5554   31.6611   48.0530 H   0  0  0  0  0  0  0  0  0  0  0  0
   63.8859   33.1902   50.0400 H   0  0  0  0  0  0  0  0  0  0  0  0
   65.3503   32.8526   49.0560 H   0  0  0  0  0  0  0  0  0  0  0  0
   64.6277   34.4971   49.0560 H   0  0  0  0  0  0  0  0  0  0  0  0
   60.5510   35.5423   46.1434 H   0  0  0  0  0  0  0  0  0  0  0  0
   58.3626   35.0277   45.0853 H   0  0  0  0  0  0  0  0  0  0  0  0
   56.0814   33.1391   45.9500 H   0  0  0  0  0  0  0  0  0  0  0  0
   56.8421   33.2846   44.3310 H   0  0  0  0  0  0  0  0  0  0  0  0
   58.6491   29.2546   43.1131 H   0  0  0  0  0  0  0  0  0  0  0  0
   59.1382   29.9710   44.7059 H   0  0  0  0  0  0  0  0  0  0  0  0
   58.0999   23.9193   44.5565 H   0  0  0  0  0  0  0  0  0  0  0  0
   59.1456   23.8387   46.0274 H   0  0  0  0  0  0  0  0  0  0  0  0
   56.6434   22.1936   45.4162 H   0  0  0  0  0  0  0  0  0  0  0  0
   58.3426   21.6132   45.6148 H   0  0  0  0  0  0  0  0  0  0  0  0
   55.4442   22.8329   47.1218 H   0  0  0  0  0  0  0  0  0  0  0  0
   56.0966   22.8048   48.8059 H   0  0  0  0  0  0  0  0  0  0  0  0
   55.8373   25.1230   47.7855 H   0  0  0  0  0  0  0  0  0  0  0  0
   57.4911   24.7154   48.3876 H   0  0  0  0  0  0  0  0  0  0  0  0
   55.7210   30.0850   45.6280 H   0  0  0  0  0  0  0  0  0  0  0  0
  1  2  1  0
  2  3  1  0
  3  4  2  0
  4  5  1  0
  5  6  1  0
  6  7  1  0
  7  8  1  0
  7  9  2  0
  7 10  2  0
  5 11  2  0
 11 12  1  0
 12 13  2  0
 13 14  1  0
 14 15  1  0
 15 16  1  0
 16 17  2  0
 16 18  1  0
 18 19  1  0
 19 20  1  0
 20 21  1  0
 21 22  1  0
 22 23  1  0
 23 24  1  0
 24 25  1  0
 25 26  1  0
 26 27  1  0
 21 28  2  0
 28 29  1  0
 29 30  1  0
 13  3  1  0
 29 19  2  0
 27 22  1  0
  1 31  1  0
  1 32  1  0
  1 33  1  0
  4 34  1  0
  8 35  1  0
  8 36  1  0
  8 37  1  0
 11 38  1  0
 12 39  1  0
 14 40  1  0
 14 41  1  0
 18 42  1  0
 18 43  1  0
 23 44  1  0
 23 45  1  0
 24 46  1  0
 24 47  1  0
 26 48  1  0
 26 49  1  0
 27 50  1  0
 27 51  1  0
 30 52  1  0
M  CHG  2   6  -1  15  -1
M  END
>  <UniqueID>  (10) 
10

>  <SMILES>  (10) 
COc1cc([N-]S(C)(=O)=O)ccc1C[N-]C(=O)Cc1sc(N2CCOCC2)nc1O

>  <Energy>  (10) 
79.90874829008384

>  <Genealogy>  (10) 
COc1cc([N-]S(C)(=O)=O)ccc1C[N-]C(=O)Cc1sc(N2CCOCC2)nc1O (protonated)
COc1cc([N-]S(C)(=O)=O)ccc1C[N-]C(=O)Cc1sc(N2CCOCC2)nc1O (3D coordinates assigned)
COc1cc([N-]S(C)(=O)=O)ccc1C[N-]C(=O)Cc1sc(N2CCOCC2)nc1O (nonaromatic ring conformer: 79.90874829008384 kcal/mol)

>  <smiles>  (10) 
COc1cc(NS(C)(=O)=O)ccc1CNC(=O)Cc1sc(N2CCOCC2)nc1O

>  <score_type>  (10) 
oracle

>  <origin>  (10) 
adg

>  <m_score__min__energy>  (10) 
-12.51

>  <m_primary>  (10) 
energy

$$$$
10:0
     RDKit          3D

 48 50  0  0  0  0  0  0  0  0999 V2000
   54.7710   27.2550   45.9870 H   0  0  0  0  0  0  0  0  0  0  0  0
   54.7450   26.2440   45.9280 O   0  0  0  0  0  0  0  0  0  0  0  0
   55.8960   25.4700   46.0630 C   0  0  0  0  0  0  0  0  0  0  0  0
   55.7690   24.0770   46.1570 C   0  0  0  0  0  0  0  0  0  0  0  0
   54.7691   23.6205   46.1994 H   0  0  0  0  0  0  0  0  0  0  0  0
   56.9020   23.2680   46.1970 C   0  0  0  0  0  0  0  0  0  0  0  0
   56.8034   22.1754   46.2782 H   0  0  0  0  0  0  0  0  0  0  0  0
   58.1610   23.8590   46.1330 C   0  0  0  0  0  0  0  0  0  0  0  0
   59.0640   23.2309   46.1399 H   0  0  0  0  0  0  0  0  0  0  0  0
   58.2750   25.2110   46.0620 N   0  0  0  0  0  0  0  0  0  0  0  0
   57.1970   26.0420   46.0520 C   0  0  0  0  0  0  0  0  0  0  0  0
   57.4260   27.3260   45.9970 N   0  0  0  0  0  0  0  0  0  0  0  0
   56.8850   28.2980   45.0930 C   0  0  0  0  0  0  0  0  0  0  0  0
   55.6740   28.6360   45.1870 O   0  0  0  0  0  0  0  0  0  0  0  0
   57.8120   28.9430   44.0870 C   0  0  0  0  0  0  0  0  0  0  0  0
   57.1948   29.5148   43.3785 H   0  0  0  0  0  0  0  0  0  0  0  0
   58.3739   28.1163   43.6278 H   0  0  0  0  0  0  0  0  0  0  0  0
   58.8320   29.8600   44.6420 N   0  0  0  0  0  0  0  0  0  0  0  0
   59.7070   29.2190   45.6430 C   0  0  0  0  0  0  0  0  0  0  0  0
   60.2732   28.4100   45.1583 H   0  0  0  0  0  0  0  0  0  0  0  0
   59.0762   28.8221   46.4520 H   0  0  0  0  0  0  0  0  0  0  0  0
   60.6950   30.2280   46.2490 C   0  0  0  0  0  0  0  0  0  0  0  0
   61.2313   30.7245   45.4269 H   0  0  0  0  0  0  0  0  0  0  0  0
   61.3675   29.6604   46.9090 H   0  0  0  0  0  0  0  0  0  0  0  0
   60.0200   31.3200   47.1230 C   0  0  0  0  0  0  0  0  0  0  0  0
   60.4461   32.2964   46.8490 H   0  0  0  0  0  0  0  0  0  0  0  0
   60.2145   31.0567   48.1732 H   0  0  0  0  0  0  0  0  0  0  0  0
   58.5530   31.3890   46.9600 N   0  0  0  0  0  0  0  0  0  0  0  0
   58.0060   32.6000   47.6000 C   0  0  0  0  0  0  0  0  0  0  0  0
   56.9150   32.4982   47.6964 H   0  0  0  0  0  0  0  0  0  0  0  0
   58.2493   33.4743   46.9784 H   0  0  0  0  0  0  0  0  0  0  0  0
   58.6140   32.7880   48.9750 C   0  0  0  0  0  0  0  0  0  0  0  0
   58.1170   32.0010   50.0300 C   0  0  0  0  0  0  0  0  0  0  0  0
   57.3168   31.2720   49.8345 H   0  0  0  0  0  0  0  0  0  0  0  0
   58.6280   32.1350   51.3220 C   0  0  0  0  0  0  0  0  0  0  0  0
   58.2262   31.5173   52.1387 H   0  0  0  0  0  0  0  0  0  0  0  0
   59.6460   33.0500   51.5780 C   0  0  0  0  0  0  0  0  0  0  0  0
   60.0462   33.1546   52.5973 H   0  0  0  0  0  0  0  0  0  0  0  0
   60.1600   33.8350   50.5440 C   0  0  0  0  0  0  0  0  0  0  0  0
   60.9652   34.5542   50.7548 H   0  0  0  0  0  0  0  0  0  0  0  0
   59.6580   33.7150   49.2350 C   0  0  0  0  0  0  0  0  0  0  0  0
   60.2450   34.5780   48.1500 C   0  0  0  0  0  0  0  0  0  0  0  0
   60.8083   35.4062   48.6047 H   0  0  0  0  0  0  0  0  0  0  0  0
   60.9204   33.9741   47.5263 H   0  0  0  0  0  0  0  0  0  0  0  0
   59.4351   34.9843   47.5263 H   0  0  0  0  0  0  0  0  0  0  0  0
   58.1640   31.3480   45.2620 S   0  0  0  0  0  0  0  0  0  0  0  0
   56.6770   31.4150   45.0500 O   0  0  0  0  0  0  0  0  0  0  0  0
   58.8120   32.5070   44.5570 O   0  0  0  0  0  0  0  0  0  0  0  0
  1  2  1  0
  2  3  1  0
  3  4  2  0
  4  5  1  0
  4  6  1  0
  6  7  1  0
  6  8  2  0
  8  9  1  0
  8 10  1  0
 10 11  1  0
 11 12  2  0
 12 13  1  0
 13 14  2  0
 13 15  1  0
 15 16  1  0
 15 17  1  0
 15 18  1  0
 18 19  1  0
 19 20  1  0
 19 21  1  0
 19 22  1  0
 22 23  1  0
 22 24  1  0
 22 25  1  0
 25 26  1  0
 25 27  1  0
 25 28  1  0
 28 29  1  0
 29 30  1  0
 29 31  1  0
 29 32  1  0
 32 33  2  0
 33 34  1  0
 33 35  1  0
 35 36  1  0
 35 37  2  0
 37 38  1  0
 37 39  1  0
 39 40  1  0
 39 41  2  0
 41 42  1  0
 42 43  1  0
 42 44  1  0
 42 45  1  0
 28 46  1  0
 46 47  2  0
 46 48  2  0
 11  3  1  0
 46 18  1  0
 41 32  1  0
M  CHG  1  10  -1
M  END
>  <UniqueID>  (11) 
11

>  <SMILES>  (11) 
Cc1ccccc1CN1CCCN(CC(=O)/N=c2/[n-]cccc2O)S1(=O)=O

>  <Energy>  (11) 
69.94108710711856

>  <Genealogy>  (11) 
Cc1ccccc1CN1CCCN(CC(=O)N=c2[n-]cccc2O)S1(=O)=O (protonated)
Cc1ccccc1CN1CCCN(CC(=O)/N=c2/[n-]cccc2O)S1(=O)=O (cis-trans isomerization)
Cc1ccccc1CN1CCCN(CC(=O)/N=c2/[n-]cccc2O)S1(=O)=O (3D coordinates assigned)
Cc1ccccc1CN1CCCN(CC(=O)/N=c2/[n-]cccc2O)S1(=O)=O (nonaromatic ring conformer: 69.94108710711856 kcal/mol)

>  <smiles>  (11) 
Cc1ccccc1CN1CCCN(CC(=O)N=c2[nH]cccc2O)S1(=O)=O

>  <score_type>  (11) 
oracle

>  <origin>  (11) 
adg

>  <m_score__min__energy>  (11) 
-11.949999999999999

>  <m_primary>  (11) 
energy

$$$$
11:0
     RDKit          3D

 58 61  0  0  0  0  0  0  0  0999 V2000
   57.6109   33.9061   48.5948 H   0  0  0  0  0  0  0  0  0  0  0  0
   58.3650   33.8260   47.7980 C   0  0  0  0  0  0  0  0  0  0  0  0
   59.6730   34.0670   48.0750 N   0  0  0  0  0  0  0  0  0  0  0  0
   60.6420   33.9810   47.1190 C   0  0  0  0  0  0  0  0  0  0  0  0
   61.8930   34.2120   47.3990 N   0  0  0  0  0  0  0  0  0  0  0  0
   63.0450   33.6580   46.7400 C   0  0  0  0  0  0  0  0  0  0  0  0
   63.4300   34.1160   45.6270 O   0  0  0  0  0  0  0  0  0  0  0  0
   63.7900   32.6060   47.4030 N   0  0  0  0  0  0  0  0  0  0  0  0
   64.7490   32.6070   46.9830 H   0  0  0  0  0  0  0  0  0  0  0  0
   63.9630   32.8160   48.8500 C   0  0  0  0  0  0  0  0  0  0  0  0
   64.7341   32.1184   49.2087 H   0  0  0  0  0  0  0  0  0  0  0  0
   64.2434   33.8715   48.9819 H   0  0  0  0  0  0  0  0  0  0  0  0
   62.6830   32.5930   49.6870 C   0  0  0  0  0  0  0  0  0  0  0  0
   62.9820   32.1444   50.6458 H   0  0  0  0  0  0  0  0  0  0  0  0
   62.2135   33.5835   49.7798 H   0  0  0  0  0  0  0  0  0  0  0  0
   61.6520   31.7180   49.0790 N   0  0  0  0  0  0  0  0  0  0  0  0
   60.3960   31.5060   49.7960 C   0  0  0  0  0  0  0  0  0  0  0  0
   59.6450   30.3200   49.6260 C   0  0  0  0  0  0  0  0  0  0  0  0
   60.0059   29.5452   48.9336 H   0  0  0  0  0  0  0  0  0  0  0  0
   58.4530   30.1170   50.3230 C   0  0  0  0  0  0  0  0  0  0  0  0
   57.8879   29.1844   50.1782 H   0  0  0  0  0  0  0  0  0  0  0  0
   57.9740   31.0860   51.2000 C   0  0  0  0  0  0  0  0  0  0  0  0
   57.0401   30.9102   51.7539 H   0  0  0  0  0  0  0  0  0  0  0  0
   58.6780   32.2860   51.3800 C   0  0  0  0  0  0  0  0  0  0  0  0
   58.1950   33.3210   52.3670 C   0  0  0  0  0  0  0  0  0  0  0  0
   58.6440   33.0190   53.6400 F   0  0  0  0  0  0  0  0  0  0  0  0
   56.8130   33.3360   52.3680 F   0  0  0  0  0  0  0  0  0  0  0  0
   58.6570   34.5810   52.0330 F   0  0  0  0  0  0  0  0  0  0  0  0
   59.8920   32.4780   50.6960 C   0  0  0  0  0  0  0  0  0  0  0  0
   60.4630   33.4032   50.8633 H   0  0  0  0  0  0  0  0  0  0  0  0
   61.7980   31.1580   47.7220 C   0  0  0  0  0  0  0  0  0  0  0  0
   61.5302   30.0916   47.7561 H   0  0  0  0  0  0  0  0  0  0  0  0
   61.1348   31.7376   47.0630 H   0  0  0  0  0  0  0  0  0  0  0  0
   63.2100   31.2820   47.1530 C   0  0  0  0  0  0  0  0  0  0  0  0
   63.8498   30.5199   47.6219 H   0  0  0  0  0  0  0  0  0  0  0  0
   63.1509   31.1375   46.0641 H   0  0  0  0  0  0  0  0  0  0  0  0
   60.2890   33.6330   45.8090 C   0  0  0  0  0  0  0  0  0  0  0  0
   61.0606   33.5662   45.0278 H   0  0  0  0  0  0  0  0  0  0  0  0
   58.9460   33.3700   45.4980 C   0  0  0  0  0  0  0  0  0  0  0  0
   58.5400   33.0160   44.0900 C   0  0  0  0  0  0  0  0  0  0  0  0
   57.5625   33.4709   43.8719 H   0  0  0  0  0  0  0  0  0  0  0  0
   59.3047   33.3976   43.3974 H   0  0  0  0  0  0  0  0  0  0  0  0
   58.4400   31.5500   43.9220 N   0  0  0  0  0  0  0  0  0  0  0  0
   57.2200   31.1700   43.1670 C   0  0  0  0  0  0  0  0  0  0  0  0
   56.8346   32.0580   42.6445 H   0  0  0  0  0  0  0  0  0  0  0  0
   57.4938   30.3774   42.4550 H   0  0  0  0  0  0  0  0  0  0  0  0
   56.1190   30.6200   44.0910 C   0  0  0  0  0  0  0  0  0  0  0  0
   55.8342   31.4102   44.8013 H   0  0  0  0  0  0  0  0  0  0  0  0
   55.2809   30.3140   43.4476 H   0  0  0  0  0  0  0  0  0  0  0  0
   56.5170   29.4740   44.8300 O   0  0  0  0  0  0  0  0  0  0  0  0
   57.9030   29.4500   45.1440 C   0  0  0  0  0  0  0  0  0  0  0  0
   58.0300   28.9548   46.1180 H   0  0  0  0  0  0  0  0  0  0  0  0
   58.4080   28.9097   44.3297 H   0  0  0  0  0  0  0  0  0  0  0  0
   58.5430   30.8460   45.2220 C   0  0  0  0  0  0  0  0  0  0  0  0
   58.0260   31.4363   45.9929 H   0  0  0  0  0  0  0  0  0  0  0  0
   59.6073   30.7304   45.4749 H   0  0  0  0  0  0  0  0  0  0  0  0
   57.9770   33.4770   46.5040 C   0  0  0  0  0  0  0  0  0  0  0  0
   56.9179   33.2872   46.2754 H   0  0  0  0  0  0  0  0  0  0  0  0
  1  2  1  0
  2  3  1  0
  3  4  1  0
  4  5  2  0
  5  6  1  0
  6  7  2  0
  6  8  1  0
  8  9  1  0
  8 10  1  0
 10 11  1  0
 10 12  1  0
 10 13  1  0
 13 14  1  0
 13 15  1  0
 13 16  1  0
 16 17  1  0
 17 18  2  0
 18 19  1  0
 18 20  1  0
 20 21  1  0
 20 22  2  0
 22 23  1  0
 22 24  1  0
 24 25  1  0
 25 26  1  0
 25 27  1  0
 25 28  1  0
 24 29  2  0
 29 30  1  0
 16 31  1  0
 31 32  1  0
 31 33  1  0
 31 34  1  0
 34 35  1  0
 34 36  1  0
  4 37  1  0
 37 38  1  0
 37 39  2  0
 39 40  1  0
 40 41  1  0
 40 42  1  0
 40 43  1  0
 43 44  1  0
 44 45  1  0
 44 46  1  0
 44 47  1  0
 47 48  1  0
 47 49  1  0
 47 50  1  0
 50 51  1  0
 51 52  1  0
 51 53  1  0
 51 54  1  0
 54 55  1  0
 54 56  1  0
 39 57  1  0
 57 58  1  0
 57  2  2  0
 34  8  1  0
 54 43  1  0
 29 17  1  0
M  CHG  2   3  -1   8   1
M  END
>  <UniqueID>  (12) 
12

>  <SMILES>  (12) 
O=C(/N=c1/cc(CN2CCOCC2)cc[n-]1)[NH+]1CCN(c2cccc(C(F)(F)F)c2)CC1

>  <Energy>  (12) 
92.04507979824785

>  <Genealogy>  (12) 
O=C(N=c1cc(CN2CCOCC2)cc[n-]1)[NH+]1CCN(c2cccc(C(F)(F)F)c2)CC1 (protonated)
O=C(/N=c1/cc(CN2CCOCC2)cc[n-]1)[NH+]1CCN(c2cccc(C(F)(F)F)c2)CC1 (cis-trans isomerization)
O=C(/N=c1/cc(CN2CCOCC2)cc[n-]1)[NH+]1CCN(c2cccc(C(F)(F)F)c2)CC1 (3D coordinates assigned)
O=C(/N=c1/cc(CN2CCOCC2)cc[n-]1)[NH+]1CCN(c2cccc(C(F)(F)F)c2)CC1 (nonaromatic ring conformer: 92.04507979824785 kcal/mol)

>  <smiles>  (12) 
O=C(N=c1cc(CN2CCOCC2)cc[nH]1)N1CCN(c2cccc(C(F)(F)F)c2)CC1

>  <score_type>  (12) 
oracle

>  <origin>  (12) 
adg

>  <m_score__min__energy>  (12) 
-10.210000000000001

>  <m_primary>  (12) 
energy

$$$$
12:0
     RDKit          3D

 69 73  0  0  0  0  0  0  0  0999 V2000
   51.7224   21.0793   46.4375 H   0  0  0  0  0  0  0  0  0  0  0  0
   52.2000   21.9470   45.9590 C   0  0  0  0  0  0  0  0  0  0  0  0
   53.5550   22.0030   45.8490 N   0  0  0  0  0  0  0  0  0  0  0  0
   54.1880   23.0600   45.2650 C   0  0  0  0  0  0  0  0  0  0  0  0
   55.4830   23.0910   45.1650 N   0  0  0  0  0  0  0  0  0  0  0  0
   56.5160   23.9490   46.2630 S   0  0  0  0  0  0  0  0  0  0  0  0
   55.7650   24.2270   47.5350 O   0  0  0  0  0  0  0  0  0  0  0  0
   57.7160   23.1050   46.5910 O   0  0  0  0  0  0  0  0  0  0  0  0
   57.0050   25.4770   45.5390 C   0  0  0  0  0  0  0  0  0  0  0  0
   57.7380   25.5060   44.3460 C   0  0  0  0  0  0  0  0  0  0  0  0
   58.0320   24.5633   43.8613 H   0  0  0  0  0  0  0  0  0  0  0  0
   58.0980   26.7270   43.7680 C   0  0  0  0  0  0  0  0  0  0  0  0
   58.6796   26.7394   42.8344 H   0  0  0  0  0  0  0  0  0  0  0  0
   57.7210   27.9400   44.3730 C   0  0  0  0  0  0  0  0  0  0  0  0
   58.0580   29.2180   43.8050 N   0  0  0  0  0  0  0  0  0  0  0  0
   58.9990   29.3460   43.3670 H   0  0  0  0  0  0  0  0  0  0  0  0
   57.0130   30.6040   43.8190 S   0  0  0  0  0  0  0  0  0  0  0  0
   56.6400   30.9540   42.4070 O   0  0  0  0  0  0  0  0  0  0  0  0
   55.7640   30.2650   44.5820 O   0  0  0  0  0  0  0  0  0  0  0  0
   57.7990   31.9750   44.6020 C   0  0  0  0  0  0  0  0  0  0  0  0
   57.2390   33.2480   44.4980 C   0  0  0  0  0  0  0  0  0  0  0  0
   56.3174   33.3954   43.9159 H   0  0  0  0  0  0  0  0  0  0  0  0
   57.8430   34.3340   45.1290 C   0  0  0  0  0  0  0  0  0  0  0  0
   57.3918   35.3332   45.0401 H   0  0  0  0  0  0  0  0  0  0  0  0
   59.0220   34.1690   45.8780 C   0  0  0  0  0  0  0  0  0  0  0  0
   59.6680   35.3940   46.4700 C   0  0  0  0  0  0  0  0  0  0  0  0
   59.6351   35.3316   47.5677 H   0  0  0  0  0  0  0  0  0  0  0  0
   60.7148   35.4536   46.1373 H   0  0  0  0  0  0  0  0  0  0  0  0
   59.1259   36.2915   46.1373 H   0  0  0  0  0  0  0  0  0  0  0  0
   59.5850   32.8720   46.0120 C   0  0  0  0  0  0  0  0  0  0  0  0
   60.8020   32.5920   46.8150 C   0  0  0  0  0  0  0  0  0  0  0  0
   61.8470   33.2720   46.6100 O   0  0  0  0  0  0  0  0  0  0  0  0
   60.8140   31.5550   47.8080 N   0  0  0  0  0  0  0  0  0  0  0  0
   59.8560   31.4200   48.8690 C   0  0  0  0  0  0  0  0  0  0  0  0
   59.4630   32.5380   49.6290 C   0  0  0  0  0  0  0  0  0  0  0  0
   59.8509   33.5354   49.3745 H   0  0  0  0  0  0  0  0  0  0  0  0
   58.5830   32.3890   50.7050 C   0  0  0  0  0  0  0  0  0  0  0  0
   58.2759   33.2691   51.2891 H   0  0  0  0  0  0  0  0  0  0  0  0
   58.0940   31.1270   51.0390 C   0  0  0  0  0  0  0  0  0  0  0  0
   57.3988   31.0130   51.8838 H   0  0  0  0  0  0  0  0  0  0  0  0
   58.4860   30.0070   50.3020 C   0  0  0  0  0  0  0  0  0  0  0  0
   58.1022   29.0123   50.5726 H   0  0  0  0  0  0  0  0  0  0  0  0
   59.3670   30.1440   49.2180 C   0  0  0  0  0  0  0  0  0  0  0  0
   59.7430   28.9740   48.4760 N   0  0  0  0  0  0  0  0  0  0  0  0
   60.0670   27.7440   49.2090 C   0  0  0  0  0  0  0  0  0  0  0  0
   60.7372   27.9935   50.0448 H   0  0  0  0  0  0  0  0  0  0  0  0
   59.1267   27.3054   49.5742 H   0  0  0  0  0  0  0  0  0  0  0  0
   60.7560   26.7140   48.3120 C   0  0  0  0  0  0  0  0  0  0  0  0
   61.8017   27.0162   48.1530 H   0  0  0  0  0  0  0  0  0  0  0  0
   60.7124   25.7316   48.8049 H   0  0  0  0  0  0  0  0  0  0  0  0
   60.1050   26.6230   47.0620 O   0  0  0  0  0  0  0  0  0  0  0  0
   60.3120   27.8240   46.3480 C   0  0  0  0  0  0  0  0  0  0  0  0
   61.3891   28.0458   46.3211 H   0  0  0  0  0  0  0  0  0  0  0  0
   59.9198   27.6983   45.3280 H   0  0  0  0  0  0  0  0  0  0  0  0
   59.5760   28.9910   47.0150 C   0  0  0  0  0  0  0  0  0  0  0  0
   59.9762   29.9369   46.6212 H   0  0  0  0  0  0  0  0  0  0  0  0
   58.5035   28.8937   46.7908 H   0  0  0  0  0  0  0  0  0  0  0  0
   58.9640   31.7900   45.3580 C   0  0  0  0  0  0  0  0  0  0  0  0
   59.4006   30.7839   45.4422 H   0  0  0  0  0  0  0  0  0  0  0  0
   56.9920   27.9000   45.5720 C   0  0  0  0  0  0  0  0  0  0  0  0
   56.7004   28.8401   46.0632 H   0  0  0  0  0  0  0  0  0  0  0  0
   56.6330   26.6790   46.1480 C   0  0  0  0  0  0  0  0  0  0  0  0
   56.0555   26.6634   47.0841 H   0  0  0  0  0  0  0  0  0  0  0  0
   53.4320   24.1270   44.7640 C   0  0  0  0  0  0  0  0  0  0  0  0
   53.9308   24.9887   44.2964 H   0  0  0  0  0  0  0  0  0  0  0  0
   52.0400   24.0880   44.8630 C   0  0  0  0  0  0  0  0  0  0  0  0
   51.4362   24.9186   44.4686 H   0  0  0  0  0  0  0  0  0  0  0  0
   51.4150   22.9920   45.4640 C   0  0  0  0  0  0  0  0  0  0  0  0
   50.3188   22.9523   45.5464 H   0  0  0  0  0  0  0  0  0  0  0  0
  1  2  1  0
  2  3  1  0
  3  4  1  0
  4  5  2  0
  5  6  1  0
  6  7  2  0
  6  8  2  0
  6  9  1  0
  9 10  2  0
 10 11  1  0
 10 12  1  0
 12 13  1  0
 12 14  2  0
 14 15  1  0
 15 16  1  0
 15 17  1  0
 17 18  2  0
 17 19  2  0
 17 20  1  0
 20 21  2  0
 21 22  1  0
 21 23  1  0
 23 24  1  0
 23 25  2  0
 25 26  1  0
 26 27  1  0
 26 28  1  0
 26 29  1  0
 25 30  1  0
 30 31  1  0
 31 32  2  0
 31 33  1  0
 33 34  1  0
 34 35  2  0
 35 36  1  0
 35 37  1  0
 37 38  1  0
 37 39  2  0
 39 40  1  0
 39 41  1  0
 41 42  1  0
 41 43  2  0
 43 44  1  0
 44 45  1  0
 45 46  1  0
 45 47  1  0
 45 48  1  0
 48 49  1  0
 48 50  1  0
 48 51  1  0
 51 52  1  0
 52 53  1  0
 52 54  1  0
 52 55  1  0
 55 56  1  0
 55 57  1  0
 30 58  2  0
 58 59  1  0
 14 60  1  0
 60 61  1  0
 60 62  2  0
 62 63  1  0
  4 64  1  0
 64 65  1  0
 64 66  2  0
 66 67  1  0
 66 68  1  0
 68 69  1  0
 68  2  2  0
 62  9  1  0
 58 20  1  0
 43 34  1  0
 55 44  1  0
M  CHG  2   3  -1  33  -1
M  END
>  <UniqueID>  (13) 
13

>  <SMILES>  (13) 
Cc1ccc(S(=O)(=O)Nc2ccc(S(=O)(=O)/N=c3/cccc[n-]3)cc2)cc1C(=O)[N-]c1ccccc1N1CCOCC1

>  <Energy>  (13) 
96.70721142370923

>  <Genealogy>  (13) 
Cc1ccc(S(=O)(=O)Nc2ccc(S(=O)(=O)N=c3cccc[n-]3)cc2)cc1C(=O)[N-]c1ccccc1N1CCOCC1 (protonated)
Cc1ccc(S(=O)(=O)Nc2ccc(S(=O)(=O)/N=c3/cccc[n-]3)cc2)cc1C(=O)[N-]c1ccccc1N1CCOCC1 (cis-trans isomerization)
Cc1ccc(S(=O)(=O)Nc2ccc(S(=O)(=O)/N=c3/cccc[n-]3)cc2)cc1C(=O)[N-]c1ccccc1N1CCOCC1 (3D coordinates assigned)
Cc1ccc(S(=O)(=O)Nc2ccc(S(=O)(=O)/N=c3/cccc[n-]3)cc2)cc1C(=O)[N-]c1ccccc1N1CCOCC1 (nonaromatic ring conformer: 96.70721142370923 kcal/mol)

>  <smiles>  (13) 
Cc1ccc(S(=O)(=O)Nc2ccc(S(=O)(=O)N=c3cccc[nH]3)cc2)cc1C(=O)Nc1ccccc1N1CCOCC1

>  <score_type>  (13) 
oracle

>  <origin>  (13) 
adg

>  <m_score__min__energy>  (13) 
-13.210000000000001

>  <m_primary>  (13) 
energy

$$$$
13:0
     RDKit          3D

 80 83  0  0  0  0  0  0  0  0999 V2000
   57.3960   24.2480   48.1490 C   0  0  0  0  0  0  0  0  0  0  0  0
   57.0550   22.8650   48.1780 O   0  0  0  0  0  0  0  0  0  0  0  0
   55.7400   22.3710   48.2380 C   0  0  0  0  0  0  0  0  0  0  0  0
   55.3920   21.2610   49.0310 C   0  0  0  0  0  0  0  0  0  0  0  0
   54.0710   20.8070   49.0680 C   0  0  0  0  0  0  0  0  0  0  0  0
   53.0720   21.4690   48.3370 C   0  0  0  0  0  0  0  0  0  0  0  0
   51.7070   21.0270   48.3530 N   0  0  0  0  0  0  0  0  0  0  0  0
   50.5530   21.7960   47.9890 C   0  0  0  0  0  0  0  0  0  0  0  0
   50.0520   21.8580   46.5780 C   0  0  0  0  0  0  0  0  0  0  0  0
   49.9140   22.4000   48.8910 O   0  0  0  0  0  0  0  0  0  0  0  0
   53.4230   22.5510   47.5250 C   0  0  0  0  0  0  0  0  0  0  0  0
   54.7520   23.0010   47.4660 C   0  0  0  0  0  0  0  0  0  0  0  0
   55.0950   24.1380   46.6650 N   0  0  0  0  0  0  0  0  0  0  0  0
   54.2590   24.6900   45.6400 C   0  0  0  0  0  0  0  0  0  0  0  0
   54.0460   25.9300   45.6320 O   0  0  0  0  0  0  0  0  0  0  0  0
   53.6980   23.8340   44.5360 C   0  0  0  0  0  0  0  0  0  0  0  0
   54.7080   23.5690   43.5200 N   0  0  0  0  0  0  0  0  0  0  0  0
   55.9520   22.8810   43.7130 C   0  0  0  0  0  0  0  0  0  0  0  0
   56.0770   21.7240   43.2310 O   0  0  0  0  0  0  0  0  0  0  0  0
   57.0690   23.4570   44.5480 C   0  0  0  0  0  0  0  0  0  0  0  0
   57.3560   24.8880   44.1700 C   0  0  0  0  0  0  0  0  0  0  0  0
   57.4880   25.2440   42.8190 C   0  0  0  0  0  0  0  0  0  0  0  0
   57.7990   26.5590   42.4660 C   0  0  0  0  0  0  0  0  0  0  0  0
   57.9700   27.5310   43.4550 C   0  0  0  0  0  0  0  0  0  0  0  0
   57.8040   27.2020   44.8050 C   0  0  0  0  0  0  0  0  0  0  0  0
   57.9810   28.2270   45.7930 N   0  0  0  0  0  0  0  0  0  0  0  0
   58.7190   28.0900   47.0150 C   0  0  0  0  0  0  0  0  0  0  0  0
   58.3980   27.2150   47.8650 O   0  0  0  0  0  0  0  0  0  0  0  0
   59.8770   29.0110   47.2930 C   0  0  0  0  0  0  0  0  0  0  0  0
   59.7710   30.3060   46.4480 C   0  0  0  0  0  0  0  0  0  0  0  0
   59.1800   31.4750   47.2440 C   0  0  0  0  0  0  0  0  0  0  0  0
   59.9740   31.7270   48.4560 N   0  0  0  0  0  0  0  0  0  0  0  0
   59.9810   33.0490   49.0320 C   0  0  0  0  0  0  0  0  0  0  0  0
   59.0250   33.8360   48.7870 O   0  0  0  0  0  0  0  0  0  0  0  0
   61.0870   33.5070   49.9500 C   0  0  0  0  0  0  0  0  0  0  0  0
   60.7090   33.3690   51.4320 C   0  0  0  0  0  0  0  0  0  0  0  0
   59.6010   32.3690   51.6370 C   0  0  0  0  0  0  0  0  0  0  0  0
   59.9000   31.0270   51.9310 C   0  0  0  0  0  0  0  0  0  0  0  0
   58.8690   30.0990   52.1110 C   0  0  0  0  0  0  0  0  0  0  0  0
   57.5350   30.5020   51.9940 C   0  0  0  0  0  0  0  0  0  0  0  0
   56.5110   29.5800   52.1800 O   0  0  0  0  0  0  0  0  0  0  0  0
   57.2310   31.8330   51.6900 C   0  0  0  0  0  0  0  0  0  0  0  0
   58.2590   32.7640   51.5090 C   0  0  0  0  0  0  0  0  0  0  0  0
   60.6830   30.6150   49.1100 C   0  0  0  0  0  0  0  0  0  0  0  0
   59.9890   29.2820   48.8120 C   0  0  0  0  0  0  0  0  0  0  0  0
   57.5220   25.8710   45.1620 C   0  0  0  0  0  0  0  0  0  0  0  0
   57.4888   24.6244   49.1784 H   0  0  0  0  0  0  0  0  0  0  0  0
   58.3533   24.3787   47.6231 H   0  0  0  0  0  0  0  0  0  0  0  0
   56.6092   24.8087   47.6231 H   0  0  0  0  0  0  0  0  0  0  0  0
   56.1637   20.7487   49.6243 H   0  0  0  0  0  0  0  0  0  0  0  0
   53.8124   19.9258   49.6734 H   0  0  0  0  0  0  0  0  0  0  0  0
   48.9603   21.9931   46.5821 H   0  0  0  0  0  0  0  0  0  0  0  0
   50.5243   22.7046   46.0581 H   0  0  0  0  0  0  0  0  0  0  0  0
   50.3037   20.9219   46.0581 H   0  0  0  0  0  0  0  0  0  0  0  0
   52.6504   23.0553   46.9260 H   0  0  0  0  0  0  0  0  0  0  0  0
   53.3543   22.8790   44.9600 H   0  0  0  0  0  0  0  0  0  0  0  0
   52.8596   24.3698   44.0670 H   0  0  0  0  0  0  0  0  0  0  0  0
   56.7799   23.4180   45.6086 H   0  0  0  0  0  0  0  0  0  0  0  0
   57.9772   22.8626   44.3691 H   0  0  0  0  0  0  0  0  0  0  0  0
   57.3461   24.4850   42.0356 H   0  0  0  0  0  0  0  0  0  0  0  0
   57.9097   26.8304   41.4058 H   0  0  0  0  0  0  0  0  0  0  0  0
   58.2364   28.5598   43.1711 H   0  0  0  0  0  0  0  0  0  0  0  0
   60.8133   28.5229   46.9846 H   0  0  0  0  0  0  0  0  0  0  0  0
   60.7772   30.5862   46.1029 H   0  0  0  0  0  0  0  0  0  0  0  0
   59.0980   30.1011   45.6024 H   0  0  0  0  0  0  0  0  0  0  0  0
   59.1817   32.3781   46.6159 H   0  0  0  0  0  0  0  0  0  0  0  0
   58.1515   31.2202   47.5393 H   0  0  0  0  0  0  0  0  0  0  0  0
   61.9828   32.8990   49.7553 H   0  0  0  0  0  0  0  0  0  0  0  0
   61.2727   34.5722   49.7479 H   0  0  0  0  0  0  0  0  0  0  0  0
   61.5943   33.0399   51.9959 H   0  0  0  0  0  0  0  0  0  0  0  0
   60.3552   34.3482   51.7868 H   0  0  0  0  0  0  0  0  0  0  0  0
   60.9483   30.7058   52.0198 H   0  0  0  0  0  0  0  0  0  0  0  0
   59.1078   29.0510   52.3449 H   0  0  0  0  0  0  0  0  0  0  0  0
   56.1816   32.1481   51.5931 H   0  0  0  0  0  0  0  0  0  0  0  0
   58.0159   33.8088   51.2656 H   0  0  0  0  0  0  0  0  0  0  0  0
   61.7167   30.5757   48.7359 H   0  0  0  0  0  0  0  0  0  0  0  0
   60.6773   30.7820   50.1972 H   0  0  0  0  0  0  0  0  0  0  0  0
   60.5677   28.4694   49.2755 H   0  0  0  0  0  0  0  0  0  0  0  0
   58.9700   29.3313   49.2233 H   0  0  0  0  0  0  0  0  0  0  0  0
   57.4308   25.5973   46.2235 H   0  0  0  0  0  0  0  0  0  0  0  0
  1  2  1  0
  2  3  1  0
  3  4  2  0
  4  5  1  0
  5  6  2  0
  6  7  1  0
  7  8  1  0
  8  9  1  0
  8 10  2  0
  6 11  1  0
 11 12  2  0
 12 13  1  0
 13 14  1  0
 14 15  2  0
 14 16  1  0
 16 17  1  0
 17 18  1  0
 18 19  2  0
 18 20  1  0
 20 21  1  0
 21 22  2  0
 22 23  1  0
 23 24  2  0
 24 25  1  0
 25 26  1  0
 26 27  1  0
 27 28  2  0
 27 29  1  0
 29 30  1  0
 30 31  1  0
 31 32  1  0
 32 33  1  0
 33 34  2  0
 33 35  1  0
 35 36  1  0
 36 37  1  0
 37 38  2  0
 38 39  1  0
 39 40  2  0
 40 41  1  0
 40 42  1  0
 42 43  2  0
 32 44  1  0
 44 45  1  0
 25 46  2  0
 12  3  1  0
 46 21  1  0
 45 29  1  0
 43 37  1  0
  1 47  1  0
  1 48  1  0
  1 49  1  0
  4 50  1  0
  5 51  1  0
  9 52  1  0
  9 53  1  0
  9 54  1  0
 11 55  1  0
 16 56  1  0
 16 57  1  0
 20 58  1  0
 20 59  1  0
 22 60  1  0
 23 61  1  0
 24 62  1  0
 29 63  1  0
 30 64  1  0
 30 65  1  0
 31 66  1  0
 31 67  1  0
 35 68  1  0
 35 69  1  0
 36 70  1  0
 36 71  1  0
 38 72  1  0
 39 73  1  0
 42 74  1  0
 43 75  1  0
 44 76  1  0
 44 77  1  0
 45 78  1  0
 45 79  1  0
 46 80  1  0
M  CHG  5   7  -1  13  -1  17  -1  26  -1  41  -1
M  END
>  <UniqueID>  (14) 
14

>  <SMILES>  (14) 
COc1ccc([N-]C(C)=O)cc1[N-]C(=O)C[N-]C(=O)Cc1cccc([N-]C(=O)C2CCN(C(=O)CCc3ccc([O-])cc3)CC2)c1

>  <Energy>  (14) 
93.3367694655829

>  <Genealogy>  (14) 
COc1ccc([N-]C(C)=O)cc1[N-]C(=O)C[N-]C(=O)Cc1cccc([N-]C(=O)C2CCN(C(=O)CCc3ccc([O-])cc3)CC2)c1 (protonated)
COc1ccc([N-]C(C)=O)cc1[N-]C(=O)C[N-]C(=O)Cc1cccc([N-]C(=O)C2CCN(C(=O)CCc3ccc([O-])cc3)CC2)c1 (3D coordinates assigned)
COc1ccc([N-]C(C)=O)cc1[N-]C(=O)C[N-]C(=O)Cc1cccc([N-]C(=O)C2CCN(C(=O)CCc3ccc([O-])cc3)CC2)c1 (nonaromatic ring conformer: 93.3367694655829 kcal/mol)

>  <smiles>  (14) 
COc1ccc(NC(C)=O)cc1NC(=O)CNC(=O)Cc1cccc(NC(=O)C2CCN(C(=O)CCc3ccc(O)cc3)CC2)c1

>  <score_type>  (14) 
oracle

>  <origin>  (14) 
adg

>  <m_score__min__energy>  (14) 
-18.969999999999999

>  <m_primary>  (14) 
energy

$$$$
14:0
     RDKit          3D

 40 41  0  0  0  0  0  0  0  0999 V2000
   66.4220   32.7290   50.0860 C   0  0  0  0  0  0  0  0  0  0  0  0
   64.9830   32.5300   50.5450 C   0  0  0  0  0  0  0  0  0  0  0  0
   64.0170   32.9950   49.4970 C   0  0  0  0  0  0  0  0  0  0  0  0
   64.3150   33.1070   48.1870 N   0  0  0  0  0  0  0  0  0  0  0  0
   63.2390   33.5320   47.5440 N   0  0  0  0  0  0  0  0  0  0  0  0
   63.2100   33.8380   46.1170 C   0  0  0  0  0  0  0  0  0  0  0  0
   62.2330   33.6980   48.4300 C   0  0  0  0  0  0  0  0  0  0  0  0
   60.8980   34.2240   48.1060 C   0  0  0  0  0  0  0  0  0  0  0  0
   60.7300   34.8490   47.0270 O   0  0  0  0  0  0  0  0  0  0  0  0
   59.7780   34.0170   48.9760 N   0  0  0  0  0  0  0  0  0  0  0  0
   59.2060   32.7090   49.2910 C   0  0  0  0  0  0  0  0  0  0  0  0
   59.0700   31.8650   48.0380 C   0  0  0  0  0  0  0  0  0  0  0  0
   59.8870   30.7280   47.9160 C   0  0  0  0  0  0  0  0  0  0  0  0
   59.7690   29.8800   46.8200 C   0  0  0  0  0  0  0  0  0  0  0  0
   58.8380   30.1510   45.8220 C   0  0  0  0  0  0  0  0  0  0  0  0
   58.0290   31.3030   45.8880 C   0  0  0  0  0  0  0  0  0  0  0  0
   57.0630   31.5870   44.8590 N   0  0  0  0  0  0  0  0  0  0  0  0
   56.7190   30.7650   43.9500 C   0  0  0  0  0  0  0  0  0  0  0  0
   56.2840   29.7250   42.7980 S   0  0  0  0  0  0  0  0  0  0  0  0
   58.1680   32.1900   46.9860 C   0  0  0  0  0  0  0  0  0  0  0  0
   57.3540   33.4620   47.0400 C   0  0  0  0  0  0  0  0  0  0  0  0
   62.6920   33.3520   49.6890 C   0  0  0  0  0  0  0  0  0  0  0  0
   61.8130   33.4230   51.2070 Cl  0  0  0  0  0  0  0  0  0  0  0  0
   67.0778   32.8197   50.9644 H   0  0  0  0  0  0  0  0  0  0  0  0
   66.7366   31.8658   49.4811 H   0  0  0  0  0  0  0  0  0  0  0  0
   66.4905   33.6452   49.4811 H   0  0  0  0  0  0  0  0  0  0  0  0
   64.8128   31.4614   50.7427 H   0  0  0  0  0  0  0  0  0  0  0  0
   64.8211   33.1209   51.4586 H   0  0  0  0  0  0  0  0  0  0  0  0
   65.2390   32.9090   47.7430 H   0  0  0  0  0  0  0  0  0  0  0  0
   63.1071   34.9242   45.9769 H   0  0  0  0  0  0  0  0  0  0  0  0
   64.1447   33.4949   45.6494 H   0  0  0  0  0  0  0  0  0  0  0  0
   62.3564   33.3255   45.6494 H   0  0  0  0  0  0  0  0  0  0  0  0
   59.8626   32.1908   50.0054 H   0  0  0  0  0  0  0  0  0  0  0  0
   58.2069   32.8567   49.7269 H   0  0  0  0  0  0  0  0  0  0  0  0
   60.6290   30.5060   48.6971 H   0  0  0  0  0  0  0  0  0  0  0  0
   60.4137   28.9922   46.7418 H   0  0  0  0  0  0  0  0  0  0  0  0
   58.7325   29.4593   44.9733 H   0  0  0  0  0  0  0  0  0  0  0  0
   57.1765   33.7394   48.0895 H   0  0  0  0  0  0  0  0  0  0  0  0
   57.9030   34.2704   46.5349 H   0  0  0  0  0  0  0  0  0  0  0  0
   56.3900   33.3021   46.5349 H   0  0  0  0  0  0  0  0  0  0  0  0
  1  2  1  0
  2  3  1  0
  3  4  2  0
  4  5  1  0
  5  6  1  0
  5  7  1  0
  7  8  1  0
  8  9  2  0
  8 10  1  0
 10 11  1  0
 11 12  1  0
 12 13  2  0
 13 14  1  0
 14 15  2  0
 15 16  1  0
 16 17  1  0
 17 18  2  0
 18 19  2  0
 16 20  2  0
 20 21  1  0
  7 22  2  0
 22 23  1  0
 22  3  1  0
 20 12  1  0
  1 24  1  0
  1 25  1  0
  1 26  1  0
  2 27  1  0
  2 28  1  0
  4 29  1  0
  6 30  1  0
  6 31  1  0
  6 32  1  0
 11 33  1  0
 11 34  1  0
 13 35  1  0
 14 36  1  0
 15 37  1  0
 21 38  1  0
 21 39  1  0
 21 40  1  0
M  CHG  2   4   1  10  -1
M  END
>  <UniqueID>  (15) 
15

>  <SMILES>  (15) 
CCc1[nH+]n(C)c(C(=O)[N-]Cc2cccc(N=C=S)c2C)c1Cl

>  <Energy>  (15) 
72.39049386078361

>  <Genealogy>  (15) 
CCc1[nH+]n(C)c(C(=O)[N-]Cc2cccc(N=C=S)c2C)c1Cl (protonated)
CCc1[nH+]n(C)c(C(=O)[N-]Cc2cccc(N=C=S)c2C)c1Cl (3D coordinates assigned)
CCc1[nH+]n(C)c(C(=O)[N-]Cc2cccc(N=C=S)c2C)c1Cl (optimized conformer: 72.39049386078361 kcal/mol)

>  <smiles>  (15) 
CCc1nn(C)c(C(=O)NCc2cccc(N=C=S)c2C)c1Cl

>  <score_type>  (15) 
oracle

>  <origin>  (15) 
adg

>  <m_score__min__energy>  (15) 
-7.3200000000000003

>  <m_primary>  (15) 
energy

$$$$
15:0
     RDKit          3D

 56 59  0  0  0  0  0  0  0  0999 V2000
   54.6710   25.7900   45.6290 O   0  0  0  0  0  0  0  0  0  0  0  0
   55.8540   25.3530   45.6810 C   0  0  0  0  0  0  0  0  0  0  0  0
   56.8030   25.9530   46.6780 C   0  0  0  0  0  0  0  0  0  0  0  0
   57.6680   27.3620   45.9900 S   0  0  0  0  0  0  0  0  0  0  0  0
   58.4790   28.0440   47.0570 O   0  0  0  0  0  0  0  0  0  0  0  0
   58.5930   26.9170   44.8880 O   0  0  0  0  0  0  0  0  0  0  0  0
   56.5250   28.4840   45.3260 N   0  0  0  0  0  0  0  0  0  0  0  0
   56.8330   29.5760   44.4410 C   0  0  0  0  0  0  0  0  0  0  0  0
   56.3850   29.5860   43.1060 C   0  0  0  0  0  0  0  0  0  0  0  0
   56.6830   30.6610   42.2650 C   0  0  0  0  0  0  0  0  0  0  0  0
   57.4320   31.7380   42.7420 C   0  0  0  0  0  0  0  0  0  0  0  0
   57.8830   31.7440   44.0620 C   0  0  0  0  0  0  0  0  0  0  0  0
   57.5970   30.6670   44.9210 C   0  0  0  0  0  0  0  0  0  0  0  0
   58.0750   30.7260   46.3520 C   0  0  0  0  0  0  0  0  0  0  0  0
   58.9180   31.9460   46.5680 C   0  0  0  0  0  0  0  0  0  0  0  0
   58.4350   33.1500   46.5890 N   0  0  0  0  0  0  0  0  0  0  0  0
   59.5500   34.0080   46.8420 C   0  0  0  0  0  0  0  0  0  0  0  0
   59.4560   35.2630   46.8760 O   0  0  0  0  0  0  0  0  0  0  0  0
   60.7770   33.3040   47.0320 N   0  0  0  0  0  0  0  0  0  0  0  0
   62.1270   33.8300   46.8450 C   0  0  0  0  0  0  0  0  0  0  0  0
   62.9090   33.7290   48.1270 C   0  0  0  0  0  0  0  0  0  0  0  0
   64.1070   32.9930   48.1710 C   0  0  0  0  0  0  0  0  0  0  0  0
   64.8060   32.8550   49.3750 C   0  0  0  0  0  0  0  0  0  0  0  0
   64.3140   33.4460   50.5430 C   0  0  0  0  0  0  0  0  0  0  0  0
   64.9890   33.3020   51.7120 F   0  0  0  0  0  0  0  0  0  0  0  0
   63.1190   34.1750   50.5080 C   0  0  0  0  0  0  0  0  0  0  0  0
   62.4160   34.3140   49.3070 C   0  0  0  0  0  0  0  0  0  0  0  0
   60.3550   31.9640   46.8230 C   0  0  0  0  0  0  0  0  0  0  0  0
   61.1240   30.9660   46.8260 O   0  0  0  0  0  0  0  0  0  0  0  0
   56.2530   24.2760   44.8140 N   0  0  0  0  0  0  0  0  0  0  0  0
   57.5500   23.6200   44.8580 C   0  0  0  0  0  0  0  0  0  0  0  0
   57.4610   22.4620   43.8700 C   0  0  0  0  0  0  0  0  0  0  0  0
   56.2320   22.7370   43.0060 C   0  0  0  0  0  0  0  0  0  0  0  0
   55.3800   23.7280   43.7900 C   0  0  0  0  0  0  0  0  0  0  0  0
   56.2350   26.2784   47.5620 H   0  0  0  0  0  0  0  0  0  0  0  0
   57.5465   25.1898   46.9513 H   0  0  0  0  0  0  0  0  0  0  0  0
   55.7955   28.7403   42.7222 H   0  0  0  0  0  0  0  0  0  0  0  0
   56.3265   30.6587   41.2244 H   0  0  0  0  0  0  0  0  0  0  0  0
   57.6666   32.5821   42.0769 H   0  0  0  0  0  0  0  0  0  0  0  0
   58.4674   32.5982   44.4346 H   0  0  0  0  0  0  0  0  0  0  0  0
   57.2050   30.7622   47.0242 H   0  0  0  0  0  0  0  0  0  0  0  0
   58.6784   29.8313   46.5652 H   0  0  0  0  0  0  0  0  0  0  0  0
   62.6373   33.2499   46.0620 H   0  0  0  0  0  0  0  0  0  0  0  0
   62.0613   34.8872   46.5482 H   0  0  0  0  0  0  0  0  0  0  0  0
   64.4958   32.5241   47.2550 H   0  0  0  0  0  0  0  0  0  0  0  0
   65.7439   32.2808   49.4029 H   0  0  0  0  0  0  0  0  0  0  0  0
   62.7323   34.6394   51.4271 H   0  0  0  0  0  0  0  0  0  0  0  0
   61.4746   34.8826   49.2853 H   0  0  0  0  0  0  0  0  0  0  0  0
   58.3440   24.3197   44.5581 H   0  0  0  0  0  0  0  0  0  0  0  0
   57.7937   23.2704   45.8721 H   0  0  0  0  0  0  0  0  0  0  0  0
   58.3657   22.4224   43.2456 H   0  0  0  0  0  0  0  0  0  0  0  0
   57.3796   21.4957   44.3892 H   0  0  0  0  0  0  0  0  0  0  0  0
   56.5326   23.1712   42.0411 H   0  0  0  0  0  0  0  0  0  0  0  0
   55.6772   21.8123   42.7890 H   0  0  0  0  0  0  0  0  0  0  0  0
   55.0162   24.5279   43.1284 H   0  0  0  0  0  0  0  0  0  0  0  0
   54.4953   23.2434   44.2287 H   0  0  0  0  0  0  0  0  0  0  0  0
  1  2  2  0
  2  3  1  0
  3  4  1  0
  4  5  2  0
  4  6  2  0
  4  7  1  0
  7  8  1  0
  8  9  2  0
  9 10  1  0
 10 11  2  0
 11 12  1  0
 12 13  2  0
 13 14  1  0
 14 15  1  0
 15 16  2  0
 16 17  1  0
 17 18  2  0
 17 19  1  0
 19 20  1  0
 20 21  1  0
 21 22  2  0
 22 23  1  0
 23 24  2  0
 24 25  1  0
 24 26  1  0
 26 27  2  0
 19 28  1  0
 28 29  2  0
  2 30  1  0
 30 31  1  0
 31 32  1  0
 32 33  1  0
 33 34  1  0
 13  8  1  0
 28 15  1  0
 34 30  1  0
 27 21  1  0
  3 35  1  0
  3 36  1  0
  9 37  1  0
 10 38  1  0
 11 39  1  0
 12 40  1  0
 14 41  1  0
 14 42  1  0
 20 43  1  0
 20 44  1  0
 22 45  1  0
 23 46  1  0
 26 47  1  0
 27 48  1  0
 31 49  1  0
 31 50  1  0
 32 51  1  0
 32 52  1  0
 33 53  1  0
 33 54  1  0
 34 55  1  0
 34 56  1  0
M  CHG  1   7  -1
M  END
>  <UniqueID>  (16) 
16

>  <SMILES>  (16) 
O=C(CS(=O)(=O)[N-]c1ccccc1CC1=NC(=O)N(Cc2ccc(F)cc2)C1=O)N1CCCC1

>  <Energy>  (16) 
82.78546451772797

>  <Genealogy>  (16) 
O=C(CS(=O)(=O)[N-]c1ccccc1CC1=NC(=O)N(Cc2ccc(F)cc2)C1=O)N1CCCC1 (protonated)
O=C(CS(=O)(=O)[N-]c1ccccc1CC1=NC(=O)N(Cc2ccc(F)cc2)C1=O)N1CCCC1 (3D coordinates assigned)
O=C(CS(=O)(=O)[N-]c1ccccc1CC1=NC(=O)N(Cc2ccc(F)cc2)C1=O)N1CCCC1 (nonaromatic ring conformer: 82.78546451772797 kcal/mol)

>  <smiles>  (16) 
O=C(CS(=O)(=O)Nc1ccccc1CC1=NC(=O)N(Cc2ccc(F)cc2)C1=O)N1CCCC1

>  <score_type>  (16) 
oracle

>  <origin>  (16) 
adg

>  <m_score__min__energy>  (16) 
-11.369999999999999

>  <m_primary>  (16) 
energy

$$$$
16:0
     RDKit          3D

 36 37  0  0  0  0  0  0  0  0999 V2000
   55.1770   29.2850   44.8580 N   0  0  0  0  0  0  0  0  0  0  0  0
   56.5570   29.2820   45.2130 C   0  0  0  0  0  0  0  0  0  0  0  0
   57.0570   28.2510   45.7380 O   0  0  0  0  0  0  0  0  0  0  0  0
   57.3900   30.4850   45.0360 C   0  0  0  0  0  0  0  0  0  0  0  0
   58.1010   30.9820   46.0850 N   0  0  0  0  0  0  0  0  0  0  0  0
   58.7240   32.1440   45.7860 C   0  0  0  0  0  0  0  0  0  0  0  0
   59.6210   32.8670   46.7470 C   0  0  2  0  0  0  0  0  0  0  0  0
   60.8810   32.2230   46.8050 O   0  0  0  0  0  0  0  0  0  0  0  0
   61.8690   33.0260   47.4510 C   0  0  1  0  0  0  0  0  0  0  0  0
   62.6450   33.8420   46.4060 C   0  0  0  0  0  0  0  0  0  0  0  0
   63.7280   34.4920   47.0120 O   0  0  0  0  0  0  0  0  0  0  0  0
   61.3160   33.9200   48.6030 C   0  0  2  0  0  0  0  0  0  0  0  0
   62.3140   34.1010   49.5750 O   0  0  0  0  0  0  0  0  0  0  0  0
   60.0810   33.2420   49.2300 C   0  0  1  0  0  0  0  0  0  0  0  0
   59.5550   34.0110   50.2810 O   0  0  0  0  0  0  0  0  0  0  0  0
   58.9940   32.9490   48.1620 C   0  0  2  0  0  0  0  0  0  0  0  0
   58.3390   31.7480   48.4820 O   0  0  0  0  0  0  0  0  0  0  0  0
   58.4410   32.5930   44.1900 S   0  0  0  0  0  0  0  0  0  0  0  0
   57.4720   31.2550   43.8650 C   0  0  0  0  0  0  0  0  0  0  0  0
   56.9300   30.9570   42.5290 C   0  0  0  0  0  0  0  0  0  0  0  0
   56.2460   29.7310   42.2670 N   0  0  0  0  0  0  0  0  0  0  0  0
   57.1320   31.7670   41.5850 O   0  0  0  0  0  0  0  0  0  0  0  0
   54.4340   29.3470   45.5890 H   0  0  0  0  0  0  0  0  0  0  0  0
   59.7523   33.8963   46.3820 H   0  0  0  0  0  0  0  0  0  0  0  0
   62.5604   32.3340   47.9541 H   0  0  0  0  0  0  0  0  0  0  0  0
   63.0180   33.1676   45.6211 H   0  0  0  0  0  0  0  0  0  0  0  0
   61.9742   34.5938   45.9647 H   0  0  0  0  0  0  0  0  0  0  0  0
   63.7650   34.1540   47.9440 H   0  0  0  0  0  0  0  0  0  0  0  0
   61.0226   34.9019   48.2034 H   0  0  0  0  0  0  0  0  0  0  0  0
   63.0930   34.5140   49.1160 H   0  0  0  0  0  0  0  0  0  0  0  0
   60.4115   32.2796   49.6477 H   0  0  0  0  0  0  0  0  0  0  0  0
   60.3070   34.5130   50.6930 H   0  0  0  0  0  0  0  0  0  0  0  0
   58.2634   33.7713   48.1585 H   0  0  0  0  0  0  0  0  0  0  0  0
   58.8040   31.0270   47.9820 H   0  0  0  0  0  0  0  0  0  0  0  0
   55.8480   29.5440   41.3210 H   0  0  0  0  0  0  0  0  0  0  0  0
   56.1970   28.9790   42.9890 H   0  0  0  0  0  0  0  0  0  0  0  0
  1  2  1  0
  2  3  2  0
  2  4  1  0
  4  5  1  0
  5  6  2  0
  6  7  1  0
  7  8  1  0
  8  9  1  0
  9 10  1  0
 10 11  1  0
  9 12  1  0
 12 13  1  0
 12 14  1  0
 14 15  1  0
 14 16  1  0
 16 17  1  0
  6 18  1  0
 18 19  1  0
 19 20  1  0
 20 21  1  0
 20 22  2  0
 19  4  2  0
 16  7  1  0
  1 23  1  0
  7 24  1  6
  9 25  1  1
 10 26  1  0
 10 27  1  0
 11 28  1  0
 12 29  1  6
 13 30  1  0
 14 31  1  1
 15 32  1  0
 16 33  1  6
 17 34  1  0
 21 35  1  0
 21 36  1  0
M  CHG  1   1  -1
M  END
>  <UniqueID>  (17) 
17

>  <SMILES>  (17) 
[NH-]C(=O)c1nc([C@@H]2O[C@@H](CO)C(O)C(O)C2O)sc1C(N)=O

>  <Energy>  (17) 
77.35969628058223

>  <Genealogy>  (17) 
[NH-]C(=O)c1nc(C2OC(CO)C(O)C(O)C2O)sc1C(N)=O (protonated)
[NH-]C(=O)c1nc([C@@H]2O[C@@H](CO)C(O)C(O)C2O)sc1C(N)=O (chirality)
[NH-]C(=O)c1nc([C@@H]2O[C@@H](CO)C(O)C(O)C2O)sc1C(N)=O (3D coordinates assigned)
[NH-]C(=O)c1nc([C@@H]2O[C@@H](CO)C(O)C(O)C2O)sc1C(N)=O (nonaromatic ring conformer: 77.35969628058223 kcal/mol)

>  <smiles>  (17) 
NC(=O)c1nc(C2OC(CO)C(O)C(O)C2O)sc1C(N)=O

>  <score_type>  (17) 
oracle

>  <origin>  (17) 
adg

>  <m_score__min__energy>  (17) 
-9.7799999999999994

>  <m_primary>  (17) 
energy

$$$$
17:0
     RDKit          3D

 55 59  0  0  0  0  0  0  0  0999 V2000
   62.8120   33.8470   46.7330 C   0  0  0  0  0  0  0  0  0  0  0  0
   62.6120   32.9560   47.9200 C   0  0  0  0  0  0  0  0  0  0  0  0
   61.4540   32.2630   48.3000 C   0  0  0  0  0  0  0  0  0  0  0  0
   60.1600   32.2080   47.5840 C   0  0  0  0  0  0  0  0  0  0  0  0
   59.1560   32.7450   48.1290 O   0  0  0  0  0  0  0  0  0  0  0  0
   59.9980   31.4560   46.3550 N   0  0  0  0  0  0  0  0  0  0  0  0
   60.8040   30.2070   46.4140 C   0  0  0  0  0  0  0  0  0  0  0  0
   60.0330   29.0170   47.0050 C   0  0  0  0  0  0  0  0  0  0  0  0
   58.7460   28.8410   46.3240 N   0  0  0  0  0  0  0  0  0  0  0  0
   58.1010   27.5590   46.3520 C   0  0  0  0  0  0  0  0  0  0  0  0
   56.7340   27.4810   46.0520 C   0  0  0  0  0  0  0  0  0  0  0  0
   56.0890   26.2440   45.9880 C   0  0  0  0  0  0  0  0  0  0  0  0
   54.7660   26.1910   45.6900 N   0  0  0  0  0  0  0  0  0  0  0  0
   54.0930   25.0150   45.6100 C   0  0  0  0  0  0  0  0  0  0  0  0
   54.7520   23.7930   45.8360 C   0  0  0  0  0  0  0  0  0  0  0  0
   53.9910   22.5190   45.7430 C   0  0  0  0  0  0  0  0  0  0  0  0
   54.5370   21.4270   46.0560 O   0  0  0  0  0  0  0  0  0  0  0  0
   52.6700   22.5030   45.3120 O   0  0  0  0  0  0  0  0  0  0  0  0
   56.1300   23.8220   46.1480 C   0  0  0  0  0  0  0  0  0  0  0  0
   56.7590   22.7470   46.3580 O   0  0  0  0  0  0  0  0  0  0  0  0
   56.8090   25.0560   46.2240 C   0  0  0  0  0  0  0  0  0  0  0  0
   58.1780   25.1340   46.5350 C   0  0  0  0  0  0  0  0  0  0  0  0
   58.8320   26.3770   46.6160 C   0  0  0  0  0  0  0  0  0  0  0  0
   60.2190   26.4210   46.9960 N   0  0  0  0  0  0  0  0  0  0  0  0
   60.5500   26.3850   48.1980 O   0  0  0  0  0  0  0  0  0  0  0  0
   61.2020   26.3400   46.0360 O   0  0  0  0  0  0  0  0  0  0  0  0
   58.2550   29.8860   45.4260 C   0  0  0  0  0  0  0  0  0  0  0  0
   58.5520   31.2570   46.0420 C   0  0  0  0  0  0  0  0  0  0  0  0
   61.6530   31.6240   49.4780 N   0  0  0  0  0  0  0  0  0  0  0  0
   62.9260   31.8760   49.8290 C   0  0  0  0  0  0  0  0  0  0  0  0
   63.5920   31.4160   50.9650 C   0  0  0  0  0  0  0  0  0  0  0  0
   64.9320   31.8030   51.1420 C   0  0  0  0  0  0  0  0  0  0  0  0
   65.5700   32.6300   50.1920 C   0  0  0  0  0  0  0  0  0  0  0  0
   64.8720   33.0790   49.0560 C   0  0  0  0  0  0  0  0  0  0  0  0
   63.5430   32.6790   48.9040 C   0  0  0  0  0  0  0  0  0  0  0  0
   63.0410   34.8672   47.0748 H   0  0  0  0  0  0  0  0  0  0  0  0
   63.6473   33.4674   46.1262 H   0  0  0  0  0  0  0  0  0  0  0  0
   61.8946   33.8608   46.1262 H   0  0  0  0  0  0  0  0  0  0  0  0
   60.4060   32.0150   45.5720 H   0  0  0  0  0  0  0  0  0  0  0  0
   61.1204   29.9465   45.3932 H   0  0  0  0  0  0  0  0  0  0  0  0
   61.6614   30.4020   47.0750 H   0  0  0  0  0  0  0  0  0  0  0  0
   60.6329   28.1029   46.8845 H   0  0  0  0  0  0  0  0  0  0  0  0
   59.8443   29.2131   48.0708 H   0  0  0  0  0  0  0  0  0  0  0  0
   56.1638   28.4030   45.8652 H   0  0  0  0  0  0  0  0  0  0  0  0
   53.0205   25.0176   45.3658 H   0  0  0  0  0  0  0  0  0  0  0  0
   58.7459   24.2098   46.7176 H   0  0  0  0  0  0  0  0  0  0  0  0
   58.7603   29.8024   44.4525 H   0  0  0  0  0  0  0  0  0  0  0  0
   57.1705   29.7715   45.2823 H   0  0  0  0  0  0  0  0  0  0  0  0
   58.2368   32.0358   45.3320 H   0  0  0  0  0  0  0  0  0  0  0  0
   57.9990   31.3176   46.9910 H   0  0  0  0  0  0  0  0  0  0  0  0
   60.9650   31.0360   49.9990 H   0  0  0  0  0  0  0  0  0  0  0  0
   63.0853   30.7715   51.6984 H   0  0  0  0  0  0  0  0  0  0  0  0
   65.4874   31.4590   52.0270 H   0  0  0  0  0  0  0  0  0  0  0  0
   66.6192   32.9250   50.3410 H   0  0  0  0  0  0  0  0  0  0  0  0
   65.3583   33.7253   48.3105 H   0  0  0  0  0  0  0  0  0  0  0  0
  1  2  1  0
  2  3  2  0
  3  4  1  0
  4  5  2  0
  4  6  1  0
  6  7  1  0
  7  8  1  0
  8  9  1  0
  9 10  1  0
 10 11  2  0
 11 12  1  0
 12 13  1  0
 13 14  1  0
 14 15  2  0
 15 16  1  0
 16 17  2  0
 16 18  1  0
 15 19  1  0
 19 20  2  0
 19 21  1  0
 21 22  1  0
 22 23  2  0
 23 24  1  0
 24 25  2  0
 24 26  1  0
  9 27  1  0
 27 28  1  0
  3 29  1  0
 29 30  1  0
 30 31  2  0
 31 32  1  0
 32 33  2  0
 33 34  1  0
 34 35  2  0
 35  2  1  0
 28  6  1  0
 35 30  1  0
 23 10  1  0
 21 12  2  0
  1 36  1  0
  1 37  1  0
  1 38  1  0
  6 39  1  0
  7 40  1  0
  7 41  1  0
  8 42  1  0
  8 43  1  0
 11 44  1  0
 14 45  1  0
 22 46  1  0
 27 47  1  0
 27 48  1  0
 28 49  1  0
 28 50  1  0
 29 51  1  0
 31 52  1  0
 32 53  1  0
 33 54  1  0
 34 55  1  0
M  CHG  5   6   1  13  -1  18  -1  24   1  26  -1
M  END
>  <UniqueID>  (18) 
18

>  <SMILES>  (18) 
Cc1c(C(=O)[NH+]2CCN(c3cc4[n-]cc(C(=O)[O-])c(=O)c4cc3[N+](=O)[O-])CC2)[nH]c2ccccc12

>  <Energy>  (18) 
122.58740710522729

>  <Genealogy>  (18) 
Cc1c(C(=O)[NH+]2CCN(c3cc4[n-]cc(C(=O)[O-])c(=O)c4cc3[N+](=O)[O-])CC2)[nH]c2ccccc12 (protonated)
Cc1c(C(=O)[NH+]2CCN(c3cc4[n-]cc(C(=O)[O-])c(=O)c4cc3[N+](=O)[O-])CC2)[nH]c2ccccc12 (3D coordinates assigned)
Cc1c(C(=O)[NH+]2CCN(c3cc4[n-]cc(C(=O)[O-])c(=O)c4cc3[N+](=O)[O-])CC2)[nH]c2ccccc12 (nonaromatic ring conformer: 122.58740710522729 kcal/mol)

>  <smiles>  (18) 
Cc1c(C(=O)N2CCN(c3cc4[nH]cc(C(=O)O)c(=O)c4cc3[N+](=O)[O-])CC2)[nH]c2ccccc12

>  <score_type>  (18) 
oracle

>  <origin>  (18) 
adg

>  <m_score__min__energy>  (18) 
-11.220000000000001

>  <m_primary>  (18) 
energy

$$$$
18:0
     RDKit          3D

 56 58  0  0  0  0  0  0  0  0999 V2000
   54.7010   26.2790   45.9670 O   0  0  0  0  0  0  0  0  0  0  0  0
   55.9200   26.0810   46.2170 C   0  0  0  0  0  0  0  0  0  0  0  0
   56.9620   26.9350   45.5480 C   0  0  0  0  0  0  0  0  0  0  0  0
   56.7190   28.3510   45.8100 N   0  0  0  0  0  0  0  0  0  0  0  0
   56.2100   29.3160   44.8790 C   0  0  0  0  0  0  0  0  0  0  0  0
   55.1020   29.0890   44.3250 O   0  0  0  0  0  0  0  0  0  0  0  0
   56.9540   30.5400   44.5090 C   0  0  0  0  0  0  0  0  0  0  0  0
   57.6180   31.2930   45.4900 C   0  0  0  0  0  0  0  0  0  0  0  0
   58.2850   32.4770   45.1510 C   0  0  0  0  0  0  0  0  0  0  0  0
   59.0920   33.4310   46.3970 S   0  0  0  0  0  0  0  0  0  0  0  0
   58.0610   34.1950   47.1800 O   0  0  0  0  0  0  0  0  0  0  0  0
   60.0020   34.4310   45.7380 O   0  0  0  0  0  0  0  0  0  0  0  0
   60.0140   32.4300   47.5000 N   0  0  0  0  0  0  0  0  0  0  0  0
   60.3230   33.1480   48.7450 C   0  0  0  0  0  0  0  0  0  0  0  0
   61.7730   33.6150   48.6900 C   0  0  0  0  0  0  0  0  0  0  0  0
   62.3570   33.0190   47.4250 C   0  0  0  0  0  0  0  0  0  0  0  0
   61.3030   32.0500   46.9140 C   0  0  0  0  0  0  0  0  0  0  0  0
   58.2850   32.9140   43.8210 C   0  0  0  0  0  0  0  0  0  0  0  0
   57.6180   32.1790   42.8400 C   0  0  0  0  0  0  0  0  0  0  0  0
   56.9500   30.9950   43.1750 C   0  0  0  0  0  0  0  0  0  0  0  0
   56.2910   30.2630   42.1840 O   0  0  0  0  0  0  0  0  0  0  0  0
   56.2700   25.0050   47.0970 N   0  0  0  0  0  0  0  0  0  0  0  0
   56.9440   23.7600   46.7240 C   0  0  0  0  0  0  0  0  0  0  0  0
   55.8770   22.7120   46.3430 C   0  0  0  0  0  0  0  0  0  0  0  0
   54.7600   23.2230   45.4160 C   0  0  0  0  0  0  0  0  0  0  0  0
   55.1120   23.2640   43.9210 C   0  0  0  0  0  0  0  0  0  0  0  0
   56.3960   24.0460   43.6020 C   0  0  0  0  0  0  0  0  0  0  0  0
   57.7010   23.4950   44.2310 C   0  0  0  0  0  0  0  0  0  0  0  0
   58.0300   24.0220   45.6390 C   0  0  0  0  0  0  0  0  0  0  0  0
   57.9548   26.6619   45.9350 H   0  0  0  0  0  0  0  0  0  0  0  0
   56.9137   26.7642   44.4624 H   0  0  0  0  0  0  0  0  0  0  0  0
   57.6145   30.9499   46.5351 H   0  0  0  0  0  0  0  0  0  0  0  0
   59.6572   34.0177   48.8463 H   0  0  0  0  0  0  0  0  0  0  0  0
   60.1748   32.4833   49.6088 H   0  0  0  0  0  0  0  0  0  0  0  0
   61.8194   34.7134   48.6516 H   0  0  0  0  0  0  0  0  0  0  0  0
   62.3329   33.2955   49.5813 H   0  0  0  0  0  0  0  0  0  0  0  0
   62.5493   33.8064   46.6813 H   0  0  0  0  0  0  0  0  0  0  0  0
   63.3178   32.5177   47.6136 H   0  0  0  0  0  0  0  0  0  0  0  0
   61.2451   32.1063   45.8170 H   0  0  0  0  0  0  0  0  0  0  0  0
   61.5623   31.0195   47.1983 H   0  0  0  0  0  0  0  0  0  0  0  0
   58.8126   33.8399   43.5483 H   0  0  0  0  0  0  0  0  0  0  0  0
   57.6171   32.5317   41.7981 H   0  0  0  0  0  0  0  0  0  0  0  0
   55.4790   29.6960   42.3950 H   0  0  0  0  0  0  0  0  0  0  0  0
   57.5041   23.3414   47.5731 H   0  0  0  0  0  0  0  0  0  0  0  0
   56.3846   21.8778   45.8367 H   0  0  0  0  0  0  0  0  0  0  0  0
   55.3851   22.4209   47.2828 H   0  0  0  0  0  0  0  0  0  0  0  0
   53.8874   22.5651   45.5413 H   0  0  0  0  0  0  0  0  0  0  0  0
   54.5734   24.2658   45.7123 H   0  0  0  0  0  0  0  0  0  0  0  0
   55.2398   22.2303   43.5673 H   0  0  0  0  0  0  0  0  0  0  0  0
   54.2872   23.7864   43.4142 H   0  0  0  0  0  0  0  0  0  0  0  0
   56.5247   24.0505   42.5096 H   0  0  0  0  0  0  0  0  0  0  0  0
   56.2527   25.0438   44.0424 H   0  0  0  0  0  0  0  0  0  0  0  0
   57.6128   22.4002   44.2907 H   0  0  0  0  0  0  0  0  0  0  0  0
   58.5189   23.8384   43.5806 H   0  0  0  0  0  0  0  0  0  0  0  0
   58.9629   23.5428   45.9707 H   0  0  0  0  0  0  0  0  0  0  0  0
   58.1028   25.1154   45.5427 H   0  0  0  0  0  0  0  0  0  0  0  0
  1  2  2  0
  2  3  1  0
  3  4  1  0
  4  5  1  0
  5  6  2  0
  5  7  1  0
  7  8  2  0
  8  9  1  0
  9 10  1  0
 10 11  2  0
 10 12  2  0
 10 13  1  0
 13 14  1  0
 14 15  1  0
 15 16  1  0
 16 17  1  0
  9 18  2  0
 18 19  1  0
 19 20  2  0
 20 21  1  0
  2 22  1  0
 22 23  1  0
 23 24  1  0
 24 25  1  0
 25 26  1  0
 26 27  1  0
 27 28  1  0
 28 29  1  0
 20  7  1  0
 29 23  1  0
 17 13  1  0
  3 30  1  0
  3 31  1  0
  8 32  1  0
 14 33  1  0
 14 34  1  0
 15 35  1  0
 15 36  1  0
 16 37  1  0
 16 38  1  0
 17 39  1  0
 17 40  1  0
 18 41  1  0
 19 42  1  0
 21 43  1  0
 23 44  1  0
 24 45  1  0
 24 46  1  0
 25 47  1  0
 25 48  1  0
 26 49  1  0
 26 50  1  0
 27 51  1  0
 27 52  1  0
 28 53  1  0
 28 54  1  0
 29 55  1  0
 29 56  1  0
M  CHG  2   4  -1  22  -1
M  END
>  <UniqueID>  (19) 
19

>  <SMILES>  (19) 
O=C(C[N-]C(=O)c1cc(S(=O)(=O)N2CCCC2)ccc1O)[N-]C1CCCCCC1

>  <Energy>  (19) 
65.74909644521411

>  <Genealogy>  (19) 
O=C(C[N-]C(=O)c1cc(S(=O)(=O)N2CCCC2)ccc1O)[N-]C1CCCCCC1 (protonated)
O=C(C[N-]C(=O)c1cc(S(=O)(=O)N2CCCC2)ccc1O)[N-]C1CCCCCC1 (3D coordinates assigned)
O=C(C[N-]C(=O)c1cc(S(=O)(=O)N2CCCC2)ccc1O)[N-]C1CCCCCC1 (nonaromatic ring conformer: 65.74909644521411 kcal/mol)

>  <smiles>  (19) 
O=C(CNC(=O)c1cc(S(=O)(=O)N2CCCC2)ccc1O)NC1CCCCCC1

>  <score_type>  (19) 
oracle

>  <origin>  (19) 
adg

>  <m_score__min__energy>  (19) 
-10.92

>  <m_primary>  (19) 
energy

$$$$
19:0
     RDKit          3D

 59 62  0  0  0  0  0  0  0  0999 V2000
   65.7540   32.7440   50.0710 C   0  0  0  0  0  0  0  0  0  0  0  0
   64.2480   33.4670   50.7930 S   0  0  0  0  0  0  0  0  0  0  0  0
   63.4130   33.6050   49.2120 C   0  0  0  0  0  0  0  0  0  0  0  0
   64.0840   33.2650   48.0340 C   0  0  0  0  0  0  0  0  0  0  0  0
   63.4320   33.3660   46.8030 C   0  0  0  0  0  0  0  0  0  0  0  0
   62.1040   33.8030   46.7450 C   0  0  0  0  0  0  0  0  0  0  0  0
   61.4150   34.1430   47.9260 C   0  0  0  0  0  0  0  0  0  0  0  0
   60.0460   34.5900   47.9030 N   0  0  0  0  0  0  0  0  0  0  0  0
   58.9020   33.6750   47.9160 C   0  0  0  0  0  0  0  0  0  0  0  0
   58.5140   33.2900   46.5130 C   0  0  0  0  0  0  0  0  0  0  0  0
   58.6520   34.2130   45.4680 C   0  0  0  0  0  0  0  0  0  0  0  0
   58.3180   33.8510   44.1620 C   0  0  0  0  0  0  0  0  0  0  0  0
   57.8600   32.5600   43.8860 C   0  0  0  0  0  0  0  0  0  0  0  0
   57.7400   31.6110   44.9170 C   0  0  0  0  0  0  0  0  0  0  0  0
   57.2520   30.2420   44.6150 C   0  0  0  0  0  0  0  0  0  0  0  0
   56.0560   29.9380   44.8760 O   0  0  0  0  0  0  0  0  0  0  0  0
   58.1110   29.2750   43.9890 N   0  0  0  0  0  0  0  0  0  0  0  0
   57.9010   27.8540   44.0620 C   0  0  0  0  0  0  0  0  0  0  0  0
   58.0090   27.0360   42.9230 C   0  0  0  0  0  0  0  0  0  0  0  0
   57.7690   25.6620   43.0130 C   0  0  0  0  0  0  0  0  0  0  0  0
   57.4140   25.0840   44.2410 C   0  0  0  0  0  0  0  0  0  0  0  0
   57.1120   23.6150   44.3280 C   0  0  0  0  0  0  0  0  0  0  0  0
   56.8180   23.1600   46.0650 S   0  0  0  0  0  0  0  0  0  0  0  0
   55.0330   23.2170   45.9040 C   0  0  0  0  0  0  0  0  0  0  0  0
   54.2270   22.4720   46.7740 C   0  0  0  0  0  0  0  0  0  0  0  0
   52.8340   22.5190   46.6520 C   0  0  0  0  0  0  0  0  0  0  0  0
   52.2450   23.3110   45.6630 C   0  0  0  0  0  0  0  0  0  0  0  0
   53.0470   24.0570   44.7950 C   0  0  0  0  0  0  0  0  0  0  0  0
   54.4400   24.0120   44.9160 C   0  0  0  0  0  0  0  0  0  0  0  0
   57.2730   25.9030   45.3710 C   0  0  0  0  0  0  0  0  0  0  0  0
   57.5120   27.2770   45.2800 C   0  0  0  0  0  0  0  0  0  0  0  0
   58.0700   31.9880   46.2320 C   0  0  0  0  0  0  0  0  0  0  0  0
   62.0830   34.0410   49.1570 C   0  0  0  0  0  0  0  0  0  0  0  0
   66.4283   32.4203   50.8775 H   0  0  0  0  0  0  0  0  0  0  0  0
   65.4833   31.8777   49.4495 H   0  0  0  0  0  0  0  0  0  0  0  0
   66.2607   33.4970   49.4495 H   0  0  0  0  0  0  0  0  0  0  0  0
   65.1268   32.9175   48.0765 H   0  0  0  0  0  0  0  0  0  0  0  0
   63.9636   33.1014   45.8771 H   0  0  0  0  0  0  0  0  0  0  0  0
   61.5955   33.8815   45.7727 H   0  0  0  0  0  0  0  0  0  0  0  0
   59.8650   35.6200   47.8930 H   0  0  0  0  0  0  0  0  0  0  0  0
   59.1707   32.7685   48.4782 H   0  0  0  0  0  0  0  0  0  0  0  0
   58.0495   34.1806   48.3931 H   0  0  0  0  0  0  0  0  0  0  0  0
   59.0249   35.2265   45.6775 H   0  0  0  0  0  0  0  0  0  0  0  0
   58.4156   34.5841   43.3477 H   0  0  0  0  0  0  0  0  0  0  0  0
   57.5915   32.2842   42.8555 H   0  0  0  0  0  0  0  0  0  0  0  0
   58.8720   29.6260   43.3640 H   0  0  0  0  0  0  0  0  0  0  0  0
   58.2841   27.4804   41.9551 H   0  0  0  0  0  0  0  0  0  0  0  0
   57.8589   25.0308   42.1166 H   0  0  0  0  0  0  0  0  0  0  0  0
   56.2151   23.3889   43.7326 H   0  0  0  0  0  0  0  0  0  0  0  0
   57.9650   23.0409   43.9372 H   0  0  0  0  0  0  0  0  0  0  0  0
   54.6896   21.8493   47.5539 H   0  0  0  0  0  0  0  0  0  0  0  0
   52.2022   21.9322   47.3350 H   0  0  0  0  0  0  0  0  0  0  0  0
   51.1497   23.3474   45.5676 H   0  0  0  0  0  0  0  0  0  0  0  0
   52.5827   24.6799   44.0163 H   0  0  0  0  0  0  0  0  0  0  0  0
   55.0700   24.6019   44.2341 H   0  0  0  0  0  0  0  0  0  0  0  0
   56.9730   25.4619   46.3330 H   0  0  0  0  0  0  0  0  0  0  0  0
   57.3941   27.9113   46.1709 H   0  0  0  0  0  0  0  0  0  0  0  0
   57.9792   31.2556   47.0476 H   0  0  0  0  0  0  0  0  0  0  0  0
   61.5572   34.3058   50.0862 H   0  0  0  0  0  0  0  0  0  0  0  0
  1  2  1  0
  2  3  1  0
  3  4  2  0
  4  5  1  0
  5  6  2  0
  6  7  1  0
  7  8  1  0
  8  9  1  0
  9 10  1  0
 10 11  2  0
 11 12  1  0
 12 13  2  0
 13 14  1  0
 14 15  1  0
 15 16  2  0
 15 17  1  0
 17 18  1  0
 18 19  2  0
 19 20  1  0
 20 21  2  0
 21 22  1  0
 22 23  1  0
 23 24  1  0
 24 25  2  0
 25 26  1  0
 26 27  2  0
 27 28  1  0
 28 29  2  0
 21 30  1  0
 30 31  2  0
 14 32  2  0
  7 33  2  0
 33  3  1  0
 32 10  1  0
 31 18  1  0
 29 24  1  0
  1 34  1  0
  1 35  1  0
  1 36  1  0
  4 37  1  0
  5 38  1  0
  6 39  1  0
  8 40  1  0
  9 41  1  0
  9 42  1  0
 11 43  1  0
 12 44  1  0
 13 45  1  0
 17 46  1  0
 19 47  1  0
 20 48  1  0
 22 49  1  0
 22 50  1  0
 25 51  1  0
 26 52  1  0
 27 53  1  0
 28 54  1  0
 29 55  1  0
 30 56  1  0
 31 57  1  0
 32 58  1  0
 33 59  1  0
M  END
>  <UniqueID>  (20) 
20

>  <SMILES>  (20) 
CSc1cccc(NCc2cccc(C(=O)Nc3ccc(CSc4ccccc4)cc3)c2)c1

>  <Energy>  (20) 
59.508375737816195

>  <Genealogy>  (20) 
CSc1cccc(NCc2cccc(C(=O)Nc3ccc(CSc4ccccc4)cc3)c2)c1 (3D coordinates assigned)
CSc1cccc(NCc2cccc(C(=O)Nc3ccc(CSc4ccccc4)cc3)c2)c1 (optimized conformer: 59.508375737816195 kcal/mol)

>  <smiles>  (20) 
CSc1cccc(NCc2cccc(C(=O)Nc3ccc(CSc4ccccc4)cc3)c2)c1

>  <score_type>  (20) 
oracle

>  <origin>  (20) 
adg

>  <m_score__min__energy>  (20) 
-9.9800000000000004

>  <m_primary>  (20) 
energy

$$$$
20:0
     RDKit          3D

 78 82  0  0  0  0  0  0  0  0999 V2000
   57.7680   32.3410   43.1690 C   0  0  0  0  0  0  0  0  0  0  0  0
   57.4900   31.0090   43.8090 C   0  0  0  0  0  0  0  0  0  0  0  0
   56.1680   30.5820   44.0420 C   0  0  0  0  0  0  0  0  0  0  0  0
   55.9230   29.3140   44.5930 C   0  0  0  0  0  0  0  0  0  0  0  0
   56.9960   28.4660   44.9260 C   0  0  0  0  0  0  0  0  0  0  0  0
   56.7480   27.0710   45.4450 C   0  0  0  0  0  0  0  0  0  0  0  0
   57.0660   27.0060   46.8690 N   0  0  0  0  0  0  0  0  0  0  0  0
   58.3790   26.7930   47.4010 C   0  0  0  0  0  0  0  0  0  0  0  0
   58.8870   25.6420   47.3370 O   0  0  0  0  0  0  0  0  0  0  0  0
   59.1350   27.8750   48.0480 C   0  0  0  0  0  0  0  0  0  0  0  0
   60.2760   27.5850   48.7990 C   0  0  0  0  0  0  0  0  0  0  0  0
   61.0180   28.6170   49.3680 C   0  0  0  0  0  0  0  0  0  0  0  0
   60.6230   29.9510   49.2140 C   0  0  0  0  0  0  0  0  0  0  0  0
   59.4580   30.2590   48.4610 C   0  0  0  0  0  0  0  0  0  0  0  0
   58.7230   29.2050   47.8920 C   0  0  0  0  0  0  0  0  0  0  0  0
   59.0130   31.6720   48.1280 C   0  0  0  0  0  0  0  0  0  0  0  0
   59.9670   32.7080   48.5500 N   0  0  0  0  0  0  0  0  0  0  0  0
   59.6100   33.6710   49.5620 C   0  0  0  0  0  0  0  0  0  0  0  0
   59.7240   34.9020   49.3080 O   0  0  0  0  0  0  0  0  0  0  0  0
   59.1250   33.2520   50.9000 C   0  0  0  0  0  0  0  0  0  0  0  0
   59.5210   33.9350   52.0640 C   0  0  0  0  0  0  0  0  0  0  0  0
   59.0560   33.5260   53.3170 C   0  0  0  0  0  0  0  0  0  0  0  0
   58.1830   32.4420   53.4220 C   0  0  0  0  0  0  0  0  0  0  0  0
   57.7810   31.7440   52.2740 C   0  0  0  0  0  0  0  0  0  0  0  0
   56.7720   30.6280   52.3650 C   0  0  0  0  0  0  0  0  0  0  0  0
   57.4420   29.3810   52.8890 C   0  0  0  0  0  0  0  0  0  0  0  0
   58.7740   29.2470   52.6610 N   0  0  0  0  0  0  0  0  0  0  0  0
   59.4890   28.1480   53.0140 C   0  0  0  0  0  0  0  0  0  0  0  0
   60.9550   28.1270   52.6840 C   0  0  0  0  0  0  0  0  0  0  0  0
   58.8410   27.0710   53.6590 C   0  0  0  0  0  0  0  0  0  0  0  0
   59.5820   25.7980   54.0220 C   0  0  0  0  0  0  0  0  0  0  0  0
   59.3160   24.7050   53.0270 C   0  0  0  0  0  0  0  0  0  0  0  0
   58.0820   23.9840   53.0680 N   0  0  0  0  0  0  0  0  0  0  0  0
   60.2000   24.3730   52.1940 O   0  0  0  0  0  0  0  0  0  0  0  0
   57.4540   27.1690   53.8980 C   0  0  0  0  0  0  0  0  0  0  0  0
   56.8500   26.2020   54.4460 O   0  0  0  0  0  0  0  0  0  0  0  0
   56.7400   28.3310   53.5280 C   0  0  0  0  0  0  0  0  0  0  0  0
   55.2590   28.4420   53.8150 C   0  0  0  0  0  0  0  0  0  0  0  0
   58.2690   32.1450   51.0180 C   0  0  0  0  0  0  0  0  0  0  0  0
   61.3470   32.6400   48.0600 C   0  0  0  0  0  0  0  0  0  0  0  0
   62.1980   31.8790   49.0690 C   0  0  0  0  0  0  0  0  0  0  0  0
   61.4150   30.9410   49.8100 O   0  0  0  0  0  0  0  0  0  0  0  0
   58.3130   28.8990   44.6950 C   0  0  0  0  0  0  0  0  0  0  0  0
   58.5600   30.1580   44.1400 C   0  0  0  0  0  0  0  0  0  0  0  0
   57.9260   33.0979   43.9514 H   0  0  0  0  0  0  0  0  0  0  0  0
   58.6699   32.2663   42.5437 H   0  0  0  0  0  0  0  0  0  0  0  0
   56.9115   32.6333   42.5437 H   0  0  0  0  0  0  0  0  0  0  0  0
   55.3256   31.2436   43.7917 H   0  0  0  0  0  0  0  0  0  0  0  0
   54.8885   28.9820   44.7651 H   0  0  0  0  0  0  0  0  0  0  0  0
   55.6902   26.8089   45.2953 H   0  0  0  0  0  0  0  0  0  0  0  0
   57.3878   26.3625   44.8986 H   0  0  0  0  0  0  0  0  0  0  0  0
   60.5891   26.5401   48.9413 H   0  0  0  0  0  0  0  0  0  0  0  0
   61.9245   28.3812   49.9448 H   0  0  0  0  0  0  0  0  0  0  0  0
   57.8122   29.4271   47.3166 H   0  0  0  0  0  0  0  0  0  0  0  0
   58.8794   31.7462   47.0387 H   0  0  0  0  0  0  0  0  0  0  0  0
   58.0784   31.8525   48.6793 H   0  0  0  0  0  0  0  0  0  0  0  0
   60.2009   34.7964   51.9877 H   0  0  0  0  0  0  0  0  0  0  0  0
   59.3789   34.0599   54.2229 H   0  0  0  0  0  0  0  0  0  0  0  0
   57.8087   32.1339   54.4094 H   0  0  0  0  0  0  0  0  0  0  0  0
   55.9612   30.9223   53.0476 H   0  0  0  0  0  0  0  0  0  0  0  0
   56.3577   30.4277   51.3659 H   0  0  0  0  0  0  0  0  0  0  0  0
   61.5404   28.1186   53.6153 H   0  0  0  0  0  0  0  0  0  0  0  0
   61.1860   27.2255   52.0976 H   0  0  0  0  0  0  0  0  0  0  0  0
   61.2117   29.0216   52.0976 H   0  0  0  0  0  0  0  0  0  0  0  0
   60.6618   26.0066   54.0440 H   0  0  0  0  0  0  0  0  0  0  0  0
   59.2286   25.4615   55.0078 H   0  0  0  0  0  0  0  0  0  0  0  0
   57.9050   23.2000   52.4000 H   0  0  0  0  0  0  0  0  0  0  0  0
   57.3530   24.2190   53.7730 H   0  0  0  0  0  0  0  0  0  0  0  0
   55.0962   28.4542   54.9028 H   0  0  0  0  0  0  0  0  0  0  0  0
   54.8690   29.3719   53.3754 H   0  0  0  0  0  0  0  0  0  0  0  0
   54.7348   27.5806   53.3754 H   0  0  0  0  0  0  0  0  0  0  0  0
   57.9769   31.5852   50.1173 H   0  0  0  0  0  0  0  0  0  0  0  0
   61.3687   32.1181   47.0920 H   0  0  0  0  0  0  0  0  0  0  0  0
   61.7452   33.6574   47.9323 H   0  0  0  0  0  0  0  0  0  0  0  0
   62.9912   31.3379   48.5322 H   0  0  0  0  0  0  0  0  0  0  0  0
   62.6288   32.6042   49.7750 H   0  0  0  0  0  0  0  0  0  0  0  0
   59.1564   28.2417   44.9531 H   0  0  0  0  0  0  0  0  0  0  0  0
   59.5951   30.4845   43.9614 H   0  0  0  0  0  0  0  0  0  0  0  0
  1  2  1  0
  2  3  2  0
  3  4  1  0
  4  5  2  0
  5  6  1  0
  6  7  1  0
  7  8  1  0
  8  9  2  0
  8 10  1  0
 10 11  2  0
 11 12  1  0
 12 13  2  0
 13 14  1  0
 14 15  2  0
 14 16  1  0
 16 17  1  0
 17 18  1  0
 18 19  2  0
 18 20  1  0
 20 21  2  0
 21 22  1  0
 22 23  2  0
 23 24  1  0
 24 25  1  0
 25 26  1  0
 26 27  1  0
 27 28  1  0
 28 29  1  0
 28 30  2  0
 30 31  1  0
 31 32  1  0
 32 33  1  0
 32 34  2  0
 30 35  1  0
 35 36  2  0
 35 37  1  0
 37 38  1  0
 24 39  2  0
 17 40  1  0
 40 41  1  0
 41 42  1  0
  5 43  1  0
 43 44  2  0
 44  2  1  0
 15 10  1  0
 39 20  1  0
 42 13  1  0
 37 26  2  0
  1 45  1  0
  1 46  1  0
  1 47  1  0
  3 48  1  0
  4 49  1  0
  6 50  1  0
  6 51  1  0
 11 52  1  0
 12 53  1  0
 15 54  1  0
 16 55  1  0
 16 56  1  0
 21 57  1  0
 22 58  1  0
 23 59  1  0
 25 60  1  0
 25 61  1  0
 29 62  1  0
 29 63  1  0
 29 64  1  0
 31 65  1  0
 31 66  1  0
 33 67  1  0
 33 68  1  0
 38 69  1  0
 38 70  1  0
 38 71  1  0
 39 72  1  0
 40 73  1  0
 40 74  1  0
 41 75  1  0
 41 76  1  0
 43 77  1  0
 44 78  1  0
M  CHG  2   7  -1  27  -1
M  END
>  <UniqueID>  (21) 
21

>  <SMILES>  (21) 
Cc1ccc(C[N-]C(=O)c2ccc3c(c2)CN(C(=O)c2cccc(Cc4[n-]c(C)c(CC(N)=O)c(=O)c4C)c2)CCO3)cc1

>  <Energy>  (21) 
100.4661077968559

>  <Genealogy>  (21) 
Cc1ccc(C[N-]C(=O)c2ccc3c(c2)CN(C(=O)c2cccc(Cc4[n-]c(C)c(CC(N)=O)c(=O)c4C)c2)CCO3)cc1 (protonated)
Cc1ccc(C[N-]C(=O)c2ccc3c(c2)CN(C(=O)c2cccc(Cc4[n-]c(C)c(CC(N)=O)c(=O)c4C)c2)CCO3)cc1 (3D coordinates assigned)
Cc1ccc(C[N-]C(=O)c2ccc3c(c2)CN(C(=O)c2cccc(Cc4[n-]c(C)c(CC(N)=O)c(=O)c4C)c2)CCO3)cc1 (nonaromatic ring conformer: 100.4661077968559 kcal/mol)

>  <smiles>  (21) 
Cc1ccc(CNC(=O)c2ccc3c(c2)CN(C(=O)c2cccc(Cc4[nH]c(C)c(CC(N)=O)c(=O)c4C)c2)CCO3)cc1

>  <score_type>  (21) 
oracle

>  <origin>  (21) 
adg

>  <m_score__min__energy>  (21) 
-10.1

>  <m_primary>  (21) 
energy

$$$$
21:0
     RDKit          3D

 54 57  0  0  0  0  0  0  0  0999 V2000
   63.1850   33.8430   46.3390 C   0  0  0  0  0  0  0  0  0  0  0  0
   62.4510   33.6760   47.4500 C   0  0  0  0  0  0  0  0  0  0  0  0
   63.1250   33.3160   48.5700 N   0  0  0  0  0  0  0  0  0  0  0  0
   62.5570   33.3150   49.7960 C   0  0  0  0  0  0  0  0  0  0  0  0
   63.2490   32.9500   50.7830 O   0  0  0  0  0  0  0  0  0  0  0  0
   61.2620   33.7300   49.9580 N   0  0  0  0  0  0  0  0  0  0  0  0
   60.6750   33.8290   51.3110 C   0  0  0  0  0  0  0  0  0  0  0  0
   59.4440   32.9650   51.4150 C   0  0  0  0  0  0  0  0  0  0  0  0
   58.3850   33.3360   52.2600 C   0  0  0  0  0  0  0  0  0  0  0  0
   57.2560   32.5170   52.3740 C   0  0  0  0  0  0  0  0  0  0  0  0
   57.1800   31.3230   51.6540 C   0  0  0  0  0  0  0  0  0  0  0  0
   58.2330   30.9450   50.8150 C   0  0  0  0  0  0  0  0  0  0  0  0
   59.3620   31.7610   50.6960 C   0  0  0  0  0  0  0  0  0  0  0  0
   60.5160   34.0730   48.8570 C   0  0  0  0  0  0  0  0  0  0  0  0
   59.3170   34.4450   49.0140 O   0  0  0  0  0  0  0  0  0  0  0  0
   61.0590   33.9800   47.5470 C   0  0  0  0  0  0  0  0  0  0  0  0
   60.2270   34.1580   46.4810 C   0  0  0  0  0  0  0  0  0  0  0  0
   59.3710   33.1260   45.8580 C   0  0  0  0  0  0  0  0  0  0  0  0
   58.6710   33.4300   44.6800 C   0  0  0  0  0  0  0  0  0  0  0  0
   57.8290   32.4800   44.0950 C   0  0  0  0  0  0  0  0  0  0  0  0
   57.6560   31.2250   44.6950 C   0  0  0  0  0  0  0  0  0  0  0  0
   56.6300   30.0050   43.9470 S   0  0  0  0  0  0  0  0  0  0  0  0
   55.2520   30.0900   44.5400 O   0  0  0  0  0  0  0  0  0  0  0  0
   56.5330   30.2540   42.4670 O   0  0  0  0  0  0  0  0  0  0  0  0
   57.3040   28.4260   44.2530 N   0  0  0  0  0  0  0  0  0  0  0  0
   57.0280   27.9700   45.6170 C   0  0  0  0  0  0  0  0  0  0  0  0
   58.1470   27.0080   45.9910 C   0  0  0  0  0  0  0  0  0  0  0  0
   59.2750   27.2950   45.0100 C   0  0  0  0  0  0  0  0  0  0  0  0
   58.7630   28.4190   44.1210 C   0  0  0  0  0  0  0  0  0  0  0  0
   58.3310   30.9290   45.8860 C   0  0  0  0  0  0  0  0  0  0  0  0
   59.1740   31.8770   46.4730 C   0  0  0  0  0  0  0  0  0  0  0  0
   62.6981   34.1350   45.3968 H   0  0  0  0  0  0  0  0  0  0  0  0
   64.2736   33.6879   46.3705 H   0  0  0  0  0  0  0  0  0  0  0  0
   61.4157   33.4952   52.0526 H   0  0  0  0  0  0  0  0  0  0  0  0
   60.3935   34.8751   51.5019 H   0  0  0  0  0  0  0  0  0  0  0  0
   58.4433   34.2728   52.8336 H   0  0  0  0  0  0  0  0  0  0  0  0
   56.4265   32.8145   53.0323 H   0  0  0  0  0  0  0  0  0  0  0  0
   56.2923   30.6801   51.7467 H   0  0  0  0  0  0  0  0  0  0  0  0
   58.1729   30.0044   50.2479 H   0  0  0  0  0  0  0  0  0  0  0  0
   60.1892   31.4591   50.0368 H   0  0  0  0  0  0  0  0  0  0  0  0
   60.1892   35.1662   46.0427 H   0  0  0  0  0  0  0  0  0  0  0  0
   58.7856   34.4203   44.2151 H   0  0  0  0  0  0  0  0  0  0  0  0
   57.3002   32.7181   43.1603 H   0  0  0  0  0  0  0  0  0  0  0  0
   56.8910   27.7470   43.5700 H   0  0  0  0  0  0  0  0  0  0  0  0
   57.0170   28.8258   46.3080 H   0  0  0  0  0  0  0  0  0  0  0  0
   56.0460   27.4782   45.6789 H   0  0  0  0  0  0  0  0  0  0  0  0
   58.4803   27.1888   47.0236 H   0  0  0  0  0  0  0  0  0  0  0  0
   57.8181   25.9596   45.9393 H   0  0  0  0  0  0  0  0  0  0  0  0
   60.1809   27.6120   45.5475 H   0  0  0  0  0  0  0  0  0  0  0  0
   59.5453   26.4030   44.4259 H   0  0  0  0  0  0  0  0  0  0  0  0
   59.1785   29.3827   44.4506 H   0  0  0  0  0  0  0  0  0  0  0  0
   59.0657   28.2661   43.0746 H   0  0  0  0  0  0  0  0  0  0  0  0
   58.1971   29.9462   46.3615 H   0  0  0  0  0  0  0  0  0  0  0  0
   59.6849   31.6451   47.4191 H   0  0  0  0  0  0  0  0  0  0  0  0
  1  2  2  0
  2  3  1  0
  3  4  1  0
  4  5  2  0
  4  6  1  0
  6  7  1  0
  7  8  1  0
  8  9  2  0
  9 10  1  0
 10 11  2  0
 11 12  1  0
 12 13  2  0
  6 14  1  0
 14 15  2  0
 14 16  1  0
 16 17  2  3
 17 18  1  0
 18 19  2  0
 19 20  1  0
 20 21  2  0
 21 22  1  0
 22 23  2  0
 22 24  2  0
 22 25  1  0
 25 26  1  0
 26 27  1  0
 27 28  1  0
 28 29  1  0
 21 30  1  0
 30 31  2  0
 16  2  1  0
 31 18  1  0
 13  8  1  0
 29 25  1  0
  1 32  1  0
  1 33  1  0
  7 34  1  0
  7 35  1  0
  9 36  1  0
 10 37  1  0
 11 38  1  0
 12 39  1  0
 13 40  1  0
 17 41  1  0
 19 42  1  0
 20 43  1  0
 25 44  1  0
 26 45  1  0
 26 46  1  0
 27 47  1  0
 27 48  1  0
 28 49  1  0
 28 50  1  0
 29 51  1  0
 29 52  1  0
 30 53  1  0
 31 54  1  0
M  CHG  2   3  -1  25   1
M  END
>  <UniqueID>  (22) 
22

>  <SMILES>  (22) 
C=c1[n-]c(=O)n(Cc2ccccc2)c(=O)c1=Cc1ccc(S(=O)(=O)[NH+]2CCCC2)cc1

>  <Energy>  (22) 
84.28947863469459

>  <Genealogy>  (22) 
C=c1[n-]c(=O)n(Cc2ccccc2)c(=O)c1=Cc1ccc(S(=O)(=O)[NH+]2CCCC2)cc1 (protonated)
C=c1[n-]c(=O)n(Cc2ccccc2)c(=O)c1=Cc1ccc(S(=O)(=O)[NH+]2CCCC2)cc1 (3D coordinates assigned)
C=c1[n-]c(=O)n(Cc2ccccc2)c(=O)c1=Cc1ccc(S(=O)(=O)[NH+]2CCCC2)cc1 (nonaromatic ring conformer: 84.28947863469459 kcal/mol)

>  <smiles>  (22) 
C=c1[nH]c(=O)n(Cc2ccccc2)c(=O)c1=Cc1ccc(S(=O)(=O)N2CCCC2)cc1

>  <score_type>  (22) 
oracle

>  <origin>  (22) 
adg

>  <m_score__min__energy>  (22) 
-10.42

>  <m_primary>  (22) 
energy

$$$$
22:0
     RDKit          3D

 46 49  0  0  0  0  0  0  0  0999 V2000
   59.9740   34.5000   48.0110 O   0  0  0  0  0  0  0  0  0  0  0  0
   60.6770   33.4630   48.1540 C   0  0  0  0  0  0  0  0  0  0  0  0
   60.0910   32.1460   47.8410 C   0  0  0  0  0  0  0  0  0  0  0  0
   59.5780   31.2810   48.8060 C   0  0  0  0  0  0  0  0  0  0  0  0
   58.9890   29.9100   48.0310 S   0  0  0  0  0  0  0  0  0  0  0  0
   59.3600   30.4080   46.4700 C   0  0  0  0  0  0  0  0  0  0  0  0
   59.1350   29.6070   45.2270 C   0  0  0  0  0  0  0  0  0  0  0  0
   57.7230   29.6640   44.8420 N   0  0  0  0  0  0  0  0  0  0  0  0
   57.1430   30.6250   44.0970 C   0  0  0  0  0  0  0  0  0  0  0  0
   55.8240   30.2770   43.8850 C   0  0  0  0  0  0  0  0  0  0  0  0
   55.5860   29.0970   44.4900 N   0  0  0  0  0  0  0  0  0  0  0  0
   56.7550   28.7450   45.0560 C   0  0  0  0  0  0  0  0  0  0  0  0
   56.9640   27.3480   45.8880 S   0  0  0  0  0  0  0  0  0  0  0  0
   59.9600   31.6590   46.5300 C   0  0  0  0  0  0  0  0  0  0  0  0
   62.0310   33.5850   48.6220 N   0  0  0  0  0  0  0  0  0  0  0  0
   62.3390   34.5660   49.6710 C   0  0  0  0  0  0  0  0  0  0  0  0
   63.4740   34.0510   50.5660 C   0  0  0  0  0  0  0  0  0  0  0  0
   64.5470   33.4230   49.7810 N   0  0  0  0  0  0  0  0  0  0  0  0
   65.5920   32.6990   50.4580 C   0  0  0  0  0  0  0  0  0  0  0  0
   65.3660   31.3920   50.9240 C   0  0  0  0  0  0  0  0  0  0  0  0
   66.3880   30.6860   51.5640 C   0  0  0  0  0  0  0  0  0  0  0  0
   67.6430   31.2740   51.7430 C   0  0  0  0  0  0  0  0  0  0  0  0
   67.8770   32.5700   51.2810 C   0  0  0  0  0  0  0  0  0  0  0  0
   66.8590   33.2810   50.6390 C   0  0  0  0  0  0  0  0  0  0  0  0
   64.4880   33.4560   48.3140 C   0  0  0  0  0  0  0  0  0  0  0  0
   63.1170   32.9600   47.8490 C   0  0  0  0  0  0  0  0  0  0  0  0
   59.5613   31.4642   49.8905 H   0  0  0  0  0  0  0  0  0  0  0  0
   59.7511   30.0169   44.4132 H   0  0  0  0  0  0  0  0  0  0  0  0
   59.4151   28.5603   45.4167 H   0  0  0  0  0  0  0  0  0  0  0  0
   57.6368   31.5332   43.7212 H   0  0  0  0  0  0  0  0  0  0  0  0
   55.0891   30.8656   43.3163 H   0  0  0  0  0  0  0  0  0  0  0  0
   54.6880   28.5660   44.4990 H   0  0  0  0  0  0  0  0  0  0  0  0
   60.2982   32.2122   45.6414 H   0  0  0  0  0  0  0  0  0  0  0  0
   62.6471   35.5127   49.2032 H   0  0  0  0  0  0  0  0  0  0  0  0
   61.4416   34.7243   50.2871 H   0  0  0  0  0  0  0  0  0  0  0  0
   63.8940   34.8967   51.1303 H   0  0  0  0  0  0  0  0  0  0  0  0
   63.0569   33.2914   51.2436 H   0  0  0  0  0  0  0  0  0  0  0  0
   64.3807   30.9233   50.7842 H   0  0  0  0  0  0  0  0  0  0  0  0
   66.2041   29.6644   51.9280 H   0  0  0  0  0  0  0  0  0  0  0  0
   68.4456   30.7160   52.2475 H   0  0  0  0  0  0  0  0  0  0  0  0
   68.8647   33.0330   51.4224 H   0  0  0  0  0  0  0  0  0  0  0  0
   67.0501   34.3008   50.2736 H   0  0  0  0  0  0  0  0  0  0  0  0
   64.6434   34.4870   47.9636 H   0  0  0  0  0  0  0  0  0  0  0  0
   65.2734   32.8066   47.9000 H   0  0  0  0  0  0  0  0  0  0  0  0
   62.9882   33.2082   46.7851 H   0  0  0  0  0  0  0  0  0  0  0  0
   63.0710   31.8719   48.0034 H   0  0  0  0  0  0  0  0  0  0  0  0
  1  2  2  0
  2  3  1  0
  3  4  2  0
  4  5  1  0
  5  6  1  0
  6  7  1  0
  7  8  1  0
  8  9  1  0
  9 10  2  0
 10 11  1  0
 11 12  1  0
 12 13  2  0
  6 14  2  0
  2 15  1  0
 15 16  1  0
 16 17  1  0
 17 18  1  0
 18 19  1  0
 19 20  2  0
 20 21  1  0
 21 22  2  0
 22 23  1  0
 23 24  2  0
 18 25  1  0
 25 26  1  0
 14  3  1  0
 26 15  1  0
 12  8  1  0
 24 19  1  0
  4 27  1  0
  7 28  1  0
  7 29  1  0
  9 30  1  0
 10 31  1  0
 11 32  1  0
 14 33  1  0
 16 34  1  0
 16 35  1  0
 17 36  1  0
 17 37  1  0
 20 38  1  0
 21 39  1  0
 22 40  1  0
 23 41  1  0
 24 42  1  0
 25 43  1  0
 25 44  1  0
 26 45  1  0
 26 46  1  0
M  END
>  <UniqueID>  (23) 
23

>  <SMILES>  (23) 
O=C(c1csc(Cn2cc[nH]c2=S)c1)N1CCN(c2ccccc2)CC1

>  <Energy>  (23) 
112.70259530244667

>  <Genealogy>  (23) 
O=C(c1csc(Cn2cc[nH]c2=S)c1)N1CCN(c2ccccc2)CC1 (3D coordinates assigned)
O=C(c1csc(Cn2cc[nH]c2=S)c1)N1CCN(c2ccccc2)CC1 (nonaromatic ring conformer: 112.70259530244667 kcal/mol)

>  <smiles>  (23) 
O=C(c1csc(Cn2cc[nH]c2=S)c1)N1CCN(c2ccccc2)CC1

>  <score_type>  (23) 
oracle

>  <origin>  (23) 
adg

>  <m_score__min__energy>  (23) 
-8.1099999999999994

>  <m_primary>  (23) 
energy

$$$$
23:0
     RDKit          3D

 73 77  0  0  0  0  0  0  0  0999 V2000
   67.9160   33.1780   50.6770 C   0  0  0  0  0  0  0  0  0  0  0  0
   66.4210   33.0450   51.0000 C   0  0  0  0  0  0  0  0  0  0  0  0
   66.2000   32.1040   52.1850 C   0  0  0  0  0  0  0  0  0  0  0  0
   64.7090   32.0700   52.5520 C   0  0  0  0  0  0  0  0  0  0  0  0
   63.8070   31.9030   51.3880 N   0  0  0  0  0  0  0  0  0  0  0  0
   62.5670   33.1340   51.2870 S   0  0  0  0  0  0  0  0  0  0  0  0
   61.4340   32.7700   52.2090 O   0  0  0  0  0  0  0  0  0  0  0  0
   63.1310   34.4460   51.7530 O   0  0  0  0  0  0  0  0  0  0  0  0
   61.9390   33.3380   49.6500 C   0  0  0  0  0  0  0  0  0  0  0  0
   62.7940   33.7430   48.6160 C   0  0  0  0  0  0  0  0  0  0  0  0
   62.3080   33.8950   47.3160 C   0  0  0  0  0  0  0  0  0  0  0  0
   60.9600   33.6530   47.0380 C   0  0  0  0  0  0  0  0  0  0  0  0
   60.4900   33.8030   45.7730 N   0  0  0  0  0  0  0  0  0  0  0  0
   59.1820   33.5830   45.4750 C   0  0  0  0  0  0  0  0  0  0  0  0
   58.7050   33.8030   44.0630 C   0  0  0  0  0  0  0  0  0  0  0  0
   57.4130   33.0530   43.7110 C   0  0  0  0  0  0  0  0  0  0  0  0
   57.5140   31.5740   43.9720 C   0  0  0  0  0  0  0  0  0  0  0  0
   57.9880   30.8170   43.0810 O   0  0  0  0  0  0  0  0  0  0  0  0
   57.0830   31.0370   45.2340 N   0  0  0  0  0  0  0  0  0  0  0  0
   57.2550   29.6620   45.6030 C   0  0  0  0  0  0  0  0  0  0  0  0
   58.3690   29.2960   46.3720 C   0  0  0  0  0  0  0  0  0  0  0  0
   58.5700   27.9600   46.7450 C   0  0  0  0  0  0  0  0  0  0  0  0
   59.9910   27.4980   47.6750 S   0  0  0  0  0  0  0  0  0  0  0  0
   61.0790   27.0740   46.7250 O   0  0  0  0  0  0  0  0  0  0  0  0
   59.6620   26.3390   48.5750 O   0  0  0  0  0  0  0  0  0  0  0  0
   60.5260   28.8640   48.6280 N   0  0  0  0  0  0  0  0  0  0  0  0
   59.4100   29.8110   48.8780 C   0  0  0  0  0  0  0  0  0  0  0  0
   58.8580   29.6860   50.3100 C   0  0  0  0  0  0  0  0  0  0  0  0
   59.8370   29.9070   51.3200 O   0  0  0  0  0  0  0  0  0  0  0  0
   61.1520   29.4950   50.9420 C   0  0  0  0  0  0  0  0  0  0  0  0
   61.1720   28.3940   49.8680 C   0  0  0  0  0  0  0  0  0  0  0  0
   57.6450   26.9850   46.3490 C   0  0  0  0  0  0  0  0  0  0  0  0
   56.5120   27.3480   45.6160 C   0  0  0  0  0  0  0  0  0  0  0  0
   56.3040   28.6820   45.2550 C   0  0  0  0  0  0  0  0  0  0  0  0
   55.1370   29.0280   44.5850 O   0  0  0  0  0  0  0  0  0  0  0  0
   58.3150   33.2260   46.4620 N   0  0  0  0  0  0  0  0  0  0  0  0
   58.7340   33.0490   47.7420 C   0  0  0  0  0  0  0  0  0  0  0  0
   57.9010   32.6950   48.6200 O   0  0  0  0  0  0  0  0  0  0  0  0
   60.0850   33.2620   48.0710 C   0  0  0  0  0  0  0  0  0  0  0  0
   60.5810   33.1090   49.3790 C   0  0  0  0  0  0  0  0  0  0  0  0
   64.4590   31.6240   50.0930 C   0  0  0  0  0  0  0  0  0  0  0  0
   65.6250   32.5740   49.7650 C   0  0  0  0  0  0  0  0  0  0  0  0
   68.4904   33.2291   51.6137 H   0  0  0  0  0  0  0  0  0  0  0  0
   68.2440   32.3055   50.0929 H   0  0  0  0  0  0  0  0  0  0  0  0
   68.0848   34.0947   50.0929 H   0  0  0  0  0  0  0  0  0  0  0  0
   66.0470   34.0404   51.2816 H   0  0  0  0  0  0  0  0  0  0  0  0
   66.5324   31.0911   51.9138 H   0  0  0  0  0  0  0  0  0  0  0  0
   66.7781   32.4654   53.0482 H   0  0  0  0  0  0  0  0  0  0  0  0
   64.5416   31.2306   53.2429 H   0  0  0  0  0  0  0  0  0  0  0  0
   64.4695   33.0438   53.0040 H   0  0  0  0  0  0  0  0  0  0  0  0
   63.8544   33.9423   48.8300 H   0  0  0  0  0  0  0  0  0  0  0  0
   62.9876   34.2059   46.5089 H   0  0  0  0  0  0  0  0  0  0  0  0
   58.5281   34.8796   43.9225 H   0  0  0  0  0  0  0  0  0  0  0  0
   59.4894   33.4097   43.3996 H   0  0  0  0  0  0  0  0  0  0  0  0
   56.5914   33.4626   44.3170 H   0  0  0  0  0  0  0  0  0  0  0  0
   57.2302   33.1902   42.6350 H   0  0  0  0  0  0  0  0  0  0  0  0
   56.8150   31.7100   45.9900 H   0  0  0  0  0  0  0  0  0  0  0  0
   59.0914   30.0641   46.6852 H   0  0  0  0  0  0  0  0  0  0  0  0
   59.7745   30.8377   48.7262 H   0  0  0  0  0  0  0  0  0  0  0  0
   58.5965   29.5703   48.1778 H   0  0  0  0  0  0  0  0  0  0  0  0
   58.0533   30.4249   50.4382 H   0  0  0  0  0  0  0  0  0  0  0  0
   58.5001   28.6526   50.4285 H   0  0  0  0  0  0  0  0  0  0  0  0
   61.6911   30.3707   50.5513 H   0  0  0  0  0  0  0  0  0  0  0  0
   61.6273   29.0751   51.8407 H   0  0  0  0  0  0  0  0  0  0  0  0
   62.2150   28.1205   49.6506 H   0  0  0  0  0  0  0  0  0  0  0  0
   60.6195   27.5211   50.2458 H   0  0  0  0  0  0  0  0  0  0  0  0
   57.8111   25.9309   46.6158 H   0  0  0  0  0  0  0  0  0  0  0  0
   55.7808   26.5806   45.3219 H   0  0  0  0  0  0  0  0  0  0  0  0
   59.9026   32.8091   50.1913 H   0  0  0  0  0  0  0  0  0  0  0  0
   64.8463   30.5947   50.1148 H   0  0  0  0  0  0  0  0  0  0  0  0
   63.6973   31.7718   49.3133 H   0  0  0  0  0  0  0  0  0  0  0  0
   66.3162   32.0513   49.0874 H   0  0  0  0  0  0  0  0  0  0  0  0
   65.1831   33.4732   49.3109 H   0  0  0  0  0  0  0  0  0  0  0  0
  1  2  1  0
  2  3  1  0
  3  4  1  0
  4  5  1  0
  5  6  1  0
  6  7  2  0
  6  8  2  0
  6  9  1  0
  9 10  2  0
 10 11  1  0
 11 12  2  0
 12 13  1  0
 13 14  1  0
 14 15  1  0
 15 16  1  0
 16 17  1  0
 17 18  2  0
 17 19  1  0
 19 20  1  0
 20 21  2  0
 21 22  1  0
 22 23  1  0
 23 24  2  0
 23 25  2  0
 23 26  1  0
 26 27  1  0
 27 28  1  0
 28 29  1  0
 29 30  1  0
 30 31  1  0
 22 32  2  0
 32 33  1  0
 33 34  2  0
 34 35  1  0
 14 36  2  0
 36 37  1  0
 37 38  2  0
 37 39  1  0
 39 40  2  0
  5 41  1  0
 41 42  1  0
 42  2  1  0
 40  9  1  0
 39 12  1  0
 34 20  1  0
 31 26  1  0
  1 43  1  0
  1 44  1  0
  1 45  1  0
  2 46  1  0
  3 47  1  0
  3 48  1  0
  4 49  1  0
  4 50  1  0
 10 51  1  0
 11 52  1  0
 15 53  1  0
 15 54  1  0
 16 55  1  0
 16 56  1  0
 19 57  1  0
 21 58  1  0
 27 59  1  0
 27 60  1  0
 28 61  1  0
 28 62  1  0
 30 63  1  0
 30 64  1  0
 31 65  1  0
 31 66  1  0
 32 67  1  0
 33 68  1  0
 40 69  1  0
 41 70  1  0
 41 71  1  0
 42 72  1  0
 42 73  1  0
M  CHG  2  13  -1  35  -1
M  END
>  <UniqueID>  (24) 
24

>  <SMILES>  (24) 
CC1CCN(S(=O)(=O)c2ccc3[n-]c(CCC(=O)Nc4cc(S(=O)(=O)N5CCOCC5)ccc4[O-])nc(=O)c3c2)CC1

>  <Energy>  (24) 
98.30041347159542

>  <Genealogy>  (24) 
CC1CCN(S(=O)(=O)c2ccc3[n-]c(CCC(=O)Nc4cc(S(=O)(=O)N5CCOCC5)ccc4[O-])nc(=O)c3c2)CC1 (protonated)
CC1CCN(S(=O)(=O)c2ccc3[n-]c(CCC(=O)Nc4cc(S(=O)(=O)N5CCOCC5)ccc4[O-])nc(=O)c3c2)CC1 (3D coordinates assigned)
CC1CCN(S(=O)(=O)c2ccc3[n-]c(CCC(=O)Nc4cc(S(=O)(=O)N5CCOCC5)ccc4[O-])nc(=O)c3c2)CC1 (nonaromatic ring conformer: 98.30041347159542 kcal/mol)

>  <smiles>  (24) 
CC1CCN(S(=O)(=O)c2ccc3[nH]c(CCC(=O)Nc4cc(S(=O)(=O)N5CCOCC5)ccc4O)nc(=O)c3c2)CC1

>  <score_type>  (24) 
oracle

>  <origin>  (24) 
adg

>  <m_score__min__energy>  (24) 
-14.1

>  <m_primary>  (24) 
energy

$$$$
24:0
     RDKit          3D

 27 28  0  0  0  0  0  0  0  0999 V2000
   58.0160   32.3680   46.9340 C   0  0  0  0  0  0  0  0  0  0  0  0
   57.3400   32.4350   45.6360 N   0  0  0  0  0  0  0  0  0  0  0  0
   58.2980   32.3280   44.5250 C   0  0  0  0  0  0  0  0  0  0  0  0
   57.8760   31.2370   43.5320 C   0  0  0  0  0  0  0  0  0  0  0  0
   57.6330   29.9550   44.2250 N   0  0  0  0  0  0  0  0  0  0  0  0
   56.3510   29.5970   44.6120 C   0  0  0  0  0  0  0  0  0  0  0  0
   55.3720   30.3540   44.3630 O   0  0  0  0  0  0  0  0  0  0  0  0
   56.1260   28.4210   45.2740 N   0  0  0  0  0  0  0  0  0  0  0  0
   57.1750   27.6140   45.5470 C   0  0  0  0  0  0  0  0  0  0  0  0
   57.1300   26.4350   46.1870 N   0  0  0  0  0  0  0  0  0  0  0  0
   58.4120   26.0020   46.2320 C   0  0  0  0  0  0  0  0  0  0  0  0
   59.2640   26.9160   45.6170 C   0  0  0  0  0  0  0  0  0  0  0  0
   58.4420   27.9370   45.1890 C   0  0  0  0  0  0  0  0  0  0  0  0
   58.6950   29.1240   44.5170 C   0  0  0  0  0  0  0  0  0  0  0  0
   59.8750   29.4260   44.1900 O   0  0  0  0  0  0  0  0  0  0  0  0
   57.2708   32.4419   47.7397 H   0  0  0  0  0  0  0  0  0  0  0  0
   58.5538   31.4122   47.0184 H   0  0  0  0  0  0  0  0  0  0  0  0
   58.7310   33.1997   47.0184 H   0  0  0  0  0  0  0  0  0  0  0  0
   56.6930   31.6130   45.5840 H   0  0  0  0  0  0  0  0  0  0  0  0
   58.3466   33.2928   43.9989 H   0  0  0  0  0  0  0  0  0  0  0  0
   59.2821   32.0616   44.9379 H   0  0  0  0  0  0  0  0  0  0  0  0
   56.9528   31.5514   43.0232 H   0  0  0  0  0  0  0  0  0  0  0  0
   58.6878   31.0932   42.8038 H   0  0  0  0  0  0  0  0  0  0  0  0
   55.1600   28.1480   45.5660 H   0  0  0  0  0  0  0  0  0  0  0  0
   56.2870   25.9520   46.5710 H   0  0  0  0  0  0  0  0  0  0  0  0
   58.7365   25.0568   46.6918 H   0  0  0  0  0  0  0  0  0  0  0  0
   60.3550   26.8400   45.4985 H   0  0  0  0  0  0  0  0  0  0  0  0
  1  2  1  0
  2  3  1  0
  3  4  1  0
  4  5  1  0
  5  6  1  0
  6  7  2  0
  6  8  1  0
  8  9  1  0
  9 10  1  0
 10 11  1  0
 11 12  2  0
 12 13  1  0
 13 14  1  0
 14 15  2  0
 14  5  1  0
 13  9  2  0
  1 16  1  0
  1 17  1  0
  1 18  1  0
  2 19  1  0
  3 20  1  0
  3 21  1  0
  4 22  1  0
  4 23  1  0
  8 24  1  0
 10 25  1  0
 11 26  1  0
 12 27  1  0
M  END
>  <UniqueID>  (25) 
25

>  <SMILES>  (25) 
CNCCn1c(=O)[nH]c2[nH]ccc2c1=O

>  <Energy>  (25) 
62.562481481399466

>  <Genealogy>  (25) 
CNCCn1c(=O)[nH]c2[nH]ccc2c1=O (3D coordinates assigned)
CNCCn1c(=O)[nH]c2[nH]ccc2c1=O (optimized conformer: 62.562481481399466 kcal/mol)

>  <smiles>  (25) 
CNCCn1c(=O)[nH]c2[nH]ccc2c1=O

>  <score_type>  (25) 
oracle

>  <origin>  (25) 
adg

>  <m_score__min__energy>  (25) 
-5.0599999999999996

>  <m_primary>  (25) 
energy

$$$$
25:0
     RDKit          3D

 40 42  0  0  0  0  0  0  0  0999 V2000
   56.0530   30.3840   45.4920 H   0  0  0  0  0  0  0  0  0  0  0  0
   55.9540   29.4360   45.1500 O   0  0  0  0  0  0  0  0  0  0  0  0
   56.7710   28.4150   45.6280 C   0  0  0  0  0  0  0  0  0  0  0  0
   58.1290   28.4960   45.8730 C   0  0  0  0  0  0  0  0  0  0  0  0
   58.9860   29.6930   45.7680 C   0  0  0  0  0  0  0  0  0  0  0  0
   60.0830   29.6250   45.1530 O   0  0  0  0  0  0  0  0  0  0  0  0
   58.6300   30.9140   46.4300 N   0  0  0  0  0  0  0  0  0  0  0  0
   58.5900   32.1210   45.9340 C   0  0  0  0  0  0  0  0  0  0  0  0
   59.6780   32.9190   46.1180 N   0  0  0  0  0  0  0  0  0  0  0  0
   59.7330   34.2010   45.6710 C   0  0  0  0  0  0  0  0  0  0  0  0
   60.6344   34.8064   45.8468 H   0  0  0  0  0  0  0  0  0  0  0  0
   58.6480   34.7490   44.9900 C   0  0  0  0  0  0  0  0  0  0  0  0
   58.6793   35.7915   44.6405 H   0  0  0  0  0  0  0  0  0  0  0  0
   57.5230   33.9610   44.7570 C   0  0  0  0  0  0  0  0  0  0  0  0
   56.6603   34.3829   44.2205 H   0  0  0  0  0  0  0  0  0  0  0  0
   57.4860   32.6370   45.2020 C   0  0  0  0  0  0  0  0  0  0  0  0
   56.3840   31.8590   44.8680 O   0  0  0  0  0  0  0  0  0  0  0  0
   58.5100   27.2540   46.3560 C   0  0  0  0  0  0  0  0  0  0  0  0
   59.5351   26.9750   46.6411 H   0  0  0  0  0  0  0  0  0  0  0  0
   57.4370   26.4370   46.4250 N   0  0  0  0  0  0  0  0  0  0  0  0
   57.4140   25.1190   47.0550 C   0  0  0  0  0  0  0  0  0  0  0  0
   56.7643   25.1476   47.9422 H   0  0  0  0  0  0  0  0  0  0  0  0
   58.4338   24.8384   47.3573 H   0  0  0  0  0  0  0  0  0  0  0  0
   56.8830   24.1060   46.0760 C   0  0  0  0  0  0  0  0  0  0  0  0
   57.7680   23.3130   45.3310 C   0  0  0  0  0  0  0  0  0  0  0  0
   58.8503   23.3760   45.5170 H   0  0  0  0  0  0  0  0  0  0  0  0
   57.2790   22.4440   44.3540 C   0  0  0  0  0  0  0  0  0  0  0  0
   57.9760   21.8150   43.7809 H   0  0  0  0  0  0  0  0  0  0  0  0
   55.9060   22.3710   44.1020 C   0  0  0  0  0  0  0  0  0  0  0  0
   55.5283   21.6850   43.3295 H   0  0  0  0  0  0  0  0  0  0  0  0
   55.0090   23.1640   44.8250 C   0  0  0  0  0  0  0  0  0  0  0  0
   53.6420   23.0670   44.5250 O   0  0  0  0  0  0  0  0  0  0  0  0
   52.6790   24.0710   44.8310 C   0  0  0  0  0  0  0  0  0  0  0  0
   52.5853   24.1687   45.9226 H   0  0  0  0  0  0  0  0  0  0  0  0
   53.0022   25.0315   44.4033 H   0  0  0  0  0  0  0  0  0  0  0  0
   51.7058   23.7881   44.4033 H   0  0  0  0  0  0  0  0  0  0  0  0
   55.5040   24.0340   45.8170 C   0  0  0  0  0  0  0  0  0  0  0  0
   54.8064   24.6606   46.3921 H   0  0  0  0  0  0  0  0  0  0  0  0
   56.3770   27.1460   45.9860 C   0  0  0  0  0  0  0  0  0  0  0  0
   55.0740   26.6630   45.9430 O   0  0  0  0  0  0  0  0  0  0  0  0
  1  2  1  0
  2  3  1  0
  3  4  1  0
  4  5  1  0
  5  6  2  0
  5  7  1  0
  7  8  2  0
  8  9  1  0
  9 10  1  0
 10 11  1  0
 10 12  2  0
 12 13  1  0
 12 14  1  0
 14 15  1  0
 14 16  2  0
 16 17  1  0
  4 18  2  0
 18 19  1  0
 18 20  1  0
 20 21  1  0
 21 22  1  0
 21 23  1  0
 21 24  1  0
 24 25  2  0
 25 26  1  0
 25 27  1  0
 27 28  1  0
 27 29  2  0
 29 30  1  0
 29 31  1  0
 31 32  1  0
 32 33  1  0
 33 34  1  0
 33 35  1  0
 33 36  1  0
 31 37  2  0
 37 38  1  0
 20 39  1  0
 39 40  1  0
 39  3  2  0
 16  8  1  0
 37 24  1  0
M  CHG  3   9  -1  17  -1  40  -1
M  END
>  <UniqueID>  (26) 
26

>  <SMILES>  (26) 
COc1cccc(Cn2cc(C(=O)/N=c3/[n-]cccc3[O-])c(O)c2[O-])c1

>  <Energy>  (26) 
79.54141895594736

>  <Genealogy>  (26) 
COc1cccc(Cn2cc(C(=O)N=c3[n-]cccc3[O-])c(O)c2[O-])c1 (protonated)
COc1cccc(Cn2cc(C(=O)/N=c3/[n-]cccc3[O-])c(O)c2[O-])c1 (cis-trans isomerization)
COc1cccc(Cn2cc(C(=O)/N=c3/[n-]cccc3[O-])c(O)c2[O-])c1 (3D coordinates assigned)
COc1cccc(Cn2cc(C(=O)/N=c3/[n-]cccc3[O-])c(O)c2[O-])c1 (optimized conformer: 79.54141895594736 kcal/mol)

>  <smiles>  (26) 
COc1cccc(Cn2cc(C(=O)N=c3[nH]cccc3O)c(O)c2O)c1

>  <score_type>  (26) 
oracle

>  <origin>  (26) 
adg

>  <m_score__min__energy>  (26) 
-14.470000000000001

>  <m_primary>  (26) 
energy

$$$$
26:0
     RDKit          3D

 52 55  0  0  0  0  0  0  0  0999 V2000
   58.8630   34.5710   51.6910 O   0  0  0  0  0  0  0  0  0  0  0  0
   59.3810   33.4510   51.4410 C   0  0  0  0  0  0  0  0  0  0  0  0
   60.8750   33.3100   51.4930 C   0  0  0  0  0  0  0  0  0  0  0  0
   61.4710   34.2160   50.5710 O   0  0  0  0  0  0  0  0  0  0  0  0
   62.1860   33.8370   49.4280 C   0  0  0  0  0  0  0  0  0  0  0  0
   63.5030   33.3490   49.5010 C   0  0  0  0  0  0  0  0  0  0  0  0
   64.1740   32.9740   48.3360 C   0  0  0  0  0  0  0  0  0  0  0  0
   63.5470   33.1000   47.0940 C   0  0  0  0  0  0  0  0  0  0  0  0
   62.2450   33.5990   47.0140 C   0  0  0  0  0  0  0  0  0  0  0  0
   61.5520   33.9560   48.1850 C   0  0  0  0  0  0  0  0  0  0  0  0
   60.2670   34.5180   48.1510 O   0  0  0  0  0  0  0  0  0  0  0  0
   59.2950   34.3280   47.1570 C   0  0  0  0  0  0  0  0  0  0  0  0
   58.1740   33.5440   47.4630 C   0  0  0  0  0  0  0  0  0  0  0  0
   57.1900   33.3040   46.4960 C   0  0  0  0  0  0  0  0  0  0  0  0
   57.3350   33.8360   45.2100 C   0  0  0  0  0  0  0  0  0  0  0  0
   58.4560   34.6090   44.8910 C   0  0  0  0  0  0  0  0  0  0  0  0
   59.4390   34.8500   45.8570 C   0  0  0  0  0  0  0  0  0  0  0  0
   58.5280   32.3340   51.1360 N   0  0  0  0  0  0  0  0  0  0  0  0
   57.3730   31.9770   51.9390 C   0  0  0  0  0  0  0  0  0  0  0  0
   57.1400   30.4920   51.6150 C   0  0  0  0  0  0  0  0  0  0  0  0
   58.1220   30.1680   50.5910 N   0  0  0  0  0  0  0  0  0  0  0  0
   58.8600   31.1960   50.3550 C   0  0  0  0  0  0  0  0  0  0  0  0
   60.1130   31.1840   49.0670 S   0  0  0  0  0  0  0  0  0  0  0  0
   59.6300   29.5570   48.3890 C   0  0  0  0  0  0  0  0  0  0  0  0
   58.9270   29.7140   47.0680 C   0  0  0  0  0  0  0  0  0  0  0  0
   59.4220   30.6130   46.1080 C   0  0  0  0  0  0  0  0  0  0  0  0
   58.8020   30.7240   44.8590 C   0  0  0  0  0  0  0  0  0  0  0  0
   57.6830   29.9420   44.5620 C   0  0  0  0  0  0  0  0  0  0  0  0
   57.1800   29.0500   45.5130 C   0  0  0  0  0  0  0  0  0  0  0  0
   56.0990   28.2830   45.2220 F   0  0  0  0  0  0  0  0  0  0  0  0
   57.8000   28.9330   46.7620 C   0  0  0  0  0  0  0  0  0  0  0  0
   61.2292   33.5360   52.5096 H   0  0  0  0  0  0  0  0  0  0  0  0
   61.1549   32.2800   51.2268 H   0  0  0  0  0  0  0  0  0  0  0  0
   64.0043   33.2628   50.4763 H   0  0  0  0  0  0  0  0  0  0  0  0
   65.1987   32.5784   48.3959 H   0  0  0  0  0  0  0  0  0  0  0  0
   64.0796   32.8057   46.1776 H   0  0  0  0  0  0  0  0  0  0  0  0
   61.7603   33.7131   46.0331 H   0  0  0  0  0  0  0  0  0  0  0  0
   58.0665   33.1143   48.4699 H   0  0  0  0  0  0  0  0  0  0  0  0
   56.3060   32.6992   46.7466 H   0  0  0  0  0  0  0  0  0  0  0  0
   56.5651   33.6457   44.4477 H   0  0  0  0  0  0  0  0  0  0  0  0
   58.5650   35.0279   43.8797 H   0  0  0  0  0  0  0  0  0  0  0  0
   60.3258   35.4482   45.6006 H   0  0  0  0  0  0  0  0  0  0  0  0
   57.5833   32.1153   53.0098 H   0  0  0  0  0  0  0  0  0  0  0  0
   56.4946   32.6015   51.7188 H   0  0  0  0  0  0  0  0  0  0  0  0
   57.2969   29.8723   52.5102 H   0  0  0  0  0  0  0  0  0  0  0  0
   56.1116   30.3012   51.2744 H   0  0  0  0  0  0  0  0  0  0  0  0
   60.5321   28.9439   48.2464 H   0  0  0  0  0  0  0  0  0  0  0  0
   58.9433   29.0705   49.0973 H   0  0  0  0  0  0  0  0  0  0  0  0
   60.3011   31.2323   46.3398 H   0  0  0  0  0  0  0  0  0  0  0  0
   59.1956   31.4273   44.1104 H   0  0  0  0  0  0  0  0  0  0  0  0
   57.1974   30.0285   43.5788 H   0  0  0  0  0  0  0  0  0  0  0  0
   57.4036   28.2271   47.5068 H   0  0  0  0  0  0  0  0  0  0  0  0
  1  2  2  0
  2  3  1  0
  3  4  1  0
  4  5  1  0
  5  6  2  0
  6  7  1  0
  7  8  2  0
  8  9  1  0
  9 10  2  0
 10 11  1  0
 11 12  1  0
 12 13  2  0
 13 14  1  0
 14 15  2  0
 15 16  1  0
 16 17  2  0
  2 18  1  0
 18 19  1  0
 19 20  1  0
 20 21  1  0
 21 22  2  0
 22 23  1  0
 23 24  1  0
 24 25  1  0
 25 26  2  0
 26 27  1  0
 27 28  2  0
 28 29  1  0
 29 30  1  0
 29 31  2  0
 10  5  1  0
 17 12  1  0
 22 18  1  0
 31 25  1  0
  3 32  1  0
  3 33  1  0
  6 34  1  0
  7 35  1  0
  8 36  1  0
  9 37  1  0
 13 38  1  0
 14 39  1  0
 15 40  1  0
 16 41  1  0
 17 42  1  0
 19 43  1  0
 19 44  1  0
 20 45  1  0
 20 46  1  0
 24 47  1  0
 24 48  1  0
 26 49  1  0
 27 50  1  0
 28 51  1  0
 31 52  1  0
M  END
>  <UniqueID>  (27) 
27

>  <SMILES>  (27) 
O=C(COc1ccccc1Oc1ccccc1)N1CCN=C1SCc1cccc(F)c1

>  <Energy>  (27) 
72.32071500912002

>  <Genealogy>  (27) 
O=C(COc1ccccc1Oc1ccccc1)N1CCN=C1SCc1cccc(F)c1 (3D coordinates assigned)
O=C(COc1ccccc1Oc1ccccc1)N1CCN=C1SCc1cccc(F)c1 (nonaromatic ring conformer: 72.32071500912002 kcal/mol)

>  <smiles>  (27) 
O=C(COc1ccccc1Oc1ccccc1)N1CCN=C1SCc1cccc(F)c1

>  <score_type>  (27) 
oracle

>  <origin>  (27) 
adg

>  <m_score__min__energy>  (27) 
-8.4900000000000002

>  <m_primary>  (27) 
energy

$$$$
27:0
     RDKit          3D

 27 28  0  0  0  0  0  0  0  0999 V2000
   54.9070   26.3580   46.1230 N   0  0  0  0  0  0  0  0  0  0  0  0
   56.2980   26.3570   45.8140 C   0  0  0  0  0  0  0  0  0  0  0  0
   56.9620   25.2920   45.9340 O   0  0  0  0  0  0  0  0  0  0  0  0
   56.9510   27.5920   45.3580 C   0  0  0  0  0  0  0  0  0  0  0  0
   58.2870   27.6540   44.9640 C   0  0  0  0  0  0  0  0  0  0  0  0
   58.6280   29.2420   44.5310 S   0  0  0  0  0  0  0  0  0  0  0  0
   57.0590   29.7770   44.8490 C   0  0  0  0  0  0  0  0  0  0  0  0
   56.6260   31.0000   44.7560 N   0  0  0  0  0  0  0  0  0  0  0  0
   57.3190   32.1920   45.1510 C   0  0  0  0  0  0  0  0  0  0  0  0
   56.6680   33.2680   45.2430 O   0  0  0  0  0  0  0  0  0  0  0  0
   58.8040   32.2050   45.4070 C   0  0  0  0  0  0  0  0  0  0  0  0
   59.1120   32.7390   46.7880 C   0  0  0  0  0  0  0  0  0  0  0  0
   58.9950   31.8940   47.9100 C   0  0  0  0  0  0  0  0  0  0  0  0
   58.6230   30.5960   47.7680 F   0  0  0  0  0  0  0  0  0  0  0  0
   59.2590   32.3840   49.1930 C   0  0  0  0  0  0  0  0  0  0  0  0
   59.6280   33.7170   49.3740 C   0  0  0  0  0  0  0  0  0  0  0  0
   59.7320   34.5690   48.2720 C   0  0  0  0  0  0  0  0  0  0  0  0
   59.4730   34.0920   46.9830 C   0  0  0  0  0  0  0  0  0  0  0  0
   59.5970   35.2230   45.6370 Cl  0  0  0  0  0  0  0  0  0  0  0  0
   56.2770   28.7740   45.2990 N   0  0  0  0  0  0  0  0  0  0  0  0
   54.4950   27.0910   46.7440 H   0  0  0  0  0  0  0  0  0  0  0  0
   58.9939   26.8115   44.9406 H   0  0  0  0  0  0  0  0  0  0  0  0
   59.1923   31.1792   45.3233 H   0  0  0  0  0  0  0  0  0  0  0  0
   59.2817   32.8602   44.6637 H   0  0  0  0  0  0  0  0  0  0  0  0
   59.1753   31.7157   50.0627 H   0  0  0  0  0  0  0  0  0  0  0  0
   59.8371   34.0973   50.3848 H   0  0  0  0  0  0  0  0  0  0  0  0
   60.0191   35.6207   48.4187 H   0  0  0  0  0  0  0  0  0  0  0  0
  1  2  1  0
  2  3  2  0
  2  4  1  0
  4  5  2  0
  5  6  1  0
  6  7  1  0
  7  8  2  3
  8  9  1  0
  9 10  2  0
  9 11  1  0
 11 12  1  0
 12 13  2  0
 13 14  1  0
 13 15  1  0
 15 16  2  0
 16 17  1  0
 17 18  2  0
 18 19  1  0
  7 20  1  0
 20  4  1  0
 18 12  1  0
  1 21  1  0
  5 22  1  0
 11 23  1  0
 11 24  1  0
 15 25  1  0
 16 26  1  0
 17 27  1  0
M  CHG  2   1  -1  20  -1
M  END
>  <UniqueID>  (28) 
28

>  <SMILES>  (28) 
[NH-]C(=O)c1csc(=NC(=O)Cc2c(F)cccc2Cl)[n-]1

>  <Energy>  (28) 
63.42824830339139

>  <Genealogy>  (28) 
[NH-]C(=O)c1csc(=NC(=O)Cc2c(F)cccc2Cl)[n-]1 (protonated)
[NH-]C(=O)c1csc(=NC(=O)Cc2c(F)cccc2Cl)[n-]1 (3D coordinates assigned)
[NH-]C(=O)c1csc(=NC(=O)Cc2c(F)cccc2Cl)[n-]1 (optimized conformer: 63.42824830339139 kcal/mol)

>  <smiles>  (28) 
NC(=O)c1csc(=NC(=O)Cc2c(F)cccc2Cl)[nH]1

>  <score_type>  (28) 
oracle

>  <origin>  (28) 
adg

>  <m_score__min__energy>  (28) 
-12.34

>  <m_primary>  (28) 
energy

$$$$
28:0
     RDKit          3D

 49 51  0  0  0  0  0  0  0  0999 V2000
   65.4580   31.8280   51.5040 C   0  0  0  0  0  0  0  0  0  0  0  0
   64.9960   32.3720   50.1910 C   0  0  0  0  0  0  0  0  0  0  0  0
   65.8040   33.0160   49.4700 O   0  0  0  0  0  0  0  0  0  0  0  0
   63.6700   32.0780   49.7230 N   0  0  0  0  0  0  0  0  0  0  0  0
   63.0670   32.6910   48.5720 C   0  0  0  0  0  0  0  0  0  0  0  0
   63.8290   33.0390   47.4420 C   0  0  0  0  0  0  0  0  0  0  0  0
   63.2230   33.6650   46.3500 C   0  0  0  0  0  0  0  0  0  0  0  0
   61.8560   33.9530   46.3730 C   0  0  0  0  0  0  0  0  0  0  0  0
   61.0820   33.6080   47.4940 C   0  0  0  0  0  0  0  0  0  0  0  0
   59.6810   33.9100   47.5630 N   0  0  0  0  0  0  0  0  0  0  0  0
   58.7290   33.7570   46.5010 C   0  0  0  0  0  0  0  0  0  0  0  0
   58.1820   34.7900   46.0300 O   0  0  0  0  0  0  0  0  0  0  0  0
   58.3350   32.4260   45.9820 C   0  0  0  0  0  0  0  0  0  0  0  0
   58.9710   31.2580   46.4380 C   0  0  0  0  0  0  0  0  0  0  0  0
   58.5910   30.0070   45.9450 C   0  0  0  0  0  0  0  0  0  0  0  0
   57.5720   29.9010   44.9870 C   0  0  0  0  0  0  0  0  0  0  0  0
   57.1410   28.5550   44.4850 C   0  0  0  0  0  0  0  0  0  0  0  0
   55.9880   28.0980   45.2490 N   0  0  0  0  0  0  0  0  0  0  0  0
   55.9100   26.7950   45.8280 C   0  0  0  0  0  0  0  0  0  0  0  0
   54.8030   26.3490   46.2360 O   0  0  0  0  0  0  0  0  0  0  0  0
   57.1100   26.0300   45.9840 N   0  0  0  0  0  0  0  0  0  0  0  0
   58.3330   26.4730   46.5910 C   0  0  0  0  0  0  0  0  0  0  0  0
   59.5450   25.9490   46.1190 C   0  0  0  0  0  0  0  0  0  0  0  0
   60.7580   26.3380   46.6950 C   0  0  0  0  0  0  0  0  0  0  0  0
   60.7670   27.2440   47.7600 C   0  0  0  0  0  0  0  0  0  0  0  0
   59.5640   27.7530   48.2540 C   0  0  0  0  0  0  0  0  0  0  0  0
   58.3490   27.3660   47.6790 C   0  0  0  0  0  0  0  0  0  0  0  0
   56.9130   31.0620   44.5550 C   0  0  0  0  0  0  0  0  0  0  0  0
   57.2910   32.3140   45.0480 C   0  0  0  0  0  0  0  0  0  0  0  0
   61.6990   33.0050   48.5970 C   0  0  0  0  0  0  0  0  0  0  0  0
   64.9815   32.3890   52.3214 H   0  0  0  0  0  0  0  0  0  0  0  0
   65.1817   30.7659   51.5785 H   0  0  0  0  0  0  0  0  0  0  0  0
   66.5508   31.9287   51.5785 H   0  0  0  0  0  0  0  0  0  0  0  0
   63.1480   31.3090   50.2020 H   0  0  0  0  0  0  0  0  0  0  0  0
   64.9062   32.8174   47.4181 H   0  0  0  0  0  0  0  0  0  0  0  0
   63.8244   33.9322   45.4686 H   0  0  0  0  0  0  0  0  0  0  0  0
   61.3850   34.4505   45.5124 H   0  0  0  0  0  0  0  0  0  0  0  0
   59.7728   31.3294   47.1876 H   0  0  0  0  0  0  0  0  0  0  0  0
   59.0941   29.0996   46.3105 H   0  0  0  0  0  0  0  0  0  0  0  0
   56.8699   28.6299   43.4216 H   0  0  0  0  0  0  0  0  0  0  0  0
   57.9668   27.8380   44.6033 H   0  0  0  0  0  0  0  0  0  0  0  0
   59.5413   25.2266   45.2895 H   0  0  0  0  0  0  0  0  0  0  0  0
   61.7050   25.9315   46.3105 H   0  0  0  0  0  0  0  0  0  0  0  0
   61.7217   27.5558   48.2087 H   0  0  0  0  0  0  0  0  0  0  0  0
   59.5719   28.4597   49.0970 H   0  0  0  0  0  0  0  0  0  0  0  0
   57.4031   27.7607   48.0783 H   0  0  0  0  0  0  0  0  0  0  0  0
   56.0943   30.9864   43.8242 H   0  0  0  0  0  0  0  0  0  0  0  0
   56.7678   33.2178   44.7026 H   0  0  0  0  0  0  0  0  0  0  0  0
   61.1048   32.7747   49.4936 H   0  0  0  0  0  0  0  0  0  0  0  0
  1  2  1  0
  2  3  2  0
  2  4  1  0
  4  5  1  0
  5  6  2  0
  6  7  1  0
  7  8  2  0
  8  9  1  0
  9 10  1  0
 10 11  1  0
 11 12  2  0
 11 13  1  0
 13 14  2  0
 14 15  1  0
 15 16  2  0
 16 17  1  0
 17 18  1  0
 18 19  1  0
 19 20  2  0
 19 21  1  0
 21 22  1  0
 22 23  2  0
 23 24  1  0
 24 25  2  0
 25 26  1  0
 26 27  2  0
 16 28  1  0
 28 29  2  0
  9 30  2  0
 30  5  1  0
 29 13  1  0
 27 22  1  0
  1 31  1  0
  1 32  1  0
  1 33  1  0
  4 34  1  0
  6 35  1  0
  7 36  1  0
  8 37  1  0
 14 38  1  0
 15 39  1  0
 17 40  1  0
 17 41  1  0
 23 42  1  0
 24 43  1  0
 25 44  1  0
 26 45  1  0
 27 46  1  0
 28 47  1  0
 29 48  1  0
 30 49  1  0
M  CHG  3  10  -1  18  -1  21  -1
M  END
>  <UniqueID>  (29) 
29

>  <SMILES>  (29) 
CC(=O)Nc1cccc([N-]C(=O)c2ccc(C[N-]C(=O)[N-]c3ccccc3)cc2)c1

>  <Energy>  (29) 
60.48119221071474

>  <Genealogy>  (29) 
CC(=O)Nc1cccc([N-]C(=O)c2ccc(C[N-]C(=O)[N-]c3ccccc3)cc2)c1 (protonated)
CC(=O)Nc1cccc([N-]C(=O)c2ccc(C[N-]C(=O)[N-]c3ccccc3)cc2)c1 (3D coordinates assigned)
CC(=O)Nc1cccc([N-]C(=O)c2ccc(C[N-]C(=O)[N-]c3ccccc3)cc2)c1 (optimized conformer: 60.48119221071474 kcal/mol)

>  <smiles>  (29) 
CC(=O)Nc1cccc(NC(=O)c2ccc(CNC(=O)Nc3ccccc3)cc2)c1

>  <score_type>  (29) 
oracle

>  <origin>  (29) 
adg

>  <m_score__min__energy>  (29) 
-13.220000000000001

>  <m_primary>  (29) 
energy

$$$$
29:0
     RDKit          3D

 85 88  0  0  0  0  0  0  0  0999 V2000
   55.1610   28.6150   45.6300 H   0  0  0  0  0  0  0  0  0  0  0  0
   55.1490   29.3040   44.8420 N   0  0  0  0  0  0  0  0  0  0  0  0
   56.3660   29.8490   44.3240 C   0  0  0  0  0  0  0  0  0  0  0  0
   56.8750   30.8700   44.8620 O   0  0  0  0  0  0  0  0  0  0  0  0
   57.0340   29.2150   43.1390 C   0  0  0  0  0  0  0  0  0  0  0  0
   57.7649   29.9226   42.7204 H   0  0  0  0  0  0  0  0  0  0  0  0
   56.2587   28.9670   42.3991 H   0  0  0  0  0  0  0  0  0  0  0  0
   57.7610   27.9180   43.5260 C   0  0  0  0  0  0  0  0  0  0  0  0
   58.8069   27.9815   43.1913 H   0  0  0  0  0  0  0  0  0  0  0  0
   57.2442   27.0762   43.0420 H   0  0  0  0  0  0  0  0  0  0  0  0
   57.7370   27.6920   45.0170 C   0  0  0  0  0  0  0  0  0  0  0  0
   58.7300   28.1860   45.7050 N   0  0  0  0  0  0  0  0  0  0  0  0
   58.6900   28.8540   46.9750 C   0  0  0  0  0  0  0  0  0  0  0  0
   58.6810   28.1870   48.0450 O   0  0  0  0  0  0  0  0  0  0  0  0
   58.6510   30.3640   47.0100 C   0  0  1  0  0  0  0  0  0  0  0  0
   57.6229   30.6754   46.7731 H   0  0  0  0  0  0  0  0  0  0  0  0
   59.0220   30.8350   48.3470 N   0  0  0  0  0  0  0  0  0  0  0  0
   59.5230   30.1730   48.9840 H   0  0  0  0  0  0  0  0  0  0  0  0
   58.5030   32.0550   48.8990 C   0  0  0  0  0  0  0  0  0  0  0  0
   57.6470   32.7230   48.2560 O   0  0  0  0  0  0  0  0  0  0  0  0
   58.9420   32.5360   50.2250 C   0  0  0  0  0  0  0  0  0  0  0  0
   58.0520   32.5640   51.3120 C   0  0  0  0  0  0  0  0  0  0  0  0
   57.0061   32.2531   51.1725 H   0  0  0  0  0  0  0  0  0  0  0  0
   58.4910   32.9850   52.5680 C   0  0  0  0  0  0  0  0  0  0  0  0
   57.7860   33.0218   53.4115 H   0  0  0  0  0  0  0  0  0  0  0  0
   59.8240   33.3600   52.7570 C   0  0  0  0  0  0  0  0  0  0  0  0
   60.1606   33.6957   53.7490 H   0  0  0  0  0  0  0  0  0  0  0  0
   60.7370   33.3120   51.6920 C   0  0  0  0  0  0  0  0  0  0  0  0
   62.1380   33.7350   51.9270 C   0  0  0  0  0  0  0  0  0  0  0  0
   62.4691   33.7990   52.9740 H   0  0  0  0  0  0  0  0  0  0  0  0
   63.0430   34.0480   50.9830 C   0  0  0  0  0  0  0  0  0  0  0  0
   63.7547   34.8523   51.2209 H   0  0  0  0  0  0  0  0  0  0  0  0
   63.1700   33.4100   49.6530 C   0  0  0  0  0  0  0  0  0  0  0  0
   63.4040   34.2210   48.5320 C   0  0  0  0  0  0  0  0  0  0  0  0
   63.5055   35.3092   48.6565 H   0  0  0  0  0  0  0  0  0  0  0  0
   63.5090   33.6550   47.2580 C   0  0  0  0  0  0  0  0  0  0  0  0
   63.6792   34.2991   46.3827 H   0  0  0  0  0  0  0  0  0  0  0  0
   63.3980   32.2730   47.0960 C   0  0  0  0  0  0  0  0  0  0  0  0
   63.4619   31.8296   46.0914 H   0  0  0  0  0  0  0  0  0  0  0  0
   63.2060   31.4550   48.2090 C   0  0  0  0  0  0  0  0  0  0  0  0
   63.1244   30.3655   48.0815 H   0  0  0  0  0  0  0  0  0  0  0  0
   63.1170   32.0160   49.4860 C   0  0  0  0  0  0  0  0  0  0  0  0
   63.0050   31.3632   50.3642 H   0  0  0  0  0  0  0  0  0  0  0  0
   60.2740   32.9390   50.4170 C   0  0  0  0  0  0  0  0  0  0  0  0
   60.9633   32.9632   49.5601 H   0  0  0  0  0  0  0  0  0  0  0  0
   59.5740   31.0000   45.9500 C   0  0  0  0  0  0  0  0  0  0  0  0
   60.6119   30.6945   46.1489 H   0  0  0  0  0  0  0  0  0  0  0  0
   59.2507   30.6558   44.9565 H   0  0  0  0  0  0  0  0  0  0  0  0
   59.4900   32.5060   45.9830 C   0  0  0  0  0  0  0  0  0  0  0  0
   58.5620   33.1870   45.1760 C   0  0  0  0  0  0  0  0  0  0  0  0
   57.8757   32.6186   44.5311 H   0  0  0  0  0  0  0  0  0  0  0  0
   58.5080   34.5850   45.1900 C   0  0  0  0  0  0  0  0  0  0  0  0
   57.7782   35.1130   44.5586 H   0  0  0  0  0  0  0  0  0  0  0  0
   59.3810   35.3120   46.0060 C   0  0  0  0  0  0  0  0  0  0  0  0
   59.3350   36.4110   46.0197 H   0  0  0  0  0  0  0  0  0  0  0  0
   60.3130   34.6400   46.8050 C   0  0  0  0  0  0  0  0  0  0  0  0
   60.9976   35.2119   47.4486 H   0  0  0  0  0  0  0  0  0  0  0  0
   60.3760   33.2430   46.7870 C   0  0  0  0  0  0  0  0  0  0  0  0
   61.1213   32.7196   47.4040 H   0  0  0  0  0  0  0  0  0  0  0  0
   56.6050   26.8950   45.6520 C   0  0  0  0  0  0  0  0  0  0  0  0
   56.0057   26.4414   44.8488 H   0  0  0  0  0  0  0  0  0  0  0  0
   56.0200   27.5968   46.2645 H   0  0  0  0  0  0  0  0  0  0  0  0
   57.0920   25.7730   46.5900 C   0  0  0  0  0  0  0  0  0  0  0  0
   56.2089   25.2900   47.0337 H   0  0  0  0  0  0  0  0  0  0  0  0
   57.7436   26.2524   47.3353 H   0  0  0  0  0  0  0  0  0  0  0  0
   57.9260   24.7040   45.9180 C   0  0  0  0  0  0  0  0  0  0  0  0
   59.1130   24.5040   46.3070 O   0  0  0  0  0  0  0  0  0  0  0  0
   57.3870   23.8870   44.8530 N   0  0  0  0  0  0  0  0  0  0  0  0
   56.1330   24.2180   44.1550 C   0  0  0  0  0  0  0  0  0  0  0  0
   56.3712   24.6245   43.1610 H   0  0  0  0  0  0  0  0  0  0  0  0
   55.5842   24.9599   44.7537 H   0  0  0  0  0  0  0  0  0  0  0  0
   55.2460   22.9680   43.9890 C   0  0  0  0  0  0  0  0  0  0  0  0
   54.5858   23.1268   43.1236 H   0  0  0  0  0  0  0  0  0  0  0  0
   54.6936   22.8469   44.9325 H   0  0  0  0  0  0  0  0  0  0  0  0
   56.0010   21.7040   43.7730 N   0  0  0  0  0  0  0  0  0  0  0  0
   55.9230   20.8150   44.9440 C   0  0  0  0  0  0  0  0  0  0  0  0
   55.9757   21.4153   45.8643 H   0  0  0  0  0  0  0  0  0  0  0  0
   54.9728   20.2612   44.9213 H   0  0  0  0  0  0  0  0  0  0  0  0
   56.7622   20.1042   44.9213 H   0  0  0  0  0  0  0  0  0  0  0  0
   57.3970   21.9220   43.3340 C   0  0  0  0  0  0  0  0  0  0  0  0
   57.3887   22.4457   42.3667 H   0  0  0  0  0  0  0  0  0  0  0  0
   57.8861   20.9406   43.2470 H   0  0  0  0  0  0  0  0  0  0  0  0
   58.1880   22.7630   44.3490 C   0  0  0  0  0  0  0  0  0  0  0  0
   59.0911   23.1576   43.8604 H   0  0  0  0  0  0  0  0  0  0  0  0
   58.4547   22.1187   45.1997 H   0  0  0  0  0  0  0  0  0  0  0  0
  1  2  1  0
  2  3  1  0
  3  4  2  0
  3  5  1  0
  5  6  1  0
  5  7  1  0
  5  8  1  0
  8  9  1  0
  8 10  1  0
  8 11  1  0
 11 12  2  3
 12 13  1  0
 13 14  2  0
 13 15  1  0
 15 16  1  6
 15 17  1  0
 17 18  1  0
 17 19  1  0
 19 20  2  0
 19 21  1  0
 21 22  2  0
 22 23  1  0
 22 24  1  0
 24 25  1  0
 24 26  2  0
 26 27  1  0
 26 28  1  0
 28 29  1  0
 29 30  1  0
 29 31  2  0
 31 32  1  0
 31 33  1  0
 33 34  2  0
 34 35  1  0
 34 36  1  0
 36 37  1  0
 36 38  2  0
 38 39  1  0
 38 40  1  0
 40 41  1  0
 40 42  2  0
 42 43  1  0
 28 44  2  0
 44 45  1  0
 15 46  1  0
 46 47  1  0
 46 48  1  0
 46 49  1  0
 49 50  2  0
 50 51  1  0
 50 52  1  0
 52 53  1  0
 52 54  2  0
 54 55  1  0
 54 56  1  0
 56 57  1  0
 56 58  2  0
 58 59  1  0
 11 60  1  0
 60 61  1  0
 60 62  1  0
 60 63  1  0
 63 64  1  0
 63 65  1  0
 63 66  1  0
 66 67  2  0
 66 68  1  0
 68 69  1  0
 69 70  1  0
 69 71  1  0
 69 72  1  0
 72 73  1  0
 72 74  1  0
 72 75  1  0
 75 76  1  0
 76 77  1  0
 76 78  1  0
 76 79  1  0
 75 80  1  0
 80 81  1  0
 80 82  1  0
 80 83  1  0
 83 84  1  0
 83 85  1  0
 44 21  1  0
 58 49  1  0
 83 68  1  0
 42 33  1  0
M  CHG  1   2  -1
M  END
>  <UniqueID>  (30) 
30

>  <SMILES>  (30) 
CN1CCN(C(=O)CCC(CCC([NH-])=O)=NC(=O)[C@H](Cc2ccccc2)NC(=O)c2cccc(/C=C\c3ccccc3)c2)CC1

>  <Energy>  (30) 
105.8373710045644

>  <Genealogy>  (30) 
CN1CCN(C(=O)CCC(CCC([NH-])=O)=NC(=O)C(Cc2ccccc2)NC(=O)c2cccc(C=Cc3ccccc3)c2)CC1 (protonated)
CN1CCN(C(=O)CCC(CCC([NH-])=O)=NC(=O)[C@H](Cc2ccccc2)NC(=O)c2cccc(C=Cc3ccccc3)c2)CC1 (chirality)
CN1CCN(C(=O)CCC(CCC([NH-])=O)=NC(=O)[C@H](Cc2ccccc2)NC(=O)c2cccc(/C=C\c3ccccc3)c2)CC1 (cis-trans isomerization)
CN1CCN(C(=O)CCC(CCC([NH-])=O)=NC(=O)[C@H](Cc2ccccc2)NC(=O)c2cccc(/C=C\c3ccccc3)c2)CC1 (3D coordinates assigned)
CN1CCN(C(=O)CCC(CCC([NH-])=O)=NC(=O)[C@H](Cc2ccccc2)NC(=O)c2cccc(/C=C\c3ccccc3)c2)CC1 (nonaromatic ring conformer: 105.8373710045644 kcal/mol)

>  <smiles>  (30) 
CN1CCN(C(=O)CCC(CCC(N)=O)=NC(=O)C(Cc2ccccc2)NC(=O)c2cccc(C=Cc3ccccc3)c2)CC1

>  <score_type>  (30) 
oracle

>  <origin>  (30) 
adg

>  <m_score__min__energy>  (30) 
-14.23

>  <m_primary>  (30) 
energy

$$$$
30:0
     RDKit          3D

 44 47  0  0  0  0  0  0  0  0999 V2000
   54.8330   23.3080   43.4350 O   0  0  0  0  0  0  0  0  0  0  0  0
   55.8990   22.6410   43.3740 C   0  0  0  0  0  0  0  0  0  0  0  0
   55.9270   21.4660   42.6340 O   0  0  0  0  0  0  0  0  0  0  0  0
   57.0960   23.0660   44.1180 C   0  0  0  0  0  0  0  0  0  0  0  0
   58.1760   22.4420   43.9410 O   0  0  0  0  0  0  0  0  0  0  0  0
   57.0600   24.1660   45.1000 C   0  0  0  0  0  0  0  0  0  0  0  0
   56.7710   24.0310   46.4550 C   0  0  0  0  0  0  0  0  0  0  0  0
   56.8390   25.2290   47.0760 N   0  0  0  0  0  0  0  0  0  0  0  0
   57.1880   26.1190   46.1320 C   0  0  0  0  0  0  0  0  0  0  0  0
   57.4190   27.4810   46.3080 C   0  0  0  0  0  0  0  0  0  0  0  0
   57.8290   28.2410   45.1900 C   0  0  0  0  0  0  0  0  0  0  0  0
   58.0880   29.6530   45.3290 N   0  0  0  0  0  0  0  0  0  0  0  0
   59.2830   30.0560   45.8560 C   0  0  0  0  0  0  0  0  0  0  0  0
   59.5780   31.4120   46.0010 C   0  0  0  0  0  0  0  0  0  0  0  0
   58.6460   32.3730   45.6100 C   0  0  0  0  0  0  0  0  0  0  0  0
   58.9770   33.7270   45.7750 O   0  0  0  0  0  0  0  0  0  0  0  0
   59.3000   34.3520   47.0190 C   0  0  0  0  0  0  0  0  0  0  0  0
   60.7320   34.0840   47.3980 C   0  0  0  0  0  0  0  0  0  0  0  0
   61.6870   33.8240   46.4000 C   0  0  0  0  0  0  0  0  0  0  0  0
   63.0210   33.5850   46.7460 C   0  0  0  0  0  0  0  0  0  0  0  0
   63.4110   33.6110   48.0880 C   0  0  0  0  0  0  0  0  0  0  0  0
   62.4700   33.8810   49.0850 C   0  0  0  0  0  0  0  0  0  0  0  0
   61.1350   34.1220   48.7420 C   0  0  0  0  0  0  0  0  0  0  0  0
   57.4210   31.9490   45.0700 C   0  0  0  0  0  0  0  0  0  0  0  0
   57.1550   30.5810   44.9400 C   0  0  0  0  0  0  0  0  0  0  0  0
   56.0390   30.2180   44.4760 O   0  0  0  0  0  0  0  0  0  0  0  0
   58.0160   27.5990   43.9380 C   0  0  0  0  0  0  0  0  0  0  0  0
   57.7780   26.2210   43.7940 C   0  0  0  0  0  0  0  0  0  0  0  0
   57.3400   25.5100   44.9120 C   0  0  0  0  0  0  0  0  0  0  0  0
   56.5220   23.0813   46.9510 H   0  0  0  0  0  0  0  0  0  0  0  0
   56.6720   25.4170   48.0900 H   0  0  0  0  0  0  0  0  0  0  0  0
   57.2856   27.9530   47.2926 H   0  0  0  0  0  0  0  0  0  0  0  0
   60.0207   29.3026   46.1694 H   0  0  0  0  0  0  0  0  0  0  0  0
   60.5449   31.7228   46.4234 H   0  0  0  0  0  0  0  0  0  0  0  0
   59.1488   35.4377   46.9267 H   0  0  0  0  0  0  0  0  0  0  0  0
   58.6459   33.9385   47.8008 H   0  0  0  0  0  0  0  0  0  0  0  0
   61.3841   33.8084   45.3427 H   0  0  0  0  0  0  0  0  0  0  0  0
   63.7635   33.3765   45.9617 H   0  0  0  0  0  0  0  0  0  0  0  0
   64.4595   33.4188   48.3594 H   0  0  0  0  0  0  0  0  0  0  0  0
   62.7790   33.9041   50.1405 H   0  0  0  0  0  0  0  0  0  0  0  0
   60.3984   34.3421   49.5288 H   0  0  0  0  0  0  0  0  0  0  0  0
   56.6730   32.6895   44.7503 H   0  0  0  0  0  0  0  0  0  0  0  0
   58.3510   28.1865   43.0704 H   0  0  0  0  0  0  0  0  0  0  0  0
   57.9325   25.7178   42.8281 H   0  0  0  0  0  0  0  0  0  0  0  0
  1  2  2  0
  2  3  1  0
  2  4  1  0
  4  5  2  0
  4  6  1  0
  6  7  2  0
  7  8  1  0
  8  9  1  0
  9 10  2  0
 10 11  1  0
 11 12  1  0
 12 13  1  0
 13 14  2  0
 14 15  1  0
 15 16  1  0
 16 17  1  0
 17 18  1  0
 18 19  2  0
 19 20  1  0
 20 21  2  0
 21 22  1  0
 22 23  2  0
 15 24  2  0
 24 25  1  0
 25 26  2  0
 11 27  2  0
 27 28  1  0
 28 29  2  0
 29  6  1  0
 29  9  1  0
 25 12  1  0
 23 18  1  0
  7 30  1  0
  8 31  1  0
 10 32  1  0
 13 33  1  0
 14 34  1  0
 17 35  1  0
 17 36  1  0
 19 37  1  0
 20 38  1  0
 21 39  1  0
 22 40  1  0
 23 41  1  0
 24 42  1  0
 27 43  1  0
 28 44  1  0
M  CHG  1   3  -1
M  END
>  <UniqueID>  (31) 
31

>  <SMILES>  (31) 
O=C([O-])C(=O)c1c[nH]c2cc(-n3ccc(OCc4ccccc4)cc3=O)ccc12

>  <Energy>  (31) 
93.97172649105181

>  <Genealogy>  (31) 
O=C([O-])C(=O)c1c[nH]c2cc(-n3ccc(OCc4ccccc4)cc3=O)ccc12 (protonated)
O=C([O-])C(=O)c1c[nH]c2cc(-n3ccc(OCc4ccccc4)cc3=O)ccc12 (3D coordinates assigned)
O=C([O-])C(=O)c1c[nH]c2cc(-n3ccc(OCc4ccccc4)cc3=O)ccc12 (optimized conformer: 93.97172649105181 kcal/mol)

>  <smiles>  (31) 
O=C(O)C(=O)c1c[nH]c2cc(-n3ccc(OCc4ccccc4)cc3=O)ccc12

>  <score_type>  (31) 
oracle

>  <origin>  (31) 
adg

>  <m_score__min__energy>  (31) 
-10.42

>  <m_primary>  (31) 
energy

$$$$
31:0
     RDKit          3D

 42 44  0  0  0  0  0  0  0  0999 V2000
   58.6070   34.6890   44.7570 O   0  0  0  0  0  0  0  0  0  0  0  0
   58.4170   33.5630   45.2910 C   0  0  0  0  0  0  0  0  0  0  0  0
   58.7240   33.3580   46.6780 N   0  0  0  0  0  0  0  0  0  0  0  0
   59.2920   34.4080   47.5190 C   0  0  0  0  0  0  0  0  0  0  0  0
   60.7410   34.1220   47.8020 C   0  0  0  0  0  0  0  0  0  0  0  0
   61.2220   34.1770   49.1200 C   0  0  0  0  0  0  0  0  0  0  0  0
   62.5630   33.8890   49.3930 C   0  0  0  0  0  0  0  0  0  0  0  0
   63.4300   33.5410   48.3540 C   0  0  0  0  0  0  0  0  0  0  0  0
   64.7300   33.2620   48.6210 F   0  0  0  0  0  0  0  0  0  0  0  0
   62.9570   33.4780   47.0400 C   0  0  0  0  0  0  0  0  0  0  0  0
   61.6170   33.7650   46.7630 C   0  0  0  0  0  0  0  0  0  0  0  0
   57.8630   32.4620   44.4920 C   0  0  0  0  0  0  0  0  0  0  0  0
   57.8370   32.3870   43.1100 C   0  0  0  0  0  0  0  0  0  0  0  0
   57.1920   31.2030   42.8120 C   0  0  0  0  0  0  0  0  0  0  0  0
   56.8760   30.6330   44.0300 C   0  0  0  0  0  0  0  0  0  0  0  0
   56.1200   29.3610   44.2400 C   0  0  0  0  0  0  0  0  0  0  0  0
   57.2120   28.1080   44.8870 S   0  0  0  0  0  0  0  0  0  0  0  0
   56.4290   27.1610   45.7550 O   0  0  0  0  0  0  0  0  0  0  0  0
   57.8150   27.3310   43.7510 O   0  0  0  0  0  0  0  0  0  0  0  0
   58.4960   28.8650   45.8270 C   0  0  0  0  0  0  0  0  0  0  0  0
   59.7670   29.0410   45.2610 C   0  0  0  0  0  0  0  0  0  0  0  0
   60.7690   29.7040   45.9760 C   0  0  0  0  0  0  0  0  0  0  0  0
   60.5050   30.2000   47.2560 C   0  0  0  0  0  0  0  0  0  0  0  0
   59.2390   30.0310   47.8240 C   0  0  0  0  0  0  0  0  0  0  0  0
   58.2360   29.3660   47.1120 C   0  0  0  0  0  0  0  0  0  0  0  0
   57.2920   31.4020   45.0100 O   0  0  0  0  0  0  0  0  0  0  0  0
   58.5210   32.4310   47.1160 H   0  0  0  0  0  0  0  0  0  0  0  0
   59.2073   35.3743   47.0002 H   0  0  0  0  0  0  0  0  0  0  0  0
   58.7411   34.4421   48.4705 H   0  0  0  0  0  0  0  0  0  0  0  0
   60.5415   34.4476   49.9408 H   0  0  0  0  0  0  0  0  0  0  0  0
   62.9357   33.9365   50.4269 H   0  0  0  0  0  0  0  0  0  0  0  0
   63.6400   33.2023   46.2230 H   0  0  0  0  0  0  0  0  0  0  0  0
   61.2473   33.7112   45.7284 H   0  0  0  0  0  0  0  0  0  0  0  0
   58.2453   33.1186   42.3973 H   0  0  0  0  0  0  0  0  0  0  0  0
   56.9750   30.7979   41.8126 H   0  0  0  0  0  0  0  0  0  0  0  0
   55.3018   29.5363   44.9540 H   0  0  0  0  0  0  0  0  0  0  0  0
   55.7071   29.0213   43.2787 H   0  0  0  0  0  0  0  0  0  0  0  0
   59.9761   28.6564   44.2519 H   0  0  0  0  0  0  0  0  0  0  0  0
   61.7662   29.8355   45.5308 H   0  0  0  0  0  0  0  0  0  0  0  0
   61.2937   30.7234   47.8164 H   0  0  0  0  0  0  0  0  0  0  0  0
   59.0317   30.4212   48.8313 H   0  0  0  0  0  0  0  0  0  0  0  0
   57.2401   29.2351   47.5604 H   0  0  0  0  0  0  0  0  0  0  0  0
  1  2  2  0
  2  3  1  0
  3  4  1  0
  4  5  1  0
  5  6  2  0
  6  7  1  0
  7  8  2  0
  8  9  1  0
  8 10  1  0
 10 11  2  0
  2 12  1  0
 12 13  2  0
 13 14  1  0
 14 15  2  0
 15 16  1  0
 16 17  1  0
 17 18  2  0
 17 19  2  0
 17 20  1  0
 20 21  2  0
 21 22  1  0
 22 23  2  0
 23 24  1  0
 24 25  2  0
 15 26  1  0
 11  5  1  0
 26 12  1  0
 25 20  1  0
  3 27  1  0
  4 28  1  0
  4 29  1  0
  6 30  1  0
  7 31  1  0
 10 32  1  0
 11 33  1  0
 13 34  1  0
 14 35  1  0
 16 36  1  0
 16 37  1  0
 21 38  1  0
 22 39  1  0
 23 40  1  0
 24 41  1  0
 25 42  1  0
M  END
>  <UniqueID>  (32) 
32

>  <SMILES>  (32) 
O=C(NCc1ccc(F)cc1)c1ccc(CS(=O)(=O)c2ccccc2)o1

>  <Energy>  (32) 
60.8336070971193

>  <Genealogy>  (32) 
O=C(NCc1ccc(F)cc1)c1ccc(CS(=O)(=O)c2ccccc2)o1 (3D coordinates assigned)
O=C(NCc1ccc(F)cc1)c1ccc(CS(=O)(=O)c2ccccc2)o1 (optimized conformer: 60.8336070971193 kcal/mol)

>  <smiles>  (32) 
O=C(NCc1ccc(F)cc1)c1ccc(CS(=O)(=O)c2ccccc2)o1

>  <score_type>  (32) 
oracle

>  <origin>  (32) 
adg

>  <m_score__min__energy>  (32) 
-9.6999999999999993

>  <m_primary>  (32) 
energy

$$$$
32:0
     RDKit          3D

 42 44  0  0  0  0  0  0  0  0999 V2000
   58.2400   23.3370   45.6250 C   0  0  0  0  0  0  0  0  0  0  0  0
   57.6390   24.7110   45.5760 C   0  0  0  0  0  0  0  0  0  0  0  0
   56.2740   24.8940   45.8310 C   0  0  0  0  0  0  0  0  0  0  0  0
   55.7040   26.1650   45.7390 C   0  0  0  0  0  0  0  0  0  0  0  0
   54.3480   26.3330   45.9950 O   0  0  0  0  0  0  0  0  0  0  0  0
   56.4920   27.2680   45.3860 C   0  0  0  0  0  0  0  0  0  0  0  0
   55.9010   28.5240   45.2900 O   0  0  0  0  0  0  0  0  0  0  0  0
   57.8680   27.1000   45.1260 C   0  0  0  0  0  0  0  0  0  0  0  0
   58.7440   28.2790   44.7380 C   0  0  0  0  0  0  0  0  0  0  0  0
   59.3540   28.9820   45.8870 N   0  0  0  0  0  0  0  0  0  0  0  0
   58.7750   30.3240   46.1300 C   0  0  0  0  0  0  0  0  0  0  0  0
   59.2460   30.9340   47.4660 C   0  0  0  0  0  0  0  0  0  0  0  0
   60.4490   30.2530   47.9640 N   0  0  0  0  0  0  0  0  0  0  0  0
   61.5780   31.0080   48.4470 C   0  0  0  0  0  0  0  0  0  0  0  0
   62.3140   31.8220   47.5690 C   0  0  0  0  0  0  0  0  0  0  0  0
   63.4180   32.5450   48.0320 C   0  0  0  0  0  0  0  0  0  0  0  0
   63.7990   32.4590   49.3750 C   0  0  0  0  0  0  0  0  0  0  0  0
   65.1840   33.3660   49.9550 Cl  0  0  0  0  0  0  0  0  0  0  0  0
   63.0780   31.6440   50.2540 C   0  0  0  0  0  0  0  0  0  0  0  0
   61.9750   30.9190   49.7930 C   0  0  0  0  0  0  0  0  0  0  0  0
   60.4470   28.7850   48.0640 C   0  0  0  0  0  0  0  0  0  0  0  0
   59.4100   28.1740   47.1170 C   0  0  0  0  0  0  0  0  0  0  0  0
   58.4250   25.8110   45.2020 C   0  0  0  0  0  0  0  0  0  0  0  0
   58.3733   23.0323   46.6735 H   0  0  0  0  0  0  0  0  0  0  0  0
   57.5708   22.6258   45.1187 H   0  0  0  0  0  0  0  0  0  0  0  0
   59.2165   23.3457   45.1187 H   0  0  0  0  0  0  0  0  0  0  0  0
   55.6481   24.0320   46.1051 H   0  0  0  0  0  0  0  0  0  0  0  0
   59.5526   27.9100   44.0899 H   0  0  0  0  0  0  0  0  0  0  0  0
   58.0917   29.0057   44.2316 H   0  0  0  0  0  0  0  0  0  0  0  0
   59.0768   30.9927   45.3104 H   0  0  0  0  0  0  0  0  0  0  0  0
   57.6816   30.2140   46.1783 H   0  0  0  0  0  0  0  0  0  0  0  0
   59.4734   31.9995   47.3140 H   0  0  0  0  0  0  0  0  0  0  0  0
   58.4432   30.8118   48.2080 H   0  0  0  0  0  0  0  0  0  0  0  0
   62.0200   31.8909   46.5113 H   0  0  0  0  0  0  0  0  0  0  0  0
   63.9873   33.1820   47.3391 H   0  0  0  0  0  0  0  0  0  0  0  0
   63.3793   31.5734   51.3096 H   0  0  0  0  0  0  0  0  0  0  0  0
   61.4146   30.2754   50.4871 H   0  0  0  0  0  0  0  0  0  0  0  0
   61.4446   28.4047   47.7993 H   0  0  0  0  0  0  0  0  0  0  0  0
   60.1897   28.5034   49.0957 H   0  0  0  0  0  0  0  0  0  0  0  0
   59.6994   27.1423   46.8684 H   0  0  0  0  0  0  0  0  0  0  0  0
   58.4226   28.1634   47.6017 H   0  0  0  0  0  0  0  0  0  0  0  0
   59.4891   25.6636   44.9655 H   0  0  0  0  0  0  0  0  0  0  0  0
  1  2  1  0
  2  3  2  0
  3  4  1  0
  4  5  1  0
  4  6  2  0
  6  7  1  0
  6  8  1  0
  8  9  1  0
  9 10  1  0
 10 11  1  0
 11 12  1  0
 12 13  1  0
 13 14  1  0
 14 15  2  0
 15 16  1  0
 16 17  2  0
 17 18  1  0
 17 19  1  0
 19 20  2  0
 13 21  1  0
 21 22  1  0
  8 23  2  0
 23  2  1  0
 22 10  1  0
 20 14  1  0
  1 24  1  0
  1 25  1  0
  1 26  1  0
  3 27  1  0
  9 28  1  0
  9 29  1  0
 11 30  1  0
 11 31  1  0
 12 32  1  0
 12 33  1  0
 15 34  1  0
 16 35  1  0
 19 36  1  0
 20 37  1  0
 21 38  1  0
 21 39  1  0
 22 40  1  0
 22 41  1  0
 23 42  1  0
M  CHG  2   5  -1   7  -1
M  END
>  <UniqueID>  (33) 
33

>  <SMILES>  (33) 
Cc1cc([O-])c([O-])c(CN2CCN(c3ccc(Cl)cc3)CC2)c1

>  <Energy>  (33) 
56.30877301179645

>  <Genealogy>  (33) 
Cc1cc([O-])c([O-])c(CN2CCN(c3ccc(Cl)cc3)CC2)c1 (protonated)
Cc1cc([O-])c([O-])c(CN2CCN(c3ccc(Cl)cc3)CC2)c1 (3D coordinates assigned)
Cc1cc([O-])c([O-])c(CN2CCN(c3ccc(Cl)cc3)CC2)c1 (nonaromatic ring conformer: 56.30877301179645 kcal/mol)

>  <smiles>  (33) 
Cc1cc(O)c(O)c(CN2CCN(c3ccc(Cl)cc3)CC2)c1

>  <score_type>  (33) 
oracle

>  <origin>  (33) 
adg

>  <m_score__min__energy>  (33) 
-14.609999999999999

>  <m_primary>  (33) 
energy

$$$$
33:0
     RDKit          3D

 44 46  0  0  0  0  0  0  0  0999 V2000
   62.7580   32.1850   47.1630 C   0  0  0  0  0  0  0  0  0  0  0  0
   61.6340   33.1330   47.6200 C   0  0  1  0  0  0  0  0  0  0  0  0
   62.0030   33.8090   48.9590 C   0  0  0  0  0  0  0  0  0  0  0  0
   60.8470   34.2210   49.6360 O   0  0  0  0  0  0  0  0  0  0  0  0
   61.3340   34.2050   46.5130 C   0  0  0  0  0  0  0  0  0  0  0  0
   59.9330   33.9030   46.1040 C   0  0  0  0  0  0  0  0  0  0  0  0
   59.1660   34.5420   45.1270 C   0  0  0  0  0  0  0  0  0  0  0  0
   57.8510   34.0950   44.9090 C   0  0  0  0  0  0  0  0  0  0  0  0
   57.3320   33.0260   45.6640 C   0  0  0  0  0  0  0  0  0  0  0  0
   58.1230   32.4010   46.6410 C   0  0  0  0  0  0  0  0  0  0  0  0
   59.4280   32.8670   46.8370 C   0  0  0  0  0  0  0  0  0  0  0  0
   60.3770   32.3810   47.7690 N   0  0  0  0  0  0  0  0  0  0  0  0
   60.1640   31.2560   48.6330 C   0  0  0  0  0  0  0  0  0  0  0  0
   60.0390   31.4390   49.8720 O   0  0  0  0  0  0  0  0  0  0  0  0
   60.0360   29.8760   48.0690 C   0  0  0  0  0  0  0  0  0  0  0  0
   60.4600   29.8650   46.6730 N   0  0  0  0  0  0  0  0  0  0  0  0
   59.9840   28.9470   45.6830 C   0  0  0  0  0  0  0  0  0  0  0  0
   60.7360   28.6570   44.7130 O   0  0  0  0  0  0  0  0  0  0  0  0
   58.6550   28.3110   45.7750 C   0  0  0  0  0  0  0  0  0  0  0  0
   57.5180   28.9560   45.2660 C   0  0  0  0  0  0  0  0  0  0  0  0
   56.2650   28.3410   45.3420 C   0  0  0  0  0  0  0  0  0  0  0  0
   55.1440   28.9940   44.8410 O   0  0  0  0  0  0  0  0  0  0  0  0
   56.1400   27.0690   45.9140 C   0  0  0  0  0  0  0  0  0  0  0  0
   54.8890   26.4670   45.9890 O   0  0  0  0  0  0  0  0  0  0  0  0
   57.2770   26.4070   46.4060 C   0  0  0  0  0  0  0  0  0  0  0  0
   57.1840   25.1370   46.9740 O   0  0  0  0  0  0  0  0  0  0  0  0
   58.5300   27.0280   46.3260 C   0  0  0  0  0  0  0  0  0  0  0  0
   63.2609   31.7608   48.0445 H   0  0  0  0  0  0  0  0  0  0  0  0
   62.3290   31.3719   46.5590 H   0  0  0  0  0  0  0  0  0  0  0  0
   63.4871   32.7450   46.5590 H   0  0  0  0  0  0  0  0  0  0  0  0
   62.5540   33.0928   49.5863 H   0  0  0  0  0  0  0  0  0  0  0  0
   62.6273   34.6907   48.7521 H   0  0  0  0  0  0  0  0  0  0  0  0
   60.3120   33.4000   49.7930 H   0  0  0  0  0  0  0  0  0  0  0  0
   61.4133   35.2236   46.9207 H   0  0  0  0  0  0  0  0  0  0  0  0
   62.0432   34.1626   45.6732 H   0  0  0  0  0  0  0  0  0  0  0  0
   59.5813   35.3757   44.5417 H   0  0  0  0  0  0  0  0  0  0  0  0
   57.2257   34.5820   44.1462 H   0  0  0  0  0  0  0  0  0  0  0  0
   56.3031   32.6793   45.4877 H   0  0  0  0  0  0  0  0  0  0  0  0
   57.7270   31.5659   47.2375 H   0  0  0  0  0  0  0  0  0  0  0  0
   60.6686   29.1863   48.6471 H   0  0  0  0  0  0  0  0  0  0  0  0
   58.9847   29.5580   48.1291 H   0  0  0  0  0  0  0  0  0  0  0  0
   57.6129   29.9502   44.8050 H   0  0  0  0  0  0  0  0  0  0  0  0
   56.2990   24.6510   47.0610 H   0  0  0  0  0  0  0  0  0  0  0  0
   59.4230   26.5048   46.6985 H   0  0  0  0  0  0  0  0  0  0  0  0
  2  1  1  6
  2  3  1  0
  3  4  1  0
  2  5  1  0
  5  6  1  0
  6  7  2  0
  7  8  1  0
  8  9  2  0
  9 10  1  0
 10 11  2  0
 11 12  1  0
 12 13  1  0
 13 14  2  0
 13 15  1  0
 15 16  1  0
 16 17  1  0
 17 18  2  0
 17 19  1  0
 19 20  2  0
 20 21  1  0
 21 22  1  0
 21 23  2  0
 23 24  1  0
 23 25  1  0
 25 26  1  0
 25 27  2  0
 12  2  1  0
 27 19  1  0
 11  6  1  0
  1 28  1  0
  1 29  1  0
  1 30  1  0
  3 31  1  0
  3 32  1  0
  4 33  1  0
  5 34  1  0
  5 35  1  0
  7 36  1  0
  8 37  1  0
  9 38  1  0
 10 39  1  0
 15 40  1  0
 15 41  1  0
 20 42  1  0
 26 43  1  0
 27 44  1  0
M  CHG  3  16  -1  22  -1  24  -1
M  END
>  <UniqueID>  (34) 
34

>  <SMILES>  (34) 
C[C@@]1(CO)Cc2ccccc2N1C(=O)C[N-]C(=O)c1cc([O-])c([O-])c(O)c1

>  <Energy>  (34) 
68.8417201837257

>  <Genealogy>  (34) 
CC1(CO)Cc2ccccc2N1C(=O)C[N-]C(=O)c1cc([O-])c([O-])c(O)c1 (protonated)
C[C@@]1(CO)Cc2ccccc2N1C(=O)C[N-]C(=O)c1cc([O-])c([O-])c(O)c1 (chirality)
C[C@@]1(CO)Cc2ccccc2N1C(=O)C[N-]C(=O)c1cc([O-])c([O-])c(O)c1 (3D coordinates assigned)
C[C@@]1(CO)Cc2ccccc2N1C(=O)C[N-]C(=O)c1cc([O-])c([O-])c(O)c1 (nonaromatic ring conformer: 68.8417201837257 kcal/mol)

>  <smiles>  (34) 
CC1(CO)Cc2ccccc2N1C(=O)CNC(=O)c1cc(O)c(O)c(O)c1

>  <score_type>  (34) 
oracle

>  <origin>  (34) 
adg

>  <m_score__min__energy>  (34) 
-17.530000000000001

>  <m_primary>  (34) 
energy

$$$$
34:0
     RDKit          3D

 56 59  0  0  0  0  0  0  0  0999 V2000
   57.8040   32.3100   42.9210 C   0  0  0  0  0  0  0  0  0  0  0  0
   57.9920   32.9350   44.2710 C   0  0  0  0  0  0  0  0  0  0  0  0
   56.9430   32.9130   45.1990 C   0  0  0  0  0  0  0  0  0  0  0  0
   57.1140   33.4760   46.4670 C   0  0  0  0  0  0  0  0  0  0  0  0
   58.3340   34.0590   46.8180 C   0  0  0  0  0  0  0  0  0  0  0  0
   59.3810   34.1120   45.8930 C   0  0  0  0  0  0  0  0  0  0  0  0
   60.5940   34.7000   46.2770 O   0  0  0  0  0  0  0  0  0  0  0  0
   61.6040   34.0480   46.9990 C   0  0  0  0  0  0  0  0  0  0  0  0
   62.8330   33.8140   46.3790 C   0  0  0  0  0  0  0  0  0  0  0  0
   63.8520   33.1450   47.0610 C   0  0  0  0  0  0  0  0  0  0  0  0
   63.6450   32.6940   48.3660 C   0  0  0  0  0  0  0  0  0  0  0  0
   62.4120   32.9090   49.0010 C   0  0  0  0  0  0  0  0  0  0  0  0
   62.1800   32.4140   50.4050 C   0  0  0  0  0  0  0  0  0  0  0  0
   61.3850   33.4210   51.2420 C   0  0  0  0  0  0  0  0  0  0  0  0
   60.0430   33.5950   50.6920 N   0  0  0  0  0  0  0  0  0  0  0  0
   58.8490   33.1180   51.3220 C   0  0  0  0  0  0  0  0  0  0  0  0
   58.3590   33.7340   52.3040 O   0  0  0  0  0  0  0  0  0  0  0  0
   58.1610   31.9730   50.8100 N   0  0  0  0  0  0  0  0  0  0  0  0
   57.3430   31.0660   51.5650 C   0  0  0  0  0  0  0  0  0  0  0  0
   57.9540   29.9840   52.2090 C   0  0  0  0  0  0  0  0  0  0  0  0
   57.1900   29.0740   52.9420 C   0  0  0  0  0  0  0  0  0  0  0  0
   55.8040   29.2220   53.0160 C   0  0  0  0  0  0  0  0  0  0  0  0
   55.1630   30.2750   52.3390 C   0  0  0  0  0  0  0  0  0  0  0  0
   53.6840   30.4010   52.3760 C   0  0  0  0  0  0  0  0  0  0  0  0
   52.8960   29.4150   52.9980 C   0  0  0  0  0  0  0  0  0  0  0  0
   51.5030   29.5330   53.0250 C   0  0  0  0  0  0  0  0  0  0  0  0
   50.8820   30.6360   52.4380 C   0  0  0  0  0  0  0  0  0  0  0  0
   51.6510   31.6200   51.8100 C   0  0  0  0  0  0  0  0  0  0  0  0
   51.0310   32.7150   51.2220 O   0  0  0  0  0  0  0  0  0  0  0  0
   53.0440   31.5010   51.7740 C   0  0  0  0  0  0  0  0  0  0  0  0
   55.9440   31.1930   51.6110 C   0  0  0  0  0  0  0  0  0  0  0  0
   61.3920   33.5850   48.3090 C   0  0  0  0  0  0  0  0  0  0  0  0
   59.2080   33.5450   44.6180 C   0  0  0  0  0  0  0  0  0  0  0  0
   57.4891   31.2630   43.0423 H   0  0  0  0  0  0  0  0  0  0  0  0
   57.0324   32.8629   42.3652 H   0  0  0  0  0  0  0  0  0  0  0  0
   58.7526   32.3455   42.3652 H   0  0  0  0  0  0  0  0  0  0  0  0
   55.9818   32.4513   44.9291 H   0  0  0  0  0  0  0  0  0  0  0  0
   56.2855   33.4599   47.1905 H   0  0  0  0  0  0  0  0  0  0  0  0
   58.4714   34.4779   47.8258 H   0  0  0  0  0  0  0  0  0  0  0  0
   62.9997   34.1584   45.3477 H   0  0  0  0  0  0  0  0  0  0  0  0
   64.8204   32.9730   46.5685 H   0  0  0  0  0  0  0  0  0  0  0  0
   64.4513   32.1682   48.8984 H   0  0  0  0  0  0  0  0  0  0  0  0
   61.6202   31.4681   50.3606 H   0  0  0  0  0  0  0  0  0  0  0  0
   63.1606   32.2726   50.8829 H   0  0  0  0  0  0  0  0  0  0  0  0
   61.3079   33.0522   52.2755 H   0  0  0  0  0  0  0  0  0  0  0  0
   61.9060   34.3896   51.2236 H   0  0  0  0  0  0  0  0  0  0  0  0
   59.0434   29.8497   52.1371 H   0  0  0  0  0  0  0  0  0  0  0  0
   57.6813   28.2386   53.4623 H   0  0  0  0  0  0  0  0  0  0  0  0
   55.2093   28.5105   53.6076 H   0  0  0  0  0  0  0  0  0  0  0  0
   53.3794   28.5450   53.4664 H   0  0  0  0  0  0  0  0  0  0  0  0
   50.8955   28.7547   53.5100 H   0  0  0  0  0  0  0  0  0  0  0  0
   49.7866   30.7313   52.4694 H   0  0  0  0  0  0  0  0  0  0  0  0
   53.6446   32.2733   51.2711 H   0  0  0  0  0  0  0  0  0  0  0  0
   55.4542   32.0179   51.0728 H   0  0  0  0  0  0  0  0  0  0  0  0
   60.4204   33.7529   48.7966 H   0  0  0  0  0  0  0  0  0  0  0  0
   60.0302   33.5796   43.8881 H   0  0  0  0  0  0  0  0  0  0  0  0
  1  2  1  0
  2  3  2  0
  3  4  1  0
  4  5  2  0
  5  6  1  0
  6  7  1  0
  7  8  1  0
  8  9  2  0
  9 10  1  0
 10 11  2  0
 11 12  1  0
 12 13  1  0
 13 14  1  0
 14 15  1  0
 15 16  1  0
 16 17  2  0
 16 18  1  0
 18 19  1  0
 19 20  2  0
 20 21  1  0
 21 22  2  0
 22 23  1  0
 23 24  1  0
 24 25  2  0
 25 26  1  0
 26 27  2  0
 27 28  1  0
 28 29  1  0
 28 30  2  0
 23 31  2  0
 12 32  2  0
  6 33  2  0
 33  2  1  0
 32  8  1  0
 31 19  1  0
 30 24  1  0
  1 34  1  0
  1 35  1  0
  1 36  1  0
  3 37  1  0
  4 38  1  0
  5 39  1  0
  9 40  1  0
 10 41  1  0
 11 42  1  0
 13 43  1  0
 13 44  1  0
 14 45  1  0
 14 46  1  0
 20 47  1  0
 21 48  1  0
 22 49  1  0
 25 50  1  0
 26 51  1  0
 27 52  1  0
 30 53  1  0
 31 54  1  0
 32 55  1  0
 33 56  1  0
M  CHG  3  15  -1  18  -1  29  -1
M  END
>  <UniqueID>  (35) 
35

>  <SMILES>  (35) 
Cc1cccc(Oc2cccc(CC[N-]C(=O)[N-]c3cccc(-c4cccc([O-])c4)c3)c2)c1

>  <Energy>  (35) 
69.1716902644594

>  <Genealogy>  (35) 
Cc1cccc(Oc2cccc(CC[N-]C(=O)[N-]c3cccc(-c4cccc([O-])c4)c3)c2)c1 (protonated)
Cc1cccc(Oc2cccc(CC[N-]C(=O)[N-]c3cccc(-c4cccc([O-])c4)c3)c2)c1 (3D coordinates assigned)
Cc1cccc(Oc2cccc(CC[N-]C(=O)[N-]c3cccc(-c4cccc([O-])c4)c3)c2)c1 (optimized conformer: 69.1716902644594 kcal/mol)

>  <smiles>  (35) 
Cc1cccc(Oc2cccc(CCNC(=O)Nc3cccc(-c4cccc(O)c4)c3)c2)c1

>  <score_type>  (35) 
oracle

>  <origin>  (35) 
adg

>  <m_score__min__energy>  (35) 
-16.039999999999999

>  <m_primary>  (35) 
energy

$$$$
35:0
     RDKit          3D

 51 54  0  0  0  0  0  0  0  0999 V2000
   54.1730   28.9600   44.5150 H   0  0  0  0  0  0  0  0  0  0  0  0
   54.9310   29.5370   44.1700 O   0  0  0  0  0  0  0  0  0  0  0  0
   56.2660   29.2610   44.4680 C   0  0  0  0  0  0  0  0  0  0  0  0
   57.2980   30.0850   43.9880 C   0  0  0  0  0  0  0  0  0  0  0  0
   57.0070   31.1980   43.2080 O   0  0  0  0  0  0  0  0  0  0  0  0
   58.6300   29.7840   44.2890 C   0  0  0  0  0  0  0  0  0  0  0  0
   59.4372   30.4267   43.9078 H   0  0  0  0  0  0  0  0  0  0  0  0
   58.9380   28.6700   45.0720 C   0  0  0  0  0  0  0  0  0  0  0  0
   59.9888   28.4295   45.2911 H   0  0  0  0  0  0  0  0  0  0  0  0
   57.9140   27.8540   45.5820 C   0  0  0  0  0  0  0  0  0  0  0  0
   58.2370   26.6440   46.3690 C   0  0  0  0  0  0  0  0  0  0  0  0
   58.0874   25.6693   45.8817 H   0  0  0  0  0  0  0  0  0  0  0  0
   58.6980   26.6390   47.6300 C   0  0  0  0  0  0  0  0  0  0  0  0
   58.1501   26.0272   48.3618 H   0  0  0  0  0  0  0  0  0  0  0  0
   59.8750   27.3820   48.1210 C   0  0  0  0  0  0  0  0  0  0  0  0
   60.8050   26.7940   48.7350 O   0  0  0  0  0  0  0  0  0  0  0  0
   59.9440   28.7930   47.8800 N   0  0  0  0  0  0  0  0  0  0  0  0
   59.4470   29.8340   48.7350 C   0  0  0  0  0  0  0  0  0  0  0  0
   59.4040   31.1780   48.3250 C   0  0  0  0  0  0  0  0  0  0  0  0
   59.7683   31.4585   47.3257 H   0  0  0  0  0  0  0  0  0  0  0  0
   58.9000   32.1580   49.1830 C   0  0  0  0  0  0  0  0  0  0  0  0
   58.8864   33.2104   48.8633 H   0  0  0  0  0  0  0  0  0  0  0  0
   58.4130   31.8090   50.4450 C   0  0  0  0  0  0  0  0  0  0  0  0
   57.9620   32.8120   51.2970 O   0  0  0  0  0  0  0  0  0  0  0  0
   58.4040   30.4600   50.8500 C   0  0  0  0  0  0  0  0  0  0  0  0
   57.8710   30.0580   52.1710 C   0  0  0  0  0  0  0  0  0  0  0  0
   58.6800   29.7510   53.0880 O   0  0  0  0  0  0  0  0  0  0  0  0
   56.4550   30.0060   52.4260 N   0  0  0  0  0  0  0  0  0  0  0  0
   55.6380   31.1870   52.1170 C   0  0  0  0  0  0  0  0  0  0  0  0
   55.9449   31.5813   51.1370 H   0  0  0  0  0  0  0  0  0  0  0  0
   55.7991   31.9229   52.9186 H   0  0  0  0  0  0  0  0  0  0  0  0
   54.1610   30.8750   52.0720 C   0  0  0  0  0  0  0  0  0  0  0  0
   53.2700   31.8800   51.6660 C   0  0  0  0  0  0  0  0  0  0  0  0
   53.6578   32.8654   51.3682 H   0  0  0  0  0  0  0  0  0  0  0  0
   51.8940   31.6390   51.6370 C   0  0  0  0  0  0  0  0  0  0  0  0
   51.0210   32.6410   51.2310 O   0  0  0  0  0  0  0  0  0  0  0  0
   51.3960   30.3910   52.0160 C   0  0  0  0  0  0  0  0  0  0  0  0
   50.3128   30.2013   51.9906 H   0  0  0  0  0  0  0  0  0  0  0  0
   52.2700   29.3840   52.4270 C   0  0  0  0  0  0  0  0  0  0  0  0
   51.8721   28.3995   52.7140 H   0  0  0  0  0  0  0  0  0  0  0  0
   53.6540   29.6180   52.4770 C   0  0  0  0  0  0  0  0  0  0  0  0
   54.5760   28.4940   52.8690 C   0  0  0  0  0  0  0  0  0  0  0  0
   54.7454   27.8499   51.9936 H   0  0  0  0  0  0  0  0  0  0  0  0
   54.1023   27.9307   53.6865 H   0  0  0  0  0  0  0  0  0  0  0  0
   55.9210   29.0160   53.3670 C   0  0  0  0  0  0  0  0  0  0  0  0
   56.6277   28.1775   53.4534 H   0  0  0  0  0  0  0  0  0  0  0  0
   55.7825   29.4903   54.3498 H   0  0  0  0  0  0  0  0  0  0  0  0
   58.9320   29.4840   49.9890 C   0  0  0  0  0  0  0  0  0  0  0  0
   58.9410   28.4302   50.3042 H   0  0  0  0  0  0  0  0  0  0  0  0
   56.5760   28.1430   45.2570 C   0  0  0  0  0  0  0  0  0  0  0  0
   55.5500   27.3260   45.7220 O   0  0  0  0  0  0  0  0  0  0  0  0
  1  2  1  0
  2  3  1  0
  3  4  2  0
  4  5  1  0
  4  6  1  0
  6  7  1  0
  6  8  2  0
  8  9  1  0
  8 10  1  0
 10 11  1  0
 11 12  1  0
 11 13  2  0
 13 14  1  0
 13 15  1  0
 15 16  2  0
 15 17  1  0
 17 18  1  0
 18 19  2  0
 19 20  1  0
 19 21  1  0
 21 22  1  0
 21 23  2  0
 23 24  1  0
 23 25  1  0
 25 26  1  0
 26 27  2  0
 26 28  1  0
 28 29  1  0
 29 30  1  0
 29 31  1  0
 29 32  1  0
 32 33  2  0
 33 34  1  0
 33 35  1  0
 35 36  1  0
 35 37  2  0
 37 38  1  0
 37 39  1  0
 39 40  1  0
 39 41  2  0
 41 42  1  0
 42 43  1  0
 42 44  1  0
 42 45  1  0
 45 46  1  0
 45 47  1  0
 25 48  2  0
 48 49  1  0
 10 50  2  0
 50 51  1  0
 50  3  1  0
 48 18  1  0
 45 28  1  0
 41 32  1  0
M  CHG  5   5  -1  17  -1  24  -1  36  -1  51  -1
M  END
>  <UniqueID>  (36) 
36

>  <SMILES>  (36) 
O=C(/C=C\c1ccc([O-])c(O)c1[O-])[N-]c1ccc([O-])c(C(=O)N2CCc3ccc([O-])cc3C2)c1

>  <Energy>  (36) 
75.59753793085942

>  <Genealogy>  (36) 
O=C(C=Cc1ccc([O-])c(O)c1[O-])[N-]c1ccc([O-])c(C(=O)N2CCc3ccc([O-])cc3C2)c1 (protonated)
O=C(/C=C\c1ccc([O-])c(O)c1[O-])[N-]c1ccc([O-])c(C(=O)N2CCc3ccc([O-])cc3C2)c1 (cis-trans isomerization)
O=C(/C=C\c1ccc([O-])c(O)c1[O-])[N-]c1ccc([O-])c(C(=O)N2CCc3ccc([O-])cc3C2)c1 (3D coordinates assigned)
O=C(/C=C\c1ccc([O-])c(O)c1[O-])[N-]c1ccc([O-])c(C(=O)N2CCc3ccc([O-])cc3C2)c1 (nonaromatic ring conformer: 75.59753793085942 kcal/mol)

>  <smiles>  (36) 
O=C(C=Cc1ccc(O)c(O)c1O)Nc1ccc(O)c(C(=O)N2CCc3ccc(O)cc3C2)c1

>  <score_type>  (36) 
oracle

>  <origin>  (36) 
adg

>  <m_score__min__energy>  (36) 
-20.57

>  <m_primary>  (36) 
energy

$$$$
36:0
     RDKit          3D

 53 56  0  0  1  0  0  0  0  0999 V2000
   55.2560   30.0870   52.4570 C   0  0  0  0  0  0  0  0  0  0  0  0
   57.1240   28.5130   43.8480 N   0  0  0  0  0  0  0  0  0  0  0  0
   57.7750   27.8340   44.7520 C   0  0  0  0  0  0  0  0  0  0  0  0
   56.9920   27.1660   45.6940 C   0  0  0  0  0  0  0  0  0  0  0  0
   58.7710   32.7090   50.7400 C   0  0  0  0  0  0  0  0  0  0  0  0
   59.5020   33.1550   49.5150 C   0  0  0  0  0  0  0  0  0  0  0  0
   58.8170   32.9260   48.2270 C   0  0  0  0  0  0  0  0  0  0  0  0
   57.5850   33.0940   48.0550 O   0  0  0  0  0  0  0  0  0  0  0  0
   59.5510   32.4840   47.0700 N   0  0  0  0  0  0  0  0  0  0  0  0
   58.8050   32.2770   45.8520 C   0  0  0  0  0  0  0  0  0  0  0  0
   58.0620   31.1210   45.6610 C   0  0  0  0  0  0  0  0  0  0  0  0
   57.3550   30.9690   44.4620 C   0  0  0  0  0  0  0  0  0  0  0  0
   56.5670   29.7580   44.2450 C   0  0  0  0  0  0  0  0  0  0  0  0
   55.3130   29.7810   44.4130 O   0  0  0  0  0  0  0  0  0  0  0  0
   56.6260   30.1120   51.9480 N   0  0  0  0  0  0  0  0  0  0  0  0
   57.3390   31.1830   51.9230 C   0  0  0  0  0  0  0  0  0  0  0  0
   59.1140   27.7770   44.7780 N   0  0  0  0  0  0  0  0  0  0  0  0
   59.7510   27.0600   45.7320 C   0  0  0  0  0  0  0  0  0  0  0  0
   58.9950   26.3930   46.6730 C   0  0  0  0  0  0  0  0  0  0  0  0
   57.6150   26.4160   46.6940 C   0  0  0  0  0  0  0  0  0  0  0  0
   58.0080   31.5610   50.7750 C   0  0  0  0  0  0  0  0  0  0  0  0
   55.5880   27.2450   45.6340 O   0  0  0  0  0  0  0  0  0  0  0  0
   57.4020   31.9640   43.4840 C   0  0  0  0  0  0  0  0  0  0  0  0
   58.1520   33.1230   43.6850 C   0  0  0  0  0  0  0  0  0  0  0  0
   58.8560   33.2690   44.8820 C   0  0  0  0  0  0  0  0  0  0  0  0
   59.6400   34.5180   45.0530 C   0  0  0  0  0  0  0  0  0  0  0  0
   60.9940   32.7090   49.4500 C   0  0  0  0  0  0  0  0  0  0  0  0
   60.5770   34.1290   49.6740 C   0  0  0  0  0  0  0  0  0  0  0  0
   58.8430   33.4590   51.8780 N   0  0  0  0  0  0  0  0  0  0  0  0
   58.1880   33.0900   53.0050 C   0  0  0  0  0  0  0  0  0  0  0  0
   57.4440   31.9670   53.0340 N   0  0  0  0  0  0  0  0  0  0  0  0
   55.2734   30.0873   53.5569 H   0  0  0  0  0  0  0  0  0  0  0  0
   54.7154   30.9754   52.0986 H   0  0  0  0  0  0  0  0  0  0  0  0
   54.7482   29.1794   52.0986 H   0  0  0  0  0  0  0  0  0  0  0  0
   57.9307   30.9355   49.8734 H   0  0  0  0  0  0  0  0  0  0  0  0
   60.5790   32.3120   47.0910 H   0  0  0  0  0  0  0  0  0  0  0  0
   58.0290   30.3403   46.4352 H   0  0  0  0  0  0  0  0  0  0  0  0
   59.6400   28.3010   44.0420 H   0  0  0  0  0  0  0  0  0  0  0  0
   60.8496   27.0100   45.7567 H   0  0  0  0  0  0  0  0  0  0  0  0
   59.5188   25.8126   47.4468 H   0  0  0  0  0  0  0  0  0  0  0  0
   57.0374   25.8732   47.4568 H   0  0  0  0  0  0  0  0  0  0  0  0
   55.1570   27.8780   44.9590 H   0  0  0  0  0  0  0  0  0  0  0  0
   56.8424   31.8329   42.5461 H   0  0  0  0  0  0  0  0  0  0  0  0
   58.1881   33.9074   42.9147 H   0  0  0  0  0  0  0  0  0  0  0  0
   59.7701   34.7253   46.1254 H   0  0  0  0  0  0  0  0  0  0  0  0
   60.6261   34.3996   44.5801 H   0  0  0  0  0  0  0  0  0  0  0  0
   59.1047   35.3546   44.5801 H   0  0  0  0  0  0  0  0  0  0  0  0
   61.4371   32.1218   50.2679 H   0  0  0  0  0  0  0  0  0  0  0  0
   61.6325   32.1716   48.7334 H   0  0  0  0  0  0  0  0  0  0  0  0
   60.7447   34.5920   50.6576 H   0  0  0  0  0  0  0  0  0  0  0  0
   60.8192   35.0764   49.1702 H   0  0  0  0  0  0  0  0  0  0  0  0
   59.3950   34.3360   51.9390 H   0  0  0  0  0  0  0  0  0  0  0  0
   58.2645   33.7147   53.9072 H   0  0  0  0  0  0  0  0  0  0  0  0
  1  2  1  0
  2  3  2  0
  3  4  1  0
  4  5  2  0
  5  6  1  0
  6  7  1  0
  7  8  2  0
  7  9  1  0
  9 10  1  0
 10 11  2  0
 11 12  1  0
 12 13  1  0
 13 14  2  0
 13 15  1  0
 15 16  2  0
 16 17  1  0
 17 18  1  0
 18 19  2  0
 19 20  1  0
 20 21  2  0
 21 22  1  0
 12 23  2  0
 23 24  1  0
 24 25  2  0
 25 26  1  0
  6 27  1  0
 27 28  1  0
  5 29  1  0
 29 30  1  0
 30 31  2  0
 31  3  1  0
 28  6  1  0
 25 10  1  0
 21 16  1  0
  1 32  1  0
  1 33  1  0
  1 34  1  0
  4 35  1  0
  9 36  1  0
 11 37  1  0
 17 38  1  0
 18 39  1  0
 19 40  1  0
 20 41  1  0
 22 42  1  0
 23 43  1  0
 24 44  1  0
 26 45  1  0
 26 46  1  0
 26 47  1  0
 27 48  1  0
 27 49  1  0
 28 50  1  0
 28 51  1  0
 29 52  1  0
 30 53  1  0
M  END
>  <smiles>  (37) 
CN=c1cc(C2(C(=O)Nc3cc(C(=O)N=c4[nH]cccc4O)ccc3C)CC2)[nH]cn1

>  <score_type>  (37) 
oracle

>  <origin>  (37) 
adg

>  <m_score__min__energy>  (37) 
-9.9499999999999993

>  <m_primary>  (37) 
energy

$$$$
37:0
     RDKit          3D

 45 47  0  0  0  0  0  0  0  0999 V2000
   54.0880   28.7820   51.8130 O   0  0  0  0  0  0  0  0  0  0  0  0
   53.9820   30.0190   52.0330 C   0  0  0  0  0  0  0  0  0  0  0  0
   53.2160   30.8790   51.0790 C   0  0  0  0  0  0  0  0  0  0  0  0
   52.0910   31.5440   51.8090 C   0  0  0  0  0  0  0  0  0  0  0  0
   52.0360   31.6840   53.1460 N   0  0  0  0  0  0  0  0  0  0  0  0
   50.9240   32.4260   53.3350 C   0  0  0  0  0  0  0  0  0  0  0  0
   50.5270   32.7710   54.4780 O   0  0  0  0  0  0  0  0  0  0  0  0
   50.2770   32.7790   52.2030 N   0  0  0  0  0  0  0  0  0  0  0  0
   51.0340   32.2190   51.2460 C   0  0  0  0  0  0  0  0  0  0  0  0
   50.7720   32.3340   49.8880 O   0  0  0  0  0  0  0  0  0  0  0  0
   54.6750   30.6170   53.1360 N   0  0  0  0  0  0  0  0  0  0  0  0
   55.9960   30.1470   53.5390 C   0  0  0  0  0  0  0  0  0  0  0  0
   57.0390   31.1060   53.0340 C   0  0  0  0  0  0  0  0  0  0  0  0
   56.6630   32.3810   52.5850 C   0  0  0  0  0  0  0  0  0  0  0  0
   57.6080   33.2340   52.0070 C   0  0  0  0  0  0  0  0  0  0  0  0
   58.9370   32.8120   51.8480 C   0  0  0  0  0  0  0  0  0  0  0  0
   59.9560   33.7130   51.2160 C   0  0  0  0  0  0  0  0  0  0  0  0
   61.2430   33.0250   51.1650 N   0  0  0  0  0  0  0  0  0  0  0  0
   61.5630   32.4920   49.5430 S   0  0  0  0  0  0  0  0  0  0  0  0
   62.8940   33.0300   49.0930 O   0  0  0  0  0  0  0  0  0  0  0  0
   61.6030   30.9900   49.5130 O   0  0  0  0  0  0  0  0  0  0  0  0
   60.2820   33.0540   48.4710 C   0  0  0  0  0  0  0  0  0  0  0  0
   59.1380   32.2660   48.2830 C   0  0  0  0  0  0  0  0  0  0  0  0
   58.1150   32.7030   47.4350 C   0  0  0  0  0  0  0  0  0  0  0  0
   58.2320   33.9280   46.7710 C   0  0  0  0  0  0  0  0  0  0  0  0
   57.2390   34.3510   45.9510 F   0  0  0  0  0  0  0  0  0  0  0  0
   59.3690   34.7190   46.9590 C   0  0  0  0  0  0  0  0  0  0  0  0
   60.3940   34.2830   47.8060 C   0  0  0  0  0  0  0  0  0  0  0  0
   59.3160   31.5410   52.3070 C   0  0  0  0  0  0  0  0  0  0  0  0
   58.3730   30.6920   52.8900 C   0  0  0  0  0  0  0  0  0  0  0  0
   53.8836   31.6444   50.6564 H   0  0  0  0  0  0  0  0  0  0  0  0
   52.8125   30.2588   50.2650 H   0  0  0  0  0  0  0  0  0  0  0  0
   54.3900   31.5760   53.4390 H   0  0  0  0  0  0  0  0  0  0  0  0
   56.0477   30.0920   54.6364 H   0  0  0  0  0  0  0  0  0  0  0  0
   56.1773   29.1481   53.1155 H   0  0  0  0  0  0  0  0  0  0  0  0
   55.6189   32.7113   52.6883 H   0  0  0  0  0  0  0  0  0  0  0  0
   57.3088   34.2394   51.6757 H   0  0  0  0  0  0  0  0  0  0  0  0
   59.6363   33.9704   50.1955 H   0  0  0  0  0  0  0  0  0  0  0  0
   60.0534   34.6333   51.8106 H   0  0  0  0  0  0  0  0  0  0  0  0
   59.0445   31.3015   48.8037 H   0  0  0  0  0  0  0  0  0  0  0  0
   57.2181   32.0827   47.2904 H   0  0  0  0  0  0  0  0  0  0  0  0
   59.4581   35.6851   46.4407 H   0  0  0  0  0  0  0  0  0  0  0  0
   61.2892   34.9057   47.9503 H   0  0  0  0  0  0  0  0  0  0  0  0
   60.3609   31.2121   52.2070 H   0  0  0  0  0  0  0  0  0  0  0  0
   58.6768   29.6938   53.2382 H   0  0  0  0  0  0  0  0  0  0  0  0
  1  2  2  0
  2  3  1  0
  3  4  1  0
  4  5  1  0
  5  6  1  0
  6  7  2  0
  6  8  1  0
  8  9  1  0
  9 10  1  0
  2 11  1  0
 11 12  1  0
 12 13  1  0
 13 14  2  0
 14 15  1  0
 15 16  2  0
 16 17  1  0
 17 18  1  0
 18 19  1  0
 19 20  2  0
 19 21  2  0
 19 22  1  0
 22 23  2  0
 23 24  1  0
 24 25  2  0
 25 26  1  0
 25 27  1  0
 27 28  2  0
 16 29  1  0
 29 30  2  0
  9  4  2  0
 30 13  1  0
 28 22  1  0
  3 31  1  0
  3 32  1  0
 11 33  1  0
 12 34  1  0
 12 35  1  0
 14 36  1  0
 15 37  1  0
 17 38  1  0
 17 39  1  0
 23 40  1  0
 24 41  1  0
 27 42  1  0
 28 43  1  0
 29 44  1  0
 30 45  1  0
M  CHG  4   5  -1   8  -1  10  -1  18  -1
M  END
>  <UniqueID>  (38) 
37

>  <SMILES>  (38) 
O=C(Cc1[n-]c(=O)[n-]c1[O-])NCc1ccc(C[N-]S(=O)(=O)c2ccc(F)cc2)cc1

>  <Energy>  (38) 
67.4074093505574

>  <Genealogy>  (38) 
O=C(Cc1[n-]c(=O)[n-]c1[O-])NCc1ccc(C[N-]S(=O)(=O)c2ccc(F)cc2)cc1 (protonated)
O=C(Cc1[n-]c(=O)[n-]c1[O-])NCc1ccc(C[N-]S(=O)(=O)c2ccc(F)cc2)cc1 (3D coordinates assigned)
O=C(Cc1[n-]c(=O)[n-]c1[O-])NCc1ccc(C[N-]S(=O)(=O)c2ccc(F)cc2)cc1 (optimized conformer: 67.4074093505574 kcal/mol)

>  <smiles>  (38) 
O=C(Cc1[nH]c(=O)[nH]c1O)NCc1ccc(CNS(=O)(=O)c2ccc(F)cc2)cc1

>  <score_type>  (38) 
oracle

>  <origin>  (38) 
adg

>  <m_score__min__energy>  (38) 
-17.84

>  <m_primary>  (38) 
energy

$$$$
38:0
     RDKit          3D

 41 43  0  0  0  0  0  0  0  0999 V2000
   55.7410   29.0080   44.8620 O   0  0  0  0  0  0  0  0  0  0  0  0
   56.9100   28.9160   45.3220 C   0  0  0  0  0  0  0  0  0  0  0  0
   57.6860   30.1130   45.4670 N   0  0  0  0  0  0  0  0  0  0  0  0
   58.3380   30.5400   46.6700 C   0  0  0  0  0  0  0  0  0  0  0  0
   58.5170   29.6200   47.7100 C   0  0  0  0  0  0  0  0  0  0  0  0
   59.1360   30.0140   48.9000 C   0  0  0  0  0  0  0  0  0  0  0  0
   59.5590   31.3350   49.0670 C   0  0  0  0  0  0  0  0  0  0  0  0
   59.3530   32.2740   48.0480 C   0  0  0  0  0  0  0  0  0  0  0  0
   59.8660   33.9470   48.2740 S   0  0  0  0  0  0  0  0  0  0  0  0
   58.9690   34.8580   47.4830 O   0  0  0  0  0  0  0  0  0  0  0  0
   59.7210   34.2940   49.7300 O   0  0  0  0  0  0  0  0  0  0  0  0
   61.5380   34.1530   47.7950 N   0  0  0  0  0  0  0  0  0  0  0  0
   62.4360   34.2540   48.9580 C   0  0  0  0  0  0  0  0  0  0  0  0
   62.6470   32.8880   49.6560 C   0  0  0  0  0  0  0  0  0  0  0  0
   62.3060   31.7780   48.8450 O   0  0  0  0  0  0  0  0  0  0  0  0
   62.7660   31.9740   47.5280 C   0  0  0  0  0  0  0  0  0  0  0  0
   61.9700   33.1030   46.8460 C   0  0  0  0  0  0  0  0  0  0  0  0
   58.7440   31.8740   46.8500 C   0  0  0  0  0  0  0  0  0  0  0  0
   57.4230   27.6060   45.7880 C   0  0  0  0  0  0  0  0  0  0  0  0
   58.7690   27.4360   45.9160 N   0  0  0  0  0  0  0  0  0  0  0  0
   59.3160   26.2780   46.3650 C   0  0  0  0  0  0  0  0  0  0  0  0
   58.4940   25.2090   46.7170 C   0  0  0  0  0  0  0  0  0  0  0  0
   57.1100   25.3400   46.5960 C   0  0  0  0  0  0  0  0  0  0  0  0
   56.3650   24.3720   46.9050 O   0  0  0  0  0  0  0  0  0  0  0  0
   56.5580   26.5450   46.1280 C   0  0  0  0  0  0  0  0  0  0  0  0
   55.1750   26.6890   45.9880 O   0  0  0  0  0  0  0  0  0  0  0  0
   58.1693   28.5833   47.5904 H   0  0  0  0  0  0  0  0  0  0  0  0
   59.2903   29.2822   49.7067 H   0  0  0  0  0  0  0  0  0  0  0  0
   60.0549   31.6385   50.0008 H   0  0  0  0  0  0  0  0  0  0  0  0
   63.4117   34.6333   48.6200 H   0  0  0  0  0  0  0  0  0  0  0  0
   61.9707   34.9358   49.6850 H   0  0  0  0  0  0  0  0  0  0  0  0
   63.7070   32.8010   49.9367 H   0  0  0  0  0  0  0  0  0  0  0  0
   61.9795   32.8660   50.5301 H   0  0  0  0  0  0  0  0  0  0  0  0
   63.8318   32.2451   47.5525 H   0  0  0  0  0  0  0  0  0  0  0  0
   62.6268   31.0434   46.9582 H   0  0  0  0  0  0  0  0  0  0  0  0
   62.6048   33.5650   46.0756 H   0  0  0  0  0  0  0  0  0  0  0  0
   61.0639   32.6547   46.4125 H   0  0  0  0  0  0  0  0  0  0  0  0
   58.5830   32.6079   46.0466 H   0  0  0  0  0  0  0  0  0  0  0  0
   60.4085   26.1831   46.4511 H   0  0  0  0  0  0  0  0  0  0  0  0
   58.9323   24.2704   47.0869 H   0  0  0  0  0  0  0  0  0  0  0  0
   54.7550   27.0890   45.1590 H   0  0  0  0  0  0  0  0  0  0  0  0
  1  2  2  0
  2  3  1  0
  3  4  1  0
  4  5  2  0
  5  6  1  0
  6  7  2  0
  7  8  1  0
  8  9  1  0
  9 10  2  0
  9 11  2  0
  9 12  1  0
 12 13  1  0
 13 14  1  0
 14 15  1  0
 15 16  1  0
 16 17  1  0
  8 18  2  0
  2 19  1  0
 19 20  1  0
 20 21  1  0
 21 22  2  0
 22 23  1  0
 23 24  2  0
 23 25  1  0
 25 26  1  0
 18  4  1  0
 25 19  2  0
 17 12  1  0
  5 27  1  0
  6 28  1  0
  7 29  1  0
 13 30  1  0
 13 31  1  0
 14 32  1  0
 14 33  1  0
 16 34  1  0
 16 35  1  0
 17 36  1  0
 17 37  1  0
 18 38  1  0
 21 39  1  0
 22 40  1  0
 26 41  1  0
M  CHG  2   3  -1  20  -1
M  END
>  <UniqueID>  (39) 
38

>  <SMILES>  (39) 
O=C([N-]c1cccc(S(=O)(=O)N2CCOCC2)c1)c1[n-]ccc(=O)c1O

>  <Energy>  (39) 
58.66711780210539

>  <Genealogy>  (39) 
O=C([N-]c1cccc(S(=O)(=O)N2CCOCC2)c1)c1[n-]ccc(=O)c1O (protonated)
O=C([N-]c1cccc(S(=O)(=O)N2CCOCC2)c1)c1[n-]ccc(=O)c1O (3D coordinates assigned)
O=C([N-]c1cccc(S(=O)(=O)N2CCOCC2)c1)c1[n-]ccc(=O)c1O (nonaromatic ring conformer: 58.66711780210539 kcal/mol)

>  <smiles>  (39) 
O=C(Nc1cccc(S(=O)(=O)N2CCOCC2)c1)c1[nH]ccc(=O)c1O

>  <score_type>  (39) 
oracle

>  <origin>  (39) 
adg

>  <m_score__min__energy>  (39) 
-12.15

>  <m_primary>  (39) 
energy

$$$$
39:0
     RDKit          3D

 45 48  0  0  0  0  0  0  0  0999 V2000
   60.3600   29.2820   44.8610 C   0  0  0  0  0  0  0  0  0  0  0  0
   59.6680   29.2660   46.0090 C   0  0  0  0  0  0  0  0  0  0  0  0
   58.8130   28.2540   46.4550 C   0  0  0  0  0  0  0  0  0  0  0  0
   58.4600   27.1350   45.7940 C   0  0  0  0  0  0  0  0  0  0  0  0
   57.1230   26.5180   45.8710 C   0  0  0  0  0  0  0  0  0  0  0  0
   56.9130   25.2680   46.3180 N   0  0  0  0  0  0  0  0  0  0  0  0
   55.5690   25.1480   46.3000 C   0  0  0  0  0  0  0  0  0  0  0  0
   54.9760   24.0920   46.6440 O   0  0  0  0  0  0  0  0  0  0  0  0
   54.9080   26.2530   45.8930 N   0  0  0  0  0  0  0  0  0  0  0  0
   55.9040   27.1160   45.6380 C   0  0  0  0  0  0  0  0  0  0  0  0
   55.6970   28.4330   45.2460 O   0  0  0  0  0  0  0  0  0  0  0  0
   58.3470   28.6580   47.7020 C   0  0  0  0  0  0  0  0  0  0  0  0
   58.9380   29.8770   47.9680 C   0  0  0  0  0  0  0  0  0  0  0  0
   58.6870   30.7080   49.1890 C   0  0  0  0  0  0  0  0  0  0  0  0
   59.7240   30.2520   46.9370 N   0  0  0  0  0  0  0  0  0  0  0  0
   60.4960   31.4610   46.8760 C   0  0  0  0  0  0  0  0  0  0  0  0
   61.6990   31.5140   47.5170 N   0  0  0  0  0  0  0  0  0  0  0  0
   62.4800   32.6260   47.4860 C   0  0  0  0  0  0  0  0  0  0  0  0
   62.0620   33.7550   46.7850 C   0  0  0  0  0  0  0  0  0  0  0  0
   60.8350   33.7360   46.1250 C   0  0  0  0  0  0  0  0  0  0  0  0
   60.0280   32.5910   46.1700 C   0  0  0  0  0  0  0  0  0  0  0  0
   58.4650   32.6020   45.3420 S   0  0  0  0  0  0  0  0  0  0  0  0
   58.1620   33.9830   44.8230 O   0  0  0  0  0  0  0  0  0  0  0  0
   57.3940   32.1910   46.3110 O   0  0  0  0  0  0  0  0  0  0  0  0
   58.5000   31.4660   44.0110 N   0  0  0  0  0  0  0  0  0  0  0  0
   57.7860   32.0020   42.8460 C   0  0  0  0  0  0  0  0  0  0  0  0
   56.6630   30.9920   42.9640 C   0  0  0  0  0  0  0  0  0  0  0  0
   57.4380   30.4610   44.1520 C   0  0  0  0  0  0  0  0  0  0  0  0
   61.0041   30.1402   44.6190 H   0  0  0  0  0  0  0  0  0  0  0  0
   60.2837   28.4369   44.1610 H   0  0  0  0  0  0  0  0  0  0  0  0
   59.2157   26.6515   45.1574 H   0  0  0  0  0  0  0  0  0  0  0  0
   57.6447   28.1126   48.3496 H   0  0  0  0  0  0  0  0  0  0  0  0
   58.8700   30.1022   50.0888 H   0  0  0  0  0  0  0  0  0  0  0  0
   59.3632   31.5757   49.1874 H   0  0  0  0  0  0  0  0  0  0  0  0
   57.6436   31.0563   49.1874 H   0  0  0  0  0  0  0  0  0  0  0  0
   62.0360   30.6760   48.0430 H   0  0  0  0  0  0  0  0  0  0  0  0
   63.4441   32.6345   48.0155 H   0  0  0  0  0  0  0  0  0  0  0  0
   62.6953   34.6539   46.7528 H   0  0  0  0  0  0  0  0  0  0  0  0
   60.4987   34.6223   45.5670 H   0  0  0  0  0  0  0  0  0  0  0  0
   57.4533   33.0421   42.9785 H   0  0  0  0  0  0  0  0  0  0  0  0
   58.3232   32.0852   41.8897 H   0  0  0  0  0  0  0  0  0  0  0  0
   55.6759   31.4157   43.2011 H   0  0  0  0  0  0  0  0  0  0  0  0
   56.3402   30.3554   42.1270 H   0  0  0  0  0  0  0  0  0  0  0  0
   56.8880   30.5373   45.1015 H   0  0  0  0  0  0  0  0  0  0  0  0
   57.7163   29.3969   44.1685 H   0  0  0  0  0  0  0  0  0  0  0  0
  1  2  2  0
  2  3  1  0
  3  4  2  3
  4  5  1  0
  5  6  1  0
  6  7  1  0
  7  8  2  0
  7  9  1  0
  9 10  1  0
 10 11  1  0
  3 12  1  0
 12 13  2  0
 13 14  1  0
 13 15  1  0
 15 16  1  0
 16 17  2  0
 17 18  1  0
 18 19  2  0
 19 20  1  0
 20 21  2  0
 21 22  1  0
 22 23  2  0
 22 24  2  0
 22 25  1  0
 25 26  1  0
 26 27  1  0
 27 28  1  0
 15  2  1  0
 21 16  1  0
 28 25  1  0
 10  5  2  0
  1 29  1  0
  1 30  1  0
  4 31  1  0
 12 32  1  0
 14 33  1  0
 14 34  1  0
 14 35  1  0
 17 36  1  0
 18 37  1  0
 19 38  1  0
 20 39  1  0
 26 40  1  0
 26 41  1  0
 27 42  1  0
 27 43  1  0
 28 44  1  0
 28 45  1  0
M  CHG  4   6  -1   9  -1  11  -1  17   1
M  END
>  <UniqueID>  (40) 
39

>  <SMILES>  (40) 
C=c1c(=Cc2[n-]c(=O)[n-]c2[O-])cc(C)n1-c1[nH+]cccc1S(=O)(=O)N1CCC1

>  <Energy>  (40) 
186.32459827154383

>  <Genealogy>  (40) 
C=c1c(=Cc2[n-]c(=O)[n-]c2[O-])cc(C)n1-c1[nH+]cccc1S(=O)(=O)N1CCC1 (protonated)
C=c1c(=Cc2[n-]c(=O)[n-]c2[O-])cc(C)n1-c1[nH+]cccc1S(=O)(=O)N1CCC1 (3D coordinates assigned)
C=c1c(=Cc2[n-]c(=O)[n-]c2[O-])cc(C)n1-c1[nH+]cccc1S(=O)(=O)N1CCC1 (nonaromatic ring conformer: 186.32459827154383 kcal/mol)

>  <smiles>  (40) 
C=c1c(=Cc2[nH]c(=O)[nH]c2O)cc(C)n1-c1ncccc1S(=O)(=O)N1CCC1

>  <score_type>  (40) 
oracle

>  <origin>  (40) 
adg

>  <m_score__min__energy>  (40) 
-14.35

>  <m_primary>  (40) 
energy

$$$$
40:0
     RDKit          3D

 51 53  0  0  0  0  0  0  0  0999 V2000
   53.6360   24.8120   45.5900 C   0  0  0  0  0  0  0  0  0  0  0  0
   55.0070   25.1730   45.7000 O   0  0  0  0  0  0  0  0  0  0  0  0
   56.0830   24.3500   45.3300 C   0  0  0  0  0  0  0  0  0  0  0  0
   55.9200   23.2880   44.4180 C   0  0  0  0  0  0  0  0  0  0  0  0
   57.0090   22.4900   44.0590 C   0  0  0  0  0  0  0  0  0  0  0  0
   58.2700   22.7410   44.5990 C   0  0  0  0  0  0  0  0  0  0  0  0
   58.4470   23.7900   45.5020 C   0  0  0  0  0  0  0  0  0  0  0  0
   57.3590   24.5940   45.8840 C   0  0  0  0  0  0  0  0  0  0  0  0
   57.5940   25.7430   46.8300 C   0  0  0  0  0  0  0  0  0  0  0  0
   57.3300   27.0090   46.1500 N   0  0  0  0  0  0  0  0  0  0  0  0
   57.8450   28.2660   46.6200 C   0  0  0  0  0  0  0  0  0  0  0  0
   58.5560   28.3070   47.6600 O   0  0  0  0  0  0  0  0  0  0  0  0
   57.5200   29.5280   45.9190 C   0  0  0  0  0  0  0  0  0  0  0  0
   58.3830   30.6300   46.0540 C   0  0  0  0  0  0  0  0  0  0  0  0
   58.0960   31.8440   45.4150 C   0  0  0  0  0  0  0  0  0  0  0  0
   59.1570   33.2370   45.6200 S   0  0  0  0  0  0  0  0  0  0  0  0
   59.4420   33.8670   44.2840 O   0  0  0  0  0  0  0  0  0  0  0  0
   58.4610   34.2490   46.4880 O   0  0  0  0  0  0  0  0  0  0  0  0
   60.6460   32.7310   46.3760 N   0  0  0  0  0  0  0  0  0  0  0  0
   60.3780   32.3050   47.7670 C   0  0  0  0  0  0  0  0  0  0  0  0
   61.6700   32.1480   48.5990 C   0  0  0  0  0  0  0  0  0  0  0  0
   62.9130   32.0900   47.7080 C   0  0  0  0  0  0  0  0  0  0  0  0
   63.0070   33.3360   46.8110 C   0  0  0  0  0  0  0  0  0  0  0  0
   61.6250   33.8310   46.3440 C   0  0  0  0  0  0  0  0  0  0  0  0
   56.9410   31.9600   44.6350 C   0  0  0  0  0  0  0  0  0  0  0  0
   56.0880   30.8670   44.4770 C   0  0  0  0  0  0  0  0  0  0  0  0
   56.3750   29.6510   45.1040 C   0  0  0  0  0  0  0  0  0  0  0  0
   55.5300   28.5670   44.8880 O   0  0  0  0  0  0  0  0  0  0  0  0
   53.2049   24.6985   46.5956 H   0  0  0  0  0  0  0  0  0  0  0  0
   53.0926   25.5977   45.0446 H   0  0  0  0  0  0  0  0  0  0  0  0
   53.5500   23.8606   45.0446 H   0  0  0  0  0  0  0  0  0  0  0  0
   54.9287   23.0861   43.9860 H   0  0  0  0  0  0  0  0  0  0  0  0
   56.8715   21.6615   43.3485 H   0  0  0  0  0  0  0  0  0  0  0  0
   59.1256   22.1117   44.3129 H   0  0  0  0  0  0  0  0  0  0  0  0
   59.4456   23.9893   45.9181 H   0  0  0  0  0  0  0  0  0  0  0  0
   56.9215   25.6465   47.6952 H   0  0  0  0  0  0  0  0  0  0  0  0
   58.6404   25.7251   47.1686 H   0  0  0  0  0  0  0  0  0  0  0  0
   56.6000   27.0080   45.4020 H   0  0  0  0  0  0  0  0  0  0  0  0
   59.2919   30.5384   46.6669 H   0  0  0  0  0  0  0  0  0  0  0  0
   59.7377   33.0584   48.2491 H   0  0  0  0  0  0  0  0  0  0  0  0
   59.8865   31.3218   47.7257 H   0  0  0  0  0  0  0  0  0  0  0  0
   61.7606   33.0054   49.2821 H   0  0  0  0  0  0  0  0  0  0  0  0
   61.6048   31.2034   49.1589 H   0  0  0  0  0  0  0  0  0  0  0  0
   63.8091   32.0360   48.3437 H   0  0  0  0  0  0  0  0  0  0  0  0
   62.8422   31.2001   47.0653 H   0  0  0  0  0  0  0  0  0  0  0  0
   63.4980   34.1417   47.3764 H   0  0  0  0  0  0  0  0  0  0  0  0
   63.5841   33.0612   45.9158 H   0  0  0  0  0  0  0  0  0  0  0  0
   61.2852   34.6377   47.0102 H   0  0  0  0  0  0  0  0  0  0  0  0
   61.7098   34.2023   45.3120 H   0  0  0  0  0  0  0  0  0  0  0  0
   56.7042   32.9157   44.1446 H   0  0  0  0  0  0  0  0  0  0  0  0
   55.1852   30.9627   43.8559 H   0  0  0  0  0  0  0  0  0  0  0  0
  1  2  1  0
  2  3  1  0
  3  4  2  0
  4  5  1  0
  5  6  2  0
  6  7  1  0
  7  8  2  0
  8  9  1  0
  9 10  1  0
 10 11  1  0
 11 12  2  0
 11 13  1  0
 13 14  2  0
 14 15  1  0
 15 16  1  0
 16 17  2  0
 16 18  2  0
 16 19  1  0
 19 20  1  0
 20 21  1  0
 21 22  1  0
 22 23  1  0
 23 24  1  0
 15 25  2  0
 25 26  1  0
 26 27  2  0
 27 28  1  0
  8  3  1  0
 27 13  1  0
 24 19  1  0
  1 29  1  0
  1 30  1  0
  1 31  1  0
  4 32  1  0
  5 33  1  0
  6 34  1  0
  7 35  1  0
  9 36  1  0
  9 37  1  0
 10 38  1  0
 14 39  1  0
 20 40  1  0
 20 41  1  0
 21 42  1  0
 21 43  1  0
 22 44  1  0
 22 45  1  0
 23 46  1  0
 23 47  1  0
 24 48  1  0
 24 49  1  0
 25 50  1  0
 26 51  1  0
M  CHG  1  28  -1
M  END
>  <UniqueID>  (41) 
40

>  <SMILES>  (41) 
COc1ccccc1CNC(=O)c1cc(S(=O)(=O)N2CCCCC2)ccc1[O-]

>  <Energy>  (41) 
57.07732180451853

>  <Genealogy>  (41) 
COc1ccccc1CNC(=O)c1cc(S(=O)(=O)N2CCCCC2)ccc1[O-] (protonated)
COc1ccccc1CNC(=O)c1cc(S(=O)(=O)N2CCCCC2)ccc1[O-] (3D coordinates assigned)
COc1ccccc1CNC(=O)c1cc(S(=O)(=O)N2CCCCC2)ccc1[O-] (nonaromatic ring conformer: 57.07732180451853 kcal/mol)

>  <smiles>  (41) 
COc1ccccc1CNC(=O)c1cc(S(=O)(=O)N2CCCCC2)ccc1O

>  <score_type>  (41) 
oracle

>  <origin>  (41) 
adg

>  <m_score__min__energy>  (41) 
-11.15

>  <m_primary>  (41) 
energy

$$$$
41:0
     RDKit          3D

 56 59  0  0  0  0  0  0  0  0999 V2000
   63.3910   31.2040   49.1170 O   0  0  0  0  0  0  0  0  0  0  0  0
   62.6370   31.7740   49.9500 C   0  0  0  0  0  0  0  0  0  0  0  0
   63.2300   32.7080   50.9590 C   0  0  0  0  0  0  0  0  0  0  0  0
   62.9800   34.4430   50.4520 S   0  0  0  0  0  0  0  0  0  0  0  0
   62.9210   34.0850   48.6930 C   0  0  0  0  0  0  0  0  0  0  0  0
   64.0130   33.7290   47.9850 N   0  0  0  0  0  0  0  0  0  0  0  0
   63.5530   33.5640   46.7280 C   0  0  0  0  0  0  0  0  0  0  0  0
   62.2010   33.8270   46.6910 C   0  0  0  0  0  0  0  0  0  0  0  0
   61.8060   34.1500   47.9340 N   0  0  0  0  0  0  0  0  0  0  0  0
   60.4620   34.5640   48.3370 C   0  0  0  0  0  0  0  0  0  0  0  0
   59.4760   34.2790   47.2360 C   0  0  0  0  0  0  0  0  0  0  0  0
   59.5760   34.9550   46.0080 C   0  0  0  0  0  0  0  0  0  0  0  0
   58.6500   34.7050   44.9900 C   0  0  0  0  0  0  0  0  0  0  0  0
   57.6180   33.7840   45.1920 C   0  0  0  0  0  0  0  0  0  0  0  0
   57.5100   33.1110   46.4120 C   0  0  0  0  0  0  0  0  0  0  0  0
   58.4340   33.3570   47.4320 C   0  0  0  0  0  0  0  0  0  0  0  0
   61.2190   31.5430   49.9310 N   0  0  0  0  0  0  0  0  0  0  0  0
   60.5090   30.9890   48.8110 C   0  0  0  0  0  0  0  0  0  0  0  0
   60.9910   31.1220   47.4970 C   0  0  0  0  0  0  0  0  0  0  0  0
   60.2650   30.6040   46.4220 C   0  0  0  0  0  0  0  0  0  0  0  0
   59.0460   29.9500   46.6420 C   0  0  0  0  0  0  0  0  0  0  0  0
   58.1390   29.2820   45.2850 S   0  0  0  0  0  0  0  0  0  0  0  0
   58.4090   30.1190   44.0640 O   0  0  0  0  0  0  0  0  0  0  0  0
   56.6680   29.3690   45.5820 O   0  0  0  0  0  0  0  0  0  0  0  0
   58.5630   27.6170   44.9450 N   0  0  0  0  0  0  0  0  0  0  0  0
   57.4430   26.6890   45.1800 C   0  0  0  0  0  0  0  0  0  0  0  0
   57.2920   26.2830   46.6650 C   0  0  0  0  0  0  0  0  0  0  0  0
   58.3760   26.6990   47.4720 O   0  0  0  0  0  0  0  0  0  0  0  0
   59.5910   26.3450   46.8540 C   0  0  0  0  0  0  0  0  0  0  0  0
   59.8230   27.2030   45.5990 C   0  0  0  0  0  0  0  0  0  0  0  0
   58.5480   29.8410   47.9470 C   0  0  0  0  0  0  0  0  0  0  0  0
   59.2730   30.3620   49.0230 C   0  0  0  0  0  0  0  0  0  0  0  0
   62.7463   32.5426   51.9330 H   0  0  0  0  0  0  0  0  0  0  0  0
   64.3099   32.5119   51.0325 H   0  0  0  0  0  0  0  0  0  0  0  0
   64.1642   33.2649   45.8637 H   0  0  0  0  0  0  0  0  0  0  0  0
   61.5577   33.7807   45.7999 H   0  0  0  0  0  0  0  0  0  0  0  0
   60.1673   34.0102   49.2405 H   0  0  0  0  0  0  0  0  0  0  0  0
   60.4668   35.6446   48.5425 H   0  0  0  0  0  0  0  0  0  0  0  0
   60.3849   35.6829   45.8469 H   0  0  0  0  0  0  0  0  0  0  0  0
   58.7339   35.2338   44.0291 H   0  0  0  0  0  0  0  0  0  0  0  0
   56.8906   33.5889   44.3903 H   0  0  0  0  0  0  0  0  0  0  0  0
   56.6971   32.3869   46.5699 H   0  0  0  0  0  0  0  0  0  0  0  0
   58.3449   32.8267   48.3916 H   0  0  0  0  0  0  0  0  0  0  0  0
   60.6730   31.7680   50.7930 H   0  0  0  0  0  0  0  0  0  0  0  0
   61.9456   31.6371   47.3144 H   0  0  0  0  0  0  0  0  0  0  0  0
   60.6523   30.7101   45.3979 H   0  0  0  0  0  0  0  0  0  0  0  0
   56.5116   27.1747   44.8535 H   0  0  0  0  0  0  0  0  0  0  0  0
   57.6517   25.7722   44.6091 H   0  0  0  0  0  0  0  0  0  0  0  0
   56.3700   26.7357   47.0586 H   0  0  0  0  0  0  0  0  0  0  0  0
   57.2625   25.1840   46.7007 H   0  0  0  0  0  0  0  0  0  0  0  0
   60.4180   26.5060   47.5613 H   0  0  0  0  0  0  0  0  0  0  0  0
   59.5467   25.2861   46.5596 H   0  0  0  0  0  0  0  0  0  0  0  0
   60.3812   28.1054   45.8889 H   0  0  0  0  0  0  0  0  0  0  0  0
   60.3834   26.5895   44.8782 H   0  0  0  0  0  0  0  0  0  0  0  0
   57.5832   29.3438   48.1257 H   0  0  0  0  0  0  0  0  0  0  0  0
   58.8707   30.2794   50.0434 H   0  0  0  0  0  0  0  0  0  0  0  0
  1  2  2  0
  2  3  1  0
  3  4  1  0
  4  5  1  0
  5  6  2  0
  6  7  1  0
  7  8  2  0
  8  9  1  0
  9 10  1  0
 10 11  1  0
 11 12  2  0
 12 13  1  0
 13 14  2  0
 14 15  1  0
 15 16  2  0
  2 17  1  0
 17 18  1  0
 18 19  2  0
 19 20  1  0
 20 21  2  0
 21 22  1  0
 22 23  2  0
 22 24  2  0
 22 25  1  0
 25 26  1  0
 26 27  1  0
 27 28  1  0
 28 29  1  0
 29 30  1  0
 21 31  1  0
 31 32  2  0
  9  5  1  0
 16 11  1  0
 32 18  1  0
 30 25  1  0
  3 33  1  0
  3 34  1  0
  7 35  1  0
  8 36  1  0
 10 37  1  0
 10 38  1  0
 12 39  1  0
 13 40  1  0
 14 41  1  0
 15 42  1  0
 16 43  1  0
 17 44  1  0
 19 45  1  0
 20 46  1  0
 26 47  1  0
 26 48  1  0
 27 49  1  0
 27 50  1  0
 29 51  1  0
 29 52  1  0
 30 53  1  0
 30 54  1  0
 31 55  1  0
 32 56  1  0
M  END
>  <UniqueID>  (42) 
41

>  <SMILES>  (42) 
O=C(CSc1nccn1Cc1ccccc1)Nc1ccc(S(=O)(=O)N2CCOCC2)cc1

>  <Energy>  (42) 
94.43722727184985

>  <Genealogy>  (42) 
O=C(CSc1nccn1Cc1ccccc1)Nc1ccc(S(=O)(=O)N2CCOCC2)cc1 (3D coordinates assigned)
O=C(CSc1nccn1Cc1ccccc1)Nc1ccc(S(=O)(=O)N2CCOCC2)cc1 (nonaromatic ring conformer: 94.43722727184985 kcal/mol)

>  <smiles>  (42) 
O=C(CSc1nccn1Cc1ccccc1)Nc1ccc(S(=O)(=O)N2CCOCC2)cc1

>  <score_type>  (42) 
oracle

>  <origin>  (42) 
adg

>  <m_score__min__energy>  (42) 
-9.4299999999999997

>  <m_primary>  (42) 
energy

$$$$
42:0
     RDKit          3D

 43 45  0  0  0  0  0  0  0  0999 V2000
   54.7750   24.4310   47.4380 H   0  0  0  0  0  0  0  0  0  0  0  0
   55.7880   24.4570   47.4380 O   0  0  0  0  0  0  0  0  0  0  0  0
   56.4900   25.5350   46.9040 C   0  0  0  0  0  0  0  0  0  0  0  0
   57.8600   25.6890   47.1590 C   0  0  0  0  0  0  0  0  0  0  0  0
   58.3867   24.9550   47.7866 H   0  0  0  0  0  0  0  0  0  0  0  0
   58.5580   26.7710   46.6190 C   0  0  0  0  0  0  0  0  0  0  0  0
   59.6288   26.8958   46.8374 H   0  0  0  0  0  0  0  0  0  0  0  0
   57.8980   27.7020   45.7970 C   0  0  0  0  0  0  0  0  0  0  0  0
   58.6070   28.8810   45.2540 C   0  0  0  0  0  0  0  0  0  0  0  0
   59.5622   28.6938   44.7417 H   0  0  0  0  0  0  0  0  0  0  0  0
   58.1910   30.1780   45.3270 C   0  0  0  0  0  0  0  0  0  0  0  0
   57.5020   30.8680   44.2850 C   0  0  0  0  0  0  0  0  0  0  0  0
   56.8940   30.2650   43.2530 C   0  0  0  0  0  0  0  0  0  0  0  0
   56.9931   29.1782   43.1150 H   0  0  0  0  0  0  0  0  0  0  0  0
   56.2962   30.8572   42.5445 H   0  0  0  0  0  0  0  0  0  0  0  0
   57.3310   32.2090   44.3850 N   0  0  0  0  0  0  0  0  0  0  0  0
   57.7000   32.9110   45.4790 C   0  0  0  0  0  0  0  0  0  0  0  0
   57.5290   34.1610   45.4840 O   0  0  0  0  0  0  0  0  0  0  0  0
   58.2250   32.2710   46.5680 N   0  0  0  0  0  0  0  0  0  0  0  0
   58.5300   33.0470   47.7910 C   0  0  0  0  0  0  0  0  0  0  0  0
   57.9895   34.0044   47.7543 H   0  0  0  0  0  0  0  0  0  0  0  0
   58.2144   32.4611   48.6669 H   0  0  0  0  0  0  0  0  0  0  0  0
   60.0150   33.3200   47.9010 C   0  0  0  0  0  0  0  0  0  0  0  0
   60.8700   32.9500   46.8470 C   0  0  0  0  0  0  0  0  0  0  0  0
   60.4558   32.4531   45.9573 H   0  0  0  0  0  0  0  0  0  0  0  0
   62.2380   33.2080   46.9210 C   0  0  0  0  0  0  0  0  0  0  0  0
   62.8979   32.9141   46.0915 H   0  0  0  0  0  0  0  0  0  0  0  0
   62.7710   33.8380   48.0450 C   0  0  0  0  0  0  0  0  0  0  0  0
   63.8505   34.0422   48.0994 H   0  0  0  0  0  0  0  0  0  0  0  0
   61.9380   34.2100   49.1010 C   0  0  0  0  0  0  0  0  0  0  0  0
   62.3649   34.7061   49.9851 H   0  0  0  0  0  0  0  0  0  0  0  0
   60.5520   33.9540   49.0420 C   0  0  0  0  0  0  0  0  0  0  0  0
   59.6910   34.3120   50.0910 O   0  0  0  0  0  0  0  0  0  0  0  0
   59.3390   33.4610   51.1770 C   0  0  0  0  0  0  0  0  0  0  0  0
   59.5507   33.9728   52.1274 H   0  0  0  0  0  0  0  0  0  0  0  0
   58.2672   33.2197   51.1213 H   0  0  0  0  0  0  0  0  0  0  0  0
   59.9271   32.5331   51.1213 H   0  0  0  0  0  0  0  0  0  0  0  0
   58.4790   30.9220   46.5040 C   0  0  0  0  0  0  0  0  0  0  0  0
   59.0120   30.3410   47.4940 O   0  0  0  0  0  0  0  0  0  0  0  0
   56.5210   27.5610   45.5690 C   0  0  0  0  0  0  0  0  0  0  0  0
   55.9880   28.3067   44.9608 H   0  0  0  0  0  0  0  0  0  0  0  0
   55.8220   26.4770   46.1110 C   0  0  0  0  0  0  0  0  0  0  0  0
   54.4610   26.3390   45.8610 O   0  0  0  0  0  0  0  0  0  0  0  0
  1  2  1  0
  2  3  1  0
  3  4  2  0
  4  5  1  0
  4  6  1  0
  6  7  1  0
  6  8  2  0
  8  9  1  0
  9 10  1  0
  9 11  2  0
 11 12  1  0
 12 13  2  0
 13 14  1  0
 13 15  1  0
 12 16  1  0
 16 17  1  0
 17 18  2  0
 17 19  1  0
 19 20  1  0
 20 21  1  0
 20 22  1  0
 20 23  1  0
 23 24  2  0
 24 25  1  0
 24 26  1  0
 26 27  1  0
 26 28  2  0
 28 29  1  0
 28 30  1  0
 30 31  1  0
 30 32  2  0
 32 33  1  0
 33 34  1  0
 34 35  1  0
 34 36  1  0
 34 37  1  0
 19 38  1  0
 38 39  2  0
  8 40  1  0
 40 41  1  0
 40 42  2  0
 42 43  1  0
 42  3  1  0
 38 11  1  0
 32 23  1  0
M  CHG  2  16  -1  43  -1
M  END
>  <UniqueID>  (43) 
42

>  <SMILES>  (43) 
C=c1[n-]c(=O)n(Cc2ccccc2OC)c(=O)/c1=C/c1ccc(O)c([O-])c1

>  <Energy>  (43) 
72.56493520495572

>  <Genealogy>  (43) 
C=c1[n-]c(=O)n(Cc2ccccc2OC)c(=O)c1=Cc1ccc(O)c([O-])c1 (protonated)
C=c1[n-]c(=O)n(Cc2ccccc2OC)c(=O)/c1=C/c1ccc(O)c([O-])c1 (cis-trans isomerization)
C=c1[n-]c(=O)n(Cc2ccccc2OC)c(=O)/c1=C/c1ccc(O)c([O-])c1 (3D coordinates assigned)
C=c1[n-]c(=O)n(Cc2ccccc2OC)c(=O)/c1=C/c1ccc(O)c([O-])c1 (optimized conformer: 72.56493520495572 kcal/mol)

>  <smiles>  (43) 
C=c1[nH]c(=O)n(Cc2ccccc2OC)c(=O)c1=Cc1ccc(O)c(O)c1

>  <score_type>  (43) 
oracle

>  <origin>  (43) 
adg

>  <m_score__min__energy>  (43) 
-13.300000000000001

>  <m_primary>  (43) 
energy

$$$$
43:0
     RDKit          3D

 75 78  0  0  0  0  0  0  0  0999 V2000
   56.7080   30.8530   42.6290 C   0  0  0  0  0  0  0  0  0  0  0  0
   57.7380   31.1650   43.7090 C   0  0  0  0  0  0  0  0  0  0  0  0
   58.2750   29.9220   44.2770 N   0  0  0  0  0  0  0  0  0  0  0  0
   57.5570   28.6510   44.1020 C   0  0  0  0  0  0  0  0  0  0  0  0
   56.5810   28.4360   45.2190 C   0  0  0  0  0  0  0  0  0  0  0  0
   55.5120   29.1020   45.2430 O   0  0  0  0  0  0  0  0  0  0  0  0
   56.9230   27.5610   46.3010 N   0  0  0  0  0  0  0  0  0  0  0  0
   58.2290   27.3680   46.8670 C   0  0  0  0  0  0  0  0  0  0  0  0
   59.1250   26.4050   46.3690 C   0  0  0  0  0  0  0  0  0  0  0  0
   60.3890   26.2530   46.9510 C   0  0  0  0  0  0  0  0  0  0  0  0
   60.7730   27.0670   48.0200 C   0  0  0  0  0  0  0  0  0  0  0  0
   59.9000   28.0510   48.5020 C   0  0  0  0  0  0  0  0  0  0  0  0
   60.3980   29.1120   49.8180 S   0  0  0  0  0  0  0  0  0  0  0  0
   61.5820   29.9230   49.3660 O   0  0  0  0  0  0  0  0  0  0  0  0
   59.2760   30.0560   50.1580 O   0  0  0  0  0  0  0  0  0  0  0  0
   60.8400   28.1610   51.2160 N   0  0  0  0  0  0  0  0  0  0  0  0
   62.1920   28.5460   51.6810 C   0  0  0  0  0  0  0  0  0  0  0  0
   62.8050   27.5120   52.6520 C   0  0  0  0  0  0  0  0  0  0  0  0
   61.7320   26.6080   53.2600 C   0  0  0  0  0  0  0  0  0  0  0  0
   60.9350   25.8800   52.1640 C   0  0  0  0  0  0  0  0  0  0  0  0
   60.7830   26.7260   50.8870 C   0  0  0  0  0  0  0  0  0  0  0  0
   58.6350   28.2060   47.9120 C   0  0  0  0  0  0  0  0  0  0  0  0
   59.4340   29.9790   45.1310 C   0  0  0  0  0  0  0  0  0  0  0  0
   60.3570   29.1340   44.9790 O   0  0  0  0  0  0  0  0  0  0  0  0
   59.5620   31.0150   46.1770 C   0  0  0  0  0  0  0  0  0  0  0  0
   58.4260   31.6630   46.6790 C   0  0  0  0  0  0  0  0  0  0  0  0
   58.5500   32.6540   47.6520 C   0  0  0  0  0  0  0  0  0  0  0  0
   59.8130   33.0200   48.1450 C   0  0  0  0  0  0  0  0  0  0  0  0
   59.8950   34.1000   49.1920 C   0  0  0  0  0  0  0  0  0  0  0  0
   60.9630   32.3360   47.6790 C   0  0  0  0  0  0  0  0  0  0  0  0
   62.5900   32.7380   48.2560 S   0  0  0  0  0  0  0  0  0  0  0  0
   63.5980   32.0230   47.3980 O   0  0  0  0  0  0  0  0  0  0  0  0
   62.8260   34.2170   48.1190 O   0  0  0  0  0  0  0  0  0  0  0  0
   62.7660   32.2310   49.9230 N   0  0  0  0  0  0  0  0  0  0  0  0
   62.5330   33.3300   50.8800 C   0  0  0  0  0  0  0  0  0  0  0  0
   63.7770   34.2110   51.0650 C   0  0  0  0  0  0  0  0  0  0  0  0
   64.8910   33.4300   51.4420 O   0  0  0  0  0  0  0  0  0  0  0  0
   65.2030   32.5230   50.4060 C   0  0  0  0  0  0  0  0  0  0  0  0
   64.0450   31.5410   50.1680 C   0  0  0  0  0  0  0  0  0  0  0  0
   60.8230   31.3450   46.6940 C   0  0  0  0  0  0  0  0  0  0  0  0
   55.7572   30.5650   43.1013 H   0  0  0  0  0  0  0  0  0  0  0  0
   56.5515   31.7440   42.0032 H   0  0  0  0  0  0  0  0  0  0  0  0
   57.0722   30.0249   42.0032 H   0  0  0  0  0  0  0  0  0  0  0  0
   58.5606   31.7474   43.2683 H   0  0  0  0  0  0  0  0  0  0  0  0
   57.2527   31.7431   44.5092 H   0  0  0  0  0  0  0  0  0  0  0  0
   57.0130   28.6722   43.1462 H   0  0  0  0  0  0  0  0  0  0  0  0
   58.2874   27.8285   44.1072 H   0  0  0  0  0  0  0  0  0  0  0  0
   58.8318   25.7698   45.5202 H   0  0  0  0  0  0  0  0  0  0  0  0
   61.0820   25.4906   46.5657 H   0  0  0  0  0  0  0  0  0  0  0  0
   61.7618   26.9350   48.4835 H   0  0  0  0  0  0  0  0  0  0  0  0
   62.8515   28.6411   50.8057 H   0  0  0  0  0  0  0  0  0  0  0  0
   62.0982   29.4977   52.2246 H   0  0  0  0  0  0  0  0  0  0  0  0
   63.5268   26.8899   52.1024 H   0  0  0  0  0  0  0  0  0  0  0  0
   63.2997   28.0575   53.4691 H   0  0  0  0  0  0  0  0  0  0  0  0
   62.2156   25.8622   53.9080 H   0  0  0  0  0  0  0  0  0  0  0  0
   61.0372   27.2324   53.8408 H   0  0  0  0  0  0  0  0  0  0  0  0
   61.4575   24.9463   51.9088 H   0  0  0  0  0  0  0  0  0  0  0  0
   59.9267   25.6838   52.5576 H   0  0  0  0  0  0  0  0  0  0  0  0
   61.5977   26.4807   50.1898 H   0  0  0  0  0  0  0  0  0  0  0  0
   59.8109   26.5031   50.4230 H   0  0  0  0  0  0  0  0  0  0  0  0
   57.9572   28.9930   48.2744 H   0  0  0  0  0  0  0  0  0  0  0  0
   57.4294   31.3882   46.3031 H   0  0  0  0  0  0  0  0  0  0  0  0
   57.6493   33.1542   48.0374 H   0  0  0  0  0  0  0  0  0  0  0  0
   59.8604   33.6441   50.1925 H   0  0  0  0  0  0  0  0  0  0  0  0
   60.8378   34.6542   49.0740 H   0  0  0  0  0  0  0  0  0  0  0  0
   59.0467   34.7902   49.0740 H   0  0  0  0  0  0  0  0  0  0  0  0
   61.7082   33.9553   50.5075 H   0  0  0  0  0  0  0  0  0  0  0  0
   62.2876   32.8830   51.8546 H   0  0  0  0  0  0  0  0  0  0  0  0
   63.9999   34.7242   50.1179 H   0  0  0  0  0  0  0  0  0  0  0  0
   63.5752   34.9450   51.8590 H   0  0  0  0  0  0  0  0  0  0  0  0
   65.3937   33.0857   49.4803 H   0  0  0  0  0  0  0  0  0  0  0  0
   66.0950   31.9495   50.6984 H   0  0  0  0  0  0  0  0  0  0  0  0
   64.2838   30.9182   49.2933 H   0  0  0  0  0  0  0  0  0  0  0  0
   63.9293   30.9317   51.0765 H   0  0  0  0  0  0  0  0  0  0  0  0
   61.7154   30.8200   46.3226 H   0  0  0  0  0  0  0  0  0  0  0  0
  1  2  1  0
  2  3  1  0
  3  4  1  0
  4  5  1  0
  5  6  2  0
  5  7  1  0
  7  8  1  0
  8  9  2  0
  9 10  1  0
 10 11  2  0
 11 12  1  0
 12 13  1  0
 13 14  2  0
 13 15  2  0
 13 16  1  0
 16 17  1  0
 17 18  1  0
 18 19  1  0
 19 20  1  0
 20 21  1  0
 12 22  2  0
  3 23  1  0
 23 24  2  0
 23 25  1  0
 25 26  2  0
 26 27  1  0
 27 28  2  0
 28 29  1  0
 28 30  1  0
 30 31  1  0
 31 32  2  0
 31 33  2  0
 31 34  1  0
 34 35  1  0
 35 36  1  0
 36 37  1  0
 37 38  1  0
 38 39  1  0
 30 40  2  0
 22  8  1  0
 40 25  1  0
 21 16  1  0
 39 34  1  0
  1 41  1  0
  1 42  1  0
  1 43  1  0
  2 44  1  0
  2 45  1  0
  4 46  1  0
  4 47  1  0
  9 48  1  0
 10 49  1  0
 11 50  1  0
 17 51  1  0
 17 52  1  0
 18 53  1  0
 18 54  1  0
 19 55  1  0
 19 56  1  0
 20 57  1  0
 20 58  1  0
 21 59  1  0
 21 60  1  0
 22 61  1  0
 26 62  1  0
 27 63  1  0
 29 64  1  0
 29 65  1  0
 29 66  1  0
 35 67  1  0
 35 68  1  0
 36 69  1  0
 36 70  1  0
 38 71  1  0
 38 72  1  0
 39 73  1  0
 39 74  1  0
 40 75  1  0
M  CHG  1   7  -1
M  END
>  <UniqueID>  (44) 
43

>  <SMILES>  (44) 
CCN(CC(=O)[N-]c1cccc(S(=O)(=O)N2CCCCC2)c1)C(=O)c1ccc(C)c(S(=O)(=O)N2CCOCC2)c1

>  <Energy>  (44) 
87.60169761763098

>  <Genealogy>  (44) 
CCN(CC(=O)[N-]c1cccc(S(=O)(=O)N2CCCCC2)c1)C(=O)c1ccc(C)c(S(=O)(=O)N2CCOCC2)c1 (protonated)
CCN(CC(=O)[N-]c1cccc(S(=O)(=O)N2CCCCC2)c1)C(=O)c1ccc(C)c(S(=O)(=O)N2CCOCC2)c1 (3D coordinates assigned)
CCN(CC(=O)[N-]c1cccc(S(=O)(=O)N2CCCCC2)c1)C(=O)c1ccc(C)c(S(=O)(=O)N2CCOCC2)c1 (nonaromatic ring conformer: 87.60169761763098 kcal/mol)

>  <smiles>  (44) 
CCN(CC(=O)Nc1cccc(S(=O)(=O)N2CCCCC2)c1)C(=O)c1ccc(C)c(S(=O)(=O)N2CCOCC2)c1

>  <score_type>  (44) 
oracle

>  <origin>  (44) 
adg

>  <m_score__min__energy>  (44) 
-13.279999999999999

>  <m_primary>  (44) 
energy

$$$$
44:0
     RDKit          3D

 52 54  0  0  0  0  0  0  0  0999 V2000
   57.4110   28.3610   43.3750 C   0  0  0  0  0  0  0  0  0  0  0  0
   56.7350   29.5630   43.8670 N   0  0  0  0  0  0  0  0  0  0  0  0
   55.2980   29.7260   43.6450 C   0  0  0  0  0  0  0  0  0  0  0  0
   57.4770   30.5320   44.6280 C   0  0  0  0  0  0  0  0  0  0  0  0
   57.6890   31.8140   44.0970 C   0  0  0  0  0  0  0  0  0  0  0  0
   58.3980   32.7740   44.8210 C   0  0  0  0  0  0  0  0  0  0  0  0
   58.9010   32.4670   46.0900 C   0  0  0  0  0  0  0  0  0  0  0  0
   59.7570   33.6790   47.0390 S   0  0  0  0  0  0  0  0  0  0  0  0
   58.9090   34.1260   48.1990 O   0  0  0  0  0  0  0  0  0  0  0  0
   60.0390   34.8670   46.1600 O   0  0  0  0  0  0  0  0  0  0  0  0
   61.2560   33.0020   47.6270 N   0  0  0  0  0  0  0  0  0  0  0  0
   61.4310   33.2640   49.0740 C   0  0  0  0  0  0  0  0  0  0  0  0
   62.4800   34.3590   49.3450 C   0  0  0  0  0  0  0  0  0  0  0  0
   63.7590   34.0520   48.8080 O   0  0  0  0  0  0  0  0  0  0  0  0
   63.7090   33.3430   47.5750 C   0  0  0  0  0  0  0  0  0  0  0  0
   62.3820   33.4960   46.8110 C   0  0  0  0  0  0  0  0  0  0  0  0
   58.7000   31.1890   46.6260 C   0  0  0  0  0  0  0  0  0  0  0  0
   58.0110   30.2060   45.8930 C   0  0  0  0  0  0  0  0  0  0  0  0
   57.8100   28.8850   46.4200 N   0  0  0  0  0  0  0  0  0  0  0  0
   58.8170   27.8970   46.6780 C   0  0  0  0  0  0  0  0  0  0  0  0
   59.9460   28.2340   47.1220 O   0  0  0  0  0  0  0  0  0  0  0  0
   58.5690   26.4790   46.3670 C   0  0  0  0  0  0  0  0  0  0  0  0
   57.7910   25.7030   47.1330 C   0  0  0  0  0  0  0  0  0  0  0  0
   56.5920   25.0070   46.6080 C   0  0  0  0  0  0  0  0  0  0  0  0
   55.5190   25.6990   46.0100 C   0  0  0  0  0  0  0  0  0  0  0  0
   55.5320   27.0870   45.9060 O   0  0  0  0  0  0  0  0  0  0  0  0
   54.4410   25.0080   45.5510 N   0  0  0  0  0  0  0  0  0  0  0  0
   54.3650   23.6600   45.6720 C   0  0  0  0  0  0  0  0  0  0  0  0
   53.3580   23.0450   45.2350 O   0  0  0  0  0  0  0  0  0  0  0  0
   55.3710   22.9730   46.2700 N   0  0  0  0  0  0  0  0  0  0  0  0
   56.4710   23.6120   46.7460 C   0  0  0  0  0  0  0  0  0  0  0  0
   57.3820   22.9380   47.3000 O   0  0  0  0  0  0  0  0  0  0  0  0
   57.7511   27.7562   44.2286 H   0  0  0  0  0  0  0  0  0  0  0  0
   56.7120   27.7716   42.7634 H   0  0  0  0  0  0  0  0  0  0  0  0
   58.2777   28.6521   42.7634 H   0  0  0  0  0  0  0  0  0  0  0  0
   54.7815   29.7846   44.6145 H   0  0  0  0  0  0  0  0  0  0  0  0
   55.1173   30.6504   43.0768 H   0  0  0  0  0  0  0  0  0  0  0  0
   54.9148   28.8656   43.0768 H   0  0  0  0  0  0  0  0  0  0  0  0
   57.2930   32.0643   43.1017 H   0  0  0  0  0  0  0  0  0  0  0  0
   58.5616   33.7740   44.3930 H   0  0  0  0  0  0  0  0  0  0  0  0
   60.4668   33.5853   49.4949 H   0  0  0  0  0  0  0  0  0  0  0  0
   61.7839   32.3347   49.5449 H   0  0  0  0  0  0  0  0  0  0  0  0
   62.1283   35.2994   48.8955 H   0  0  0  0  0  0  0  0  0  0  0  0
   62.5939   34.4407   50.4360 H   0  0  0  0  0  0  0  0  0  0  0  0
   64.5215   33.7122   46.9319 H   0  0  0  0  0  0  0  0  0  0  0  0
   63.8103   32.2756   47.8206 H   0  0  0  0  0  0  0  0  0  0  0  0
   62.2200   34.5583   46.5759 H   0  0  0  0  0  0  0  0  0  0  0  0
   62.4352   32.9063   45.8839 H   0  0  0  0  0  0  0  0  0  0  0  0
   59.0843   30.9518   47.6290 H   0  0  0  0  0  0  0  0  0  0  0  0
   59.0394   26.0416   45.4740 H   0  0  0  0  0  0  0  0  0  0  0  0
   58.0522   25.5771   48.1941 H   0  0  0  0  0  0  0  0  0  0  0  0
   56.2840   27.6320   46.3110 H   0  0  0  0  0  0  0  0  0  0  0  0
  1  2  1  0
  2  3  1  0
  2  4  1  0
  4  5  2  0
  5  6  1  0
  6  7  2  0
  7  8  1  0
  8  9  2  0
  8 10  2  0
  8 11  1  0
 11 12  1  0
 12 13  1  0
 13 14  1  0
 14 15  1  0
 15 16  1  0
  7 17  1  0
 17 18  2  0
 18 19  1  0
 19 20  1  0
 20 21  2  0
 20 22  1  0
 22 23  2  3
 23 24  1  0
 24 25  2  0
 25 26  1  0
 25 27  1  0
 27 28  1  0
 28 29  2  0
 28 30  1  0
 30 31  1  0
 31 32  2  0
 18  4  1  0
 31 24  1  0
 16 11  1  0
  1 33  1  0
  1 34  1  0
  1 35  1  0
  3 36  1  0
  3 37  1  0
  3 38  1  0
  5 39  1  0
  6 40  1  0
 12 41  1  0
 12 42  1  0
 13 43  1  0
 13 44  1  0
 15 45  1  0
 15 46  1  0
 16 47  1  0
 16 48  1  0
 17 49  1  0
 22 50  1  0
 23 51  1  0
 26 52  1  0
M  CHG  3  19  -1  27  -1  30  -1
M  END
>  <UniqueID>  (45) 
44

>  <SMILES>  (45) 
CN(C)c1ccc(S(=O)(=O)N2CCOCC2)cc1[N-]C(=O)C=Cc1c(O)[n-]c(=O)[n-]c1=O

>  <Energy>  (45) 
76.70648000074164

>  <Genealogy>  (45) 
CN(C)c1ccc(S(=O)(=O)N2CCOCC2)cc1[N-]C(=O)C=Cc1c(O)[n-]c(=O)[n-]c1=O (protonated)
CN(C)c1ccc(S(=O)(=O)N2CCOCC2)cc1[N-]C(=O)C=Cc1c(O)[n-]c(=O)[n-]c1=O (3D coordinates assigned)
CN(C)c1ccc(S(=O)(=O)N2CCOCC2)cc1[N-]C(=O)C=Cc1c(O)[n-]c(=O)[n-]c1=O (nonaromatic ring conformer: 76.70648000074164 kcal/mol)

>  <smiles>  (45) 
CN(C)c1ccc(S(=O)(=O)N2CCOCC2)cc1NC(=O)C=Cc1c(O)[nH]c(=O)[nH]c1=O

>  <score_type>  (45) 
oracle

>  <origin>  (45) 
adg

>  <m_score__min__energy>  (45) 
-15.09

>  <m_primary>  (45) 
energy

$$$$
45:0
     RDKit          3D

 33 34  0  0  0  0  0  0  0  0999 V2000
   54.9270   26.1810   45.9230 N   0  0  0  0  0  0  0  0  0  0  0  0
   56.6070   25.8030   46.0660 S   0  0  0  0  0  0  0  0  0  0  0  0
   56.9830   24.7770   45.0350 O   0  0  0  0  0  0  0  0  0  0  0  0
   56.8730   25.2370   47.4320 O   0  0  0  0  0  0  0  0  0  0  0  0
   57.5590   27.2630   45.8200 C   0  0  0  0  0  0  0  0  0  0  0  0
   58.9410   27.2600   46.0530 C   0  0  0  0  0  0  0  0  0  0  0  0
   59.6870   28.4270   45.8580 C   0  0  0  0  0  0  0  0  0  0  0  0
   59.0560   29.6040   45.4460 C   0  0  0  0  0  0  0  0  0  0  0  0
   57.6650   29.6240   45.2390 C   0  0  0  0  0  0  0  0  0  0  0  0
   56.9740   30.8050   44.8110 N   0  0  0  0  0  0  0  0  0  0  0  0
   57.1850   31.5340   43.5950 C   0  0  0  0  0  0  0  0  0  0  0  0
   56.9320   31.0140   42.4750 O   0  0  0  0  0  0  0  0  0  0  0  0
   57.8350   32.8810   43.6560 C   0  0  0  0  0  0  0  0  0  0  0  0
   57.3640   33.6710   44.8840 C   0  0  0  0  0  0  0  0  0  0  0  0
   58.4330   33.7880   45.8870 N   0  0  0  0  0  0  0  0  0  0  0  0
   58.6170   32.9350   46.9420 C   0  0  0  0  0  0  0  0  0  0  0  0
   57.7690   31.8650   47.2280 O   0  0  0  0  0  0  0  0  0  0  0  0
   59.7310   33.2050   47.7300 C   0  0  0  0  0  0  0  0  0  0  0  0
   60.5190   34.5460   47.0880 S   0  0  0  0  0  0  0  0  0  0  0  0
   59.4100   34.7270   45.8420 C   0  0  0  0  0  0  0  0  0  0  0  0
   59.4840   35.6240   44.9600 O   0  0  0  0  0  0  0  0  0  0  0  0
   56.9280   28.4450   45.4090 C   0  0  0  0  0  0  0  0  0  0  0  0
   54.7680   27.0680   46.4530 H   0  0  0  0  0  0  0  0  0  0  0  0
   59.4395   26.3390   46.3896 H   0  0  0  0  0  0  0  0  0  0  0  0
   60.7735   28.4184   46.0294 H   0  0  0  0  0  0  0  0  0  0  0  0
   59.6484   30.5165   45.2833 H   0  0  0  0  0  0  0  0  0  0  0  0
   58.9259   32.7505   43.7104 H   0  0  0  0  0  0  0  0  0  0  0  0
   57.5554   33.4431   42.7528 H   0  0  0  0  0  0  0  0  0  0  0  0
   57.0591   34.6790   44.5662 H   0  0  0  0  0  0  0  0  0  0  0  0
   56.5187   33.1338   45.3389 H   0  0  0  0  0  0  0  0  0  0  0  0
   57.0630   31.5410   46.5810 H   0  0  0  0  0  0  0  0  0  0  0  0
   60.0432   32.6390   48.6201 H   0  0  0  0  0  0  0  0  0  0  0  0
   55.8447   28.4469   45.2183 H   0  0  0  0  0  0  0  0  0  0  0  0
  1  2  1  0
  2  3  2  0
  2  4  2  0
  2  5  1  0
  5  6  2  0
  6  7  1  0
  7  8  2  0
  8  9  1  0
  9 10  1  0
 10 11  1  0
 11 12  2  0
 11 13  1  0
 13 14  1  0
 14 15  1  0
 15 16  1  0
 16 17  1  0
 16 18  2  0
 18 19  1  0
 19 20  1  0
 20 21  2  0
  9 22  2  0
 22  5  1  0
 20 15  1  0
  1 23  1  0
  6 24  1  0
  7 25  1  0
  8 26  1  0
 13 27  1  0
 13 28  1  0
 14 29  1  0
 14 30  1  0
 17 31  1  0
 18 32  1  0
 22 33  1  0
M  CHG  2   1  -1  10  -1
M  END
>  <UniqueID>  (46) 
45

>  <SMILES>  (46) 
[NH-]S(=O)(=O)c1cccc([N-]C(=O)CCn2c(O)csc2=O)c1

>  <Energy>  (46) 
63.154357417992884

>  <Genealogy>  (46) 
[NH-]S(=O)(=O)c1cccc([N-]C(=O)CCn2c(O)csc2=O)c1 (protonated)
[NH-]S(=O)(=O)c1cccc([N-]C(=O)CCn2c(O)csc2=O)c1 (3D coordinates assigned)
[NH-]S(=O)(=O)c1cccc([N-]C(=O)CCn2c(O)csc2=O)c1 (optimized conformer: 63.154357417992884 kcal/mol)

>  <smiles>  (46) 
NS(=O)(=O)c1cccc(NC(=O)CCn2c(O)csc2=O)c1

>  <score_type>  (46) 
oracle

>  <origin>  (46) 
adg

>  <m_score__min__energy>  (46) 
-11.74

>  <m_primary>  (46) 
energy

$$$$
46:0
     RDKit          3D

 53 55  0  0  0  0  0  0  0  0999 V2000
   60.1645   28.4811   49.4187 H   0  0  0  0  0  0  0  0  0  0  0  0
   59.7000   29.4320   49.7190 C   0  0  0  0  0  0  0  0  0  0  0  0
   58.4960   29.4300   50.3470 N   0  0  0  0  0  0  0  0  0  0  0  0
   57.8770   30.5820   50.7290 C   0  0  0  0  0  0  0  0  0  0  0  0
   56.7210   30.5690   51.3310 N   0  0  0  0  0  0  0  0  0  0  0  0
   56.4480   30.4930   52.7420 C   0  0  0  0  0  0  0  0  0  0  0  0
   56.6920   31.5030   53.4540 O   0  0  0  0  0  0  0  0  0  0  0  0
   55.8280   29.2870   53.3980 C   0  0  0  0  0  0  0  0  0  0  0  0
   55.6950   28.4956   52.6456 H   0  0  0  0  0  0  0  0  0  0  0  0
   56.4937   28.9421   54.2029 H   0  0  0  0  0  0  0  0  0  0  0  0
   54.5310   29.6210   53.9750 N   0  0  0  0  0  0  0  0  0  0  0  0
   53.2810   29.4060   53.3090 C   0  0  0  0  0  0  0  0  0  0  0  0
   52.9220   28.2330   53.0160 O   0  0  0  0  0  0  0  0  0  0  0  0
   52.3990   30.5630   53.0160 C   0  0  0  0  0  0  0  0  0  0  0  0
   51.7220   31.1680   54.0900 C   0  0  0  0  0  0  0  0  0  0  0  0
   51.8891   30.8008   55.1133 H   0  0  0  0  0  0  0  0  0  0  0  0
   50.8420   32.2270   53.8740 C   0  0  0  0  0  0  0  0  0  0  0  0
   50.3224   32.6910   54.7253 H   0  0  0  0  0  0  0  0  0  0  0  0
   50.6190   32.6990   52.5830 C   0  0  0  0  0  0  0  0  0  0  0  0
   49.9138   33.5266   52.4165 H   0  0  0  0  0  0  0  0  0  0  0  0
   51.2870   32.1260   51.4990 C   0  0  0  0  0  0  0  0  0  0  0  0
   51.0350   32.6190   50.2230 O   0  0  0  0  0  0  0  0  0  0  0  0
   52.2020   31.0670   51.6990 C   0  0  0  0  0  0  0  0  0  0  0  0
   52.9430   30.4930   50.5160 C   0  0  0  0  0  0  0  0  0  0  0  0
   53.7656   29.8558   50.8727 H   0  0  0  0  0  0  0  0  0  0  0  0
   52.2517   29.8924   49.9066 H   0  0  0  0  0  0  0  0  0  0  0  0
   53.3517   31.3125   49.9066 H   0  0  0  0  0  0  0  0  0  0  0  0
   58.5060   31.8100   50.4920 C   0  0  0  0  0  0  0  0  0  0  0  0
   58.0211   32.7467   50.8043 H   0  0  0  0  0  0  0  0  0  0  0  0
   59.7550   31.8440   49.8560 C   0  0  0  0  0  0  0  0  0  0  0  0
   60.4350   33.1560   49.5800 C   0  0  0  0  0  0  0  0  0  0  0  0
   61.4345   32.9592   49.1649 H   0  0  0  0  0  0  0  0  0  0  0  0
   60.5040   33.7124   50.5264 H   0  0  0  0  0  0  0  0  0  0  0  0
   59.4860   34.1730   48.3870 S   0  0  0  0  0  0  0  0  0  0  0  0
   60.1910   33.4610   46.8490 C   0  0  0  0  0  0  0  0  0  0  0  0
   61.0735   32.8607   47.1151 H   0  0  0  0  0  0  0  0  0  0  0  0
   60.4451   34.3026   46.1879 H   0  0  0  0  0  0  0  0  0  0  0  0
   59.2170   32.5760   46.0940 C   0  0  0  0  0  0  0  0  0  0  0  0
   59.1670   31.1990   46.3870 C   0  0  0  0  0  0  0  0  0  0  0  0
   59.8342   30.7830   47.1563 H   0  0  0  0  0  0  0  0  0  0  0  0
   58.2820   30.3560   45.7140 C   0  0  0  0  0  0  0  0  0  0  0  0
   58.2697   29.2796   45.9403 H   0  0  0  0  0  0  0  0  0  0  0  0
   57.4140   30.8750   44.7560 C   0  0  0  0  0  0  0  0  0  0  0  0
   56.7315   30.2054   44.2122 H   0  0  0  0  0  0  0  0  0  0  0  0
   57.4100   32.2440   44.4860 C   0  0  0  0  0  0  0  0  0  0  0  0
   56.7139   32.6492   43.7368 H   0  0  0  0  0  0  0  0  0  0  0  0
   58.2870   33.1110   45.1620 C   0  0  0  0  0  0  0  0  0  0  0  0
   58.1950   34.5910   44.8860 C   0  0  0  0  0  0  0  0  0  0  0  0
   58.1609   35.1402   45.8385 H   0  0  0  0  0  0  0  0  0  0  0  0
   59.0749   34.9118   44.3091 H   0  0  0  0  0  0  0  0  0  0  0  0
   57.2821   34.8004   44.3091 H   0  0  0  0  0  0  0  0  0  0  0  0
   60.3490   30.6390   49.4540 C   0  0  0  0  0  0  0  0  0  0  0  0
   61.3184   30.6449   48.9341 H   0  0  0  0  0  0  0  0  0  0  0  0
  1  2  1  0
  2  3  1  0
  3  4  1  0
  4  5  2  0
  5  6  1  0
  6  7  2  0
  6  8  1  0
  8  9  1  0
  8 10  1  0
  8 11  1  0
 11 12  1  0
 12 13  2  0
 12 14  1  0
 14 15  2  0
 15 16  1  0
 15 17  1  0
 17 18  1  0
 17 19  2  0
 19 20  1  0
 19 21  1  0
 21 22  1  0
 21 23  2  0
 23 24  1  0
 24 25  1  0
 24 26  1  0
 24 27  1  0
  4 28  1  0
 28 29  1  0
 28 30  2  0
 30 31  1  0
 31 32  1  0
 31 33  1  0
 31 34  1  0
 34 35  1  0
 35 36  1  0
 35 37  1  0
 35 38  1  0
 38 39  2  0
 39 40  1  0
 39 41  1  0
 41 42  1  0
 41 43  2  0
 43 44  1  0
 43 45  1  0
 45 46  1  0
 45 47  2  0
 47 48  1  0
 48 49  1  0
 48 50  1  0
 48 51  1  0
 30 52  1  0
 52 53  1  0
 52  2  2  0
 23 14  1  0
 47 38  1  0
M  CHG  3   3  -1  11  -1  22  -1
M  END
>  <UniqueID>  (47) 
46

>  <SMILES>  (47) 
Cc1ccccc1CSCc1cc[n-]/c(=N\C(=O)C[N-]C(=O)c2cccc([O-])c2C)c1

>  <Energy>  (47) 
61.58222763660393

>  <Genealogy>  (47) 
Cc1ccccc1CSCc1cc[n-]c(=NC(=O)C[N-]C(=O)c2cccc([O-])c2C)c1 (protonated)
Cc1ccccc1CSCc1cc[n-]/c(=N\C(=O)C[N-]C(=O)c2cccc([O-])c2C)c1 (cis-trans isomerization)
Cc1ccccc1CSCc1cc[n-]/c(=N\C(=O)C[N-]C(=O)c2cccc([O-])c2C)c1 (3D coordinates assigned)
Cc1ccccc1CSCc1cc[n-]/c(=N\C(=O)C[N-]C(=O)c2cccc([O-])c2C)c1 (optimized conformer: 61.58222763660393 kcal/mol)

>  <smiles>  (47) 
Cc1ccccc1CSCc1cc[nH]c(=NC(=O)CNC(=O)c2cccc(O)c2C)c1

>  <score_type>  (47) 
oracle

>  <origin>  (47) 
adg

>  <m_score__min__energy>  (47) 
-14.74

>  <m_primary>  (47) 
energy

$$$$
47:0
     RDKit          3D

 49 52  0  0  0  0  0  0  0  0999 V2000
   59.8895   26.4656   47.9986 H   0  0  0  0  0  0  0  0  0  0  0  0
   59.3270   26.1460   47.1090 C   0  0  0  0  0  0  0  0  0  0  0  0
   59.3611   25.0954   46.7848 H   0  0  0  0  0  0  0  0  0  0  0  0
   58.5990   27.0380   46.4190 C   0  0  0  0  0  0  0  0  0  0  0  0
   57.8260   26.8010   45.2680 C   0  0  0  0  0  0  0  0  0  0  0  0
   57.4750   25.6540   44.6540 C   0  0  0  0  0  0  0  0  0  0  0  0
   58.1425   25.2850   43.8614 H   0  0  0  0  0  0  0  0  0  0  0  0
   56.2740   24.8490   44.9510 C   0  0  0  0  0  0  0  0  0  0  0  0
   55.1590   25.4130   45.5960 C   0  0  0  0  0  0  0  0  0  0  0  0
   55.1690   26.7430   46.0010 O   0  0  0  0  0  0  0  0  0  0  0  0
   54.0550   24.6550   45.8230 N   0  0  0  0  0  0  0  0  0  0  0  0
   53.9970   23.3600   45.4200 C   0  0  0  0  0  0  0  0  0  0  0  0
   52.9650   22.6770   45.6430 O   0  0  0  0  0  0  0  0  0  0  0  0
   55.0500   22.8040   44.7670 N   0  0  0  0  0  0  0  0  0  0  0  0
   56.1780   23.5180   44.5160 C   0  0  0  0  0  0  0  0  0  0  0  0
   57.1330   22.9730   43.8990 O   0  0  0  0  0  0  0  0  0  0  0  0
   57.4250   28.0450   44.8090 C   0  0  0  0  0  0  0  0  0  0  0  0
   56.8361   28.2502   43.9028 H   0  0  0  0  0  0  0  0  0  0  0  0
   57.9050   28.9770   45.7050 C   0  0  0  0  0  0  0  0  0  0  0  0
   57.6910   30.4560   45.5900 C   0  0  0  0  0  0  0  0  0  0  0  0
   57.6273   30.8966   46.5959 H   0  0  0  0  0  0  0  0  0  0  0  0
   58.5332   30.9071   45.0448 H   0  0  0  0  0  0  0  0  0  0  0  0
   56.7555   30.6498   45.0448 H   0  0  0  0  0  0  0  0  0  0  0  0
   58.6150   28.3690   46.6800 N   0  0  0  0  0  0  0  0  0  0  0  0
   59.2820   29.0340   47.7680 C   0  0  0  0  0  0  0  0  0  0  0  0
   58.7680   28.9440   49.0690 C   0  0  0  0  0  0  0  0  0  0  0  0
   57.8535   28.3626   49.2581 H   0  0  0  0  0  0  0  0  0  0  0  0
   59.4130   29.5900   50.1260 C   0  0  0  0  0  0  0  0  0  0  0  0
   59.0056   29.5155   51.1451 H   0  0  0  0  0  0  0  0  0  0  0  0
   60.5750   30.3310   49.8920 C   0  0  0  0  0  0  0  0  0  0  0  0
   61.0781   30.8405   50.7271 H   0  0  0  0  0  0  0  0  0  0  0  0
   61.1030   30.4270   48.5910 C   0  0  0  0  0  0  0  0  0  0  0  0
   62.3010   31.1620   48.3060 N   0  0  0  0  0  0  0  0  0  0  0  0
   62.3590   32.8240   47.8120 S   0  0  0  0  0  0  0  0  0  0  0  0
   62.5880   33.6890   49.0180 O   0  0  0  0  0  0  0  0  0  0  0  0
   63.4990   33.0090   46.8490 O   0  0  0  0  0  0  0  0  0  0  0  0
   60.8310   33.2810   47.0650 C   0  0  0  0  0  0  0  0  0  0  0  0
   60.8220   33.8660   45.7920 C   0  0  0  0  0  0  0  0  0  0  0  0
   61.7690   34.0281   45.2563 H   0  0  0  0  0  0  0  0  0  0  0  0
   59.6140   34.2440   45.2010 C   0  0  0  0  0  0  0  0  0  0  0  0
   59.6119   34.7066   44.2030 H   0  0  0  0  0  0  0  0  0  0  0  0
   58.4060   34.0350   45.8770 C   0  0  0  0  0  0  0  0  0  0  0  0
   56.8900   34.5060   45.1340 Cl  0  0  0  0  0  0  0  0  0  0  0  0
   58.4110   33.4440   47.1460 C   0  0  0  0  0  0  0  0  0  0  0  0
   57.4628   33.2768   47.6780 H   0  0  0  0  0  0  0  0  0  0  0  0
   59.6200   33.0660   47.7380 C   0  0  0  0  0  0  0  0  0  0  0  0
   59.6210   32.5989   48.7339 H   0  0  0  0  0  0  0  0  0  0  0  0
   60.4490   29.7800   47.5360 C   0  0  0  0  0  0  0  0  0  0  0  0
   60.8529   29.8566   46.5157 H   0  0  0  0  0  0  0  0  0  0  0  0
  1  2  1  0
  2  3  1  0
  2  4  2  0
  4  5  1  0
  5  6  2  0
  6  7  1  0
  6  8  1  0
  8  9  2  0
  9 10  1  0
  9 11  1  0
 11 12  1  0
 12 13  2  0
 12 14  1  0
 14 15  1  0
 15 16  2  0
  5 17  1  0
 17 18  1  0
 17 19  2  0
 19 20  1  0
 20 21  1  0
 20 22  1  0
 20 23  1  0
 19 24  1  0
 24 25  1  0
 25 26  2  0
 26 27  1  0
 26 28  1  0
 28 29  1  0
 28 30  2  0
 30 31  1  0
 30 32  1  0
 32 33  1  0
 33 34  1  0
 34 35  2  0
 34 36  2  0
 34 37  1  0
 37 38  2  0
 38 39  1  0
 38 40  1  0
 40 41  1  0
 40 42  2  0
 42 43  1  0
 42 44  1  0
 44 45  1  0
 44 46  2  0
 46 47  1  0
 32 48  2  0
 48 49  1  0
 24  4  1  0
 48 25  1  0
 15  8  1  0
 46 37  1  0
M  CHG  4  10  -1  11  -1  14  -1  33  -1
M  END
>  <UniqueID>  (48) 
47

>  <SMILES>  (48) 
C=c1/c(=C\c2c([O-])[n-]c(=O)[n-]c2=O)cc(C)n1-c1cccc([N-]S(=O)(=O)c2ccc(Cl)cc2)c1

>  <Energy>  (48) 
105.66410691103732

>  <Genealogy>  (48) 
C=c1c(=Cc2c([O-])[n-]c(=O)[n-]c2=O)cc(C)n1-c1cccc([N-]S(=O)(=O)c2ccc(Cl)cc2)c1 (protonated)
C=c1/c(=C\c2c([O-])[n-]c(=O)[n-]c2=O)cc(C)n1-c1cccc([N-]S(=O)(=O)c2ccc(Cl)cc2)c1 (cis-trans isomerization)
C=c1/c(=C\c2c([O-])[n-]c(=O)[n-]c2=O)cc(C)n1-c1cccc([N-]S(=O)(=O)c2ccc(Cl)cc2)c1 (3D coordinates assigned)
C=c1/c(=C\c2c([O-])[n-]c(=O)[n-]c2=O)cc(C)n1-c1cccc([N-]S(=O)(=O)c2ccc(Cl)cc2)c1 (optimized conformer: 105.66410691103732 kcal/mol)

>  <smiles>  (48) 
C=c1c(=Cc2c(O)[nH]c(=O)[nH]c2=O)cc(C)n1-c1cccc(NS(=O)(=O)c2ccc(Cl)cc2)c1

>  <score_type>  (48) 
oracle

>  <origin>  (48) 
adg

>  <m_score__min__energy>  (48) 
-18.260000000000002

>  <m_primary>  (48) 
energy

$$$$
48:0
     RDKit          3D

 55 57  0  0  0  0  0  0  0  0999 V2000
   53.5660   22.7980   46.7990 C   0  0  0  0  0  0  0  0  0  0  0  0
   54.0770   23.5840   45.7250 O   0  0  0  0  0  0  0  0  0  0  0  0
   55.3540   24.1630   45.7050 C   0  0  0  0  0  0  0  0  0  0  0  0
   56.5250   23.3970   45.5600 C   0  0  0  0  0  0  0  0  0  0  0  0
   57.7790   24.0100   45.5430 C   0  0  0  0  0  0  0  0  0  0  0  0
   57.8950   25.4080   45.6950 C   0  0  0  0  0  0  0  0  0  0  0  0
   59.2350   26.1450   45.7490 C   0  0  2  0  0  0  0  0  0  0  0  0
   59.9090   25.9740   47.1380 C   0  0  0  0  0  0  0  0  0  0  0  0
   60.5080   27.2810   47.6600 C   0  0  0  0  0  0  0  0  0  0  0  0
   59.4550   28.3120   47.7330 N   0  0  1  0  0  0  0  0  0  0  0  0
   59.9960   29.5010   48.3680 C   0  0  0  0  0  0  0  0  0  0  0  0
   60.5970   29.4060   49.4760 O   0  0  0  0  0  0  0  0  0  0  0  0
   59.8230   30.8460   47.7680 C   0  0  0  0  0  0  0  0  0  0  0  0
   60.8390   31.3800   46.9610 C   0  0  0  0  0  0  0  0  0  0  0  0
   60.7220   32.6680   46.4320 C   0  0  0  0  0  0  0  0  0  0  0  0
   59.6010   33.4590   46.7260 C   0  0  0  0  0  0  0  0  0  0  0  0
   59.5240   34.8400   46.2020 C   0  0  0  0  0  0  0  0  0  0  0  0
   59.9160   35.7960   46.9250 O   0  0  0  0  0  0  0  0  0  0  0  0
   58.8700   35.1470   44.8840 C   0  0  0  0  0  0  0  0  0  0  0  0
   57.1260   34.5930   44.9320 S   0  0  0  0  0  0  0  0  0  0  0  0
   57.4650   32.9010   44.4170 C   0  0  0  0  0  0  0  0  0  0  0  0
   58.1710   32.6290   43.1260 C   0  0  0  0  0  0  0  0  0  0  0  0
   57.1480   31.9750   45.1440 O   0  0  0  0  0  0  0  0  0  0  0  0
   58.5750   32.9210   47.5200 C   0  0  0  0  0  0  0  0  0  0  0  0
   58.6870   31.6280   48.0430 C   0  0  0  0  0  0  0  0  0  0  0  0
   58.8500   28.6340   46.4020 C   0  0  0  0  0  0  0  0  0  0  0  0
   59.2050   27.6250   45.2820 C   0  0  0  0  0  0  0  0  0  0  0  0
   56.7150   26.1660   45.8270 C   0  0  0  0  0  0  0  0  0  0  0  0
   55.4620   25.5520   45.8390 C   0  0  0  0  0  0  0  0  0  0  0  0
   54.3190   26.3290   45.9860 O   0  0  0  0  0  0  0  0  0  0  0  0
   53.8604   23.2509   47.7572 H   0  0  0  0  0  0  0  0  0  0  0  0
   52.4686   22.7579   46.7342 H   0  0  0  0  0  0  0  0  0  0  0  0
   53.9746   21.7788   46.7342 H   0  0  0  0  0  0  0  0  0  0  0  0
   56.4517   22.3041   45.4590 H   0  0  0  0  0  0  0  0  0  0  0  0
   58.6837   23.3985   45.4101 H   0  0  0  0  0  0  0  0  0  0  0  0
   59.8617   25.6533   44.9905 H   0  0  0  0  0  0  0  0  0  0  0  0
   59.1544   25.6197   47.8557 H   0  0  0  0  0  0  0  0  0  0  0  0
   60.7296   25.2501   47.0259 H   0  0  0  0  0  0  0  0  0  0  0  0
   60.9295   27.1162   48.6626 H   0  0  0  0  0  0  0  0  0  0  0  0
   61.3028   27.6174   46.9780 H   0  0  0  0  0  0  0  0  0  0  0  0
   58.6820   27.9350   48.3350 H   0  0  0  0  0  0  0  0  0  0  0  0
   61.7348   30.7799   46.7430 H   0  0  0  0  0  0  0  0  0  0  0  0
   61.5145   33.0647   45.7804 H   0  0  0  0  0  0  0  0  0  0  0  0
   58.9065   36.2307   44.6990 H   0  0  0  0  0  0  0  0  0  0  0  0
   59.4019   34.6218   44.0770 H   0  0  0  0  0  0  0  0  0  0  0  0
   59.1789   32.2407   43.3340 H   0  0  0  0  0  0  0  0  0  0  0  0
   57.6036   31.8851   42.5475 H   0  0  0  0  0  0  0  0  0  0  0  0
   58.2494   33.5613   42.5475 H   0  0  0  0  0  0  0  0  0  0  0  0
   57.6773   33.5202   47.7322 H   0  0  0  0  0  0  0  0  0  0  0  0
   57.8821   31.2210   48.6727 H   0  0  0  0  0  0  0  0  0  0  0  0
   57.7560   28.6522   46.5157 H   0  0  0  0  0  0  0  0  0  0  0  0
   59.2630   29.6059   46.0941 H   0  0  0  0  0  0  0  0  0  0  0  0
   58.4563   27.7197   44.4817 H   0  0  0  0  0  0  0  0  0  0  0  0
   60.2221   27.8716   44.9434 H   0  0  0  0  0  0  0  0  0  0  0  0
   56.7824   27.2598   45.9222 H   0  0  0  0  0  0  0  0  0  0  0  0
  1  2  1  0
  2  3  1  0
  3  4  2  0
  4  5  1  0
  5  6  2  0
  6  7  1  0
  7  8  1  0
  8  9  1  0
  9 10  1  0
 10 11  1  0
 11 12  2  0
 11 13  1  0
 13 14  2  0
 14 15  1  0
 15 16  2  0
 16 17  1  0
 17 18  2  0
 17 19  1  0
 19 20  1  0
 20 21  1  0
 21 22  1  0
 21 23  2  0
 16 24  1  0
 24 25  2  0
 10 26  1  0
 26 27  1  0
  6 28  1  0
 28 29  2  0
 29 30  1  0
 29  3  1  0
 27  7  1  0
 25 13  1  0
  1 31  1  0
  1 32  1  0
  1 33  1  0
  4 34  1  0
  5 35  1  0
  7 36  1  6
  8 37  1  0
  8 38  1  0
  9 39  1  0
  9 40  1  0
 10 41  1  1
 14 42  1  0
 15 43  1  0
 19 44  1  0
 19 45  1  0
 22 46  1  0
 22 47  1  0
 22 48  1  0
 24 49  1  0
 25 50  1  0
 26 51  1  0
 26 52  1  0
 27 53  1  0
 27 54  1  0
 28 55  1  0
M  CHG  2  10   1  30  -1
M  END
>  <UniqueID>  (49) 
48

>  <SMILES>  (49) 
COc1ccc(C2CC[NH+](C(=O)c3ccc(C(=O)CSC(C)=O)cc3)CC2)cc1[O-]

>  <Energy>  (49) 
73.74554691618945

>  <Genealogy>  (49) 
COc1ccc(C2CC[NH+](C(=O)c3ccc(C(=O)CSC(C)=O)cc3)CC2)cc1[O-] (protonated)
COc1ccc(C2CC[NH+](C(=O)c3ccc(C(=O)CSC(C)=O)cc3)CC2)cc1[O-] (3D coordinates assigned)
COc1ccc(C2CC[NH+](C(=O)c3ccc(C(=O)CSC(C)=O)cc3)CC2)cc1[O-] (nonaromatic ring conformer: 73.74554691618945 kcal/mol)

>  <smiles>  (49) 
COc1ccc(C2CCN(C(=O)c3ccc(C(=O)CSC(C)=O)cc3)CC2)cc1O

>  <score_type>  (49) 
oracle

>  <origin>  (49) 
adg

>  <m_score__min__energy>  (49) 
-10.93

>  <m_primary>  (49) 
energy

$$$$
49:0
     RDKit          3D

 56 58  0  0  0  0  0  0  0  0999 V2000
   54.7690   27.0910   45.0000 H   0  0  0  0  0  0  0  0  0  0  0  0
   55.0780   26.6040   45.8340 O   0  0  0  0  0  0  0  0  0  0  0  0
   56.4280   26.4100   46.1280 C   0  0  0  0  0  0  0  0  0  0  0  0
   56.7800   25.5450   47.1690 C   0  0  0  0  0  0  0  0  0  0  0  0
   55.9962   25.0278   47.7419 H   0  0  0  0  0  0  0  0  0  0  0  0
   58.1230   25.3370   47.4820 C   0  0  0  0  0  0  0  0  0  0  0  0
   58.4042   24.6547   48.2977 H   0  0  0  0  0  0  0  0  0  0  0  0
   59.1060   26.0030   46.7500 C   0  0  0  0  0  0  0  0  0  0  0  0
   60.1686   25.8498   46.9896 H   0  0  0  0  0  0  0  0  0  0  0  0
   58.7510   26.8410   45.7410 N   0  0  0  0  0  0  0  0  0  0  0  0
   57.4460   27.0570   45.4010 C   0  0  0  0  0  0  0  0  0  0  0  0
   57.1360   27.8750   44.4350 N   0  0  0  0  0  0  0  0  0  0  0  0
   56.4410   29.1250   44.5730 C   0  0  0  0  0  0  0  0  0  0  0  0
   55.3740   29.1470   45.2410 O   0  0  0  0  0  0  0  0  0  0  0  0
   56.9020   30.3640   43.9020 C   0  0  0  0  0  0  0  0  0  0  0  0
   56.8780   30.4580   42.5000 C   0  0  0  0  0  0  0  0  0  0  0  0
   56.5075   29.6127   41.9015 H   0  0  0  0  0  0  0  0  0  0  0  0
   57.3220   31.6190   41.8620 C   0  0  0  0  0  0  0  0  0  0  0  0
   57.2911   31.6874   40.7646 H   0  0  0  0  0  0  0  0  0  0  0  0
   57.8050   32.6930   42.6130 C   0  0  0  0  0  0  0  0  0  0  0  0
   58.1433   33.6093   42.1071 H   0  0  0  0  0  0  0  0  0  0  0  0
   57.8590   32.6040   44.0110 C   0  0  0  0  0  0  0  0  0  0  0  0
   58.5060   33.9280   44.9760 S   0  0  0  0  0  0  0  0  0  0  0  0
   59.9260   34.2250   44.5810 O   0  0  0  0  0  0  0  0  0  0  0  0
   57.6830   35.1500   44.6830 O   0  0  0  0  0  0  0  0  0  0  0  0
   58.4190   33.6110   46.6940 N   0  0  0  0  0  0  0  0  0  0  0  0
   59.5300   32.8560   47.3080 C   0  0  0  0  0  0  0  0  0  0  0  0
   59.3891   32.9969   48.3898 H   0  0  0  0  0  0  0  0  0  0  0  0
   59.4520   31.3610   46.9830 C   0  0  0  0  0  0  0  0  0  0  0  0
   59.5622   31.2307   45.8963 H   0  0  0  0  0  0  0  0  0  0  0  0
   58.4785   30.9934   47.3397 H   0  0  0  0  0  0  0  0  0  0  0  0
   60.5560   30.5350   47.6970 C   0  0  0  0  0  0  0  0  0  0  0  0
   60.5740   29.1220   47.0590 C   0  0  0  0  0  0  0  0  0  0  0  0
   60.5837   28.3611   47.8533 H   0  0  0  0  0  0  0  0  0  0  0  0
   59.6775   28.9898   46.4355 H   0  0  0  0  0  0  0  0  0  0  0  0
   61.4736   29.0126   46.4355 H   0  0  0  0  0  0  0  0  0  0  0  0
   60.2370   30.3300   49.1970 C   0  0  0  0  0  0  0  0  0  0  0  0
   61.0073   30.8250   49.8067 H   0  0  0  0  0  0  0  0  0  0  0  0
   59.2529   30.7652   49.4254 H   0  0  0  0  0  0  0  0  0  0  0  0
   60.2240   29.2541   49.4254 H   0  0  0  0  0  0  0  0  0  0  0  0
   61.9050   31.1420   47.5160 N   0  0  0  0  0  0  0  0  0  0  0  0
   62.2230   30.9220   46.5400 H   0  0  0  0  0  0  0  0  0  0  0  0
   62.0530   32.6110   47.7160 C   0  0  0  0  0  0  0  0  0  0  0  0
   63.4080   33.0450   47.1030 C   0  0  0  0  0  0  0  0  0  0  0  0
   64.1195   33.2729   47.9104 H   0  0  0  0  0  0  0  0  0  0  0  0
   63.8073   32.2298   46.4817 H   0  0  0  0  0  0  0  0  0  0  0  0
   63.2593   33.9405   46.4817 H   0  0  0  0  0  0  0  0  0  0  0  0
   62.1260   32.9620   49.2220 C   0  0  0  0  0  0  0  0  0  0  0  0
   61.9379   32.0574   49.8189 H   0  0  0  0  0  0  0  0  0  0  0  0
   63.1253   33.3561   49.4586 H   0  0  0  0  0  0  0  0  0  0  0  0
   61.3667   33.7219   49.4586 H   0  0  0  0  0  0  0  0  0  0  0  0
   60.9300   33.4030   46.9930 C   0  0  0  0  0  0  0  0  0  0  0  0
   61.0971   33.3412   45.9075 H   0  0  0  0  0  0  0  0  0  0  0  0
   60.9711   34.4429   47.3493 H   0  0  0  0  0  0  0  0  0  0  0  0
   57.4080   31.4420   44.6500 C   0  0  0  0  0  0  0  0  0  0  0  0
   57.4500   31.3720   45.7470 H   0  0  0  0  0  0  0  0  0  0  0  0
  1  2  1  0
  2  3  1  0
  3  4  2  0
  4  5  1  0
  4  6  1  0
  6  7  1  0
  6  8  2  0
  8  9  1  0
  8 10  1  0
 10 11  1  0
 11 12  2  0
 12 13  1  0
 13 14  2  0
 13 15  1  0
 15 16  2  0
 16 17  1  0
 16 18  1  0
 18 19  1  0
 18 20  2  0
 20 21  1  0
 20 22  1  0
 22 23  1  0
 23 24  2  0
 23 25  2  0
 23 26  1  0
 26 27  1  0
 27 28  1  0
 27 29  1  0
 29 30  1  0
 29 31  1  0
 29 32  1  0
 32 33  1  0
 33 34  1  0
 33 35  1  0
 33 36  1  0
 32 37  1  0
 37 38  1  0
 37 39  1  0
 37 40  1  0
 32 41  1  0
 41 42  1  0
 41 43  1  0
 43 44  1  0
 44 45  1  0
 44 46  1  0
 44 47  1  0
 43 48  1  0
 48 49  1  0
 48 50  1  0
 48 51  1  0
 43 52  1  0
 52 53  1  0
 52 54  1  0
 22 55  2  0
 55 56  1  0
 11  3  1  0
 55 15  1  0
 52 27  1  0
M  CHG  2  10  -1  26  -1
M  END
>  <UniqueID>  (50) 
49

>  <SMILES>  (50) 
CC1(C)CC([N-]S(=O)(=O)c2cccc(C(=O)/N=c3\[n-]cccc3O)c2)CC(C)(C)N1

>  <Energy>  (50) 
75.98552275051024

>  <Genealogy>  (50) 
CC1(C)CC([N-]S(=O)(=O)c2cccc(C(=O)N=c3[n-]cccc3O)c2)CC(C)(C)N1 (protonated)
CC1(C)CC([N-]S(=O)(=O)c2cccc(C(=O)/N=c3\[n-]cccc3O)c2)CC(C)(C)N1 (cis-trans isomerization)
CC1(C)CC([N-]S(=O)(=O)c2cccc(C(=O)/N=c3\[n-]cccc3O)c2)CC(C)(C)N1 (3D coordinates assigned)
CC1(C)CC([N-]S(=O)(=O)c2cccc(C(=O)/N=c3\[n-]cccc3O)c2)CC(C)(C)N1 (nonaromatic ring conformer: 75.98552275051024 kcal/mol)

>  <smiles>  (50) 
CC1(C)CC(NS(=O)(=O)c2cccc(C(=O)N=c3[nH]cccc3O)c2)CC(C)(C)N1

>  <score_type>  (50) 
oracle

>  <origin>  (50) 
adg

>  <m_score__min__energy>  (50) 
-13.16

>  <m_primary>  (50) 
energy

$$$$
50:0
     RDKit          3D

 41 44  0  0  0  0  0  0  0  0999 V2000
   56.6630   31.0530   44.6690 N   0  0  0  0  0  0  0  0  0  0  0  0
   60.2340   30.5970   46.7720 C   0  0  0  0  0  0  0  0  0  0  0  0
   57.1150   33.2700   45.0930 N   0  0  0  0  0  0  0  0  0  0  0  0
   57.9110   34.2120   45.6360 C   0  0  0  0  0  0  0  0  0  0  0  0
   59.0420   33.8900   46.2890 N   0  0  0  0  0  0  0  0  0  0  0  0
   59.3860   32.6030   46.4050 C   0  0  0  0  0  0  0  0  0  0  0  0
   58.5670   31.6260   45.8470 C   0  0  0  0  0  0  0  0  0  0  0  0
   59.0880   30.4030   46.0730 N   0  0  0  0  0  0  0  0  0  0  0  0
   58.6250   29.1250   45.7080 C   0  0  0  0  0  0  0  0  0  0  0  0
   58.9200   28.6930   44.4160 C   0  0  0  0  0  0  0  0  0  0  0  0
   58.4930   27.4340   43.9820 C   0  0  0  0  0  0  0  0  0  0  0  0
   57.7750   26.6040   44.8220 C   0  0  0  0  0  0  0  0  0  0  0  0
   57.4970   27.0580   46.0950 C   0  0  0  0  0  0  0  0  0  0  0  0
   57.9030   28.2960   46.5590 C   0  0  0  0  0  0  0  0  0  0  0  0
   57.3990   31.9730   45.1740 C   0  0  0  0  0  0  0  0  0  0  0  0
   61.0300   29.7070   47.1860 O   0  0  0  0  0  0  0  0  0  0  0  0
   60.4010   31.9180   46.9630 N   0  0  0  0  0  0  0  0  0  0  0  0
   61.4920   32.5300   47.6570 C   0  0  0  0  0  0  0  0  0  0  0  0
   61.0510   33.5640   48.6730 C   0  0  0  0  0  0  0  0  0  0  0  0
   62.2650   33.7670   49.5860 C   0  0  0  0  0  0  0  0  0  0  0  0
   63.4100   34.1990   48.8570 N   0  0  0  0  0  0  0  0  0  0  0  0
   63.6830   33.5460   47.6270 C   0  0  0  0  0  0  0  0  0  0  0  0
   62.4730   33.2530   46.7690 C   0  0  0  0  0  0  0  0  0  0  0  0
   55.8920   30.6490   45.2280 H   0  0  0  0  0  0  0  0  0  0  0  0
   56.2410   33.5980   44.5950 H   0  0  0  0  0  0  0  0  0  0  0  0
   57.6287   35.2711   45.5429 H   0  0  0  0  0  0  0  0  0  0  0  0
   59.4898   29.3437   43.7364 H   0  0  0  0  0  0  0  0  0  0  0  0
   58.7312   27.1008   42.9611 H   0  0  0  0  0  0  0  0  0  0  0  0
   57.4359   25.6129   44.4864 H   0  0  0  0  0  0  0  0  0  0  0  0
   56.9262   26.4053   46.7719 H   0  0  0  0  0  0  0  0  0  0  0  0
   57.6593   28.6186   47.5820 H   0  0  0  0  0  0  0  0  0  0  0  0
   61.9690   31.6614   48.1345 H   0  0  0  0  0  0  0  0  0  0  0  0
   60.7813   34.5062   48.1734 H   0  0  0  0  0  0  0  0  0  0  0  0
   60.1623   33.2389   49.2339 H   0  0  0  0  0  0  0  0  0  0  0  0
   62.0180   34.5258   50.3431 H   0  0  0  0  0  0  0  0  0  0  0  0
   62.5038   32.8017   50.0563 H   0  0  0  0  0  0  0  0  0  0  0  0
   64.2450   34.0110   49.4900 H   0  0  0  0  0  0  0  0  0  0  0  0
   64.3645   34.1854   47.0466 H   0  0  0  0  0  0  0  0  0  0  0  0
   64.1133   32.5685   47.8903 H   0  0  0  0  0  0  0  0  0  0  0  0
   62.0326   34.1903   46.3983 H   0  0  0  0  0  0  0  0  0  0  0  0
   62.7415   32.6464   45.8915 H   0  0  0  0  0  0  0  0  0  0  0  0
  1  2  2  3
  2  3  1  0
  3  4  1  0
  4  5  2  0
  5  6  1  0
  6  7  2  0
  7  8  1  0
  8  9  1  0
  9 10  2  0
 10 11  1  0
 11 12  2  0
 12 13  1  0
 13 14  2  0
  8 15  1  0
 15 16  2  0
 15 17  1  0
 17 18  1  0
 18 19  1  0
 19 20  1  0
 20 21  1  0
 21 22  1  0
 22 23  1  0
  7  2  1  0
 14  9  1  0
 23 18  1  0
 17  6  1  0
  1 24  1  0
  3 25  1  0
  4 26  1  0
 10 27  1  0
 11 28  1  0
 12 29  1  0
 13 30  1  0
 14 31  1  0
 18 32  1  0
 19 33  1  0
 19 34  1  0
 20 35  1  0
 20 36  1  0
 21 37  1  0
 22 38  1  0
 22 39  1  0
 23 40  1  0
 23 41  1  0
M  END
>  <smiles>  (51) 
N=c1[nH]cnc2c1n(-c1ccccc1)c(=O)n2C1CCNCC1

>  <score_type>  (51) 
oracle

>  <origin>  (51) 
adg

>  <m_score__min__energy>  (51) 
-6.9000000000000004

>  <m_primary>  (51) 
energy

$$$$
51:0
     RDKit          3D

 61 63  0  0  0  0  0  0  0  0999 V2000
   55.8010   22.9610   43.0640 C   0  0  0  0  0  0  0  0  0  0  0  0
   56.3590   23.0560   44.4970 C   0  0  0  0  0  0  0  0  0  0  0  0
   55.6780   22.0530   45.4450 C   0  0  0  0  0  0  0  0  0  0  0  0
   56.2680   24.4860   45.0330 C   0  0  0  0  0  0  0  0  0  0  0  0
   57.3620   25.3480   44.8760 C   0  0  0  0  0  0  0  0  0  0  0  0
   57.2700   26.6820   45.2970 C   0  0  0  0  0  0  0  0  0  0  0  0
   58.4470   27.6210   45.1520 C   0  0  0  0  0  0  0  0  0  0  0  0
   58.8960   28.3380   46.4640 C   0  0  0  0  0  0  0  0  0  0  0  0
   58.7570   27.3560   47.6510 C   0  0  0  0  0  0  0  0  0  0  0  0
   60.3610   28.8120   46.3370 C   0  0  0  0  0  0  0  0  0  0  0  0
   58.0050   29.5130   46.5950 N   0  0  0  0  0  0  0  0  0  0  0  0
   57.7920   30.5620   45.2080 S   0  0  0  0  0  0  0  0  0  0  0  0
   58.6500   30.0410   44.0880 O   0  0  0  0  0  0  0  0  0  0  0  0
   56.3630   30.4900   44.7440 O   0  0  0  0  0  0  0  0  0  0  0  0
   58.2580   32.2480   45.5100 C   0  0  0  0  0  0  0  0  0  0  0  0
   57.6690   33.2550   44.7260 C   0  0  0  0  0  0  0  0  0  0  0  0
   58.0160   34.5900   44.9010 C   0  0  0  0  0  0  0  0  0  0  0  0
   58.9630   34.9430   45.8560 C   0  0  0  0  0  0  0  0  0  0  0  0
   59.5830   33.9630   46.6460 C   0  0  0  0  0  0  0  0  0  0  0  0
   59.2200   32.5980   46.4980 C   0  0  0  0  0  0  0  0  0  0  0  0
   59.8950   31.5590   47.2570 N   0  0  0  0  0  0  0  0  0  0  0  0
   60.5640   32.0370   48.4770 C   0  0  0  0  0  0  0  0  0  0  0  0
   61.4520   33.2770   48.2220 C   0  0  0  0  0  0  0  0  0  0  0  0
   62.5640   32.9690   47.1970 C   0  0  0  0  0  0  0  0  0  0  0  0
   62.1150   33.7030   49.5520 C   0  0  0  0  0  0  0  0  0  0  0  0
   60.5510   34.4170   47.7120 C   0  0  0  0  0  0  0  0  0  0  0  0
   56.1070   27.1270   45.8520 N   0  0  0  0  0  0  0  0  0  0  0  0
   55.0600   26.3200   46.0250 N   0  0  0  0  0  0  0  0  0  0  0  0
   55.0990   25.0120   45.6430 C   0  0  0  0  0  0  0  0  0  0  0  0
   54.0840   24.2910   45.8330 O   0  0  0  0  0  0  0  0  0  0  0  0
   54.7173   22.7765   43.1040 H   0  0  0  0  0  0  0  0  0  0  0  0
   55.9929   23.9047   42.5325 H   0  0  0  0  0  0  0  0  0  0  0  0
   56.2944   22.1339   42.5325 H   0  0  0  0  0  0  0  0  0  0  0  0
   57.4237   22.7833   44.4523 H   0  0  0  0  0  0  0  0  0  0  0  0
   55.8746   22.3426   46.4878 H   0  0  0  0  0  0  0  0  0  0  0  0
   54.5933   22.0543   45.2624 H   0  0  0  0  0  0  0  0  0  0  0  0
   56.0794   21.0453   45.2624 H   0  0  0  0  0  0  0  0  0  0  0  0
   58.2931   24.9776   44.4223 H   0  0  0  0  0  0  0  0  0  0  0  0
   59.3006   27.0395   44.7736 H   0  0  0  0  0  0  0  0  0  0  0  0
   58.1175   28.4174   44.4685 H   0  0  0  0  0  0  0  0  0  0  0  0
   58.8356   27.9112   48.5973 H   0  0  0  0  0  0  0  0  0  0  0  0
   57.7790   26.8551   47.5999 H   0  0  0  0  0  0  0  0  0  0  0  0
   59.5576   26.6033   47.5999 H   0  0  0  0  0  0  0  0  0  0  0  0
   60.7898   28.9507   47.3404 H   0  0  0  0  0  0  0  0  0  0  0  0
   60.9446   28.0568   45.7901 H   0  0  0  0  0  0  0  0  0  0  0  0
   60.3916   29.7659   45.7901 H   0  0  0  0  0  0  0  0  0  0  0  0
   56.9237   32.9833   43.9639 H   0  0  0  0  0  0  0  0  0  0  0  0
   57.5413   35.3670   44.2839 H   0  0  0  0  0  0  0  0  0  0  0  0
   59.2289   36.0015   45.9936 H   0  0  0  0  0  0  0  0  0  0  0  0
   59.1990   30.8410   47.5610 H   0  0  0  0  0  0  0  0  0  0  0  0
   60.5950   31.0900   46.6390 H   0  0  0  0  0  0  0  0  0  0  0  0
   59.7963   32.3003   49.2195 H   0  0  0  0  0  0  0  0  0  0  0  0
   61.2169   31.2284   48.8373 H   0  0  0  0  0  0  0  0  0  0  0  0
   63.4919   32.7120   47.7288 H   0  0  0  0  0  0  0  0  0  0  0  0
   62.2566   32.1222   46.5658 H   0  0  0  0  0  0  0  0  0  0  0  0
   62.7360   33.8533   46.5658 H   0  0  0  0  0  0  0  0  0  0  0  0
   61.5216   33.3217   50.3961 H   0  0  0  0  0  0  0  0  0  0  0  0
   63.1331   33.2896   49.6031 H   0  0  0  0  0  0  0  0  0  0  0  0
   62.1621   34.8008   49.6031 H   0  0  0  0  0  0  0  0  0  0  0  0
   59.9772   34.8183   48.5604 H   0  0  0  0  0  0  0  0  0  0  0  0
   61.2036   35.1809   47.2642 H   0  0  0  0  0  0  0  0  0  0  0  0
  1  2  1  0
  2  3  1  0
  2  4  1  0
  4  5  2  0
  5  6  1  0
  6  7  1  0
  7  8  1  0
  8  9  1  0
  8 10  1  0
  8 11  1  0
 11 12  1  0
 12 13  2  0
 12 14  2  0
 12 15  1  0
 15 16  2  0
 16 17  1  0
 17 18  2  0
 18 19  1  0
 19 20  2  0
 20 21  1  0
 21 22  1  0
 22 23  1  0
 23 24  1  0
 23 25  1  0
 23 26  1  0
  6 27  2  0
 27 28  1  0
 28 29  1  0
 29 30  2  0
 29  4  1  0
 20 15  1  0
 26 19  1  0
  1 31  1  0
  1 32  1  0
  1 33  1  0
  2 34  1  0
  3 35  1  0
  3 36  1  0
  3 37  1  0
  5 38  1  0
  7 39  1  0
  7 40  1  0
  9 41  1  0
  9 42  1  0
  9 43  1  0
 10 44  1  0
 10 45  1  0
 10 46  1  0
 16 47  1  0
 17 48  1  0
 18 49  1  0
 21 50  1  0
 21 51  1  0
 22 52  1  0
 22 53  1  0
 24 54  1  0
 24 55  1  0
 24 56  1  0
 25 57  1  0
 25 58  1  0
 25 59  1  0
 26 60  1  0
 26 61  1  0
M  CHG  3  11  -1  21   1  28  -1
M  END
>  <UniqueID>  (52) 
50

>  <SMILES>  (52) 
CC(C)c1cc(CC(C)(C)[N-]S(=O)(=O)c2cccc3c2[NH2+]CC(C)(C)C3)n[n-]c1=O

>  <Energy>  (52) 
71.258005144172

>  <Genealogy>  (52) 
CC(C)c1cc(CC(C)(C)[N-]S(=O)(=O)c2cccc3c2[NH2+]CC(C)(C)C3)n[n-]c1=O (protonated)
CC(C)c1cc(CC(C)(C)[N-]S(=O)(=O)c2cccc3c2[NH2+]CC(C)(C)C3)n[n-]c1=O (3D coordinates assigned)
CC(C)c1cc(CC(C)(C)[N-]S(=O)(=O)c2cccc3c2[NH2+]CC(C)(C)C3)n[n-]c1=O (nonaromatic ring conformer: 71.258005144172 kcal/mol)

>  <smiles>  (52) 
CC(C)c1cc(CC(C)(C)NS(=O)(=O)c2cccc3c2NCC(C)(C)C3)n[nH]c1=O

>  <score_type>  (52) 
oracle

>  <origin>  (52) 
adg

>  <m_score__min__energy>  (52) 
-13.27

>  <m_primary>  (52) 
energy

$$$$
52:0
     RDKit          3D

 66 70  0  0  0  0  0  0  0  0999 V2000
   60.1850   29.7260   45.6130 C   0  0  0  0  0  0  0  0  0  0  0  0
   58.9730   29.1640   45.1210 O   0  0  0  0  0  0  0  0  0  0  0  0
   58.3970   27.9750   45.5920 C   0  0  0  0  0  0  0  0  0  0  0  0
   59.1840   26.9030   46.0540 C   0  0  0  0  0  0  0  0  0  0  0  0
   58.5840   25.7490   46.5670 C   0  0  0  0  0  0  0  0  0  0  0  0
   57.1860   25.6470   46.6270 C   0  0  0  0  0  0  0  0  0  0  0  0
   56.5250   24.4950   47.1720 N   0  0  0  0  0  0  0  0  0  0  0  0
   56.7500   23.1250   46.8140 C   0  0  0  0  0  0  0  0  0  0  0  0
   57.0230   22.2750   47.7070 O   0  0  0  0  0  0  0  0  0  0  0  0
   56.7710   22.7140   45.3870 C   0  0  0  0  0  0  0  0  0  0  0  0
   57.7980   21.8530   44.9580 C   0  0  0  0  0  0  0  0  0  0  0  0
   57.8860   21.4550   43.6230 C   0  0  0  0  0  0  0  0  0  0  0  0
   56.9510   21.9080   42.6940 C   0  0  0  0  0  0  0  0  0  0  0  0
   55.9170   22.7520   43.0990 C   0  0  0  0  0  0  0  0  0  0  0  0
   55.8000   23.1520   44.4440 C   0  0  0  0  0  0  0  0  0  0  0  0
   54.6390   24.0320   44.8320 C   0  0  0  0  0  0  0  0  0  0  0  0
   56.4020   26.7180   46.1880 C   0  0  0  0  0  0  0  0  0  0  0  0
   56.9920   27.8630   45.6360 C   0  0  0  0  0  0  0  0  0  0  0  0
   56.1360   28.9120   45.1670 N   0  0  0  0  0  0  0  0  0  0  0  0
   56.3800   29.7130   44.0040 C   0  0  0  0  0  0  0  0  0  0  0  0
   55.9410   29.3390   42.8830 O   0  0  0  0  0  0  0  0  0  0  0  0
   57.1150   30.9930   44.1210 C   0  0  0  0  0  0  0  0  0  0  0  0
   57.5090   31.7000   42.9690 C   0  0  0  0  0  0  0  0  0  0  0  0
   58.1830   32.9170   43.0860 C   0  0  0  0  0  0  0  0  0  0  0  0
   58.4630   33.4490   44.3460 C   0  0  0  0  0  0  0  0  0  0  0  0
   58.0790   32.7610   45.5070 C   0  0  0  0  0  0  0  0  0  0  0  0
   58.3500   33.3600   46.8630 C   0  0  0  0  0  0  0  0  0  0  0  0
   59.3800   32.5420   47.6070 C   0  0  0  0  0  0  0  0  0  0  0  0
   58.9250   31.5430   48.4080 N   0  0  0  0  0  0  0  0  0  0  0  0
   59.7470   30.7540   49.0960 N   0  0  0  0  0  0  0  0  0  0  0  0
   61.0910   30.9070   49.0410 C   0  0  0  0  0  0  0  0  0  0  0  0
   61.8290   30.1280   49.7030 O   0  0  0  0  0  0  0  0  0  0  0  0
   61.6450   31.9270   48.2500 C   0  0  0  0  0  0  0  0  0  0  0  0
   60.7770   32.7440   47.4820 C   0  0  0  0  0  0  0  0  0  0  0  0
   61.3300   33.8820   46.6410 C   0  0  0  0  0  0  0  0  0  0  0  0
   62.8290   33.7680   46.3620 C   0  0  0  0  0  0  0  0  0  0  0  0
   63.5850   33.4330   47.6420 C   0  0  0  0  0  0  0  0  0  0  0  0
   63.1510   32.0640   48.1610 C   0  0  0  0  0  0  0  0  0  0  0  0
   57.4140   31.5290   45.3870 C   0  0  0  0  0  0  0  0  0  0  0  0
   60.1720   29.7200   46.7129 H   0  0  0  0  0  0  0  0  0  0  0  0
   61.0376   29.1313   45.2531 H   0  0  0  0  0  0  0  0  0  0  0  0
   60.2819   30.7609   45.2531 H   0  0  0  0  0  0  0  0  0  0  0  0
   60.2809   26.9739   46.0110 H   0  0  0  0  0  0  0  0  0  0  0  0
   59.2101   24.9183   46.9247 H   0  0  0  0  0  0  0  0  0  0  0  0
   58.5405   21.4892   45.6835 H   0  0  0  0  0  0  0  0  0  0  0  0
   58.6954   20.7821   43.3034 H   0  0  0  0  0  0  0  0  0  0  0  0
   57.0285   21.5998   41.6409 H   0  0  0  0  0  0  0  0  0  0  0  0
   55.1850   23.1090   42.3596 H   0  0  0  0  0  0  0  0  0  0  0  0
   54.5693   24.0848   45.9285 H   0  0  0  0  0  0  0  0  0  0  0  0
   54.7928   25.0424   44.4253 H   0  0  0  0  0  0  0  0  0  0  0  0
   53.7077   23.6109   44.4253 H   0  0  0  0  0  0  0  0  0  0  0  0
   55.3071   26.6612   46.2771 H   0  0  0  0  0  0  0  0  0  0  0  0
   57.2848   31.2917   41.9725 H   0  0  0  0  0  0  0  0  0  0  0  0
   58.4949   33.4592   42.1812 H   0  0  0  0  0  0  0  0  0  0  0  0
   58.9873   34.4124   44.4290 H   0  0  0  0  0  0  0  0  0  0  0  0
   58.7252   34.3863   46.7369 H   0  0  0  0  0  0  0  0  0  0  0  0
   57.4149   33.3664   47.4423 H   0  0  0  0  0  0  0  0  0  0  0  0
   60.7975   33.8931   45.6785 H   0  0  0  0  0  0  0  0  0  0  0  0
   61.1794   34.8083   47.2148 H   0  0  0  0  0  0  0  0  0  0  0  0
   63.0002   32.9727   45.6216 H   0  0  0  0  0  0  0  0  0  0  0  0
   63.1935   34.7309   45.9746 H   0  0  0  0  0  0  0  0  0  0  0  0
   64.6651   33.4182   47.4340 H   0  0  0  0  0  0  0  0  0  0  0  0
   63.3624   34.1952   48.4032 H   0  0  0  0  0  0  0  0  0  0  0  0
   63.5358   31.2906   47.4800 H   0  0  0  0  0  0  0  0  0  0  0  0
   63.5573   31.9479   49.1766 H   0  0  0  0  0  0  0  0  0  0  0  0
   57.1238   30.9773   46.2933 H   0  0  0  0  0  0  0  0  0  0  0  0
  1  2  1  0
  2  3  1  0
  3  4  2  0
  4  5  1  0
  5  6  2  0
  6  7  1  0
  7  8  1  0
  8  9  2  0
  8 10  1  0
 10 11  2  0
 11 12  1  0
 12 13  2  0
 13 14  1  0
 14 15  2  0
 15 16  1  0
  6 17  1  0
 17 18  2  0
 18 19  1  0
 19 20  1  0
 20 21  2  0
 20 22  1  0
 22 23  2  0
 23 24  1  0
 24 25  2  0
 25 26  1  0
 26 27  1  0
 27 28  1  0
 28 29  2  0
 29 30  1  0
 30 31  1  0
 31 32  2  0
 31 33  1  0
 33 34  2  0
 34 35  1  0
 35 36  1  0
 36 37  1  0
 37 38  1  0
 26 39  2  0
 18  3  1  0
 39 22  1  0
 15 10  1  0
 34 28  1  0
 38 33  1  0
  1 40  1  0
  1 41  1  0
  1 42  1  0
  4 43  1  0
  5 44  1  0
 11 45  1  0
 12 46  1  0
 13 47  1  0
 14 48  1  0
 16 49  1  0
 16 50  1  0
 16 51  1  0
 17 52  1  0
 23 53  1  0
 24 54  1  0
 25 55  1  0
 27 56  1  0
 27 57  1  0
 35 58  1  0
 35 59  1  0
 36 60  1  0
 36 61  1  0
 37 62  1  0
 37 63  1  0
 38 64  1  0
 38 65  1  0
 39 66  1  0
M  CHG  3   7  -1  19  -1  30  -1
M  END
>  <UniqueID>  (53) 
51

>  <SMILES>  (53) 
COc1ccc([N-]C(=O)c2ccccc2C)cc1[N-]C(=O)c1cccc(Cc2n[n-]c(=O)c3c2CCCC3)c1

>  <Energy>  (53) 
88.05797861731882

>  <Genealogy>  (53) 
COc1ccc([N-]C(=O)c2ccccc2C)cc1[N-]C(=O)c1cccc(Cc2n[n-]c(=O)c3c2CCCC3)c1 (protonated)
COc1ccc([N-]C(=O)c2ccccc2C)cc1[N-]C(=O)c1cccc(Cc2n[n-]c(=O)c3c2CCCC3)c1 (3D coordinates assigned)
COc1ccc([N-]C(=O)c2ccccc2C)cc1[N-]C(=O)c1cccc(Cc2n[n-]c(=O)c3c2CCCC3)c1 (nonaromatic ring conformer: 88.05797861731882 kcal/mol)

>  <smiles>  (53) 
COc1ccc(NC(=O)c2ccccc2C)cc1NC(=O)c1cccc(Cc2n[nH]c(=O)c3c2CCCC3)c1

>  <score_type>  (53) 
oracle

>  <origin>  (53) 
adg

>  <m_score__min__energy>  (53) 
-16.379999999999999

>  <m_primary>  (53) 
energy

$$$$
53:0
     RDKit          3D

 32 35  0  0  0  0  0  0  0  0999 V2000
   58.7770   27.1680   46.1650 O   0  0  0  0  0  0  0  0  0  0  0  0
   57.9820   27.5790   45.2770 C   0  0  0  0  0  0  0  0  0  0  0  0
   57.4260   26.6630   44.3180 N   0  0  0  0  0  0  0  0  0  0  0  0
   57.4810   25.2320   44.4460 C   0  0  0  0  0  0  0  0  0  0  0  0
   58.3670   24.6550   45.3910 C   0  0  0  0  0  0  0  0  0  0  0  0
   58.4610   23.2580   45.5250 C   0  0  0  0  0  0  0  0  0  0  0  0
   57.6730   22.4700   44.6940 C   0  0  0  0  0  0  0  0  0  0  0  0
   56.8360   23.0120   43.7740 C   0  0  0  0  0  0  0  0  0  0  0  0
   56.7110   24.3880   43.6090 C   0  0  0  0  0  0  0  0  0  0  0  0
   56.1940   22.0010   43.0850 O   0  0  0  0  0  0  0  0  0  0  0  0
   56.6530   20.7470   43.6090 C   0  0  0  0  0  0  0  0  0  0  0  0
   57.5960   21.0920   44.6340 O   0  0  0  0  0  0  0  0  0  0  0  0
   57.6590   29.0120   45.2050 C   0  0  0  0  0  0  0  0  0  0  0  0
   58.4980   30.0540   45.5510 C   0  0  0  0  0  0  0  0  0  0  0  0
   57.7320   31.1750   45.3100 C   0  0  0  0  0  0  0  0  0  0  0  0
   58.1300   32.5730   45.5080 C   0  0  0  0  0  0  0  0  0  0  0  0
   58.5240   33.4600   44.5240 C   0  0  0  0  0  0  0  0  0  0  0  0
   58.7970   34.6410   45.1790 C   0  0  0  0  0  0  0  0  0  0  0  0
   58.5540   34.4040   46.5170 C   0  0  0  0  0  0  0  0  0  0  0  0
   58.1580   33.1630   46.6810 O   0  0  0  0  0  0  0  0  0  0  0  0
   56.5550   30.8000   44.8650 O   0  0  0  0  0  0  0  0  0  0  0  0
   56.4750   29.5030   44.7890 N   0  0  0  0  0  0  0  0  0  0  0  0
   57.0340   27.0570   43.4330 H   0  0  0  0  0  0  0  0  0  0  0  0
   58.9866   25.3061   46.0252 H   0  0  0  0  0  0  0  0  0  0  0  0
   59.1369   22.8033   46.2642 H   0  0  0  0  0  0  0  0  0  0  0  0
   56.0339   24.8080   42.8506 H   0  0  0  0  0  0  0  0  0  0  0  0
   55.8141   20.1754   44.0328 H   0  0  0  0  0  0  0  0  0  0  0  0
   57.1045   20.1155   42.8297 H   0  0  0  0  0  0  0  0  0  0  0  0
   59.5299   30.0018   45.9284 H   0  0  0  0  0  0  0  0  0  0  0  0
   58.6030   33.2642   43.4445 H   0  0  0  0  0  0  0  0  0  0  0  0
   59.1397   35.5833   44.7267 H   0  0  0  0  0  0  0  0  0  0  0  0
   58.6739   35.1426   47.3233 H   0  0  0  0  0  0  0  0  0  0  0  0
  1  2  2  0
  2  3  1  0
  3  4  1  0
  4  5  2  0
  5  6  1  0
  6  7  2  0
  7  8  1  0
  8  9  2  0
  8 10  1  0
 10 11  1  0
 11 12  1  0
  2 13  1  0
 13 14  1  0
 14 15  2  0
 15 16  1  0
 16 17  2  0
 17 18  1  0
 18 19  2  0
 19 20  1  0
 15 21  1  0
 21 22  1  0
  9  4  1  0
 22 13  2  0
 12  7  1  0
 20 16  1  0
  3 23  1  0
  5 24  1  0
  6 25  1  0
  9 26  1  0
 11 27  1  0
 11 28  1  0
 14 29  1  0
 17 30  1  0
 18 31  1  0
 19 32  1  0
M  END
>  <UniqueID>  (54) 
52

>  <SMILES>  (54) 
O=C(Nc1ccc2c(c1)OCO2)c1cc(-c2ccco2)on1

>  <Energy>  (54) 
122.14141891419634

>  <Genealogy>  (54) 
O=C(Nc1ccc2c(c1)OCO2)c1cc(-c2ccco2)on1 (3D coordinates assigned)
O=C(Nc1ccc2c(c1)OCO2)c1cc(-c2ccco2)on1 (nonaromatic ring conformer: 122.14141891419634 kcal/mol)

>  <smiles>  (54) 
O=C(Nc1ccc2c(c1)OCO2)c1cc(-c2ccco2)on1

>  <score_type>  (54) 
oracle

>  <origin>  (54) 
adg

>  <m_score__min__energy>  (54) 
-7.3799999999999999

>  <m_primary>  (54) 
energy

$$$$
54:0
     RDKit          3D

 66 69  0  0  1  0  0  0  0  0999 V2000
   59.6990   32.9320   50.7490 C   0  0  0  0  0  0  0  0  0  0  0  0
   60.1610   31.5660   50.7330 N   0  0  0  0  0  0  0  0  0  0  0  0
   61.3260   31.4170   49.8860 C   0  0  0  0  0  0  0  0  0  0  0  0
   59.1170   30.6400   50.3780 C   0  0  0  0  0  0  0  0  0  0  0  0
   59.6870   29.3080   50.1660 C   0  0  0  0  0  0  0  0  0  0  0  0
   59.6380   28.5920   48.9990 C   0  0  0  0  0  0  0  0  0  0  0  0
   60.2060   27.3240   48.8960 C   0  0  0  0  0  0  0  0  0  0  0  0
   60.0820   26.6910   47.6210 N   0  0  0  0  0  0  0  0  0  0  0  0
   59.0940   26.9050   46.8190 C   0  0  0  0  0  0  0  0  0  0  0  0
   58.2040   25.8930   46.5340 C   0  0  0  0  0  0  0  0  0  0  0  0
   57.1690   26.2000   45.6720 C   0  0  0  0  0  0  0  0  0  0  0  0
   56.1800   25.1910   45.3150 C   0  0  0  0  0  0  0  0  0  0  0  0
   56.3700   24.4200   44.1240 N   0  0  0  0  0  0  0  0  0  0  0  0
   55.1580   24.9580   46.0000 O   0  0  0  0  0  0  0  0  0  0  0  0
   57.0490   27.4470   45.1380 N   0  0  0  0  0  0  0  0  0  0  0  0
   57.9290   28.4260   45.4270 C   0  0  0  0  0  0  0  0  0  0  0  0
   57.8470   29.7700   44.8950 C   0  0  0  0  0  0  0  0  0  0  0  0
   57.1610   29.9850   43.7050 C   0  0  0  0  0  0  0  0  0  0  0  0
   57.0330   31.2200   43.1210 C   0  0  0  0  0  0  0  0  0  0  0  0
   57.6360   32.2970   43.7790 C   0  0  0  0  0  0  0  0  0  0  0  0
   58.3270   32.1380   44.9610 C   0  0  0  0  0  0  0  0  0  0  0  0
   58.9260   33.3190   45.5730 C   0  0  0  0  0  0  0  0  0  0  0  0
   58.6010   34.4340   45.0610 O   0  0  0  0  0  0  0  0  0  0  0  0
   59.8190   33.2640   46.6720 N   0  0  0  0  0  0  0  0  0  0  0  0
   60.4240   34.4150   47.2940 C   0  0  0  0  0  0  0  0  0  0  0  0
   61.7130   34.1140   47.9270 C   0  0  0  0  0  0  0  0  0  0  0  0
   62.0930   34.4780   49.1900 C   0  0  0  0  0  0  0  0  0  0  0  0
   63.3190   34.1660   49.7420 C   0  0  0  0  0  0  0  0  0  0  0  0
   64.2270   33.4470   48.9910 C   0  0  0  0  0  0  0  0  0  0  0  0
   65.4860   33.1070   49.5140 O   0  0  0  0  0  0  0  0  0  0  0  0
   63.8860   33.0550   47.7010 C   0  0  0  0  0  0  0  0  0  0  0  0
   62.6490   33.3870   47.1850 C   0  0  0  0  0  0  0  0  0  0  0  0
   58.4090   30.8750   45.4830 C   0  0  0  0  0  0  0  0  0  0  0  0
   58.9280   28.0980   46.2700 N   0  0  0  0  0  0  0  0  0  0  0  0
   60.8440   26.7320   49.9670 C   0  0  0  0  0  0  0  0  0  0  0  0
   60.8960   27.4480   51.1410 C   0  0  0  0  0  0  0  0  0  0  0  0
   60.3310   28.7050   51.2380 C   0  0  0  0  0  0  0  0  0  0  0  0
   60.4370   29.3500   52.4710 O   0  0  0  0  0  0  0  0  0  0  0  0
   59.5852   33.2684   51.7901 H   0  0  0  0  0  0  0  0  0  0  0  0
   60.4305   33.5725   50.2346 H   0  0  0  0  0  0  0  0  0  0  0  0
   58.7289   32.9970   50.2346 H   0  0  0  0  0  0  0  0  0  0  0  0
   62.2227   31.3023   50.5127 H   0  0  0  0  0  0  0  0  0  0  0  0
   61.2062   30.5269   49.2509 H   0  0  0  0  0  0  0  0  0  0  0  0
   61.4341   32.3086   49.2509 H   0  0  0  0  0  0  0  0  0  0  0  0
   58.3766   30.5954   51.1903 H   0  0  0  0  0  0  0  0  0  0  0  0
   58.6305   30.9787   49.4514 H   0  0  0  0  0  0  0  0  0  0  0  0
   59.1380   29.0289   48.1220 H   0  0  0  0  0  0  0  0  0  0  0  0
   58.3121   24.8895   46.9714 H   0  0  0  0  0  0  0  0  0  0  0  0
   55.8790   24.7500   43.2430 H   0  0  0  0  0  0  0  0  0  0  0  0
   56.9570   23.5690   44.0960 H   0  0  0  0  0  0  0  0  0  0  0  0
   56.2580   27.6340   44.4950 H   0  0  0  0  0  0  0  0  0  0  0  0
   56.6973   29.1211   43.2063 H   0  0  0  0  0  0  0  0  0  0  0  0
   56.4817   31.3568   42.1790 H   0  0  0  0  0  0  0  0  0  0  0  0
   57.5563   33.3022   43.3395 H   0  0  0  0  0  0  0  0  0  0  0  0
   60.0690   32.3240   47.0750 H   0  0  0  0  0  0  0  0  0  0  0  0
   60.5825   35.1858   46.5254 H   0  0  0  0  0  0  0  0  0  0  0  0
   59.7412   34.7580   48.0853 H   0  0  0  0  0  0  0  0  0  0  0  0
   61.3806   35.0522   49.8005 H   0  0  0  0  0  0  0  0  0  0  0  0
   63.5686   34.4854   50.7646 H   0  0  0  0  0  0  0  0  0  0  0  0
   66.2270   32.8230   48.8610 H   0  0  0  0  0  0  0  0  0  0  0  0
   64.6007   32.4813   47.0926 H   0  0  0  0  0  0  0  0  0  0  0  0
   62.3931   33.0711   46.1629 H   0  0  0  0  0  0  0  0  0  0  0  0
   58.9564   30.7384   46.4273 H   0  0  0  0  0  0  0  0  0  0  0  0
   61.2918   25.7306   49.8857 H   0  0  0  0  0  0  0  0  0  0  0  0
   61.3964   27.0117   52.0180 H   0  0  0  0  0  0  0  0  0  0  0  0
   60.5550   30.3540   52.4820 H   0  0  0  0  0  0  0  0  0  0  0  0
  1  2  1  0
  2  3  1  0
  2  4  1  0
  4  5  1  0
  5  6  2  0
  6  7  1  0
  7  8  1  0
  8  9  2  0
  9 10  1  0
 10 11  2  0
 11 12  1  0
 12 13  1  0
 12 14  2  0
 11 15  1  0
 15 16  1  0
 16 17  1  0
 17 18  2  0
 18 19  1  0
 19 20  2  0
 20 21  1  0
 21 22  1  0
 22 23  2  0
 22 24  1  0
 24 25  1  0
 25 26  1  0
 26 27  2  0
 27 28  1  0
 28 29  2  0
 29 30  1  0
 29 31  1  0
 31 32  2  0
 21 33  2  0
 16 34  2  0
  7 35  2  0
 35 36  1  0
 36 37  2  0
 37 38  1  0
 37  5  1  0
 34  9  1  0
 33 17  1  0
 32 26  1  0
  1 39  1  0
  1 40  1  0
  1 41  1  0
  3 42  1  0
  3 43  1  0
  3 44  1  0
  4 45  1  0
  4 46  1  0
  6 47  1  0
 10 48  1  0
 13 49  1  0
 13 50  1  0
 15 51  1  0
 18 52  1  0
 19 53  1  0
 20 54  1  0
 24 55  1  0
 25 56  1  0
 25 57  1  0
 27 58  1  0
 28 59  1  0
 30 60  1  0
 31 61  1  0
 32 62  1  0
 33 63  1  0
 35 64  1  0
 36 65  1  0
 38 66  1  0
M  END
>  <smiles>  (55) 
CN(C)Cc1cc(N=c2cc(C(N)=O)[nH]c(-c3cccc(C(=O)NCc4ccc(O)cc4)c3)n2)ccc1O

>  <score_type>  (55) 
oracle

>  <origin>  (55) 
adg

>  <m_score__min__energy>  (55) 
-9.1999999999999993

>  <m_primary>  (55) 
energy

$$$$
55:0
     RDKit          3D

 56 58  0  0  0  0  0  0  0  0999 V2000
   55.2280   22.8970   48.6020 O   0  0  0  0  0  0  0  0  0  0  0  0
   55.8520   22.3820   47.6350 C   0  0  0  0  0  0  0  0  0  0  0  0
   55.1080   21.5480   46.6370 C   0  0  0  0  0  0  0  0  0  0  0  0
   55.5750   21.8680   45.2380 C   0  0  0  0  0  0  0  0  0  0  0  0
   56.4600   20.9970   44.5730 C   0  0  0  0  0  0  0  0  0  0  0  0
   56.9310   21.3130   43.2930 C   0  0  0  0  0  0  0  0  0  0  0  0
   56.5220   22.4970   42.6660 C   0  0  0  0  0  0  0  0  0  0  0  0
   55.6450   23.3680   43.3210 C   0  0  0  0  0  0  0  0  0  0  0  0
   55.1750   23.0580   44.6040 C   0  0  0  0  0  0  0  0  0  0  0  0
   57.2640   22.5920   47.4880 N   0  0  0  0  0  0  0  0  0  0  0  0
   57.8290   23.5050   46.4980 C   0  0  0  0  0  0  0  0  0  0  0  0
   58.0450   24.9010   47.0990 C   0  0  0  0  0  0  0  0  0  0  0  0
   56.7750   25.5970   47.2730 N   0  0  0  0  0  0  0  0  0  0  0  0
   56.1180   26.3480   46.2460 C   0  0  0  0  0  0  0  0  0  0  0  0
   54.9020   26.1390   45.9830 O   0  0  0  0  0  0  0  0  0  0  0  0
   56.8700   27.3900   45.5210 C   0  0  0  0  0  0  0  0  0  0  0  0
   58.0900   27.1940   45.2640 O   0  0  0  0  0  0  0  0  0  0  0  0
   56.2910   28.6590   45.1770 N   0  0  0  0  0  0  0  0  0  0  0  0
   56.9730   29.9170   45.0680 C   0  0  0  0  0  0  0  0  0  0  0  0
   56.7680   30.6920   43.9260 C   0  0  0  0  0  0  0  0  0  0  0  0
   57.3850   31.9380   43.7990 C   0  0  0  0  0  0  0  0  0  0  0  0
   58.2090   32.4320   44.8170 C   0  0  0  0  0  0  0  0  0  0  0  0
   58.9360   34.0180   44.5750 Cl  0  0  0  0  0  0  0  0  0  0  0  0
   58.4160   31.6630   45.9840 C   0  0  0  0  0  0  0  0  0  0  0  0
   59.4180   32.2130   47.3380 S   0  0  0  0  0  0  0  0  0  0  0  0
   58.8940   33.5450   47.7990 O   0  0  0  0  0  0  0  0  0  0  0  0
   59.3480   31.2610   48.4980 O   0  0  0  0  0  0  0  0  0  0  0  0
   61.0730   32.4000   46.8140 N   0  0  0  0  0  0  0  0  0  0  0  0
   61.9180   31.3700   47.4380 C   0  0  0  0  0  0  0  0  0  0  0  0
   63.4060   31.6850   47.1980 C   0  0  0  0  0  0  0  0  0  0  0  0
   63.8250   32.9960   47.5710 O   0  0  0  0  0  0  0  0  0  0  0  0
   62.7680   33.8260   48.0080 C   0  0  0  0  0  0  0  0  0  0  0  0
   61.5620   33.7780   47.0530 C   0  0  0  0  0  0  0  0  0  0  0  0
   57.7720   30.4210   46.1080 C   0  0  0  0  0  0  0  0  0  0  0  0
   55.2896   20.4834   46.8459 H   0  0  0  0  0  0  0  0  0  0  0  0
   54.0332   21.7685   46.7156 H   0  0  0  0  0  0  0  0  0  0  0  0
   56.7822   20.0653   45.0611 H   0  0  0  0  0  0  0  0  0  0  0  0
   57.6235   20.6303   42.7788 H   0  0  0  0  0  0  0  0  0  0  0  0
   56.8904   22.7418   41.6588 H   0  0  0  0  0  0  0  0  0  0  0  0
   55.3239   24.2975   42.8281 H   0  0  0  0  0  0  0  0  0  0  0  0
   54.4900   23.7485   45.1178 H   0  0  0  0  0  0  0  0  0  0  0  0
   58.7951   23.1084   46.1526 H   0  0  0  0  0  0  0  0  0  0  0  0
   57.1252   23.5900   45.6569 H   0  0  0  0  0  0  0  0  0  0  0  0
   58.5365   24.7992   48.0778 H   0  0  0  0  0  0  0  0  0  0  0  0
   58.6737   25.4854   46.4111 H   0  0  0  0  0  0  0  0  0  0  0  0
   56.1169   30.3194   43.1215 H   0  0  0  0  0  0  0  0  0  0  0  0
   57.2221   32.5368   42.8908 H   0  0  0  0  0  0  0  0  0  0  0  0
   61.7218   31.3457   48.5201 H   0  0  0  0  0  0  0  0  0  0  0  0
   61.6816   30.3930   46.9912 H   0  0  0  0  0  0  0  0  0  0  0  0
   64.0024   30.9621   47.7740 H   0  0  0  0  0  0  0  0  0  0  0  0
   63.5566   31.6184   46.1104 H   0  0  0  0  0  0  0  0  0  0  0  0
   62.4444   33.4929   49.0052 H   0  0  0  0  0  0  0  0  0  0  0  0
   63.1387   34.8613   48.0341 H   0  0  0  0  0  0  0  0  0  0  0  0
   60.7443   34.3703   47.4896 H   0  0  0  0  0  0  0  0  0  0  0  0
   61.8897   34.1855   46.0852 H   0  0  0  0  0  0  0  0  0  0  0  0
   57.8947   29.8354   47.0311 H   0  0  0  0  0  0  0  0  0  0  0  0
  1  2  2  0
  2  3  1  0
  3  4  1  0
  4  5  2  0
  5  6  1  0
  6  7  2  0
  7  8  1  0
  8  9  2  0
  2 10  1  0
 10 11  1  0
 11 12  1  0
 12 13  1  0
 13 14  1  0
 14 15  2  0
 14 16  1  0
 16 17  2  0
 16 18  1  0
 18 19  1  0
 19 20  2  0
 20 21  1  0
 21 22  2  0
 22 23  1  0
 22 24  1  0
 24 25  1  0
 25 26  2  0
 25 27  2  0
 25 28  1  0
 28 29  1  0
 29 30  1  0
 30 31  1  0
 31 32  1  0
 32 33  1  0
 24 34  2  0
  9  4  1  0
 34 19  1  0
 33 28  1  0
  3 35  1  0
  3 36  1  0
  5 37  1  0
  6 38  1  0
  7 39  1  0
  8 40  1  0
  9 41  1  0
 11 42  1  0
 11 43  1  0
 12 44  1  0
 12 45  1  0
 20 46  1  0
 21 47  1  0
 29 48  1  0
 29 49  1  0
 30 50  1  0
 30 51  1  0
 32 52  1  0
 32 53  1  0
 33 54  1  0
 33 55  1  0
 34 56  1  0
M  CHG  3  10  -1  13  -1  18  -1
M  END
>  <UniqueID>  (56) 
53

>  <SMILES>  (56) 
O=C(Cc1ccccc1)[N-]CC[N-]C(=O)C(=O)[N-]c1ccc(Cl)c(S(=O)(=O)N2CCOCC2)c1

>  <Energy>  (56) 
65.89740708296678

>  <Genealogy>  (56) 
O=C(Cc1ccccc1)[N-]CC[N-]C(=O)C(=O)[N-]c1ccc(Cl)c(S(=O)(=O)N2CCOCC2)c1 (protonated)
O=C(Cc1ccccc1)[N-]CC[N-]C(=O)C(=O)[N-]c1ccc(Cl)c(S(=O)(=O)N2CCOCC2)c1 (3D coordinates assigned)
O=C(Cc1ccccc1)[N-]CC[N-]C(=O)C(=O)[N-]c1ccc(Cl)c(S(=O)(=O)N2CCOCC2)c1 (nonaromatic ring conformer: 65.89740708296678 kcal/mol)

>  <smiles>  (56) 
O=C(Cc1ccccc1)NCCNC(=O)C(=O)Nc1ccc(Cl)c(S(=O)(=O)N2CCOCC2)c1

>  <score_type>  (56) 
oracle

>  <origin>  (56) 
adg

>  <m_score__min__energy>  (56) 
-14.039999999999999

>  <m_primary>  (56) 
energy

$$$$
56:0
     RDKit          3D

 57 60  0  0  0  0  0  0  0  0999 V2000
   60.6690   26.9670   47.9370 C   0  0  0  0  0  0  0  0  0  0  0  0
   60.7540   27.3020   49.3550 N   0  0  0  0  0  0  0  0  0  0  0  0
   60.7710   26.3830   50.3080 N   0  0  0  0  0  0  0  0  0  0  0  0
   60.8120   27.0180   51.4950 C   0  0  0  0  0  0  0  0  0  0  0  0
   60.8190   28.3840   51.2900 C   0  0  0  0  0  0  0  0  0  0  0  0
   60.7980   28.5320   49.9180 C   0  0  0  0  0  0  0  0  0  0  0  0
   60.7820   29.8260   49.2070 C   0  0  0  0  0  0  0  0  0  0  0  0
   59.8440   30.0700   48.4000 O   0  0  0  0  0  0  0  0  0  0  0  0
   61.7690   30.8320   49.4790 N   0  0  0  0  0  0  0  0  0  0  0  0
   62.1320   31.8660   48.5480 C   0  0  0  0  0  0  0  0  0  0  0  0
   63.4380   31.9070   48.0390 C   0  0  0  0  0  0  0  0  0  0  0  0
   63.8070   32.8840   47.1110 C   0  0  0  0  0  0  0  0  0  0  0  0
   62.8710   33.8220   46.6730 C   0  0  0  0  0  0  0  0  0  0  0  0
   61.5550   33.7880   47.1590 C   0  0  0  0  0  0  0  0  0  0  0  0
   60.5410   34.7750   46.6430 C   0  0  0  0  0  0  0  0  0  0  0  0
   59.4170   34.0630   46.0050 N   0  0  0  0  0  0  0  0  0  0  0  0
   58.7990   34.8950   44.9530 C   0  0  0  0  0  0  0  0  0  0  0  0
   57.4200   34.3520   44.5140 C   0  0  0  0  0  0  0  0  0  0  0  0
   57.2370   32.9310   44.8720 N   0  0  0  0  0  0  0  0  0  0  0  0
   58.1100   32.0380   44.0790 C   0  0  0  0  0  0  0  0  0  0  0  0
   58.0480   30.6340   44.6230 C   0  0  0  0  0  0  0  0  0  0  0  0
   56.8570   29.8980   44.5250 C   0  0  0  0  0  0  0  0  0  0  0  0
   56.7860   28.5990   45.0380 C   0  0  0  0  0  0  0  0  0  0  0  0
   57.9060   28.0270   45.6560 C   0  0  0  0  0  0  0  0  0  0  0  0
   57.8330   26.6900   46.1850 C   0  0  0  0  0  0  0  0  0  0  0  0
   57.7740   25.6150   46.6100 N   0  0  0  0  0  0  0  0  0  0  0  0
   59.0950   28.7590   45.7590 C   0  0  0  0  0  0  0  0  0  0  0  0
   59.1660   30.0570   45.2450 C   0  0  0  0  0  0  0  0  0  0  0  0
   57.3720   32.7160   46.3350 C   0  0  0  0  0  0  0  0  0  0  0  0
   58.4050   33.6510   46.9950 C   0  0  0  0  0  0  0  0  0  0  0  0
   61.1880   32.8030   48.0890 C   0  0  0  0  0  0  0  0  0  0  0  0
   60.3998   25.9062   47.8264 H   0  0  0  0  0  0  0  0  0  0  0  0
   59.9010   27.5921   47.4580 H   0  0  0  0  0  0  0  0  0  0  0  0
   61.6421   27.1503   47.4580 H   0  0  0  0  0  0  0  0  0  0  0  0
   60.8362   26.5242   52.4777 H   0  0  0  0  0  0  0  0  0  0  0  0
   60.8373   29.1777   52.0514 H   0  0  0  0  0  0  0  0  0  0  0  0
   62.1640   30.8740   50.4450 H   0  0  0  0  0  0  0  0  0  0  0  0
   64.1775   31.1643   48.3729 H   0  0  0  0  0  0  0  0  0  0  0  0
   64.8366   32.9140   46.7250 H   0  0  0  0  0  0  0  0  0  0  0  0
   63.1660   34.5910   45.9439 H   0  0  0  0  0  0  0  0  0  0  0  0
   60.1609   35.3774   47.4812 H   0  0  0  0  0  0  0  0  0  0  0  0
   61.0212   35.4279   45.8993 H   0  0  0  0  0  0  0  0  0  0  0  0
   58.6707   35.9169   45.3393 H   0  0  0  0  0  0  0  0  0  0  0  0
   59.4630   34.8789   44.0762 H   0  0  0  0  0  0  0  0  0  0  0  0
   56.6340   34.9445   45.0050 H   0  0  0  0  0  0  0  0  0  0  0  0
   57.3596   34.4334   43.4187 H   0  0  0  0  0  0  0  0  0  0  0  0
   57.7739   32.0372   43.0316 H   0  0  0  0  0  0  0  0  0  0  0  0
   59.1464   32.4016   44.1400 H   0  0  0  0  0  0  0  0  0  0  0  0
   55.9753   30.3450   44.0425 H   0  0  0  0  0  0  0  0  0  0  0  0
   55.8506   28.0260   44.9563 H   0  0  0  0  0  0  0  0  0  0  0  0
   59.9747   28.3120   46.2452 H   0  0  0  0  0  0  0  0  0  0  0  0
   60.1021   30.6286   45.3284 H   0  0  0  0  0  0  0  0  0  0  0  0
   56.3929   32.8896   46.8054 H   0  0  0  0  0  0  0  0  0  0  0  0
   57.7248   31.6845   46.4820 H   0  0  0  0  0  0  0  0  0  0  0  0
   57.8924   34.5428   47.3848 H   0  0  0  0  0  0  0  0  0  0  0  0
   58.9017   33.1166   47.8182 H   0  0  0  0  0  0  0  0  0  0  0  0
   60.1540   32.7632   48.4621 H   0  0  0  0  0  0  0  0  0  0  0  0
  1  2  1  0
  2  3  1  0
  3  4  2  0
  4  5  1  0
  5  6  2  0
  6  7  1  0
  7  8  2  0
  7  9  1  0
  9 10  1  0
 10 11  2  0
 11 12  1  0
 12 13  2  0
 13 14  1  0
 14 15  1  0
 15 16  1  0
 16 17  1  0
 17 18  1  0
 18 19  1  0
 19 20  1  0
 20 21  1  0
 21 22  2  0
 22 23  1  0
 23 24  2  0
 24 25  1  0
 25 26  3  0
 24 27  1  0
 27 28  2  0
 19 29  1  0
 29 30  1  0
 14 31  2  0
  6  2  1  0
 31 10  1  0
 30 16  1  0
 28 21  1  0
  1 32  1  0
  1 33  1  0
  1 34  1  0
  4 35  1  0
  5 36  1  0
  9 37  1  0
 11 38  1  0
 12 39  1  0
 13 40  1  0
 15 41  1  0
 15 42  1  0
 17 43  1  0
 17 44  1  0
 18 45  1  0
 18 46  1  0
 20 47  1  0
 20 48  1  0
 22 49  1  0
 23 50  1  0
 27 51  1  0
 28 52  1  0
 29 53  1  0
 29 54  1  0
 30 55  1  0
 30 56  1  0
 31 57  1  0
M  END
>  <UniqueID>  (57) 
54

>  <SMILES>  (57) 
Cn1nccc1C(=O)Nc1cccc(CN2CCN(Cc3ccc(C#N)cc3)CC2)c1

>  <Energy>  (57) 
104.49995981885309

>  <Genealogy>  (57) 
Cn1nccc1C(=O)Nc1cccc(CN2CCN(Cc3ccc(C#N)cc3)CC2)c1 (3D coordinates assigned)
Cn1nccc1C(=O)Nc1cccc(CN2CCN(Cc3ccc(C#N)cc3)CC2)c1 (nonaromatic ring conformer: 104.49995981885309 kcal/mol)

>  <smiles>  (57) 
Cn1nccc1C(=O)Nc1cccc(CN2CCN(Cc3ccc(C#N)cc3)CC2)c1

>  <score_type>  (57) 
oracle

>  <origin>  (57) 
adg

>  <m_score__min__energy>  (57) 
-8.5800000000000001

>  <m_primary>  (57) 
energy

$$$$
57:0
     RDKit          3D

 47 50  0  0  0  0  0  0  0  0999 V2000
   56.3350   30.9030   44.3290 O   0  0  0  0  0  0  0  0  0  0  0  0
   56.2870   29.7480   44.8270 C   0  0  0  0  0  0  0  0  0  0  0  0
   55.1480   28.9750   44.6270 O   0  0  0  0  0  0  0  0  0  0  0  0
   57.4210   29.2210   45.6180 C   0  0  0  0  0  0  0  0  0  0  0  0
   58.5170   30.0420   45.9330 C   0  0  0  0  0  0  0  0  0  0  0  0
   59.5870   29.5390   46.6750 C   0  0  0  0  0  0  0  0  0  0  0  0
   59.5820   28.2060   47.1170 C   0  0  0  0  0  0  0  0  0  0  0  0
   60.7600   27.6480   47.8730 C   0  0  0  0  0  0  0  0  0  0  0  0
   60.4280   27.5040   49.6690 S   0  0  0  0  0  0  0  0  0  0  0  0
   60.5850   29.2550   50.0020 C   0  0  0  0  0  0  0  0  0  0  0  0
   61.6960   29.8210   50.5150 N   0  0  0  0  0  0  0  0  0  0  0  0
   61.4440   31.1170   50.5410 N   0  0  0  0  0  0  0  0  0  0  0  0
   60.2070   31.2980   50.0470 C   0  0  0  0  0  0  0  0  0  0  0  0
   59.5760   32.6320   49.8040 C   0  0  0  0  0  0  0  0  0  0  0  0
   59.6950   32.9790   48.3720 N   0  0  0  0  0  0  0  0  0  0  0  0
   60.9070   33.3580   47.8300 C   0  0  0  0  0  0  0  0  0  0  0  0
   62.1640   33.3200   48.6060 C   0  0  0  0  0  0  0  0  0  0  0  0
   62.3580   34.2060   49.6760 C   0  0  0  0  0  0  0  0  0  0  0  0
   63.5530   34.1830   50.4000 C   0  0  0  0  0  0  0  0  0  0  0  0
   64.5670   33.2870   50.0470 C   0  0  0  0  0  0  0  0  0  0  0  0
   66.0660   33.2600   50.9530 Cl  0  0  0  0  0  0  0  0  0  0  0  0
   64.3870   32.4160   48.9660 C   0  0  0  0  0  0  0  0  0  0  0  0
   63.1890   32.4340   48.2460 C   0  0  0  0  0  0  0  0  0  0  0  0
   60.9780   33.8070   46.5030 C   0  0  0  0  0  0  0  0  0  0  0  0
   59.8280   33.8570   45.7280 C   0  0  0  0  0  0  0  0  0  0  0  0
   58.6130   33.4680   46.2720 C   0  0  0  0  0  0  0  0  0  0  0  0
   58.5550   33.0370   47.6000 C   0  0  0  0  0  0  0  0  0  0  0  0
   57.4340   32.7110   48.0790 O   0  0  0  0  0  0  0  0  0  0  0  0
   59.6650   30.1500   49.7210 O   0  0  0  0  0  0  0  0  0  0  0  0
   58.4910   27.3840   46.8030 C   0  0  0  0  0  0  0  0  0  0  0  0
   57.4180   27.8870   46.0610 C   0  0  0  0  0  0  0  0  0  0  0  0
   58.5319   31.0879   45.5926 H   0  0  0  0  0  0  0  0  0  0  0  0
   60.4398   30.1910   46.9151 H   0  0  0  0  0  0  0  0  0  0  0  0
   60.9948   26.6496   47.4754 H   0  0  0  0  0  0  0  0  0  0  0  0
   61.6037   28.3413   47.7411 H   0  0  0  0  0  0  0  0  0  0  0  0
   62.1120   31.8500   50.8650 H   0  0  0  0  0  0  0  0  0  0  0  0
   58.5131   32.5916   50.0845 H   0  0  0  0  0  0  0  0  0  0  0  0
   60.0861   33.3951   50.4102 H   0  0  0  0  0  0  0  0  0  0  0  0
   61.5670   34.9211   49.9460 H   0  0  0  0  0  0  0  0  0  0  0  0
   63.6960   34.8696   51.2474 H   0  0  0  0  0  0  0  0  0  0  0  0
   65.1883   31.7174   48.6832 H   0  0  0  0  0  0  0  0  0  0  0  0
   63.0502   31.7512   47.3948 H   0  0  0  0  0  0  0  0  0  0  0  0
   61.9433   34.1188   46.0776 H   0  0  0  0  0  0  0  0  0  0  0  0
   59.8799   34.2041   44.6855 H   0  0  0  0  0  0  0  0  0  0  0  0
   57.6990   33.4986   45.6608 H   0  0  0  0  0  0  0  0  0  0  0  0
   58.4789   26.3376   47.1421 H   0  0  0  0  0  0  0  0  0  0  0  0
   56.5655   27.2342   45.8222 H   0  0  0  0  0  0  0  0  0  0  0  0
  1  2  2  0
  2  3  1  0
  2  4  1  0
  4  5  2  0
  5  6  1  0
  6  7  2  0
  7  8  1  0
  8  9  1  0
  9 10  1  0
 10 11  2  0
 11 12  1  0
 12 13  2  0
 13 14  1  0
 14 15  1  0
 15 16  1  0
 16 17  1  0
 17 18  2  0
 18 19  1  0
 19 20  2  0
 20 21  1  0
 20 22  1  0
 22 23  2  0
 16 24  2  0
 24 25  1  0
 25 26  2  0
 26 27  1  0
 27 28  2  0
 13 29  1  0
  7 30  1  0
 30 31  2  0
 31  4  1  0
 29 10  1  0
 27 15  1  0
 23 17  1  0
  5 32  1  0
  6 33  1  0
  8 34  1  0
  8 35  1  0
 12 36  1  0
 14 37  1  0
 14 38  1  0
 18 39  1  0
 19 40  1  0
 22 41  1  0
 23 42  1  0
 24 43  1  0
 25 44  1  0
 26 45  1  0
 30 46  1  0
 31 47  1  0
M  CHG  2   3  -1  12   1
M  END
>  <UniqueID>  (58) 
55

>  <SMILES>  (58) 
O=C([O-])c1ccc(CSc2n[nH+]c(Cn3c(-c4ccc(Cl)cc4)cccc3=O)o2)cc1

>  <Energy>  (58) 
91.21854156093995

>  <Genealogy>  (58) 
O=C([O-])c1ccc(CSc2n[nH+]c(Cn3c(-c4ccc(Cl)cc4)cccc3=O)o2)cc1 (protonated)
O=C([O-])c1ccc(CSc2n[nH+]c(Cn3c(-c4ccc(Cl)cc4)cccc3=O)o2)cc1 (3D coordinates assigned)
O=C([O-])c1ccc(CSc2n[nH+]c(Cn3c(-c4ccc(Cl)cc4)cccc3=O)o2)cc1 (optimized conformer: 91.21854156093995 kcal/mol)

>  <smiles>  (58) 
O=C(O)c1ccc(CSc2nnc(Cn3c(-c4ccc(Cl)cc4)cccc3=O)o2)cc1

>  <score_type>  (58) 
oracle

>  <origin>  (58) 
adg

>  <m_score__min__energy>  (58) 
-11.94

>  <m_primary>  (58) 
energy

$$$$
58:0
     RDKit          3D

 38 40  0  0  0  0  0  0  0  0999 V2000
   56.7700   20.9900   43.4090 H   0  0  0  0  0  0  0  0  0  0  0  0
   56.1300   21.8150   43.3500 N   0  0  0  0  0  0  0  0  0  0  0  0
   56.4910   22.9830   43.7750 C   0  0  0  0  0  0  0  0  0  0  0  0
   56.4000   23.2810   45.1070 N   0  0  0  0  0  0  0  0  0  0  0  0
   56.7940   24.5070   45.5270 C   0  0  0  0  0  0  0  0  0  0  0  0
   57.2880   25.4460   44.6690 C   0  0  0  0  0  0  0  0  0  0  0  0
   57.6090   26.5530   45.4400 C   0  0  0  0  0  0  0  0  0  0  0  0
   58.2790   27.8310   45.0140 C   0  0  0  0  0  0  0  0  0  0  0  0
   58.4574   28.4529   45.9036 H   0  0  0  0  0  0  0  0  0  0  0  0
   59.2249   27.5711   44.5163 H   0  0  0  0  0  0  0  0  0  0  0  0
   57.4200   28.6220   44.0200 C   0  0  0  0  0  0  0  0  0  0  0  0
   58.0826   29.2117   43.3694 H   0  0  0  0  0  0  0  0  0  0  0  0
   56.8263   27.9021   43.4375 H   0  0  0  0  0  0  0  0  0  0  0  0
   56.4690   29.5520   44.7120 C   0  0  0  0  0  0  0  0  0  0  0  0
   55.2560   29.2290   44.8300 O   0  0  0  0  0  0  0  0  0  0  0  0
   56.9460   30.7930   45.2440 N   0  0  0  0  0  0  0  0  0  0  0  0
   57.3280   31.9300   44.4120 C   0  0  0  0  0  0  0  0  0  0  0  0
   58.0196   31.5878   43.6281 H   0  0  0  0  0  0  0  0  0  0  0  0
   56.4212   32.3584   43.9600 H   0  0  0  0  0  0  0  0  0  0  0  0
   58.0040   32.9900   45.2390 C   0  0  0  0  0  0  0  0  0  0  0  0
   58.7180   34.0220   44.6100 C   0  0  0  0  0  0  0  0  0  0  0  0
   58.7841   34.0526   43.5124 H   0  0  0  0  0  0  0  0  0  0  0  0
   59.3460   35.0120   45.3740 C   0  0  0  0  0  0  0  0  0  0  0  0
   59.8969   35.8234   44.8759 H   0  0  0  0  0  0  0  0  0  0  0  0
   59.2740   34.9710   46.7700 C   0  0  0  0  0  0  0  0  0  0  0  0
   59.7643   35.7524   47.3692 H   0  0  0  0  0  0  0  0  0  0  0  0
   58.5790   33.9370   47.4040 C   0  0  0  0  0  0  0  0  0  0  0  0
   58.5306   33.9002   48.5023 H   0  0  0  0  0  0  0  0  0  0  0  0
   57.9450   32.9490   46.6430 C   0  0  0  0  0  0  0  0  0  0  0  0
   57.3983   32.1371   47.1450 H   0  0  0  0  0  0  0  0  0  0  0  0
   57.2810   26.2020   46.7500 C   0  0  0  0  0  0  0  0  0  0  0  0
   57.4113   26.8560   47.6249 H   0  0  0  0  0  0  0  0  0  0  0  0
   56.7810   24.9470   46.7950 N   0  0  0  0  0  0  0  0  0  0  0  0
   56.4670   24.4240   47.6420 H   0  0  0  0  0  0  0  0  0  0  0  0
   57.3800   25.1520   43.3100 C   0  0  0  0  0  0  0  0  0  0  0  0
   57.8210   25.9930   42.4830 O   0  0  0  0  0  0  0  0  0  0  0  0
   56.9680   23.9160   42.8880 N   0  0  0  0  0  0  0  0  0  0  0  0
   57.0200   23.6800   41.8710 H   0  0  0  0  0  0  0  0  0  0  0  0
  1  2  1  0
  2  3  2  0
  3  4  1  0
  4  5  1  0
  5  6  2  0
  6  7  1  0
  7  8  1  0
  8  9  1  0
  8 10  1  0
  8 11  1  0
 11 12  1  0
 11 13  1  0
 11 14  1  0
 14 15  2  0
 14 16  1  0
 16 17  1  0
 17 18  1  0
 17 19  1  0
 17 20  1  0
 20 21  2  0
 21 22  1  0
 21 23  1  0
 23 24  1  0
 23 25  2  0
 25 26  1  0
 25 27  1  0
 27 28  1  0
 27 29  2  0
 29 30  1  0
  7 31  2  0
 31 32  1  0
 31 33  1  0
 33 34  1  0
  6 35  1  0
 35 36  2  0
 35 37  1  0
 37 38  1  0
 37  3  1  0
 33  5  1  0
 29 20  1  0
M  CHG  2   4  -1  16  -1
M  END
>  <UniqueID>  (59) 
56

>  <SMILES>  (59) 
[H]/N=c1\[n-]c2[nH]cc(CCC(=O)[N-]Cc3ccccc3)c2c(=O)[nH]1

>  <Energy>  (59) 
67.11121093254287

>  <Genealogy>  (59) 
N=c1[n-]c2[nH]cc(CCC(=O)[N-]Cc3ccccc3)c2c(=O)[nH]1 (protonated)
[H]/N=c1\[n-]c2[nH]cc(CCC(=O)[N-]Cc3ccccc3)c2c(=O)[nH]1 (cis-trans isomerization)
[H]/N=c1\[n-]c2[nH]cc(CCC(=O)[N-]Cc3ccccc3)c2c(=O)[nH]1 (3D coordinates assigned)
[H]/N=c1\[n-]c2[nH]cc(CCC(=O)[N-]Cc3ccccc3)c2c(=O)[nH]1 (optimized conformer: 67.11121093254287 kcal/mol)

>  <smiles>  (59) 
N=c1[nH]c(=O)c2c(CCC(=O)NCc3ccccc3)c[nH]c2[nH]1

>  <score_type>  (59) 
oracle

>  <origin>  (59) 
adg

>  <m_score__min__energy>  (59) 
-11.34

>  <m_primary>  (59) 
energy

$$$$
59:0
     RDKit          3D

 40 42  0  0  0  0  0  0  0  0999 V2000
   64.0510   32.4260   46.7160 N   0  0  0  0  0  0  0  0  0  0  0  0
   63.3720   32.5810   48.2970 S   0  0  0  0  0  0  0  0  0  0  0  0
   63.4490   31.2380   48.9670 O   0  0  0  0  0  0  0  0  0  0  0  0
   64.0800   33.6440   49.0950 O   0  0  0  0  0  0  0  0  0  0  0  0
   61.7100   33.0890   48.1020 C   0  0  0  0  0  0  0  0  0  0  0  0
   61.2370   34.2230   48.7720 C   0  0  0  0  0  0  0  0  0  0  0  0
   59.9140   34.5740   48.5780 C   0  0  0  0  0  0  0  0  0  0  0  0
   59.0710   33.8290   47.7460 C   0  0  0  0  0  0  0  0  0  0  0  0
   59.5560   32.7140   47.0940 C   0  0  0  0  0  0  0  0  0  0  0  0
   58.6200   31.9870   46.2430 C   0  0  0  0  0  0  0  0  0  0  0  0
   57.3970   32.2690   46.3330 O   0  0  0  0  0  0  0  0  0  0  0  0
   59.0760   30.9740   45.3250 N   0  0  0  0  0  0  0  0  0  0  0  0
   58.0560   30.3440   44.5550 C   0  0  0  0  0  0  0  0  0  0  0  0
   57.4970   29.0940   44.6700 C   0  0  0  0  0  0  0  0  0  0  0  0
   57.8370   28.0590   45.6430 C   0  0  0  0  0  0  0  0  0  0  0  0
   59.0950   27.9340   46.2000 C   0  0  0  0  0  0  0  0  0  0  0  0
   59.4140   26.9580   47.1340 C   0  0  0  0  0  0  0  0  0  0  0  0
   58.4720   26.0480   47.5550 C   0  0  0  0  0  0  0  0  0  0  0  0
   57.2120   26.1520   47.0140 C   0  0  0  0  0  0  0  0  0  0  0  0
   56.8940   27.1410   46.0710 C   0  0  0  0  0  0  0  0  0  0  0  0
   55.5880   27.1180   45.6190 O   0  0  0  0  0  0  0  0  0  0  0  0
   56.5650   29.0360   43.7000 N   0  0  0  0  0  0  0  0  0  0  0  0
   56.5440   30.1870   43.0130 N   0  0  0  0  0  0  0  0  0  0  0  0
   57.4480   31.0410   43.4970 C   0  0  0  0  0  0  0  0  0  0  0  0
   57.7000   32.2060   43.0970 O   0  0  0  0  0  0  0  0  0  0  0  0
   60.8570   32.3700   47.2860 C   0  0  0  0  0  0  0  0  0  0  0  0
   64.8790   33.0730   46.6910 H   0  0  0  0  0  0  0  0  0  0  0  0
   64.4580   31.4500   46.6270 H   0  0  0  0  0  0  0  0  0  0  0  0
   61.8934   34.8130   49.4285 H   0  0  0  0  0  0  0  0  0  0  0  0
   59.5140   35.4613   49.0906 H   0  0  0  0  0  0  0  0  0  0  0  0
   58.0221   34.1321   47.6118 H   0  0  0  0  0  0  0  0  0  0  0  0
   60.0890   30.7370   45.2460 H   0  0  0  0  0  0  0  0  0  0  0  0
   59.8794   28.6399   45.8893 H   0  0  0  0  0  0  0  0  0  0  0  0
   60.4340   26.9115   47.5432 H   0  0  0  0  0  0  0  0  0  0  0  0
   58.7164   25.2700   48.2932 H   0  0  0  0  0  0  0  0  0  0  0  0
   56.4334   25.4415   47.3287 H   0  0  0  0  0  0  0  0  0  0  0  0
   54.8080   27.4730   46.1720 H   0  0  0  0  0  0  0  0  0  0  0  0
   55.9140   28.2690   43.4370 H   0  0  0  0  0  0  0  0  0  0  0  0
   55.9220   30.4310   42.2010 H   0  0  0  0  0  0  0  0  0  0  0  0
   61.2479   31.4809   46.7696 H   0  0  0  0  0  0  0  0  0  0  0  0
  1  2  1  0
  2  3  2  0
  2  4  2  0
  2  5  1  0
  5  6  2  0
  6  7  1  0
  7  8  2  0
  8  9  1  0
  9 10  1  0
 10 11  2  0
 10 12  1  0
 12 13  1  0
 13 14  2  0
 14 15  1  0
 15 16  2  0
 16 17  1  0
 17 18  2  0
 18 19  1  0
 19 20  2  0
 20 21  1  0
 14 22  1  0
 22 23  1  0
 23 24  1  0
 24 25  2  0
  9 26  2  0
 26  5  1  0
 24 13  1  0
 20 15  1  0
  1 27  1  0
  1 28  1  0
  6 29  1  0
  7 30  1  0
  8 31  1  0
 12 32  1  0
 16 33  1  0
 17 34  1  0
 18 35  1  0
 19 36  1  0
 21 37  1  0
 22 38  1  0
 23 39  1  0
 26 40  1  0
M  END
>  <smiles>  (60) 
NS(=O)(=O)c1cccc(C(=O)Nc2c(-c3ccccc3O)[nH][nH]c2=O)c1

>  <score_type>  (60) 
oracle

>  <origin>  (60) 
adg

>  <m_score__min__energy>  (60) 
-10.35

>  <m_primary>  (60) 
energy

$$$$
60:0
     RDKit          3D

 58 61  0  0  0  0  0  0  0  0999 V2000
   57.5710   30.7190   43.0680 O   0  0  0  0  0  0  0  0  0  0  0  0
   56.6040   30.7780   43.8730 C   0  0  0  0  0  0  0  0  0  0  0  0
   55.5630   29.6870   43.7970 C   0  0  0  0  0  0  0  0  0  0  0  0
   55.5610   28.8070   44.9180 O   0  0  0  0  0  0  0  0  0  0  0  0
   56.6410   28.0360   45.3760 C   0  0  0  0  0  0  0  0  0  0  0  0
   57.9720   28.4840   45.3100 C   0  0  0  0  0  0  0  0  0  0  0  0
   59.0160   27.6420   45.7080 C   0  0  0  0  0  0  0  0  0  0  0  0
   58.7410   26.3510   46.1650 C   0  0  0  0  0  0  0  0  0  0  0  0
   57.4190   25.9100   46.2530 C   0  0  0  0  0  0  0  0  0  0  0  0
   56.3640   26.7640   45.8980 C   0  0  0  0  0  0  0  0  0  0  0  0
   54.9980   26.3340   45.9850 N   0  0  0  0  0  0  0  0  0  0  0  0
   54.4900   25.0180   45.7210 C   0  0  0  0  0  0  0  0  0  0  0  0
   53.3240   24.9090   45.2520 O   0  0  0  0  0  0  0  0  0  0  0  0
   55.2400   23.7710   46.1140 C   0  0  0  0  0  0  0  0  0  0  0  0
   55.9100   23.1470   44.9260 C   0  0  0  0  0  0  0  0  0  0  0  0
   55.5910   23.3660   43.5900 C   0  0  0  0  0  0  0  0  0  0  0  0
   56.3700   22.6080   42.7060 C   0  0  0  0  0  0  0  0  0  0  0  0
   57.3030   21.7960   43.3390 C   0  0  0  0  0  0  0  0  0  0  0  0
   57.1560   22.0180   45.0000 S   0  0  0  0  0  0  0  0  0  0  0  0
   56.5200   31.9160   44.7450 N   0  0  0  0  0  0  0  0  0  0  0  0
   57.4370   32.3560   45.7540 C   0  0  0  0  0  0  0  0  0  0  0  0
   58.1470   31.3880   46.4760 C   0  0  0  0  0  0  0  0  0  0  0  0
   59.0180   31.7630   47.5010 C   0  0  0  0  0  0  0  0  0  0  0  0
   59.1990   33.1170   47.8130 C   0  0  0  0  0  0  0  0  0  0  0  0
   60.2740   33.5810   49.1360 S   0  0  0  0  0  0  0  0  0  0  0  0
   59.8930   34.9520   49.6260 O   0  0  0  0  0  0  0  0  0  0  0  0
   60.0880   32.6150   50.2730 O   0  0  0  0  0  0  0  0  0  0  0  0
   61.9540   33.6040   48.6580 N   0  0  0  0  0  0  0  0  0  0  0  0
   62.7230   32.5750   49.3730 C   0  0  0  0  0  0  0  0  0  0  0  0
   64.2040   32.6280   48.9380 C   0  0  0  0  0  0  0  0  0  0  0  0
   64.4190   33.5680   47.8950 O   0  0  0  0  0  0  0  0  0  0  0  0
   63.5640   33.2810   46.8030 C   0  0  0  0  0  0  0  0  0  0  0  0
   62.0780   33.3990   47.2080 C   0  0  0  0  0  0  0  0  0  0  0  0
   58.4800   34.0900   47.1000 C   0  0  0  0  0  0  0  0  0  0  0  0
   57.5860   33.7120   46.0910 C   0  0  0  0  0  0  0  0  0  0  0  0
   54.5720   30.1591   43.7264 H   0  0  0  0  0  0  0  0  0  0  0  0
   55.8061   29.0769   42.9146 H   0  0  0  0  0  0  0  0  0  0  0  0
   58.1928   29.4979   44.9450 H   0  0  0  0  0  0  0  0  0  0  0  0
   60.0559   27.9975   45.6609 H   0  0  0  0  0  0  0  0  0  0  0  0
   59.5649   25.6825   46.4552 H   0  0  0  0  0  0  0  0  0  0  0  0
   57.2040   24.8892   46.6020 H   0  0  0  0  0  0  0  0  0  0  0  0
   56.0038   24.0317   46.8614 H   0  0  0  0  0  0  0  0  0  0  0  0
   54.5227   23.0484   46.5302 H   0  0  0  0  0  0  0  0  0  0  0  0
   54.8067   24.0635   43.2609 H   0  0  0  0  0  0  0  0  0  0  0  0
   56.2538   22.6516   41.6130 H   0  0  0  0  0  0  0  0  0  0  0  0
   58.0157   21.1232   42.8396 H   0  0  0  0  0  0  0  0  0  0  0  0
   58.0172   30.3230   46.2333 H   0  0  0  0  0  0  0  0  0  0  0  0
   59.5640   30.9928   48.0655 H   0  0  0  0  0  0  0  0  0  0  0  0
   62.6543   32.7552   50.4560 H   0  0  0  0  0  0  0  0  0  0  0  0
   62.3107   31.5836   49.1339 H   0  0  0  0  0  0  0  0  0  0  0  0
   64.8187   32.9124   49.8047 H   0  0  0  0  0  0  0  0  0  0  0  0
   64.4833   31.6329   48.5614 H   0  0  0  0  0  0  0  0  0  0  0  0
   63.7712   33.9915   45.9892 H   0  0  0  0  0  0  0  0  0  0  0  0
   63.7538   32.2482   46.4754 H   0  0  0  0  0  0  0  0  0  0  0  0
   61.6262   34.2528   46.6818 H   0  0  0  0  0  0  0  0  0  0  0  0
   61.5600   32.4678   46.9350 H   0  0  0  0  0  0  0  0  0  0  0  0
   58.6200   35.1553   47.3356 H   0  0  0  0  0  0  0  0  0  0  0  0
   56.9996   34.4774   45.5615 H   0  0  0  0  0  0  0  0  0  0  0  0
  1  2  2  0
  2  3  1  0
  3  4  1  0
  4  5  1  0
  5  6  2  0
  6  7  1  0
  7  8  2  0
  8  9  1  0
  9 10  2  0
 10 11  1  0
 11 12  1  0
 12 13  2  0
 12 14  1  0
 14 15  1  0
 15 16  2  0
 16 17  1  0
 17 18  2  0
 18 19  1  0
  2 20  1  0
 20 21  1  0
 21 22  2  0
 22 23  1  0
 23 24  2  0
 24 25  1  0
 25 26  2  0
 25 27  2  0
 25 28  1  0
 28 29  1  0
 29 30  1  0
 30 31  1  0
 31 32  1  0
 32 33  1  0
 24 34  1  0
 34 35  2  0
 10  5  1  0
 19 15  1  0
 35 21  1  0
 33 28  1  0
  3 36  1  0
  3 37  1  0
  6 38  1  0
  7 39  1  0
  8 40  1  0
  9 41  1  0
 14 42  1  0
 14 43  1  0
 16 44  1  0
 17 45  1  0
 18 46  1  0
 22 47  1  0
 23 48  1  0
 29 49  1  0
 29 50  1  0
 30 51  1  0
 30 52  1  0
 32 53  1  0
 32 54  1  0
 33 55  1  0
 33 56  1  0
 34 57  1  0
 35 58  1  0
M  CHG  2  11  -1  20  -1
M  END
>  <UniqueID>  (61) 
57

>  <SMILES>  (61) 
O=C(COc1ccccc1[N-]C(=O)Cc1cccs1)[N-]c1ccc(S(=O)(=O)N2CCOCC2)cc1

>  <Energy>  (61) 
98.59603123406124

>  <Genealogy>  (61) 
O=C(COc1ccccc1[N-]C(=O)Cc1cccs1)[N-]c1ccc(S(=O)(=O)N2CCOCC2)cc1 (protonated)
O=C(COc1ccccc1[N-]C(=O)Cc1cccs1)[N-]c1ccc(S(=O)(=O)N2CCOCC2)cc1 (3D coordinates assigned)
O=C(COc1ccccc1[N-]C(=O)Cc1cccs1)[N-]c1ccc(S(=O)(=O)N2CCOCC2)cc1 (nonaromatic ring conformer: 98.59603123406124 kcal/mol)

>  <smiles>  (61) 
O=C(COc1ccccc1NC(=O)Cc1cccs1)Nc1ccc(S(=O)(=O)N2CCOCC2)cc1

>  <score_type>  (61) 
oracle

>  <origin>  (61) 
adg

>  <m_score__min__energy>  (61) 
-14.08

>  <m_primary>  (61) 
energy

$$$$
61:0
     RDKit          3D

 53 56  0  0  0  0  0  0  0  0999 V2000
   57.3280   29.7840   43.7290 C   0  0  0  0  0  0  0  0  0  0  0  0
   57.6810   30.2920   45.1270 C   0  0  0  0  0  0  0  0  0  0  0  0
   58.0740   29.1670   45.9960 N   0  0  0  0  0  0  0  0  0  0  0  0
   59.2890   29.1540   46.6540 C   0  0  0  0  0  0  0  0  0  0  0  0
   60.0710   30.1380   46.5310 O   0  0  0  0  0  0  0  0  0  0  0  0
   59.6570   28.0760   47.4440 N   0  0  0  0  0  0  0  0  0  0  0  0
   60.9570   28.0750   48.1500 C   0  0  0  0  0  0  0  0  0  0  0  0
   60.8000   28.4980   49.6170 C   0  0  0  0  0  0  0  0  0  0  0  0
   61.2160   29.9320   49.8220 C   0  0  0  0  0  0  0  0  0  0  0  0
   62.4540   30.1830   49.9140 O   0  0  0  0  0  0  0  0  0  0  0  0
   60.2570   31.0070   49.9360 N   0  0  0  0  0  0  0  0  0  0  0  0
   58.8920   30.8540   49.4070 C   0  0  0  0  0  0  0  0  0  0  0  0
   58.1690   32.2110   49.3110 C   0  0  0  0  0  0  0  0  0  0  0  0
   59.0990   33.2190   48.7810 N   0  0  0  0  0  0  0  0  0  0  0  0
   58.8940   33.8290   47.4880 C   0  0  0  0  0  0  0  0  0  0  0  0
   59.7810   34.8160   47.0170 C   0  0  0  0  0  0  0  0  0  0  0  0
   59.6310   35.3550   45.7320 C   0  0  0  0  0  0  0  0  0  0  0  0
   58.6020   34.9110   44.9020 C   0  0  0  0  0  0  0  0  0  0  0  0
   57.7130   33.9340   45.3570 C   0  0  0  0  0  0  0  0  0  0  0  0
   57.8560   33.3950   46.6440 C   0  0  0  0  0  0  0  0  0  0  0  0
   60.3840   33.4240   49.4750 C   0  0  0  0  0  0  0  0  0  0  0  0
   60.6570   32.3090   50.5010 C   0  0  0  0  0  0  0  0  0  0  0  0
   58.8230   26.9880   47.5580 C   0  0  0  0  0  0  0  0  0  0  0  0
   59.1400   25.9860   48.2520 O   0  0  0  0  0  0  0  0  0  0  0  0
   57.6120   27.0100   46.8890 C   0  0  0  0  0  0  0  0  0  0  0  0
   56.5820   26.1000   46.8260 C   0  0  0  0  0  0  0  0  0  0  0  0
   55.6430   26.7110   46.0030 C   0  0  0  0  0  0  0  0  0  0  0  0
   54.4160   26.1510   45.6650 O   0  0  0  0  0  0  0  0  0  0  0  0
   56.0440   27.9270   45.5640 N   0  0  0  0  0  0  0  0  0  0  0  0
   57.2610   28.0820   46.1280 C   0  0  0  0  0  0  0  0  0  0  0  0
   56.7021   28.8833   43.8134 H   0  0  0  0  0  0  0  0  0  0  0  0
   56.7764   30.5641   43.1839 H   0  0  0  0  0  0  0  0  0  0  0  0
   58.2515   29.5391   43.1839 H   0  0  0  0  0  0  0  0  0  0  0  0
   58.5167   31.0036   45.0543 H   0  0  0  0  0  0  0  0  0  0  0  0
   56.8002   30.7884   45.5604 H   0  0  0  0  0  0  0  0  0  0  0  0
   61.3828   27.0614   48.1138 H   0  0  0  0  0  0  0  0  0  0  0  0
   61.6212   28.7965   47.6517 H   0  0  0  0  0  0  0  0  0  0  0  0
   59.7461   28.3852   49.9114 H   0  0  0  0  0  0  0  0  0  0  0  0
   61.4476   27.8575   50.2338 H   0  0  0  0  0  0  0  0  0  0  0  0
   58.9454   30.4056   48.4040 H   0  0  0  0  0  0  0  0  0  0  0  0
   58.3255   30.2086   50.0944 H   0  0  0  0  0  0  0  0  0  0  0  0
   57.3033   32.1197   48.6385 H   0  0  0  0  0  0  0  0  0  0  0  0
   57.8233   32.5165   50.3096 H   0  0  0  0  0  0  0  0  0  0  0  0
   60.5989   35.1671   47.6633 H   0  0  0  0  0  0  0  0  0  0  0  0
   60.3264   36.1300   45.3773 H   0  0  0  0  0  0  0  0  0  0  0  0
   58.4905   35.3293   43.8908 H   0  0  0  0  0  0  0  0  0  0  0  0
   56.8987   33.5865   44.7042 H   0  0  0  0  0  0  0  0  0  0  0  0
   57.1512   32.6272   46.9958 H   0  0  0  0  0  0  0  0  0  0  0  0
   61.1944   33.4312   48.7313 H   0  0  0  0  0  0  0  0  0  0  0  0
   60.3362   34.3826   50.0125 H   0  0  0  0  0  0  0  0  0  0  0  0
   61.7299   32.2889   50.7428 H   0  0  0  0  0  0  0  0  0  0  0  0
   60.0768   32.5040   51.4149 H   0  0  0  0  0  0  0  0  0  0  0  0
   56.5167   25.1164   47.3141 H   0  0  0  0  0  0  0  0  0  0  0  0
  1  2  1  0
  2  3  1  0
  3  4  1  0
  4  5  2  0
  4  6  1  0
  6  7  1  0
  7  8  1  0
  8  9  1  0
  9 10  2  0
  9 11  1  0
 11 12  1  0
 12 13  1  0
 13 14  1  0
 14 15  1  0
 15 16  2  0
 16 17  1  0
 17 18  2  0
 18 19  1  0
 19 20  2  0
 14 21  1  0
 21 22  1  0
  6 23  1  0
 23 24  2  0
 23 25  1  0
 25 26  1  0
 26 27  2  0
 27 28  1  0
 27 29  1  0
 29 30  1  0
 30  3  1  0
 22 11  1  0
 30 25  2  0
 20 15  1  0
  1 31  1  0
  1 32  1  0
  1 33  1  0
  2 34  1  0
  2 35  1  0
  7 36  1  0
  7 37  1  0
  8 38  1  0
  8 39  1  0
 12 40  1  0
 12 41  1  0
 13 42  1  0
 13 43  1  0
 16 44  1  0
 17 45  1  0
 18 46  1  0
 19 47  1  0
 20 48  1  0
 21 49  1  0
 21 50  1  0
 22 51  1  0
 22 52  1  0
 26 53  1  0
M  CHG  2  28  -1  29  -1
M  END
>  <UniqueID>  (62) 
58

>  <SMILES>  (62) 
CCn1c(=O)n(CCC(=O)N2CCN(c3ccccc3)CC2)c(=O)c2cc([O-])[n-]c21

>  <Energy>  (62) 
95.84908570609454

>  <Genealogy>  (62) 
CCn1c(=O)n(CCC(=O)N2CCN(c3ccccc3)CC2)c(=O)c2cc([O-])[n-]c21 (protonated)
CCn1c(=O)n(CCC(=O)N2CCN(c3ccccc3)CC2)c(=O)c2cc([O-])[n-]c21 (3D coordinates assigned)
CCn1c(=O)n(CCC(=O)N2CCN(c3ccccc3)CC2)c(=O)c2cc([O-])[n-]c21 (nonaromatic ring conformer: 95.84908570609454 kcal/mol)

>  <smiles>  (62) 
CCn1c(=O)n(CCC(=O)N2CCN(c3ccccc3)CC2)c(=O)c2cc(O)[nH]c21

>  <score_type>  (62) 
oracle

>  <origin>  (62) 
adg

>  <m_score__min__energy>  (62) 
-13.710000000000001

>  <m_primary>  (62) 
energy

$$$$
62:0
     RDKit          3D

 60 63  0  0  0  0  0  0  0  0999 V2000
   57.0440   34.2160   45.2460 C   0  0  0  0  0  0  0  0  0  0  0  0
   57.7470   32.9000   45.3300 C   0  0  0  0  0  0  0  0  0  0  0  0
   57.7870   32.0430   44.2310 C   0  0  0  0  0  0  0  0  0  0  0  0
   58.4980   30.8480   44.3010 C   0  0  0  0  0  0  0  0  0  0  0  0
   59.1900   30.4840   45.4690 C   0  0  0  0  0  0  0  0  0  0  0  0
   59.9550   29.1720   45.4560 C   0  0  0  0  0  0  0  0  0  0  0  0
   59.1050   27.9260   45.6630 C   0  0  0  0  0  0  0  0  0  0  0  0
   58.3770   27.3570   44.5930 C   0  0  0  0  0  0  0  0  0  0  0  0
   57.6520   26.1770   44.7650 C   0  0  0  0  0  0  0  0  0  0  0  0
   57.6260   25.5460   46.0010 C   0  0  0  0  0  0  0  0  0  0  0  0
   58.2950   26.1100   47.0820 C   0  0  0  0  0  0  0  0  0  0  0  0
   59.0290   27.3010   46.9410 C   0  0  0  0  0  0  0  0  0  0  0  0
   59.7420   27.9930   48.4130 S   0  0  0  0  0  0  0  0  0  0  0  0
   61.0260   28.7190   48.1330 O   0  0  0  0  0  0  0  0  0  0  0  0
   60.0470   26.8970   49.3910 O   0  0  0  0  0  0  0  0  0  0  0  0
   58.6170   29.0950   49.1280 N   0  0  0  0  0  0  0  0  0  0  0  0
   58.9750   29.9430   50.2250 C   0  0  0  0  0  0  0  0  0  0  0  0
   60.1760   30.2870   50.3980 O   0  0  0  0  0  0  0  0  0  0  0  0
   57.9350   30.4280   51.1350 C   0  0  0  0  0  0  0  0  0  0  0  0
   57.7500   31.7430   51.5260 C   0  0  0  0  0  0  0  0  0  0  0  0
   56.6660   31.7260   52.3810 C   0  0  0  0  0  0  0  0  0  0  0  0
   56.2520   30.4110   52.4500 C   0  0  0  0  0  0  0  0  0  0  0  0
   57.0320   29.6580   51.7030 O   0  0  0  0  0  0  0  0  0  0  0  0
   59.1420   31.3420   46.5980 C   0  0  0  0  0  0  0  0  0  0  0  0
   59.8690   31.0460   47.8160 N   0  0  0  0  0  0  0  0  0  0  0  0
   61.1080   31.8070   47.9190 C   0  0  0  0  0  0  0  0  0  0  0  0
   62.2230   31.4560   47.1260 C   0  0  0  0  0  0  0  0  0  0  0  0
   63.4290   32.1390   47.2430 C   0  0  0  0  0  0  0  0  0  0  0  0
   63.5530   33.1940   48.1390 C   0  0  0  0  0  0  0  0  0  0  0  0
   62.4590   33.6070   48.9120 C   0  0  0  0  0  0  0  0  0  0  0  0
   62.6540   34.7670   49.8580 C   0  0  0  0  0  0  0  0  0  0  0  0
   61.2010   32.9590   48.7570 C   0  0  0  0  0  0  0  0  0  0  0  0
   59.9790   33.4720   49.4900 C   0  0  0  0  0  0  0  0  0  0  0  0
   58.4150   32.5430   46.5070 C   0  0  0  0  0  0  0  0  0  0  0  0
   56.8440   34.5903   46.2608 H   0  0  0  0  0  0  0  0  0  0  0  0
   57.6774   34.9364   44.7077 H   0  0  0  0  0  0  0  0  0  0  0  0
   56.0930   34.0900   44.7077 H   0  0  0  0  0  0  0  0  0  0  0  0
   57.2554   32.3117   43.3062 H   0  0  0  0  0  0  0  0  0  0  0  0
   58.5185   30.1783   43.4286 H   0  0  0  0  0  0  0  0  0  0  0  0
   60.4603   29.0819   44.4831 H   0  0  0  0  0  0  0  0  0  0  0  0
   60.6492   29.2140   46.3083 H   0  0  0  0  0  0  0  0  0  0  0  0
   58.3821   27.8516   43.6105 H   0  0  0  0  0  0  0  0  0  0  0  0
   57.0990   25.7453   43.9177 H   0  0  0  0  0  0  0  0  0  0  0  0
   57.0769   24.6010   46.1254 H   0  0  0  0  0  0  0  0  0  0  0  0
   58.2491   25.6161   48.0638 H   0  0  0  0  0  0  0  0  0  0  0  0
   58.3423   32.6179   51.2198 H   0  0  0  0  0  0  0  0  0  0  0  0
   56.2218   32.5869   52.9022 H   0  0  0  0  0  0  0  0  0  0  0  0
   55.3984   30.0468   53.0405 H   0  0  0  0  0  0  0  0  0  0  0  0
   59.2850   31.2640   48.6540 H   0  0  0  0  0  0  0  0  0  0  0  0
   60.0380   30.0160   47.8270 H   0  0  0  0  0  0  0  0  0  0  0  0
   62.1362   30.6299   46.4049 H   0  0  0  0  0  0  0  0  0  0  0  0
   64.2884   31.8428   46.6236 H   0  0  0  0  0  0  0  0  0  0  0  0
   64.5189   33.7100   48.2426 H   0  0  0  0  0  0  0  0  0  0  0  0
   62.5936   34.4078   50.8960 H   0  0  0  0  0  0  0  0  0  0  0  0
   63.6410   35.2204   49.6837 H   0  0  0  0  0  0  0  0  0  0  0  0
   61.8695   35.5181   49.6837 H   0  0  0  0  0  0  0  0  0  0  0  0
   60.1460   33.4019   50.5750 H   0  0  0  0  0  0  0  0  0  0  0  0
   59.7994   34.5215   49.2137 H   0  0  0  0  0  0  0  0  0  0  0  0
   59.1041   32.8652   49.2137 H   0  0  0  0  0  0  0  0  0  0  0  0
   58.3707   33.2142   47.3774 H   0  0  0  0  0  0  0  0  0  0  0  0
  1  2  1  0
  2  3  2  0
  3  4  1  0
  4  5  2  0
  5  6  1  0
  6  7  1  0
  7  8  2  0
  8  9  1  0
  9 10  2  0
 10 11  1  0
 11 12  2  0
 12 13  1  0
 13 14  2  0
 13 15  2  0
 13 16  1  0
 16 17  1  0
 17 18  2  0
 17 19  1  0
 19 20  2  0
 20 21  1  0
 21 22  2  0
 22 23  1  0
  5 24  1  0
 24 25  1  0
 25 26  1  0
 26 27  2  0
 27 28  1  0
 28 29  2  0
 29 30  1  0
 30 31  1  0
 30 32  2  0
 32 33  1  0
 24 34  2  0
 34  2  1  0
 12  7  1  0
 23 19  1  0
 32 26  1  0
  1 35  1  0
  1 36  1  0
  1 37  1  0
  3 38  1  0
  4 39  1  0
  6 40  1  0
  6 41  1  0
  8 42  1  0
  9 43  1  0
 10 44  1  0
 11 45  1  0
 20 46  1  0
 21 47  1  0
 22 48  1  0
 25 49  1  0
 25 50  1  0
 27 51  1  0
 28 52  1  0
 29 53  1  0
 31 54  1  0
 31 55  1  0
 31 56  1  0
 33 57  1  0
 33 58  1  0
 33 59  1  0
 34 60  1  0
M  CHG  2  16  -1  25   1
M  END
>  <UniqueID>  (63) 
59

>  <SMILES>  (63) 
Cc1ccc(Cc2ccccc2S(=O)(=O)[N-]C(=O)c2ccco2)c([NH2+]c2cccc(C)c2C)c1

>  <Energy>  (63) 
104.33976369104067

>  <Genealogy>  (63) 
Cc1ccc(Cc2ccccc2S(=O)(=O)[N-]C(=O)c2ccco2)c([NH2+]c2cccc(C)c2C)c1 (protonated)
Cc1ccc(Cc2ccccc2S(=O)(=O)[N-]C(=O)c2ccco2)c([NH2+]c2cccc(C)c2C)c1 (3D coordinates assigned)
Cc1ccc(Cc2ccccc2S(=O)(=O)[N-]C(=O)c2ccco2)c([NH2+]c2cccc(C)c2C)c1 (optimized conformer: 104.33976369104067 kcal/mol)

>  <smiles>  (63) 
Cc1ccc(Cc2ccccc2S(=O)(=O)NC(=O)c2ccco2)c(Nc2cccc(C)c2C)c1

>  <score_type>  (63) 
oracle

>  <origin>  (63) 
adg

>  <m_score__min__energy>  (63) 
-8.7699999999999996

>  <m_primary>  (63) 
energy

$$$$
63:0
     RDKit          3D

 59 63  0  0  0  0  0  0  0  0999 V2000
   56.6117   34.3050   44.6396 H   0  0  0  0  0  0  0  0  0  0  0  0
   57.3800   33.5550   44.8790 C   0  0  0  0  0  0  0  0  0  0  0  0
   57.5140   32.4900   44.0790 C   0  0  0  0  0  0  0  0  0  0  0  0
   58.0101   32.6210   43.1060 H   0  0  0  0  0  0  0  0  0  0  0  0
   57.0250   31.1500   44.4470 C   0  0  0  0  0  0  0  0  0  0  0  0
   55.7090   30.8560   44.5490 N   0  0  0  0  0  0  0  0  0  0  0  0
   55.5690   29.5740   44.8720 N   0  0  0  0  0  0  0  0  0  0  0  0
   56.8010   29.0480   44.9650 C   0  0  0  0  0  0  0  0  0  0  0  0
   57.1370   27.7280   45.2470 C   0  0  0  0  0  0  0  0  0  0  0  0
   56.3598   26.9835   45.4740 H   0  0  0  0  0  0  0  0  0  0  0  0
   58.5010   27.3700   45.2340 C   0  0  0  0  0  0  0  0  0  0  0  0
   58.8730   26.0160   45.5450 N   0  0  0  0  0  0  0  0  0  0  0  0
   59.8800   25.8320   45.7650 H   0  0  0  0  0  0  0  0  0  0  0  0
   57.9570   24.9080   45.6370 C   0  0  0  0  0  0  0  0  0  0  0  0
   57.6690   24.1630   44.4870 C   0  0  0  0  0  0  0  0  0  0  0  0
   58.1232   24.4473   43.5263 H   0  0  0  0  0  0  0  0  0  0  0  0
   56.8120   23.0640   44.5470 C   0  0  0  0  0  0  0  0  0  0  0  0
   56.5847   22.4984   43.6313 H   0  0  0  0  0  0  0  0  0  0  0  0
   56.2370   22.6740   45.7680 C   0  0  0  0  0  0  0  0  0  0  0  0
   55.3140   21.4850   45.8000 C   0  0  0  0  0  0  0  0  0  0  0  0
   55.1027   21.2128   46.8446 H   0  0  0  0  0  0  0  0  0  0  0  0
   54.3730   21.7375   45.2894 H   0  0  0  0  0  0  0  0  0  0  0  0
   55.7919   20.6360   45.2894 H   0  0  0  0  0  0  0  0  0  0  0  0
   56.5310   23.4060   46.9420 C   0  0  0  0  0  0  0  0  0  0  0  0
   55.9070   23.0580   48.1930 N   0  0  0  0  0  0  0  0  0  0  0  0
   55.0570   23.5880   48.4900 H   0  0  0  0  0  0  0  0  0  0  0  0
   56.3470   21.9840   49.0410 C   0  0  0  0  0  0  0  0  0  0  0  0
   57.1840   21.1390   48.6240 O   0  0  0  0  0  0  0  0  0  0  0  0
   55.7600   21.8190   50.4100 C   0  0  0  0  0  0  0  0  0  0  0  0
   55.9871   20.8096   50.7836 H   0  0  0  0  0  0  0  0  0  0  0  0
   56.1954   22.5742   51.0809 H   0  0  0  0  0  0  0  0  0  0  0  0
   54.2680   22.0070   50.3610 C   0  0  0  0  0  0  0  0  0  0  0  0
   53.5410   21.6320   49.2170 C   0  0  0  0  0  0  0  0  0  0  0  0
   54.0614   21.1752   48.3623 H   0  0  0  0  0  0  0  0  0  0  0  0
   52.1570   21.8380   49.1620 C   0  0  0  0  0  0  0  0  0  0  0  0
   51.5919   21.5361   48.2678 H   0  0  0  0  0  0  0  0  0  0  0  0
   51.4910   22.4280   50.2440 C   0  0  0  0  0  0  0  0  0  0  0  0
   50.1510   22.6290   50.1870 F   0  0  0  0  0  0  0  0  0  0  0  0
   52.2090   22.8150   51.3820 C   0  0  0  0  0  0  0  0  0  0  0  0
   51.6858   23.2818   52.2296 H   0  0  0  0  0  0  0  0  0  0  0  0
   53.5940   22.6080   51.4420 C   0  0  0  0  0  0  0  0  0  0  0  0
   54.1562   22.9158   52.3359 H   0  0  0  0  0  0  0  0  0  0  0  0
   57.3940   24.5170   46.8640 C   0  0  0  0  0  0  0  0  0  0  0  0
   57.6302   25.0858   47.7754 H   0  0  0  0  0  0  0  0  0  0  0  0
   59.4840   28.3610   44.9650 C   0  0  0  0  0  0  0  0  0  0  0  0
   60.5499   28.0901   44.9884 H   0  0  0  0  0  0  0  0  0  0  0  0
   59.1090   29.6850   44.6690 C   0  0  0  0  0  0  0  0  0  0  0  0
   59.8621   30.4477   44.4217 H   0  0  0  0  0  0  0  0  0  0  0  0
   57.7490   29.9970   44.7000 C   0  0  0  0  0  0  0  0  0  0  0  0
   58.2280   33.7590   46.0730 C   0  0  0  0  0  0  0  0  0  0  0  0
   59.1510   34.7650   46.1090 N   0  0  0  0  0  0  0  0  0  0  0  0
   59.9410   34.9780   47.1950 C   0  0  0  0  0  0  0  0  0  0  0  0
   60.6727   35.7994   47.1900 H   0  0  0  0  0  0  0  0  0  0  0  0
   59.8240   34.1550   48.3160 C   0  0  0  0  0  0  0  0  0  0  0  0
   60.4588   34.3241   49.1983 H   0  0  0  0  0  0  0  0  0  0  0  0
   58.8930   33.1150   48.3060 C   0  0  0  0  0  0  0  0  0  0  0  0
   58.7933   32.4560   49.1811 H   0  0  0  0  0  0  0  0  0  0  0  0
   58.0880   32.9130   47.1820 C   0  0  0  0  0  0  0  0  0  0  0  0
   57.3505   32.0969   47.1674 H   0  0  0  0  0  0  0  0  0  0  0  0
  1  2  1  0
  2  3  2  0
  3  4  1  0
  3  5  1  0
  5  6  1  0
  6  7  1  0
  7  8  2  0
  8  9  1  0
  9 10  1  0
  9 11  2  0
 11 12  1  0
 12 13  1  0
 12 14  1  0
 14 15  2  0
 15 16  1  0
 15 17  1  0
 17 18  1  0
 17 19  2  0
 19 20  1  0
 20 21  1  0
 20 22  1  0
 20 23  1  0
 19 24  1  0
 24 25  1  0
 25 26  1  0
 25 27  1  0
 27 28  2  0
 27 29  1  0
 29 30  1  0
 29 31  1  0
 29 32  1  0
 32 33  2  0
 33 34  1  0
 33 35  1  0
 35 36  1  0
 35 37  2  0
 37 38  1  0
 37 39  1  0
 39 40  1  0
 39 41  2  0
 41 42  1  0
 24 43  2  0
 43 44  1  0
 11 45  1  0
 45 46  1  0
 45 47  2  0
 47 48  1  0
 47 49  1  0
  2 50  1  0
 50 51  2  0
 51 52  1  0
 52 53  1  0
 52 54  2  0
 54 55  1  0
 54 56  1  0
 56 57  1  0
 56 58  2  0
 58 59  1  0
 49  5  2  0
 58 50  1  0
 49  8  1  0
 43 14  1  0
 41 32  1  0
M  CHG  1   6  -1
M  END
>  <UniqueID>  (64) 
60

>  <SMILES>  (64) 
Cc1ccc(Nc2ccc3c(/C=C/c4ccccn4)[n-]nc3c2)cc1NC(=O)Cc1ccc(F)cc1

>  <Energy>  (64) 
114.49934699144966

>  <Genealogy>  (64) 
Cc1ccc(Nc2ccc3c(C=Cc4ccccn4)[n-]nc3c2)cc1NC(=O)Cc1ccc(F)cc1 (protonated)
Cc1ccc(Nc2ccc3c(/C=C/c4ccccn4)[n-]nc3c2)cc1NC(=O)Cc1ccc(F)cc1 (cis-trans isomerization)
Cc1ccc(Nc2ccc3c(/C=C/c4ccccn4)[n-]nc3c2)cc1NC(=O)Cc1ccc(F)cc1 (3D coordinates assigned)
Cc1ccc(Nc2ccc3c(/C=C/c4ccccn4)[n-]nc3c2)cc1NC(=O)Cc1ccc(F)cc1 (optimized conformer: 114.49934699144966 kcal/mol)

>  <smiles>  (64) 
Cc1ccc(Nc2ccc3c(C=Cc4ccccn4)[nH]nc3c2)cc1NC(=O)Cc1ccc(F)cc1

>  <score_type>  (64) 
oracle

>  <origin>  (64) 
adg

>  <m_score__min__energy>  (64) 
-11.74

>  <m_primary>  (64) 
energy

$$$$
64:0
     RDKit          3D

 51 54  0  0  0  0  0  0  0  0999 V2000
   63.3840   33.7840   47.1900 O   0  0  0  0  0  0  0  0  0  0  0  0
   62.3700   33.9350   47.9210 C   0  0  0  0  0  0  0  0  0  0  0  0
   62.5660   34.3540   49.2810 N   0  0  0  0  0  0  0  0  0  0  0  0
   62.3780   33.4980   50.4530 C   0  0  0  0  0  0  0  0  0  0  0  0
   61.2990   32.4830   50.1710 C   0  0  0  0  0  0  0  0  0  0  0  0
   61.6340   31.1990   49.6920 C   0  0  0  0  0  0  0  0  0  0  0  0
   60.6290   30.2590   49.4220 C   0  0  0  0  0  0  0  0  0  0  0  0
   59.2870   30.5920   49.6320 C   0  0  0  0  0  0  0  0  0  0  0  0
   58.3160   29.6760   49.3770 F   0  0  0  0  0  0  0  0  0  0  0  0
   58.9470   31.8660   50.1130 C   0  0  0  0  0  0  0  0  0  0  0  0
   59.9460   32.8130   50.3750 C   0  0  0  0  0  0  0  0  0  0  0  0
   61.0230   33.7150   47.3420 C   0  0  0  0  0  0  0  0  0  0  0  0
   60.0670   34.7440   47.3610 C   0  0  0  0  0  0  0  0  0  0  0  0
   58.8020   34.5170   46.8060 C   0  0  0  0  0  0  0  0  0  0  0  0
   58.5030   33.2840   46.2220 C   0  0  0  0  0  0  0  0  0  0  0  0
   59.4850   32.2830   46.1920 C   0  0  0  0  0  0  0  0  0  0  0  0
   59.2110   30.9730   45.5070 C   0  0  0  0  0  0  0  0  0  0  0  0
   58.5460   30.0650   46.3920 O   0  0  0  0  0  0  0  0  0  0  0  0
   58.1980   28.7400   46.0770 C   0  0  0  0  0  0  0  0  0  0  0  0
   58.0870   28.3830   44.7270 C   0  0  0  0  0  0  0  0  0  0  0  0
   57.7740   27.0640   44.3650 C   0  0  0  0  0  0  0  0  0  0  0  0
   57.5570   26.0840   45.3530 C   0  0  0  0  0  0  0  0  0  0  0  0
   57.2700   24.6570   44.9610 C   0  0  0  0  0  0  0  0  0  0  0  0
   55.8080   24.3590   45.0960 C   0  0  0  0  0  0  0  0  0  0  0  0
   55.0900   22.9070   44.6370 S   0  0  0  0  0  0  0  0  0  0  0  0
   53.5620   23.4050   45.1390 C   0  0  0  0  0  0  0  0  0  0  0  0
   52.5220   22.7070   45.0360 O   0  0  0  0  0  0  0  0  0  0  0  0
   53.5640   24.6470   45.6670 N   0  0  0  0  0  0  0  0  0  0  0  0
   54.8130   25.1840   45.6520 C   0  0  0  0  0  0  0  0  0  0  0  0
   55.0410   26.4620   46.1600 O   0  0  0  0  0  0  0  0  0  0  0  0
   57.6600   26.4420   46.7050 C   0  0  0  0  0  0  0  0  0  0  0  0
   57.9770   27.7570   47.0650 C   0  0  0  0  0  0  0  0  0  0  0  0
   60.7100   32.5240   46.7490 N   0  0  0  0  0  0  0  0  0  0  0  0
   63.3198   32.9773   50.6807 H   0  0  0  0  0  0  0  0  0  0  0  0
   62.0816   34.1165   51.3130 H   0  0  0  0  0  0  0  0  0  0  0  0
   62.6891   30.9338   49.5295 H   0  0  0  0  0  0  0  0  0  0  0  0
   60.8960   29.2606   49.0454 H   0  0  0  0  0  0  0  0  0  0  0  0
   57.8912   32.1223   50.2851 H   0  0  0  0  0  0  0  0  0  0  0  0
   59.6729   33.8141   50.7400 H   0  0  0  0  0  0  0  0  0  0  0  0
   60.3101   35.7193   47.8079 H   0  0  0  0  0  0  0  0  0  0  0  0
   58.0417   35.3116   46.8299 H   0  0  0  0  0  0  0  0  0  0  0  0
   57.5081   33.1000   45.7903 H   0  0  0  0  0  0  0  0  0  0  0  0
   58.5737   31.1519   44.6285 H   0  0  0  0  0  0  0  0  0  0  0  0
   60.1694   30.5283   45.2010 H   0  0  0  0  0  0  0  0  0  0  0  0
   58.2462   29.1412   43.9461 H   0  0  0  0  0  0  0  0  0  0  0  0
   57.6975   26.7933   43.3016 H   0  0  0  0  0  0  0  0  0  0  0  0
   57.5763   24.5001   43.9162 H   0  0  0  0  0  0  0  0  0  0  0  0
   57.8326   23.9856   45.6264 H   0  0  0  0  0  0  0  0  0  0  0  0
   54.7650   26.7220   47.1070 H   0  0  0  0  0  0  0  0  0  0  0  0
   57.4909   25.6861   47.4860 H   0  0  0  0  0  0  0  0  0  0  0  0
   58.0546   28.0268   48.1286 H   0  0  0  0  0  0  0  0  0  0  0  0
  1  2  2  0
  2  3  1  0
  3  4  1  0
  4  5  1  0
  5  6  2  0
  6  7  1  0
  7  8  2  0
  8  9  1  0
  8 10  1  0
 10 11  2  0
  2 12  1  0
 12 13  2  0
 13 14  1  0
 14 15  2  0
 15 16  1  0
 16 17  1  0
 17 18  1  0
 18 19  1  0
 19 20  2  0
 20 21  1  0
 21 22  2  0
 22 23  1  0
 23 24  1  0
 24 25  1  0
 25 26  1  0
 26 27  2  0
 26 28  1  0
 28 29  1  0
 29 30  1  0
 22 31  1  0
 31 32  2  0
 16 33  2  0
 11  5  1  0
 33 12  1  0
 32 19  1  0
 29 24  2  0
  4 34  1  0
  4 35  1  0
  6 36  1  0
  7 37  1  0
 10 38  1  0
 11 39  1  0
 13 40  1  0
 14 41  1  0
 15 42  1  0
 17 43  1  0
 17 44  1  0
 20 45  1  0
 21 46  1  0
 23 47  1  0
 23 48  1  0
 30 49  1  0
 31 50  1  0
 32 51  1  0
M  CHG  2   3  -1  28  -1
M  END
>  <UniqueID>  (65) 
61

>  <SMILES>  (65) 
O=C([N-]Cc1ccc(F)cc1)c1cccc(COc2ccc(Cc3sc(=O)[n-]c3O)cc2)n1

>  <Energy>  (65) 
84.87774239446709

>  <Genealogy>  (65) 
O=C([N-]Cc1ccc(F)cc1)c1cccc(COc2ccc(Cc3sc(=O)[n-]c3O)cc2)n1 (protonated)
O=C([N-]Cc1ccc(F)cc1)c1cccc(COc2ccc(Cc3sc(=O)[n-]c3O)cc2)n1 (3D coordinates assigned)
O=C([N-]Cc1ccc(F)cc1)c1cccc(COc2ccc(Cc3sc(=O)[n-]c3O)cc2)n1 (optimized conformer: 84.87774239446709 kcal/mol)

>  <smiles>  (65) 
O=C(NCc1ccc(F)cc1)c1cccc(COc2ccc(Cc3sc(=O)[nH]c3O)cc2)n1

>  <score_type>  (65) 
oracle

>  <origin>  (65) 
adg

>  <m_score__min__energy>  (65) 
-12.83

>  <m_primary>  (65) 
energy

$$$$
65:0
     RDKit          3D

 24 25  0  0  0  0  0  0  0  0999 V2000
   59.1250   34.3280   45.4260 C   0  0  0  0  0  0  0  0  0  0  0  0
   58.5580   33.4090   44.8900 C   0  0  0  0  0  0  0  0  0  0  0  0
   57.8800   32.3120   44.2490 C   0  0  0  0  0  0  0  0  0  0  0  0
   57.7030   32.3120   42.8590 C   0  0  0  0  0  0  0  0  0  0  0  0
   57.0520   31.2430   42.2380 C   0  0  0  0  0  0  0  0  0  0  0  0
   56.5700   30.1760   43.0000 C   0  0  0  0  0  0  0  0  0  0  0  0
   56.7280   30.1760   44.3990 C   0  0  0  0  0  0  0  0  0  0  0  0
   56.2720   29.1170   45.1980 O   0  0  0  0  0  0  0  0  0  0  0  0
   57.0050   27.9610   45.5020 C   0  0  0  0  0  0  0  0  0  0  0  0
   58.4000   28.0070   45.4590 C   0  0  0  0  0  0  0  0  0  0  0  0
   59.1320   26.8990   45.7530 N   0  0  0  0  0  0  0  0  0  0  0  0
   58.5220   25.7360   46.1090 C   0  0  0  0  0  0  0  0  0  0  0  0
   59.2100   24.7160   46.3750 O   0  0  0  0  0  0  0  0  0  0  0  0
   57.1670   25.6750   46.1850 N   0  0  0  0  0  0  0  0  0  0  0  0
   56.3970   26.7570   45.9000 C   0  0  0  0  0  0  0  0  0  0  0  0
   55.1460   26.6750   46.0190 O   0  0  0  0  0  0  0  0  0  0  0  0
   57.3970   31.2410   45.0140 C   0  0  0  0  0  0  0  0  0  0  0  0
   59.6424   35.1665   45.9151 H   0  0  0  0  0  0  0  0  0  0  0  0
   58.0765   33.1534   42.2569 H   0  0  0  0  0  0  0  0  0  0  0  0
   56.9187   31.2416   41.1461 H   0  0  0  0  0  0  0  0  0  0  0  0
   56.0653   29.3330   42.5053 H   0  0  0  0  0  0  0  0  0  0  0  0
   58.9090   28.9432   45.1862 H   0  0  0  0  0  0  0  0  0  0  0  0
   60.1750   26.9480   45.7040 H   0  0  0  0  0  0  0  0  0  0  0  0
   57.5446   31.2375   46.1041 H   0  0  0  0  0  0  0  0  0  0  0  0
  1  2  3  0
  2  3  1  0
  3  4  2  0
  4  5  1  0
  5  6  2  0
  6  7  1  0
  7  8  1  0
  8  9  1  0
  9 10  2  0
 10 11  1  0
 11 12  1  0
 12 13  2  0
 12 14  1  0
 14 15  1  0
 15 16  2  0
  7 17  2  0
 17  3  1  0
 15  9  1  0
  1 18  1  0
  4 19  1  0
  5 20  1  0
  6 21  1  0
 10 22  1  0
 11 23  1  0
 17 24  1  0
M  CHG  1  14  -1
M  END
>  <UniqueID>  (66) 
62

>  <SMILES>  (66) 
C#Cc1cccc(Oc2c[nH]c(=O)[n-]c2=O)c1

>  <Energy>  (66) 
31.69137925220201

>  <Genealogy>  (66) 
C#Cc1cccc(Oc2c[nH]c(=O)[n-]c2=O)c1 (protonated)
C#Cc1cccc(Oc2c[nH]c(=O)[n-]c2=O)c1 (3D coordinates assigned)
C#Cc1cccc(Oc2c[nH]c(=O)[n-]c2=O)c1 (optimized conformer: 31.69137925220201 kcal/mol)

>  <smiles>  (66) 
C#Cc1cccc(Oc2c[nH]c(=O)[nH]c2=O)c1

>  <score_type>  (66) 
oracle

>  <origin>  (66) 
adg

>  <m_score__min__energy>  (66) 
-8.2699999999999996

>  <m_primary>  (66) 
energy

$$$$
66:0
     RDKit          3D

 52 56  0  0  0  0  0  0  0  0999 V2000
   57.3187   34.6985   45.0279 H   0  0  0  0  0  0  0  0  0  0  0  0
   57.6330   33.6480   45.1160 C   0  0  0  0  0  0  0  0  0  0  0  0
   57.8090   32.8010   44.0710 N   0  0  0  0  0  0  0  0  0  0  0  0
   58.1860   31.6540   44.6680 C   0  0  0  0  0  0  0  0  0  0  0  0
   58.2530   31.7410   46.0040 N   0  0  0  0  0  0  0  0  0  0  0  0
   57.9060   33.0000   46.3110 C   0  0  0  0  0  0  0  0  0  0  0  0
   57.8489   33.4356   47.3195 H   0  0  0  0  0  0  0  0  0  0  0  0
   58.6200   30.6970   46.7850 C   0  0  0  0  0  0  0  0  0  0  0  0
   58.6880   30.8050   48.1360 N   0  0  0  0  0  0  0  0  0  0  0  0
   59.0710   29.7440   48.9030 C   0  0  0  0  0  0  0  0  0  0  0  0
   59.1160   29.8310   50.1980 N   0  0  0  0  0  0  0  0  0  0  0  0
   58.4490   30.8100   51.0170 C   0  0  0  0  0  0  0  0  0  0  0  0
   57.1970   30.5400   51.6010 C   0  0  0  0  0  0  0  0  0  0  0  0
   56.7161   29.5646   51.4360 H   0  0  0  0  0  0  0  0  0  0  0  0
   56.5610   31.5030   52.3890 C   0  0  0  0  0  0  0  0  0  0  0  0
   55.5879   31.2794   52.8507 H   0  0  0  0  0  0  0  0  0  0  0  0
   57.1580   32.7470   52.5910 C   0  0  0  0  0  0  0  0  0  0  0  0
   56.6604   33.5001   53.2197 H   0  0  0  0  0  0  0  0  0  0  0  0
   58.3880   33.0370   51.9950 C   0  0  0  0  0  0  0  0  0  0  0  0
   58.8529   34.0212   52.1539 H   0  0  0  0  0  0  0  0  0  0  0  0
   59.0350   32.0820   51.1950 C   0  0  0  0  0  0  0  0  0  0  0  0
   60.2960   32.4050   50.5840 N   0  0  0  0  0  0  0  0  0  0  0  0
   60.4630   33.7090   49.9250 C   0  0  0  0  0  0  0  0  0  0  0  0
   60.2344   34.5074   50.6463 H   0  0  0  0  0  0  0  0  0  0  0  0
   59.7782   33.7550   49.0654 H   0  0  0  0  0  0  0  0  0  0  0  0
   61.8930   33.8920   49.4150 C   0  0  0  0  0  0  0  0  0  0  0  0
   62.5660   34.0694   50.2668 H   0  0  0  0  0  0  0  0  0  0  0  0
   61.9307   34.7532   48.7317 H   0  0  0  0  0  0  0  0  0  0  0  0
   62.3180   32.6800   48.6990 N   0  0  0  0  0  0  0  0  0  0  0  0
   62.9160   32.7420   47.3880 C   0  0  0  0  0  0  0  0  0  0  0  0
   63.7430   31.8540   47.0460 O   0  0  0  0  0  0  0  0  0  0  0  0
   62.5700   33.8460   46.4190 C   0  0  0  0  0  0  0  0  0  0  0  0
   62.9674   33.5831   45.4275 H   0  0  0  0  0  0  0  0  0  0  0  0
   63.0163   34.7771   46.7983 H   0  0  0  0  0  0  0  0  0  0  0  0
   61.0650   34.0660   46.3010 C   0  0  0  0  0  0  0  0  0  0  0  0
   60.6239   34.1305   47.3066 H   0  0  0  0  0  0  0  0  0  0  0  0
   60.8729   35.0018   45.7556 H   0  0  0  0  0  0  0  0  0  0  0  0
   60.6130   33.2244   45.7556 H   0  0  0  0  0  0  0  0  0  0  0  0
   62.1490   31.3660   49.3360 C   0  0  0  0  0  0  0  0  0  0  0  0
   63.1412   30.9198   49.4988 H   0  0  0  0  0  0  0  0  0  0  0  0
   61.5367   30.7410   48.6693 H   0  0  0  0  0  0  0  0  0  0  0  0
   61.4260   31.4710   50.6840 C   0  0  0  0  0  0  0  0  0  0  0  0
   62.1307   31.8340   51.4467 H   0  0  0  0  0  0  0  0  0  0  0  0
   61.0460   30.4777   50.9651 H   0  0  0  0  0  0  0  0  0  0  0  0
   59.3730   28.5580   48.3080 N   0  0  0  0  0  0  0  0  0  0  0  0
   59.3180   28.4030   46.9590 C   0  0  0  0  0  0  0  0  0  0  0  0
   59.5711   27.4348   46.5023 H   0  0  0  0  0  0  0  0  0  0  0  0
   58.9380   29.4810   46.1560 C   0  0  0  0  0  0  0  0  0  0  0  0
   58.8620   29.4030   44.7500 C   0  0  0  0  0  0  0  0  0  0  0  0
   59.1050   28.4600   44.2384 H   0  0  0  0  0  0  0  0  0  0  0  0
   58.4870   30.4970   44.0220 N   0  0  0  0  0  0  0  0  0  0  0  0
   58.4330   30.4410   42.9800 H   0  0  0  0  0  0  0  0  0  0  0  0
  1  2  1  0
  2  3  1  0
  3  4  2  0
  4  5  1  0
  5  6  1  0
  6  7  1  0
  5  8  1  0
  8  9  2  0
  9 10  1  0
 10 11  2  0
 11 12  1  0
 12 13  2  0
 13 14  1  0
 13 15  1  0
 15 16  1  0
 15 17  2  0
 17 18  1  0
 17 19  1  0
 19 20  1  0
 19 21  2  0
 21 22  1  0
 22 23  1  0
 23 24  1  0
 23 25  1  0
 23 26  1  0
 26 27  1  0
 26 28  1  0
 26 29  1  0
 29 30  1  0
 30 31  2  0
 30 32  1  0
 32 33  1  0
 32 34  1  0
 32 35  1  0
 35 36  1  0
 35 37  1  0
 35 38  1  0
 29 39  1  0
 39 40  1  0
 39 41  1  0
 39 42  1  0
 42 43  1  0
 42 44  1  0
 10 45  1  0
 45 46  1  0
 46 47  1  0
 46 48  2  0
 48 49  1  0
 49 50  1  0
 49 51  2  0
 51 52  1  0
  6  2  2  0
 48  8  1  0
 51  4  1  0
 21 12  1  0
 42 22  1  0
M  CHG  2  45  -1  51   1
M  END
>  <UniqueID>  (67) 
63

>  <SMILES>  (67) 
CCC(=O)N1CCN(c2ccccc2/N=c2\nc3c(c[n-]2)c[nH+]c2nccn23)CC1

>  <Energy>  (67) 
106.64713579594988

>  <Genealogy>  (67) 
CCC(=O)N1CCN(c2ccccc2N=c2nc3c(c[n-]2)c[nH+]c2nccn23)CC1 (protonated)
CCC(=O)N1CCN(c2ccccc2/N=c2\nc3c(c[n-]2)c[nH+]c2nccn23)CC1 (cis-trans isomerization)
CCC(=O)N1CCN(c2ccccc2/N=c2\nc3c(c[n-]2)c[nH+]c2nccn23)CC1 (3D coordinates assigned)
CCC(=O)N1CCN(c2ccccc2/N=c2\nc3c(c[n-]2)c[nH+]c2nccn23)CC1 (nonaromatic ring conformer: 106.64713579594988 kcal/mol)

>  <smiles>  (67) 
CCC(=O)N1CCN(c2ccccc2N=c2nc3c(cnc4nccn43)c[nH]2)CC1

>  <score_type>  (67) 
oracle

>  <origin>  (67) 
adg

>  <m_score__min__energy>  (67) 
-8.0700000000000003

>  <m_primary>  (67) 
energy

$$$$
67:0
     RDKit          3D

 56 59  0  0  0  0  0  0  0  0999 V2000
   56.6170   29.6510   43.0940 O   0  0  0  0  0  0  0  0  0  0  0  0
   57.0160   29.7000   44.2900 C   0  0  0  0  0  0  0  0  0  0  0  0
   56.6680   30.8190   45.1160 N   0  0  0  0  0  0  0  0  0  0  0  0
   57.4780   31.9800   45.3500 C   0  0  0  0  0  0  0  0  0  0  0  0
   57.5700   32.9510   44.3480 C   0  0  0  0  0  0  0  0  0  0  0  0
   58.3520   34.0930   44.5400 C   0  0  0  0  0  0  0  0  0  0  0  0
   59.0710   34.2580   45.7220 C   0  0  0  0  0  0  0  0  0  0  0  0
   59.0350   33.2690   46.7150 C   0  0  0  0  0  0  0  0  0  0  0  0
   59.8410   33.4260   47.9430 C   0  0  0  0  0  0  0  0  0  0  0  0
   59.2740   33.8400   48.9900 O   0  0  0  0  0  0  0  0  0  0  0  0
   61.2550   33.1420   47.9620 N   0  0  0  0  0  0  0  0  0  0  0  0
   61.8910   32.6090   49.1740 C   0  0  0  0  0  0  0  0  0  0  0  0
   63.2850   33.2220   49.3370 C   0  0  0  0  0  0  0  0  0  0  0  0
   64.0480   33.0640   48.1530 O   0  0  0  0  0  0  0  0  0  0  0  0
   63.4570   33.8030   47.1000 C   0  0  0  0  0  0  0  0  0  0  0  0
   62.0740   33.2430   46.7480 C   0  0  0  0  0  0  0  0  0  0  0  0
   58.2260   32.1360   46.5290 C   0  0  0  0  0  0  0  0  0  0  0  0
   57.8950   28.6310   44.8180 C   0  0  0  0  0  0  0  0  0  0  0  0
   59.2530   28.8860   45.0740 C   0  0  0  0  0  0  0  0  0  0  0  0
   60.0800   27.8780   45.5720 C   0  0  0  0  0  0  0  0  0  0  0  0
   59.5690   26.6040   45.8130 C   0  0  0  0  0  0  0  0  0  0  0  0
   58.2140   26.3270   45.5760 C   0  0  0  0  0  0  0  0  0  0  0  0
   57.6690   24.9340   45.8290 C   0  0  0  0  0  0  0  0  0  0  0  0
   57.7100   24.0460   44.6440 N   0  0  0  0  0  0  0  0  0  0  0  0
   57.6980   22.6070   44.9750 C   0  0  0  0  0  0  0  0  0  0  0  0
   57.4610   21.7720   43.7050 C   0  0  0  0  0  0  0  0  0  0  0  0
   56.2480   22.0710   43.0190 O   0  0  0  0  0  0  0  0  0  0  0  0
   55.6960   23.3370   43.3510 C   0  0  0  0  0  0  0  0  0  0  0  0
   56.7700   24.4160   43.5630 C   0  0  0  0  0  0  0  0  0  0  0  0
   57.3850   27.3420   45.0640 C   0  0  0  0  0  0  0  0  0  0  0  0
   57.0236   32.8150   43.4031 H   0  0  0  0  0  0  0  0  0  0  0  0
   58.4001   34.8634   43.7563 H   0  0  0  0  0  0  0  0  0  0  0  0
   59.6693   35.1680   45.8767 H   0  0  0  0  0  0  0  0  0  0  0  0
   61.2760   32.8606   50.0506 H   0  0  0  0  0  0  0  0  0  0  0  0
   61.9812   31.5161   49.0878 H   0  0  0  0  0  0  0  0  0  0  0  0
   63.1832   34.2944   49.5595 H   0  0  0  0  0  0  0  0  0  0  0  0
   63.8019   32.7065   50.1599 H   0  0  0  0  0  0  0  0  0  0  0  0
   63.3519   34.8527   47.4114 H   0  0  0  0  0  0  0  0  0  0  0  0
   64.1027   33.7284   46.2126 H   0  0  0  0  0  0  0  0  0  0  0  0
   61.5805   33.9137   46.0293 H   0  0  0  0  0  0  0  0  0  0  0  0
   62.1892   32.2435   46.3033 H   0  0  0  0  0  0  0  0  0  0  0  0
   58.1777   31.3651   47.3122 H   0  0  0  0  0  0  0  0  0  0  0  0
   59.6669   29.8866   44.8806 H   0  0  0  0  0  0  0  0  0  0  0  0
   61.1401   28.0901   45.7752 H   0  0  0  0  0  0  0  0  0  0  0  0
   60.2314   25.8114   46.1910 H   0  0  0  0  0  0  0  0  0  0  0  0
   58.2639   24.4701   46.6295 H   0  0  0  0  0  0  0  0  0  0  0  0
   56.6099   25.0516   46.1018 H   0  0  0  0  0  0  0  0  0  0  0  0
   58.6654   22.3280   45.4181 H   0  0  0  0  0  0  0  0  0  0  0  0
   56.8864   22.4100   45.6909 H   0  0  0  0  0  0  0  0  0  0  0  0
   58.2989   21.9506   43.0151 H   0  0  0  0  0  0  0  0  0  0  0  0
   57.3868   20.7235   44.0292 H   0  0  0  0  0  0  0  0  0  0  0  0
   55.0326   23.6567   42.5339 H   0  0  0  0  0  0  0  0  0  0  0  0
   55.1489   23.2225   44.2984 H   0  0  0  0  0  0  0  0  0  0  0  0
   57.3348   24.5456   42.6280 H   0  0  0  0  0  0  0  0  0  0  0  0
   56.2659   25.3503   43.8511 H   0  0  0  0  0  0  0  0  0  0  0  0
   56.3271   27.1261   44.8537 H   0  0  0  0  0  0  0  0  0  0  0  0
  1  2  2  0
  2  3  1  0
  3  4  1  0
  4  5  2  0
  5  6  1  0
  6  7  2  0
  7  8  1  0
  8  9  1  0
  9 10  2  0
  9 11  1  0
 11 12  1  0
 12 13  1  0
 13 14  1  0
 14 15  1  0
 15 16  1  0
  8 17  2  0
  2 18  1  0
 18 19  2  0
 19 20  1  0
 20 21  2  0
 21 22  1  0
 22 23  1  0
 23 24  1  0
 24 25  1  0
 25 26  1  0
 26 27  1  0
 27 28  1  0
 28 29  1  0
 22 30  2  0
 17  4  1  0
 30 18  1  0
 16 11  1  0
 29 24  1  0
  5 31  1  0
  6 32  1  0
  7 33  1  0
 12 34  1  0
 12 35  1  0
 13 36  1  0
 13 37  1  0
 15 38  1  0
 15 39  1  0
 16 40  1  0
 16 41  1  0
 17 42  1  0
 19 43  1  0
 20 44  1  0
 21 45  1  0
 23 46  1  0
 23 47  1  0
 25 48  1  0
 25 49  1  0
 26 50  1  0
 26 51  1  0
 28 52  1  0
 28 53  1  0
 29 54  1  0
 29 55  1  0
 30 56  1  0
M  CHG  1   3  -1
M  END
>  <UniqueID>  (68) 
64

>  <SMILES>  (68) 
O=C([N-]c1cccc(C(=O)N2CCOCC2)c1)c1cccc(CN2CCOCC2)c1

>  <Energy>  (68) 
86.2540081559836

>  <Genealogy>  (68) 
O=C([N-]c1cccc(C(=O)N2CCOCC2)c1)c1cccc(CN2CCOCC2)c1 (protonated)
O=C([N-]c1cccc(C(=O)N2CCOCC2)c1)c1cccc(CN2CCOCC2)c1 (3D coordinates assigned)
O=C([N-]c1cccc(C(=O)N2CCOCC2)c1)c1cccc(CN2CCOCC2)c1 (nonaromatic ring conformer: 86.2540081559836 kcal/mol)

>  <smiles>  (68) 
O=C(Nc1cccc(C(=O)N2CCOCC2)c1)c1cccc(CN2CCOCC2)c1

>  <score_type>  (68) 
oracle

>  <origin>  (68) 
adg

>  <m_score__min__energy>  (68) 
-11.81

>  <m_primary>  (68) 
energy

$$$$
68:0
     RDKit          3D

 58 61  0  0  0  0  0  0  0  0999 V2000
   59.1340   35.3060   46.2540 O   0  0  0  0  0  0  0  0  0  0  0  0
   59.0790   34.0810   46.5390 C   0  0  0  0  0  0  0  0  0  0  0  0
   59.5180   33.6600   47.8390 N   0  0  0  0  0  0  0  0  0  0  0  0
   60.8820   33.5190   48.2630 C   0  0  0  0  0  0  0  0  0  0  0  0
   61.2850   34.1170   49.4620 C   0  0  0  0  0  0  0  0  0  0  0  0
   62.6040   33.9930   49.9070 C   0  0  0  0  0  0  0  0  0  0  0  0
   63.5390   33.2640   49.1560 C   0  0  0  0  0  0  0  0  0  0  0  0
   64.9550   33.1130   49.6390 C   0  0  0  0  0  0  0  0  0  0  0  0
   65.0600   31.9950   50.6790 C   0  0  0  0  0  0  0  0  0  0  0  0
   63.9890   31.0090   50.4690 N   0  0  0  0  0  0  0  0  0  0  0  0
   62.9200   31.1140   51.4800 C   0  0  0  0  0  0  0  0  0  0  0  0
   62.0880   29.8210   51.5900 C   0  0  2  0  0  0  0  0  0  0  0  0
   62.9240   28.7060   51.4180 O   0  0  0  0  0  0  0  0  0  0  0  0
   60.9960   29.8210   50.5450 C   0  0  0  0  0  0  0  0  0  0  0  0
   60.5830   28.6310   49.9280 C   0  0  0  0  0  0  0  0  0  0  0  0
   59.5960   28.6600   48.9440 C   0  0  0  0  0  0  0  0  0  0  0  0
   59.0340   29.8820   48.5730 C   0  0  0  0  0  0  0  0  0  0  0  0
   59.4580   31.0340   49.1600 N   0  0  0  0  0  0  0  0  0  0  0  0
   60.4180   31.0300   50.1240 C   0  0  0  0  0  0  0  0  0  0  0  0
   63.1250   32.6280   47.9740 C   0  0  0  0  0  0  0  0  0  0  0  0
   61.8050   32.7510   47.5320 C   0  0  0  0  0  0  0  0  0  0  0  0
   58.6140   33.1150   45.5150 C   0  0  0  0  0  0  0  0  0  0  0  0
   58.5270   33.4890   44.1630 C   0  0  0  0  0  0  0  0  0  0  0  0
   58.1090   32.5680   43.2010 C   0  0  0  0  0  0  0  0  0  0  0  0
   57.7670   31.2670   43.5770 C   0  0  0  0  0  0  0  0  0  0  0  0
   57.8220   30.8800   44.9260 C   0  0  0  0  0  0  0  0  0  0  0  0
   57.4740   29.4930   45.3180 C   0  0  0  0  0  0  0  0  0  0  0  0
   58.4680   28.6210   45.7860 C   0  0  0  0  0  0  0  0  0  0  0  0
   58.1500   27.3560   46.1590 N   0  0  0  0  0  0  0  0  0  0  0  0
   56.8720   26.9050   46.0800 C   0  0  0  0  0  0  0  0  0  0  0  0
   56.5990   25.7280   46.4330 O   0  0  0  0  0  0  0  0  0  0  0  0
   55.8900   27.7230   45.6240 N   0  0  0  0  0  0  0  0  0  0  0  0
   56.1580   28.9990   45.2400 C   0  0  0  0  0  0  0  0  0  0  0  0
   55.2220   29.7190   44.8010 O   0  0  0  0  0  0  0  0  0  0  0  0
   58.2450   31.8120   45.8900 C   0  0  0  0  0  0  0  0  0  0  0  0
   60.5587   34.6886   50.0585 H   0  0  0  0  0  0  0  0  0  0  0  0
   62.9107   34.4689   50.8501 H   0  0  0  0  0  0  0  0  0  0  0  0
   65.6036   32.8718   48.7839 H   0  0  0  0  0  0  0  0  0  0  0  0
   65.2704   34.0581   50.1053 H   0  0  0  0  0  0  0  0  0  0  0  0
   66.0365   31.4980   50.5820 H   0  0  0  0  0  0  0  0  0  0  0  0
   64.9594   32.4279   51.6852 H   0  0  0  0  0  0  0  0  0  0  0  0
   64.4010   30.0460   50.4820 H   0  0  0  0  0  0  0  0  0  0  0  0
   63.3777   31.3241   52.4579 H   0  0  0  0  0  0  0  0  0  0  0  0
   62.2430   31.9238   51.1703 H   0  0  0  0  0  0  0  0  0  0  0  0
   61.6238   29.7707   52.5860 H   0  0  0  0  0  0  0  0  0  0  0  0
   63.8570   29.0480   51.3900 H   0  0  0  0  0  0  0  0  0  0  0  0
   61.0385   27.6736   50.2210 H   0  0  0  0  0  0  0  0  0  0  0  0
   59.2632   27.7277   48.4643 H   0  0  0  0  0  0  0  0  0  0  0  0
   58.2472   29.9141   47.8050 H   0  0  0  0  0  0  0  0  0  0  0  0
   59.0360   31.9410   48.8640 H   0  0  0  0  0  0  0  0  0  0  0  0
   60.7433   31.9786   50.5761 H   0  0  0  0  0  0  0  0  0  0  0  0
   63.8432   32.0303   47.3935 H   0  0  0  0  0  0  0  0  0  0  0  0
   61.4870   32.2449   46.6085 H   0  0  0  0  0  0  0  0  0  0  0  0
   58.7899   34.5136   43.8612 H   0  0  0  0  0  0  0  0  0  0  0  0
   58.0488   32.8675   42.1443 H   0  0  0  0  0  0  0  0  0  0  0  0
   57.4528   30.5414   42.8123 H   0  0  0  0  0  0  0  0  0  0  0  0
   59.5109   28.9647   45.8509 H   0  0  0  0  0  0  0  0  0  0  0  0
   58.2875   31.5180   46.9491 H   0  0  0  0  0  0  0  0  0  0  0  0
  1  2  2  0
  2  3  1  0
  3  4  1  0
  4  5  2  0
  5  6  1  0
  6  7  2  0
  7  8  1  0
  8  9  1  0
  9 10  1  0
 10 11  1  0
 11 12  1  0
 12 13  1  0
 12 14  1  0
 14 15  2  0
 15 16  1  0
 16 17  2  0
 17 18  1  0
 18 19  2  0
  7 20  1  0
 20 21  2  0
  2 22  1  0
 22 23  2  0
 23 24  1  0
 24 25  2  0
 25 26  1  0
 26 27  1  0
 27 28  2  0
 28 29  1  0
 29 30  1  0
 30 31  2  0
 30 32  1  0
 32 33  1  0
 33 34  2  0
 26 35  2  0
 21  4  1  0
 35 22  1  0
 19 14  1  0
 33 27  1  0
  5 36  1  0
  6 37  1  0
  8 38  1  0
  8 39  1  0
  9 40  1  0
  9 41  1  0
 10 42  1  0
 11 43  1  0
 11 44  1  0
 12 45  1  1
 13 46  1  0
 15 47  1  0
 16 48  1  0
 17 49  1  0
 18 50  1  0
 19 51  1  0
 20 52  1  0
 21 53  1  0
 23 54  1  0
 24 55  1  0
 25 56  1  0
 28 57  1  0
 35 58  1  0
M  CHG  4   3  -1  18   1  29  -1  32  -1
M  END
>  <UniqueID>  (69) 
65

>  <SMILES>  (69) 
O=C([N-]c1ccc(CCNC[C@H](O)c2ccc[nH+]c2)cc1)c1cccc(-c2c[n-]c(=O)[n-]c2=O)c1

>  <Energy>  (69) 
75.56703702270904

>  <Genealogy>  (69) 
O=C([N-]c1ccc(CCNCC(O)c2ccc[nH+]c2)cc1)c1cccc(-c2c[n-]c(=O)[n-]c2=O)c1 (protonated)
O=C([N-]c1ccc(CCNC[C@H](O)c2ccc[nH+]c2)cc1)c1cccc(-c2c[n-]c(=O)[n-]c2=O)c1 (chirality)
O=C([N-]c1ccc(CCNC[C@H](O)c2ccc[nH+]c2)cc1)c1cccc(-c2c[n-]c(=O)[n-]c2=O)c1 (3D coordinates assigned)
O=C([N-]c1ccc(CCNC[C@H](O)c2ccc[nH+]c2)cc1)c1cccc(-c2c[n-]c(=O)[n-]c2=O)c1 (optimized conformer: 75.56703702270904 kcal/mol)

>  <smiles>  (69) 
O=C(Nc1ccc(CCNCC(O)c2cccnc2)cc1)c1cccc(-c2c[nH]c(=O)[nH]c2=O)c1

>  <score_type>  (69) 
oracle

>  <origin>  (69) 
adg

>  <m_score__min__energy>  (69) 
-13.140000000000001

>  <m_primary>  (69) 
energy

$$$$
69:0
     RDKit          3D

 42 44  0  0  0  0  0  0  0  0999 V2000
   58.3280   27.2180   43.3150 C   0  0  0  0  0  0  0  0  0  0  0  0
   58.2660   28.1920   44.4490 C   0  0  0  0  0  0  0  0  0  0  0  0
   58.3040   29.5330   44.2200 N   0  0  0  0  0  0  0  0  0  0  0  0
   58.2450   30.2570   45.3600 C   0  0  0  0  0  0  0  0  0  0  0  0
   58.2340   31.7350   45.4210 C   0  0  0  0  0  0  0  0  0  0  0  0
   57.2050   32.3360   45.0060 O   0  0  0  0  0  0  0  0  0  0  0  0
   59.3470   32.5100   45.9270 N   0  0  0  0  0  0  0  0  0  0  0  0
   60.3920   31.9060   46.7590 C   0  0  0  0  0  0  0  0  0  0  0  0
   59.3760   33.9530   45.6620 C   0  0  0  0  0  0  0  0  0  0  0  0
   58.1290   29.2520   46.7030 S   0  0  0  0  0  0  0  0  0  0  0  0
   58.1630   27.8290   45.7980 C   0  0  0  0  0  0  0  0  0  0  0  0
   58.1370   26.4630   46.3680 C   0  0  0  0  0  0  0  0  0  0  0  0
   59.1020   26.0610   47.0720 O   0  0  0  0  0  0  0  0  0  0  0  0
   56.9800   25.5630   46.1570 C   0  0  0  0  0  0  0  0  0  0  0  0
   55.7250   26.0880   45.8240 C   0  0  0  0  0  0  0  0  0  0  0  0
   55.5430   27.4580   45.6700 O   0  0  0  0  0  0  0  0  0  0  0  0
   54.6740   25.2560   45.6320 N   0  0  0  0  0  0  0  0  0  0  0  0
   54.7990   23.9110   45.7570 C   0  0  0  0  0  0  0  0  0  0  0  0
   53.7930   23.1820   45.5470 O   0  0  0  0  0  0  0  0  0  0  0  0
   56.0060   23.3590   46.0990 N   0  0  0  0  0  0  0  0  0  0  0  0
   56.1340   21.9280   46.2340 C   0  0  0  0  0  0  0  0  0  0  0  0
   56.2120   21.3420   47.5090 C   0  0  0  0  0  0  0  0  0  0  0  0
   56.3340   19.9550   47.6410 C   0  0  0  0  0  0  0  0  0  0  0  0
   56.3760   19.1450   46.5030 C   0  0  0  0  0  0  0  0  0  0  0  0
   56.2980   19.7200   45.2310 C   0  0  0  0  0  0  0  0  0  0  0  0
   56.1770   21.1060   45.0950 C   0  0  0  0  0  0  0  0  0  0  0  0
   57.0920   24.1700   46.3140 C   0  0  0  0  0  0  0  0  0  0  0  0
   58.1920   23.6690   46.6840 O   0  0  0  0  0  0  0  0  0  0  0  0
   58.3931   26.1948   43.7136 H   0  0  0  0  0  0  0  0  0  0  0  0
   57.4219   27.3145   42.6988 H   0  0  0  0  0  0  0  0  0  0  0  0
   59.2146   27.4286   42.6988 H   0  0  0  0  0  0  0  0  0  0  0  0
   60.1438   32.0495   47.8210 H   0  0  0  0  0  0  0  0  0  0  0  0
   60.4587   30.8301   46.5402 H   0  0  0  0  0  0  0  0  0  0  0  0
   61.3576   32.3853   46.5402 H   0  0  0  0  0  0  0  0  0  0  0  0
   59.3870   34.5008   46.6158 H   0  0  0  0  0  0  0  0  0  0  0  0
   60.2793   34.2019   45.0858 H   0  0  0  0  0  0  0  0  0  0  0  0
   58.4834   34.2380   45.0858 H   0  0  0  0  0  0  0  0  0  0  0  0
   56.1770   21.9767   48.4067 H   0  0  0  0  0  0  0  0  0  0  0  0
   56.3969   19.5014   48.6412 H   0  0  0  0  0  0  0  0  0  0  0  0
   56.4705   18.0541   46.6081 H   0  0  0  0  0  0  0  0  0  0  0  0
   56.3319   19.0811   44.3362 H   0  0  0  0  0  0  0  0  0  0  0  0
   56.1152   21.5549   44.0927 H   0  0  0  0  0  0  0  0  0  0  0  0
  1  2  1  0
  2  3  1  0
  3  4  2  0
  4  5  1  0
  5  6  2  0
  5  7  1  0
  7  8  1  0
  7  9  1  0
  4 10  1  0
 10 11  1  0
 11 12  1  0
 12 13  2  0
 12 14  1  0
 14 15  2  0
 15 16  1  0
 15 17  1  0
 17 18  1  0
 18 19  2  0
 18 20  1  0
 20 21  1  0
 21 22  2  0
 22 23  1  0
 23 24  2  0
 24 25  1  0
 25 26  2  0
 20 27  1  0
 27 28  2  0
 11  2  2  0
 27 14  1  0
 26 21  1  0
  1 29  1  0
  1 30  1  0
  1 31  1  0
  8 32  1  0
  8 33  1  0
  8 34  1  0
  9 35  1  0
  9 36  1  0
  9 37  1  0
 22 38  1  0
 23 39  1  0
 24 40  1  0
 25 41  1  0
 26 42  1  0
M  CHG  2  16  -1  17  -1
M  END
>  <UniqueID>  (70) 
66

>  <SMILES>  (70) 
Cc1nc(C(=O)N(C)C)sc1C(=O)c1c([O-])[n-]c(=O)n(-c2ccccc2)c1=O

>  <Energy>  (70) 
91.15623814567432

>  <Genealogy>  (70) 
Cc1nc(C(=O)N(C)C)sc1C(=O)c1c([O-])[n-]c(=O)n(-c2ccccc2)c1=O (protonated)
Cc1nc(C(=O)N(C)C)sc1C(=O)c1c([O-])[n-]c(=O)n(-c2ccccc2)c1=O (3D coordinates assigned)
Cc1nc(C(=O)N(C)C)sc1C(=O)c1c([O-])[n-]c(=O)n(-c2ccccc2)c1=O (optimized conformer: 91.15623814567432 kcal/mol)

>  <smiles>  (70) 
Cc1nc(C(=O)N(C)C)sc1C(=O)c1c(O)[nH]c(=O)n(-c2ccccc2)c1=O

>  <score_type>  (70) 
oracle

>  <origin>  (70) 
adg

>  <m_score__min__energy>  (70) 
-12.4

>  <m_primary>  (70) 
energy

$$$$
70:0
     RDKit          3D

 29 30  0  0  0  0  0  0  0  0999 V2000
   56.3320   29.4950   42.8920 C   0  0  0  0  0  0  0  0  0  0  0  0
   56.7960   30.4850   43.8840 C   0  0  0  0  0  0  0  0  0  0  0  0
   56.0990   30.8600   44.8680 O   0  0  0  0  0  0  0  0  0  0  0  0
   58.0850   31.0720   43.7640 N   0  0  0  0  0  0  0  0  0  0  0  0
   58.5170   32.0400   44.7460 C   0  0  0  0  0  0  0  0  0  0  0  0
   58.4780   33.7830   44.5080 S   0  0  0  0  0  0  0  0  0  0  0  0
   59.1620   34.1280   46.1740 C   0  0  0  0  0  0  0  0  0  0  0  0
   59.3510   32.8790   46.7390 C   0  0  0  0  0  0  0  0  0  0  0  0
   59.8870   32.8140   48.1620 C   0  0  0  0  0  0  0  0  0  0  0  0
   61.3500   32.7550   48.2110 C   0  0  0  0  0  0  0  0  0  0  0  0
   62.2680   33.1090   49.1020 N   0  0  0  0  0  0  0  0  0  0  0  0
   63.5090   32.8370   48.6620 C   0  0  0  0  0  0  0  0  0  0  0  0
   64.9520   33.0790   49.3720 S   0  0  0  0  0  0  0  0  0  0  0  0
   63.3520   32.2850   47.4310 N   0  0  0  0  0  0  0  0  0  0  0  0
   62.0800   32.2370   47.1660 N   0  0  0  0  0  0  0  0  0  0  0  0
   59.0150   31.8200   45.9920 C   0  0  0  0  0  0  0  0  0  0  0  0
   59.1930   30.3880   46.4880 C   0  0  0  0  0  0  0  0  0  0  0  0
   55.9210   28.6181   43.4137 H   0  0  0  0  0  0  0  0  0  0  0  0
   55.5514   29.9458   42.2616 H   0  0  0  0  0  0  0  0  0  0  0  0
   57.1779   29.1835   42.2616 H   0  0  0  0  0  0  0  0  0  0  0  0
   58.7290   30.8070   42.9620 H   0  0  0  0  0  0  0  0  0  0  0  0
   59.3746   35.1090   46.6239 H   0  0  0  0  0  0  0  0  0  0  0  0
   59.5522   33.7096   48.7058 H   0  0  0  0  0  0  0  0  0  0  0  0
   59.5009   31.8922   48.6216 H   0  0  0  0  0  0  0  0  0  0  0  0
   64.1180   31.9460   46.7800 H   0  0  0  0  0  0  0  0  0  0  0  0
   61.6710   31.8480   46.2640 H   0  0  0  0  0  0  0  0  0  0  0  0
   59.1942   30.3784   47.5880 H   0  0  0  0  0  0  0  0  0  0  0  0
   58.3653   29.7658   46.1168 H   0  0  0  0  0  0  0  0  0  0  0  0
   60.1479   29.9874   46.1168 H   0  0  0  0  0  0  0  0  0  0  0  0
  1  2  1  0
  2  3  2  0
  2  4  1  0
  4  5  1  0
  5  6  1  0
  6  7  1  0
  7  8  2  0
  8  9  1  0
  9 10  1  0
 10 11  2  0
 11 12  1  0
 12 13  2  0
 12 14  1  0
 14 15  1  0
  8 16  1  0
 16 17  1  0
 16  5  2  0
 15 10  1  0
  1 18  1  0
  1 19  1  0
  1 20  1  0
  4 21  1  0
  7 22  1  0
  9 23  1  0
  9 24  1  0
 14 25  1  0
 15 26  1  0
 17 27  1  0
 17 28  1  0
 17 29  1  0
M  END
>  <smiles>  (71) 
CC(=O)Nc1scc(Cc2nc(=S)[nH][nH]2)c1C

>  <score_type>  (71) 
oracle

>  <origin>  (71) 
adg

>  <m_score__min__energy>  (71) 
-6.46

>  <m_primary>  (71) 
energy

$$$$
71:0
     RDKit          3D

 32 34  0  0  0  0  0  0  0  0999 V2000
   57.3670   31.8490   42.8990 O   0  0  0  0  0  0  0  0  0  0  0  0
   57.3990   31.2040   43.9800 C   0  0  0  0  0  0  0  0  0  0  0  0
   58.1230   29.9010   44.0440 C   0  0  0  0  0  0  0  0  0  0  0  0
   58.7760   29.6550   45.7260 S   0  0  0  0  0  0  0  0  0  0  0  0
   58.0360   28.0360   45.8990 C   0  0  0  0  0  0  0  0  0  0  0  0
   58.8380   26.9360   46.0700 N   0  0  0  0  0  0  0  0  0  0  0  0
   58.3040   25.6860   46.2070 C   0  0  0  0  0  0  0  0  0  0  0  0
   59.0480   24.6820   46.3650 O   0  0  0  0  0  0  0  0  0  0  0  0
   56.9240   25.5650   46.1650 C   0  0  0  0  0  0  0  0  0  0  0  0
   56.0430   24.5150   46.2610 C   0  0  0  0  0  0  0  0  0  0  0  0
   54.7880   25.0130   46.1450 N   0  0  0  0  0  0  0  0  0  0  0  0
   54.8480   26.3340   45.9790 N   0  0  0  0  0  0  0  0  0  0  0  0
   56.1490   26.6630   45.9920 C   0  0  0  0  0  0  0  0  0  0  0  0
   56.6740   27.9040   45.8560 N   0  0  0  0  0  0  0  0  0  0  0  0
   56.7890   31.7330   45.1610 N   0  0  0  0  0  0  0  0  0  0  0  0
   56.7500   33.1550   45.4820 C   0  0  0  0  0  0  0  0  0  0  0  0
   57.9670   33.5460   46.2770 C   0  0  0  0  0  0  0  0  0  0  0  0
   58.1590   33.0060   47.5600 C   0  0  0  0  0  0  0  0  0  0  0  0
   59.2730   33.3720   48.3220 C   0  0  0  0  0  0  0  0  0  0  0  0
   60.2020   34.2810   47.8100 C   0  0  0  0  0  0  0  0  0  0  0  0
   60.0190   34.8270   46.5380 C   0  0  0  0  0  0  0  0  0  0  0  0
   58.9070   34.4670   45.7700 C   0  0  0  0  0  0  0  0  0  0  0  0
   58.7490   35.0130   44.5390 F   0  0  0  0  0  0  0  0  0  0  0  0
   57.4301   29.0834   43.7959 H   0  0  0  0  0  0  0  0  0  0  0  0
   58.9545   29.9065   43.3238 H   0  0  0  0  0  0  0  0  0  0  0  0
   56.3092   23.4576   46.4063 H   0  0  0  0  0  0  0  0  0  0  0  0
   56.7241   33.7368   44.5488 H   0  0  0  0  0  0  0  0  0  0  0  0
   55.8506   33.3616   46.0807 H   0  0  0  0  0  0  0  0  0  0  0  0
   57.4288   32.2912   47.9673 H   0  0  0  0  0  0  0  0  0  0  0  0
   59.4178   32.9440   49.3249 H   0  0  0  0  0  0  0  0  0  0  0  0
   61.0787   34.5670   48.4096 H   0  0  0  0  0  0  0  0  0  0  0  0
   60.7522   35.5430   46.1384 H   0  0  0  0  0  0  0  0  0  0  0  0
  1  2  2  0
  2  3  1  0
  3  4  1  0
  4  5  1  0
  5  6  2  0
  6  7  1  0
  7  8  2  0
  7  9  1  0
  9 10  2  0
 10 11  1  0
 11 12  1  0
 12 13  2  0
 13 14  1  0
  2 15  1  0
 15 16  1  0
 16 17  1  0
 17 18  2  0
 18 19  1  0
 19 20  2  0
 20 21  1  0
 21 22  2  0
 22 23  1  0
 14  5  1  0
 22 17  1  0
 13  9  1  0
  3 24  1  0
  3 25  1  0
 10 26  1  0
 16 27  1  0
 16 28  1  0
 18 29  1  0
 19 30  1  0
 20 31  1  0
 21 32  1  0
M  CHG  3  11  -1  14  -1  15  -1
M  END
>  <UniqueID>  (72) 
67

>  <SMILES>  (72) 
O=C(CSc1nc(=O)c2c[n-]nc2[n-]1)[N-]Cc1ccccc1F

>  <Energy>  (72) 
69.41945932815794

>  <Genealogy>  (72) 
O=C(CSc1nc(=O)c2c[n-]nc2[n-]1)[N-]Cc1ccccc1F (protonated)
O=C(CSc1nc(=O)c2c[n-]nc2[n-]1)[N-]Cc1ccccc1F (3D coordinates assigned)
O=C(CSc1nc(=O)c2c[n-]nc2[n-]1)[N-]Cc1ccccc1F (optimized conformer: 69.41945932815794 kcal/mol)

>  <smiles>  (72) 
O=C(CSc1nc(=O)c2c[nH]nc2[nH]1)NCc1ccccc1F

>  <score_type>  (72) 
oracle

>  <origin>  (72) 
adg

>  <m_score__min__energy>  (72) 
-13.34

>  <m_primary>  (72) 
energy

$$$$
72:0
     RDKit          3D

 59 62  0  0  0  0  0  0  0  0999 V2000
   54.0260   24.8590   45.5510 C   0  0  0  0  0  0  0  0  0  0  0  0
   54.6560   26.1050   45.8300 O   0  0  0  0  0  0  0  0  0  0  0  0
   56.0170   26.2570   46.1390 C   0  0  0  0  0  0  0  0  0  0  0  0
   56.7650   25.2290   46.7440 C   0  0  0  0  0  0  0  0  0  0  0  0
   58.1170   25.4150   47.0330 C   0  0  0  0  0  0  0  0  0  0  0  0
   58.7500   26.6250   46.7120 C   0  0  0  0  0  0  0  0  0  0  0  0
   60.1990   26.8350   47.0500 C   0  0  0  0  0  0  0  0  0  0  0  0
   60.4250   28.2530   47.4610 C   0  0  0  0  0  0  0  0  0  0  0  0
   60.7070   28.6410   48.7200 N   0  0  0  0  0  0  0  0  0  0  0  0
   60.8540   29.9560   48.6780 N   0  0  0  0  0  0  0  0  0  0  0  0
   60.6630   30.3140   47.3940 C   0  0  0  0  0  0  0  0  0  0  0  0
   60.6940   31.7230   46.9020 C   0  0  0  0  0  0  0  0  0  0  0  0
   60.8710   32.6390   48.0300 N   0  0  0  0  0  0  0  0  0  0  0  0
   62.0900   32.6100   48.7810 C   0  0  0  0  0  0  0  0  0  0  0  0
   62.0900   32.1070   50.0900 C   0  0  0  0  0  0  0  0  0  0  0  0
   63.2760   32.0660   50.8290 C   0  0  0  0  0  0  0  0  0  0  0  0
   64.4670   32.5300   50.2650 C   0  0  0  0  0  0  0  0  0  0  0  0
   64.4740   33.0390   48.9640 C   0  0  0  0  0  0  0  0  0  0  0  0
   63.2900   33.0820   48.2180 C   0  0  0  0  0  0  0  0  0  0  0  0
   63.3300   33.8230   46.4520 Br  0  0  0  0  0  0  0  0  0  0  0  0
   59.5010   33.4840   48.6830 S   0  0  0  0  0  0  0  0  0  0  0  0
   59.8820   34.9060   48.9870 O   0  0  0  0  0  0  0  0  0  0  0  0
   58.3810   33.4900   47.6770 O   0  0  0  0  0  0  0  0  0  0  0  0
   58.9440   32.6710   50.1420 C   0  0  0  0  0  0  0  0  0  0  0  0
   58.9000   33.3720   51.3560 C   0  0  0  0  0  0  0  0  0  0  0  0
   58.4320   32.7440   52.5140 C   0  0  0  0  0  0  0  0  0  0  0  0
   58.0090   31.4060   52.4720 C   0  0  0  0  0  0  0  0  0  0  0  0
   57.4700   30.7480   53.7070 C   0  0  0  0  0  0  0  0  0  0  0  0
   58.0280   30.7150   51.2500 C   0  0  0  0  0  0  0  0  0  0  0  0
   58.4970   31.3440   50.0910 C   0  0  0  0  0  0  0  0  0  0  0  0
   60.4010   29.2740   46.6400 O   0  0  0  0  0  0  0  0  0  0  0  0
   58.0050   27.6570   46.1240 C   0  0  0  0  0  0  0  0  0  0  0  0
   56.6380   27.4780   45.8320 C   0  0  0  0  0  0  0  0  0  0  0  0
   55.8640   28.4890   45.2390 O   0  0  0  0  0  0  0  0  0  0  0  0
   56.3800   29.5030   44.3840 C   0  0  0  0  0  0  0  0  0  0  0  0
   53.7721   24.3568   46.4961 H   0  0  0  0  0  0  0  0  0  0  0  0
   53.1081   25.0341   44.9707 H   0  0  0  0  0  0  0  0  0  0  0  0
   54.7111   24.2235   44.9707 H   0  0  0  0  0  0  0  0  0  0  0  0
   56.2801   24.2729   46.9904 H   0  0  0  0  0  0  0  0  0  0  0  0
   58.6896   24.6089   47.5150 H   0  0  0  0  0  0  0  0  0  0  0  0
   60.4813   26.1663   47.8765 H   0  0  0  0  0  0  0  0  0  0  0  0
   60.8132   26.6123   46.1650 H   0  0  0  0  0  0  0  0  0  0  0  0
   61.5300   31.8454   46.1977 H   0  0  0  0  0  0  0  0  0  0  0  0
   59.7450   31.9512   46.3947 H   0  0  0  0  0  0  0  0  0  0  0  0
   61.1531   31.7433   50.5371 H   0  0  0  0  0  0  0  0  0  0  0  0
   63.2715   31.6684   51.8546 H   0  0  0  0  0  0  0  0  0  0  0  0
   65.4004   32.4945   50.8460 H   0  0  0  0  0  0  0  0  0  0  0  0
   65.4127   33.4072   48.5243 H   0  0  0  0  0  0  0  0  0  0  0  0
   59.2347   34.4190   51.3971 H   0  0  0  0  0  0  0  0  0  0  0  0
   58.3950   33.3006   53.4621 H   0  0  0  0  0  0  0  0  0  0  0  0
   57.8794   31.2478   54.5972 H   0  0  0  0  0  0  0  0  0  0  0  0
   56.3728   30.8259   53.7149 H   0  0  0  0  0  0  0  0  0  0  0  0
   57.7624   29.6876   53.7149 H   0  0  0  0  0  0  0  0  0  0  0  0
   57.6728   29.6750   51.2033 H   0  0  0  0  0  0  0  0  0  0  0  0
   58.5147   30.7953   49.1378 H   0  0  0  0  0  0  0  0  0  0  0  0
   58.4918   28.6149   45.8885 H   0  0  0  0  0  0  0  0  0  0  0  0
   56.7955   30.3195   44.9928 H   0  0  0  0  0  0  0  0  0  0  0  0
   57.1721   29.0793   43.7492 H   0  0  0  0  0  0  0  0  0  0  0  0
   55.5712   29.8939   43.7492 H   0  0  0  0  0  0  0  0  0  0  0  0
  1  2  1  0
  2  3  1  0
  3  4  2  0
  4  5  1  0
  5  6  2  0
  6  7  1  0
  7  8  1  0
  8  9  2  0
  9 10  1  0
 10 11  2  0
 11 12  1  0
 12 13  1  0
 13 14  1  0
 14 15  2  0
 15 16  1  0
 16 17  2  0
 17 18  1  0
 18 19  2  0
 19 20  1  0
 13 21  1  0
 21 22  2  0
 21 23  2  0
 21 24  1  0
 24 25  2  0
 25 26  1  0
 26 27  2  0
 27 28  1  0
 27 29  1  0
 29 30  2  0
 11 31  1  0
  6 32  1  0
 32 33  2  0
 33 34  1  0
 34 35  1  0
 33  3  1  0
 31  8  1  0
 19 14  1  0
 30 24  1  0
  1 36  1  0
  1 37  1  0
  1 38  1  0
  4 39  1  0
  5 40  1  0
  7 41  1  0
  7 42  1  0
 12 43  1  0
 12 44  1  0
 15 45  1  0
 16 46  1  0
 17 47  1  0
 18 48  1  0
 25 49  1  0
 26 50  1  0
 28 51  1  0
 28 52  1  0
 28 53  1  0
 29 54  1  0
 30 55  1  0
 32 56  1  0
 35 57  1  0
 35 58  1  0
 35 59  1  0
M  END
>  <UniqueID>  (73) 
68

>  <SMILES>  (73) 
COc1ccc(Cc2nnc(CN(c3ccccc3Br)S(=O)(=O)c3ccc(C)cc3)o2)cc1OC

>  <Energy>  (73) 
97.77915857908926

>  <Genealogy>  (73) 
COc1ccc(Cc2nnc(CN(c3ccccc3Br)S(=O)(=O)c3ccc(C)cc3)o2)cc1OC (3D coordinates assigned)
COc1ccc(Cc2nnc(CN(c3ccccc3Br)S(=O)(=O)c3ccc(C)cc3)o2)cc1OC (optimized conformer: 97.77915857908926 kcal/mol)

>  <smiles>  (73) 
COc1ccc(Cc2nnc(CN(c3ccccc3Br)S(=O)(=O)c3ccc(C)cc3)o2)cc1OC

>  <score_type>  (73) 
oracle

>  <origin>  (73) 
adg

>  <m_score__min__energy>  (73) 
-10.109999999999999

>  <m_primary>  (73) 
energy

$$$$
73:0
     RDKit          3D

 43 45  0  0  0  0  0  0  0  0999 V2000
   53.4200   22.9520   46.2090 C   0  0  0  0  0  0  0  0  0  0  0  0
   53.6830   22.9860   44.7720 N   0  0  0  0  0  0  0  0  0  0  0  0
   55.3680   22.6860   44.4760 S   0  0  0  0  0  0  0  0  0  0  0  0
   55.8430   21.5920   45.3940 O   0  0  0  0  0  0  0  0  0  0  0  0
   55.5610   22.2320   43.0560 O   0  0  0  0  0  0  0  0  0  0  0  0
   56.3180   24.1410   44.7700 C   0  0  0  0  0  0  0  0  0  0  0  0
   57.0390   24.7360   43.7270 C   0  0  0  0  0  0  0  0  0  0  0  0
   57.7620   25.9090   43.9500 C   0  0  0  0  0  0  0  0  0  0  0  0
   57.7650   26.5130   45.2200 C   0  0  0  0  0  0  0  0  0  0  0  0
   58.5060   27.7790   45.4460 C   0  0  0  0  0  0  0  0  0  0  0  0
   59.8740   27.8280   45.7460 C   0  0  0  0  0  0  0  0  0  0  0  0
   60.3160   29.4440   45.9360 S   0  0  0  0  0  0  0  0  0  0  0  0
   58.7560   30.0150   45.6330 C   0  0  0  0  0  0  0  0  0  0  0  0
   58.3680   31.2580   45.6670 N   0  0  0  0  0  0  0  0  0  0  0  0
   57.3330   31.8470   44.8680 C   0  0  0  0  0  0  0  0  0  0  0  0
   56.3540   31.1270   44.5320 O   0  0  0  0  0  0  0  0  0  0  0  0
   57.4800   33.2220   44.3270 C   0  0  0  0  0  0  0  0  0  0  0  0
   58.1210   34.2320   44.9350 C   0  0  0  0  0  0  0  0  0  0  0  0
   58.9890   34.0640   46.1120 C   0  0  0  0  0  0  0  0  0  0  0  0
   60.3680   34.3140   46.0060 C   0  0  0  0  0  0  0  0  0  0  0  0
   61.1950   34.1570   47.1220 C   0  0  0  0  0  0  0  0  0  0  0  0
   60.6490   33.7500   48.3470 C   0  0  0  0  0  0  0  0  0  0  0  0
   59.2740   33.5300   48.4660 C   0  0  0  0  0  0  0  0  0  0  0  0
   58.4400   33.6820   47.3500 C   0  0  0  0  0  0  0  0  0  0  0  0
   57.1070   33.4580   47.4750 F   0  0  0  0  0  0  0  0  0  0  0  0
   57.8980   28.9990   45.3980 N   0  0  0  0  0  0  0  0  0  0  0  0
   57.0420   25.9080   46.2640 C   0  0  0  0  0  0  0  0  0  0  0  0
   56.3220   24.7320   46.0390 C   0  0  0  0  0  0  0  0  0  0  0  0
   54.3655   23.0742   46.7578 H   0  0  0  0  0  0  0  0  0  0  0  0
   52.7331   23.7688   46.4755 H   0  0  0  0  0  0  0  0  0  0  0  0
   52.9634   21.9874   46.4755 H   0  0  0  0  0  0  0  0  0  0  0  0
   57.0355   24.2768   42.7275 H   0  0  0  0  0  0  0  0  0  0  0  0
   58.3330   26.3638   43.1272 H   0  0  0  0  0  0  0  0  0  0  0  0
   60.5443   26.9611   45.8412 H   0  0  0  0  0  0  0  0  0  0  0  0
   57.0259   33.4298   43.3469 H   0  0  0  0  0  0  0  0  0  0  0  0
   57.9900   35.2462   44.5296 H   0  0  0  0  0  0  0  0  0  0  0  0
   60.7966   34.6333   45.0446 H   0  0  0  0  0  0  0  0  0  0  0  0
   62.2742   34.3529   47.0388 H   0  0  0  0  0  0  0  0  0  0  0  0
   61.3050   33.6032   49.2177 H   0  0  0  0  0  0  0  0  0  0  0  0
   58.8461   33.2374   49.4362 H   0  0  0  0  0  0  0  0  0  0  0  0
   56.8770   29.1440   45.2300 H   0  0  0  0  0  0  0  0  0  0  0  0
   57.0435   26.3642   47.2650 H   0  0  0  0  0  0  0  0  0  0  0  0
   55.7567   24.2692   46.8613 H   0  0  0  0  0  0  0  0  0  0  0  0
  1  2  1  0
  2  3  1  0
  3  4  2  0
  3  5  2  0
  3  6  1  0
  6  7  2  0
  7  8  1  0
  8  9  2  0
  9 10  1  0
 10 11  2  0
 11 12  1  0
 12 13  1  0
 13 14  2  3
 14 15  1  0
 15 16  2  0
 15 17  1  0
 17 18  2  3
 18 19  1  0
 19 20  2  0
 20 21  1  0
 21 22  2  0
 22 23  1  0
 23 24  2  0
 24 25  1  0
 13 26  1  0
  9 27  1  0
 27 28  2  0
 28  6  1  0
 26 10  1  0
 24 19  1  0
  1 29  1  0
  1 30  1  0
  1 31  1  0
  7 32  1  0
  8 33  1  0
 11 34  1  0
 17 35  1  0
 18 36  1  0
 20 37  1  0
 21 38  1  0
 22 39  1  0
 23 40  1  0
 26 41  1  0
 27 42  1  0
 28 43  1  0
M  CHG  1   2  -1
M  END
>  <UniqueID>  (74) 
69

>  <SMILES>  (74) 
C[N-]S(=O)(=O)c1ccc(-c2csc(=NC(=O)C=Cc3ccccc3F)[nH]2)cc1

>  <Energy>  (74) 
92.29124876347736

>  <Genealogy>  (74) 
C[N-]S(=O)(=O)c1ccc(-c2csc(=NC(=O)C=Cc3ccccc3F)[nH]2)cc1 (protonated)
C[N-]S(=O)(=O)c1ccc(-c2csc(=NC(=O)C=Cc3ccccc3F)[nH]2)cc1 (3D coordinates assigned)
C[N-]S(=O)(=O)c1ccc(-c2csc(=NC(=O)C=Cc3ccccc3F)[nH]2)cc1 (optimized conformer: 92.29124876347736 kcal/mol)

>  <smiles>  (74) 
CNS(=O)(=O)c1ccc(-c2csc(=NC(=O)C=Cc3ccccc3F)[nH]2)cc1

>  <score_type>  (74) 
oracle

>  <origin>  (74) 
adg

>  <m_score__min__energy>  (74) 
-10.130000000000001

>  <m_primary>  (74) 
energy

$$$$
74:0
     RDKit          3D

 40 42  0  0  0  0  0  0  0  0999 V2000
   57.5710   33.3670   45.2280 O   0  0  0  0  0  0  0  0  0  0  0  0
   58.3330   32.6090   45.8850 C   0  0  0  0  0  0  0  0  0  0  0  0
   58.7780   31.3880   45.2770 N   0  0  0  0  0  0  0  0  0  0  0  0
   58.1960   30.0790   45.4480 C   0  0  0  0  0  0  0  0  0  0  0  0
   56.8910   29.9050   44.9730 C   0  0  0  0  0  0  0  0  0  0  0  0
   56.0200   28.8260   45.0680 C   0  0  0  0  0  0  0  0  0  0  0  0
   54.7690   29.0120   44.4850 O   0  0  0  0  0  0  0  0  0  0  0  0
   56.2360   27.5960   45.6860 C   0  0  0  0  0  0  0  0  0  0  0  0
   55.1530   26.7170   45.6860 O   0  0  0  0  0  0  0  0  0  0  0  0
   57.4070   27.1310   46.2890 C   0  0  0  0  0  0  0  0  0  0  0  0
   57.3660   25.9680   46.7760 O   0  0  0  0  0  0  0  0  0  0  0  0
   58.6290   27.7940   46.4030 C   0  0  0  0  0  0  0  0  0  0  0  0
   59.0110   29.0910   46.0350 C   0  0  0  0  0  0  0  0  0  0  0  0
   60.4200   29.4490   46.3490 C   0  0  0  0  0  0  0  0  0  0  0  0
   61.3080   29.3470   45.4580 O   0  0  0  0  0  0  0  0  0  0  0  0
   60.7580   29.9730   47.6390 N   0  0  0  0  0  0  0  0  0  0  0  0
   61.6730   31.0490   47.8810 C   0  0  0  0  0  0  0  0  0  0  0  0
   61.8450   32.0190   46.8840 C   0  0  0  0  0  0  0  0  0  0  0  0
   62.7190   33.0910   47.0840 C   0  0  0  0  0  0  0  0  0  0  0  0
   63.4150   33.2110   48.2880 C   0  0  0  0  0  0  0  0  0  0  0  0
   63.2290   32.2690   49.3040 C   0  0  0  0  0  0  0  0  0  0  0  0
   64.0880   32.4580   50.8250 Cl  0  0  0  0  0  0  0  0  0  0  0  0
   62.3470   31.1940   49.1120 C   0  0  0  0  0  0  0  0  0  0  0  0
   62.1180   30.3010   50.1540 O   0  0  0  0  0  0  0  0  0  0  0  0
   58.7780   33.0220   47.2360 C   0  0  0  0  0  0  0  0  0  0  0  0
   59.5090   34.2120   47.4040 C   0  0  0  0  0  0  0  0  0  0  0  0
   59.9320   34.6070   48.6770 C   0  0  0  0  0  0  0  0  0  0  0  0
   59.6400   33.8150   49.7910 C   0  0  0  0  0  0  0  0  0  0  0  0
   58.9300   32.6230   49.6320 C   0  0  0  0  0  0  0  0  0  0  0  0
   58.5050   32.2230   48.3620 C   0  0  0  0  0  0  0  0  0  0  0  0
   56.4846   30.7717   44.4310 H   0  0  0  0  0  0  0  0  0  0  0  0
   59.4307   27.1957   46.8605 H   0  0  0  0  0  0  0  0  0  0  0  0
   61.2888   31.9360   45.9386 H   0  0  0  0  0  0  0  0  0  0  0  0
   62.8586   33.8411   46.2917 H   0  0  0  0  0  0  0  0  0  0  0  0
   64.1117   34.0490   48.4377 H   0  0  0  0  0  0  0  0  0  0  0  0
   59.7491   34.8349   46.5297 H   0  0  0  0  0  0  0  0  0  0  0  0
   60.4959   35.5432   48.8019 H   0  0  0  0  0  0  0  0  0  0  0  0
   59.9692   34.1303   50.7921 H   0  0  0  0  0  0  0  0  0  0  0  0
   58.7047   31.9974   50.5083 H   0  0  0  0  0  0  0  0  0  0  0  0
   57.9541   31.2785   48.2419 H   0  0  0  0  0  0  0  0  0  0  0  0
  1  2  2  0
  2  3  1  0
  3  4  1  0
  4  5  2  0
  5  6  1  0
  6  7  1  0
  6  8  2  0
  8  9  1  0
  8 10  1  0
 10 11  2  0
 10 12  1  0
 12 13  2  0
 13 14  1  0
 14 15  2  0
 14 16  1  0
 16 17  1  0
 17 18  2  0
 18 19  1  0
 19 20  2  0
 20 21  1  0
 21 22  1  0
 21 23  2  0
 23 24  1  0
  2 25  1  0
 25 26  2  0
 26 27  1  0
 27 28  2  0
 28 29  1  0
 29 30  2  0
 13  4  1  0
 23 17  1  0
 30 25  1  0
  5 31  1  0
 12 32  1  0
 18 33  1  0
 19 34  1  0
 20 35  1  0
 26 36  1  0
 27 37  1  0
 28 38  1  0
 29 39  1  0
 30 40  1  0
M  CHG  5   3  -1   7  -1   9  -1  16  -1  24  -1
M  END
>  <UniqueID>  (75) 
70

>  <SMILES>  (75) 
O=C([N-]c1cc([O-])c([O-])c(=O)cc1C(=O)[N-]c1cccc(Cl)c1[O-])c1ccccc1

>  <Energy>  (75) 
86.92475667017376

>  <Genealogy>  (75) 
O=C([N-]c1cc([O-])c([O-])c(=O)cc1C(=O)[N-]c1cccc(Cl)c1[O-])c1ccccc1 (protonated)
O=C([N-]c1cc([O-])c([O-])c(=O)cc1C(=O)[N-]c1cccc(Cl)c1[O-])c1ccccc1 (3D coordinates assigned)
O=C([N-]c1cc([O-])c([O-])c(=O)cc1C(=O)[N-]c1cccc(Cl)c1[O-])c1ccccc1 (optimized conformer: 86.92475667017376 kcal/mol)

>  <smiles>  (75) 
O=C(Nc1cc(O)c(O)c(=O)cc1C(=O)Nc1cccc(Cl)c1O)c1ccccc1

>  <score_type>  (75) 
oracle

>  <origin>  (75) 
adg

>  <m_score__min__energy>  (75) 
-16.899999999999999

>  <m_primary>  (75) 
energy

$$$$
75:0
     RDKit          3D

 49 50  0  0  0  0  0  0  0  0999 V2000
   58.4630   30.4820   50.6510 C   0  0  0  0  0  0  0  0  0  0  0  0
   58.3210   29.8010   49.4080 O   0  0  0  0  0  0  0  0  0  0  0  0
   59.1400   30.0080   48.2840 C   0  0  0  0  0  0  0  0  0  0  0  0
   59.9280   31.1690   48.1450 C   0  0  0  0  0  0  0  0  0  0  0  0
   60.7430   31.3530   47.0130 C   0  0  0  0  0  0  0  0  0  0  0  0
   61.5430   32.4890   46.8290 O   0  0  0  0  0  0  0  0  0  0  0  0
   62.9320   32.8680   47.7540 S   0  0  0  0  0  0  0  0  0  0  0  0
   63.8030   33.8280   46.9940 O   0  0  0  0  0  0  0  0  0  0  0  0
   63.7030   31.6140   48.0520 O   0  0  0  0  0  0  0  0  0  0  0  0
   62.4210   33.6210   49.2830 C   0  0  0  0  0  0  0  0  0  0  0  0
   61.9020   32.6540   50.1230 F   0  0  0  0  0  0  0  0  0  0  0  0
   63.5080   34.2210   49.8910 F   0  0  0  0  0  0  0  0  0  0  0  0
   61.4530   34.5740   49.0290 F   0  0  0  0  0  0  0  0  0  0  0  0
   60.7660   30.3680   46.0230 C   0  0  0  0  0  0  0  0  0  0  0  0
   59.9920   29.2150   46.1490 C   0  0  0  0  0  0  0  0  0  0  0  0
   59.1700   29.0260   47.2710 C   0  0  0  0  0  0  0  0  0  0  0  0
   58.3670   27.7500   47.3890 C   0  0  0  0  0  0  0  0  0  0  0  0
   57.5220   27.4870   46.1280 C   0  0  2  0  0  0  0  0  0  0  0  0
   56.9170   28.7370   45.6670 N   0  0  0  0  0  0  0  0  0  0  0  0
   57.2390   29.3320   44.4010 C   0  0  0  0  0  0  0  0  0  0  0  0
   58.0300   28.7550   43.6060 O   0  0  0  0  0  0  0  0  0  0  0  0
   56.6290   30.6410   44.0040 C   0  0  0  0  0  0  0  0  0  0  0  0
   57.8570   31.6960   43.1600 S   0  0  0  0  0  0  0  0  0  0  0  0
   58.1860   32.7310   44.5890 C   0  0  0  0  0  0  0  0  0  0  0  0
   59.0600   33.8200   44.4810 C   0  0  0  0  0  0  0  0  0  0  0  0
   59.3070   34.6330   45.5920 C   0  0  0  0  0  0  0  0  0  0  0  0
   58.6740   34.3660   46.8100 C   0  0  0  0  0  0  0  0  0  0  0  0
   57.7920   33.2860   46.9170 C   0  0  0  0  0  0  0  0  0  0  0  0
   57.5500   32.4670   45.8080 C   0  0  0  0  0  0  0  0  0  0  0  0
   56.4390   26.4800   46.3950 C   0  0  0  0  0  0  0  0  0  0  0  0
   56.7060   25.4090   47.0010 O   0  0  0  0  0  0  0  0  0  0  0  0
   55.1380   26.7240   45.9730 O   0  0  0  0  0  0  0  0  0  0  0  0
   58.3148   29.7714   51.4775 H   0  0  0  0  0  0  0  0  0  0  0  0
   59.4712   30.9169   50.7177 H   0  0  0  0  0  0  0  0  0  0  0  0
   57.7127   31.2836   50.7177 H   0  0  0  0  0  0  0  0  0  0  0  0
   59.9053   31.9392   48.9301 H   0  0  0  0  0  0  0  0  0  0  0  0
   61.4010   30.5032   45.1351 H   0  0  0  0  0  0  0  0  0  0  0  0
   60.0259   28.4469   45.3623 H   0  0  0  0  0  0  0  0  0  0  0  0
   59.0579   26.9069   47.5368 H   0  0  0  0  0  0  0  0  0  0  0  0
   57.6824   27.8547   48.2436 H   0  0  0  0  0  0  0  0  0  0  0  0
   58.1890   27.0828   45.3522 H   0  0  0  0  0  0  0  0  0  0  0  0
   56.1480   29.1610   46.2360 H   0  0  0  0  0  0  0  0  0  0  0  0
   55.7849   30.4544   43.3237 H   0  0  0  0  0  0  0  0  0  0  0  0
   56.2817   31.1586   44.9104 H   0  0  0  0  0  0  0  0  0  0  0  0
   59.5527   34.0361   43.5215 H   0  0  0  0  0  0  0  0  0  0  0  0
   59.9998   35.4832   45.5076 H   0  0  0  0  0  0  0  0  0  0  0  0
   58.8697   35.0052   47.6836 H   0  0  0  0  0  0  0  0  0  0  0  0
   57.2883   33.0801   47.8730 H   0  0  0  0  0  0  0  0  0  0  0  0
   56.8595   31.6151   45.8943 H   0  0  0  0  0  0  0  0  0  0  0  0
  1  2  1  0
  2  3  1  0
  3  4  2  0
  4  5  1  0
  5  6  1  0
  6  7  1  0
  7  8  2  0
  7  9  2  0
  7 10  1  0
 10 11  1  0
 10 12  1  0
 10 13  1  0
  5 14  2  0
 14 15  1  0
 15 16  2  0
 16 17  1  0
 17 18  1  0
 18 19  1  0
 19 20  1  0
 20 21  2  0
 20 22  1  0
 22 23  1  0
 23 24  1  0
 24 25  2  0
 25 26  1  0
 26 27  2  0
 27 28  1  0
 28 29  2  0
 18 30  1  0
 30 31  2  0
 30 32  1  0
 16  3  1  0
 29 24  1  0
  1 33  1  0
  1 34  1  0
  1 35  1  0
  4 36  1  0
 14 37  1  0
 15 38  1  0
 17 39  1  0
 17 40  1  0
 18 41  1  6
 19 42  1  0
 22 43  1  0
 22 44  1  0
 25 45  1  0
 26 46  1  0
 27 47  1  0
 28 48  1  0
 29 49  1  0
M  CHG  1  32  -1
M  END
>  <UniqueID>  (76) 
71

>  <SMILES>  (76) 
COc1cc(OS(=O)(=O)C(F)(F)F)ccc1C[C@H](NC(=O)CSc1ccccc1)C(=O)[O-]

>  <Energy>  (76) 
34.378341996218545

>  <Genealogy>  (76) 
COc1cc(OS(=O)(=O)C(F)(F)F)ccc1CC(NC(=O)CSc1ccccc1)C(=O)[O-] (protonated)
COc1cc(OS(=O)(=O)C(F)(F)F)ccc1C[C@H](NC(=O)CSc1ccccc1)C(=O)[O-] (chirality)
COc1cc(OS(=O)(=O)C(F)(F)F)ccc1C[C@H](NC(=O)CSc1ccccc1)C(=O)[O-] (3D coordinates assigned)
COc1cc(OS(=O)(=O)C(F)(F)F)ccc1C[C@H](NC(=O)CSc1ccccc1)C(=O)[O-] (optimized conformer: 34.378341996218545 kcal/mol)

>  <smiles>  (76) 
COc1cc(OS(=O)(=O)C(F)(F)F)ccc1CC(NC(=O)CSc1ccccc1)C(=O)O

>  <score_type>  (76) 
oracle

>  <origin>  (76) 
adg

>  <m_score__min__energy>  (76) 
-10.77

>  <m_primary>  (76) 
energy

$$$$
76:0
     RDKit          3D

 52 55  0  0  0  0  0  0  0  0999 V2000
   59.0970   32.9320   50.0200 C   0  0  0  0  0  0  0  0  0  0  0  0
   59.0290   31.5520   49.4260 C   0  0  0  0  0  0  0  0  0  0  0  0
   58.5110   30.4470   50.1200 C   0  0  0  0  0  0  0  0  0  0  0  0
   58.0320   30.4080   51.5150 C   0  0  0  0  0  0  0  0  0  0  0  0
   57.0370   29.6940   51.8160 O   0  0  0  0  0  0  0  0  0  0  0  0
   58.6540   31.2180   52.5260 N   0  0  0  0  0  0  0  0  0  0  0  0
   60.1100   31.1920   52.7140 C   0  0  0  0  0  0  0  0  0  0  0  0
   60.6330   32.5810   53.1520 C   0  0  0  0  0  0  0  0  0  0  0  0
   59.6100   33.4840   53.5460 O   0  0  0  0  0  0  0  0  0  0  0  0
   58.6680   32.8350   54.3750 C   0  0  0  0  0  0  0  0  0  0  0  0
   57.8180   31.8840   53.5290 C   0  0  0  0  0  0  0  0  0  0  0  0
   58.5310   29.1090   49.0990 S   0  0  0  0  0  0  0  0  0  0  0  0
   59.1460   29.9150   47.7600 C   0  0  0  0  0  0  0  0  0  0  0  0
   59.4780   29.3110   46.5030 N   0  0  0  0  0  0  0  0  0  0  0  0
   58.5310   28.8290   45.5430 C   0  0  0  0  0  0  0  0  0  0  0  0
   58.4830   29.3770   44.4100 O   0  0  0  0  0  0  0  0  0  0  0  0
   57.5750   27.7530   45.8640 C   0  0  0  0  0  0  0  0  0  0  0  0
   57.9080   26.5330   46.4260 C   0  0  0  0  0  0  0  0  0  0  0  0
   56.7310   25.8280   46.5450 C   0  0  0  0  0  0  0  0  0  0  0  0
   55.7520   26.6520   46.0390 C   0  0  0  0  0  0  0  0  0  0  0  0
   54.4050   26.3270   45.9700 O   0  0  0  0  0  0  0  0  0  0  0  0
   56.2500   27.8270   45.6140 N   0  0  0  0  0  0  0  0  0  0  0  0
   59.4120   31.2370   48.1000 C   0  0  0  0  0  0  0  0  0  0  0  0
   60.0080   32.1920   47.1460 C   0  0  0  0  0  0  0  0  0  0  0  0
   59.3260   32.5560   46.1500 O   0  0  0  0  0  0  0  0  0  0  0  0
   61.3540   32.6820   47.3100 N   0  0  0  0  0  0  0  0  0  0  0  0
   61.7110   34.0310   46.8560 C   0  0  0  0  0  0  0  0  0  0  0  0
   63.1550   34.0400   46.3460 C   0  0  0  0  0  0  0  0  0  0  0  0
   64.0340   33.4840   47.3070 O   0  0  0  0  0  0  0  0  0  0  0  0
   63.7320   32.1150   47.4940 C   0  0  0  0  0  0  0  0  0  0  0  0
   62.3400   31.9440   48.1080 C   0  0  0  0  0  0  0  0  0  0  0  0
   59.0934   32.8593   51.1176 H   0  0  0  0  0  0  0  0  0  0  0  0
   60.0207   33.4288   49.6884 H   0  0  0  0  0  0  0  0  0  0  0  0
   58.2266   33.5172   49.6884 H   0  0  0  0  0  0  0  0  0  0  0  0
   60.3604   30.4519   53.4883 H   0  0  0  0  0  0  0  0  0  0  0  0
   60.5839   30.9223   51.7586 H   0  0  0  0  0  0  0  0  0  0  0  0
   61.3173   32.4410   54.0018 H   0  0  0  0  0  0  0  0  0  0  0  0
   61.1306   33.0248   52.2771 H   0  0  0  0  0  0  0  0  0  0  0  0
   59.1956   32.2629   55.1524 H   0  0  0  0  0  0  0  0  0  0  0  0
   58.0184   33.5845   54.8507 H   0  0  0  0  0  0  0  0  0  0  0  0
   57.3604   31.1264   54.1822 H   0  0  0  0  0  0  0  0  0  0  0  0
   57.0332   32.4609   53.0178 H   0  0  0  0  0  0  0  0  0  0  0  0
   58.9125   26.1940   46.7192 H   0  0  0  0  0  0  0  0  0  0  0  0
   56.6007   24.8170   46.9584 H   0  0  0  0  0  0  0  0  0  0  0  0
   61.0345   34.3340   46.0433 H   0  0  0  0  0  0  0  0  0  0  0  0
   61.6177   34.7343   47.6966 H   0  0  0  0  0  0  0  0  0  0  0  0
   63.2135   33.4492   45.4200 H   0  0  0  0  0  0  0  0  0  0  0  0
   63.4544   35.0815   46.1570 H   0  0  0  0  0  0  0  0  0  0  0  0
   63.7623   31.6029   46.5210 H   0  0  0  0  0  0  0  0  0  0  0  0
   64.4751   31.6805   48.1788 H   0  0  0  0  0  0  0  0  0  0  0  0
   62.0747   30.8766   48.1213 H   0  0  0  0  0  0  0  0  0  0  0  0
   62.3442   32.3361   49.1358 H   0  0  0  0  0  0  0  0  0  0  0  0
  1  2  1  0
  2  3  2  0
  3  4  1  0
  4  5  2  0
  4  6  1  0
  6  7  1  0
  7  8  1  0
  8  9  1  0
  9 10  1  0
 10 11  1  0
  3 12  1  0
 12 13  1  0
 13 14  1  0
 14 15  1  0
 15 16  2  0
 15 17  1  0
 17 18  2  0
 18 19  1  0
 19 20  2  0
 20 21  1  0
 20 22  1  0
 13 23  2  0
 23 24  1  0
 24 25  2  0
 24 26  1  0
 26 27  1  0
 27 28  1  0
 28 29  1  0
 29 30  1  0
 30 31  1  0
 23  2  1  0
 31 26  1  0
 11  6  1  0
 22 17  1  0
  1 32  1  0
  1 33  1  0
  1 34  1  0
  7 35  1  0
  7 36  1  0
  8 37  1  0
  8 38  1  0
 10 39  1  0
 10 40  1  0
 11 41  1  0
 11 42  1  0
 18 43  1  0
 19 44  1  0
 27 45  1  0
 27 46  1  0
 28 47  1  0
 28 48  1  0
 30 49  1  0
 30 50  1  0
 31 51  1  0
 31 52  1  0
M  CHG  3  14  -1  21  -1  22  -1
M  END
>  <UniqueID>  (77) 
72

>  <SMILES>  (77) 
Cc1c(C(=O)N2CCOCC2)sc([N-]C(=O)c2ccc([O-])[n-]2)c1C(=O)N1CCOCC1

>  <Energy>  (77) 
126.81758287694703

>  <Genealogy>  (77) 
Cc1c(C(=O)N2CCOCC2)sc([N-]C(=O)c2ccc([O-])[n-]2)c1C(=O)N1CCOCC1 (protonated)
Cc1c(C(=O)N2CCOCC2)sc([N-]C(=O)c2ccc([O-])[n-]2)c1C(=O)N1CCOCC1 (3D coordinates assigned)
Cc1c(C(=O)N2CCOCC2)sc([N-]C(=O)c2ccc([O-])[n-]2)c1C(=O)N1CCOCC1 (nonaromatic ring conformer: 126.81758287694703 kcal/mol)

>  <smiles>  (77) 
Cc1c(C(=O)N2CCOCC2)sc(NC(=O)c2ccc(O)[nH]2)c1C(=O)N1CCOCC1

>  <score_type>  (77) 
oracle

>  <origin>  (77) 
adg

>  <m_score__min__energy>  (77) 
-14.619999999999999

>  <m_primary>  (77) 
energy

$$$$
77:0
     RDKit          3D

 48 49  0  0  0  0  0  0  0  0999 V2000
   59.3250   33.6150   48.7920 C   0  0  0  0  0  0  0  0  0  0  0  0
   60.2590   34.5970   48.0910 C   0  0  0  0  0  0  0  0  0  0  0  0
   60.5520   34.1590   46.7140 N   0  0  0  0  0  0  0  0  0  0  0  0
   61.9430   33.8280   46.3630 C   0  0  0  0  0  0  0  0  0  0  0  0
   62.6540   33.1790   47.5290 C   0  0  0  0  0  0  0  0  0  0  0  0
   63.7670   33.8200   48.1040 C   0  0  0  0  0  0  0  0  0  0  0  0
   64.4430   33.2370   49.1780 C   0  0  0  0  0  0  0  0  0  0  0  0
   64.0180   32.0110   49.6910 C   0  0  0  0  0  0  0  0  0  0  0  0
   62.9120   31.3650   49.1330 C   0  0  0  0  0  0  0  0  0  0  0  0
   62.2270   31.9430   48.0580 C   0  0  0  0  0  0  0  0  0  0  0  0
   61.1240   31.2810   47.5270 O   0  0  0  0  0  0  0  0  0  0  0  0
   59.5180   34.0640   45.7020 C   0  0  0  0  0  0  0  0  0  0  0  0
   59.2260   35.0740   45.0060 O   0  0  0  0  0  0  0  0  0  0  0  0
   58.7490   32.8270   45.4780 C   0  0  0  0  0  0  0  0  0  0  0  0
   57.8080   32.7770   44.4450 C   0  0  0  0  0  0  0  0  0  0  0  0
   57.0680   31.6140   44.2490 C   0  0  0  0  0  0  0  0  0  0  0  0
   57.2650   30.5070   45.0820 C   0  0  0  0  0  0  0  0  0  0  0  0
   56.4740   29.2820   44.8720 C   0  0  0  0  0  0  0  0  0  0  0  0
   55.2210   29.3700   44.7730 O   0  0  0  0  0  0  0  0  0  0  0  0
   57.0860   27.9900   44.7860 N   0  0  0  0  0  0  0  0  0  0  0  0
   56.6670   26.6240   45.7710 S   0  0  0  0  0  0  0  0  0  0  0  0
   57.1860   25.1100   44.9920 C   0  0  0  0  0  0  0  0  0  0  0  0
   57.3590   26.7550   47.0970 O   0  0  0  0  0  0  0  0  0  0  0  0
   55.1820   26.5890   46.0080 O   0  0  0  0  0  0  0  0  0  0  0  0
   58.2450   30.5750   46.0880 C   0  0  0  0  0  0  0  0  0  0  0  0
   58.4520   29.4560   46.9120 O   0  0  0  0  0  0  0  0  0  0  0  0
   59.6650   28.7150   46.9680 C   0  0  0  0  0  0  0  0  0  0  0  0
   58.9650   31.7270   46.2550 N   0  0  0  0  0  0  0  0  0  0  0  0
   59.4289   33.7243   49.8816 H   0  0  0  0  0  0  0  0  0  0  0  0
   58.2856   33.8254   48.4999 H   0  0  0  0  0  0  0  0  0  0  0  0
   59.5872   32.5874   48.4999 H   0  0  0  0  0  0  0  0  0  0  0  0
   59.7811   35.5872   48.0591 H   0  0  0  0  0  0  0  0  0  0  0  0
   61.2040   34.6421   48.6522 H   0  0  0  0  0  0  0  0  0  0  0  0
   61.9437   33.1342   45.5094 H   0  0  0  0  0  0  0  0  0  0  0  0
   62.4705   34.7576   46.1030 H   0  0  0  0  0  0  0  0  0  0  0  0
   64.1069   34.7870   47.7047 H   0  0  0  0  0  0  0  0  0  0  0  0
   65.3124   33.7454   49.6205 H   0  0  0  0  0  0  0  0  0  0  0  0
   64.5540   31.5528   50.5352 H   0  0  0  0  0  0  0  0  0  0  0  0
   62.5785   30.3990   49.5399 H   0  0  0  0  0  0  0  0  0  0  0  0
   57.6536   33.6491   43.7927 H   0  0  0  0  0  0  0  0  0  0  0  0
   56.3269   31.5653   43.4376 H   0  0  0  0  0  0  0  0  0  0  0  0
   57.4401   24.3688   45.7640 H   0  0  0  0  0  0  0  0  0  0  0  0
   56.3697   24.7216   44.3653 H   0  0  0  0  0  0  0  0  0  0  0  0
   58.0689   25.3040   44.3653 H   0  0  0  0  0  0  0  0  0  0  0  0
   59.9428   28.5453   48.0187 H   0  0  0  0  0  0  0  0  0  0  0  0
   59.5269   27.7469   46.4643 H   0  0  0  0  0  0  0  0  0  0  0  0
   60.4633   29.2798   46.4643 H   0  0  0  0  0  0  0  0  0  0  0  0
   59.7130   31.7740   46.9800 H   0  0  0  0  0  0  0  0  0  0  0  0
  1  2  1  0
  2  3  1  0
  3  4  1  0
  4  5  1  0
  5  6  2  0
  6  7  1  0
  7  8  2  0
  8  9  1  0
  9 10  2  0
 10 11  1  0
  3 12  1  0
 12 13  2  0
 12 14  1  0
 14 15  2  0
 15 16  1  0
 16 17  2  0
 17 18  1  0
 18 19  2  0
 18 20  1  0
 20 21  1  0
 21 22  1  0
 21 23  2  0
 21 24  2  0
 17 25  1  0
 25 26  1  0
 26 27  1  0
 25 28  2  0
 10  5  1  0
 28 14  1  0
  1 29  1  0
  1 30  1  0
  1 31  1  0
  2 32  1  0
  2 33  1  0
  4 34  1  0
  4 35  1  0
  6 36  1  0
  7 37  1  0
  8 38  1  0
  9 39  1  0
 15 40  1  0
 16 41  1  0
 22 42  1  0
 22 43  1  0
 22 44  1  0
 27 45  1  0
 27 46  1  0
 27 47  1  0
 28 48  1  0
M  CHG  3  11  -1  20  -1  28   1
M  END
>  <UniqueID>  (78) 
73

>  <SMILES>  (78) 
CCN(Cc1ccccc1[O-])C(=O)c1ccc(C(=O)[N-]S(C)(=O)=O)c(OC)[nH+]1

>  <Energy>  (78) 
55.54303446728513

>  <Genealogy>  (78) 
CCN(Cc1ccccc1[O-])C(=O)c1ccc(C(=O)[N-]S(C)(=O)=O)c(OC)[nH+]1 (protonated)
CCN(Cc1ccccc1[O-])C(=O)c1ccc(C(=O)[N-]S(C)(=O)=O)c(OC)[nH+]1 (3D coordinates assigned)
CCN(Cc1ccccc1[O-])C(=O)c1ccc(C(=O)[N-]S(C)(=O)=O)c(OC)[nH+]1 (optimized conformer: 55.54303446728513 kcal/mol)

>  <smiles>  (78) 
CCN(Cc1ccccc1O)C(=O)c1ccc(C(=O)NS(C)(=O)=O)c(OC)n1

>  <score_type>  (78) 
oracle

>  <origin>  (78) 
adg

>  <m_score__min__energy>  (78) 
-10.869999999999999

>  <m_primary>  (78) 
energy

$$$$
78:0
     RDKit          3D

 46 48  0  0  0  0  0  0  0  0999 V2000
   59.3469   26.8029   47.6717 H   0  0  0  0  0  0  0  0  0  0  0  0
   58.5390   26.1210   47.3680 C   0  0  0  0  0  0  0  0  0  0  0  0
   57.9736   25.5644   48.1299 H   0  0  0  0  0  0  0  0  0  0  0  0
   58.2430   25.9680   46.0670 C   0  0  0  0  0  0  0  0  0  0  0  0
   57.2470   25.1410   45.5240 C   0  0  0  0  0  0  0  0  0  0  0  0
   56.5050   24.1640   46.0830 C   0  0  0  0  0  0  0  0  0  0  0  0
   57.0280   23.4426   46.7280 H   0  0  0  0  0  0  0  0  0  0  0  0
   55.0560   23.9790   45.9050 C   0  0  0  0  0  0  0  0  0  0  0  0
   54.4500   22.7890   45.7360 N   0  0  0  0  0  0  0  0  0  0  0  0
   53.1690   23.1250   45.4770 C   0  0  0  0  0  0  0  0  0  0  0  0
   52.2700   22.2680   45.2740 O   0  0  0  0  0  0  0  0  0  0  0  0
   52.9270   24.4540   45.4430 N   0  0  0  0  0  0  0  0  0  0  0  0
   54.1370   24.9780   45.7020 C   0  0  0  0  0  0  0  0  0  0  0  0
   54.3940   26.3410   45.7460 O   0  0  0  0  0  0  0  0  0  0  0  0
   57.1360   25.4930   44.1910 C   0  0  0  0  0  0  0  0  0  0  0  0
   56.4205   25.0833   43.4629 H   0  0  0  0  0  0  0  0  0  0  0  0
   58.0930   26.4550   43.9490 C   0  0  0  0  0  0  0  0  0  0  0  0
   58.3440   27.0850   42.6130 C   0  0  0  0  0  0  0  0  0  0  0  0
   58.7477   28.0983   42.7555 H   0  0  0  0  0  0  0  0  0  0  0  0
   59.0687   26.4772   42.0513 H   0  0  0  0  0  0  0  0  0  0  0  0
   57.3999   27.1421   42.0513 H   0  0  0  0  0  0  0  0  0  0  0  0
   58.7850   26.7320   45.0800 N   0  0  0  0  0  0  0  0  0  0  0  0
   59.8270   27.7600   45.2100 C   0  0  0  0  0  0  0  0  0  0  0  0
   60.1339   27.8331   46.2638 H   0  0  0  0  0  0  0  0  0  0  0  0
   60.6858   27.4771   44.5836 H   0  0  0  0  0  0  0  0  0  0  0  0
   59.2990   29.1230   44.7420 C   0  0  0  0  0  0  0  0  0  0  0  0
   60.1527   29.7567   44.4600 H   0  0  0  0  0  0  0  0  0  0  0  0
   58.6300   28.9523   43.8857 H   0  0  0  0  0  0  0  0  0  0  0  0
   58.4930   29.8360   45.8390 C   0  0  0  0  0  0  0  0  0  0  0  0
   58.3085   29.1275   46.6600 H   0  0  0  0  0  0  0  0  0  0  0  0
   59.0801   30.7011   46.1808 H   0  0  0  0  0  0  0  0  0  0  0  0
   57.1920   30.3380   45.3410 N   0  0  0  0  0  0  0  0  0  0  0  0
   57.3760   31.4060   44.3240 C   0  0  0  0  0  0  0  0  0  0  0  0
   56.6111   32.1808   44.4812 H   0  0  0  0  0  0  0  0  0  0  0  0
   58.3900   31.8155   44.4431 H   0  0  0  0  0  0  0  0  0  0  0  0
   57.2490   30.8690   42.8920 C   0  0  0  0  0  0  0  0  0  0  0  0
   57.4098   31.6972   42.1861 H   0  0  0  0  0  0  0  0  0  0  0  0
   58.0030   30.0797   42.7560 H   0  0  0  0  0  0  0  0  0  0  0  0
   55.9210   30.2800   42.6410 N   0  0  0  0  0  0  0  0  0  0  0  0
   56.0340   29.5160   41.9330 H   0  0  0  0  0  0  0  0  0  0  0  0
   55.2850   29.7130   43.8450 C   0  0  0  0  0  0  0  0  0  0  0  0
   54.6570   30.4859   44.3122 H   0  0  0  0  0  0  0  0  0  0  0  0
   54.6841   28.8454   43.5350 H   0  0  0  0  0  0  0  0  0  0  0  0
   56.3210   29.2300   44.8700 C   0  0  0  0  0  0  0  0  0  0  0  0
   55.7930   28.8007   45.7342 H   0  0  0  0  0  0  0  0  0  0  0  0
   56.9590   28.4784   44.3820 H   0  0  0  0  0  0  0  0  0  0  0  0
  1  2  1  0
  2  3  1  0
  2  4  2  0
  4  5  1  0
  5  6  2  0
  6  7  1  0
  6  8  1  0
  8  9  1  0
  9 10  1  0
 10 11  2  0
 10 12  1  0
 12 13  1  0
 13 14  1  0
  5 15  1  0
 15 16  1  0
 15 17  2  0
 17 18  1  0
 18 19  1  0
 18 20  1  0
 18 21  1  0
 17 22  1  0
 22 23  1  0
 23 24  1  0
 23 25  1  0
 23 26  1  0
 26 27  1  0
 26 28  1  0
 26 29  1  0
 29 30  1  0
 29 31  1  0
 29 32  1  0
 32 33  1  0
 33 34  1  0
 33 35  1  0
 33 36  1  0
 36 37  1  0
 36 38  1  0
 36 39  1  0
 39 40  1  0
 39 41  1  0
 41 42  1  0
 41 43  1  0
 41 44  1  0
 44 45  1  0
 44 46  1  0
 22  4  1  0
 44 32  1  0
 13  8  2  0
M  CHG  3   9  -1  12  -1  14  -1
M  END
>  <UniqueID>  (79) 
74

>  <SMILES>  (79) 
C=c1/c(=C\c2[n-]c(=O)[n-]c2[O-])cc(C)n1CCCN1CCNCC1

>  <Energy>  (79) 
121.63765272898326

>  <Genealogy>  (79) 
C=c1c(=Cc2[n-]c(=O)[n-]c2[O-])cc(C)n1CCCN1CCNCC1 (protonated)
C=c1/c(=C\c2[n-]c(=O)[n-]c2[O-])cc(C)n1CCCN1CCNCC1 (cis-trans isomerization)
C=c1/c(=C\c2[n-]c(=O)[n-]c2[O-])cc(C)n1CCCN1CCNCC1 (3D coordinates assigned)
C=c1/c(=C\c2[n-]c(=O)[n-]c2[O-])cc(C)n1CCCN1CCNCC1 (nonaromatic ring conformer: 121.63765272898326 kcal/mol)

>  <smiles>  (79) 
C=c1c(=Cc2[nH]c(=O)[nH]c2O)cc(C)n1CCCN1CCNCC1

>  <score_type>  (79) 
oracle

>  <origin>  (79) 
adg

>  <m_score__min__energy>  (79) 
-15.08

>  <m_primary>  (79) 
energy

$$$$
79:0
     RDKit          3D

 42 43  0  0  0  0  0  0  0  0999 V2000
   55.6950   28.7710   45.0480 N   0  0  0  0  0  0  0  0  0  0  0  0
   57.0040   29.1630   44.6430 C   0  0  0  0  0  0  0  0  0  0  0  0
   57.7260   28.3300   44.0310 O   0  0  0  0  0  0  0  0  0  0  0  0
   57.5500   30.5090   44.9680 C   0  0  0  0  0  0  0  0  0  0  0  0
   57.0690   31.6020   44.2190 C   0  0  0  0  0  0  0  0  0  0  0  0
   57.5000   32.9000   44.4860 C   0  0  0  0  0  0  0  0  0  0  0  0
   58.4040   33.1370   45.5150 C   0  0  0  0  0  0  0  0  0  0  0  0
   58.8920   32.0760   46.2750 C   0  0  0  0  0  0  0  0  0  0  0  0
   58.4860   30.7530   46.0160 C   0  0  0  0  0  0  0  0  0  0  0  0
   59.0480   29.6530   46.8980 C   0  0  0  0  0  0  0  0  0  0  0  0
   59.2830   28.4040   46.1450 N   0  0  0  0  0  0  0  0  0  0  0  0
   60.2900   27.5160   46.7760 C   0  0  0  0  0  0  0  0  0  0  0  0
   60.1470   26.0610   46.3180 C   0  0  0  0  0  0  0  0  0  0  0  0
   59.0150   25.9390   45.4820 O   0  0  0  0  0  0  0  0  0  0  0  0
   58.4460   24.6500   45.6060 C   0  0  0  0  0  0  0  0  0  0  0  0
   56.9780   24.7000   45.4180 N   0  0  0  0  0  0  0  0  0  0  0  0
   56.2770   23.7290   44.7270 C   0  0  0  0  0  0  0  0  0  0  0  0
   56.9160   22.6100   43.9970 C   0  0  0  0  0  0  0  0  0  0  0  0
   56.2610   21.8570   43.2320 O   0  0  0  0  0  0  0  0  0  0  0  0
   54.8780   23.7710   44.6960 C   0  0  0  0  0  0  0  0  0  0  0  0
   54.2180   24.8190   45.3250 C   0  0  0  0  0  0  0  0  0  0  0  0
   52.9610   24.8870   45.2950 O   0  0  0  0  0  0  0  0  0  0  0  0
   54.9300   25.7690   45.9690 N   0  0  0  0  0  0  0  0  0  0  0  0
   56.2850   25.7220   46.0280 C   0  0  0  0  0  0  0  0  0  0  0  0
   56.8940   26.6260   46.6610 O   0  0  0  0  0  0  0  0  0  0  0  0
   55.5180   27.8250   45.4510 H   0  0  0  0  0  0  0  0  0  0  0  0
   56.3425   31.4277   43.4116 H   0  0  0  0  0  0  0  0  0  0  0  0
   57.1242   33.7386   43.8814 H   0  0  0  0  0  0  0  0  0  0  0  0
   58.7347   34.1639   45.7297 H   0  0  0  0  0  0  0  0  0  0  0  0
   59.6046   32.2749   47.0890 H   0  0  0  0  0  0  0  0  0  0  0  0
   60.0021   29.9941   47.3262 H   0  0  0  0  0  0  0  0  0  0  0  0
   58.3108   29.4403   47.6862 H   0  0  0  0  0  0  0  0  0  0  0  0
   59.5430   28.6270   45.1560 H   0  0  0  0  0  0  0  0  0  0  0  0
   58.3740   27.8880   46.0990 H   0  0  0  0  0  0  0  0  0  0  0  0
   61.2951   27.8743   46.5088 H   0  0  0  0  0  0  0  0  0  0  0  0
   60.1307   27.5446   47.8640 H   0  0  0  0  0  0  0  0  0  0  0  0
   61.0475   25.7616   45.7617 H   0  0  0  0  0  0  0  0  0  0  0  0
   60.0253   25.4106   47.1967 H   0  0  0  0  0  0  0  0  0  0  0  0
   58.8843   23.9881   44.8445 H   0  0  0  0  0  0  0  0  0  0  0  0
   58.6582   24.2678   46.6154 H   0  0  0  0  0  0  0  0  0  0  0  0
   57.9937   22.4326   44.1277 H   0  0  0  0  0  0  0  0  0  0  0  0
   54.3085   22.9839   44.1800 H   0  0  0  0  0  0  0  0  0  0  0  0
  1  2  1  0
  2  3  2  0
  2  4  1  0
  4  5  2  0
  5  6  1  0
  6  7  2  0
  7  8  1  0
  8  9  2  0
  9 10  1  0
 10 11  1  0
 11 12  1  0
 12 13  1  0
 13 14  1  0
 14 15  1  0
 15 16  1  0
 16 17  1  0
 17 18  1  0
 18 19  2  0
 17 20  2  0
 20 21  1  0
 21 22  2  0
 21 23  1  0
 23 24  1  0
 24 25  2  0
  9  4  1  0
 24 16  1  0
  1 26  1  0
  5 27  1  0
  6 28  1  0
  7 29  1  0
  8 30  1  0
 10 31  1  0
 10 32  1  0
 11 33  1  0
 11 34  1  0
 12 35  1  0
 12 36  1  0
 13 37  1  0
 13 38  1  0
 15 39  1  0
 15 40  1  0
 18 41  1  0
 20 42  1  0
M  CHG  3   1  -1  11   1  23  -1
M  END
>  <UniqueID>  (80) 
75

>  <SMILES>  (80) 
[NH-]C(=O)c1ccccc1C[NH2+]CCOCn1c(C=O)cc(=O)[n-]c1=O

>  <Energy>  (80) 
61.789523354185604

>  <Genealogy>  (80) 
[NH-]C(=O)c1ccccc1C[NH2+]CCOCn1c(C=O)cc(=O)[n-]c1=O (protonated)
[NH-]C(=O)c1ccccc1C[NH2+]CCOCn1c(C=O)cc(=O)[n-]c1=O (3D coordinates assigned)
[NH-]C(=O)c1ccccc1C[NH2+]CCOCn1c(C=O)cc(=O)[n-]c1=O (optimized conformer: 61.789523354185604 kcal/mol)

>  <smiles>  (80) 
NC(=O)c1ccccc1CNCCOCn1c(C=O)cc(=O)[nH]c1=O

>  <score_type>  (80) 
oracle

>  <origin>  (80) 
adg

>  <m_score__min__energy>  (80) 
-9.8200000000000003

>  <m_primary>  (80) 
energy

$$$$
80:0
     RDKit          3D

 61 64  0  0  0  0  0  0  0  0999 V2000
   56.1140   26.2700   46.3580 C   0  0  0  0  0  0  0  0  0  0  0  0
   56.7140   27.4600   45.6670 C   0  0  0  0  0  0  0  0  0  0  0  0
   55.8730   28.4410   45.2470 N   0  0  0  0  0  0  0  0  0  0  0  0
   56.3090   29.5610   44.6250 C   0  0  0  0  0  0  0  0  0  0  0  0
   55.4720   30.4320   44.2660 O   0  0  0  0  0  0  0  0  0  0  0  0
   57.6780   29.7560   44.4000 C   0  0  0  0  0  0  0  0  0  0  0  0
   58.1190   30.9630   43.7610 N   0  0  0  0  0  0  0  0  0  0  0  0
   57.6200   32.2650   44.1940 C   0  0  0  0  0  0  0  0  0  0  0  0
   58.3270   32.6910   45.4500 C   0  0  0  0  0  0  0  0  0  0  0  0
   58.1470   31.9700   46.6390 C   0  0  0  0  0  0  0  0  0  0  0  0
   58.8460   32.3300   47.7950 C   0  0  0  0  0  0  0  0  0  0  0  0
   59.7490   33.4060   47.7740 C   0  0  0  0  0  0  0  0  0  0  0  0
   60.5080   33.7810   48.9900 C   0  0  0  0  0  0  0  0  0  0  0  0
   61.1170   34.8830   49.0250 O   0  0  0  0  0  0  0  0  0  0  0  0
   60.5410   32.9390   50.1510 N   0  0  0  0  0  0  0  0  0  0  0  0
   59.4070   32.3260   50.7810 C   0  0  0  0  0  0  0  0  0  0  0  0
   58.5010   33.0730   51.5550 C   0  0  0  0  0  0  0  0  0  0  0  0
   57.3960   32.4500   52.1410 C   0  0  0  0  0  0  0  0  0  0  0  0
   57.1660   31.0780   51.9470 C   0  0  0  0  0  0  0  0  0  0  0  0
   56.0250   30.4320   52.5440 N   0  0  0  0  0  0  0  0  0  0  0  0
   54.6720   30.8160   52.1280 C   0  0  0  0  0  0  0  0  0  0  0  0
   53.7120   29.6430   52.3460 C   0  0  0  0  0  0  0  0  0  0  0  0
   53.8060   29.1560   53.6730 O   0  0  0  0  0  0  0  0  0  0  0  0
   55.0930   28.6090   53.8910 C   0  0  0  0  0  0  0  0  0  0  0  0
   56.1660   29.7000   53.8070 C   0  0  0  0  0  0  0  0  0  0  0  0
   58.0640   30.3410   51.1600 C   0  0  0  0  0  0  0  0  0  0  0  0
   59.1700   30.9640   50.5750 C   0  0  0  0  0  0  0  0  0  0  0  0
   59.9210   34.1330   46.5850 C   0  0  0  0  0  0  0  0  0  0  0  0
   59.2240   33.7700   45.4280 C   0  0  0  0  0  0  0  0  0  0  0  0
   58.5980   28.7680   44.8270 C   0  0  0  0  0  0  0  0  0  0  0  0
   60.0810   28.9380   44.5740 C   0  0  0  0  0  0  0  0  0  0  0  0
   58.1060   27.5790   45.4300 C   0  0  0  0  0  0  0  0  0  0  0  0
   59.0590   26.4870   45.8780 C   0  0  0  0  0  0  0  0  0  0  0  0
   56.1824   26.4056   47.4475 H   0  0  0  0  0  0  0  0  0  0  0  0
   55.0580   26.1706   46.0664 H   0  0  0  0  0  0  0  0  0  0  0  0
   56.6620   25.3619   46.0664 H   0  0  0  0  0  0  0  0  0  0  0  0
   58.5920   30.8940   42.8320 H   0  0  0  0  0  0  0  0  0  0  0  0
   57.8025   33.0072   43.4029 H   0  0  0  0  0  0  0  0  0  0  0  0
   56.5406   32.1917   44.3927 H   0  0  0  0  0  0  0  0  0  0  0  0
   57.4526   31.1172   46.6623 H   0  0  0  0  0  0  0  0  0  0  0  0
   58.6879   31.7672   48.7268 H   0  0  0  0  0  0  0  0  0  0  0  0
   58.6628   34.1514   51.6996 H   0  0  0  0  0  0  0  0  0  0  0  0
   56.7013   33.0382   52.7586 H   0  0  0  0  0  0  0  0  0  0  0  0
   54.3372   31.6780   52.7238 H   0  0  0  0  0  0  0  0  0  0  0  0
   54.6817   31.0852   51.0615 H   0  0  0  0  0  0  0  0  0  0  0  0
   52.6820   29.9801   52.1577 H   0  0  0  0  0  0  0  0  0  0  0  0
   53.9823   28.8326   51.6530 H   0  0  0  0  0  0  0  0  0  0  0  0
   55.1249   28.1471   54.8888 H   0  0  0  0  0  0  0  0  0  0  0  0
   55.2932   27.8552   53.1153 H   0  0  0  0  0  0  0  0  0  0  0  0
   56.0462   30.3970   54.6495 H   0  0  0  0  0  0  0  0  0  0  0  0
   57.1626   29.2366   53.8515 H   0  0  0  0  0  0  0  0  0  0  0  0
   57.8964   29.2653   51.0023 H   0  0  0  0  0  0  0  0  0  0  0  0
   59.8586   30.3784   49.9482 H   0  0  0  0  0  0  0  0  0  0  0  0
   60.6074   34.9923   46.5634 H   0  0  0  0  0  0  0  0  0  0  0  0
   59.3797   34.3332   44.4960 H   0  0  0  0  0  0  0  0  0  0  0  0
   60.6123   28.9989   45.5352 H   0  0  0  0  0  0  0  0  0  0  0  0
   60.4564   28.0770   44.0015 H   0  0  0  0  0  0  0  0  0  0  0  0
   60.2518   29.8616   44.0015 H   0  0  0  0  0  0  0  0  0  0  0  0
   59.0880   26.4538   46.9771 H   0  0  0  0  0  0  0  0  0  0  0  0
   58.7133   25.5171   45.4909 H   0  0  0  0  0  0  0  0  0  0  0  0
   60.0667   26.6982   45.4909 H   0  0  0  0  0  0  0  0  0  0  0  0
  1  2  1  0
  2  3  1  0
  3  4  1  0
  4  5  2  0
  4  6  1  0
  6  7  1  0
  7  8  1  0
  8  9  1  0
  9 10  2  0
 10 11  1  0
 11 12  2  0
 12 13  1  0
 13 14  2  0
 13 15  1  0
 15 16  1  0
 16 17  2  0
 17 18  1  0
 18 19  2  0
 19 20  1  0
 20 21  1  0
 21 22  1  0
 22 23  1  0
 23 24  1  0
 24 25  1  0
 19 26  1  0
 26 27  2  0
 12 28  1  0
 28 29  2  0
  6 30  2  0
 30 31  1  0
 30 32  1  0
 32 33  1  0
 32  2  2  0
 29  9  1  0
 27 16  1  0
 25 20  1  0
  1 34  1  0
  1 35  1  0
  1 36  1  0
  7 37  1  0
  8 38  1  0
  8 39  1  0
 10 40  1  0
 11 41  1  0
 17 42  1  0
 18 43  1  0
 21 44  1  0
 21 45  1  0
 22 46  1  0
 22 47  1  0
 24 48  1  0
 24 49  1  0
 25 50  1  0
 25 51  1  0
 26 52  1  0
 27 53  1  0
 28 54  1  0
 29 55  1  0
 31 56  1  0
 31 57  1  0
 31 58  1  0
 33 59  1  0
 33 60  1  0
 33 61  1  0
M  CHG  2   3  -1  15  -1
M  END
>  <UniqueID>  (81) 
76

>  <SMILES>  (81) 
Cc1[n-]c(=O)c(NCc2ccc(C(=O)[N-]c3ccc(N4CCOCC4)cc3)cc2)c(C)c1C

>  <Energy>  (81) 
85.03477904418997

>  <Genealogy>  (81) 
Cc1[n-]c(=O)c(NCc2ccc(C(=O)[N-]c3ccc(N4CCOCC4)cc3)cc2)c(C)c1C (protonated)
Cc1[n-]c(=O)c(NCc2ccc(C(=O)[N-]c3ccc(N4CCOCC4)cc3)cc2)c(C)c1C (3D coordinates assigned)
Cc1[n-]c(=O)c(NCc2ccc(C(=O)[N-]c3ccc(N4CCOCC4)cc3)cc2)c(C)c1C (nonaromatic ring conformer: 85.03477904418997 kcal/mol)

>  <smiles>  (81) 
Cc1[nH]c(=O)c(NCc2ccc(C(=O)Nc3ccc(N4CCOCC4)cc3)cc2)c(C)c1C

>  <score_type>  (81) 
oracle

>  <origin>  (81) 
adg

>  <m_score__min__energy>  (81) 
-12.220000000000001

>  <m_primary>  (81) 
energy

$$$$
81:0
     RDKit          3D

 56 59  0  0  0  0  0  0  0  0999 V2000
   58.7530   34.7740   44.4750 O   0  0  0  0  0  0  0  0  0  0  0  0
   58.4470   33.6560   44.9690 C   0  0  0  0  0  0  0  0  0  0  0  0
   58.1300   32.5890   44.1240 C   0  0  0  0  0  0  0  0  0  0  0  0
   57.7970   31.3440   44.6760 C   0  0  0  0  0  0  0  0  0  0  0  0
   57.4450   30.1720   43.7880 C   0  0  0  0  0  0  0  0  0  0  0  0
   57.7340   28.8430   44.3870 N   0  0  0  0  0  0  0  0  0  0  0  0
   56.6380   28.3610   45.2510 C   0  0  0  0  0  0  0  0  0  0  0  0
   57.0750   27.1040   46.0320 C   0  0  0  0  0  0  0  0  0  0  0  0
   57.9220   26.1750   45.2370 N   0  0  0  0  0  0  0  0  0  0  0  0
   59.3330   26.1540   45.6780 C   0  0  0  0  0  0  0  0  0  0  0  0
   59.6670   27.4260   46.4110 C   0  0  0  0  0  0  0  0  0  0  0  0
   60.3480   28.4700   45.7630 C   0  0  0  0  0  0  0  0  0  0  0  0
   60.6420   29.6530   46.4490 C   0  0  0  0  0  0  0  0  0  0  0  0
   60.2580   29.8020   47.7850 C   0  0  0  0  0  0  0  0  0  0  0  0
   59.5800   28.7680   48.4360 C   0  0  0  0  0  0  0  0  0  0  0  0
   59.2840   27.5830   47.7540 C   0  0  0  0  0  0  0  0  0  0  0  0
   57.7930   26.3880   43.7830 C   0  0  0  0  0  0  0  0  0  0  0  0
   58.1340   27.8370   43.3680 C   0  0  0  0  0  0  0  0  0  0  0  0
   57.7730   31.1990   46.0280 N   0  0  0  0  0  0  0  0  0  0  0  0
   58.0750   32.2200   46.8730 C   0  0  0  0  0  0  0  0  0  0  0  0
   58.4220   33.4830   46.3590 C   0  0  0  0  0  0  0  0  0  0  0  0
   58.7450   34.5750   47.1840 O   0  0  0  0  0  0  0  0  0  0  0  0
   59.6190   34.5260   48.3130 C   0  0  0  0  0  0  0  0  0  0  0  0
   60.9200   33.8580   47.9550 C   0  0  0  0  0  0  0  0  0  0  0  0
   61.4770   32.8800   48.7960 C   0  0  0  0  0  0  0  0  0  0  0  0
   62.6790   32.2560   48.4510 C   0  0  0  0  0  0  0  0  0  0  0  0
   63.3300   32.5960   47.2620 C   0  0  0  0  0  0  0  0  0  0  0  0
   62.7760   33.5590   46.4140 C   0  0  0  0  0  0  0  0  0  0  0  0
   61.5730   34.1860   46.7550 C   0  0  0  0  0  0  0  0  0  0  0  0
   58.1417   32.7251   43.0325 H   0  0  0  0  0  0  0  0  0  0  0  0
   56.3696   30.2216   43.5620 H   0  0  0  0  0  0  0  0  0  0  0  0
   58.0746   30.2567   42.8900 H   0  0  0  0  0  0  0  0  0  0  0  0
   58.5620   29.0000   45.0100 H   0  0  0  0  0  0  0  0  0  0  0  0
   56.3648   29.1528   45.9640 H   0  0  0  0  0  0  0  0  0  0  0  0
   55.7752   28.1038   44.6191 H   0  0  0  0  0  0  0  0  0  0  0  0
   57.6454   27.4245   46.9162 H   0  0  0  0  0  0  0  0  0  0  0  0
   56.1597   26.5565   46.3013 H   0  0  0  0  0  0  0  0  0  0  0  0
   59.4917   25.2961   46.3479 H   0  0  0  0  0  0  0  0  0  0  0  0
   59.9839   26.0665   44.7956 H   0  0  0  0  0  0  0  0  0  0  0  0
   60.6513   28.3567   44.7117 H   0  0  0  0  0  0  0  0  0  0  0  0
   61.1759   30.4670   45.9368 H   0  0  0  0  0  0  0  0  0  0  0  0
   60.4895   30.7328   48.3235 H   0  0  0  0  0  0  0  0  0  0  0  0
   59.2783   28.8861   49.4872 H   0  0  0  0  0  0  0  0  0  0  0  0
   58.7499   26.7718   48.2704 H   0  0  0  0  0  0  0  0  0  0  0  0
   58.4772   25.7012   43.2632 H   0  0  0  0  0  0  0  0  0  0  0  0
   56.7452   26.1977   43.5075 H   0  0  0  0  0  0  0  0  0  0  0  0
   59.2203   27.9101   43.2109 H   0  0  0  0  0  0  0  0  0  0  0  0
   57.5703   28.0573   42.4495 H   0  0  0  0  0  0  0  0  0  0  0  0
   58.0481   32.0585   47.9608 H   0  0  0  0  0  0  0  0  0  0  0  0
   59.8226   35.5512   48.6559 H   0  0  0  0  0  0  0  0  0  0  0  0
   59.1324   33.9446   49.1100 H   0  0  0  0  0  0  0  0  0  0  0  0
   60.9650   32.6043   49.7297 H   0  0  0  0  0  0  0  0  0  0  0  0
   63.1136   31.4957   49.1167 H   0  0  0  0  0  0  0  0  0  0  0  0
   64.2777   32.1061   46.9938 H   0  0  0  0  0  0  0  0  0  0  0  0
   63.2869   33.8243   45.4767 H   0  0  0  0  0  0  0  0  0  0  0  0
   61.1368   34.9383   46.0814 H   0  0  0  0  0  0  0  0  0  0  0  0
  1  2  2  0
  2  3  1  0
  3  4  2  0
  4  5  1  0
  5  6  1  0
  6  7  1  0
  7  8  1  0
  8  9  1  0
  9 10  1  0
 10 11  1  0
 11 12  2  0
 12 13  1  0
 13 14  2  0
 14 15  1  0
 15 16  2  0
  9 17  1  0
 17 18  1  0
  4 19  1  0
 19 20  1  0
 20 21  2  0
 21 22  1  0
 22 23  1  0
 23 24  1  0
 24 25  2  0
 25 26  1  0
 26 27  2  0
 27 28  1  0
 28 29  2  0
 21  2  1  0
 29 24  1  0
 18  6  1  0
 16 11  1  0
  3 30  1  0
  5 31  1  0
  5 32  1  0
  6 33  1  0
  7 34  1  0
  7 35  1  0
  8 36  1  0
  8 37  1  0
 10 38  1  0
 10 39  1  0
 12 40  1  0
 13 41  1  0
 14 42  1  0
 15 43  1  0
 16 44  1  0
 17 45  1  0
 17 46  1  0
 18 47  1  0
 18 48  1  0
 20 49  1  0
 23 50  1  0
 23 51  1  0
 25 52  1  0
 26 53  1  0
 27 54  1  0
 28 55  1  0
 29 56  1  0
M  CHG  2   6   1  19  -1
M  END
>  <UniqueID>  (82) 
77

>  <SMILES>  (82) 
O=c1cc(C[NH+]2CCN(Cc3ccccc3)CC2)[n-]cc1OCc1ccccc1

>  <Energy>  (82) 
75.82066613964643

>  <Genealogy>  (82) 
O=c1cc(C[NH+]2CCN(Cc3ccccc3)CC2)[n-]cc1OCc1ccccc1 (protonated)
O=c1cc(C[NH+]2CCN(Cc3ccccc3)CC2)[n-]cc1OCc1ccccc1 (3D coordinates assigned)
O=c1cc(C[NH+]2CCN(Cc3ccccc3)CC2)[n-]cc1OCc1ccccc1 (nonaromatic ring conformer: 75.82066613964643 kcal/mol)

>  <smiles>  (82) 
O=c1cc(CN2CCN(Cc3ccccc3)CC2)[nH]cc1OCc1ccccc1

>  <score_type>  (82) 
oracle

>  <origin>  (82) 
adg

>  <m_score__min__energy>  (82) 
-8.2300000000000004

>  <m_primary>  (82) 
energy

$$$$
82:0
     RDKit          3D

 49 51  0  0  1  0  0  0  0  0999 V2000
   60.6340   28.7240   48.5700 N   0  0  0  0  0  0  0  0  0  0  0  0
   60.8870   29.8310   48.3520 C   0  0  0  0  0  0  0  0  0  0  0  0
   61.2000   31.2160   48.0960 C   0  0  0  0  0  0  0  0  0  0  0  0
   62.5010   31.5280   47.7230 C   0  0  0  0  0  0  0  0  0  0  0  0
   62.8240   32.8540   47.4710 C   0  0  0  0  0  0  0  0  0  0  0  0
   61.8480   33.8300   47.5960 C   0  0  0  0  0  0  0  0  0  0  0  0
   60.5630   33.5320   47.9640 C   0  0  0  0  0  0  0  0  0  0  0  0
   59.4800   34.5300   48.1140 C   0  0  0  0  0  0  0  0  0  0  0  0
   58.5830   34.5280   47.0000 N   0  0  0  0  0  0  0  0  0  0  0  0
   57.7980   33.3410   46.9290 C   0  0  0  0  0  0  0  0  0  0  0  0
   57.1350   33.1250   45.5950 C   0  0  0  0  0  0  0  0  0  0  0  0
   58.0590   33.2610   44.4360 C   0  0  0  0  0  0  0  0  0  0  0  0
   58.3230   32.0500   43.7510 O   0  0  0  0  0  0  0  0  0  0  0  0
   57.4500   30.9960   44.0720 C   0  0  0  0  0  0  0  0  0  0  0  0
   56.2430   30.8680   43.4810 N   0  0  0  0  0  0  0  0  0  0  0  0
   55.3980   29.8710   43.7740 C   0  0  0  0  0  0  0  0  0  0  0  0
   55.7640   28.9710   44.6850 N   0  0  0  0  0  0  0  0  0  0  0  0
   56.9500   29.0320   45.3170 C   0  0  0  0  0  0  0  0  0  0  0  0
   57.3220   28.1860   46.1900 N   0  0  0  0  0  0  0  0  0  0  0  0
   57.6750   26.8430   45.8450 C   0  0  0  0  0  0  0  0  0  0  0  0
   56.4590   25.9460   45.9540 C   0  0  0  0  0  0  0  0  0  0  0  0
   55.2880   26.6940   46.0760 O   0  0  0  0  0  0  0  0  0  0  0  0
   57.8460   30.0650   45.0240 C   0  0  0  0  0  0  0  0  0  0  0  0
   59.0490   30.1590   45.6420 F   0  0  0  0  0  0  0  0  0  0  0  0
   59.4100   33.8300   44.8270 C   0  0  0  0  0  0  0  0  0  0  0  0
   59.1630   34.9780   45.7780 C   0  0  0  0  0  0  0  0  0  0  0  0
   60.2250   32.2030   48.2210 C   0  0  0  0  0  0  0  0  0  0  0  0
   63.2613   30.7387   47.6291 H   0  0  0  0  0  0  0  0  0  0  0  0
   63.8471   33.1283   47.1743 H   0  0  0  0  0  0  0  0  0  0  0  0
   62.1141   34.8779   47.3931 H   0  0  0  0  0  0  0  0  0  0  0  0
   58.9110   34.3003   49.0269 H   0  0  0  0  0  0  0  0  0  0  0  0
   59.9447   35.5254   48.1706 H   0  0  0  0  0  0  0  0  0  0  0  0
   58.4523   32.4807   47.1335 H   0  0  0  0  0  0  0  0  0  0  0  0
   56.9931   33.4466   47.6713 H   0  0  0  0  0  0  0  0  0  0  0  0
   56.7071   32.1117   45.5804 H   0  0  0  0  0  0  0  0  0  0  0  0
   56.3689   33.9071   45.4875 H   0  0  0  0  0  0  0  0  0  0  0  0
   57.5116   33.9469   43.7727 H   0  0  0  0  0  0  0  0  0  0  0  0
   54.4218   29.7970   43.2725 H   0  0  0  0  0  0  0  0  0  0  0  0
   55.1350   28.1790   44.9420 H   0  0  0  0  0  0  0  0  0  0  0  0
   58.0544   26.8193   44.8128 H   0  0  0  0  0  0  0  0  0  0  0  0
   58.4527   26.4843   46.5353 H   0  0  0  0  0  0  0  0  0  0  0  0
   56.3926   25.3208   45.0514 H   0  0  0  0  0  0  0  0  0  0  0  0
   56.5675   25.3209   46.8526 H   0  0  0  0  0  0  0  0  0  0  0  0
   55.3640   27.3990   46.7470 H   0  0  0  0  0  0  0  0  0  0  0  0
   60.0142   33.0557   45.3223 H   0  0  0  0  0  0  0  0  0  0  0  0
   59.9564   34.1756   43.9371 H   0  0  0  0  0  0  0  0  0  0  0  0
   60.1206   35.4727   45.9976 H   0  0  0  0  0  0  0  0  0  0  0  0
   58.4616   35.6777   45.2999 H   0  0  0  0  0  0  0  0  0  0  0  0
   59.2000   31.9375   48.5190 H   0  0  0  0  0  0  0  0  0  0  0  0
  1  2  3  0
  2  3  1  0
  3  4  2  0
  4  5  1  0
  5  6  2  0
  6  7  1  0
  7  8  1  0
  8  9  1  0
  9 10  1  0
 10 11  1  0
 11 12  1  0
 12 13  1  0
 13 14  1  0
 14 15  1  0
 15 16  2  0
 16 17  1  0
 17 18  1  0
 18 19  2  0
 19 20  1  0
 20 21  1  0
 21 22  1  0
 18 23  1  0
 23 24  1  0
 12 25  1  0
 25 26  1  0
  7 27  2  0
 27  3  1  0
 26  9  1  0
 23 14  2  0
  4 28  1  0
  5 29  1  0
  6 30  1  0
  8 31  1  0
  8 32  1  0
 10 33  1  0
 10 34  1  0
 11 35  1  0
 11 36  1  0
 12 37  1  0
 16 38  1  0
 17 39  1  0
 20 40  1  0
 20 41  1  0
 21 42  1  0
 21 43  1  0
 22 44  1  0
 25 45  1  0
 25 46  1  0
 26 47  1  0
 26 48  1  0
 27 49  1  0
M  END
>  <smiles>  (83) 
N#Cc1cccc(CN2CCC(Oc3nc[nH]c(=NCCO)c3F)CC2)c1

>  <score_type>  (83) 
oracle

>  <origin>  (83) 
adg

>  <m_score__min__energy>  (83) 
-8.4499999999999993

>  <m_primary>  (83) 
energy

$$$$
83:0
     RDKit          3D

 50 53  0  0  0  0  0  0  0  0999 V2000
   56.2980   29.4280   44.7410 C   0  0  0  0  0  0  0  0  0  0  0  0
   57.5690   29.0200   44.8760 C   0  0  0  0  0  0  0  0  0  0  0  0
   58.0480   27.6990   44.8460 C   0  0  0  0  0  0  0  0  0  0  0  0
   57.4390   26.5430   44.5140 C   0  0  0  0  0  0  0  0  0  0  0  0
   56.8920   25.5590   45.4620 C   0  0  0  0  0  0  0  0  0  0  0  0
   57.5630   24.4860   45.9250 N   0  0  0  0  0  0  0  0  0  0  0  0
   56.7310   23.9800   46.8600 C   0  0  0  0  0  0  0  0  0  0  0  0
   57.0040   22.9430   47.5210 O   0  0  0  0  0  0  0  0  0  0  0  0
   55.5890   24.6780   47.0420 N   0  0  0  0  0  0  0  0  0  0  0  0
   55.7170   25.6820   46.1590 C   0  0  0  0  0  0  0  0  0  0  0  0
   54.7780   26.6940   45.9990 O   0  0  0  0  0  0  0  0  0  0  0  0
   59.3820   27.7610   45.2170 C   0  0  0  0  0  0  0  0  0  0  0  0
   59.6850   29.0930   45.4000 C   0  0  0  0  0  0  0  0  0  0  0  0
   61.0390   29.6210   45.7690 C   0  0  0  0  0  0  0  0  0  0  0  0
   58.5920   29.8580   45.1850 N   0  0  0  0  0  0  0  0  0  0  0  0
   58.5370   31.2870   45.3350 C   0  0  0  0  0  0  0  0  0  0  0  0
   57.7730   32.0590   44.4530 C   0  0  0  0  0  0  0  0  0  0  0  0
   57.7090   33.4440   44.6120 C   0  0  0  0  0  0  0  0  0  0  0  0
   58.4080   34.0630   45.6520 C   0  0  0  0  0  0  0  0  0  0  0  0
   59.1860   33.3060   46.5490 C   0  0  0  0  0  0  0  0  0  0  0  0
   59.8990   34.0130   47.6580 C   0  0  0  0  0  0  0  0  0  0  0  0
   59.3160   34.9930   48.2020 O   0  0  0  0  0  0  0  0  0  0  0  0
   61.2220   33.6480   48.1360 N   0  0  0  0  0  0  0  0  0  0  0  0
   61.7100   34.5460   49.2060 C   0  0  0  0  0  0  0  0  0  0  0  0
   63.0390   34.0250   49.7970 C   0  0  0  0  0  0  0  0  0  0  0  0
   63.8720   33.2990   48.8200 N   0  0  0  0  0  0  0  0  0  0  0  0
   63.6360   33.7560   47.4460 C   0  0  0  0  0  0  0  0  0  0  0  0
   62.1820   33.4800   47.0170 C   0  0  0  0  0  0  0  0  0  0  0  0
   59.2290   31.9070   46.3860 C   0  0  0  0  0  0  0  0  0  0  0  0
   56.0571   30.5004   44.7844 H   0  0  0  0  0  0  0  0  0  0  0  0
   55.4969   28.6901   44.5870 H   0  0  0  0  0  0  0  0  0  0  0  0
   57.3426   26.3156   43.4421 H   0  0  0  0  0  0  0  0  0  0  0  0
   60.0677   26.9099   45.3416 H   0  0  0  0  0  0  0  0  0  0  0  0
   61.1323   29.6574   46.8644 H   0  0  0  0  0  0  0  0  0  0  0  0
   61.8153   28.9597   45.3566 H   0  0  0  0  0  0  0  0  0  0  0  0
   61.1627   30.6333   45.3566 H   0  0  0  0  0  0  0  0  0  0  0  0
   57.2223   31.5739   43.6336 H   0  0  0  0  0  0  0  0  0  0  0  0
   57.1076   34.0493   43.9178 H   0  0  0  0  0  0  0  0  0  0  0  0
   58.3497   35.1550   45.7713 H   0  0  0  0  0  0  0  0  0  0  0  0
   61.1220   32.7070   48.5900 H   0  0  0  0  0  0  0  0  0  0  0  0
   61.8707   35.5507   48.7880 H   0  0  0  0  0  0  0  0  0  0  0  0
   60.9575   34.5802   50.0076 H   0  0  0  0  0  0  0  0  0  0  0  0
   63.6132   34.8842   50.1739 H   0  0  0  0  0  0  0  0  0  0  0  0
   62.7815   33.3133   50.5953 H   0  0  0  0  0  0  0  0  0  0  0  0
   63.6440   32.2770   48.8710 H   0  0  0  0  0  0  0  0  0  0  0  0
   63.8296   34.8373   47.3878 H   0  0  0  0  0  0  0  0  0  0  0  0
   64.3113   33.2080   46.7724 H   0  0  0  0  0  0  0  0  0  0  0  0
   61.9122   34.1791   46.2118 H   0  0  0  0  0  0  0  0  0  0  0  0
   62.1241   32.4349   46.6786 H   0  0  0  0  0  0  0  0  0  0  0  0
   59.8113   31.2947   47.0903 H   0  0  0  0  0  0  0  0  0  0  0  0
  1  2  2  0
  2  3  1  0
  3  4  2  3
  4  5  1  0
  5  6  1  0
  6  7  1  0
  7  8  2  0
  7  9  1  0
  9 10  1  0
 10 11  1  0
  3 12  1  0
 12 13  2  0
 13 14  1  0
 13 15  1  0
 15 16  1  0
 16 17  2  0
 17 18  1  0
 18 19  2  0
 19 20  1  0
 20 21  1  0
 21 22  2  0
 21 23  1  0
 23 24  1  0
 24 25  1  0
 25 26  1  0
 26 27  1  0
 27 28  1  0
 20 29  2  0
 15  2  1  0
 29 16  1  0
 10  5  2  0
 28 23  1  0
  1 30  1  0
  1 31  1  0
  4 32  1  0
 12 33  1  0
 14 34  1  0
 14 35  1  0
 14 36  1  0
 17 37  1  0
 18 38  1  0
 19 39  1  0
 23 40  1  0
 24 41  1  0
 24 42  1  0
 25 43  1  0
 25 44  1  0
 26 45  1  0
 27 46  1  0
 27 47  1  0
 28 48  1  0
 28 49  1  0
 29 50  1  0
M  CHG  4   6  -1   9  -1  11  -1  23   1
M  END
>  <UniqueID>  (84) 
78

>  <SMILES>  (84) 
C=c1c(=Cc2[n-]c(=O)[n-]c2[O-])cc(C)n1-c1cccc(C(=O)[NH+]2CCNCC2)c1

>  <Energy>  (84) 
144.28135932557493

>  <Genealogy>  (84) 
C=c1c(=Cc2[n-]c(=O)[n-]c2[O-])cc(C)n1-c1cccc(C(=O)[NH+]2CCNCC2)c1 (protonated)
C=c1c(=Cc2[n-]c(=O)[n-]c2[O-])cc(C)n1-c1cccc(C(=O)[NH+]2CCNCC2)c1 (3D coordinates assigned)
C=c1c(=Cc2[n-]c(=O)[n-]c2[O-])cc(C)n1-c1cccc(C(=O)[NH+]2CCNCC2)c1 (nonaromatic ring conformer: 144.28135932557493 kcal/mol)

>  <smiles>  (84) 
C=c1c(=Cc2[nH]c(=O)[nH]c2O)cc(C)n1-c1cccc(C(=O)N2CCNCC2)c1

>  <score_type>  (84) 
oracle

>  <origin>  (84) 
adg

>  <m_score__min__energy>  (84) 
-15.43

>  <m_primary>  (84) 
energy

$$$$
84:0
     RDKit          3D

 51 54  0  0  0  0  0  0  0  0999 V2000
   54.8410   26.3290   45.9990 N   0  0  0  0  0  0  0  0  0  0  0  0
   56.0320   25.6760   46.4340 C   0  0  0  0  0  0  0  0  0  0  0  0
   55.9590   24.4990   46.8800 O   0  0  0  0  0  0  0  0  0  0  0  0
   57.3400   26.3690   46.3630 C   0  0  0  0  0  0  0  0  0  0  0  0
   58.5160   25.6440   46.0950 C   0  0  0  0  0  0  0  0  0  0  0  0
   59.7480   26.2960   46.0250 C   0  0  0  0  0  0  0  0  0  0  0  0
   59.8260   27.6750   46.2240 C   0  0  0  0  0  0  0  0  0  0  0  0
   58.6680   28.4200   46.5010 C   0  0  0  0  0  0  0  0  0  0  0  0
   58.7390   29.8460   46.6970 N   0  0  0  0  0  0  0  0  0  0  0  0
   58.8690   30.4870   47.9960 C   0  0  0  0  0  0  0  0  0  0  0  0
   58.8350   32.0020   47.7230 C   0  0  0  0  0  0  0  0  0  0  0  0
   58.2760   32.1870   46.2950 C   0  0  1  0  0  0  0  0  0  0  0  0
   59.0290   33.1930   45.5220 N   0  0  0  0  0  0  0  0  0  0  0  0
   59.6170   34.4670   46.5550 S   0  0  0  0  0  0  0  0  0  0  0  0
   58.5260   34.8700   47.5060 O   0  0  0  0  0  0  0  0  0  0  0  0
   59.9850   35.6650   45.7230 O   0  0  0  0  0  0  0  0  0  0  0  0
   61.0190   33.9360   47.4830 C   0  0  0  0  0  0  0  0  0  0  0  0
   61.0540   34.1270   48.8690 C   0  0  0  0  0  0  0  0  0  0  0  0
   62.1380   33.6600   49.6170 C   0  0  0  0  0  0  0  0  0  0  0  0
   63.2020   32.9880   48.9900 C   0  0  0  0  0  0  0  0  0  0  0  0
   64.3440   32.4720   49.7850 C   0  0  0  0  0  0  0  0  0  0  0  0
   64.1970   31.3260   50.5890 C   0  0  0  0  0  0  0  0  0  0  0  0
   65.2750   30.8410   51.3360 C   0  0  0  0  0  0  0  0  0  0  0  0
   66.5110   31.4910   51.2860 C   0  0  0  0  0  0  0  0  0  0  0  0
   66.6700   32.6280   50.4900 C   0  0  0  0  0  0  0  0  0  0  0  0
   65.5950   33.1180   49.7430 C   0  0  0  0  0  0  0  0  0  0  0  0
   63.1620   32.8050   47.5950 C   0  0  0  0  0  0  0  0  0  0  0  0
   62.0790   33.2770   46.8480 C   0  0  0  0  0  0  0  0  0  0  0  0
   58.4490   30.8310   45.7190 C   0  0  0  0  0  0  0  0  0  0  0  0
   58.3720   30.5720   44.4890 O   0  0  0  0  0  0  0  0  0  0  0  0
   57.4280   27.7600   46.5600 C   0  0  0  0  0  0  0  0  0  0  0  0
   54.7610   26.7140   45.0310 H   0  0  0  0  0  0  0  0  0  0  0  0
   58.4639   24.5563   45.9397 H   0  0  0  0  0  0  0  0  0  0  0  0
   60.6611   25.7206   45.8121 H   0  0  0  0  0  0  0  0  0  0  0  0
   60.8005   28.1817   46.1635 H   0  0  0  0  0  0  0  0  0  0  0  0
   58.0342   30.1972   48.6511 H   0  0  0  0  0  0  0  0  0  0  0  0
   59.7983   30.1883   48.5031 H   0  0  0  0  0  0  0  0  0  0  0  0
   58.1824   32.5035   48.4528 H   0  0  0  0  0  0  0  0  0  0  0  0
   59.8394   32.4414   47.8131 H   0  0  0  0  0  0  0  0  0  0  0  0
   57.2398   32.5559   46.2822 H   0  0  0  0  0  0  0  0  0  0  0  0
   59.8900   32.7540   45.1200 H   0  0  0  0  0  0  0  0  0  0  0  0
   60.2250   34.6468   49.3715 H   0  0  0  0  0  0  0  0  0  0  0  0
   62.1590   33.8194   50.7052 H   0  0  0  0  0  0  0  0  0  0  0  0
   63.2273   30.8083   50.6300 H   0  0  0  0  0  0  0  0  0  0  0  0
   65.1499   29.9465   51.9639 H   0  0  0  0  0  0  0  0  0  0  0  0
   67.3585   31.1075   51.8732 H   0  0  0  0  0  0  0  0  0  0  0  0
   67.6434   33.1388   50.4510 H   0  0  0  0  0  0  0  0  0  0  0  0
   65.7268   34.0138   49.1184 H   0  0  0  0  0  0  0  0  0  0  0  0
   63.9895   32.2865   47.0887 H   0  0  0  0  0  0  0  0  0  0  0  0
   62.0593   33.1304   45.7580 H   0  0  0  0  0  0  0  0  0  0  0  0
   56.5145   28.3383   46.7628 H   0  0  0  0  0  0  0  0  0  0  0  0
  1  2  1  0
  2  3  2  0
  2  4  1  0
  4  5  2  0
  5  6  1  0
  6  7  2  0
  7  8  1  0
  8  9  1  0
  9 10  1  0
 10 11  1  0
 11 12  1  0
 12 13  1  0
 13 14  1  0
 14 15  2  0
 14 16  2  0
 14 17  1  0
 17 18  2  0
 18 19  1  0
 19 20  2  0
 20 21  1  0
 21 22  2  0
 22 23  1  0
 23 24  2  0
 24 25  1  0
 25 26  2  0
 20 27  1  0
 27 28  2  0
 12 29  1  0
 29 30  2  0
  8 31  2  0
 31  4  1  0
 29  9  1  0
 28 17  1  0
 26 21  1  0
  1 32  1  0
  5 33  1  0
  6 34  1  0
  7 35  1  0
 10 36  1  0
 10 37  1  0
 11 38  1  0
 11 39  1  0
 12 40  1  1
 13 41  1  0
 18 42  1  0
 19 43  1  0
 22 44  1  0
 23 45  1  0
 24 46  1  0
 25 47  1  0
 26 48  1  0
 27 49  1  0
 28 50  1  0
 31 51  1  0
M  CHG  1   1  -1
M  END
>  <UniqueID>  (85) 
79

>  <SMILES>  (85) 
[NH-]C(=O)c1cccc(N2CC[C@@H](NS(=O)(=O)c3ccc(-c4ccccc4)cc3)C2=O)c1

>  <Energy>  (85) 
72.3144537130675

>  <Genealogy>  (85) 
[NH-]C(=O)c1cccc(N2CCC(NS(=O)(=O)c3ccc(-c4ccccc4)cc3)C2=O)c1 (protonated)
[NH-]C(=O)c1cccc(N2CC[C@@H](NS(=O)(=O)c3ccc(-c4ccccc4)cc3)C2=O)c1 (chirality)
[NH-]C(=O)c1cccc(N2CC[C@@H](NS(=O)(=O)c3ccc(-c4ccccc4)cc3)C2=O)c1 (3D coordinates assigned)
[NH-]C(=O)c1cccc(N2CC[C@@H](NS(=O)(=O)c3ccc(-c4ccccc4)cc3)C2=O)c1 (nonaromatic ring conformer: 72.3144537130675 kcal/mol)

>  <smiles>  (85) 
NC(=O)c1cccc(N2CCC(NS(=O)(=O)c3ccc(-c4ccccc4)cc3)C2=O)c1

>  <score_type>  (85) 
oracle

>  <origin>  (85) 
adg

>  <m_score__min__energy>  (85) 
-13.039999999999999

>  <m_primary>  (85) 
energy

$$$$
85:0
     RDKit          3D

 55 59  0  0  0  0  0  0  0  0999 V2000
   62.7580   30.2560   49.7650 O   0  0  0  0  0  0  0  0  0  0  0  0
   61.8730   30.6560   48.9690 C   0  0  0  0  0  0  0  0  0  0  0  0
   62.0600   31.9150   48.2140 C   0  0  0  0  0  0  0  0  0  0  0  0
   63.3740   32.2900   47.8580 C   0  0  0  0  0  0  0  0  0  0  0  0
   63.6130   33.4330   47.0900 C   0  0  0  0  0  0  0  0  0  0  0  0
   62.5450   34.2020   46.6410 C   0  0  0  0  0  0  0  0  0  0  0  0
   61.2390   33.8700   47.0120 C   0  0  0  0  0  0  0  0  0  0  0  0
   60.9750   32.7470   47.8100 C   0  0  0  0  0  0  0  0  0  0  0  0
   59.2850   32.5740   48.3480 S   0  0  0  0  0  0  0  0  0  0  0  0
   58.4210   32.3020   47.1460 O   0  0  0  0  0  0  0  0  0  0  0  0
   58.9000   33.9070   48.9170 O   0  0  0  0  0  0  0  0  0  0  0  0
   58.9040   31.3680   49.5900 C   0  0  0  0  0  0  0  0  0  0  0  0
   57.8000   31.5910   50.4290 C   0  0  0  0  0  0  0  0  0  0  0  0
   57.4120   30.6440   51.4000 C   0  0  0  0  0  0  0  0  0  0  0  0
   56.2110   30.9070   52.2460 C   0  0  0  0  0  0  0  0  0  0  0  0
   56.0520   32.0690   52.7250 O   0  0  0  0  0  0  0  0  0  0  0  0
   55.2370   29.8680   52.5500 N   0  0  0  0  0  0  0  0  0  0  0  0
   54.0640   29.9410   51.6570 C   0  0  0  0  0  0  0  0  0  0  0  0
   52.9920   30.7620   52.3600 C   0  0  0  0  0  0  0  0  0  0  0  0
   53.3680   30.7380   53.8340 C   0  0  0  0  0  0  0  0  0  0  0  0
   54.7160   30.0270   53.9180 C   0  0  0  0  0  0  0  0  0  0  0  0
   58.1790   29.4720   51.5340 C   0  0  0  0  0  0  0  0  0  0  0  0
   59.2410   29.2120   50.6620 C   0  0  0  0  0  0  0  0  0  0  0  0
   59.5960   30.1490   49.6840 C   0  0  0  0  0  0  0  0  0  0  0  0
   60.6840   29.8870   48.7980 N   0  0  0  0  0  0  0  0  0  0  0  0
   60.7220   28.6730   47.9780 C   0  0  0  0  0  0  0  0  0  0  0  0
   59.4270   28.5320   47.2180 C   0  0  0  0  0  0  0  0  0  0  0  0
   58.6270   27.3820   47.3700 C   0  0  0  0  0  0  0  0  0  0  0  0
   57.4040   27.2860   46.7060 C   0  0  0  0  0  0  0  0  0  0  0  0
   56.9580   28.3500   45.8970 C   0  0  0  0  0  0  0  0  0  0  0  0
   55.7320   28.2640   45.2530 O   0  0  0  0  0  0  0  0  0  0  0  0
   57.7520   29.5050   45.7390 C   0  0  0  0  0  0  0  0  0  0  0  0
   58.9760   29.5970   46.3970 C   0  0  0  0  0  0  0  0  0  0  0  0
   64.2222   31.6733   48.1901 H   0  0  0  0  0  0  0  0  0  0  0  0
   64.6443   33.7238   46.8411 H   0  0  0  0  0  0  0  0  0  0  0  0
   62.7281   35.0721   45.9934 H   0  0  0  0  0  0  0  0  0  0  0  0
   60.4038   34.5002   46.6724 H   0  0  0  0  0  0  0  0  0  0  0  0
   57.2258   32.5237   50.3269 H   0  0  0  0  0  0  0  0  0  0  0  0
   55.6600   28.9180   52.4330 H   0  0  0  0  0  0  0  0  0  0  0  0
   54.3446   30.4251   50.7100 H   0  0  0  0  0  0  0  0  0  0  0  0
   53.6888   28.9314   51.4335 H   0  0  0  0  0  0  0  0  0  0  0  0
   52.9872   31.7945   51.9806 H   0  0  0  0  0  0  0  0  0  0  0  0
   51.9851   30.3542   52.1876 H   0  0  0  0  0  0  0  0  0  0  0  0
   53.4529   31.7636   54.2226 H   0  0  0  0  0  0  0  0  0  0  0  0
   52.6043   30.2216   54.4342 H   0  0  0  0  0  0  0  0  0  0  0  0
   55.4172   30.6273   54.5163 H   0  0  0  0  0  0  0  0  0  0  0  0
   54.5983   29.0438   54.3970 H   0  0  0  0  0  0  0  0  0  0  0  0
   57.9411   28.7535   52.3322 H   0  0  0  0  0  0  0  0  0  0  0  0
   59.7995   28.2679   50.7448 H   0  0  0  0  0  0  0  0  0  0  0  0
   61.5583   28.7385   47.2664 H   0  0  0  0  0  0  0  0  0  0  0  0
   60.8590   27.7975   48.6297 H   0  0  0  0  0  0  0  0  0  0  0  0
   58.9678   26.5579   48.0139 H   0  0  0  0  0  0  0  0  0  0  0  0
   56.7885   26.3807   46.8138 H   0  0  0  0  0  0  0  0  0  0  0  0
   57.4059   30.3297   45.0987 H   0  0  0  0  0  0  0  0  0  0  0  0
   59.5951   30.4987   46.2796 H   0  0  0  0  0  0  0  0  0  0  0  0
  1  2  2  0
  2  3  1  0
  3  4  2  0
  4  5  1  0
  5  6  2  0
  6  7  1  0
  7  8  2  0
  8  9  1  0
  9 10  2  0
  9 11  2  0
  9 12  1  0
 12 13  2  0
 13 14  1  0
 14 15  1  0
 15 16  2  0
 15 17  1  0
 17 18  1  0
 18 19  1  0
 19 20  1  0
 20 21  1  0
 14 22  2  0
 22 23  1  0
 23 24  2  0
 24 25  1  0
 25 26  1  0
 26 27  1  0
 27 28  2  0
 28 29  1  0
 29 30  2  0
 30 31  1  0
 30 32  1  0
 32 33  2  0
 25  2  1  0
 33 27  1  0
  8  3  1  0
 24 12  1  0
 21 17  1  0
  4 34  1  0
  5 35  1  0
  6 36  1  0
  7 37  1  0
 13 38  1  0
 17 39  1  0
 18 40  1  0
 18 41  1  0
 19 42  1  0
 19 43  1  0
 20 44  1  0
 20 45  1  0
 21 46  1  0
 21 47  1  0
 22 48  1  0
 23 49  1  0
 26 50  1  0
 26 51  1  0
 28 52  1  0
 29 53  1  0
 32 54  1  0
 33 55  1  0
M  CHG  2  17   1  31  -1
M  END
>  <UniqueID>  (86) 
80

>  <SMILES>  (86) 
O=C1c2ccccc2S(=O)(=O)c2cc(C(=O)[NH+]3CCCC3)ccc2N1Cc1ccc([O-])cc1

>  <Energy>  (86) 
94.38914000557168

>  <Genealogy>  (86) 
O=C1c2ccccc2S(=O)(=O)c2cc(C(=O)[NH+]3CCCC3)ccc2N1Cc1ccc([O-])cc1 (protonated)
O=C1c2ccccc2S(=O)(=O)c2cc(C(=O)[NH+]3CCCC3)ccc2N1Cc1ccc([O-])cc1 (3D coordinates assigned)
O=C1c2ccccc2S(=O)(=O)c2cc(C(=O)[NH+]3CCCC3)ccc2N1Cc1ccc([O-])cc1 (nonaromatic ring conformer: 94.38914000557168 kcal/mol)

>  <smiles>  (86) 
O=C(c1ccc2c(c1)S(=O)(=O)c1ccccc1C(=O)N2Cc1ccc(O)cc1)N1CCCC1

>  <score_type>  (86) 
oracle

>  <origin>  (86) 
adg

>  <m_score__min__energy>  (86) 
-9.1799999999999997

>  <m_primary>  (86) 
energy

$$$$
86:0
     RDKit          3D

 40 42  0  0  0  0  0  0  0  0999 V2000
   58.9324   30.2241   48.4936 H   0  0  0  0  0  0  0  0  0  0  0  0
   59.2640   30.9410   47.7280 C   0  0  0  0  0  0  0  0  0  0  0  0
   60.0820   30.4160   46.6120 C   0  0  0  0  0  0  0  0  0  0  0  0
   61.3380   30.4840   46.6650 O   0  0  0  0  0  0  0  0  0  0  0  0
   59.4770   29.6640   45.5490 N   0  0  0  0  0  0  0  0  0  0  0  0
   58.2060   29.4720   45.3290 C   0  0  0  0  0  0  0  0  0  0  0  0
   57.3930   30.4090   44.6570 C   0  0  0  0  0  0  0  0  0  0  0  0
   57.8200   31.3582   44.3011 H   0  0  0  0  0  0  0  0  0  0  0  0
   56.0430   30.1230   44.4470 C   0  0  0  0  0  0  0  0  0  0  0  0
   55.4018   30.8522   43.9302 H   0  0  0  0  0  0  0  0  0  0  0  0
   55.5190   28.9470   44.8790 N   0  0  0  0  0  0  0  0  0  0  0  0
   56.2750   28.0170   45.5250 C   0  0  0  0  0  0  0  0  0  0  0  0
   55.7250   26.7980   45.9410 O   0  0  0  0  0  0  0  0  0  0  0  0
   56.3700   25.5540   45.8760 C   0  0  0  0  0  0  0  0  0  0  0  0
   56.9720   25.1770   44.6700 C   0  0  0  0  0  0  0  0  0  0  0  0
   56.9259   25.8507   43.8016 H   0  0  0  0  0  0  0  0  0  0  0  0
   57.6310   23.9500   44.5630 C   0  0  0  0  0  0  0  0  0  0  0  0
   58.0933   23.6566   43.6090 H   0  0  0  0  0  0  0  0  0  0  0  0
   57.7040   23.0950   45.6650 C   0  0  0  0  0  0  0  0  0  0  0  0
   58.2181   22.1270   45.5721 H   0  0  0  0  0  0  0  0  0  0  0  0
   57.1280   23.4610   46.8860 C   0  0  0  0  0  0  0  0  0  0  0  0
   57.2390   22.5740   47.9680 O   0  0  0  0  0  0  0  0  0  0  0  0
   56.1620   22.2080   48.8230 C   0  0  0  0  0  0  0  0  0  0  0  0
   56.4745   22.3142   49.8723 H   0  0  0  0  0  0  0  0  0  0  0  0
   55.3005   22.8638   48.6288 H   0  0  0  0  0  0  0  0  0  0  0  0
   55.8785   21.1631   48.6288 H   0  0  0  0  0  0  0  0  0  0  0  0
   56.4650   24.7010   46.9910 C   0  0  0  0  0  0  0  0  0  0  0  0
   56.0194   25.0033   47.9502 H   0  0  0  0  0  0  0  0  0  0  0  0
   57.6340   28.2610   45.7430 C   0  0  0  0  0  0  0  0  0  0  0  0
   58.2555   27.5017   46.2401 H   0  0  0  0  0  0  0  0  0  0  0  0
   58.8950   32.2210   47.8800 C   0  0  0  0  0  0  0  0  0  0  0  0
   58.8024   32.6006   48.9083 H   0  0  0  0  0  0  0  0  0  0  0  0
   58.6030   33.1620   46.7830 C   0  0  0  0  0  0  0  0  0  0  0  0
   57.0700   33.4190   46.1450 S   0  0  0  0  0  0  0  0  0  0  0  0
   57.5500   34.4460   44.9030 C   0  0  0  0  0  0  0  0  0  0  0  0
   56.8850   34.9302   44.1727 H   0  0  0  0  0  0  0  0  0  0  0  0
   58.9310   34.5770   44.9590 C   0  0  0  0  0  0  0  0  0  0  0  0
   59.5053   35.1946   44.2527 H   0  0  0  0  0  0  0  0  0  0  0  0
   59.5250   33.8500   45.9980 C   0  0  0  0  0  0  0  0  0  0  0  0
   60.6102   33.8249   46.1762 H   0  0  0  0  0  0  0  0  0  0  0  0
  1  2  1  0
  2  3  1  0
  3  4  2  0
  3  5  1  0
  5  6  2  3
  6  7  1  0
  7  8  1  0
  7  9  2  0
  9 10  1  0
  9 11  1  0
 11 12  1  0
 12 13  1  0
 13 14  1  0
 14 15  2  0
 15 16  1  0
 15 17  1  0
 17 18  1  0
 17 19  2  0
 19 20  1  0
 19 21  1  0
 21 22  1  0
 22 23  1  0
 23 24  1  0
 23 25  1  0
 23 26  1  0
 21 27  2  0
 27 28  1  0
 12 29  2  0
 29 30  1  0
  2 31  2  0
 31 32  1  0
 31 33  1  0
 33 34  1  0
 34 35  1  0
 35 36  1  0
 35 37  2  0
 37 38  1  0
 37 39  1  0
 39 40  1  0
 29  6  1  0
 39 33  2  0
 27 14  1  0
M  CHG  1  11  -1
M  END
>  <UniqueID>  (87) 
81

>  <SMILES>  (87) 
COc1cccc(Oc2cc(=NC(=O)/C=C\c3cccs3)cc[n-]2)c1

>  <Energy>  (87) 
88.00695483522742

>  <Genealogy>  (87) 
COc1cccc(Oc2cc(=NC(=O)C=Cc3cccs3)cc[n-]2)c1 (protonated)
COc1cccc(Oc2cc(=NC(=O)/C=C\c3cccs3)cc[n-]2)c1 (cis-trans isomerization)
COc1cccc(Oc2cc(=NC(=O)/C=C\c3cccs3)cc[n-]2)c1 (3D coordinates assigned)
COc1cccc(Oc2cc(=NC(=O)/C=C\c3cccs3)cc[n-]2)c1 (optimized conformer: 88.00695483522742 kcal/mol)

>  <smiles>  (87) 
COc1cccc(Oc2cc(=NC(=O)C=Cc3cccs3)cc[nH]2)c1

>  <score_type>  (87) 
oracle

>  <origin>  (87) 
adg

>  <m_score__min__energy>  (87) 
-9.9499999999999993

>  <m_primary>  (87) 
energy

$$$$
87:0
     RDKit          3D

 39 41  0  0  0  0  0  0  0  0999 V2000
   58.4930   20.4240   45.5860 H   0  0  0  0  0  0  0  0  0  0  0  0
   57.9280   20.8110   46.3320 O   0  0  0  0  0  0  0  0  0  0  0  0
   57.3750   22.0850   46.2420 C   0  0  0  0  0  0  0  0  0  0  0  0
   56.6280   22.5910   47.3110 C   0  0  0  0  0  0  0  0  0  0  0  0
   56.4759   21.9789   48.2122 H   0  0  0  0  0  0  0  0  0  0  0  0
   56.0740   23.8730   47.2370 C   0  0  0  0  0  0  0  0  0  0  0  0
   55.4763   24.2606   48.0752 H   0  0  0  0  0  0  0  0  0  0  0  0
   56.2780   24.6690   46.0950 C   0  0  0  0  0  0  0  0  0  0  0  0
   55.7080   25.9840   45.9720 N   0  0  0  0  0  0  0  0  0  0  0  0
   56.3560   27.1110   45.9880 C   0  0  0  0  0  0  0  0  0  0  0  0
   55.9440   28.1710   45.2450 N   0  0  0  0  0  0  0  0  0  0  0  0
   56.6060   29.3560   45.3040 C   0  0  0  0  0  0  0  0  0  0  0  0
   56.2120   30.3770   44.6020 N   0  0  0  0  0  0  0  0  0  0  0  0
   57.0670   31.1390   43.6900 C   0  0  0  0  0  0  0  0  0  0  0  0
   57.8695   30.4853   43.3176 H   0  0  0  0  0  0  0  0  0  0  0  0
   56.4522   31.5054   42.8547 H   0  0  0  0  0  0  0  0  0  0  0  0
   57.6770   32.3160   44.3890 C   0  0  0  0  0  0  0  0  0  0  0  0
   58.5310   33.1440   43.8340 O   0  0  0  0  0  0  0  0  0  0  0  0
   58.8650   34.0540   44.7190 C   0  0  0  0  0  0  0  0  0  0  0  0
   59.5702   34.8797   44.5429 H   0  0  0  0  0  0  0  0  0  0  0  0
   58.1970   33.8180   45.9050 C   0  0  0  0  0  0  0  0  0  0  0  0
   58.2681   34.4057   46.8321 H   0  0  0  0  0  0  0  0  0  0  0  0
   57.4240   32.6980   45.6920 C   0  0  0  0  0  0  0  0  0  0  0  0
   56.7473   32.2102   46.4090 H   0  0  0  0  0  0  0  0  0  0  0  0
   57.6860   29.4800   46.1150 N   0  0  0  0  0  0  0  0  0  0  0  0
   58.1070   28.4280   46.8620 C   0  0  0  0  0  0  0  0  0  0  0  0
   59.1430   28.5700   47.6350 N   0  0  0  0  0  0  0  0  0  0  0  0
   60.1290   29.6450   47.5250 C   0  0  0  0  0  0  0  0  0  0  0  0
   60.3490   29.8249   46.4624 H   0  0  0  0  0  0  0  0  0  0  0  0
   61.0414   29.3420   48.0595 H   0  0  0  0  0  0  0  0  0  0  0  0
   59.6010   30.9320   48.1510 C   0  0  0  0  0  0  0  0  0  0  0  0
   59.6356   30.8476   49.2472 H   0  0  0  0  0  0  0  0  0  0  0  0
   60.2243   31.7791   47.8286 H   0  0  0  0  0  0  0  0  0  0  0  0
   58.5624   31.0973   47.8286 H   0  0  0  0  0  0  0  0  0  0  0  0
   57.4340   27.2460   46.8000 N   0  0  0  0  0  0  0  0  0  0  0  0
   56.9980   24.1430   45.0150 C   0  0  0  0  0  0  0  0  0  0  0  0
   57.1255   24.7409   44.1005 H   0  0  0  0  0  0  0  0  0  0  0  0
   57.5560   22.8630   45.0910 C   0  0  0  0  0  0  0  0  0  0  0  0
   58.1378   22.4664   44.2459 H   0  0  0  0  0  0  0  0  0  0  0  0
  1  2  1  0
  2  3  1  0
  3  4  2  0
  4  5  1  0
  4  6  1  0
  6  7  1  0
  6  8  2  0
  8  9  1  0
  9 10  2  3
 10 11  1  0
 11 12  1  0
 12 13  2  0
 13 14  1  0
 14 15  1  0
 14 16  1  0
 14 17  1  0
 17 18  1  0
 18 19  1  0
 19 20  1  0
 19 21  2  0
 21 22  1  0
 21 23  1  0
 23 24  1  0
 12 25  1  0
 25 26  1  0
 26 27  2  0
 27 28  1  0
 28 29  1  0
 28 30  1  0
 28 31  1  0
 31 32  1  0
 31 33  1  0
 31 34  1  0
 26 35  1  0
  8 36  1  0
 36 37  1  0
 36 38  2  0
 38 39  1  0
 38  3  1  0
 35 10  1  0
 23 17  2  0
M  CHG  3  11  -1  25  -1  35  -1
M  END
>  <UniqueID>  (88) 
82

>  <SMILES>  (88) 
CC/N=c1\[n-]c(=Nc2ccc(O)cc2)[n-]/c(=N\Cc2ccco2)[n-]1

>  <Energy>  (88) 
67.20156863726609

>  <Genealogy>  (88) 
CCN=c1[n-]c(=NCc2ccco2)[n-]c(=Nc2ccc(O)cc2)[n-]1 (protonated)
CC/N=c1\[n-]c(=Nc2ccc(O)cc2)[n-]/c(=N\Cc2ccco2)[n-]1 (cis-trans isomerization)
CC/N=c1\[n-]c(=Nc2ccc(O)cc2)[n-]/c(=N\Cc2ccco2)[n-]1 (3D coordinates assigned)
CC/N=c1\[n-]c(=Nc2ccc(O)cc2)[n-]/c(=N\Cc2ccco2)[n-]1 (optimized conformer: 67.20156863726609 kcal/mol)

>  <smiles>  (88) 
CCN=c1[nH]c(=NCc2ccco2)[nH]c(=Nc2ccc(O)cc2)[nH]1

>  <score_type>  (88) 
oracle

>  <origin>  (88) 
adg

>  <m_score__min__energy>  (88) 
-12.630000000000001

>  <m_primary>  (88) 
energy

$$$$
88:0
     RDKit          3D

 37 39  0  0  0  0  0  0  0  0999 V2000
   59.7440   29.2940   47.6120 C   0  0  0  0  0  0  0  0  0  0  0  0
   59.0410   30.0580   46.7630 C   0  0  0  0  0  0  0  0  0  0  0  0
   58.4130   29.6460   45.5850 C   0  0  0  0  0  0  0  0  0  0  0  0
   58.3850   28.3950   45.0770 C   0  0  0  0  0  0  0  0  0  0  0  0
   57.5430   27.3070   45.6040 C   0  0  0  0  0  0  0  0  0  0  0  0
   56.1450   27.4210   45.6120 C   0  0  0  0  0  0  0  0  0  0  0  0
   55.5270   28.5810   45.1590 O   0  0  0  0  0  0  0  0  0  0  0  0
   55.3860   26.3940   46.0700 N   0  0  0  0  0  0  0  0  0  0  0  0
   55.9560   25.2430   46.5130 C   0  0  0  0  0  0  0  0  0  0  0  0
   55.2320   24.3060   46.9360 O   0  0  0  0  0  0  0  0  0  0  0  0
   57.3060   25.1030   46.4950 N   0  0  0  0  0  0  0  0  0  0  0  0
   58.1090   26.1020   46.0460 C   0  0  0  0  0  0  0  0  0  0  0  0
   59.3580   25.9370   46.0370 O   0  0  0  0  0  0  0  0  0  0  0  0
   57.8380   30.8180   45.0820 C   0  0  0  0  0  0  0  0  0  0  0  0
   57.0290   30.9990   43.8350 C   0  0  0  0  0  0  0  0  0  0  0  0
   58.1150   31.8460   45.9060 N   0  0  0  0  0  0  0  0  0  0  0  0
   58.8340   31.3880   46.9180 N   0  0  0  0  0  0  0  0  0  0  0  0
   59.3400   32.2600   47.9800 C   0  0  0  0  0  0  0  0  0  0  0  0
   60.8100   32.5390   47.7810 C   0  0  0  0  0  0  0  0  0  0  0  0
   61.7640   31.7270   48.4190 C   0  0  0  0  0  0  0  0  0  0  0  0
   63.1300   31.9700   48.2450 C   0  0  0  0  0  0  0  0  0  0  0  0
   63.5550   33.0190   47.4270 C   0  0  0  0  0  0  0  0  0  0  0  0
   62.6160   33.8250   46.7790 C   0  0  0  0  0  0  0  0  0  0  0  0
   61.2470   33.5880   46.9490 C   0  0  0  0  0  0  0  0  0  0  0  0
   60.3580   34.3790   46.2980 F   0  0  0  0  0  0  0  0  0  0  0  0
   60.1924   29.7408   48.5116 H   0  0  0  0  0  0  0  0  0  0  0  0
   59.8722   28.2206   47.4087 H   0  0  0  0  0  0  0  0  0  0  0  0
   59.0319   28.1744   44.2151 H   0  0  0  0  0  0  0  0  0  0  0  0
   55.9881   31.2319   44.1038 H   0  0  0  0  0  0  0  0  0  0  0  0
   57.4484   31.8255   43.2426 H   0  0  0  0  0  0  0  0  0  0  0  0
   57.0562   30.0726   43.2426 H   0  0  0  0  0  0  0  0  0  0  0  0
   58.7859   33.2101   47.9628 H   0  0  0  0  0  0  0  0  0  0  0  0
   59.2018   31.7572   48.9486 H   0  0  0  0  0  0  0  0  0  0  0  0
   61.4338   30.8955   49.0590 H   0  0  0  0  0  0  0  0  0  0  0  0
   63.8704   31.3344   48.7528 H   0  0  0  0  0  0  0  0  0  0  0  0
   64.6298   33.2107   47.2929 H   0  0  0  0  0  0  0  0  0  0  0  0
   62.9536   34.6488   46.1329 H   0  0  0  0  0  0  0  0  0  0  0  0
  1  2  2  0
  2  3  1  0
  3  4  2  3
  4  5  1  0
  5  6  2  0
  6  7  1  0
  6  8  1  0
  8  9  1  0
  9 10  2  0
  9 11  1  0
 11 12  1  0
 12 13  2  0
  3 14  1  0
 14 15  1  0
 14 16  2  0
 16 17  1  0
 17 18  1  0
 18 19  1  0
 19 20  2  0
 20 21  1  0
 21 22  2  0
 22 23  1  0
 23 24  2  0
 24 25  1  0
 17  2  1  0
 24 19  1  0
 12  5  1  0
  1 26  1  0
  1 27  1  0
  4 28  1  0
 15 29  1  0
 15 30  1  0
 15 31  1  0
 18 32  1  0
 18 33  1  0
 20 34  1  0
 21 35  1  0
 22 36  1  0
 23 37  1  0
M  CHG  3   7  -1   8  -1  11  -1
M  END
>  <UniqueID>  (89) 
83

>  <SMILES>  (89) 
C=c1c(=Cc2c([O-])[n-]c(=O)[n-]c2=O)c(C)nn1Cc1ccccc1F

>  <Energy>  (89) 
84.4730416322373

>  <Genealogy>  (89) 
C=c1c(=Cc2c([O-])[n-]c(=O)[n-]c2=O)c(C)nn1Cc1ccccc1F (protonated)
C=c1c(=Cc2c([O-])[n-]c(=O)[n-]c2=O)c(C)nn1Cc1ccccc1F (3D coordinates assigned)
C=c1c(=Cc2c([O-])[n-]c(=O)[n-]c2=O)c(C)nn1Cc1ccccc1F (optimized conformer: 84.4730416322373 kcal/mol)

>  <smiles>  (89) 
C=c1c(=Cc2c(O)[nH]c(=O)[nH]c2=O)c(C)nn1Cc1ccccc1F

>  <score_type>  (89) 
oracle

>  <origin>  (89) 
adg

>  <m_score__min__energy>  (89) 
-15.85

>  <m_primary>  (89) 
energy

$$$$
89:0
     RDKit          3D

 46 48  0  0  0  0  0  0  0  0999 V2000
   55.5590   26.7100   46.0340 N   0  0  0  0  0  0  0  0  0  0  0  0
   56.7750   27.7380   45.3660 S   0  0  0  0  0  0  0  0  0  0  0  0
   57.5090   27.0010   44.2820 O   0  0  0  0  0  0  0  0  0  0  0  0
   56.1320   28.9580   44.7690 O   0  0  0  0  0  0  0  0  0  0  0  0
   57.8970   28.2210   46.6330 C   0  0  0  0  0  0  0  0  0  0  0  0
   58.5360   27.2570   47.4240 C   0  0  0  0  0  0  0  0  0  0  0  0
   59.4180   27.6480   48.4360 C   0  0  0  0  0  0  0  0  0  0  0  0
   59.6580   29.0100   48.6780 C   0  0  0  0  0  0  0  0  0  0  0  0
   60.6310   29.4310   49.7470 C   0  0  0  0  0  0  0  0  0  0  0  0
   60.1900   28.9070   51.1140 C   0  0  0  0  0  0  0  0  0  0  0  0
   58.9530   29.5670   51.5290 N   0  0  0  0  0  0  0  0  0  0  0  0
   58.0440   29.1150   52.4080 C   0  0  0  0  0  0  0  0  0  0  0  0
   58.1750   27.9290   53.1270 O   0  0  0  0  0  0  0  0  0  0  0  0
   56.9960   30.0180   52.4660 C   0  0  0  0  0  0  0  0  0  0  0  0
   55.8070   29.9670   53.3820 C   0  0  0  0  0  0  0  0  0  0  0  0
   54.5990   29.3070   52.7030 C   0  0  0  0  0  0  0  0  0  0  0  0
   53.4620   30.2780   52.5170 C   0  0  0  0  0  0  0  0  0  0  0  0
   53.3320   30.9970   51.3160 C   0  0  0  0  0  0  0  0  0  0  0  0
   52.3100   31.9390   51.1660 C   0  0  0  0  0  0  0  0  0  0  0  0
   51.4150   32.1740   52.2140 C   0  0  0  0  0  0  0  0  0  0  0  0
   50.4040   33.1150   52.0650 O   0  0  0  0  0  0  0  0  0  0  0  0
   51.5390   31.4640   53.4120 C   0  0  0  0  0  0  0  0  0  0  0  0
   52.5590   30.5210   53.5650 C   0  0  0  0  0  0  0  0  0  0  0  0
   57.2450   31.0430   51.6230 N   0  0  0  0  0  0  0  0  0  0  0  0
   58.4340   30.7220   51.0690 C   0  0  0  0  0  0  0  0  0  0  0  0
   58.9990   31.4410   50.2010 O   0  0  0  0  0  0  0  0  0  0  0  0
   59.0220   29.9740   47.8800 C   0  0  0  0  0  0  0  0  0  0  0  0
   58.1420   29.5820   46.8680 C   0  0  0  0  0  0  0  0  0  0  0  0
   54.7640   26.6980   45.3560 H   0  0  0  0  0  0  0  0  0  0  0  0
   58.3430   26.1884   47.2481 H   0  0  0  0  0  0  0  0  0  0  0  0
   59.9258   26.8856   49.0449 H   0  0  0  0  0  0  0  0  0  0  0  0
   61.6262   29.0272   49.5091 H   0  0  0  0  0  0  0  0  0  0  0  0
   60.6643   30.5299   49.7828 H   0  0  0  0  0  0  0  0  0  0  0  0
   60.0200   27.8221   51.0504 H   0  0  0  0  0  0  0  0  0  0  0  0
   60.9771   29.1195   51.8525 H   0  0  0  0  0  0  0  0  0  0  0  0
   57.8560   27.8470   54.0840 H   0  0  0  0  0  0  0  0  0  0  0  0
   56.0722   29.3887   54.2794 H   0  0  0  0  0  0  0  0  0  0  0  0
   55.5319   30.9986   53.6467 H   0  0  0  0  0  0  0  0  0  0  0  0
   54.9078   28.9274   51.7178 H   0  0  0  0  0  0  0  0  0  0  0  0
   54.2479   28.4893   53.3496 H   0  0  0  0  0  0  0  0  0  0  0  0
   54.0372   30.8177   50.4911 H   0  0  0  0  0  0  0  0  0  0  0  0
   52.2100   32.4958   50.2226 H   0  0  0  0  0  0  0  0  0  0  0  0
   50.8329   31.6479   54.2351 H   0  0  0  0  0  0  0  0  0  0  0  0
   52.6551   29.9667   54.5103 H   0  0  0  0  0  0  0  0  0  0  0  0
   59.2173   31.0427   48.0522 H   0  0  0  0  0  0  0  0  0  0  0  0
   57.6395   30.3434   46.2534 H   0  0  0  0  0  0  0  0  0  0  0  0
  1  2  1  0
  2  3  2  0
  2  4  2  0
  2  5  1  0
  5  6  2  0
  6  7  1  0
  7  8  2  0
  8  9  1  0
  9 10  1  0
 10 11  1  0
 11 12  1  0
 12 13  1  0
 12 14  2  0
 14 15  1  0
 15 16  1  0
 16 17  1  0
 17 18  2  0
 18 19  1  0
 19 20  2  0
 20 21  1  0
 20 22  1  0
 22 23  2  0
 14 24  1  0
 24 25  1  0
 25 26  2  0
  8 27  1  0
 27 28  2  0
 28  5  1  0
 25 11  1  0
 23 17  1  0
  1 29  1  0
  6 30  1  0
  7 31  1  0
  9 32  1  0
  9 33  1  0
 10 34  1  0
 10 35  1  0
 13 36  1  0
 15 37  1  0
 15 38  1  0
 16 39  1  0
 16 40  1  0
 18 41  1  0
 19 42  1  0
 22 43  1  0
 23 44  1  0
 27 45  1  0
 28 46  1  0
M  CHG  3   1  -1  21  -1  24  -1
M  END
>  <UniqueID>  (90) 
84

>  <SMILES>  (90) 
[NH-]S(=O)(=O)c1ccc(CCn2c(O)c(CCc3ccc([O-])cc3)[n-]c2=O)cc1

>  <Energy>  (90) 
71.63102884021575

>  <Genealogy>  (90) 
[NH-]S(=O)(=O)c1ccc(CCn2c(O)c(CCc3ccc([O-])cc3)[n-]c2=O)cc1 (protonated)
[NH-]S(=O)(=O)c1ccc(CCn2c(O)c(CCc3ccc([O-])cc3)[n-]c2=O)cc1 (3D coordinates assigned)
[NH-]S(=O)(=O)c1ccc(CCn2c(O)c(CCc3ccc([O-])cc3)[n-]c2=O)cc1 (optimized conformer: 71.63102884021575 kcal/mol)

>  <smiles>  (90) 
NS(=O)(=O)c1ccc(CCn2c(O)c(CCc3ccc(O)cc3)[nH]c2=O)cc1

>  <score_type>  (90) 
oracle

>  <origin>  (90) 
adg

>  <m_score__min__energy>  (90) 
-15.66

>  <m_primary>  (90) 
energy

$$$$
90:0
     RDKit          3D

 53 56  0  0  0  0  0  0  0  0999 V2000
   57.8850   19.9680   44.8420 H   0  0  0  0  0  0  0  0  0  0  0  0
   57.7740   20.7960   45.4140 O   0  0  0  0  0  0  0  0  0  0  0  0
   57.2550   21.9860   44.9040 C   0  0  0  0  0  0  0  0  0  0  0  0
   57.6660   23.2020   45.4610 C   0  0  0  0  0  0  0  0  0  0  0  0
   58.3891   23.2038   46.2899 H   0  0  0  0  0  0  0  0  0  0  0  0
   57.1640   24.4240   44.9720 C   0  0  0  0  0  0  0  0  0  0  0  0
   57.6020   25.7110   45.5640 C   0  0  0  0  0  0  0  0  0  0  0  0
   58.5870   25.7410   46.4990 N   0  0  0  0  0  0  0  0  0  0  0  0
   58.9910   26.9210   47.0400 C   0  0  0  0  0  0  0  0  0  0  0  0
   60.0040   26.9590   48.0000 O   0  0  0  0  0  0  0  0  0  0  0  0
   60.3800   28.1550   48.6750 C   0  0  0  0  0  0  0  0  0  0  0  0
   60.3294   27.9940   49.7620 H   0  0  0  0  0  0  0  0  0  0  0  0
   61.4074   28.4281   48.3922 H   0  0  0  0  0  0  0  0  0  0  0  0
   59.6937   28.9669   48.3922 H   0  0  0  0  0  0  0  0  0  0  0  0
   58.4030   28.0780   46.6430 N   0  0  0  0  0  0  0  0  0  0  0  0
   57.4130   28.0620   45.7180 C   0  0  0  0  0  0  0  0  0  0  0  0
   56.8800   29.1870   45.3370 N   0  0  0  0  0  0  0  0  0  0  0  0
   57.5300   30.4680   45.2650 C   0  0  0  0  0  0  0  0  0  0  0  0
   58.1520   30.9720   46.4140 C   0  0  0  0  0  0  0  0  0  0  0  0
   58.1550   30.3770   47.3392 H   0  0  0  0  0  0  0  0  0  0  0  0
   58.7690   32.2260   46.3930 C   0  0  0  0  0  0  0  0  0  0  0  0
   59.2618   32.6085   47.2990 H   0  0  0  0  0  0  0  0  0  0  0  0
   58.7630   32.9990   45.2230 C   0  0  0  0  0  0  0  0  0  0  0  0
   59.3970   34.3680   45.2160 C   0  0  0  0  0  0  0  0  0  0  0  0
   60.2615   34.3560   44.5360 H   0  0  0  0  0  0  0  0  0  0  0  0
   58.6396   35.0925   44.8822 H   0  0  0  0  0  0  0  0  0  0  0  0
   59.8640   34.7800   46.5920 C   0  0  0  0  0  0  0  0  0  0  0  0
   59.2100   35.6530   47.2270 O   0  0  0  0  0  0  0  0  0  0  0  0
   61.0730   34.2390   47.1700 N   0  0  0  0  0  0  0  0  0  0  0  0
   61.9880   33.4100   46.3710 C   0  0  0  0  0  0  0  0  0  0  0  0
   61.6394   32.3668   46.3867 H   0  0  0  0  0  0  0  0  0  0  0  0
   62.0023   33.7878   45.3380 H   0  0  0  0  0  0  0  0  0  0  0  0
   63.4070   33.4770   46.9450 C   0  0  0  0  0  0  0  0  0  0  0  0
   64.0388   32.7378   46.4308 H   0  0  0  0  0  0  0  0  0  0  0  0
   63.8009   34.4925   46.7910 H   0  0  0  0  0  0  0  0  0  0  0  0
   63.4040   33.1990   48.3310 O   0  0  0  0  0  0  0  0  0  0  0  0
   62.7090   34.2230   49.0140 C   0  0  0  0  0  0  0  0  0  0  0  0
   62.8020   34.0608   50.0980 H   0  0  0  0  0  0  0  0  0  0  0  0
   63.1452   35.1929   48.7328 H   0  0  0  0  0  0  0  0  0  0  0  0
   61.2260   34.2230   48.6320 C   0  0  0  0  0  0  0  0  0  0  0  0
   60.7476   33.3189   49.0365 H   0  0  0  0  0  0  0  0  0  0  0  0
   60.7500   35.1221   49.0503 H   0  0  0  0  0  0  0  0  0  0  0  0
   58.1020   32.5160   44.0830 C   0  0  0  0  0  0  0  0  0  0  0  0
   58.0694   33.1271   43.1689 H   0  0  0  0  0  0  0  0  0  0  0  0
   57.4850   31.2620   44.1040 C   0  0  0  0  0  0  0  0  0  0  0  0
   56.9619   30.8941   43.2090 H   0  0  0  0  0  0  0  0  0  0  0  0
   57.0230   26.8770   45.1750 N   0  0  0  0  0  0  0  0  0  0  0  0
   56.2390   24.4010   43.9110 C   0  0  0  0  0  0  0  0  0  0  0  0
   55.8368   25.3458   43.5166 H   0  0  0  0  0  0  0  0  0  0  0  0
   55.8280   23.1860   43.3550 C   0  0  0  0  0  0  0  0  0  0  0  0
   55.1045   23.1800   42.5264 H   0  0  0  0  0  0  0  0  0  0  0  0
   56.3320   21.9790   43.8470 C   0  0  0  0  0  0  0  0  0  0  0  0
   55.9130   20.7800   43.2810 O   0  0  0  0  0  0  0  0  0  0  0  0
  1  2  1  0
  2  3  1  0
  3  4  2  0
  4  5  1  0
  4  6  1  0
  6  7  1  0
  7  8  2  0
  8  9  1  0
  9 10  1  0
 10 11  1  0
 11 12  1  0
 11 13  1  0
 11 14  1  0
  9 15  2  0
 15 16  1  0
 16 17  2  0
 17 18  1  0
 18 19  2  0
 19 20  1  0
 19 21  1  0
 21 22  1  0
 21 23  2  0
 23 24  1  0
 24 25  1  0
 24 26  1  0
 24 27  1  0
 27 28  2  0
 27 29  1  0
 29 30  1  0
 30 31  1  0
 30 32  1  0
 30 33  1  0
 33 34  1  0
 33 35  1  0
 33 36  1  0
 36 37  1  0
 37 38  1  0
 37 39  1  0
 37 40  1  0
 40 41  1  0
 40 42  1  0
 23 43  1  0
 43 44  1  0
 43 45  2  0
 45 46  1  0
 16 47  1  0
  6 48  2  0
 48 49  1  0
 48 50  1  0
 50 51  1  0
 50 52  2  0
 52 53  1  0
 52  3  1  0
 47  7  1  0
 45 18  1  0
 40 29  1  0
M  CHG  2  47  -1  53  -1
M  END
>  <UniqueID>  (91) 
85

>  <SMILES>  (91) 
COc1nc(-c2ccc([O-])c(O)c2)[n-]/c(=N\c2ccc(CC(=O)N3CCOCC3)cc2)n1

>  <Energy>  (91) 
64.41496751168772

>  <Genealogy>  (91) 
COc1nc(-c2ccc([O-])c(O)c2)[n-]c(=Nc2ccc(CC(=O)N3CCOCC3)cc2)n1 (protonated)
COc1nc(-c2ccc([O-])c(O)c2)[n-]/c(=N\c2ccc(CC(=O)N3CCOCC3)cc2)n1 (cis-trans isomerization)
COc1nc(-c2ccc([O-])c(O)c2)[n-]/c(=N\c2ccc(CC(=O)N3CCOCC3)cc2)n1 (3D coordinates assigned)
COc1nc(-c2ccc([O-])c(O)c2)[n-]/c(=N\c2ccc(CC(=O)N3CCOCC3)cc2)n1 (nonaromatic ring conformer: 64.41496751168772 kcal/mol)

>  <smiles>  (91) 
COc1nc(-c2ccc(O)c(O)c2)[nH]c(=Nc2ccc(CC(=O)N3CCOCC3)cc2)n1

>  <score_type>  (91) 
oracle

>  <origin>  (91) 
adg

>  <m_score__min__energy>  (91) 
-13.92

>  <m_primary>  (91) 
energy

$$$$
91:0
     RDKit          3D

 50 52  0  0  0  0  0  0  0  0999 V2000
   58.5150   32.3620   50.6600 O   0  0  0  0  0  0  0  0  0  0  0  0
   59.6790   33.3000   50.8180 S   0  0  0  0  0  0  0  0  0  0  0  0
   59.5850   34.0120   52.1380 O   0  0  0  0  0  0  0  0  0  0  0  0
   61.1920   32.3570   50.7610 C   0  0  0  0  0  0  0  0  0  0  0  0
   61.8820   32.5580   49.4410 C   0  0  0  0  0  0  0  0  0  0  0  0
   62.7800   33.6250   49.2670 C   0  0  0  0  0  0  0  0  0  0  0  0
   63.4510   33.7890   48.0510 C   0  0  0  0  0  0  0  0  0  0  0  0
   63.2350   32.8890   47.0040 C   0  0  0  0  0  0  0  0  0  0  0  0
   62.3480   31.8210   47.1720 C   0  0  0  0  0  0  0  0  0  0  0  0
   61.6760   31.6520   48.3870 C   0  0  0  0  0  0  0  0  0  0  0  0
   59.6810   34.4520   49.5230 N   0  0  0  0  0  0  0  0  0  0  0  0
   59.2680   34.1850   48.1770 C   0  0  0  0  0  0  0  0  0  0  0  0
   59.7900   34.9750   47.1470 C   0  0  0  0  0  0  0  0  0  0  0  0
   59.4180   34.7480   45.8190 C   0  0  0  0  0  0  0  0  0  0  0  0
   58.5030   33.7310   45.5050 C   0  0  0  0  0  0  0  0  0  0  0  0
   58.1290   33.4650   44.0720 C   0  0  0  0  0  0  0  0  0  0  0  0
   57.9280   31.9630   43.8380 C   0  0  0  0  0  0  0  0  0  0  0  0
   56.6550   31.5020   44.3980 N   0  0  0  0  0  0  0  0  0  0  0  0
   56.4640   29.7710   44.2750 S   0  0  0  0  0  0  0  0  0  0  0  0
   56.4870   29.3980   42.8190 O   0  0  0  0  0  0  0  0  0  0  0  0
   55.1550   29.3380   44.8760 O   0  0  0  0  0  0  0  0  0  0  0  0
   57.7940   28.9420   45.0970 C   0  0  0  0  0  0  0  0  0  0  0  0
   58.3780   29.5350   46.2290 C   0  0  0  0  0  0  0  0  0  0  0  0
   59.4140   28.8940   46.9120 C   0  0  0  0  0  0  0  0  0  0  0  0
   59.8840   27.6590   46.4680 C   0  0  0  0  0  0  0  0  0  0  0  0
   59.3260   27.0650   45.3360 C   0  0  0  0  0  0  0  0  0  0  0  0
   58.2900   27.6980   44.6370 C   0  0  0  0  0  0  0  0  0  0  0  0
   57.7900   27.0670   43.4960 O   0  0  0  0  0  0  0  0  0  0  0  0
   57.9880   32.9290   46.5340 C   0  0  0  0  0  0  0  0  0  0  0  0
   58.3620   33.1550   47.8620 C   0  0  0  0  0  0  0  0  0  0  0  0
   61.8569   32.6883   51.5723 H   0  0  0  0  0  0  0  0  0  0  0  0
   60.9535   31.2899   50.8815 H   0  0  0  0  0  0  0  0  0  0  0  0
   62.9556   34.3334   50.0899 H   0  0  0  0  0  0  0  0  0  0  0  0
   64.1500   34.6279   47.9185 H   0  0  0  0  0  0  0  0  0  0  0  0
   63.7626   33.0206   46.0478 H   0  0  0  0  0  0  0  0  0  0  0  0
   62.1785   31.1129   46.3475 H   0  0  0  0  0  0  0  0  0  0  0  0
   60.9840   30.8070   48.5178 H   0  0  0  0  0  0  0  0  0  0  0  0
   60.4992   35.7816   47.3844 H   0  0  0  0  0  0  0  0  0  0  0  0
   59.8439   35.3687   45.0169 H   0  0  0  0  0  0  0  0  0  0  0  0
   57.1946   33.9959   43.8375 H   0  0  0  0  0  0  0  0  0  0  0  0
   58.9414   33.8203   43.4210 H   0  0  0  0  0  0  0  0  0  0  0  0
   57.9361   31.7648   42.7560 H   0  0  0  0  0  0  0  0  0  0  0  0
   58.7438   31.4216   44.3393 H   0  0  0  0  0  0  0  0  0  0  0  0
   58.0161   30.5126   46.5804 H   0  0  0  0  0  0  0  0  0  0  0  0
   59.8595   29.3641   47.8011 H   0  0  0  0  0  0  0  0  0  0  0  0
   60.6956   27.1525   47.0108 H   0  0  0  0  0  0  0  0  0  0  0  0
   59.7026   26.0914   44.9892 H   0  0  0  0  0  0  0  0  0  0  0  0
   56.9230   27.3320   43.0470 H   0  0  0  0  0  0  0  0  0  0  0  0
   57.2854   32.1171   46.2946 H   0  0  0  0  0  0  0  0  0  0  0  0
   57.9469   32.5259   48.6632 H   0  0  0  0  0  0  0  0  0  0  0  0
  1  2  2  0
  2  3  2  0
  2  4  1  0
  4  5  1  0
  5  6  2  0
  6  7  1  0
  7  8  2  0
  8  9  1  0
  9 10  2  0
  2 11  1  0
 11 12  1  0
 12 13  2  0
 13 14  1  0
 14 15  2  0
 15 16  1  0
 16 17  1  0
 17 18  1  0
 18 19  1  0
 19 20  2  0
 19 21  2  0
 19 22  1  0
 22 23  2  0
 23 24  1  0
 24 25  2  0
 25 26  1  0
 26 27  2  0
 27 28  1  0
 15 29  1  0
 29 30  2  0
 10  5  1  0
 30 12  1  0
 27 22  1  0
  4 31  1  0
  4 32  1  0
  6 33  1  0
  7 34  1  0
  8 35  1  0
  9 36  1  0
 10 37  1  0
 13 38  1  0
 14 39  1  0
 16 40  1  0
 16 41  1  0
 17 42  1  0
 17 43  1  0
 23 44  1  0
 24 45  1  0
 25 46  1  0
 26 47  1  0
 28 48  1  0
 29 49  1  0
 30 50  1  0
M  CHG  2  11  -1  18  -1
M  END
>  <UniqueID>  (92) 
86

>  <SMILES>  (92) 
O=S(=O)(Cc1ccccc1)[N-]c1ccc(CC[N-]S(=O)(=O)c2ccccc2O)cc1

>  <Energy>  (92) 
50.31920316130475

>  <Genealogy>  (92) 
O=S(=O)(Cc1ccccc1)[N-]c1ccc(CC[N-]S(=O)(=O)c2ccccc2O)cc1 (protonated)
O=S(=O)(Cc1ccccc1)[N-]c1ccc(CC[N-]S(=O)(=O)c2ccccc2O)cc1 (3D coordinates assigned)
O=S(=O)(Cc1ccccc1)[N-]c1ccc(CC[N-]S(=O)(=O)c2ccccc2O)cc1 (optimized conformer: 50.31920316130475 kcal/mol)

>  <smiles>  (92) 
O=S(=O)(Cc1ccccc1)Nc1ccc(CCNS(=O)(=O)c2ccccc2O)cc1

>  <score_type>  (92) 
oracle

>  <origin>  (92) 
adg

>  <m_score__min__energy>  (92) 
-12.68

>  <m_primary>  (92) 
energy

$$$$
92:0
     RDKit          3D

 51 53  0  0  0  0  0  0  0  0999 V2000
   63.3870   34.2300   46.7090 C   0  0  0  0  0  0  0  0  0  0  0  0
   62.0850   33.5030   46.8240 C   0  0  0  0  0  0  0  0  0  0  0  0
   60.9240   34.0360   46.2510 C   0  0  0  0  0  0  0  0  0  0  0  0
   59.7130   33.3350   46.3540 C   0  0  0  0  0  0  0  0  0  0  0  0
   58.4450   33.9170   45.7800 C   0  0  0  0  0  0  0  0  0  0  0  0
   57.5380   34.1970   46.7860 F   0  0  0  0  0  0  0  0  0  0  0  0
   58.7090   35.0920   45.0950 F   0  0  0  0  0  0  0  0  0  0  0  0
   57.8830   33.0030   44.9070 F   0  0  0  0  0  0  0  0  0  0  0  0
   59.6830   32.1290   47.0730 C   0  0  0  0  0  0  0  0  0  0  0  0
   60.8630   31.6330   47.6460 C   0  0  0  0  0  0  0  0  0  0  0  0
   60.8650   30.3180   48.3700 C   0  0  0  0  0  0  0  0  0  0  0  0
   60.5280   30.5110   49.7800 N   0  0  0  0  0  0  0  0  0  0  0  0
   59.6930   29.5840   50.4860 C   0  0  0  0  0  0  0  0  0  0  0  0
   59.3530   28.5000   49.9420 O   0  0  0  0  0  0  0  0  0  0  0  0
   59.2150   29.8970   51.8790 C   0  0  0  0  0  0  0  0  0  0  0  0
   57.6790   30.0120   51.9940 C   0  0  0  0  0  0  0  0  0  0  0  0
   57.0990   29.1480   53.1470 C   0  0  0  0  0  0  0  0  0  0  0  0
   55.8040   29.7280   53.7430 C   0  0  0  0  0  0  0  0  0  0  0  0
   55.0290   30.4360   52.7150 N   0  0  0  0  0  0  0  0  0  0  0  0
   53.7600   29.9070   52.2780 C   0  0  0  0  0  0  0  0  0  0  0  0
   53.5610   28.6610   52.3090 O   0  0  0  0  0  0  0  0  0  0  0  0
   52.6780   30.7860   51.7900 C   0  0  0  0  0  0  0  0  0  0  0  0
   52.1760   30.8690   50.5020 C   0  0  0  0  0  0  0  0  0  0  0  0
   51.2170   31.8140   50.4200 N   0  0  0  0  0  0  0  0  0  0  0  0
   51.1270   32.3290   51.6600 C   0  0  0  0  0  0  0  0  0  0  0  0
   50.2400   33.3400   52.0000 O   0  0  0  0  0  0  0  0  0  0  0  0
   52.0160   31.7390   52.5330 C   0  0  0  0  0  0  0  0  0  0  0  0
   55.6670   31.5380   51.9750 C   0  0  0  0  0  0  0  0  0  0  0  0
   57.2000   31.4750   52.0810 C   0  0  0  0  0  0  0  0  0  0  0  0
   62.0270   32.3200   47.4960 N   0  0  0  0  0  0  0  0  0  0  0  0
   63.7758   34.4471   47.7148 H   0  0  0  0  0  0  0  0  0  0  0  0
   64.1092   33.6046   46.1638 H   0  0  0  0  0  0  0  0  0  0  0  0
   63.2335   35.1730   46.1638 H   0  0  0  0  0  0  0  0  0  0  0  0
   60.9611   35.0000   45.7225 H   0  0  0  0  0  0  0  0  0  0  0  0
   58.7387   31.5762   47.1862 H   0  0  0  0  0  0  0  0  0  0  0  0
   60.1235   29.6492   47.9085 H   0  0  0  0  0  0  0  0  0  0  0  0
   61.8693   29.8745   48.3010 H   0  0  0  0  0  0  0  0  0  0  0  0
   60.8600   31.3670   50.2790 H   0  0  0  0  0  0  0  0  0  0  0  0
   59.5552   29.0959   52.5517 H   0  0  0  0  0  0  0  0  0  0  0  0
   59.6333   30.8773   52.1511 H   0  0  0  0  0  0  0  0  0  0  0  0
   57.2773   29.6002   51.0564 H   0  0  0  0  0  0  0  0  0  0  0  0
   56.8851   28.1419   52.7571 H   0  0  0  0  0  0  0  0  0  0  0  0
   57.8496   29.1270   53.9509 H   0  0  0  0  0  0  0  0  0  0  0  0
   55.1960   28.9076   54.1520 H   0  0  0  0  0  0  0  0  0  0  0  0
   56.0695   30.4404   54.5380 H   0  0  0  0  0  0  0  0  0  0  0  0
   52.5138   30.2479   49.6593 H   0  0  0  0  0  0  0  0  0  0  0  0
   52.1651   31.9781   53.5963 H   0  0  0  0  0  0  0  0  0  0  0  0
   55.3789   31.4710   50.9155 H   0  0  0  0  0  0  0  0  0  0  0  0
   55.3296   32.4888   52.4132 H   0  0  0  0  0  0  0  0  0  0  0  0
   57.6454   32.0529   51.2578 H   0  0  0  0  0  0  0  0  0  0  0  0
   57.5111   31.8981   53.0475 H   0  0  0  0  0  0  0  0  0  0  0  0
  1  2  1  0
  2  3  2  0
  3  4  1  0
  4  5  1  0
  5  6  1  0
  5  7  1  0
  5  8  1  0
  4  9  2  0
  9 10  1  0
 10 11  1  0
 11 12  1  0
 12 13  1  0
 13 14  2  0
 13 15  1  0
 15 16  1  0
 16 17  1  0
 17 18  1  0
 18 19  1  0
 19 20  1  0
 20 21  2  0
 20 22  1  0
 22 23  2  0
 23 24  1  0
 24 25  1  0
 25 26  1  0
 25 27  2  0
 19 28  1  0
 28 29  1  0
 10 30  2  0
 30  2  1  0
 29 16  1  0
 27 22  1  0
  1 31  1  0
  1 32  1  0
  1 33  1  0
  3 34  1  0
  9 35  1  0
 11 36  1  0
 11 37  1  0
 12 38  1  0
 15 39  1  0
 15 40  1  0
 16 41  1  0
 17 42  1  0
 17 43  1  0
 18 44  1  0
 18 45  1  0
 23 46  1  0
 27 47  1  0
 28 48  1  0
 28 49  1  0
 29 50  1  0
 29 51  1  0
M  CHG  2  24  -1  26  -1
M  END
>  <UniqueID>  (93) 
87

>  <SMILES>  (93) 
Cc1cc(C(F)(F)F)cc(CNC(=O)CC2CCN(C(=O)c3c[n-]c([O-])c3)CC2)n1

>  <Energy>  (93) 
79.61819611686673

>  <Genealogy>  (93) 
Cc1cc(C(F)(F)F)cc(CNC(=O)CC2CCN(C(=O)c3c[n-]c([O-])c3)CC2)n1 (protonated)
Cc1cc(C(F)(F)F)cc(CNC(=O)CC2CCN(C(=O)c3c[n-]c([O-])c3)CC2)n1 (3D coordinates assigned)
Cc1cc(C(F)(F)F)cc(CNC(=O)CC2CCN(C(=O)c3c[n-]c([O-])c3)CC2)n1 (nonaromatic ring conformer: 79.61819611686673 kcal/mol)

>  <smiles>  (93) 
Cc1cc(C(F)(F)F)cc(CNC(=O)CC2CCN(C(=O)c3c[nH]c(O)c3)CC2)n1

>  <score_type>  (93) 
oracle

>  <origin>  (93) 
adg

>  <m_score__min__energy>  (93) 
-15.19

>  <m_primary>  (93) 
energy

$$$$
