0:0
     RDKit          3D

 46 48  0  0  0  0  0  0  0  0999 V2000
   51.0280   32.6800   50.9010 O   0  0  0  0  0  0  0  0  0  0  0  0
   51.7130   31.7630   51.6900 C   0  0  0  0  0  0  0  0  0  0  0  0
   51.0090   30.9370   52.5670 C   0  0  0  0  0  0  0  0  0  0  0  0
   51.7020   30.0350   53.3820 C   0  0  0  0  0  0  0  0  0  0  0  0
   53.0970   29.9510   53.3080 C   0  0  0  0  0  0  0  0  0  0  0  0
   53.8080   30.7470   52.3910 C   0  0  0  0  0  0  0  0  0  0  0  0
   55.1960   30.6400   52.2130 O   0  0  0  0  0  0  0  0  0  0  0  0
   56.1730   31.3760   52.9490 C   0  0  0  0  0  0  0  0  0  0  0  0
   57.3420   31.6790   52.0490 C   0  0  0  0  0  0  0  0  0  0  0  0
   57.8500   32.9860   51.9930 C   0  0  0  0  0  0  0  0  0  0  0  0
   58.9090   33.3010   51.1400 C   0  0  0  0  0  0  0  0  0  0  0  0
   59.4710   32.3180   50.3040 C   0  0  0  0  0  0  0  0  0  0  0  0
   60.5250   32.5970   49.4190 O   0  0  0  0  0  0  0  0  0  0  0  0
   60.9210   33.8880   48.9560 C   0  0  0  0  0  0  0  0  0  0  0  0
   61.3210   33.8410   47.4760 C   0  0  0  0  0  0  0  0  0  0  0  0
   60.1280   33.7470   46.6080 N   0  0  0  0  0  0  0  0  0  0  0  0
   59.6070   32.3760   46.5110 C   0  0  0  0  0  0  0  0  0  0  0  0
   58.1440   32.5060   46.1280 C   0  0  0  0  0  0  0  0  0  0  0  0
   57.7260   33.8830   46.6220 C   0  0  0  0  0  0  0  0  0  0  0  0
   59.0070   34.5410   47.1240 C   0  0  0  0  0  0  0  0  0  0  0  0
   58.9710   31.0030   50.3630 C   0  0  0  0  0  0  0  0  0  0  0  0
   59.5120   29.9990   49.5570 O   0  0  0  0  0  0  0  0  0  0  0  0
   57.9120   30.6860   51.2240 C   0  0  0  0  0  0  0  0  0  0  0  0
   57.4330   29.3780   51.2520 O   0  0  0  0  0  0  0  0  0  0  0  0
   53.1060   31.6630   51.5950 C   0  0  0  0  0  0  0  0  0  0  0  0
   49.9117   30.9948   52.6176 H   0  0  0  0  0  0  0  0  0  0  0  0
   51.1494   29.3910   54.0819 H   0  0  0  0  0  0  0  0  0  0  0  0
   53.6399   29.2598   53.9694 H   0  0  0  0  0  0  0  0  0  0  0  0
   55.7314   32.3170   53.3088 H   0  0  0  0  0  0  0  0  0  0  0  0
   56.5125   30.7827   53.8108 H   0  0  0  0  0  0  0  0  0  0  0  0
   57.4095   33.7695   52.6272 H   0  0  0  0  0  0  0  0  0  0  0  0
   59.3077   34.3260   51.1210 H   0  0  0  0  0  0  0  0  0  0  0  0
   60.0815   34.5879   49.0799 H   0  0  0  0  0  0  0  0  0  0  0  0
   61.7893   34.2206   49.5438 H   0  0  0  0  0  0  0  0  0  0  0  0
   61.8778   34.7558   47.2245 H   0  0  0  0  0  0  0  0  0  0  0  0
   61.9465   32.9515   47.3099 H   0  0  0  0  0  0  0  0  0  0  0  0
   60.1545   31.8135   45.7404 H   0  0  0  0  0  0  0  0  0  0  0  0
   59.7265   31.8333   47.4603 H   0  0  0  0  0  0  0  0  0  0  0  0
   58.0225   32.4337   45.0371 H   0  0  0  0  0  0  0  0  0  0  0  0
   57.5301   31.7063   46.5680 H   0  0  0  0  0  0  0  0  0  0  0  0
   57.2886   34.4698   45.8008 H   0  0  0  0  0  0  0  0  0  0  0  0
   56.9629   33.8193   47.4117 H   0  0  0  0  0  0  0  0  0  0  0  0
   59.0724   35.5738   46.7511 H   0  0  0  0  0  0  0  0  0  0  0  0
   59.0249   34.5773   48.2233 H   0  0  0  0  0  0  0  0  0  0  0  0
   59.1850   29.0400   49.5920 H   0  0  0  0  0  0  0  0  0  0  0  0
   53.6534   32.3073   50.8912 H   0  0  0  0  0  0  0  0  0  0  0  0
  1  2  1  0
  2  3  2  0
  3  4  1  0
  4  5  2  0
  5  6  1  0
  6  7  1  0
  7  8  1  0
  8  9  1  0
  9 10  2  0
 10 11  1  0
 11 12  2  0
 12 13  1  0
 13 14  1  0
 14 15  1  0
 15 16  1  0
 16 17  1  0
 17 18  1  0
 18 19  1  0
 19 20  1  0
 12 21  1  0
 21 22  1  0
 21 23  2  0
 23 24  1  0
  6 25  2  0
 25  2  1  0
 23  9  1  0
 20 16  1  0
  3 26  1  0
  4 27  1  0
  5 28  1  0
  8 29  1  0
  8 30  1  0
 10 31  1  0
 11 32  1  0
 14 33  1  0
 14 34  1  0
 15 35  1  0
 15 36  1  0
 17 37  1  0
 17 38  1  0
 18 39  1  0
 18 40  1  0
 19 41  1  0
 19 42  1  0
 20 43  1  0
 20 44  1  0
 22 45  1  0
 25 46  1  0
M  CHG  2   1  -1  24  -1
M  END
>  <UniqueID>  (1) 
1

>  <SMILES>  (1) 
[O-]c1cccc(OCc2ccc(OCCN3CCCC3)c(O)c2[O-])c1

>  <Energy>  (1) 
51.37290069595344

>  <Genealogy>  (1) 
[O-]c1cccc(OCc2ccc(OCCN3CCCC3)c(O)c2[O-])c1 (protonated)
[O-]c1cccc(OCc2ccc(OCCN3CCCC3)c(O)c2[O-])c1 (3D coordinates assigned)
[O-]c1cccc(OCc2ccc(OCCN3CCCC3)c(O)c2[O-])c1 (nonaromatic ring conformer: 51.37290069595344 kcal/mol)

>  <smiles>  (1) 
Oc1cccc(OCc2ccc(OCCN3CCCC3)c(O)c2O)c1

>  <score_type>  (1) 
oracle

>  <origin>  (1) 
adg

>  <m_score__min__energy>  (1) 
-13.890000000000001

>  <m_primary>  (1) 
energy

$$$$
1:0
     RDKit          3D

 31 33  0  0  0  0  0  0  0  0999 V2000
   55.2712   28.5264   43.2498 H   0  0  0  0  0  0  0  0  0  0  0  0
   55.4740   29.4970   43.7260 C   0  0  0  0  0  0  0  0  0  0  0  0
   54.8629   30.3745   43.4682 H   0  0  0  0  0  0  0  0  0  0  0  0
   56.4620   29.6100   44.6170 C   0  0  0  0  0  0  0  0  0  0  0  0
   56.7400   30.7830   45.2210 N   0  0  0  0  0  0  0  0  0  0  0  0
   57.6960   30.5880   46.1160 N   0  0  0  0  0  0  0  0  0  0  0  0
   58.0380   29.2890   46.0970 C   0  0  0  0  0  0  0  0  0  0  0  0
   59.3430   28.6070   47.1230 S   0  0  0  0  0  0  0  0  0  0  0  0
   59.9500   30.2320   47.5780 C   0  0  0  0  0  0  0  0  0  0  0  0
   59.4100   30.8970   48.6870 C   0  0  0  0  0  0  0  0  0  0  0  0
   58.6199   30.4181   49.2841 H   0  0  0  0  0  0  0  0  0  0  0  0
   59.8750   32.1690   49.0350 C   0  0  0  0  0  0  0  0  0  0  0  0
   59.4497   32.6907   49.9050 H   0  0  0  0  0  0  0  0  0  0  0  0
   60.8800   32.7780   48.2780 C   0  0  0  0  0  0  0  0  0  0  0  0
   61.2426   33.7801   48.5506 H   0  0  0  0  0  0  0  0  0  0  0  0
   61.4250   32.1140   47.1740 C   0  0  0  0  0  0  0  0  0  0  0  0
   62.2171   32.5931   46.5799 H   0  0  0  0  0  0  0  0  0  0  0  0
   60.9630   30.8420   46.8260 C   0  0  0  0  0  0  0  0  0  0  0  0
   61.3952   30.3186   45.9604 H   0  0  0  0  0  0  0  0  0  0  0  0
   57.2920   28.6150   45.1430 C   0  0  0  0  0  0  0  0  0  0  0  0
   57.4100   27.3040   44.8500 C   0  0  0  0  0  0  0  0  0  0  0  0
   57.6789   27.0377   43.8171 H   0  0  0  0  0  0  0  0  0  0  0  0
   57.2070   26.2000   45.8050 C   0  0  0  0  0  0  0  0  0  0  0  0
   55.9360   25.9240   46.3350 C   0  0  0  0  0  0  0  0  0  0  0  0
   54.8400   26.7110   45.9980 O   0  0  0  0  0  0  0  0  0  0  0  0
   55.7680   24.8750   47.1800 N   0  0  0  0  0  0  0  0  0  0  0  0
   56.8100   24.0710   47.5150 C   0  0  0  0  0  0  0  0  0  0  0  0
   56.5780   22.8190   48.5350 S   0  0  0  0  0  0  0  0  0  0  0  0
   58.0420   24.3010   46.9920 N   0  0  0  0  0  0  0  0  0  0  0  0
   58.2610   25.3380   46.1420 C   0  0  0  0  0  0  0  0  0  0  0  0
   59.4160   25.5190   45.6710 O   0  0  0  0  0  0  0  0  0  0  0  0
  1  2  1  0
  2  3  1  0
  2  4  2  0
  4  5  1  0
  5  6  1  0
  6  7  2  0
  7  8  1  0
  8  9  1  0
  9 10  2  0
 10 11  1  0
 10 12  1  0
 12 13  1  0
 12 14  2  0
 14 15  1  0
 14 16  1  0
 16 17  1  0
 16 18  2  0
 18 19  1  0
  7 20  1  0
 20 21  2  0
 21 22  1  0
 21 23  1  0
 23 24  2  0
 24 25  1  0
 24 26  1  0
 26 27  1  0
 27 28  2  0
 27 29  1  0
 29 30  1  0
 30 31  2  0
 20  4  1  0
 30 23  1  0
 18  9  1  0
M  CHG  4   5  -1  25  -1  26  -1  29  -1
M  END
>  <UniqueID>  (2) 
2

>  <SMILES>  (2) 
C=c1[n-]nc(Sc2ccccc2)/c1=C/c1c([O-])[n-]c(=S)[n-]c1=O

>  <Energy>  (2) 
74.27010773029554

>  <Genealogy>  (2) 
C=c1[n-]nc(Sc2ccccc2)c1=Cc1c([O-])[n-]c(=S)[n-]c1=O (protonated)
C=c1[n-]nc(Sc2ccccc2)/c1=C/c1c([O-])[n-]c(=S)[n-]c1=O (cis-trans isomerization)
C=c1[n-]nc(Sc2ccccc2)/c1=C/c1c([O-])[n-]c(=S)[n-]c1=O (3D coordinates assigned)
C=c1[n-]nc(Sc2ccccc2)/c1=C/c1c([O-])[n-]c(=S)[n-]c1=O (optimized conformer: 74.27010773029554 kcal/mol)

>  <smiles>  (2) 
C=c1[nH]nc(Sc2ccccc2)c1=Cc1c(O)[nH]c(=S)[nH]c1=O

>  <score_type>  (2) 
oracle

>  <origin>  (2) 
adg

>  <m_score__min__energy>  (2) 
-15.83

>  <m_primary>  (2) 
energy

$$$$
2:0
     RDKit          3D

 66 69  0  0  0  0  0  0  0  0999 V2000
   61.0490   29.6730   48.5600 O   0  0  0  0  0  0  0  0  0  0  0  0
   61.0590   29.7180   49.8060 N   0  0  0  0  0  0  0  0  0  0  0  0
   61.8750   28.8520   50.4980 O   0  0  0  0  0  0  0  0  0  0  0  0
   60.3660   30.7660   50.5010 C   0  0  0  0  0  0  0  0  0  0  0  0
   59.1370   30.4900   51.1290 C   0  0  0  0  0  0  0  0  0  0  0  0
   58.3860   31.5170   51.7120 C   0  0  0  0  0  0  0  0  0  0  0  0
   56.8370   31.1440   52.4640 S   0  0  0  0  0  0  0  0  0  0  0  0
   55.9590   32.3610   52.3730 O   0  0  0  0  0  0  0  0  0  0  0  0
   56.1680   30.0140   51.7320 O   0  0  0  0  0  0  0  0  0  0  0  0
   57.0820   30.7190   54.1450 N   0  0  0  0  0  0  0  0  0  0  0  0
   58.5120   30.5740   54.4390 C   0  0  0  0  0  0  0  0  0  0  0  0
   58.8870   29.1110   54.2600 C   0  0  0  0  0  0  0  0  0  0  0  0
   57.5740   28.3510   54.2680 C   0  0  0  0  0  0  0  0  0  0  0  0
   56.4910   29.4070   54.4330 C   0  0  0  0  0  0  0  0  0  0  0  0
   58.8500   32.8350   51.6520 C   0  0  0  0  0  0  0  0  0  0  0  0
   60.0750   33.1190   51.0460 C   0  0  0  0  0  0  0  0  0  0  0  0
   60.8560   32.0910   50.5050 C   0  0  0  0  0  0  0  0  0  0  0  0
   62.1580   32.4150   50.0110 N   0  0  0  0  0  0  0  0  0  0  0  0
   62.4380   33.5810   48.7530 S   0  0  0  0  0  0  0  0  0  0  0  0
   62.5150   34.9670   49.3300 O   0  0  0  0  0  0  0  0  0  0  0  0
   63.7600   33.2670   48.1100 O   0  0  0  0  0  0  0  0  0  0  0  0
   61.1980   33.5220   47.5210 N   0  0  0  0  0  0  0  0  0  0  0  0
   60.8840   32.1210   47.1700 C   0  0  0  0  0  0  0  0  0  0  0  0
   59.5850   31.9980   46.3440 C   0  0  0  0  0  0  0  0  0  0  0  0
   59.2160   33.3360   45.6780 C   0  0  0  0  0  0  0  0  0  0  0  0
   57.9810   33.2000   44.7660 C   0  0  0  0  0  0  0  0  0  0  0  0
   56.9910   32.2830   45.3470 N   0  0  0  0  0  0  0  0  0  0  0  0
   56.9320   30.8040   44.4390 S   0  0  0  0  0  0  0  0  0  0  0  0
   55.5470   30.2260   44.5110 O   0  0  0  0  0  0  0  0  0  0  0  0
   57.2720   31.0810   43.0000 O   0  0  0  0  0  0  0  0  0  0  0  0
   58.0720   29.6550   45.1350 C   0  0  0  0  0  0  0  0  0  0  0  0
   59.2750   29.3480   44.4820 C   0  0  0  0  0  0  0  0  0  0  0  0
   60.1760   28.4500   45.0610 C   0  0  0  0  0  0  0  0  0  0  0  0
   59.8820   27.8540   46.2910 C   0  0  0  0  0  0  0  0  0  0  0  0
   58.6850   28.1600   46.9480 C   0  0  0  0  0  0  0  0  0  0  0  0
   57.7820   29.0590   46.3720 C   0  0  0  0  0  0  0  0  0  0  0  0
   59.0520   34.4550   46.7360 C   0  0  0  0  0  0  0  0  0  0  0  0
   59.9940   34.2600   47.9370 C   0  0  0  0  0  0  0  0  0  0  0  0
   58.7628   29.4561   51.1619 H   0  0  0  0  0  0  0  0  0  0  0  0
   59.0994   31.1964   53.7479 H   0  0  0  0  0  0  0  0  0  0  0  0
   58.7233   30.8976   55.4689 H   0  0  0  0  0  0  0  0  0  0  0  0
   59.4109   28.9628   53.3042 H   0  0  0  0  0  0  0  0  0  0  0  0
   59.5640   28.7636   55.0543 H   0  0  0  0  0  0  0  0  0  0  0  0
   57.4392   27.8074   53.3212 H   0  0  0  0  0  0  0  0  0  0  0  0
   57.5408   27.6043   55.0751 H   0  0  0  0  0  0  0  0  0  0  0  0
   55.6669   29.2079   53.7321 H   0  0  0  0  0  0  0  0  0  0  0  0
   56.0933   29.3863   55.4584 H   0  0  0  0  0  0  0  0  0  0  0  0
   58.2487   33.6491   52.0830 H   0  0  0  0  0  0  0  0  0  0  0  0
   60.4294   34.1590   50.9932 H   0  0  0  0  0  0  0  0  0  0  0  0
   61.7171   31.7090   46.5816 H   0  0  0  0  0  0  0  0  0  0  0  0
   60.7390   31.5647   48.1078 H   0  0  0  0  0  0  0  0  0  0  0  0
   59.7278   31.2366   45.5631 H   0  0  0  0  0  0  0  0  0  0  0  0
   58.7682   31.7114   47.0227 H   0  0  0  0  0  0  0  0  0  0  0  0
   60.0499   33.6293   45.0233 H   0  0  0  0  0  0  0  0  0  0  0  0
   57.5201   34.1903   44.6358 H   0  0  0  0  0  0  0  0  0  0  0  0
   58.3062   32.7936   43.7969 H   0  0  0  0  0  0  0  0  0  0  0  0
   56.0450   32.7210   45.2640 H   0  0  0  0  0  0  0  0  0  0  0  0
   59.5094   29.8143   43.5137 H   0  0  0  0  0  0  0  0  0  0  0  0
   61.1191   28.2115   44.5475 H   0  0  0  0  0  0  0  0  0  0  0  0
   60.5915   27.1447   46.7422 H   0  0  0  0  0  0  0  0  0  0  0  0
   58.4545   27.6936   47.9172 H   0  0  0  0  0  0  0  0  0  0  0  0
   56.8418   29.2997   46.8899 H   0  0  0  0  0  0  0  0  0  0  0  0
   59.2743   35.4238   46.2647 H   0  0  0  0  0  0  0  0  0  0  0  0
   58.0175   34.4197   47.1082 H   0  0  0  0  0  0  0  0  0  0  0  0
   60.2884   35.2435   48.3319 H   0  0  0  0  0  0  0  0  0  0  0  0
   59.4706   33.6855   48.7155 H   0  0  0  0  0  0  0  0  0  0  0  0
  1  2  2  0
  2  3  1  0
  2  4  1  0
  4  5  2  0
  5  6  1  0
  6  7  1  0
  7  8  2  0
  7  9  2  0
  7 10  1  0
 10 11  1  0
 11 12  1  0
 12 13  1  0
 13 14  1  0
  6 15  2  0
 15 16  1  0
 16 17  2  0
 17 18  1  0
 18 19  1  0
 19 20  2  0
 19 21  2  0
 19 22  1  0
 22 23  1  0
 23 24  1  0
 24 25  1  0
 25 26  1  0
 26 27  1  0
 27 28  1  0
 28 29  2  0
 28 30  2  0
 28 31  1  0
 31 32  2  0
 32 33  1  0
 33 34  2  0
 34 35  1  0
 35 36  2  0
 25 37  1  0
 37 38  1  0
 17  4  1  0
 38 22  1  0
 14 10  1  0
 36 31  1  0
  5 39  1  0
 11 40  1  0
 11 41  1  0
 12 42  1  0
 12 43  1  0
 13 44  1  0
 13 45  1  0
 14 46  1  0
 14 47  1  0
 15 48  1  0
 16 49  1  0
 23 50  1  0
 23 51  1  0
 24 52  1  0
 24 53  1  0
 25 54  1  0
 26 55  1  0
 26 56  1  0
 27 57  1  0
 32 58  1  0
 33 59  1  0
 34 60  1  0
 35 61  1  0
 36 62  1  0
 37 63  1  0
 37 64  1  0
 38 65  1  0
 38 66  1  0
M  CHG  3   2   1   3  -1  18  -1
M  END
>  <UniqueID>  (3) 
3

>  <SMILES>  (3) 
O=[N+]([O-])c1cc(S(=O)(=O)N2CCCC2)ccc1[N-]S(=O)(=O)N1CCC(CNS(=O)(=O)c2ccccc2)CC1

>  <Energy>  (3) 
80.86082636850973

>  <Genealogy>  (3) 
O=[N+]([O-])c1cc(S(=O)(=O)N2CCCC2)ccc1[N-]S(=O)(=O)N1CCC(CNS(=O)(=O)c2ccccc2)CC1 (protonated)
O=[N+]([O-])c1cc(S(=O)(=O)N2CCCC2)ccc1[N-]S(=O)(=O)N1CCC(CNS(=O)(=O)c2ccccc2)CC1 (3D coordinates assigned)
O=[N+]([O-])c1cc(S(=O)(=O)N2CCCC2)ccc1[N-]S(=O)(=O)N1CCC(CNS(=O)(=O)c2ccccc2)CC1 (nonaromatic ring conformer: 80.86082636850973 kcal/mol)

>  <smiles>  (3) 
O=[N+]([O-])c1cc(S(=O)(=O)N2CCCC2)ccc1NS(=O)(=O)N1CCC(CNS(=O)(=O)c2ccccc2)CC1

>  <score_type>  (3) 
oracle

>  <origin>  (3) 
adg

>  <m_score__min__energy>  (3) 
-12.84

>  <m_primary>  (3) 
energy

$$$$
3:0
     RDKit          3D

 33 34  0  0  0  0  0  0  0  0999 V2000
   55.1400   27.4810   45.3590 H   0  0  0  0  0  0  0  0  0  0  0  0
   55.0530   26.6540   45.9310 O   0  0  0  0  0  0  0  0  0  0  0  0
   55.6180   25.4170   45.6100 C   0  0  0  0  0  0  0  0  0  0  0  0
   54.9150   24.2660   45.9880 C   0  0  0  0  0  0  0  0  0  0  0  0
   53.9487   24.3633   46.5045 H   0  0  0  0  0  0  0  0  0  0  0  0
   55.4280   22.9970   45.7160 C   0  0  0  0  0  0  0  0  0  0  0  0
   54.8657   22.1006   46.0165 H   0  0  0  0  0  0  0  0  0  0  0  0
   56.6520   22.8650   45.0640 C   0  0  0  0  0  0  0  0  0  0  0  0
   57.0574   21.8641   44.8545 H   0  0  0  0  0  0  0  0  0  0  0  0
   57.3650   24.0010   44.6760 C   0  0  0  0  0  0  0  0  0  0  0  0
   58.3329   23.8881   44.1658 H   0  0  0  0  0  0  0  0  0  0  0  0
   56.8580   25.2900   44.9310 C   0  0  0  0  0  0  0  0  0  0  0  0
   57.6880   26.4810   44.5030 C   0  0  0  0  0  0  0  0  0  0  0  0
   57.3283   26.8314   43.5243 H   0  0  0  0  0  0  0  0  0  0  0  0
   58.7391   26.1611   44.4491 H   0  0  0  0  0  0  0  0  0  0  0  0
   57.5950   27.6370   45.5080 C   0  0  0  0  0  0  0  0  0  0  0  0
   58.6116   27.9219   45.8170 H   0  0  0  0  0  0  0  0  0  0  0  0
   57.0000   27.2938   46.3672 H   0  0  0  0  0  0  0  0  0  0  0  0
   56.9140   28.8350   44.9220 C   0  0  0  0  0  0  0  0  0  0  0  0
   55.6920   29.0420   45.1600 O   0  0  0  0  0  0  0  0  0  0  0  0
   57.6430   29.7140   44.0640 N   0  0  0  0  0  0  0  0  0  0  0  0
   57.2520   30.9070   43.8600 N   0  0  0  0  0  0  0  0  0  0  0  0
   57.8170   32.0240   44.5580 C   0  0  0  0  0  0  0  0  0  0  0  0
   57.8650   32.0680   45.9640 C   0  0  0  0  0  0  0  0  0  0  0  0
   57.4613   31.2316   46.5535 H   0  0  0  0  0  0  0  0  0  0  0  0
   58.4250   33.1730   46.6130 C   0  0  0  0  0  0  0  0  0  0  0  0
   58.4603   33.2042   47.7120 H   0  0  0  0  0  0  0  0  0  0  0  0
   58.9400   34.2380   45.8680 C   0  0  0  0  0  0  0  0  0  0  0  0
   59.6420   35.6230   46.6840 Cl  0  0  0  0  0  0  0  0  0  0  0  0
   58.8940   34.1980   44.4700 C   0  0  0  0  0  0  0  0  0  0  0  0
   59.2978   35.0362   43.8832 H   0  0  0  0  0  0  0  0  0  0  0  0
   58.3360   33.0950   43.8180 C   0  0  0  0  0  0  0  0  0  0  0  0
   58.3040   33.0673   42.7188 H   0  0  0  0  0  0  0  0  0  0  0  0
  1  2  1  0
  2  3  1  0
  3  4  2  0
  4  5  1  0
  4  6  1  0
  6  7  1  0
  6  8  2  0
  8  9  1  0
  8 10  1  0
 10 11  1  0
 10 12  2  0
 12 13  1  0
 13 14  1  0
 13 15  1  0
 13 16  1  0
 16 17  1  0
 16 18  1  0
 16 19  1  0
 19 20  2  0
 19 21  1  0
 21 22  2  0
 22 23  1  0
 23 24  2  0
 24 25  1  0
 24 26  1  0
 26 27  1  0
 26 28  2  0
 28 29  1  0
 28 30  1  0
 30 31  1  0
 30 32  2  0
 32 33  1  0
 12  3  1  0
 32 23  1  0
M  END
>  <UniqueID>  (4) 
4

>  <SMILES>  (4) 
O=C(CCc1ccccc1O)/N=N/c1ccc(Cl)cc1

>  <Energy>  (4) 
31.026480884751418

>  <Genealogy>  (4) 
O=C(CCc1ccccc1O)/N=N/c1ccc(Cl)cc1 (cis-trans isomerization)
O=C(CCc1ccccc1O)/N=N/c1ccc(Cl)cc1 (3D coordinates assigned)
O=C(CCc1ccccc1O)/N=N/c1ccc(Cl)cc1 (optimized conformer: 31.026480884751418 kcal/mol)

>  <smiles>  (4) 
O=C(CCc1ccccc1O)N=Nc1ccc(Cl)cc1

>  <score_type>  (4) 
oracle

>  <origin>  (4) 
adg

>  <m_score__min__energy>  (4) 
-9.0399999999999991

>  <m_primary>  (4) 
energy

$$$$
4:0
     RDKit          3D

 59 62  0  0  0  0  0  0  0  0999 V2000
   55.1680   26.6640   46.0100 N   0  0  0  0  0  0  0  0  0  0  0  0
   56.5570   26.9050   46.2440 C   0  0  0  0  0  0  0  0  0  0  0  0
   57.2420   26.0280   46.8360 O   0  0  0  0  0  0  0  0  0  0  0  0
   57.1880   28.1620   45.7740 C   0  0  0  0  0  0  0  0  0  0  0  0
   56.6800   28.7890   44.6210 C   0  0  0  0  0  0  0  0  0  0  0  0
   57.3060   29.9150   44.0870 C   0  0  0  0  0  0  0  0  0  0  0  0
   58.4480   30.4300   44.6940 C   0  0  0  0  0  0  0  0  0  0  0  0
   58.9540   29.8350   45.8490 C   0  0  0  0  0  0  0  0  0  0  0  0
   58.3230   28.7220   46.4150 C   0  0  0  0  0  0  0  0  0  0  0  0
   58.8470   28.1880   47.6390 N   0  0  0  0  0  0  0  0  0  0  0  0
   60.1900   28.4520   48.0910 C   0  0  0  0  0  0  0  0  0  0  0  0
   60.9550   29.1920   47.4150 O   0  0  0  0  0  0  0  0  0  0  0  0
   60.6640   27.8910   49.3990 C   0  0  0  0  0  0  0  0  0  0  0  0
   61.5410   29.1490   50.3930 S   0  0  0  0  0  0  0  0  0  0  0  0
   60.2650   30.4070   50.2290 C   0  0  0  0  0  0  0  0  0  0  0  0
   59.0470   30.1690   50.7780 N   0  0  0  0  0  0  0  0  0  0  0  0
   58.0540   31.0910   50.7150 C   0  0  0  0  0  0  0  0  0  0  0  0
   56.9290   30.8390   51.2170 O   0  0  0  0  0  0  0  0  0  0  0  0
   58.2730   32.2840   50.1090 N   0  0  0  0  0  0  0  0  0  0  0  0
   59.4770   32.5920   49.5570 C   0  0  0  0  0  0  0  0  0  0  0  0
   59.6300   33.9250   48.8730 C   0  0  0  0  0  0  0  0  0  0  0  0
   59.0450   33.8730   47.4890 C   0  0  0  0  0  0  0  0  0  0  0  0
   59.6690   34.5570   46.4320 C   0  0  0  0  0  0  0  0  0  0  0  0
   59.1090   34.5390   45.1520 C   0  0  0  0  0  0  0  0  0  0  0  0
   57.9220   33.8410   44.9180 C   0  0  0  0  0  0  0  0  0  0  0  0
   57.2990   33.1530   45.9620 C   0  0  0  0  0  0  0  0  0  0  0  0
   57.8580   33.1660   47.2430 C   0  0  0  0  0  0  0  0  0  0  0  0
   60.5170   31.6370   49.5930 C   0  0  0  0  0  0  0  0  0  0  0  0
   61.8340   31.9100   48.9830 C   0  0  0  0  0  0  0  0  0  0  0  0
   61.9380   31.8370   47.7270 O   0  0  0  0  0  0  0  0  0  0  0  0
   62.9830   32.2610   49.7850 N   0  0  0  0  0  0  0  0  0  0  0  0
   64.2620   32.5450   49.1190 C   0  0  0  0  0  0  0  0  0  0  0  0
   65.1620   33.3970   50.0160 C   0  0  0  0  0  0  0  0  0  0  0  0
   65.2770   32.8160   51.3010 O   0  0  0  0  0  0  0  0  0  0  0  0
   64.0140   32.8540   51.9480 C   0  0  0  0  0  0  0  0  0  0  0  0
   63.0040   31.9590   51.2260 C   0  0  0  0  0  0  0  0  0  0  0  0
   54.7700   26.7070   45.0430 H   0  0  0  0  0  0  0  0  0  0  0  0
   55.7789   28.3863   44.1354 H   0  0  0  0  0  0  0  0  0  0  0  0
   56.8974   30.3962   43.1862 H   0  0  0  0  0  0  0  0  0  0  0  0
   58.9517   31.3073   44.2620 H   0  0  0  0  0  0  0  0  0  0  0  0
   59.8593   30.2452   46.3204 H   0  0  0  0  0  0  0  0  0  0  0  0
   58.2990   27.4380   48.1200 H   0  0  0  0  0  0  0  0  0  0  0  0
   59.7950   27.5289   49.9679 H   0  0  0  0  0  0  0  0  0  0  0  0
   61.3650   27.0702   49.1872 H   0  0  0  0  0  0  0  0  0  0  0  0
   59.1073   34.6954   49.4589 H   0  0  0  0  0  0  0  0  0  0  0  0
   60.7003   34.1681   48.7995 H   0  0  0  0  0  0  0  0  0  0  0  0
   60.6029   35.1093   46.6131 H   0  0  0  0  0  0  0  0  0  0  0  0
   59.6032   35.0748   44.3282 H   0  0  0  0  0  0  0  0  0  0  0  0
   57.4778   33.8331   43.9117 H   0  0  0  0  0  0  0  0  0  0  0  0
   56.3666   32.5999   45.7756 H   0  0  0  0  0  0  0  0  0  0  0  0
   57.3657   32.6201   48.0613 H   0  0  0  0  0  0  0  0  0  0  0  0
   64.7707   31.5959   48.8945 H   0  0  0  0  0  0  0  0  0  0  0  0
   64.0614   33.0998   48.1906 H   0  0  0  0  0  0  0  0  0  0  0  0
   66.1610   33.4697   49.5613 H   0  0  0  0  0  0  0  0  0  0  0  0
   64.7167   34.3977   50.1176 H   0  0  0  0  0  0  0  0  0  0  0  0
   64.1294   32.5038   52.9843 H   0  0  0  0  0  0  0  0  0  0  0  0
   63.6415   33.8889   51.9317 H   0  0  0  0  0  0  0  0  0  0  0  0
   63.2858   30.9056   51.3708 H   0  0  0  0  0  0  0  0  0  0  0  0
   62.0031   32.1452   51.6425 H   0  0  0  0  0  0  0  0  0  0  0  0
  1  2  1  0
  2  3  2  0
  2  4  1  0
  4  5  2  0
  5  6  1  0
  6  7  2  0
  7  8  1  0
  8  9  2  0
  9 10  1  0
 10 11  1  0
 11 12  2  0
 11 13  1  0
 13 14  1  0
 14 15  1  0
 15 16  1  0
 16 17  1  0
 17 18  2  0
 17 19  1  0
 19 20  2  0
 20 21  1  0
 21 22  1  0
 22 23  2  0
 23 24  1  0
 24 25  2  0
 25 26  1  0
 26 27  2  0
 20 28  1  0
 28 29  1  0
 29 30  2  0
 29 31  1  0
 31 32  1  0
 32 33  1  0
 33 34  1  0
 34 35  1  0
 35 36  1  0
  9  4  1  0
 28 15  2  0
 36 31  1  0
 27 22  1  0
  1 37  1  0
  5 38  1  0
  6 39  1  0
  7 40  1  0
  8 41  1  0
 10 42  1  0
 13 43  1  0
 13 44  1  0
 21 45  1  0
 21 46  1  0
 23 47  1  0
 24 48  1  0
 25 49  1  0
 26 50  1  0
 27 51  1  0
 32 52  1  0
 32 53  1  0
 33 54  1  0
 33 55  1  0
 35 56  1  0
 35 57  1  0
 36 58  1  0
 36 59  1  0
M  CHG  2   1  -1  16  -1
M  END
>  <UniqueID>  (5) 
5

>  <SMILES>  (5) 
[NH-]C(=O)c1ccccc1NC(=O)CSc1[n-]c(=O)nc(Cc2ccccc2)c1C(=O)N1CCOCC1

>  <Energy>  (5) 
74.52437478178919

>  <Genealogy>  (5) 
[NH-]C(=O)c1ccccc1NC(=O)CSc1[n-]c(=O)nc(Cc2ccccc2)c1C(=O)N1CCOCC1 (protonated)
[NH-]C(=O)c1ccccc1NC(=O)CSc1[n-]c(=O)nc(Cc2ccccc2)c1C(=O)N1CCOCC1 (3D coordinates assigned)
[NH-]C(=O)c1ccccc1NC(=O)CSc1[n-]c(=O)nc(Cc2ccccc2)c1C(=O)N1CCOCC1 (nonaromatic ring conformer: 74.52437478178919 kcal/mol)

>  <smiles>  (5) 
NC(=O)c1ccccc1NC(=O)CSc1[nH]c(=O)nc(Cc2ccccc2)c1C(=O)N1CCOCC1

>  <score_type>  (5) 
oracle

>  <origin>  (5) 
adg

>  <m_score__min__energy>  (5) 
-14.5

>  <m_primary>  (5) 
energy

$$$$
5:0
     RDKit          3D

 50 52  0  0  0  0  0  0  0  0999 V2000
   60.7280   34.2650   47.5630 C   0  0  0  0  0  0  0  0  0  0  0  0
   59.6620   34.9660   47.1770 C   0  0  0  0  0  0  0  0  0  0  0  0
   58.8880   34.6240   45.9630 C   0  0  0  0  0  0  0  0  0  0  0  0
   59.2150   35.1260   44.8530 O   0  0  0  0  0  0  0  0  0  0  0  0
   57.8210   33.6650   45.9910 N   0  0  0  0  0  0  0  0  0  0  0  0
   57.9320   32.3670   45.9970 C   0  0  0  0  0  0  0  0  0  0  0  0
   58.8460   31.7630   46.8700 C   0  0  0  0  0  0  0  0  0  0  0  0
   58.9890   30.3750   46.8640 C   0  0  0  0  0  0  0  0  0  0  0  0
   58.2310   29.5980   45.9820 C   0  0  0  0  0  0  0  0  0  0  0  0
   58.4110   27.8470   45.9560 S   0  0  0  0  0  0  0  0  0  0  0  0
   58.5640   27.3110   47.3520 O   0  0  0  0  0  0  0  0  0  0  0  0
   59.6370   27.4960   45.1630 O   0  0  0  0  0  0  0  0  0  0  0  0
   57.0230   27.1160   45.2160 N   0  0  0  0  0  0  0  0  0  0  0  0
   56.6790   25.7200   45.3380 C   0  0  0  0  0  0  0  0  0  0  0  0
   57.6420   24.7090   45.1620 C   0  0  0  0  0  0  0  0  0  0  0  0
   57.2870   23.3640   45.2850 C   0  0  0  0  0  0  0  0  0  0  0  0
   55.9680   23.0090   45.5580 C   0  0  0  0  0  0  0  0  0  0  0  0
   54.9860   23.9930   45.7020 C   0  0  0  0  0  0  0  0  0  0  0  0
   53.6360   23.5750   45.9350 N   0  0  0  0  0  0  0  0  0  0  0  0
   53.1480   21.9590   46.3420 S   0  0  0  0  0  0  0  0  0  0  0  0
   54.1680   20.9630   45.8720 O   0  0  0  0  0  0  0  0  0  0  0  0
   51.8520   21.6740   45.6370 O   0  0  0  0  0  0  0  0  0  0  0  0
   52.8530   21.7840   48.1000 C   0  0  0  0  0  0  0  0  0  0  0  0
   54.1320   21.6280   48.8770 C   0  0  0  0  0  0  0  0  0  0  0  0
   54.2420   20.6430   49.8730 C   0  0  0  0  0  0  0  0  0  0  0  0
   55.4380   20.4880   50.5820 C   0  0  0  0  0  0  0  0  0  0  0  0
   56.5260   21.3200   50.3100 C   0  0  0  0  0  0  0  0  0  0  0  0
   56.4220   22.3110   49.3300 C   0  0  0  0  0  0  0  0  0  0  0  0
   55.2300   22.4670   48.6160 C   0  0  0  0  0  0  0  0  0  0  0  0
   55.3500   25.3530   45.6350 C   0  0  0  0  0  0  0  0  0  0  0  0
   54.4040   26.3400   45.8820 O   0  0  0  0  0  0  0  0  0  0  0  0
   57.3340   30.2360   45.1190 C   0  0  0  0  0  0  0  0  0  0  0  0
   57.2100   31.5880   45.1420 N   0  0  0  0  0  0  0  0  0  0  0  0
   61.2757   34.5529   48.4724 H   0  0  0  0  0  0  0  0  0  0  0  0
   61.0600   33.3986   46.9721 H   0  0  0  0  0  0  0  0  0  0  0  0
   59.3466   35.8289   47.7820 H   0  0  0  0  0  0  0  0  0  0  0  0
   59.4468   32.3787   47.5555 H   0  0  0  0  0  0  0  0  0  0  0  0
   59.6977   29.8920   47.5528 H   0  0  0  0  0  0  0  0  0  0  0  0
   56.4340   27.7410   44.6220 H   0  0  0  0  0  0  0  0  0  0  0  0
   58.6816   24.9801   44.9259 H   0  0  0  0  0  0  0  0  0  0  0  0
   58.0516   22.5822   45.1659 H   0  0  0  0  0  0  0  0  0  0  0  0
   55.6976   21.9477   45.6609 H   0  0  0  0  0  0  0  0  0  0  0  0
   52.3254   22.6789   48.4617 H   0  0  0  0  0  0  0  0  0  0  0  0
   52.2513   20.8760   48.2532 H   0  0  0  0  0  0  0  0  0  0  0  0
   53.3844   19.9913   50.0961 H   0  0  0  0  0  0  0  0  0  0  0  0
   55.5215   19.7097   51.3548 H   0  0  0  0  0  0  0  0  0  0  0  0
   57.4659   21.1953   50.8677 H   0  0  0  0  0  0  0  0  0  0  0  0
   57.2784   22.9687   49.1203 H   0  0  0  0  0  0  0  0  0  0  0  0
   55.1507   23.2494   47.8468 H   0  0  0  0  0  0  0  0  0  0  0  0
   56.7276   29.6411   44.4201 H   0  0  0  0  0  0  0  0  0  0  0  0
  1  2  2  0
  2  3  1  0
  3  4  2  0
  3  5  1  0
  5  6  2  3
  6  7  1  0
  7  8  2  0
  8  9  1  0
  9 10  1  0
 10 11  2  0
 10 12  2  0
 10 13  1  0
 13 14  1  0
 14 15  2  0
 15 16  1  0
 16 17  2  0
 17 18  1  0
 18 19  1  0
 19 20  1  0
 20 21  2  0
 20 22  2  0
 20 23  1  0
 23 24  1  0
 24 25  2  0
 25 26  1  0
 26 27  2  0
 27 28  1  0
 28 29  2  0
 18 30  2  0
 30 31  1  0
  9 32  2  0
 32 33  1  0
 33  6  1  0
 30 14  1  0
 29 24  1  0
  1 34  1  0
  1 35  1  0
  2 36  1  0
  7 37  1  0
  8 38  1  0
 13 39  1  0
 15 40  1  0
 16 41  1  0
 17 42  1  0
 23 43  1  0
 23 44  1  0
 25 45  1  0
 26 46  1  0
 27 47  1  0
 28 48  1  0
 29 49  1  0
 32 50  1  0
M  CHG  3  19  -1  31  -1  33  -1
M  END
>  <UniqueID>  (6) 
6

>  <SMILES>  (6) 
C=CC(=O)N=c1ccc(S(=O)(=O)Nc2cccc([N-]S(=O)(=O)Cc3ccccc3)c2[O-])c[n-]1

>  <Energy>  (6) 
60.968197279834754

>  <Genealogy>  (6) 
C=CC(=O)N=c1ccc(S(=O)(=O)Nc2cccc([N-]S(=O)(=O)Cc3ccccc3)c2[O-])c[n-]1 (protonated)
C=CC(=O)N=c1ccc(S(=O)(=O)Nc2cccc([N-]S(=O)(=O)Cc3ccccc3)c2[O-])c[n-]1 (3D coordinates assigned)
C=CC(=O)N=c1ccc(S(=O)(=O)Nc2cccc([N-]S(=O)(=O)Cc3ccccc3)c2[O-])c[n-]1 (optimized conformer: 60.968197279834754 kcal/mol)

>  <smiles>  (6) 
C=CC(=O)N=c1ccc(S(=O)(=O)Nc2cccc(NS(=O)(=O)Cc3ccccc3)c2O)c[nH]1

>  <score_type>  (6) 
oracle

>  <origin>  (6) 
adg

>  <m_score__min__energy>  (6) 
-15.800000000000001

>  <m_primary>  (6) 
energy

$$$$
6:0
     RDKit          3D

 61 63  0  0  0  0  0  0  0  0999 V2000
   57.4090   28.1300   43.0120 N   0  0  0  0  0  0  0  0  0  0  0  0
   57.3830   28.3080   44.4670 C   0  0  2  0  0  0  0  0  0  0  0  0
   56.3440   29.3470   44.8280 C   0  0  0  0  0  0  0  0  0  0  0  0
   56.5130   30.6220   44.6370 N   0  0  0  0  0  0  0  0  0  0  0  0
   56.9210   31.2290   43.4060 C   0  0  0  0  0  0  0  0  0  0  0  0
   56.9620   30.5300   42.3570 O   0  0  0  0  0  0  0  0  0  0  0  0
   57.4270   32.6410   43.3800 C   0  0  0  0  0  0  0  0  0  0  0  0
   57.9580   33.0290   44.7330 C   0  0  0  0  0  0  0  0  0  0  0  0
   59.2900   33.4450   44.8720 C   0  0  0  0  0  0  0  0  0  0  0  0
   59.7850   33.8250   46.1230 C   0  0  0  0  0  0  0  0  0  0  0  0
   58.9620   33.7830   47.2570 C   0  0  0  0  0  0  0  0  0  0  0  0
   59.4930   34.2090   48.5240 N   0  0  0  0  0  0  0  0  0  0  0  0
   59.2700   33.5320   49.7690 C   0  0  0  0  0  0  0  0  0  0  0  0
   58.8120   32.3590   49.7870 O   0  0  0  0  0  0  0  0  0  0  0  0
   59.6630   34.1750   50.9860 N   0  0  0  0  0  0  0  0  0  0  0  0
   59.4570   33.6770   52.3180 C   0  0  0  0  0  0  0  0  0  0  0  0
   59.7930   32.3450   52.5990 C   0  0  0  0  0  0  0  0  0  0  0  0
   59.6780   31.8450   53.8990 C   0  0  0  0  0  0  0  0  0  0  0  0
   59.2340   32.6780   54.9300 C   0  0  0  0  0  0  0  0  0  0  0  0
   58.9010   34.0080   54.6620 C   0  0  0  0  0  0  0  0  0  0  0  0
   59.0180   34.5120   53.3640 C   0  0  0  0  0  0  0  0  0  0  0  0
   57.6150   33.3980   47.1110 C   0  0  0  0  0  0  0  0  0  0  0  0
   57.1190   33.0240   45.8600 C   0  0  0  0  0  0  0  0  0  0  0  0
   58.7320   28.7040   45.0410 C   0  0  0  0  0  0  0  0  0  0  0  0
   59.7680   28.1760   44.5480 O   0  0  0  0  0  0  0  0  0  0  0  0
   58.8640   29.6540   46.1130 N   0  0  0  0  0  0  0  0  0  0  0  0
   59.9550   29.6250   47.0430 C   0  0  0  0  0  0  0  0  0  0  0  0
   60.7630   28.6570   47.0450 O   0  0  0  0  0  0  0  0  0  0  0  0
   60.1080   30.6890   47.9930 N   0  0  0  0  0  0  0  0  0  0  0  0
   61.0190   30.5960   49.1310 C   0  0  0  0  0  0  0  0  0  0  0  0
   62.1520   31.5700   48.9630 C   0  0  0  0  0  0  0  0  0  0  0  0
   62.8470   32.0620   50.0810 C   0  0  0  0  0  0  0  0  0  0  0  0
   63.8680   33.0050   49.9200 C   0  0  0  0  0  0  0  0  0  0  0  0
   64.2020   33.4630   48.6420 C   0  0  0  0  0  0  0  0  0  0  0  0
   63.5100   32.9860   47.5250 C   0  0  0  0  0  0  0  0  0  0  0  0
   62.4850   32.0460   47.6830 C   0  0  0  0  0  0  0  0  0  0  0  0
   56.4880   28.4070   42.6000 H   0  0  0  0  0  0  0  0  0  0  0  0
   58.1600   28.7340   42.6080 H   0  0  0  0  0  0  0  0  0  0  0  0
   57.1245   27.3348   44.9098 H   0  0  0  0  0  0  0  0  0  0  0  0
   55.3981   29.0066   45.2745 H   0  0  0  0  0  0  0  0  0  0  0  0
   58.2330   32.7242   42.6361 H   0  0  0  0  0  0  0  0  0  0  0  0
   56.5984   33.3137   43.1138 H   0  0  0  0  0  0  0  0  0  0  0  0
   59.9491   33.4725   43.9917 H   0  0  0  0  0  0  0  0  0  0  0  0
   60.8285   34.1596   46.2182 H   0  0  0  0  0  0  0  0  0  0  0  0
   60.1230   35.0410   48.5390 H   0  0  0  0  0  0  0  0  0  0  0  0
   60.1494   31.6893   51.7909 H   0  0  0  0  0  0  0  0  0  0  0  0
   59.9366   30.7970   54.1107 H   0  0  0  0  0  0  0  0  0  0  0  0
   59.1467   32.2857   55.9539 H   0  0  0  0  0  0  0  0  0  0  0  0
   58.5461   34.6595   55.4741 H   0  0  0  0  0  0  0  0  0  0  0  0
   58.7668   35.5630   53.1586 H   0  0  0  0  0  0  0  0  0  0  0  0
   56.9499   33.3918   47.9871 H   0  0  0  0  0  0  0  0  0  0  0  0
   56.0658   32.7239   45.7566 H   0  0  0  0  0  0  0  0  0  0  0  0
   58.1410   30.3950   46.2430 H   0  0  0  0  0  0  0  0  0  0  0  0
   59.5070   31.5380   47.8990 H   0  0  0  0  0  0  0  0  0  0  0  0
   60.4716   30.8299   50.0560 H   0  0  0  0  0  0  0  0  0  0  0  0
   61.4252   29.5752   49.1861 H   0  0  0  0  0  0  0  0  0  0  0  0
   62.5869   31.7038   51.0880 H   0  0  0  0  0  0  0  0  0  0  0  0
   64.4081   33.3861   50.7992 H   0  0  0  0  0  0  0  0  0  0  0  0
   65.0096   34.1990   48.5154 H   0  0  0  0  0  0  0  0  0  0  0  0
   63.7714   33.3499   46.5204 H   0  0  0  0  0  0  0  0  0  0  0  0
   61.9380   31.6784   46.8022 H   0  0  0  0  0  0  0  0  0  0  0  0
  1  2  1  0
  2  3  1  0
  3  4  2  3
  4  5  1  0
  5  6  2  0
  5  7  1  0
  7  8  1  0
  8  9  2  0
  9 10  1  0
 10 11  2  0
 11 12  1  0
 12 13  1  0
 13 14  2  0
 13 15  1  0
 15 16  1  0
 16 17  2  0
 17 18  1  0
 18 19  2  0
 19 20  1  0
 20 21  2  0
 11 22  1  0
 22 23  2  0
  2 24  1  0
 24 25  2  0
 24 26  1  0
 26 27  1  0
 27 28  2  0
 27 29  1  0
 29 30  1  0
 30 31  1  0
 31 32  2  0
 32 33  1  0
 33 34  2  0
 34 35  1  0
 35 36  2  0
 23  8  1  0
 36 31  1  0
 21 16  1  0
  1 37  1  0
  1 38  1  0
  2 39  1  1
  3 40  1  0
  7 41  1  0
  7 42  1  0
  9 43  1  0
 10 44  1  0
 12 45  1  0
 17 46  1  0
 18 47  1  0
 19 48  1  0
 20 49  1  0
 21 50  1  0
 22 51  1  0
 23 52  1  0
 26 53  1  0
 29 54  1  0
 30 55  1  0
 30 56  1  0
 32 57  1  0
 33 58  1  0
 34 59  1  0
 35 60  1  0
 36 61  1  0
M  CHG  1  15  -1
M  END
>  <UniqueID>  (7) 
7

>  <SMILES>  (7) 
N[C@H](C=NC(=O)Cc1ccc(NC(=O)[N-]c2ccccc2)cc1)C(=O)NC(=O)NCc1ccccc1

>  <Energy>  (7) 
76.1422574255599

>  <Genealogy>  (7) 
NC(C=NC(=O)Cc1ccc(NC(=O)[N-]c2ccccc2)cc1)C(=O)NC(=O)NCc1ccccc1 (protonated)
N[C@H](C=NC(=O)Cc1ccc(NC(=O)[N-]c2ccccc2)cc1)C(=O)NC(=O)NCc1ccccc1 (chirality)
N[C@H](C=NC(=O)Cc1ccc(NC(=O)[N-]c2ccccc2)cc1)C(=O)NC(=O)NCc1ccccc1 (3D coordinates assigned)
N[C@H](C=NC(=O)Cc1ccc(NC(=O)[N-]c2ccccc2)cc1)C(=O)NC(=O)NCc1ccccc1 (optimized conformer: 76.1422574255599 kcal/mol)

>  <smiles>  (7) 
NC(C=NC(=O)Cc1ccc(NC(=O)Nc2ccccc2)cc1)C(=O)NC(=O)NCc1ccccc1

>  <score_type>  (7) 
oracle

>  <origin>  (7) 
adg

>  <m_score__min__energy>  (7) 
-11.289999999999999

>  <m_primary>  (7) 
energy

$$$$
7:0
     RDKit          3D

 53 56  0  0  0  0  0  0  0  0999 V2000
   54.4460   30.8150   51.0250 O   0  0  0  0  0  0  0  0  0  0  0  0
   53.9290   30.4760   52.1310 C   0  0  0  0  0  0  0  0  0  0  0  0
   52.4300   30.4050   52.2490 C   0  0  0  0  0  0  0  0  0  0  0  0
   51.7920   30.8410   50.9630 C   0  0  0  0  0  0  0  0  0  0  0  0
   51.6970   30.0690   49.8650 N   0  0  0  0  0  0  0  0  0  0  0  0
   51.0130   30.8470   48.9940 C   0  0  0  0  0  0  0  0  0  0  0  0
   50.7330   30.4720   47.8230 O   0  0  0  0  0  0  0  0  0  0  0  0
   50.6580   32.0580   49.4740 N   0  0  0  0  0  0  0  0  0  0  0  0
   51.1530   32.0350   50.7230 C   0  0  0  0  0  0  0  0  0  0  0  0
   51.0190   33.0820   51.6270 O   0  0  0  0  0  0  0  0  0  0  0  0
   54.7900   30.0720   53.2060 N   0  0  0  0  0  0  0  0  0  0  0  0
   56.0320   30.7550   53.5760 C   0  0  0  0  0  0  0  0  0  0  0  0
   56.9670   30.8840   52.4050 C   0  0  0  0  0  0  0  0  0  0  0  0
   57.7200   29.7800   51.9710 C   0  0  0  0  0  0  0  0  0  0  0  0
   58.5410   29.8820   50.8450 C   0  0  0  0  0  0  0  0  0  0  0  0
   58.6090   31.0850   50.1260 C   0  0  0  0  0  0  0  0  0  0  0  0
   59.4500   31.1780   48.9130 C   0  0  0  0  0  0  0  0  0  0  0  0
   60.7030   31.0960   49.0200 O   0  0  0  0  0  0  0  0  0  0  0  0
   58.8840   31.3930   47.6150 N   0  0  0  0  0  0  0  0  0  0  0  0
   59.0350   32.5790   46.8170 C   0  0  0  0  0  0  0  0  0  0  0  0
   59.5120   33.7780   47.3820 C   0  0  0  0  0  0  0  0  0  0  0  0
   59.5960   34.9380   46.6110 C   0  0  0  0  0  0  0  0  0  0  0  0
   59.2030   34.9180   45.2720 C   0  0  0  0  0  0  0  0  0  0  0  0
   58.7110   33.7400   44.7050 C   0  0  0  0  0  0  0  0  0  0  0  0
   58.6170   32.5670   45.4720 C   0  0  0  0  0  0  0  0  0  0  0  0
   58.0980   31.3630   44.8830 N   0  0  0  0  0  0  0  0  0  0  0  0
   57.0380   31.4400   43.8750 C   0  0  0  0  0  0  0  0  0  0  0  0
   56.2160   30.1500   43.9090 C   0  0  0  0  0  0  0  0  0  0  0  0
   57.0550   29.0180   43.7780 O   0  0  0  0  0  0  0  0  0  0  0  0
   57.9110   28.9190   44.9020 C   0  0  0  0  0  0  0  0  0  0  0  0
   58.8650   30.1170   44.9760 C   0  0  0  0  0  0  0  0  0  0  0  0
   57.8900   32.2020   50.5870 C   0  0  0  0  0  0  0  0  0  0  0  0
   57.0840   32.1060   51.7250 C   0  0  0  0  0  0  0  0  0  0  0  0
   52.1309   29.3701   52.4713 H   0  0  0  0  0  0  0  0  0  0  0  0
   52.1000   31.0715   53.0595 H   0  0  0  0  0  0  0  0  0  0  0  0
   55.7881   31.7604   53.9497 H   0  0  0  0  0  0  0  0  0  0  0  0
   56.5340   30.1571   54.3509 H   0  0  0  0  0  0  0  0  0  0  0  0
   57.6628   28.8292   52.5212 H   0  0  0  0  0  0  0  0  0  0  0  0
   59.1364   29.0157   50.5209 H   0  0  0  0  0  0  0  0  0  0  0  0
   59.8202   33.8000   48.4377 H   0  0  0  0  0  0  0  0  0  0  0  0
   59.9724   35.8694   47.0591 H   0  0  0  0  0  0  0  0  0  0  0  0
   59.2807   35.8305   44.6627 H   0  0  0  0  0  0  0  0  0  0  0  0
   58.3952   33.7309   43.6513 H   0  0  0  0  0  0  0  0  0  0  0  0
   56.3850   32.2981   44.0927 H   0  0  0  0  0  0  0  0  0  0  0  0
   57.4850   31.5670   42.8780 H   0  0  0  0  0  0  0  0  0  0  0  0
   55.6766   30.0908   44.8659 H   0  0  0  0  0  0  0  0  0  0  0  0
   55.5049   30.1619   43.0698 H   0  0  0  0  0  0  0  0  0  0  0  0
   57.3008   28.8885   45.8168 H   0  0  0  0  0  0  0  0  0  0  0  0
   58.5094   28.0010   44.8059 H   0  0  0  0  0  0  0  0  0  0  0  0
   59.4096   30.0928   45.9314 H   0  0  0  0  0  0  0  0  0  0  0  0
   59.5811   30.0658   44.1426 H   0  0  0  0  0  0  0  0  0  0  0  0
   57.9623   33.1583   50.0482 H   0  0  0  0  0  0  0  0  0  0  0  0
   56.5401   32.9904   52.0884 H   0  0  0  0  0  0  0  0  0  0  0  0
  1  2  2  0
  2  3  1  0
  3  4  1  0
  4  5  1  0
  5  6  1  0
  6  7  2  0
  6  8  1  0
  8  9  1  0
  9 10  1  0
  2 11  1  0
 11 12  1  0
 12 13  1  0
 13 14  2  0
 14 15  1  0
 15 16  2  0
 16 17  1  0
 17 18  2  0
 17 19  1  0
 19 20  1  0
 20 21  2  0
 21 22  1  0
 22 23  2  0
 23 24  1  0
 24 25  2  0
 25 26  1  0
 26 27  1  0
 27 28  1  0
 28 29  1  0
 29 30  1  0
 30 31  1  0
 16 32  1  0
 32 33  2  0
  9  4  2  0
 33 13  1  0
 25 20  1  0
 31 26  1  0
  3 34  1  0
  3 35  1  0
 12 36  1  0
 12 37  1  0
 14 38  1  0
 15 39  1  0
 21 40  1  0
 22 41  1  0
 23 42  1  0
 24 43  1  0
 27 44  1  0
 27 45  1  0
 28 46  1  0
 28 47  1  0
 30 48  1  0
 30 49  1  0
 31 50  1  0
 31 51  1  0
 32 52  1  0
 33 53  1  0
M  CHG  5   5  -1   8  -1  10  -1  11  -1  19  -1
M  END
>  <UniqueID>  (8) 
8

>  <SMILES>  (8) 
O=C(Cc1[n-]c(=O)[n-]c1[O-])[N-]Cc1ccc(C(=O)[N-]c2ccccc2N2CCOCC2)cc1

>  <Energy>  (8) 
98.4931261851377

>  <Genealogy>  (8) 
O=C(Cc1[n-]c(=O)[n-]c1[O-])[N-]Cc1ccc(C(=O)[N-]c2ccccc2N2CCOCC2)cc1 (protonated)
O=C(Cc1[n-]c(=O)[n-]c1[O-])[N-]Cc1ccc(C(=O)[N-]c2ccccc2N2CCOCC2)cc1 (3D coordinates assigned)
O=C(Cc1[n-]c(=O)[n-]c1[O-])[N-]Cc1ccc(C(=O)[N-]c2ccccc2N2CCOCC2)cc1 (nonaromatic ring conformer: 98.4931261851377 kcal/mol)

>  <smiles>  (8) 
O=C(Cc1[nH]c(=O)[nH]c1O)NCc1ccc(C(=O)Nc2ccccc2N2CCOCC2)cc1

>  <score_type>  (8) 
oracle

>  <origin>  (8) 
adg

>  <m_score__min__energy>  (8) 
-20.280000000000001

>  <m_primary>  (8) 
energy

$$$$
8:0
     RDKit          3D

 38 40  0  0  0  0  0  0  0  0999 V2000
   55.1450   29.3550   45.2440 O   0  0  0  0  0  0  0  0  0  0  0  0
   56.3070   29.2610   44.7670 C   0  0  0  0  0  0  0  0  0  0  0  0
   56.9950   28.0080   44.8730 N   0  0  0  0  0  0  0  0  0  0  0  0
   57.9370   27.6450   45.8950 C   0  0  0  0  0  0  0  0  0  0  0  0
   58.7760   28.6110   46.4820 C   0  0  0  0  0  0  0  0  0  0  0  0
   59.6710   28.2490   47.4900 C   0  0  0  0  0  0  0  0  0  0  0  0
   59.7470   26.9220   47.9170 C   0  0  0  0  0  0  0  0  0  0  0  0
   58.9350   25.9520   47.3270 C   0  0  0  0  0  0  0  0  0  0  0  0
   58.0370   26.3000   46.3060 C   0  0  0  0  0  0  0  0  0  0  0  0
   57.2120   25.2790   45.7200 N   0  0  0  0  0  0  0  0  0  0  0  0
   55.9640   24.8620   46.3620 C   0  0  0  0  0  0  0  0  0  0  0  0
   54.9470   24.4710   45.2850 C   0  0  0  0  0  0  0  0  0  0  0  0
   55.5010   23.5200   44.3950 O   0  0  0  0  0  0  0  0  0  0  0  0
   56.5730   24.1010   43.6740 C   0  0  0  0  0  0  0  0  0  0  0  0
   57.7250   24.4700   44.6140 C   0  0  0  0  0  0  0  0  0  0  0  0
   56.9410   30.4540   44.1600 C   0  0  0  0  0  0  0  0  0  0  0  0
   56.8750   30.6750   42.7690 C   0  0  0  0  0  0  0  0  0  0  0  0
   56.2690   29.7800   41.9490 F   0  0  0  0  0  0  0  0  0  0  0  0
   57.4710   31.8100   42.2080 C   0  0  0  0  0  0  0  0  0  0  0  0
   58.1410   32.7250   43.0210 C   0  0  0  0  0  0  0  0  0  0  0  0
   58.2260   32.5080   44.3970 C   0  0  0  0  0  0  0  0  0  0  0  0
   57.6340   31.3760   44.9680 C   0  0  0  0  0  0  0  0  0  0  0  0
   57.7140   31.1990   46.3110 F   0  0  0  0  0  0  0  0  0  0  0  0
   58.7260   29.6567   46.1445 H   0  0  0  0  0  0  0  0  0  0  0  0
   60.3180   29.0110   47.9490 H   0  0  0  0  0  0  0  0  0  0  0  0
   60.4465   26.6410   48.7181 H   0  0  0  0  0  0  0  0  0  0  0  0
   58.9994   24.9071   47.6647 H   0  0  0  0  0  0  0  0  0  0  0  0
   56.1575   23.9986   47.0155 H   0  0  0  0  0  0  0  0  0  0  0  0
   55.5636   25.6916   46.9632 H   0  0  0  0  0  0  0  0  0  0  0  0
   54.0581   24.0387   45.7677 H   0  0  0  0  0  0  0  0  0  0  0  0
   54.6723   25.3707   44.7149 H   0  0  0  0  0  0  0  0  0  0  0  0
   56.9353   23.3817   42.9248 H   0  0  0  0  0  0  0  0  0  0  0  0
   56.2119   25.0167   43.1829 H   0  0  0  0  0  0  0  0  0  0  0  0
   58.1817   23.5519   45.0123 H   0  0  0  0  0  0  0  0  0  0  0  0
   58.4812   25.0448   44.0592 H   0  0  0  0  0  0  0  0  0  0  0  0
   57.4112   31.9814   41.1231 H   0  0  0  0  0  0  0  0  0  0  0  0
   58.6030   33.6189   42.5766 H   0  0  0  0  0  0  0  0  0  0  0  0
   58.7597   33.2286   45.0342 H   0  0  0  0  0  0  0  0  0  0  0  0
  1  2  2  0
  2  3  1  0
  3  4  1  0
  4  5  2  0
  5  6  1  0
  6  7  2  0
  7  8  1  0
  8  9  2  0
  9 10  1  0
 10 11  1  0
 11 12  1  0
 12 13  1  0
 13 14  1  0
 14 15  1  0
  2 16  1  0
 16 17  2  0
 17 18  1  0
 17 19  1  0
 19 20  2  0
 20 21  1  0
 21 22  2  0
 22 23  1  0
  9  4  1  0
 15 10  1  0
 22 16  1  0
  5 24  1  0
  6 25  1  0
  7 26  1  0
  8 27  1  0
 11 28  1  0
 11 29  1  0
 12 30  1  0
 12 31  1  0
 14 32  1  0
 14 33  1  0
 15 34  1  0
 15 35  1  0
 19 36  1  0
 20 37  1  0
 21 38  1  0
M  CHG  1   3  -1
M  END
>  <UniqueID>  (9) 
9

>  <SMILES>  (9) 
O=C([N-]c1ccccc1N1CCOCC1)c1c(F)cccc1F

>  <Energy>  (9) 
54.72153575040706

>  <Genealogy>  (9) 
O=C([N-]c1ccccc1N1CCOCC1)c1c(F)cccc1F (protonated)
O=C([N-]c1ccccc1N1CCOCC1)c1c(F)cccc1F (3D coordinates assigned)
O=C([N-]c1ccccc1N1CCOCC1)c1c(F)cccc1F (nonaromatic ring conformer: 54.72153575040706 kcal/mol)

>  <smiles>  (9) 
O=C(Nc1ccccc1N1CCOCC1)c1c(F)cccc1F

>  <score_type>  (9) 
oracle

>  <origin>  (9) 
adg

>  <m_score__min__energy>  (9) 
-8.5899999999999999

>  <m_primary>  (9) 
energy

$$$$
9:0
     RDKit          3D

 48 50  0  0  0  0  0  0  0  0999 V2000
   63.9300   34.4930   51.3690 C   0  0  0  0  0  0  0  0  0  0  0  0
   63.5970   33.7310   50.1700 N   0  0  0  0  0  0  0  0  0  0  0  0
   62.5160   33.9730   49.4460 N   0  0  0  0  0  0  0  0  0  0  0  0
   62.5080   33.0990   48.4220 C   0  0  0  0  0  0  0  0  0  0  0  0
   61.5280   33.1180   47.3270 C   0  0  0  0  0  0  0  0  0  0  0  0
   61.4040   32.0980   46.5980 O   0  0  0  0  0  0  0  0  0  0  0  0
   60.7500   34.2850   47.0260 N   0  0  0  0  0  0  0  0  0  0  0  0
   59.2880   34.3420   46.9600 C   0  0  0  0  0  0  0  0  0  0  0  0
   58.7270   33.1250   46.2650 C   0  0  0  0  0  0  0  0  0  0  0  0
   58.6240   31.9000   46.9460 C   0  0  0  0  0  0  0  0  0  0  0  0
   58.0300   30.7960   46.3290 C   0  0  0  0  0  0  0  0  0  0  0  0
   57.5510   30.8960   45.0150 C   0  0  0  0  0  0  0  0  0  0  0  0
   56.7640   29.5260   44.2390 S   0  0  0  0  0  0  0  0  0  0  0  0
   55.1540   29.3680   44.8440 N   0  0  0  0  0  0  0  0  0  0  0  0
   56.7280   29.7460   42.7530 O   0  0  0  0  0  0  0  0  0  0  0  0
   57.5210   28.2600   44.5240 O   0  0  0  0  0  0  0  0  0  0  0  0
   57.6840   32.1050   44.3210 C   0  0  0  0  0  0  0  0  0  0  0  0
   58.2730   33.2130   44.9380 C   0  0  0  0  0  0  0  0  0  0  0  0
   63.6090   32.2670   48.4990 C   0  0  0  0  0  0  0  0  0  0  0  0
   64.2990   32.7210   49.6050 C   0  0  0  0  0  0  0  0  0  0  0  0
   65.6180   32.2220   50.0330 C   0  0  0  0  0  0  0  0  0  0  0  0
   66.6400   32.9260   49.8120 O   0  0  0  0  0  0  0  0  0  0  0  0
   65.7380   30.9830   50.7500 N   0  0  0  0  0  0  0  0  0  0  0  0
   67.0250   30.4480   51.1900 C   0  0  0  0  0  0  0  0  0  0  0  0
   67.0070   28.9510   51.1140 C   0  0  0  0  0  0  0  0  0  0  0  0
   68.0700   28.2490   50.5260 C   0  0  0  0  0  0  0  0  0  0  0  0
   68.0380   26.8540   50.5030 C   0  0  0  0  0  0  0  0  0  0  0  0
   66.9590   26.1730   51.0700 C   0  0  0  0  0  0  0  0  0  0  0  0
   65.9270   26.9030   51.6620 C   0  0  0  0  0  0  0  0  0  0  0  0
   65.9750   28.2620   51.6750 N   0  0  0  0  0  0  0  0  0  0  0  0
   63.6724   33.9036   52.2613 H   0  0  0  0  0  0  0  0  0  0  0  0
   65.0073   34.7153   51.3748 H   0  0  0  0  0  0  0  0  0  0  0  0
   63.3613   35.4346   51.3748 H   0  0  0  0  0  0  0  0  0  0  0  0
   58.8839   34.3901   47.9820 H   0  0  0  0  0  0  0  0  0  0  0  0
   58.9989   35.2355   46.3872 H   0  0  0  0  0  0  0  0  0  0  0  0
   59.0133   31.8098   47.9708 H   0  0  0  0  0  0  0  0  0  0  0  0
   57.9379   29.8459   46.8756 H   0  0  0  0  0  0  0  0  0  0  0  0
   55.1890   28.6870   45.6360 H   0  0  0  0  0  0  0  0  0  0  0  0
   57.3232   32.1835   43.2848 H   0  0  0  0  0  0  0  0  0  0  0  0
   58.3813   34.1565   44.3829 H   0  0  0  0  0  0  0  0  0  0  0  0
   63.8746   31.4338   47.8317 H   0  0  0  0  0  0  0  0  0  0  0  0
   64.8760   30.5380   51.1370 H   0  0  0  0  0  0  0  0  0  0  0  0
   67.8231   30.8368   50.5405 H   0  0  0  0  0  0  0  0  0  0  0  0
   67.2093   30.7561   52.2298 H   0  0  0  0  0  0  0  0  0  0  0  0
   68.9199   28.7926   50.0876 H   0  0  0  0  0  0  0  0  0  0  0  0
   68.8617   26.2918   50.0388 H   0  0  0  0  0  0  0  0  0  0  0  0
   66.9226   25.0738   51.0504 H   0  0  0  0  0  0  0  0  0  0  0  0
   65.0744   26.3787   52.1183 H   0  0  0  0  0  0  0  0  0  0  0  0
  1  2  1  0
  2  3  1  0
  3  4  2  0
  4  5  1  0
  5  6  2  0
  5  7  1  0
  7  8  1  0
  8  9  1  0
  9 10  2  0
 10 11  1  0
 11 12  2  0
 12 13  1  0
 13 14  1  0
 13 15  2  0
 13 16  2  0
 12 17  1  0
 17 18  2  0
  4 19  1  0
 19 20  2  0
 20 21  1  0
 21 22  2  0
 21 23  1  0
 23 24  1  0
 24 25  1  0
 25 26  2  0
 26 27  1  0
 27 28  2  0
 28 29  1  0
 29 30  2  0
 20  2  1  0
 30 25  1  0
 18  9  1  0
  1 31  1  0
  1 32  1  0
  1 33  1  0
  8 34  1  0
  8 35  1  0
 10 36  1  0
 11 37  1  0
 14 38  1  0
 17 39  1  0
 18 40  1  0
 19 41  1  0
 23 42  1  0
 24 43  1  0
 24 44  1  0
 26 45  1  0
 27 46  1  0
 28 47  1  0
 29 48  1  0
M  CHG  2   7  -1  14  -1
M  END
>  <UniqueID>  (10) 
10

>  <SMILES>  (10) 
Cn1nc(C(=O)[N-]Cc2ccc(S([NH-])(=O)=O)cc2)cc1C(=O)NCc1ccccn1

>  <Energy>  (10) 
78.42694941056554

>  <Genealogy>  (10) 
Cn1nc(C(=O)[N-]Cc2ccc(S([NH-])(=O)=O)cc2)cc1C(=O)NCc1ccccn1 (protonated)
Cn1nc(C(=O)[N-]Cc2ccc(S([NH-])(=O)=O)cc2)cc1C(=O)NCc1ccccn1 (3D coordinates assigned)
Cn1nc(C(=O)[N-]Cc2ccc(S([NH-])(=O)=O)cc2)cc1C(=O)NCc1ccccn1 (optimized conformer: 78.42694941056554 kcal/mol)

>  <smiles>  (10) 
Cn1nc(C(=O)NCc2ccc(S(N)(=O)=O)cc2)cc1C(=O)NCc1ccccn1

>  <score_type>  (10) 
oracle

>  <origin>  (10) 
adg

>  <m_score__min__energy>  (10) 
-11.94

>  <m_primary>  (10) 
energy

$$$$
10:0
     RDKit          3D

 51 52  0  0  0  0  0  0  0  0999 V2000
   65.1600   32.7060   50.9750 C   0  0  0  0  0  0  0  0  0  0  0  0
   64.1550   33.1120   49.9450 C   0  0  0  0  0  0  0  0  0  0  0  0
   64.4840   33.0870   48.5840 C   0  0  0  0  0  0  0  0  0  0  0  0
   63.5130   33.4590   47.6520 C   0  0  0  0  0  0  0  0  0  0  0  0
   63.7780   33.4480   46.4210 O   0  0  0  0  0  0  0  0  0  0  0  0
   62.2470   33.8410   48.0950 C   0  0  0  0  0  0  0  0  0  0  0  0
   61.9840   33.8410   49.4680 C   0  0  0  0  0  0  0  0  0  0  0  0
   60.7130   34.2030   49.9260 O   0  0  0  0  0  0  0  0  0  0  0  0
   59.6500   34.5610   49.0450 C   0  0  0  0  0  0  0  0  0  0  0  0
   59.2660   33.3840   48.1700 C   0  0  0  0  0  0  0  0  0  0  0  0
   59.3120   32.1050   48.7490 C   0  0  0  0  0  0  0  0  0  0  0  0
   58.8870   30.9870   48.0390 C   0  0  0  0  0  0  0  0  0  0  0  0
   58.3720   31.1280   46.7540 C   0  0  0  0  0  0  0  0  0  0  0  0
   58.3060   32.3900   46.1430 C   0  0  0  0  0  0  0  0  0  0  0  0
   57.6510   32.4800   44.8190 C   0  0  0  0  0  0  0  0  0  0  0  0
   57.9930   33.3780   44.0020 O   0  0  0  0  0  0  0  0  0  0  0  0
   56.6080   31.6010   44.5050 O   0  0  0  0  0  0  0  0  0  0  0  0
   56.7510   30.4980   43.6120 C   0  0  0  0  0  0  0  0  0  0  0  0
   56.6190   29.1910   44.3560 C   0  0  0  0  0  0  0  0  0  0  0  0
   55.5610   28.9590   44.9240 O   0  0  0  0  0  0  0  0  0  0  0  0
   57.7490   28.1580   44.3870 C   0  0  0  0  0  0  0  0  0  0  0  0
   57.8250   27.4210   43.0360 C   0  0  0  0  0  0  0  0  0  0  0  0
   57.4950   27.1420   45.5180 C   0  0  0  0  0  0  0  0  0  0  0  0
   59.1100   28.8440   44.6460 C   0  0  0  0  0  0  0  0  0  0  0  0
   58.8300   33.5260   46.8230 C   0  0  0  0  0  0  0  0  0  0  0  0
   58.9460   34.8620   46.1190 C   0  0  0  0  0  0  0  0  0  0  0  0
   62.9370   33.4840   50.3290 O   0  0  0  0  0  0  0  0  0  0  0  0
   64.7441   32.8740   51.9794 H   0  0  0  0  0  0  0  0  0  0  0  0
   65.4012   31.6399   50.8517 H   0  0  0  0  0  0  0  0  0  0  0  0
   66.0741   33.3054   50.8517 H   0  0  0  0  0  0  0  0  0  0  0  0
   65.4880   32.7802   48.2555 H   0  0  0  0  0  0  0  0  0  0  0  0
   61.4687   34.1372   47.3763 H   0  0  0  0  0  0  0  0  0  0  0  0
   58.7771   34.8710   49.6382 H   0  0  0  0  0  0  0  0  0  0  0  0
   59.9846   35.3882   48.4017 H   0  0  0  0  0  0  0  0  0  0  0  0
   59.6885   31.9862   49.7757 H   0  0  0  0  0  0  0  0  0  0  0  0
   58.9582   29.9884   48.4947 H   0  0  0  0  0  0  0  0  0  0  0  0
   58.0128   30.2412   46.2113 H   0  0  0  0  0  0  0  0  0  0  0  0
   55.9699   30.5547   42.8396 H   0  0  0  0  0  0  0  0  0  0  0  0
   57.7479   30.5434   43.1493 H   0  0  0  0  0  0  0  0  0  0  0  0
   57.9364   26.3411   43.2132 H   0  0  0  0  0  0  0  0  0  0  0  0
   56.9030   27.6058   42.4652 H   0  0  0  0  0  0  0  0  0  0  0  0
   58.6899   27.7900   42.4652 H   0  0  0  0  0  0  0  0  0  0  0  0
   57.6191   27.6386   46.4917 H   0  0  0  0  0  0  0  0  0  0  0  0
   56.4710   26.7490   45.4347 H   0  0  0  0  0  0  0  0  0  0  0  0
   58.2136   26.3134   45.4347 H   0  0  0  0  0  0  0  0  0  0  0  0
   59.2776   28.9285   45.7299 H   0  0  0  0  0  0  0  0  0  0  0  0
   59.9146   28.2438   44.1962 H   0  0  0  0  0  0  0  0  0  0  0  0
   59.1061   29.8478   44.1962 H   0  0  0  0  0  0  0  0  0  0  0  0
   59.0158   35.6657   46.8668 H   0  0  0  0  0  0  0  0  0  0  0  0
   59.8480   34.8676   45.4894 H   0  0  0  0  0  0  0  0  0  0  0  0
   58.0585   35.0230   45.4894 H   0  0  0  0  0  0  0  0  0  0  0  0
  1  2  1  0
  2  3  2  0
  3  4  1  0
  4  5  2  0
  4  6  1  0
  6  7  2  0
  7  8  1  0
  8  9  1  0
  9 10  1  0
 10 11  2  0
 11 12  1  0
 12 13  2  0
 13 14  1  0
 14 15  1  0
 15 16  2  0
 15 17  1  0
 17 18  1  0
 18 19  1  0
 19 20  2  0
 19 21  1  0
 21 22  1  0
 21 23  1  0
 21 24  1  0
 14 25  2  0
 25 26  1  0
  7 27  1  0
 27  2  1  0
 25 10  1  0
  1 28  1  0
  1 29  1  0
  1 30  1  0
  3 31  1  0
  6 32  1  0
  9 33  1  0
  9 34  1  0
 11 35  1  0
 12 36  1  0
 13 37  1  0
 18 38  1  0
 18 39  1  0
 22 40  1  0
 22 41  1  0
 22 42  1  0
 23 43  1  0
 23 44  1  0
 23 45  1  0
 24 46  1  0
 24 47  1  0
 24 48  1  0
 26 49  1  0
 26 50  1  0
 26 51  1  0
M  END
>  <UniqueID>  (11) 
11

>  <SMILES>  (11) 
Cc1cc(=O)cc(OCc2cccc(C(=O)OCC(=O)C(C)(C)C)c2C)o1

>  <Energy>  (11) 
51.062431602017526

>  <Genealogy>  (11) 
Cc1cc(=O)cc(OCc2cccc(C(=O)OCC(=O)C(C)(C)C)c2C)o1 (3D coordinates assigned)
Cc1cc(=O)cc(OCc2cccc(C(=O)OCC(=O)C(C)(C)C)c2C)o1 (optimized conformer: 51.062431602017526 kcal/mol)

>  <smiles>  (11) 
Cc1cc(=O)cc(OCc2cccc(C(=O)OCC(=O)C(C)(C)C)c2C)o1

>  <score_type>  (11) 
oracle

>  <origin>  (11) 
adg

>  <m_score__min__energy>  (11) 
-8.3599999999999994

>  <m_primary>  (11) 
energy

$$$$
11:0
     RDKit          3D

 59 62  0  0  0  0  0  0  0  0999 V2000
   55.1490   27.7270   45.6190 H   0  0  0  0  0  0  0  0  0  0  0  0
   55.1310   26.7160   45.6870 O   0  0  0  0  0  0  0  0  0  0  0  0
   56.0990   26.0190   46.4020 C   0  0  0  0  0  0  0  0  0  0  0  0
   55.8880   24.8080   46.9430 N   0  0  0  0  0  0  0  0  0  0  0  0
   57.0810   24.5230   47.5100 C   0  0  0  0  0  0  0  0  0  0  0  0
   57.2980   23.4500   48.1320 O   0  0  0  0  0  0  0  0  0  0  0  0
   58.0230   25.4780   47.3560 N   0  0  0  0  0  0  0  0  0  0  0  0
   57.3840   26.4390   46.6630 C   0  0  0  0  0  0  0  0  0  0  0  0
   58.0320   27.6450   46.1260 C   0  0  0  0  0  0  0  0  0  0  0  0
   57.9377   27.8332   45.0463 H   0  0  0  0  0  0  0  0  0  0  0  0
   58.7310   28.5360   46.8520 C   0  0  0  0  0  0  0  0  0  0  0  0
   58.5980   28.6540   48.2250 C   0  0  0  0  0  0  0  0  0  0  0  0
   57.9897   28.0156   48.8826 H   0  0  0  0  0  0  0  0  0  0  0  0
   59.3750   29.7260   48.6090 C   0  0  0  0  0  0  0  0  0  0  0  0
   59.5070   30.2210   50.0180 C   0  0  0  0  0  0  0  0  0  0  0  0
   59.2881   29.4003   50.7170 H   0  0  0  0  0  0  0  0  0  0  0  0
   60.5327   30.5815   50.1854 H   0  0  0  0  0  0  0  0  0  0  0  0
   58.7970   31.0444   50.1854 H   0  0  0  0  0  0  0  0  0  0  0  0
   59.9990   30.2660   47.5370 N   0  0  0  0  0  0  0  0  0  0  0  0
   60.9800   31.3180   47.5880 C   0  0  0  0  0  0  0  0  0  0  0  0
   62.3430   30.9810   47.5580 C   0  0  0  0  0  0  0  0  0  0  0  0
   62.6431   29.9310   47.4256 H   0  0  0  0  0  0  0  0  0  0  0  0
   63.3200   31.9690   47.6950 C   0  0  0  0  0  0  0  0  0  0  0  0
   64.3852   31.6965   47.6625 H   0  0  0  0  0  0  0  0  0  0  0  0
   62.9470   33.3010   47.8730 C   0  0  0  0  0  0  0  0  0  0  0  0
   63.7183   34.0774   47.9844 H   0  0  0  0  0  0  0  0  0  0  0  0
   61.5960   33.6500   47.9100 C   0  0  0  0  0  0  0  0  0  0  0  0
   61.3080   34.7010   48.0602 H   0  0  0  0  0  0  0  0  0  0  0  0
   60.6010   32.6700   47.7570 C   0  0  0  0  0  0  0  0  0  0  0  0
   59.1820   33.0880   47.7930 C   0  0  0  0  0  0  0  0  0  0  0  0
   58.5660   33.0300   48.8920 O   0  0  0  0  0  0  0  0  0  0  0  0
   58.5140   33.6100   46.6230 N   0  0  0  0  0  0  0  0  0  0  0  0
   57.0460   33.5740   46.5360 C   0  0  0  0  0  0  0  0  0  0  0  0
   56.6467   33.0170   47.3964 H   0  0  0  0  0  0  0  0  0  0  0  0
   56.6657   34.6062   46.5403 H   0  0  0  0  0  0  0  0  0  0  0  0
   56.5960   32.8860   45.2360 C   0  0  0  0  0  0  0  0  0  0  0  0
   55.7065   32.2720   45.4404 H   0  0  0  0  0  0  0  0  0  0  0  0
   56.3602   33.6574   44.4881 H   0  0  0  0  0  0  0  0  0  0  0  0
   57.6730   32.0220   44.7090 N   0  0  0  0  0  0  0  0  0  0  0  0
   57.1690   31.1890   43.5940 C   0  0  0  0  0  0  0  0  0  0  0  0
   57.6650   30.2077   43.6252 H   0  0  0  0  0  0  0  0  0  0  0  0
   56.0808   31.0741   43.7060 H   0  0  0  0  0  0  0  0  0  0  0  0
   57.4530   31.8500   42.2460 C   0  0  0  0  0  0  0  0  0  0  0  0
   57.8823   32.8493   42.4108 H   0  0  0  0  0  0  0  0  0  0  0  0
   58.1658   31.2338   41.6784 H   0  0  0  0  0  0  0  0  0  0  0  0
   56.5154   31.9429   41.6784 H   0  0  0  0  0  0  0  0  0  0  0  0
   58.8240   32.8550   44.2790 C   0  0  0  0  0  0  0  0  0  0  0  0
   59.6689   32.1938   44.0362 H   0  0  0  0  0  0  0  0  0  0  0  0
   58.5093   33.4399   43.4022 H   0  0  0  0  0  0  0  0  0  0  0  0
   59.2700   33.8520   45.3830 C   0  0  1  0  0  0  0  0  0  0  0  0
   60.3403   33.6842   45.5734 H   0  0  0  0  0  0  0  0  0  0  0  0
   59.0990   35.3070   44.9330 C   0  0  0  0  0  0  0  0  0  0  0  0
   59.0225   35.9575   45.8167 H   0  0  0  0  0  0  0  0  0  0  0  0
   59.9679   35.6087   44.3296 H   0  0  0  0  0  0  0  0  0  0  0  0
   58.1839   35.3991   44.3296 H   0  0  0  0  0  0  0  0  0  0  0  0
   59.6600   29.5110   46.4610 C   0  0  0  0  0  0  0  0  0  0  0  0
   60.2500   29.6290   45.2600 C   0  0  0  0  0  0  0  0  0  0  0  0
   60.9665   30.4433   45.0768 H   0  0  0  0  0  0  0  0  0  0  0  0
   60.0166   28.9113   44.4597 H   0  0  0  0  0  0  0  0  0  0  0  0
  1  2  1  0
  2  3  1  0
  3  4  1  0
  4  5  1  0
  5  6  2  0
  5  7  1  0
  7  8  1  0
  8  9  1  0
  9 10  1  0
  9 11  2  0
 11 12  1  0
 12 13  1  0
 12 14  2  0
 14 15  1  0
 15 16  1  0
 15 17  1  0
 15 18  1  0
 14 19  1  0
 19 20  1  0
 20 21  2  0
 21 22  1  0
 21 23  1  0
 23 24  1  0
 23 25  2  0
 25 26  1  0
 25 27  1  0
 27 28  1  0
 27 29  2  0
 29 30  1  0
 30 31  2  0
 30 32  1  0
 32 33  1  0
 33 34  1  0
 33 35  1  0
 33 36  1  0
 36 37  1  0
 36 38  1  0
 36 39  1  0
 39 40  1  0
 40 41  1  0
 40 42  1  0
 40 43  1  0
 43 44  1  0
 43 45  1  0
 43 46  1  0
 39 47  1  0
 47 48  1  0
 47 49  1  0
 47 50  1  0
 50 51  1  1
 50 52  1  0
 52 53  1  0
 52 54  1  0
 52 55  1  0
 19 56  1  0
 56 57  2  0
 57 58  1  0
 57 59  1  0
  8  3  2  0
 56 11  1  0
 29 20  1  0
 50 32  1  0
M  CHG  2   4  -1   7  -1
M  END
>  <UniqueID>  (12) 
12

>  <SMILES>  (12) 
C=c1/c(=C\c2[n-]c(=O)[n-]c2O)cc(C)n1-c1ccccc1C(=O)N1CCN(CC)C[C@H]1C

>  <Energy>  (12) 
144.42827473066097

>  <Genealogy>  (12) 
C=c1c(=Cc2[n-]c(=O)[n-]c2O)cc(C)n1-c1ccccc1C(=O)N1CCN(CC)CC1C (protonated)
C=c1c(=Cc2[n-]c(=O)[n-]c2O)cc(C)n1-c1ccccc1C(=O)N1CCN(CC)C[C@H]1C (chirality)
C=c1/c(=C\c2[n-]c(=O)[n-]c2O)cc(C)n1-c1ccccc1C(=O)N1CCN(CC)C[C@H]1C (cis-trans isomerization)
C=c1/c(=C\c2[n-]c(=O)[n-]c2O)cc(C)n1-c1ccccc1C(=O)N1CCN(CC)C[C@H]1C (3D coordinates assigned)
C=c1/c(=C\c2[n-]c(=O)[n-]c2O)cc(C)n1-c1ccccc1C(=O)N1CCN(CC)C[C@H]1C (nonaromatic ring conformer: 144.42827473066097 kcal/mol)

>  <smiles>  (12) 
C=c1c(=Cc2[nH]c(=O)[nH]c2O)cc(C)n1-c1ccccc1C(=O)N1CCN(CC)CC1C

>  <score_type>  (12) 
oracle

>  <origin>  (12) 
adg

>  <m_score__min__energy>  (12) 
-14.07

>  <m_primary>  (12) 
energy

$$$$
12:0
     RDKit          3D

 53 55  0  0  0  0  0  0  0  0999 V2000
   57.3600   33.4590   46.9290 C   0  0  0  0  0  0  0  0  0  0  0  0
   57.8700   33.8560   45.5550 C   0  0  0  0  0  0  0  0  0  0  0  0
   59.2010   33.3860   45.3870 O   0  0  0  0  0  0  0  0  0  0  0  0
   60.0790   33.2070   46.4570 C   0  0  0  0  0  0  0  0  0  0  0  0
   60.4650   34.1950   47.1430 O   0  0  0  0  0  0  0  0  0  0  0  0
   60.5710   31.8220   46.7840 C   0  0  1  0  0  0  0  0  0  0  0  0
   61.4140   31.8340   48.0780 C   0  0  0  0  0  0  0  0  0  0  0  0
   61.4110   30.4480   48.7310 C   0  0  0  0  0  0  0  0  0  0  0  0
   60.0470   30.0570   49.1800 N   0  0  2  0  0  0  0  0  0  0  0  0
   59.9790   28.6130   49.3160 C   0  0  0  0  0  0  0  0  0  0  0  0
   60.0270   28.0960   50.4680 O   0  0  0  0  0  0  0  0  0  0  0  0
   59.8140   27.7140   48.1390 C   0  0  0  0  0  0  0  0  0  0  0  0
   60.9550   27.1850   47.5070 C   0  0  0  0  0  0  0  0  0  0  0  0
   60.8290   26.3220   46.4160 C   0  0  0  0  0  0  0  0  0  0  0  0
   59.5650   25.9660   45.9450 C   0  0  0  0  0  0  0  0  0  0  0  0
   58.4170   26.4830   46.5600 C   0  0  0  0  0  0  0  0  0  0  0  0
   56.8110   26.0580   45.9720 S   0  0  0  0  0  0  0  0  0  0  0  0
   56.1010   25.2720   47.0370 O   0  0  0  0  0  0  0  0  0  0  0  0
   56.8930   25.2140   44.7300 O   0  0  0  0  0  0  0  0  0  0  0  0
   55.9040   27.4980   45.6340 N   0  0  0  0  0  0  0  0  0  0  0  0
   56.3840   28.6330   44.9040 C   0  0  0  0  0  0  0  0  0  0  0  0
   55.5160   29.5950   44.3550 C   0  0  0  0  0  0  0  0  0  0  0  0
   56.0300   30.6870   43.6500 C   0  0  0  0  0  0  0  0  0  0  0  0
   57.4110   30.8240   43.4820 C   0  0  0  0  0  0  0  0  0  0  0  0
   58.1090   32.3180   42.5230 Br  0  0  0  0  0  0  0  0  0  0  0  0
   58.2770   29.8740   44.0290 C   0  0  0  0  0  0  0  0  0  0  0  0
   57.7650   28.7810   44.7310 C   0  0  0  0  0  0  0  0  0  0  0  0
   58.5420   27.3500   47.6530 C   0  0  0  0  0  0  0  0  0  0  0  0
   58.9480   30.5670   48.3050 C   0  0  0  0  0  0  0  0  0  0  0  0
   59.4020   30.8070   46.8550 C   0  0  0  0  0  0  0  0  0  0  0  0
   57.9774   33.9396   47.7022 H   0  0  0  0  0  0  0  0  0  0  0  0
   56.3149   33.7836   47.0401 H   0  0  0  0  0  0  0  0  0  0  0  0
   57.4183   32.3662   47.0401 H   0  0  0  0  0  0  0  0  0  0  0  0
   57.2247   33.4123   44.7826 H   0  0  0  0  0  0  0  0  0  0  0  0
   57.8548   34.9520   45.4620 H   0  0  0  0  0  0  0  0  0  0  0  0
   61.2272   31.4877   45.9669 H   0  0  0  0  0  0  0  0  0  0  0  0
   60.9893   32.5664   48.7803 H   0  0  0  0  0  0  0  0  0  0  0  0
   62.4494   32.1074   47.8265 H   0  0  0  0  0  0  0  0  0  0  0  0
   62.0831   30.4621   49.6017 H   0  0  0  0  0  0  0  0  0  0  0  0
   61.7508   29.7151   47.9844 H   0  0  0  0  0  0  0  0  0  0  0  0
   59.8820   30.4890   50.1180 H   0  0  0  0  0  0  0  0  0  0  0  0
   61.9558   27.4539   47.8759 H   0  0  0  0  0  0  0  0  0  0  0  0
   61.7292   25.9218   45.9266 H   0  0  0  0  0  0  0  0  0  0  0  0
   59.4696   25.2795   45.0909 H   0  0  0  0  0  0  0  0  0  0  0  0
   54.4286   29.4872   44.4812 H   0  0  0  0  0  0  0  0  0  0  0  0
   55.3475   31.4389   43.2272 H   0  0  0  0  0  0  0  0  0  0  0  0
   59.3643   29.9873   43.9064 H   0  0  0  0  0  0  0  0  0  0  0  0
   58.4516   28.0312   45.1509 H   0  0  0  0  0  0  0  0  0  0  0  0
   57.6389   27.7506   48.1367 H   0  0  0  0  0  0  0  0  0  0  0  0
   58.5809   31.5173   48.7200 H   0  0  0  0  0  0  0  0  0  0  0  0
   58.1602   29.7996   48.2822 H   0  0  0  0  0  0  0  0  0  0  0  0
   58.5532   31.1989   46.2754 H   0  0  0  0  0  0  0  0  0  0  0  0
   59.7517   29.8498   46.4410 H   0  0  0  0  0  0  0  0  0  0  0  0
  1  2  1  0
  2  3  1  0
  3  4  1  0
  4  5  2  0
  4  6  1  0
  6  7  1  0
  7  8  1  0
  8  9  1  0
  9 10  1  0
 10 11  2  0
 10 12  1  0
 12 13  2  0
 13 14  1  0
 14 15  2  0
 15 16  1  0
 16 17  1  0
 17 18  2  0
 17 19  2  0
 17 20  1  0
 20 21  1  0
 21 22  2  0
 22 23  1  0
 23 24  2  0
 24 25  1  0
 24 26  1  0
 26 27  2  0
 16 28  2  0
  9 29  1  0
 29 30  1  0
 30  6  1  0
 28 12  1  0
 27 21  1  0
  1 31  1  0
  1 32  1  0
  1 33  1  0
  2 34  1  0
  2 35  1  0
  6 36  1  6
  7 37  1  0
  7 38  1  0
  8 39  1  0
  8 40  1  0
  9 41  1  1
 13 42  1  0
 14 43  1  0
 15 44  1  0
 22 45  1  0
 23 46  1  0
 26 47  1  0
 27 48  1  0
 28 49  1  0
 29 50  1  0
 29 51  1  0
 30 52  1  0
 30 53  1  0
M  CHG  2   9   1  20  -1
M  END
>  <UniqueID>  (13) 
13

>  <SMILES>  (13) 
CCOC(=O)C1CC[NH+](C(=O)c2cccc(S(=O)(=O)[N-]c3ccc(Br)cc3)c2)CC1

>  <Energy>  (13) 
64.71529110348905

>  <Genealogy>  (13) 
CCOC(=O)C1CC[NH+](C(=O)c2cccc(S(=O)(=O)[N-]c3ccc(Br)cc3)c2)CC1 (protonated)
CCOC(=O)C1CC[NH+](C(=O)c2cccc(S(=O)(=O)[N-]c3ccc(Br)cc3)c2)CC1 (3D coordinates assigned)
CCOC(=O)C1CC[NH+](C(=O)c2cccc(S(=O)(=O)[N-]c3ccc(Br)cc3)c2)CC1 (nonaromatic ring conformer: 64.71529110348905 kcal/mol)

>  <smiles>  (13) 
CCOC(=O)C1CCN(C(=O)c2cccc(S(=O)(=O)Nc3ccc(Br)cc3)c2)CC1

>  <score_type>  (13) 
oracle

>  <origin>  (13) 
adg

>  <m_score__min__energy>  (13) 
-9.1899999999999995

>  <m_primary>  (13) 
energy

$$$$
13:0
     RDKit          3D

 70 73  0  0  0  0  0  0  0  0999 V2000
   67.0990   33.8570   51.2380 C   0  0  0  0  0  0  0  0  0  0  0  0
   65.6900   33.9930   51.3880 O   0  0  0  0  0  0  0  0  0  0  0  0
   64.7440   33.5280   50.4600 C   0  0  0  0  0  0  0  0  0  0  0  0
   63.5280   34.2160   50.3470 C   0  0  0  0  0  0  0  0  0  0  0  0
   62.5390   33.7690   49.4660 C   0  0  0  0  0  0  0  0  0  0  0  0
   62.7550   32.6260   48.6750 C   0  0  0  0  0  0  0  0  0  0  0  0
   61.6680   32.1240   47.7440 C   0  0  0  0  0  0  0  0  0  0  0  0
   60.5570   31.4630   48.4760 N   0  0  1  0  0  0  0  0  0  0  0  0
   61.0430   30.4240   49.4170 C   0  0  0  0  0  0  0  0  0  0  0  0
   60.4430   29.0590   49.1800 C   0  0  0  0  0  0  0  0  0  0  0  0
   59.9850   28.4080   50.1560 O   0  0  0  0  0  0  0  0  0  0  0  0
   60.4130   28.4750   47.8750 N   0  0  0  0  0  0  0  0  0  0  0  0
   59.2670   28.4630   47.0180 C   0  0  0  0  0  0  0  0  0  0  0  0
   58.9730   29.5610   46.1910 C   0  0  0  0  0  0  0  0  0  0  0  0
   57.8430   29.5430   45.3720 C   0  0  0  0  0  0  0  0  0  0  0  0
   56.9890   28.4380   45.3810 C   0  0  0  0  0  0  0  0  0  0  0  0
   57.2650   27.3390   46.2100 C   0  0  0  0  0  0  0  0  0  0  0  0
   56.2380   25.9070   46.1650 S   0  0  0  0  0  0  0  0  0  0  0  0
   56.3610   25.1900   47.4820 O   0  0  0  0  0  0  0  0  0  0  0  0
   54.8030   26.3290   45.9990 O   0  0  0  0  0  0  0  0  0  0  0  0
   56.7100   24.8120   44.8740 N   0  0  0  0  0  0  0  0  0  0  0  0
   55.8780   23.5950   44.8310 C   0  0  0  0  0  0  0  0  0  0  0  0
   56.1800   22.6430   46.0120 C   0  0  0  0  0  0  0  0  0  0  0  0
   57.3960   22.9460   46.6800 O   0  0  0  0  0  0  0  0  0  0  0  0
   58.4210   23.1830   45.7370 C   0  0  0  0  0  0  0  0  0  0  0  0
   58.1490   24.4790   44.9430 C   0  0  0  0  0  0  0  0  0  0  0  0
   58.4000   27.3620   47.0350 C   0  0  0  0  0  0  0  0  0  0  0  0
   59.4710   32.6110   49.2470 S   0  0  0  0  0  0  0  0  0  0  0  0
   58.1020   31.9920   49.3370 O   0  0  0  0  0  0  0  0  0  0  0  0
   59.9470   32.8950   50.6470 O   0  0  0  0  0  0  0  0  0  0  0  0
   59.3300   34.1630   48.3560 C   0  0  0  0  0  0  0  0  0  0  0  0
   58.8820   33.9180   46.9430 C   0  0  0  0  0  0  0  0  0  0  0  0
   59.6140   34.4390   45.8650 C   0  0  0  0  0  0  0  0  0  0  0  0
   59.1790   34.2260   44.5520 C   0  0  0  0  0  0  0  0  0  0  0  0
   58.0080   33.5040   44.3080 C   0  0  0  0  0  0  0  0  0  0  0  0
   57.2670   32.9920   45.3760 C   0  0  0  0  0  0  0  0  0  0  0  0
   57.7030   33.1950   46.6920 C   0  0  0  0  0  0  0  0  0  0  0  0
   63.9960   31.9740   48.7460 C   0  0  0  0  0  0  0  0  0  0  0  0
   64.9770   32.4060   49.6450 C   0  0  0  0  0  0  0  0  0  0  0  0
   67.5707   33.8115   52.2307 H   0  0  0  0  0  0  0  0  0  0  0  0
   67.3213   32.9332   50.6837 H   0  0  0  0  0  0  0  0  0  0  0  0
   67.4938   34.7212   50.6837 H   0  0  0  0  0  0  0  0  0  0  0  0
   63.3506   35.1145   50.9562 H   0  0  0  0  0  0  0  0  0  0  0  0
   61.5865   34.3141   49.3909 H   0  0  0  0  0  0  0  0  0  0  0  0
   61.2621   32.9779   47.1818 H   0  0  0  0  0  0  0  0  0  0  0  0
   62.1188   31.3778   47.0732 H   0  0  0  0  0  0  0  0  0  0  0  0
   59.9730   30.9480   47.7780 H   0  0  0  0  0  0  0  0  0  0  0  0
   62.1353   30.3456   49.3131 H   0  0  0  0  0  0  0  0  0  0  0  0
   60.7376   30.7375   50.4262 H   0  0  0  0  0  0  0  0  0  0  0  0
   59.6365   30.4384   46.1893 H   0  0  0  0  0  0  0  0  0  0  0  0
   57.6247   30.4004   44.7184 H   0  0  0  0  0  0  0  0  0  0  0  0
   56.0975   28.4287   44.7367 H   0  0  0  0  0  0  0  0  0  0  0  0
   54.8185   23.8878   44.8731 H   0  0  0  0  0  0  0  0  0  0  0  0
   56.1070   23.0604   43.8973 H   0  0  0  0  0  0  0  0  0  0  0  0
   55.3560   22.7139   46.7373 H   0  0  0  0  0  0  0  0  0  0  0  0
   56.2799   21.6294   45.5965 H   0  0  0  0  0  0  0  0  0  0  0  0
   59.3812   23.2787   46.2650 H   0  0  0  0  0  0  0  0  0  0  0  0
   58.4530   22.3389   45.0324 H   0  0  0  0  0  0  0  0  0  0  0  0
   58.6798   25.3094   45.4315 H   0  0  0  0  0  0  0  0  0  0  0  0
   58.5040   24.3201   43.9140 H   0  0  0  0  0  0  0  0  0  0  0  0
   58.6105   26.5107   47.6991 H   0  0  0  0  0  0  0  0  0  0  0  0
   58.5953   34.8061   48.8626 H   0  0  0  0  0  0  0  0  0  0  0  0
   60.3141   34.6542   48.3378 H   0  0  0  0  0  0  0  0  0  0  0  0
   60.5316   35.0160   46.0524 H   0  0  0  0  0  0  0  0  0  0  0  0
   59.7608   34.6282   43.7095 H   0  0  0  0  0  0  0  0  0  0  0  0
   57.6693   33.3386   43.2746 H   0  0  0  0  0  0  0  0  0  0  0  0
   56.3414   32.4296   45.1838 H   0  0  0  0  0  0  0  0  0  0  0  0
   57.1207   32.7872   47.5315 H   0  0  0  0  0  0  0  0  0  0  0  0
   64.1990   31.1156   48.0888 H   0  0  0  0  0  0  0  0  0  0  0  0
   65.9331   31.8666   49.7145 H   0  0  0  0  0  0  0  0  0  0  0  0
  1  2  1  0
  2  3  1  0
  3  4  2  0
  4  5  1  0
  5  6  2  0
  6  7  1  0
  7  8  1  0
  8  9  1  0
  9 10  1  0
 10 11  2  0
 10 12  1  0
 12 13  1  0
 13 14  2  0
 14 15  1  0
 15 16  2  0
 16 17  1  0
 17 18  1  0
 18 19  2  0
 18 20  2  0
 18 21  1  0
 21 22  1  0
 22 23  1  0
 23 24  1  0
 24 25  1  0
 25 26  1  0
 17 27  2  0
  8 28  1  0
 28 29  2  0
 28 30  2  0
 28 31  1  0
 31 32  1  0
 32 33  2  0
 33 34  1  0
 34 35  2  0
 35 36  1  0
 36 37  2  0
  6 38  1  0
 38 39  2  0
 39  3  1  0
 27 13  1  0
 37 32  1  0
 26 21  1  0
  1 40  1  0
  1 41  1  0
  1 42  1  0
  4 43  1  0
  5 44  1  0
  7 45  1  0
  7 46  1  0
  8 47  1  6
  9 48  1  0
  9 49  1  0
 14 50  1  0
 15 51  1  0
 16 52  1  0
 22 53  1  0
 22 54  1  0
 23 55  1  0
 23 56  1  0
 25 57  1  0
 25 58  1  0
 26 59  1  0
 26 60  1  0
 27 61  1  0
 31 62  1  0
 31 63  1  0
 33 64  1  0
 34 65  1  0
 35 66  1  0
 36 67  1  0
 37 68  1  0
 38 69  1  0
 39 70  1  0
M  CHG  2   8   1  12  -1
M  END
>  <UniqueID>  (14) 
14

>  <SMILES>  (14) 
COc1ccc(C[N@@H+](CC(=O)[N-]c2cccc(S(=O)(=O)N3CCOCC3)c2)S(=O)(=O)Cc2ccccc2)cc1

>  <Energy>  (14) 
87.51064607671928

>  <Genealogy>  (14) 
COc1ccc(C[NH+](CC(=O)[N-]c2cccc(S(=O)(=O)N3CCOCC3)c2)S(=O)(=O)Cc2ccccc2)cc1 (protonated)
COc1ccc(C[N@@H+](CC(=O)[N-]c2cccc(S(=O)(=O)N3CCOCC3)c2)S(=O)(=O)Cc2ccccc2)cc1 (chirality)
COc1ccc(C[N@@H+](CC(=O)[N-]c2cccc(S(=O)(=O)N3CCOCC3)c2)S(=O)(=O)Cc2ccccc2)cc1 (3D coordinates assigned)
COc1ccc(C[N@@H+](CC(=O)[N-]c2cccc(S(=O)(=O)N3CCOCC3)c2)S(=O)(=O)Cc2ccccc2)cc1 (nonaromatic ring conformer: 87.51064607671928 kcal/mol)

>  <smiles>  (14) 
COc1ccc(CN(CC(=O)Nc2cccc(S(=O)(=O)N3CCOCC3)c2)S(=O)(=O)Cc2ccccc2)cc1

>  <score_type>  (14) 
oracle

>  <origin>  (14) 
adg

>  <m_score__min__energy>  (14) 
-10.130000000000001

>  <m_primary>  (14) 
energy

$$$$
14:0
     RDKit          3D

 63 66  0  0  0  0  0  0  0  0999 V2000
   59.2350   27.7470   47.1590 C   0  0  0  0  0  0  0  0  0  0  0  0
   58.7160   28.4440   46.1380 C   0  0  0  0  0  0  0  0  0  0  0  0
   57.9160   27.9570   45.0900 C   0  0  0  0  0  0  0  0  0  0  0  0
   57.6190   26.6970   44.7160 C   0  0  0  0  0  0  0  0  0  0  0  0
   57.0040   25.6660   45.5680 C   0  0  0  0  0  0  0  0  0  0  0  0
   57.6710   24.5970   46.0380 N   0  0  0  0  0  0  0  0  0  0  0  0
   56.7820   24.0150   46.8720 C   0  0  0  0  0  0  0  0  0  0  0  0
   57.0390   22.9570   47.5030 O   0  0  0  0  0  0  0  0  0  0  0  0
   55.6040   24.6630   46.9890 N   0  0  0  0  0  0  0  0  0  0  0  0
   55.7650   25.7130   46.1700 C   0  0  0  0  0  0  0  0  0  0  0  0
   54.8130   26.7100   46.0000 O   0  0  0  0  0  0  0  0  0  0  0  0
   57.4350   29.0700   44.4200 C   0  0  0  0  0  0  0  0  0  0  0  0
   57.9980   30.1760   45.0220 C   0  0  0  0  0  0  0  0  0  0  0  0
   57.7650   31.5950   44.6000 C   0  0  0  0  0  0  0  0  0  0  0  0
   58.7730   29.7980   46.0620 N   0  0  0  0  0  0  0  0  0  0  0  0
   59.4880   30.6870   46.9360 C   0  0  0  0  0  0  0  0  0  0  0  0
   60.3930   31.6110   46.4020 C   0  0  0  0  0  0  0  0  0  0  0  0
   61.0770   32.4940   47.2430 C   0  0  0  0  0  0  0  0  0  0  0  0
   60.8730   32.4520   48.6340 C   0  0  0  0  0  0  0  0  0  0  0  0
   61.5840   33.4010   49.5200 C   0  0  0  0  0  0  0  0  0  0  0  0
   61.2570   34.6210   49.5090 O   0  0  0  0  0  0  0  0  0  0  0  0
   62.6250   32.9550   50.4080 N   0  0  0  0  0  0  0  0  0  0  0  0
   63.7450   32.1640   49.8940 C   0  0  0  0  0  0  0  0  0  0  0  0
   64.9670   33.0680   49.7240 C   0  0  0  0  0  0  0  0  0  0  0  0
   65.2110   33.8610   50.9470 N   0  0  0  0  0  0  0  0  0  0  0  0
   66.5500   34.2630   51.3340 C   0  0  0  0  0  0  0  0  0  0  0  0
   66.7040   35.1700   52.1980 O   0  0  0  0  0  0  0  0  0  0  0  0
   67.7960   33.6500   50.7410 C   0  0  0  0  0  0  0  0  0  0  0  0
   68.2060   32.3440   51.4580 C   0  0  0  0  0  0  0  0  0  0  0  0
   67.1830   31.2400   51.1660 C   0  0  0  0  0  0  0  0  0  0  0  0
   68.3390   32.5500   52.9750 C   0  0  0  0  0  0  0  0  0  0  0  0
   64.0630   34.5710   51.5410 C   0  0  0  0  0  0  0  0  0  0  0  0
   62.8570   33.6390   51.6800 C   0  0  0  0  0  0  0  0  0  0  0  0
   59.9670   31.5180   49.1650 C   0  0  0  0  0  0  0  0  0  0  0  0
   59.2790   30.6400   48.3220 C   0  0  0  0  0  0  0  0  0  0  0  0
   58.4180   29.7370   48.8560 F   0  0  0  0  0  0  0  0  0  0  0  0
   59.8485   28.2561   47.9170 H   0  0  0  0  0  0  0  0  0  0  0  0
   59.0473   26.6661   47.2387 H   0  0  0  0  0  0  0  0  0  0  0  0
   57.8577   26.4131   43.6804 H   0  0  0  0  0  0  0  0  0  0  0  0
   56.7370   29.0715   43.5698 H   0  0  0  0  0  0  0  0  0  0  0  0
   57.6607   32.2303   45.4919 H   0  0  0  0  0  0  0  0  0  0  0  0
   58.6179   31.9436   43.9992 H   0  0  0  0  0  0  0  0  0  0  0  0
   56.8454   31.6526   43.9992 H   0  0  0  0  0  0  0  0  0  0  0  0
   60.5670   31.6428   45.3163 H   0  0  0  0  0  0  0  0  0  0  0  0
   61.7782   33.2253   46.8146 H   0  0  0  0  0  0  0  0  0  0  0  0
   63.9809   31.3570   50.6033 H   0  0  0  0  0  0  0  0  0  0  0  0
   63.4720   31.7272   48.9221 H   0  0  0  0  0  0  0  0  0  0  0  0
   65.8496   32.4451   49.5167 H   0  0  0  0  0  0  0  0  0  0  0  0
   64.7794   33.7590   48.8889 H   0  0  0  0  0  0  0  0  0  0  0  0
   67.6101   33.4275   49.6799 H   0  0  0  0  0  0  0  0  0  0  0  0
   68.6167   34.3723   50.8625 H   0  0  0  0  0  0  0  0  0  0  0  0
   69.1905   32.0425   51.0708 H   0  0  0  0  0  0  0  0  0  0  0  0
   66.8041   30.8311   52.1143 H   0  0  0  0  0  0  0  0  0  0  0  0
   66.3467   31.6589   50.5871 H   0  0  0  0  0  0  0  0  0  0  0  0
   67.6643   30.4380   50.5871 H   0  0  0  0  0  0  0  0  0  0  0  0
   67.8154   31.7390   53.5024 H   0  0  0  0  0  0  0  0  0  0  0  0
   69.4029   32.5421   53.2542 H   0  0  0  0  0  0  0  0  0  0  0  0
   67.8938   33.5164   53.2542 H   0  0  0  0  0  0  0  0  0  0  0  0
   64.3462   34.9444   52.5362 H   0  0  0  0  0  0  0  0  0  0  0  0
   63.7871   35.4068   50.8813 H   0  0  0  0  0  0  0  0  0  0  0  0
   63.0559   32.8956   52.4660 H   0  0  0  0  0  0  0  0  0  0  0  0
   61.9669   34.2262   51.9501 H   0  0  0  0  0  0  0  0  0  0  0  0
   59.7980   31.4774   50.2512 H   0  0  0  0  0  0  0  0  0  0  0  0
  1  2  2  0
  2  3  1  0
  3  4  2  3
  4  5  1  0
  5  6  1  0
  6  7  1  0
  7  8  2  0
  7  9  1  0
  9 10  1  0
 10 11  1  0
  3 12  1  0
 12 13  2  0
 13 14  1  0
 13 15  1  0
 15 16  1  0
 16 17  2  0
 17 18  1  0
 18 19  2  0
 19 20  1  0
 20 21  2  0
 20 22  1  0
 22 23  1  0
 23 24  1  0
 24 25  1  0
 25 26  1  0
 26 27  2  0
 26 28  1  0
 28 29  1  0
 29 30  1  0
 29 31  1  0
 25 32  1  0
 32 33  1  0
 19 34  1  0
 34 35  2  0
 35 36  1  0
 15  2  1  0
 35 16  1  0
 10  5  2  0
 33 22  1  0
  1 37  1  0
  1 38  1  0
  4 39  1  0
 12 40  1  0
 14 41  1  0
 14 42  1  0
 14 43  1  0
 17 44  1  0
 18 45  1  0
 23 46  1  0
 23 47  1  0
 24 48  1  0
 24 49  1  0
 28 50  1  0
 28 51  1  0
 29 52  1  0
 30 53  1  0
 30 54  1  0
 30 55  1  0
 31 56  1  0
 31 57  1  0
 31 58  1  0
 32 59  1  0
 32 60  1  0
 33 61  1  0
 33 62  1  0
 34 63  1  0
M  CHG  3   6  -1   9  -1  11  -1
M  END
>  <UniqueID>  (15) 
15

>  <SMILES>  (15) 
C=c1c(=Cc2[n-]c(=O)[n-]c2[O-])cc(C)n1-c1ccc(C(=O)N2CCN(C(=O)CC(C)C)CC2)cc1F

>  <Energy>  (15) 
142.03529877440232

>  <Genealogy>  (15) 
C=c1c(=Cc2[n-]c(=O)[n-]c2[O-])cc(C)n1-c1ccc(C(=O)N2CCN(C(=O)CC(C)C)CC2)cc1F (protonated)
C=c1c(=Cc2[n-]c(=O)[n-]c2[O-])cc(C)n1-c1ccc(C(=O)N2CCN(C(=O)CC(C)C)CC2)cc1F (3D coordinates assigned)
C=c1c(=Cc2[n-]c(=O)[n-]c2[O-])cc(C)n1-c1ccc(C(=O)N2CCN(C(=O)CC(C)C)CC2)cc1F (nonaromatic ring conformer: 142.03529877440232 kcal/mol)

>  <smiles>  (15) 
C=c1c(=Cc2[nH]c(=O)[nH]c2O)cc(C)n1-c1ccc(C(=O)N2CCN(C(=O)CC(C)C)CC2)cc1F

>  <score_type>  (15) 
oracle

>  <origin>  (15) 
adg

>  <m_score__min__energy>  (15) 
-15.859999999999999

>  <m_primary>  (15) 
energy

$$$$
15:0
     RDKit          3D

 56 59  0  0  0  0  0  0  0  0999 V2000
   57.5920   29.9130   51.1210 N   0  0  0  0  0  0  0  0  0  0  0  0
   58.8860   29.7350   49.9900 S   0  0  0  0  0  0  0  0  0  0  0  0
   60.1130   29.2410   50.7030 O   0  0  0  0  0  0  0  0  0  0  0  0
   58.5000   28.7260   48.9440 O   0  0  0  0  0  0  0  0  0  0  0  0
   59.2190   31.2870   49.2270 C   0  0  0  0  0  0  0  0  0  0  0  0
   59.9150   32.2780   49.9290 C   0  0  0  0  0  0  0  0  0  0  0  0
   60.1930   33.5050   49.3250 C   0  0  0  0  0  0  0  0  0  0  0  0
   59.7640   33.7590   48.0190 C   0  0  0  0  0  0  0  0  0  0  0  0
   60.0700   34.9480   47.4360 N   0  0  0  0  0  0  0  0  0  0  0  0
   59.6900   35.2440   46.1680 C   0  0  0  0  0  0  0  0  0  0  0  0
   59.9970   36.3580   45.6680 O   0  0  0  0  0  0  0  0  0  0  0  0
   58.9560   34.3210   45.4220 C   0  0  0  0  0  0  0  0  0  0  0  0
   58.6020   33.0840   45.9850 C   0  0  0  0  0  0  0  0  0  0  0  0
   57.7610   32.1690   45.1810 C   0  0  0  0  0  0  0  0  0  0  0  0
   56.5920   32.5140   44.8590 O   0  0  0  0  0  0  0  0  0  0  0  0
   58.2900   30.9130   44.7300 N   0  0  0  0  0  0  0  0  0  0  0  0
   57.6110   30.0910   43.7310 C   0  0  0  0  0  0  0  0  0  0  0  0
   57.5930   28.6560   44.1790 C   0  0  0  0  0  0  0  0  0  0  0  0
   58.1130   27.6540   43.3470 C   0  0  0  0  0  0  0  0  0  0  0  0
   58.0560   26.3140   43.7340 C   0  0  0  0  0  0  0  0  0  0  0  0
   57.4640   25.9450   44.9570 C   0  0  0  0  0  0  0  0  0  0  0  0
   57.3860   24.5540   45.3470 N   0  0  0  0  0  0  0  0  0  0  0  0
   56.0850   23.9580   45.7060 C   0  0  0  0  0  0  0  0  0  0  0  0
   55.5240   23.0420   44.5930 C   0  0  0  0  0  0  0  0  0  0  0  0
   56.4830   22.7970   43.4130 C   0  0  0  0  0  0  0  0  0  0  0  0
   57.6890   21.9190   43.7630 C   0  0  0  0  0  0  0  0  0  0  0  0
   58.3660   22.2360   45.1090 C   0  0  0  0  0  0  0  0  0  0  0  0
   58.6170   23.7370   45.3450 C   0  0  0  0  0  0  0  0  0  0  0  0
   56.9290   26.9550   45.7800 C   0  0  0  0  0  0  0  0  0  0  0  0
   56.9950   28.2960   45.3950 C   0  0  0  0  0  0  0  0  0  0  0  0
   59.0260   32.7820   47.3040 C   0  0  0  0  0  0  0  0  0  0  0  0
   58.7750   31.5390   47.9220 C   0  0  0  0  0  0  0  0  0  0  0  0
   56.8810   30.5370   50.6760 H   0  0  0  0  0  0  0  0  0  0  0  0
   60.2443   32.0888   50.9614 H   0  0  0  0  0  0  0  0  0  0  0  0
   60.7513   34.2745   49.8782 H   0  0  0  0  0  0  0  0  0  0  0  0
   58.6544   34.5625   44.3921 H   0  0  0  0  0  0  0  0  0  0  0  0
   59.2120   30.5880   45.0950 H   0  0  0  0  0  0  0  0  0  0  0  0
   56.5779   30.4474   43.6058 H   0  0  0  0  0  0  0  0  0  0  0  0
   58.1475   30.1658   42.7736 H   0  0  0  0  0  0  0  0  0  0  0  0
   58.5687   27.9257   42.3834 H   0  0  0  0  0  0  0  0  0  0  0  0
   58.4776   25.5389   43.0772 H   0  0  0  0  0  0  0  0  0  0  0  0
   56.2109   23.3627   46.6224 H   0  0  0  0  0  0  0  0  0  0  0  0
   55.3701   24.7811   45.8525 H   0  0  0  0  0  0  0  0  0  0  0  0
   55.2788   22.0684   45.0424 H   0  0  0  0  0  0  0  0  0  0  0  0
   54.6480   23.5613   44.1771 H   0  0  0  0  0  0  0  0  0  0  0  0
   55.9200   22.3057   42.6057 H   0  0  0  0  0  0  0  0  0  0  0  0
   56.8795   23.7790   43.1155 H   0  0  0  0  0  0  0  0  0  0  0  0
   57.3507   20.8727   43.7910 H   0  0  0  0  0  0  0  0  0  0  0  0
   58.4445   22.1178   42.9886 H   0  0  0  0  0  0  0  0  0  0  0  0
   57.7208   21.8618   45.9175 H   0  0  0  0  0  0  0  0  0  0  0  0
   59.3512   21.7469   45.0930 H   0  0  0  0  0  0  0  0  0  0  0  0
   59.1143   23.8566   46.3189 H   0  0  0  0  0  0  0  0  0  0  0  0
   59.2370   24.0936   44.5093 H   0  0  0  0  0  0  0  0  0  0  0  0
   56.4547   26.6851   46.7351 H   0  0  0  0  0  0  0  0  0  0  0  0
   56.5754   29.0741   46.0496 H   0  0  0  0  0  0  0  0  0  0  0  0
   58.2252   30.7597   47.3740 H   0  0  0  0  0  0  0  0  0  0  0  0
  1  2  1  0
  2  3  2  0
  2  4  2  0
  2  5  1  0
  5  6  2  0
  6  7  1  0
  7  8  2  0
  8  9  1  0
  9 10  1  0
 10 11  2  0
 10 12  1  0
 12 13  2  0
 13 14  1  0
 14 15  2  0
 14 16  1  0
 16 17  1  0
 17 18  1  0
 18 19  2  0
 19 20  1  0
 20 21  2  0
 21 22  1  0
 22 23  1  0
 23 24  1  0
 24 25  1  0
 25 26  1  0
 26 27  1  0
 27 28  1  0
 21 29  1  0
 29 30  2  0
 13 31  1  0
 31 32  2  0
 32  5  1  0
 31  8  1  0
 30 18  1  0
 28 22  1  0
  1 33  1  0
  6 34  1  0
  7 35  1  0
 12 36  1  0
 16 37  1  0
 17 38  1  0
 17 39  1  0
 19 40  1  0
 20 41  1  0
 23 42  1  0
 23 43  1  0
 24 44  1  0
 24 45  1  0
 25 46  1  0
 25 47  1  0
 26 48  1  0
 26 49  1  0
 27 50  1  0
 27 51  1  0
 28 52  1  0
 28 53  1  0
 29 54  1  0
 30 55  1  0
 32 56  1  0
M  CHG  2   1  -1   9  -1
M  END
>  <UniqueID>  (16) 
16

>  <SMILES>  (16) 
[NH-]S(=O)(=O)c1ccc2[n-]c(=O)cc(C(=O)NCc3ccc(N4CCCCCC4)cc3)c2c1

>  <Energy>  (16) 
74.61428007562563

>  <Genealogy>  (16) 
[NH-]S(=O)(=O)c1ccc2[n-]c(=O)cc(C(=O)NCc3ccc(N4CCCCCC4)cc3)c2c1 (protonated)
[NH-]S(=O)(=O)c1ccc2[n-]c(=O)cc(C(=O)NCc3ccc(N4CCCCCC4)cc3)c2c1 (3D coordinates assigned)
[NH-]S(=O)(=O)c1ccc2[n-]c(=O)cc(C(=O)NCc3ccc(N4CCCCCC4)cc3)c2c1 (nonaromatic ring conformer: 74.61428007562563 kcal/mol)

>  <smiles>  (16) 
NS(=O)(=O)c1ccc2[nH]c(=O)cc(C(=O)NCc3ccc(N4CCCCCC4)cc3)c2c1

>  <score_type>  (16) 
oracle

>  <origin>  (16) 
adg

>  <m_score__min__energy>  (16) 
-9.6899999999999995

>  <m_primary>  (16) 
energy

$$$$
16:0
     RDKit          3D

 48 51  0  0  0  0  0  0  0  0999 V2000
   56.7540   34.1770   45.8110 O   0  0  0  0  0  0  0  0  0  0  0  0
   57.6510   33.3220   46.0410 C   0  0  0  0  0  0  0  0  0  0  0  0
   57.9870   32.3850   45.0070 N   0  0  0  0  0  0  0  0  0  0  0  0
   57.6520   31.1300   44.9870 C   0  0  0  0  0  0  0  0  0  0  0  0
   56.3830   30.6820   44.8580 N   0  0  0  0  0  0  0  0  0  0  0  0
   56.3350   29.3240   44.8350 C   0  0  0  0  0  0  0  0  0  0  0  0
   57.5680   28.6880   44.9380 C   0  0  0  0  0  0  0  0  0  0  0  0
   58.7590   29.8720   45.0590 S   0  0  0  0  0  0  0  0  0  0  0  0
   58.3580   33.3510   47.3440 C   0  0  0  0  0  0  0  0  0  0  0  0
   59.2390   34.4000   47.6590 C   0  0  0  0  0  0  0  0  0  0  0  0
   59.8870   34.4290   48.8950 C   0  0  0  0  0  0  0  0  0  0  0  0
   59.6640   33.4170   49.8320 C   0  0  0  0  0  0  0  0  0  0  0  0
   60.2970   33.4740   51.0300 F   0  0  0  0  0  0  0  0  0  0  0  0
   58.7840   32.3640   49.5330 C   0  0  0  0  0  0  0  0  0  0  0  0
   58.4910   31.0780   50.7050 S   0  0  0  0  0  0  0  0  0  0  0  0
   59.1900   31.4080   51.9950 O   0  0  0  0  0  0  0  0  0  0  0  0
   57.0100   30.9850   50.9500 O   0  0  0  0  0  0  0  0  0  0  0  0
   59.0980   29.5590   50.0780 N   0  0  0  0  0  0  0  0  0  0  0  0
   59.0320   29.5130   48.5950 C   0  0  0  0  0  0  0  0  0  0  0  0
   60.4060   29.5890   47.9070 C   0  0  0  0  0  0  0  0  0  0  0  0
   61.3050   30.4570   48.6720 N   0  0  0  0  0  0  0  0  0  0  0  0
   61.9430   31.5980   48.0650 C   0  0  0  0  0  0  0  0  0  0  0  0
   61.3520   32.2450   46.9640 C   0  0  0  0  0  0  0  0  0  0  0  0
   61.9640   33.3610   46.3880 C   0  0  0  0  0  0  0  0  0  0  0  0
   63.1680   33.8460   46.9050 C   0  0  0  0  0  0  0  0  0  0  0  0
   63.7610   34.9290   46.3440 F   0  0  0  0  0  0  0  0  0  0  0  0
   63.7600   33.2150   48.0030 C   0  0  0  0  0  0  0  0  0  0  0  0
   63.1500   32.0990   48.5830 C   0  0  0  0  0  0  0  0  0  0  0  0
   61.5260   30.1570   50.0920 C   0  0  0  0  0  0  0  0  0  0  0  0
   60.4260   29.2270   50.6320 C   0  0  0  0  0  0  0  0  0  0  0  0
   58.1220   32.3460   48.2960 C   0  0  0  0  0  0  0  0  0  0  0  0
   55.3903   28.7683   44.7418 H   0  0  0  0  0  0  0  0  0  0  0  0
   57.7357   27.6009   44.9400 H   0  0  0  0  0  0  0  0  0  0  0  0
   59.4187   35.2020   46.9279 H   0  0  0  0  0  0  0  0  0  0  0  0
   60.5765   35.2526   49.1324 H   0  0  0  0  0  0  0  0  0  0  0  0
   58.5481   28.5705   48.2990 H   0  0  0  0  0  0  0  0  0  0  0  0
   58.4644   30.3986   48.2731 H   0  0  0  0  0  0  0  0  0  0  0  0
   60.8390   28.5796   47.8467 H   0  0  0  0  0  0  0  0  0  0  0  0
   60.2798   30.0032   46.8958 H   0  0  0  0  0  0  0  0  0  0  0  0
   60.4025   31.8698   46.5544 H   0  0  0  0  0  0  0  0  0  0  0  0
   61.4969   33.8590   45.5255 H   0  0  0  0  0  0  0  0  0  0  0  0
   64.7072   33.5973   48.4112 H   0  0  0  0  0  0  0  0  0  0  0  0
   63.6174   31.6097   49.4503 H   0  0  0  0  0  0  0  0  0  0  0  0
   62.5031   29.6655   50.2088 H   0  0  0  0  0  0  0  0  0  0  0  0
   61.5008   31.0991   50.6593 H   0  0  0  0  0  0  0  0  0  0  0  0
   60.6740   28.1899   50.3620 H   0  0  0  0  0  0  0  0  0  0  0  0
   60.3797   29.3545   51.7236 H   0  0  0  0  0  0  0  0  0  0  0  0
   57.4116   31.5372   48.0699 H   0  0  0  0  0  0  0  0  0  0  0  0
  1  2  2  0
  2  3  1  0
  3  4  2  3
  4  5  1  0
  5  6  1  0
  6  7  2  0
  7  8  1  0
  2  9  1  0
  9 10  2  0
 10 11  1  0
 11 12  2  0
 12 13  1  0
 12 14  1  0
 14 15  1  0
 15 16  2  0
 15 17  2  0
 15 18  1  0
 18 19  1  0
 19 20  1  0
 20 21  1  0
 21 22  1  0
 22 23  2  0
 23 24  1  0
 24 25  2  0
 25 26  1  0
 25 27  1  0
 27 28  2  0
 21 29  1  0
 29 30  1  0
 14 31  2  0
  8  4  1  0
 31  9  1  0
 30 18  1  0
 28 22  1  0
  6 32  1  0
  7 33  1  0
 10 34  1  0
 11 35  1  0
 19 36  1  0
 19 37  1  0
 20 38  1  0
 20 39  1  0
 23 40  1  0
 24 41  1  0
 27 42  1  0
 28 43  1  0
 29 44  1  0
 29 45  1  0
 30 46  1  0
 30 47  1  0
 31 48  1  0
M  CHG  1   5  -1
M  END
>  <UniqueID>  (17) 
17

>  <SMILES>  (17) 
O=C(N=c1[n-]ccs1)c1ccc(F)c(S(=O)(=O)N2CCN(c3ccc(F)cc3)CC2)c1

>  <Energy>  (17) 
100.18321060798245

>  <Genealogy>  (17) 
O=C(N=c1[n-]ccs1)c1ccc(F)c(S(=O)(=O)N2CCN(c3ccc(F)cc3)CC2)c1 (protonated)
O=C(N=c1[n-]ccs1)c1ccc(F)c(S(=O)(=O)N2CCN(c3ccc(F)cc3)CC2)c1 (3D coordinates assigned)
O=C(N=c1[n-]ccs1)c1ccc(F)c(S(=O)(=O)N2CCN(c3ccc(F)cc3)CC2)c1 (nonaromatic ring conformer: 100.18321060798245 kcal/mol)

>  <smiles>  (17) 
O=C(N=c1[nH]ccs1)c1ccc(F)c(S(=O)(=O)N2CCN(c3ccc(F)cc3)CC2)c1

>  <score_type>  (17) 
oracle

>  <origin>  (17) 
adg

>  <m_score__min__energy>  (17) 
-10.91

>  <m_primary>  (17) 
energy

$$$$
17:0
     RDKit          3D

 49 52  0  0  0  0  0  0  0  0999 V2000
   62.0660   31.4790   47.7910 C   0  0  0  0  0  0  0  0  0  0  0  0
   61.2870   32.7280   48.0840 C   0  0  0  0  0  0  0  0  0  0  0  0
   59.9570   32.9740   47.7920 C   0  0  0  0  0  0  0  0  0  0  0  0
   59.0190   32.1220   47.1210 N   0  0  0  0  0  0  0  0  0  0  0  0
   58.5670   32.3640   45.7800 C   0  0  0  0  0  0  0  0  0  0  0  0
   58.7050   33.5110   45.2740 O   0  0  0  0  0  0  0  0  0  0  0  0
   57.9040   31.2940   44.9970 C   0  0  0  0  0  0  0  0  0  0  0  0
   57.3170   31.5880   43.7520 C   0  0  0  0  0  0  0  0  0  0  0  0
   56.7040   30.5820   43.0020 C   0  0  0  0  0  0  0  0  0  0  0  0
   56.6690   29.2710   43.4810 C   0  0  0  0  0  0  0  0  0  0  0  0
   57.2430   28.9580   44.7220 C   0  0  0  0  0  0  0  0  0  0  0  0
   57.2500   27.5390   45.2120 C   0  0  0  0  0  0  0  0  0  0  0  0
   55.9170   27.1860   45.6830 N   0  0  0  0  0  0  0  0  0  0  0  0
   55.3200   25.8840   45.6230 C   0  0  0  0  0  0  0  0  0  0  0  0
   54.1100   25.7660   45.9490 O   0  0  0  0  0  0  0  0  0  0  0  0
   56.0700   24.6710   45.2460 C   0  0  0  0  0  0  0  0  0  0  0  0
   57.2600   24.2050   45.8030 C   0  0  0  0  0  0  0  0  0  0  0  0
   57.7550   23.0560   45.1750 C   0  0  0  0  0  0  0  0  0  0  0  0
   56.9680   22.6300   44.1180 C   0  0  0  0  0  0  0  0  0  0  0  0
   57.2890   21.2460   43.0940 Cl  0  0  0  0  0  0  0  0  0  0  0  0
   55.6630   23.6730   43.9500 S   0  0  0  0  0  0  0  0  0  0  0  0
   57.8720   29.9680   45.4680 C   0  0  0  0  0  0  0  0  0  0  0  0
   59.6650   34.1890   48.3740 C   0  0  0  0  0  0  0  0  0  0  0  0
   60.7810   34.6710   48.9550 N   0  0  0  0  0  0  0  0  0  0  0  0
   61.7630   33.7990   48.7590 N   0  0  0  0  0  0  0  0  0  0  0  0
   63.1170   33.9460   49.3140 C   0  0  0  0  0  0  0  0  0  0  0  0
   63.4890   32.8640   50.3270 C   0  0  0  0  0  0  0  0  0  0  0  0
   64.5520   32.3400   49.3700 C   0  0  0  0  0  0  0  0  0  0  0  0
   64.1870   33.4230   48.3610 C   0  0  0  0  0  0  0  0  0  0  0  0
   62.3635   31.0021   48.7366 H   0  0  0  0  0  0  0  0  0  0  0  0
   61.4407   30.7845   47.2109 H   0  0  0  0  0  0  0  0  0  0  0  0
   62.9648   31.7351   47.2109 H   0  0  0  0  0  0  0  0  0  0  0  0
   58.5110   31.4140   47.6970 H   0  0  0  0  0  0  0  0  0  0  0  0
   57.3413   32.6181   43.3668 H   0  0  0  0  0  0  0  0  0  0  0  0
   56.2473   30.8232   42.0308 H   0  0  0  0  0  0  0  0  0  0  0  0
   56.1899   28.4814   42.8835 H   0  0  0  0  0  0  0  0  0  0  0  0
   57.5390   26.8677   44.3899 H   0  0  0  0  0  0  0  0  0  0  0  0
   57.9712   27.4372   46.0363 H   0  0  0  0  0  0  0  0  0  0  0  0
   57.7608   24.6923   46.6525 H   0  0  0  0  0  0  0  0  0  0  0  0
   58.6760   22.5433   45.4893 H   0  0  0  0  0  0  0  0  0  0  0  0
   58.3444   29.7203   46.4300 H   0  0  0  0  0  0  0  0  0  0  0  0
   58.6825   34.6836   48.3655 H   0  0  0  0  0  0  0  0  0  0  0  0
   63.0948   35.0009   49.6250 H   0  0  0  0  0  0  0  0  0  0  0  0
   63.8896   33.2536   51.2745 H   0  0  0  0  0  0  0  0  0  0  0  0
   62.7199   32.1892   50.7308 H   0  0  0  0  0  0  0  0  0  0  0  0
   65.5791   32.4154   49.7564 H   0  0  0  0  0  0  0  0  0  0  0  0
   64.5553   31.2815   49.0706 H   0  0  0  0  0  0  0  0  0  0  0  0
   64.9967   34.1392   48.1576 H   0  0  0  0  0  0  0  0  0  0  0  0
   63.9294   33.1564   47.3254 H   0  0  0  0  0  0  0  0  0  0  0  0
  1  2  1  0
  2  3  2  0
  3  4  1  0
  4  5  1  0
  5  6  2  0
  5  7  1  0
  7  8  2  0
  8  9  1  0
  9 10  2  0
 10 11  1  0
 11 12  1  0
 12 13  1  0
 13 14  1  0
 14 15  2  0
 14 16  1  0
 16 17  2  0
 17 18  1  0
 18 19  2  0
 19 20  1  0
 19 21  1  0
 11 22  2  0
  3 23  1  0
 23 24  2  0
 24 25  1  0
 25 26  1  0
 26 27  1  0
 27 28  1  0
 28 29  1  0
 25  2  1  0
 29 26  1  0
 22  7  1  0
 21 16  1  0
  1 30  1  0
  1 31  1  0
  1 32  1  0
  4 33  1  0
  8 34  1  0
  9 35  1  0
 10 36  1  0
 12 37  1  0
 12 38  1  0
 17 39  1  0
 18 40  1  0
 22 41  1  0
 23 42  1  0
 26 43  1  0
 27 44  1  0
 27 45  1  0
 28 46  1  0
 28 47  1  0
 29 48  1  0
 29 49  1  0
M  CHG  1  13  -1
M  END
>  <UniqueID>  (18) 
18

>  <SMILES>  (18) 
Cc1c(NC(=O)c2cccc(C[N-]C(=O)c3ccc(Cl)s3)c2)cnn1C1CCC1

>  <Energy>  (18) 
177.26971407702757

>  <Genealogy>  (18) 
Cc1c(NC(=O)c2cccc(C[N-]C(=O)c3ccc(Cl)s3)c2)cnn1C1CCC1 (protonated)
Cc1c(NC(=O)c2cccc(C[N-]C(=O)c3ccc(Cl)s3)c2)cnn1C1CCC1 (3D coordinates assigned)
Cc1c(NC(=O)c2cccc(C[N-]C(=O)c3ccc(Cl)s3)c2)cnn1C1CCC1 (nonaromatic ring conformer: 177.26971407702757 kcal/mol)

>  <smiles>  (18) 
Cc1c(NC(=O)c2cccc(CNC(=O)c3ccc(Cl)s3)c2)cnn1C1CCC1

>  <score_type>  (18) 
oracle

>  <origin>  (18) 
adg

>  <m_score__min__energy>  (18) 
-10.859999999999999

>  <m_primary>  (18) 
energy

$$$$
18:0
     RDKit          3D

 54 56  0  0  0  0  0  0  0  0999 V2000
   58.0190   32.2710   51.3040 C   0  0  0  0  0  0  0  0  0  0  0  0
   58.7200   32.3470   50.1670 C   0  0  0  0  0  0  0  0  0  0  0  0
   59.6890   33.4780   49.8940 C   0  0  0  0  0  0  0  0  0  0  0  0
   60.0640   33.5380   48.4580 N   0  0  1  0  0  0  0  0  0  0  0  0
   59.2500   34.5470   47.7370 C   0  0  0  0  0  0  0  0  0  0  0  0
   58.6220   33.9630   46.4970 C   0  0  0  0  0  0  0  0  0  0  0  0
   58.8090   34.4820   45.2180 C   0  0  0  0  0  0  0  0  0  0  0  0
   58.0470   33.4590   44.1130 S   0  0  0  0  0  0  0  0  0  0  0  0
   57.4600   32.3770   45.2530 C   0  0  0  0  0  0  0  0  0  0  0  0
   56.7870   31.1500   44.9360 N   0  0  0  0  0  0  0  0  0  0  0  0
   57.3610   29.8530   45.1230 C   0  0  0  0  0  0  0  0  0  0  0  0
   56.9630   28.9030   44.4050 O   0  0  0  0  0  0  0  0  0  0  0  0
   58.4050   29.6180   46.1400 C   0  0  0  0  0  0  0  0  0  0  0  0
   59.6500   30.2410   46.0290 C   0  0  0  0  0  0  0  0  0  0  0  0
   60.6130   30.0830   47.0300 C   0  0  0  0  0  0  0  0  0  0  0  0
   60.3600   29.2580   48.1290 C   0  0  0  0  0  0  0  0  0  0  0  0
   61.3450   29.1450   49.1680 N   0  0  0  0  0  0  0  0  0  0  0  0
   61.6690   30.0910   50.0000 C   0  0  0  0  0  0  0  0  0  0  0  0
   62.6180   31.0150   49.6690 N   0  0  0  0  0  0  0  0  0  0  0  0
   62.9460   32.0430   50.4940 C   0  0  0  0  0  0  0  0  0  0  0  0
   62.3080   32.1820   51.7410 C   0  0  0  0  0  0  0  0  0  0  0  0
   62.5930   33.3520   52.6470 C   0  0  0  0  0  0  0  0  0  0  0  0
   61.4250   33.9740   53.0540 F   0  0  0  0  0  0  0  0  0  0  0  0
   63.3750   34.2810   51.9820 F   0  0  0  0  0  0  0  0  0  0  0  0
   63.2750   32.9060   53.7650 F   0  0  0  0  0  0  0  0  0  0  0  0
   61.3300   31.2440   52.0950 C   0  0  0  0  0  0  0  0  0  0  0  0
   61.0110   30.1910   51.2360 C   0  0  0  0  0  0  0  0  0  0  0  0
   59.7970   29.0140   51.7280 Cl  0  0  0  0  0  0  0  0  0  0  0  0
   59.1140   28.6200   48.2410 C   0  0  0  0  0  0  0  0  0  0  0  0
   58.1420   28.8060   47.2550 C   0  0  0  0  0  0  0  0  0  0  0  0
   57.8800   32.7730   46.5190 C   0  0  0  0  0  0  0  0  0  0  0  0
   61.4730   33.8690   48.3430 C   0  0  0  0  0  0  0  0  0  0  0  0
   62.0100   34.6180   49.2080 O   0  0  0  0  0  0  0  0  0  0  0  0
   62.3380   33.3570   47.2510 C   0  0  0  0  0  0  0  0  0  0  0  0
   63.6700   33.3430   47.2790 C   0  0  0  0  0  0  0  0  0  0  0  0
   57.3241   31.4339   51.4668 H   0  0  0  0  0  0  0  0  0  0  0  0
   58.1375   33.0456   52.0760 H   0  0  0  0  0  0  0  0  0  0  0  0
   58.5883   31.5632   49.4066 H   0  0  0  0  0  0  0  0  0  0  0  0
   59.2176   34.4297   50.1805 H   0  0  0  0  0  0  0  0  0  0  0  0
   60.6015   33.3006   50.4822 H   0  0  0  0  0  0  0  0  0  0  0  0
   59.8840   32.5920   48.0540 H   0  0  0  0  0  0  0  0  0  0  0  0
   58.4542   34.9085   48.4049 H   0  0  0  0  0  0  0  0  0  0  0  0
   59.9107   35.3728   47.4344 H   0  0  0  0  0  0  0  0  0  0  0  0
   59.3594   35.4017   44.9704 H   0  0  0  0  0  0  0  0  0  0  0  0
   59.8744   30.8602   45.1480 H   0  0  0  0  0  0  0  0  0  0  0  0
   61.5749   30.6109   46.9521 H   0  0  0  0  0  0  0  0  0  0  0  0
   63.7128   32.7693   50.1866 H   0  0  0  0  0  0  0  0  0  0  0  0
   60.8084   31.3380   53.0589 H   0  0  0  0  0  0  0  0  0  0  0  0
   58.9032   27.9734   49.1056 H   0  0  0  0  0  0  0  0  0  0  0  0
   57.1636   28.3128   47.3528 H   0  0  0  0  0  0  0  0  0  0  0  0
   57.6543   32.2129   47.4384 H   0  0  0  0  0  0  0  0  0  0  0  0
   61.8430   32.9599   46.3525 H   0  0  0  0  0  0  0  0  0  0  0  0
   64.2339   32.9439   46.4230 H   0  0  0  0  0  0  0  0  0  0  0  0
   64.2057   33.7305   48.1581 H   0  0  0  0  0  0  0  0  0  0  0  0
  1  2  2  0
  2  3  1  0
  3  4  1  0
  4  5  1  0
  5  6  1  0
  6  7  2  0
  7  8  1  0
  8  9  1  0
  9 10  1  0
 10 11  1  0
 11 12  2  0
 11 13  1  0
 13 14  2  0
 14 15  1  0
 15 16  2  0
 16 17  1  0
 17 18  2  3
 18 19  1  0
 19 20  1  0
 20 21  2  0
 21 22  1  0
 22 23  1  0
 22 24  1  0
 22 25  1  0
 21 26  1  0
 26 27  2  0
 27 28  1  0
 16 29  1  0
 29 30  2  0
  9 31  2  0
  4 32  1  0
 32 33  2  0
 32 34  1  0
 34 35  2  0
 31  6  1  0
 30 13  1  0
 27 18  1  0
  1 36  1  0
  1 37  1  0
  2 38  1  0
  3 39  1  0
  3 40  1  0
  4 41  1  6
  5 42  1  0
  5 43  1  0
  7 44  1  0
 14 45  1  0
 15 46  1  0
 20 47  1  0
 26 48  1  0
 29 49  1  0
 30 50  1  0
 31 51  1  0
 34 52  1  0
 35 53  1  0
 35 54  1  0
M  CHG  3   4   1  10  -1  19  -1
M  END
>  <UniqueID>  (19) 
19

>  <SMILES>  (19) 
C=CC[N@@H+](Cc1csc([N-]C(=O)c2ccc(N=c3[n-]cc(C(F)(F)F)cc3Cl)cc2)c1)C(=O)C=C

>  <Energy>  (19) 
98.97179652319106

>  <Genealogy>  (19) 
C=CC[NH+](Cc1csc([N-]C(=O)c2ccc(N=c3[n-]cc(C(F)(F)F)cc3Cl)cc2)c1)C(=O)C=C (protonated)
C=CC[N@@H+](Cc1csc([N-]C(=O)c2ccc(N=c3[n-]cc(C(F)(F)F)cc3Cl)cc2)c1)C(=O)C=C (chirality)
C=CC[N@@H+](Cc1csc([N-]C(=O)c2ccc(N=c3[n-]cc(C(F)(F)F)cc3Cl)cc2)c1)C(=O)C=C (3D coordinates assigned)
C=CC[N@@H+](Cc1csc([N-]C(=O)c2ccc(N=c3[n-]cc(C(F)(F)F)cc3Cl)cc2)c1)C(=O)C=C (optimized conformer: 98.97179652319106 kcal/mol)

>  <smiles>  (19) 
C=CCN(Cc1csc(NC(=O)c2ccc(N=c3[nH]cc(C(F)(F)F)cc3Cl)cc2)c1)C(=O)C=C

>  <score_type>  (19) 
oracle

>  <origin>  (19) 
adg

>  <m_score__min__energy>  (19) 
-9.8699999999999992

>  <m_primary>  (19) 
energy

$$$$
19:0
     RDKit          3D

 45 48  0  0  0  0  0  0  0  0999 V2000
   57.1820   21.1080   43.0210 C   0  0  0  0  0  0  0  0  0  0  0  0
   56.0070   21.8490   43.1480 O   0  0  0  0  0  0  0  0  0  0  0  0
   55.8180   22.9190   43.9780 C   0  0  0  0  0  0  0  0  0  0  0  0
   54.6710   23.1680   44.7020 C   0  0  0  0  0  0  0  0  0  0  0  0
   54.6050   24.3010   45.5180 C   0  0  0  0  0  0  0  0  0  0  0  0
   55.6730   25.1740   45.6060 C   0  0  0  0  0  0  0  0  0  0  0  0
   55.9020   26.3280   46.2940 N   0  0  0  0  0  0  0  0  0  0  0  0
   57.1360   26.7760   46.0110 C   0  0  0  0  0  0  0  0  0  0  0  0
   57.9830   28.2280   46.6060 S   0  0  0  0  0  0  0  0  0  0  0  0
   57.7000   29.6180   45.4940 C   0  0  0  0  0  0  0  0  0  0  0  0
   56.6950   29.4610   44.5470 C   0  0  0  0  0  0  0  0  0  0  0  0
   56.4180   30.4810   43.6600 C   0  0  0  0  0  0  0  0  0  0  0  0
   57.1550   31.6390   43.7420 C   0  0  0  0  0  0  0  0  0  0  0  0
   58.1680   31.8120   44.6880 C   0  0  0  0  0  0  0  0  0  0  0  0
   58.9060   33.0050   44.7520 N   0  0  0  0  0  0  0  0  0  0  0  0
   59.2830   33.7480   46.2590 S   0  0  0  0  0  0  0  0  0  0  0  0
   58.2370   33.3580   47.2700 O   0  0  0  0  0  0  0  0  0  0  0  0
   59.2660   35.2430   46.1730 O   0  0  0  0  0  0  0  0  0  0  0  0
   60.8500   33.1570   46.7620 C   0  0  0  0  0  0  0  0  0  0  0  0
   61.9790   33.8400   46.4070 C   0  0  0  0  0  0  0  0  0  0  0  0
   63.2640   33.4320   46.7700 C   0  0  0  0  0  0  0  0  0  0  0  0
   63.3960   32.2850   47.5240 C   0  0  0  0  0  0  0  0  0  0  0  0
   62.2670   31.5910   47.8860 C   0  0  0  0  0  0  0  0  0  0  0  0
   60.9940   32.0010   47.5220 C   0  0  0  0  0  0  0  0  0  0  0  0
   58.4490   30.7770   45.5870 C   0  0  0  0  0  0  0  0  0  0  0  0
   57.6820   25.9060   45.1470 N   0  0  0  0  0  0  0  0  0  0  0  0
   56.8170   24.9350   44.8910 C   0  0  0  0  0  0  0  0  0  0  0  0
   56.8740   23.8250   44.0970 C   0  0  0  0  0  0  0  0  0  0  0  0
   57.5707   20.8629   44.0204 H   0  0  0  0  0  0  0  0  0  0  0  0
   56.9718   20.1787   42.4712 H   0  0  0  0  0  0  0  0  0  0  0  0
   57.9300   21.6981   42.4712 H   0  0  0  0  0  0  0  0  0  0  0  0
   53.8148   22.4804   44.6379 H   0  0  0  0  0  0  0  0  0  0  0  0
   53.6915   24.5004   46.0975 H   0  0  0  0  0  0  0  0  0  0  0  0
   56.1205   28.5239   44.5046 H   0  0  0  0  0  0  0  0  0  0  0  0
   55.6259   30.3704   42.9048 H   0  0  0  0  0  0  0  0  0  0  0  0
   56.9395   32.4569   43.0387 H   0  0  0  0  0  0  0  0  0  0  0  0
   59.2210   33.4270   43.8450 H   0  0  0  0  0  0  0  0  0  0  0  0
   61.8703   34.7552   45.8064 H   0  0  0  0  0  0  0  0  0  0  0  0
   64.1478   34.0103   46.4626 H   0  0  0  0  0  0  0  0  0  0  0  0
   64.3911   31.9308   47.8312 H   0  0  0  0  0  0  0  0  0  0  0  0
   62.3774   30.6762   48.4869 H   0  0  0  0  0  0  0  0  0  0  0  0
   60.1112   31.4211   47.8294 H   0  0  0  0  0  0  0  0  0  0  0  0
   59.2405   30.8819   46.3437 H   0  0  0  0  0  0  0  0  0  0  0  0
   58.6370   25.9680   44.7300 H   0  0  0  0  0  0  0  0  0  0  0  0
   57.7943   23.6360   43.5249 H   0  0  0  0  0  0  0  0  0  0  0  0
  1  2  1  0
  2  3  1  0
  3  4  2  0
  4  5  1  0
  5  6  2  0
  6  7  1  0
  7  8  2  0
  8  9  1  0
  9 10  1  0
 10 11  2  0
 11 12  1  0
 12 13  2  0
 13 14  1  0
 14 15  1  0
 15 16  1  0
 16 17  2  0
 16 18  2  0
 16 19  1  0
 19 20  2  0
 20 21  1  0
 21 22  2  0
 22 23  1  0
 23 24  2  0
 14 25  2  0
  8 26  1  0
 26 27  1  0
 27 28  2  0
 28  3  1  0
 27  6  1  0
 25 10  1  0
 24 19  1  0
  1 29  1  0
  1 30  1  0
  1 31  1  0
  4 32  1  0
  5 33  1  0
 11 34  1  0
 12 35  1  0
 13 36  1  0
 15 37  1  0
 20 38  1  0
 21 39  1  0
 22 40  1  0
 23 41  1  0
 24 42  1  0
 25 43  1  0
 26 44  1  0
 28 45  1  0
M  END
>  <smiles>  (20) 
COc1ccc2nc(Sc3cccc(NS(=O)(=O)c4ccccc4)c3)[nH]c2c1

>  <score_type>  (20) 
oracle

>  <origin>  (20) 
adg

>  <m_score__min__energy>  (20) 
-9.6600000000000001

>  <m_primary>  (20) 
energy

$$$$
20:0
     RDKit          3D

 25 26  0  0  0  0  0  0  0  0999 V2000
   54.7650   26.6840   47.1190 H   0  0  0  0  0  0  0  0  0  0  0  0
   55.1380   26.5090   46.1940 O   0  0  0  0  0  0  0  0  0  0  0  0
   56.0660   27.3780   45.6300 C   0  0  0  0  0  0  0  0  0  0  0  0
   55.7660   28.6280   45.2330 N   0  0  0  0  0  0  0  0  0  0  0  0
   56.9270   29.1280   44.7590 C   0  0  0  0  0  0  0  0  0  0  0  0
   57.0620   30.4810   44.1840 C   0  0  0  0  0  0  0  0  0  0  0  0
   57.4740   30.6060   42.9990 O   0  0  0  0  0  0  0  0  0  0  0  0
   56.6690   31.6590   44.9050 N   0  0  0  0  0  0  0  0  0  0  0  0
   57.4650   32.5810   45.3620 C   0  0  0  0  0  0  0  0  0  0  0  0
   57.9170   32.5490   46.6480 N   0  0  0  0  0  0  0  0  0  0  0  0
   58.7590   33.4940   47.1450 C   0  0  0  0  0  0  0  0  0  0  0  0
   59.2240   33.4060   48.5630 C   0  0  0  0  0  0  0  0  0  0  0  0
   58.3715   33.5673   49.2391 H   0  0  0  0  0  0  0  0  0  0  0  0
   59.6543   32.4105   48.7466 H   0  0  0  0  0  0  0  0  0  0  0  0
   59.9884   34.1754   48.7466 H   0  0  0  0  0  0  0  0  0  0  0  0
   59.2070   34.5290   46.3140 C   0  0  0  0  0  0  0  0  0  0  0  0
   59.8945   35.2953   46.7015 H   0  0  0  0  0  0  0  0  0  0  0  0
   58.7710   34.5770   44.9880 C   0  0  0  0  0  0  0  0  0  0  0  0
   59.1146   35.3841   44.3243 H   0  0  0  0  0  0  0  0  0  0  0  0
   57.8990   33.6000   44.5060 C   0  0  0  0  0  0  0  0  0  0  0  0
   57.5553   33.6304   43.4615 H   0  0  0  0  0  0  0  0  0  0  0  0
   57.9440   28.1930   44.8410 C   0  0  0  0  0  0  0  0  0  0  0  0
   58.9874   28.3228   44.5177 H   0  0  0  0  0  0  0  0  0  0  0  0
   57.3890   27.0680   45.4080 C   0  0  0  0  0  0  0  0  0  0  0  0
   57.8967   26.1192   45.6361 H   0  0  0  0  0  0  0  0  0  0  0  0
  1  2  1  0
  2  3  1  0
  3  4  1  0
  4  5  1  0
  5  6  1  0
  6  7  2  0
  6  8  1  0
  8  9  2  0
  9 10  1  0
 10 11  1  0
 11 12  1  0
 12 13  1  0
 12 14  1  0
 12 15  1  0
 11 16  2  0
 16 17  1  0
 16 18  1  0
 18 19  1  0
 18 20  2  0
 20 21  1  0
  5 22  2  0
 22 23  1  0
 22 24  1  0
 24 25  1  0
 24  3  2  0
 20  9  1  0
M  CHG  2   4  -1  10  -1
M  END
>  <UniqueID>  (21) 
20

>  <SMILES>  (21) 
Cc1ccc/c(=N/C(=O)c2ccc(O)[n-]2)[n-]1

>  <Energy>  (21) 
54.54457952866458

>  <Genealogy>  (21) 
Cc1cccc(=NC(=O)c2ccc(O)[n-]2)[n-]1 (protonated)
Cc1ccc/c(=N/C(=O)c2ccc(O)[n-]2)[n-]1 (cis-trans isomerization)
Cc1ccc/c(=N/C(=O)c2ccc(O)[n-]2)[n-]1 (3D coordinates assigned)
Cc1ccc/c(=N/C(=O)c2ccc(O)[n-]2)[n-]1 (optimized conformer: 54.54457952866458 kcal/mol)

>  <smiles>  (21) 
Cc1cccc(=NC(=O)c2ccc(O)[nH]2)[nH]1

>  <score_type>  (21) 
oracle

>  <origin>  (21) 
adg

>  <m_score__min__energy>  (21) 
-10.710000000000001

>  <m_primary>  (21) 
energy

$$$$
21:0
     RDKit          3D

 78 82  0  0  0  0  0  0  0  0999 V2000
   56.2740   31.3210   52.2740 C   0  0  0  0  0  0  0  0  0  0  0  0
   56.9730   30.1210   52.8400 C   0  0  0  0  0  0  0  0  0  0  0  0
   56.5010   29.2890   53.8470 C   0  0  0  0  0  0  0  0  0  0  0  0
   55.1720   29.3540   54.5490 C   0  0  0  0  0  0  0  0  0  0  0  0
   54.0430   28.7610   53.6950 C   0  0  0  0  0  0  0  0  0  0  0  0
   53.2770   29.8280   52.9530 C   0  0  0  0  0  0  0  0  0  0  0  0
   53.4380   29.9850   51.5660 C   0  0  0  0  0  0  0  0  0  0  0  0
   52.6950   30.9450   50.8730 C   0  0  0  0  0  0  0  0  0  0  0  0
   51.7800   31.7510   51.5580 C   0  0  0  0  0  0  0  0  0  0  0  0
   51.0440   32.7060   50.8680 O   0  0  0  0  0  0  0  0  0  0  0  0
   51.6050   31.5930   52.9350 C   0  0  0  0  0  0  0  0  0  0  0  0
   52.3460   30.6330   53.6310 C   0  0  0  0  0  0  0  0  0  0  0  0
   57.4170   28.2650   53.9760 C   0  0  0  0  0  0  0  0  0  0  0  0
   58.4220   28.4310   53.0970 N   0  0  0  0  0  0  0  0  0  0  0  0
   58.1600   29.5510   52.3900 C   0  0  0  0  0  0  0  0  0  0  0  0
   58.9840   30.0030   51.2480 C   0  0  0  0  0  0  0  0  0  0  0  0
   59.3640   31.2050   51.1860 O   0  0  0  0  0  0  0  0  0  0  0  0
   59.3380   29.0890   50.1990 N   0  0  0  0  0  0  0  0  0  0  0  0
   59.9090   29.5440   48.9280 C   0  0  0  0  0  0  0  0  0  0  0  0
   60.3540   28.3270   48.0890 C   0  0  0  0  0  0  0  0  0  0  0  0
   60.3900   28.6850   46.6000 C   0  0  0  0  0  0  0  0  0  0  0  0
   59.0460   29.0550   46.0950 N   0  0  0  0  0  0  0  0  0  0  0  0
   59.0770   29.7480   44.7850 C   0  0  0  0  0  0  0  0  0  0  0  0
   58.7850   31.2350   44.8710 C   0  0  0  0  0  0  0  0  0  0  0  0
   57.8470   31.8280   44.0090 C   0  0  0  0  0  0  0  0  0  0  0  0
   57.6070   33.2030   44.0630 C   0  0  0  0  0  0  0  0  0  0  0  0
   58.2880   34.0000   44.9850 C   0  0  0  0  0  0  0  0  0  0  0  0
   59.2120   33.4240   45.8730 C   0  0  0  0  0  0  0  0  0  0  0  0
   59.9110   34.2710   46.8670 C   0  0  0  0  0  0  0  0  0  0  0  0
   59.4380   35.4130   47.1350 O   0  0  0  0  0  0  0  0  0  0  0  0
   61.1060   33.8260   47.5410 N   0  0  0  0  0  0  0  0  0  0  0  0
   62.0980   32.9880   46.8490 C   0  0  0  0  0  0  0  0  0  0  0  0
   63.5160   33.4700   47.1760 C   0  0  0  0  0  0  0  0  0  0  0  0
   63.7930   33.5270   48.6950 C   0  0  0  0  0  0  0  0  0  0  0  0
   62.5180   33.5240   49.5580 C   0  0  0  0  0  0  0  0  0  0  0  0
   61.3800   34.3130   48.9020 C   0  0  0  0  0  0  0  0  0  0  0  0
   59.4320   32.0360   45.8290 C   0  0  0  0  0  0  0  0  0  0  0  0
   58.1350   29.6630   47.0970 C   0  0  0  0  0  0  0  0  0  0  0  0
   58.8990   30.4450   48.1750 C   0  0  0  0  0  0  0  0  0  0  0  0
   55.9061   31.9526   53.0960 H   0  0  0  0  0  0  0  0  0  0  0  0
   56.9777   31.8974   51.6554 H   0  0  0  0  0  0  0  0  0  0  0  0
   55.4255   30.9932   51.6554 H   0  0  0  0  0  0  0  0  0  0  0  0
   55.2394   28.7895   55.4907 H   0  0  0  0  0  0  0  0  0  0  0  0
   54.9373   30.4122   54.7364 H   0  0  0  0  0  0  0  0  0  0  0  0
   54.4788   28.0635   52.9645 H   0  0  0  0  0  0  0  0  0  0  0  0
   53.3424   28.2450   54.3680 H   0  0  0  0  0  0  0  0  0  0  0  0
   54.1525   29.3491   51.0227 H   0  0  0  0  0  0  0  0  0  0  0  0
   52.8300   31.0666   49.7881 H   0  0  0  0  0  0  0  0  0  0  0  0
   50.8829   32.2250   53.4727 H   0  0  0  0  0  0  0  0  0  0  0  0
   52.1995   30.5074   54.7139 H   0  0  0  0  0  0  0  0  0  0  0  0
   57.3372   27.4344   54.6927 H   0  0  0  0  0  0  0  0  0  0  0  0
   59.2140   27.7660   52.9540 H   0  0  0  0  0  0  0  0  0  0  0  0
   59.2840   28.0620   50.3810 H   0  0  0  0  0  0  0  0  0  0  0  0
   60.8019   30.1568   49.1207 H   0  0  0  0  0  0  0  0  0  0  0  0
   61.3584   28.0138   48.4102 H   0  0  0  0  0  0  0  0  0  0  0  0
   59.6346   27.5088   48.2405 H   0  0  0  0  0  0  0  0  0  0  0  0
   61.0728   29.5349   46.4536 H   0  0  0  0  0  0  0  0  0  0  0  0
   60.7362   27.8024   46.0422 H   0  0  0  0  0  0  0  0  0  0  0  0
   60.0771   29.6158   44.3464 H   0  0  0  0  0  0  0  0  0  0  0  0
   58.2838   29.3012   44.1676 H   0  0  0  0  0  0  0  0  0  0  0  0
   57.2982   31.2054   43.2871 H   0  0  0  0  0  0  0  0  0  0  0  0
   56.8787   33.6595   43.3765 H   0  0  0  0  0  0  0  0  0  0  0  0
   58.1004   35.0834   45.0164 H   0  0  0  0  0  0  0  0  0  0  0  0
   61.9841   31.9441   47.1766 H   0  0  0  0  0  0  0  0  0  0  0  0
   61.9350   33.0600   45.7635 H   0  0  0  0  0  0  0  0  0  0  0  0
   64.2372   32.7806   46.7127 H   0  0  0  0  0  0  0  0  0  0  0  0
   63.6178   34.4919   46.7820 H   0  0  0  0  0  0  0  0  0  0  0  0
   64.4004   32.6522   48.9701 H   0  0  0  0  0  0  0  0  0  0  0  0
   64.3114   34.4771   48.8914 H   0  0  0  0  0  0  0  0  0  0  0  0
   62.1908   32.4841   49.7048 H   0  0  0  0  0  0  0  0  0  0  0  0
   62.7560   34.0051   50.5182 H   0  0  0  0  0  0  0  0  0  0  0  0
   60.4707   34.2037   49.5113 H   0  0  0  0  0  0  0  0  0  0  0  0
   61.6818   35.3689   48.8383 H   0  0  0  0  0  0  0  0  0  0  0  0
   60.1181   31.5712   46.5523 H   0  0  0  0  0  0  0  0  0  0  0  0
   57.4481   30.3498   46.5808 H   0  0  0  0  0  0  0  0  0  0  0  0
   57.5875   28.8487   47.5942 H   0  0  0  0  0  0  0  0  0  0  0  0
   59.4457   31.2708   47.6963 H   0  0  0  0  0  0  0  0  0  0  0  0
   58.1692   30.8262   48.9044 H   0  0  0  0  0  0  0  0  0  0  0  0
  1  2  1  0
  2  3  1  0
  3  4  1  0
  4  5  1  0
  5  6  1  0
  6  7  2  0
  7  8  1  0
  8  9  2  0
  9 10  1  0
  9 11  1  0
 11 12  2  0
  3 13  2  0
 13 14  1  0
 14 15  1  0
 15 16  1  0
 16 17  2  0
 16 18  1  0
 18 19  1  0
 19 20  1  0
 20 21  1  0
 21 22  1  0
 22 23  1  0
 23 24  1  0
 24 25  2  0
 25 26  1  0
 26 27  2  0
 27 28  1  0
 28 29  1  0
 29 30  2  0
 29 31  1  0
 31 32  1  0
 32 33  1  0
 33 34  1  0
 34 35  1  0
 35 36  1  0
 28 37  2  0
 22 38  1  0
 38 39  1  0
 15  2  2  0
 39 19  1  0
 12  6  1  0
 37 24  1  0
 36 31  1  0
  1 40  1  0
  1 41  1  0
  1 42  1  0
  4 43  1  0
  4 44  1  0
  5 45  1  0
  5 46  1  0
  7 47  1  0
  8 48  1  0
 11 49  1  0
 12 50  1  0
 13 51  1  0
 14 52  1  0
 18 53  1  0
 19 54  1  0
 20 55  1  0
 20 56  1  0
 21 57  1  0
 21 58  1  0
 23 59  1  0
 23 60  1  0
 25 61  1  0
 26 62  1  0
 27 63  1  0
 32 64  1  0
 32 65  1  0
 33 66  1  0
 33 67  1  0
 34 68  1  0
 34 69  1  0
 35 70  1  0
 35 71  1  0
 36 72  1  0
 36 73  1  0
 37 74  1  0
 38 75  1  0
 38 76  1  0
 39 77  1  0
 39 78  1  0
M  CHG  1  10  -1
M  END
>  <UniqueID>  (22) 
21

>  <SMILES>  (22) 
Cc1c(CCc2ccc([O-])cc2)c[nH]c1C(=O)NC1CCN(Cc2cccc(C(=O)N3CCCCC3)c2)CC1

>  <Energy>  (22) 
116.36156311421456

>  <Genealogy>  (22) 
Cc1c(CCc2ccc([O-])cc2)c[nH]c1C(=O)NC1CCN(Cc2cccc(C(=O)N3CCCCC3)c2)CC1 (protonated)
Cc1c(CCc2ccc([O-])cc2)c[nH]c1C(=O)NC1CCN(Cc2cccc(C(=O)N3CCCCC3)c2)CC1 (3D coordinates assigned)
Cc1c(CCc2ccc([O-])cc2)c[nH]c1C(=O)NC1CCN(Cc2cccc(C(=O)N3CCCCC3)c2)CC1 (nonaromatic ring conformer: 116.36156311421456 kcal/mol)

>  <smiles>  (22) 
Cc1c(CCc2ccc(O)cc2)c[nH]c1C(=O)NC1CCN(Cc2cccc(C(=O)N3CCCCC3)c2)CC1

>  <score_type>  (22) 
oracle

>  <origin>  (22) 
adg

>  <m_score__min__energy>  (22) 
-14.65

>  <m_primary>  (22) 
energy

$$$$
22:0
     RDKit          3D

 51 55  0  0  0  0  0  0  0  0999 V2000
   56.0280   25.6340   46.6760 O   0  0  0  0  0  0  0  0  0  0  0  0
   56.6250   26.5680   46.0810 C   0  0  0  0  0  0  0  0  0  0  0  0
   58.0970   26.4630   45.7980 C   0  0  0  0  0  0  0  0  0  0  0  0
   58.7030   27.7940   45.6380 N   0  0  0  0  0  0  0  0  0  0  0  0
   60.0560   27.9980   46.0880 C   0  0  0  0  0  0  0  0  0  0  0  0
   60.8160   27.0030   46.2420 O   0  0  0  0  0  0  0  0  0  0  0  0
   60.5140   29.3480   46.4810 C   0  0  0  0  0  0  0  0  0  0  0  0
   60.1740   29.9800   47.6130 C   0  0  0  0  0  0  0  0  0  0  0  0
   60.8470   31.1800   48.1500 C   0  0  0  0  0  0  0  0  0  0  0  0
   61.9790   31.2090   48.9490 C   0  0  0  0  0  0  0  0  0  0  0  0
   62.3950   32.4880   49.0610 N   0  0  0  0  0  0  0  0  0  0  0  0
   63.5420   32.9520   49.8000 C   0  0  0  0  0  0  0  0  0  0  0  0
   64.8390   32.5280   49.4570 C   0  0  0  0  0  0  0  0  0  0  0  0
   65.9480   32.9820   50.1800 C   0  0  0  0  0  0  0  0  0  0  0  0
   65.7740   33.8600   51.2500 C   0  0  0  0  0  0  0  0  0  0  0  0
   64.4910   34.2880   51.6020 C   0  0  0  0  0  0  0  0  0  0  0  0
   63.3800   33.8380   50.8830 C   0  0  0  0  0  0  0  0  0  0  0  0
   61.5920   33.2660   48.3490 N   0  0  0  0  0  0  0  0  0  0  0  0
   60.6420   32.5020   47.7730 C   0  0  0  0  0  0  0  0  0  0  0  0
   59.5860   33.0300   46.8790 C   0  0  0  0  0  0  0  0  0  0  0  0
   59.8940   33.9980   45.9110 C   0  0  0  0  0  0  0  0  0  0  0  0
   58.8930   34.5000   45.0770 C   0  0  0  0  0  0  0  0  0  0  0  0
   57.5850   34.0370   45.2240 C   0  0  0  0  0  0  0  0  0  0  0  0
   57.2950   33.1100   46.1750 N   0  0  0  0  0  0  0  0  0  0  0  0
   58.2520   32.6030   46.9960 C   0  0  0  0  0  0  0  0  0  0  0  0
   57.9560   28.8410   44.9710 C   0  0  0  0  0  0  0  0  0  0  0  0
   58.5970   29.8950   44.2920 C   0  0  0  0  0  0  0  0  0  0  0  0
   57.8430   30.9010   43.6790 C   0  0  0  0  0  0  0  0  0  0  0  0
   56.4480   30.8600   43.7280 C   0  0  0  0  0  0  0  0  0  0  0  0
   55.8010   29.8050   44.3760 C   0  0  0  0  0  0  0  0  0  0  0  0
   56.5500   28.7900   44.9820 C   0  0  0  0  0  0  0  0  0  0  0  0
   55.8850   27.6950   45.6120 N   0  0  0  0  0  0  0  0  0  0  0  0
   58.5873   25.9435   46.6345 H   0  0  0  0  0  0  0  0  0  0  0  0
   58.2331   25.9028   44.8612 H   0  0  0  0  0  0  0  0  0  0  0  0
   61.1873   29.8755   45.7893 H   0  0  0  0  0  0  0  0  0  0  0  0
   59.3281   29.5734   48.1866 H   0  0  0  0  0  0  0  0  0  0  0  0
   62.4585   30.3352   49.4143 H   0  0  0  0  0  0  0  0  0  0  0  0
   64.9823   31.8350   48.6149 H   0  0  0  0  0  0  0  0  0  0  0  0
   66.9584   32.6460   49.9041 H   0  0  0  0  0  0  0  0  0  0  0  0
   66.6470   34.2156   51.8169 H   0  0  0  0  0  0  0  0  0  0  0  0
   64.3553   34.9801   52.4462 H   0  0  0  0  0  0  0  0  0  0  0  0
   62.3725   34.1780   51.1648 H   0  0  0  0  0  0  0  0  0  0  0  0
   61.6980   34.2990   48.2400 H   0  0  0  0  0  0  0  0  0  0  0  0
   60.9269   34.3624   45.8089 H   0  0  0  0  0  0  0  0  0  0  0  0
   59.1331   35.2529   44.3118 H   0  0  0  0  0  0  0  0  0  0  0  0
   56.7885   34.4221   44.5703 H   0  0  0  0  0  0  0  0  0  0  0  0
   57.9813   31.8549   47.7557 H   0  0  0  0  0  0  0  0  0  0  0  0
   59.6955   29.9273   44.2435 H   0  0  0  0  0  0  0  0  0  0  0  0
   58.3499   31.7261   43.1573 H   0  0  0  0  0  0  0  0  0  0  0  0
   55.8580   31.6593   43.2558 H   0  0  0  0  0  0  0  0  0  0  0  0
   54.7020   29.7721   44.4099 H   0  0  0  0  0  0  0  0  0  0  0  0
  1  2  2  0
  2  3  1  0
  3  4  1  0
  4  5  1  0
  5  6  2  0
  5  7  1  0
  7  8  2  3
  8  9  1  0
  9 10  2  0
 10 11  1  0
 11 12  1  0
 12 13  2  0
 13 14  1  0
 14 15  2  0
 15 16  1  0
 16 17  2  0
 11 18  1  0
 18 19  2  0
 19 20  1  0
 20 21  2  0
 21 22  1  0
 22 23  2  0
 23 24  1  0
 24 25  2  0
  4 26  1  0
 26 27  2  0
 27 28  1  0
 28 29  2  0
 29 30  1  0
 30 31  2  0
 31 32  1  0
 32  2  1  0
 19  9  1  0
 25 20  1  0
 31 26  1  0
 17 12  1  0
  3 33  1  0
  3 34  1  0
  7 35  1  0
  8 36  1  0
 10 37  1  0
 13 38  1  0
 14 39  1  0
 15 40  1  0
 16 41  1  0
 17 42  1  0
 18 43  1  0
 21 44  1  0
 22 45  1  0
 23 46  1  0
 25 47  1  0
 27 48  1  0
 28 49  1  0
 29 50  1  0
 30 51  1  0
M  CHG  2  18   1  32  -1
M  END
>  <UniqueID>  (23) 
22

>  <SMILES>  (23) 
O=C1CN(C(=O)C=Cc2cn(-c3ccccc3)[nH+]c2-c2cccnc2)c2ccccc2[N-]1

>  <Energy>  (23) 
109.06378795989644

>  <Genealogy>  (23) 
O=C1CN(C(=O)C=Cc2cn(-c3ccccc3)[nH+]c2-c2cccnc2)c2ccccc2[N-]1 (protonated)
O=C1CN(C(=O)C=Cc2cn(-c3ccccc3)[nH+]c2-c2cccnc2)c2ccccc2[N-]1 (3D coordinates assigned)
O=C1CN(C(=O)C=Cc2cn(-c3ccccc3)[nH+]c2-c2cccnc2)c2ccccc2[N-]1 (nonaromatic ring conformer: 109.06378795989644 kcal/mol)

>  <smiles>  (23) 
O=C1CN(C(=O)C=Cc2cn(-c3ccccc3)nc2-c2cccnc2)c2ccccc2N1

>  <score_type>  (23) 
oracle

>  <origin>  (23) 
adg

>  <m_score__min__energy>  (23) 
-10.65

>  <m_primary>  (23) 
energy

$$$$
23:0
     RDKit          3D

 45 47  0  0  0  0  0  0  0  0999 V2000
   55.5510   30.7440   44.4940 O   0  0  0  0  0  0  0  0  0  0  0  0
   56.3670   29.7920   44.6130 C   0  0  0  0  0  0  0  0  0  0  0  0
   57.7840   30.0110   44.1690 C   0  0  0  0  0  0  0  0  0  0  0  0
   58.2690   31.2350   44.7150 O   0  0  0  0  0  0  0  0  0  0  0  0
   58.5770   31.4330   46.0680 C   0  0  0  0  0  0  0  0  0  0  0  0
   58.8160   32.7390   46.5100 C   0  0  0  0  0  0  0  0  0  0  0  0
   59.1310   32.9900   47.8490 C   0  0  0  0  0  0  0  0  0  0  0  0
   59.2140   31.9310   48.7620 C   0  0  0  0  0  0  0  0  0  0  0  0
   59.5820   32.2310   50.4590 S   0  0  0  0  0  0  0  0  0  0  0  0
   60.6320   31.2700   50.9450 O   0  0  0  0  0  0  0  0  0  0  0  0
   58.3350   32.0270   51.2720 O   0  0  0  0  0  0  0  0  0  0  0  0
   60.1400   33.8620   50.6680 N   0  0  0  0  0  0  0  0  0  0  0  0
   61.5930   33.8740   50.8050 C   0  0  0  0  0  0  0  0  0  0  0  0
   62.2140   33.4580   49.5030 C   0  0  0  0  0  0  0  0  0  0  0  0
   61.9820   34.2080   48.3370 C   0  0  0  0  0  0  0  0  0  0  0  0
   62.5880   33.8410   47.1320 C   0  0  0  0  0  0  0  0  0  0  0  0
   63.4390   32.7330   47.0850 C   0  0  0  0  0  0  0  0  0  0  0  0
   63.6880   31.9920   48.2430 C   0  0  0  0  0  0  0  0  0  0  0  0
   63.0830   32.3560   49.4510 C   0  0  0  0  0  0  0  0  0  0  0  0
   58.9700   30.6220   48.3270 C   0  0  0  0  0  0  0  0  0  0  0  0
   58.6560   30.3710   46.9890 C   0  0  0  0  0  0  0  0  0  0  0  0
   55.8850   28.5470   45.1540 N   0  0  0  0  0  0  0  0  0  0  0  0
   56.5540   27.5430   45.6520 C   0  0  0  0  0  0  0  0  0  0  0  0
   57.9120   27.5710   45.7560 N   0  0  0  0  0  0  0  0  0  0  0  0
   58.6220   26.5300   46.2670 C   0  0  0  0  0  0  0  0  0  0  0  0
   57.9590   25.3840   46.7070 C   0  0  0  0  0  0  0  0  0  0  0  0
   56.5680   25.3230   46.6160 C   0  0  0  0  0  0  0  0  0  0  0  0
   55.8570   26.4040   46.0860 C   0  0  0  0  0  0  0  0  0  0  0  0
   54.4700   26.3410   45.9930 O   0  0  0  0  0  0  0  0  0  0  0  0
   58.4113   29.1786   44.5206 H   0  0  0  0  0  0  0  0  0  0  0  0
   57.8209   30.0593   43.0707 H   0  0  0  0  0  0  0  0  0  0  0  0
   58.7556   33.5753   45.7980 H   0  0  0  0  0  0  0  0  0  0  0  0
   59.3140   34.0210   48.1860 H   0  0  0  0  0  0  0  0  0  0  0  0
   61.9298   34.8881   51.0660 H   0  0  0  0  0  0  0  0  0  0  0  0
   61.8956   33.1755   51.5991 H   0  0  0  0  0  0  0  0  0  0  0  0
   61.3213   35.0867   48.3729 H   0  0  0  0  0  0  0  0  0  0  0  0
   62.3950   34.4247   46.2198 H   0  0  0  0  0  0  0  0  0  0  0  0
   63.9131   32.4442   46.1353 H   0  0  0  0  0  0  0  0  0  0  0  0
   64.3600   31.1220   48.2050 H   0  0  0  0  0  0  0  0  0  0  0  0
   63.2888   31.7769   50.3633 H   0  0  0  0  0  0  0  0  0  0  0  0
   59.0259   29.7880   49.0421 H   0  0  0  0  0  0  0  0  0  0  0  0
   58.4698   29.3400   46.6539 H   0  0  0  0  0  0  0  0  0  0  0  0
   59.7183   26.5914   46.3334 H   0  0  0  0  0  0  0  0  0  0  0  0
   58.5267   24.5377   47.1212 H   0  0  0  0  0  0  0  0  0  0  0  0
   56.0319   24.4264   46.9605 H   0  0  0  0  0  0  0  0  0  0  0  0
  1  2  2  0
  2  3  1  0
  3  4  1  0
  4  5  1  0
  5  6  2  0
  6  7  1  0
  7  8  2  0
  8  9  1  0
  9 10  2  0
  9 11  2  0
  9 12  1  0
 12 13  1  0
 13 14  1  0
 14 15  2  0
 15 16  1  0
 16 17  2  0
 17 18  1  0
 18 19  2  0
  8 20  1  0
 20 21  2  0
  2 22  1  0
 22 23  2  3
 23 24  1  0
 24 25  1  0
 25 26  2  0
 26 27  1  0
 27 28  2  0
 28 29  1  0
 21  5  1  0
 28 23  1  0
 19 14  1  0
  3 30  1  0
  3 31  1  0
  6 32  1  0
  7 33  1  0
 13 34  1  0
 13 35  1  0
 15 36  1  0
 16 37  1  0
 17 38  1  0
 18 39  1  0
 19 40  1  0
 20 41  1  0
 21 42  1  0
 25 43  1  0
 26 44  1  0
 27 45  1  0
M  CHG  3  12  -1  24  -1  29  -1
M  END
>  <UniqueID>  (24) 
23

>  <SMILES>  (24) 
O=C(COc1ccc(S(=O)(=O)[N-]Cc2ccccc2)cc1)N=c1[n-]cccc1[O-]

>  <Energy>  (24) 
49.28780877501555

>  <Genealogy>  (24) 
O=C(COc1ccc(S(=O)(=O)[N-]Cc2ccccc2)cc1)N=c1[n-]cccc1[O-] (protonated)
O=C(COc1ccc(S(=O)(=O)[N-]Cc2ccccc2)cc1)N=c1[n-]cccc1[O-] (3D coordinates assigned)
O=C(COc1ccc(S(=O)(=O)[N-]Cc2ccccc2)cc1)N=c1[n-]cccc1[O-] (optimized conformer: 49.28780877501555 kcal/mol)

>  <smiles>  (24) 
O=C(COc1ccc(S(=O)(=O)NCc2ccccc2)cc1)N=c1[nH]cccc1O

>  <score_type>  (24) 
oracle

>  <origin>  (24) 
adg

>  <m_score__min__energy>  (24) 
-14.56

>  <m_primary>  (24) 
energy

$$$$
24:0
     RDKit          3D

 55 58  0  0  0  0  0  0  0  0999 V2000
   64.3470   31.9820   47.9730 H   0  0  0  0  0  0  0  0  0  0  0  0
   63.7630   31.7430   48.7420 O   0  0  0  0  0  0  0  0  0  0  0  0
   62.4900   32.3090   48.5170 C   0  0  1  0  0  0  0  0  0  0  0  0
   62.4720   32.9460   47.1140 C   0  0  0  0  0  0  0  0  0  0  0  0
   62.4410   34.0414   47.2090 H   0  0  0  0  0  0  0  0  0  0  0  0
   63.3788   32.6510   46.5657 H   0  0  0  0  0  0  0  0  0  0  0  0
   61.5833   32.6003   46.5657 H   0  0  0  0  0  0  0  0  0  0  0  0
   61.3960   31.2210   48.6160 C   0  0  0  0  0  0  0  0  0  0  0  0
   61.5628   30.4709   47.8289 H   0  0  0  0  0  0  0  0  0  0  0  0
   60.4138   31.7002   48.4909 H   0  0  0  0  0  0  0  0  0  0  0  0
   61.4300   30.5250   49.9900 C   0  0  0  0  0  0  0  0  0  0  0  0
   62.1797   29.7207   49.9571 H   0  0  0  0  0  0  0  0  0  0  0  0
   60.4199   30.1368   50.1874 H   0  0  0  0  0  0  0  0  0  0  0  0
   61.7760   31.4500   51.1010 N   0  0  2  0  0  0  0  0  0  0  0  0
   62.8200   31.4080   51.2060 H   0  0  0  0  0  0  0  0  0  0  0  0
   61.2230   30.9950   52.3650 C   0  0  0  0  0  0  0  0  0  0  0  0
   62.0270   30.7120   53.2970 O   0  0  0  0  0  0  0  0  0  0  0  0
   59.7560   30.8260   52.6380 C   0  0  0  0  0  0  0  0  0  0  0  0
   59.0080   31.9520   53.0310 C   0  0  0  0  0  0  0  0  0  0  0  0
   59.5023   32.9321   53.1015 H   0  0  0  0  0  0  0  0  0  0  0  0
   57.6480   31.8450   53.3330 C   0  0  0  0  0  0  0  0  0  0  0  0
   57.0840   32.7376   53.6414 H   0  0  0  0  0  0  0  0  0  0  0  0
   57.0000   30.6080   53.2450 C   0  0  0  0  0  0  0  0  0  0  0  0
   55.6100   30.4930   53.6030 N   0  0  0  0  0  0  0  0  0  0  0  0
   55.1370   30.1070   54.8100 C   0  0  0  0  0  0  0  0  0  0  0  0
   55.9850   29.7320   55.9890 C   0  0  0  0  0  0  0  0  0  0  0  0
   55.4467   29.9700   56.9183 H   0  0  0  0  0  0  0  0  0  0  0  0
   56.2018   28.6541   55.9567 H   0  0  0  0  0  0  0  0  0  0  0  0
   56.9283   30.2969   55.9567 H   0  0  0  0  0  0  0  0  0  0  0  0
   53.7570   30.1400   54.8200 C   0  0  0  0  0  0  0  0  0  0  0  0
   53.0994   29.8644   55.6576 H   0  0  0  0  0  0  0  0  0  0  0  0
   53.3610   30.5880   53.5690 C   0  0  0  0  0  0  0  0  0  0  0  0
   52.0950   30.8200   53.1740 C   0  0  0  0  0  0  0  0  0  0  0  0
   51.3025   30.8238   53.9369 H   0  0  0  0  0  0  0  0  0  0  0  0
   51.7170   31.0690   51.7720 C   0  0  0  0  0  0  0  0  0  0  0  0
   51.8990   30.1780   50.7790 N   0  0  0  0  0  0  0  0  0  0  0  0
   51.3780   30.8060   49.7010 C   0  0  0  0  0  0  0  0  0  0  0  0
   51.3760   30.2910   48.5530 O   0  0  0  0  0  0  0  0  0  0  0  0
   50.8570   32.0280   49.9520 N   0  0  0  0  0  0  0  0  0  0  0  0
   51.0730   32.1760   51.2680 C   0  0  0  0  0  0  0  0  0  0  0  0
   50.6540   33.2820   52.0000 O   0  0  0  0  0  0  0  0  0  0  0  0
   54.5340   30.8010   52.8360 C   0  0  0  0  0  0  0  0  0  0  0  0
   54.6130   31.2110   51.5620 C   0  0  0  0  0  0  0  0  0  0  0  0
   55.5962   31.3445   51.0871 H   0  0  0  0  0  0  0  0  0  0  0  0
   53.6946   31.4139   50.9916 H   0  0  0  0  0  0  0  0  0  0  0  0
   57.7260   29.4800   52.8450 C   0  0  0  0  0  0  0  0  0  0  0  0
   57.1110   28.2750   52.7180 F   0  0  0  0  0  0  0  0  0  0  0  0
   59.0900   29.5840   52.5580 C   0  0  0  0  0  0  0  0  0  0  0  0
   59.6525   28.6851   52.2656 H   0  0  0  0  0  0  0  0  0  0  0  0
   61.4750   32.8770   50.8370 C   0  0  0  0  0  0  0  0  0  0  0  0
   61.7703   33.4719   51.7139 H   0  0  0  0  0  0  0  0  0  0  0  0
   60.3962   32.9701   50.6431 H   0  0  0  0  0  0  0  0  0  0  0  0
   62.2380   33.4030   49.5920 C   0  0  0  0  0  0  0  0  0  0  0  0
   63.2098   33.8002   49.9203 H   0  0  0  0  0  0  0  0  0  0  0  0
   61.6091   34.1769   49.1277 H   0  0  0  0  0  0  0  0  0  0  0  0
  1  2  1  0
  3  2  1  1
  3  4  1  0
  4  5  1  0
  4  6  1  0
  4  7  1  0
  3  8  1  0
  8  9  1  0
  8 10  1  0
  8 11  1  0
 11 12  1  0
 11 13  1  0
 11 14  1  0
 14 15  1  1
 14 16  1  0
 16 17  2  0
 16 18  1  0
 18 19  2  0
 19 20  1  0
 19 21  1  0
 21 22  1  0
 21 23  2  0
 23 24  1  0
 24 25  1  0
 25 26  1  0
 26 27  1  0
 26 28  1  0
 26 29  1  0
 25 30  2  0
 30 31  1  0
 30 32  1  0
 32 33  2  0
 33 34  1  0
 33 35  1  0
 35 36  1  0
 36 37  1  0
 37 38  2  0
 37 39  1  0
 39 40  1  0
 40 41  1  0
 32 42  1  0
 42 43  2  0
 43 44  1  0
 43 45  1  0
 23 46  1  0
 46 47  1  0
 46 48  2  0
 48 49  1  0
 14 50  1  0
 50 51  1  0
 50 52  1  0
 50 53  1  0
 53 54  1  0
 53 55  1  0
 53  3  1  0
 48 18  1  0
 42 24  1  0
 40 35  2  0
M  CHG  4  14   1  36  -1  39  -1  41  -1
M  END
>  <UniqueID>  (25) 
24

>  <SMILES>  (25) 
C=c1/c(=C/c2[n-]c(=O)[n-]c2[O-])cc(C)n1-c1ccc(C(=O)[NH+]2CCC(C)(O)CC2)cc1F

>  <Energy>  (25) 
145.60895459543298

>  <Genealogy>  (25) 
C=c1c(=Cc2[n-]c(=O)[n-]c2[O-])cc(C)n1-c1ccc(C(=O)[NH+]2CCC(C)(O)CC2)cc1F (protonated)
C=c1/c(=C/c2[n-]c(=O)[n-]c2[O-])cc(C)n1-c1ccc(C(=O)[NH+]2CCC(C)(O)CC2)cc1F (cis-trans isomerization)
C=c1/c(=C/c2[n-]c(=O)[n-]c2[O-])cc(C)n1-c1ccc(C(=O)[NH+]2CCC(C)(O)CC2)cc1F (3D coordinates assigned)
C=c1/c(=C/c2[n-]c(=O)[n-]c2[O-])cc(C)n1-c1ccc(C(=O)[NH+]2CCC(C)(O)CC2)cc1F (nonaromatic ring conformer: 145.60895459543298 kcal/mol)

>  <smiles>  (25) 
C=c1c(=Cc2[nH]c(=O)[nH]c2O)cc(C)n1-c1ccc(C(=O)N2CCC(C)(O)CC2)cc1F

>  <score_type>  (25) 
oracle

>  <origin>  (25) 
adg

>  <m_score__min__energy>  (25) 
-15.210000000000001

>  <m_primary>  (25) 
energy

$$$$
25:0
     RDKit          3D

 54 57  0  0  0  0  0  0  0  0999 V2000
   54.0930   24.5800   46.0230 O   0  0  0  0  0  0  0  0  0  0  0  0
   55.3140   24.7980   45.8000 C   0  0  0  0  0  0  0  0  0  0  0  0
   55.9190   25.9610   46.3840 N   0  0  0  0  0  0  0  0  0  0  0  0
   56.9580   26.7640   45.8040 C   0  0  0  0  0  0  0  0  0  0  0  0
   58.2870   26.3120   45.7280 C   0  0  0  0  0  0  0  0  0  0  0  0
   59.2760   27.1290   45.1710 C   0  0  0  0  0  0  0  0  0  0  0  0
   58.9450   28.3880   44.6660 C   0  0  0  0  0  0  0  0  0  0  0  0
   57.6180   28.8290   44.6960 C   0  0  0  0  0  0  0  0  0  0  0  0
   57.1940   30.4150   44.0530 S   0  0  0  0  0  0  0  0  0  0  0  0
   55.9000   30.8530   44.6800 O   0  0  0  0  0  0  0  0  0  0  0  0
   57.0180   30.3230   42.5610 O   0  0  0  0  0  0  0  0  0  0  0  0
   58.4520   31.5750   44.4260 N   0  0  0  0  0  0  0  0  0  0  0  0
   58.1080   32.9080   43.9020 C   0  0  0  0  0  0  0  0  0  0  0  0
   57.7740   33.8260   45.0760 C   0  0  0  0  0  0  0  0  0  0  0  0
   57.8070   32.9430   46.3040 C   0  0  0  0  0  0  0  0  0  0  0  0
   58.6030   31.7240   45.8790 C   0  0  0  0  0  0  0  0  0  0  0  0
   56.6280   28.0130   45.2640 C   0  0  0  0  0  0  0  0  0  0  0  0
   56.0970   23.8190   45.0070 C   0  0  0  0  0  0  0  0  0  0  0  0
   56.0250   23.8350   43.6030 C   0  0  0  0  0  0  0  0  0  0  0  0
   56.7260   22.9350   42.8630 N   0  0  0  0  0  0  0  0  0  0  0  0
   57.5170   21.9990   43.4490 C   0  0  0  0  0  0  0  0  0  0  0  0
   57.6360   21.9490   44.8390 C   0  0  0  0  0  0  0  0  0  0  0  0
   56.9240   22.8660   45.6360 C   0  0  0  0  0  0  0  0  0  0  0  0
   56.9980   22.8460   47.0410 O   0  0  0  0  0  0  0  0  0  0  0  0
   56.4710   21.8230   47.8860 C   0  0  0  0  0  0  0  0  0  0  0  0
   54.9750   21.9500   48.0250 C   0  0  0  0  0  0  0  0  0  0  0  0
   54.4180   22.4110   49.2310 C   0  0  0  0  0  0  0  0  0  0  0  0
   53.0320   22.5310   49.3660 C   0  0  0  0  0  0  0  0  0  0  0  0
   52.1920   22.1810   48.3060 C   0  0  0  0  0  0  0  0  0  0  0  0
   52.7360   21.7060   47.1100 C   0  0  0  0  0  0  0  0  0  0  0  0
   54.1210   21.5840   46.9680 C   0  0  0  0  0  0  0  0  0  0  0  0
   54.6270   21.1110   45.8010 F   0  0  0  0  0  0  0  0  0  0  0  0
   58.5496   25.3135   46.1075 H   0  0  0  0  0  0  0  0  0  0  0  0
   60.3179   26.7787   45.1306 H   0  0  0  0  0  0  0  0  0  0  0  0
   59.7290   29.0339   44.2440 H   0  0  0  0  0  0  0  0  0  0  0  0
   58.9625   33.3177   43.3435 H   0  0  0  0  0  0  0  0  0  0  0  0
   57.2422   32.8330   43.2276 H   0  0  0  0  0  0  0  0  0  0  0  0
   58.5209   34.6291   45.1602 H   0  0  0  0  0  0  0  0  0  0  0  0
   56.7946   34.3102   44.9487 H   0  0  0  0  0  0  0  0  0  0  0  0
   58.3031   33.4585   47.1395 H   0  0  0  0  0  0  0  0  0  0  0  0
   56.7983   32.6802   46.6554 H   0  0  0  0  0  0  0  0  0  0  0  0
   59.6643   31.8627   46.1329 H   0  0  0  0  0  0  0  0  0  0  0  0
   58.2374   30.8257   46.3979 H   0  0  0  0  0  0  0  0  0  0  0  0
   55.5835   28.3575   45.2853 H   0  0  0  0  0  0  0  0  0  0  0  0
   55.3956   24.5827   43.0983 H   0  0  0  0  0  0  0  0  0  0  0  0
   56.6590   22.9650   41.8200 H   0  0  0  0  0  0  0  0  0  0  0  0
   58.0659   21.2776   42.8258 H   0  0  0  0  0  0  0  0  0  0  0  0
   58.2841   21.1955   45.3104 H   0  0  0  0  0  0  0  0  0  0  0  0
   56.7093   20.8407   47.4521 H   0  0  0  0  0  0  0  0  0  0  0  0
   56.9242   21.9259   48.8830 H   0  0  0  0  0  0  0  0  0  0  0  0
   55.0755   22.6782   50.0714 H   0  0  0  0  0  0  0  0  0  0  0  0
   52.6020   22.9016   50.3082 H   0  0  0  0  0  0  0  0  0  0  0  0
   51.1017   22.2795   48.4131 H   0  0  0  0  0  0  0  0  0  0  0  0
   52.0725   21.4273   46.2780 H   0  0  0  0  0  0  0  0  0  0  0  0
  1  2  2  0
  2  3  1  0
  3  4  1  0
  4  5  2  0
  5  6  1  0
  6  7  2  0
  7  8  1  0
  8  9  1  0
  9 10  2  0
  9 11  2  0
  9 12  1  0
 12 13  1  0
 13 14  1  0
 14 15  1  0
 15 16  1  0
  8 17  2  0
  2 18  1  0
 18 19  2  0
 19 20  1  0
 20 21  2  0
 21 22  1  0
 22 23  2  0
 23 24  1  0
 24 25  1  0
 25 26  1  0
 26 27  2  0
 27 28  1  0
 28 29  2  0
 29 30  1  0
 30 31  2  0
 31 32  1  0
 17  4  1  0
 23 18  1  0
 31 26  1  0
 16 12  1  0
  5 33  1  0
  6 34  1  0
  7 35  1  0
 13 36  1  0
 13 37  1  0
 14 38  1  0
 14 39  1  0
 15 40  1  0
 15 41  1  0
 16 42  1  0
 16 43  1  0
 17 44  1  0
 19 45  1  0
 20 46  1  0
 21 47  1  0
 22 48  1  0
 25 49  1  0
 25 50  1  0
 27 51  1  0
 28 52  1  0
 29 53  1  0
 30 54  1  0
M  CHG  2   3  -1  20   1
M  END
>  <UniqueID>  (26) 
25

>  <SMILES>  (26) 
O=C([N-]c1cccc(S(=O)(=O)N2CCCC2)c1)c1c[nH+]ccc1OCc1ccccc1F

>  <Energy>  (26) 
66.6969203076689

>  <Genealogy>  (26) 
O=C([N-]c1cccc(S(=O)(=O)N2CCCC2)c1)c1c[nH+]ccc1OCc1ccccc1F (protonated)
O=C([N-]c1cccc(S(=O)(=O)N2CCCC2)c1)c1c[nH+]ccc1OCc1ccccc1F (3D coordinates assigned)
O=C([N-]c1cccc(S(=O)(=O)N2CCCC2)c1)c1c[nH+]ccc1OCc1ccccc1F (nonaromatic ring conformer: 66.6969203076689 kcal/mol)

>  <smiles>  (26) 
O=C(Nc1cccc(S(=O)(=O)N2CCCC2)c1)c1cnccc1OCc1ccccc1F

>  <score_type>  (26) 
oracle

>  <origin>  (26) 
adg

>  <m_score__min__energy>  (26) 
-10.029999999999999

>  <m_primary>  (26) 
energy

$$$$
26:0
     RDKit          3D

 40 42  0  0  0  0  0  0  0  0999 V2000
   52.5480   28.7410   53.8250 C   0  0  0  0  0  0  0  0  0  0  0  0
   53.6660   29.3590   53.4160 C   0  0  0  0  0  0  0  0  0  0  0  0
   54.8450   28.7550   53.7270 N   0  0  0  0  0  0  0  0  0  0  0  0
   56.0400   29.1380   53.2080 C   0  0  0  0  0  0  0  0  0  0  0  0
   57.2810   28.4190   53.6530 C   0  0  0  0  0  0  0  0  0  0  0  0
   56.0740   30.1570   52.2430 C   0  0  0  0  0  0  0  0  0  0  0  0
   57.3280   30.5560   51.5760 C   0  0  0  0  0  0  0  0  0  0  0  0
   57.9770   29.6860   50.9340 O   0  0  0  0  0  0  0  0  0  0  0  0
   57.8220   31.9060   51.6590 N   0  0  0  0  0  0  0  0  0  0  0  0
   58.5140   32.5040   50.5130 C   0  0  0  0  0  0  0  0  0  0  0  0
   59.5410   33.5310   50.9990 C   0  0  0  0  0  0  0  0  0  0  0  0
   58.9450   34.4560   51.8900 O   0  0  0  0  0  0  0  0  0  0  0  0
   58.5340   33.7880   53.0660 C   0  0  0  0  0  0  0  0  0  0  0  0
   57.4170   32.7870   52.7620 C   0  0  0  0  0  0  0  0  0  0  0  0
   54.8920   30.8370   51.9370 C   0  0  0  0  0  0  0  0  0  0  0  0
   53.6760   30.5130   52.5710 C   0  0  0  0  0  0  0  0  0  0  0  0
   52.6210   31.3360   52.3450 C   0  0  0  0  0  0  0  0  0  0  0  0
   51.8710   31.4600   51.0800 C   0  0  0  0  0  0  0  0  0  0  0  0
   51.3920   32.6140   50.5780 N   0  0  0  0  0  0  0  0  0  0  0  0
   50.9010   32.2490   49.3740 C   0  0  0  0  0  0  0  0  0  0  0  0
   50.3460   33.0660   48.5930 O   0  0  0  0  0  0  0  0  0  0  0  0
   51.0560   30.9430   49.0690 N   0  0  0  0  0  0  0  0  0  0  0  0
   51.6840   30.4620   50.1550 C   0  0  0  0  0  0  0  0  0  0  0  0
   52.0820   29.1370   50.3000 O   0  0  0  0  0  0  0  0  0  0  0  0
   51.5642   29.1805   53.6036 H   0  0  0  0  0  0  0  0  0  0  0  0
   52.6149   27.7947   54.3818 H   0  0  0  0  0  0  0  0  0  0  0  0
   57.3181   28.3975   54.7522 H   0  0  0  0  0  0  0  0  0  0  0  0
   57.2667   27.3893   53.2664 H   0  0  0  0  0  0  0  0  0  0  0  0
   58.1672   28.9435   53.2664 H   0  0  0  0  0  0  0  0  0  0  0  0
   59.0287   31.7145   49.9457 H   0  0  0  0  0  0  0  0  0  0  0  0
   57.7777   33.0067   49.8687 H   0  0  0  0  0  0  0  0  0  0  0  0
   60.3578   33.0068   51.5167 H   0  0  0  0  0  0  0  0  0  0  0  0
   59.9291   34.0802   50.1285 H   0  0  0  0  0  0  0  0  0  0  0  0
   59.3930   33.2504   53.4940 H   0  0  0  0  0  0  0  0  0  0  0  0
   58.1538   34.5337   53.7797 H   0  0  0  0  0  0  0  0  0  0  0  0
   57.2164   32.1811   53.6579 H   0  0  0  0  0  0  0  0  0  0  0  0
   56.5082   33.3352   52.4727 H   0  0  0  0  0  0  0  0  0  0  0  0
   54.9113   31.6410   51.1865 H   0  0  0  0  0  0  0  0  0  0  0  0
   52.2944   31.9697   53.1827 H   0  0  0  0  0  0  0  0  0  0  0  0
   52.6230   28.8460   51.1050 H   0  0  0  0  0  0  0  0  0  0  0  0
  1  2  2  0
  2  3  1  0
  3  4  2  0
  4  5  1  0
  4  6  1  0
  6  7  1  0
  7  8  2  0
  7  9  1  0
  9 10  1  0
 10 11  1  0
 11 12  1  0
 12 13  1  0
 13 14  1  0
  6 15  2  0
 15 16  1  0
 16 17  2  3
 17 18  1  0
 18 19  1  0
 19 20  1  0
 20 21  2  0
 20 22  1  0
 22 23  1  0
 23 24  1  0
 16  2  1  0
 23 18  2  0
 14  9  1  0
  1 25  1  0
  1 26  1  0
  5 27  1  0
  5 28  1  0
  5 29  1  0
 10 30  1  0
 10 31  1  0
 11 32  1  0
 11 33  1  0
 13 34  1  0
 13 35  1  0
 14 36  1  0
 14 37  1  0
 15 38  1  0
 17 39  1  0
 24 40  1  0
M  CHG  2  19  -1  22  -1
M  END
>  <UniqueID>  (27) 
26

>  <SMILES>  (27) 
C=c1nc(C)c(C(=O)N2CCOCC2)cc1=Cc1[n-]c(=O)[n-]c1O

>  <Energy>  (27) 
97.42034932871047

>  <Genealogy>  (27) 
C=c1nc(C)c(C(=O)N2CCOCC2)cc1=Cc1[n-]c(=O)[n-]c1O (protonated)
C=c1nc(C)c(C(=O)N2CCOCC2)cc1=Cc1[n-]c(=O)[n-]c1O (3D coordinates assigned)
C=c1nc(C)c(C(=O)N2CCOCC2)cc1=Cc1[n-]c(=O)[n-]c1O (nonaromatic ring conformer: 97.42034932871047 kcal/mol)

>  <smiles>  (27) 
C=c1nc(C)c(C(=O)N2CCOCC2)cc1=Cc1[nH]c(=O)[nH]c1O

>  <score_type>  (27) 
oracle

>  <origin>  (27) 
adg

>  <m_score__min__energy>  (27) 
-12.449999999999999

>  <m_primary>  (27) 
energy

$$$$
27:0
     RDKit          3D

 68 72  0  0  0  0  0  0  0  0999 V2000
   56.5480   25.3570   47.5110 O   0  0  0  0  0  0  0  0  0  0  0  0
   56.2570   25.9640   46.4430 C   0  0  0  0  0  0  0  0  0  0  0  0
   57.3380   26.5880   45.6150 C   0  0  0  0  0  0  0  0  0  0  0  0
   57.1420   28.0740   45.5410 C   0  0  0  0  0  0  0  0  0  0  0  0
   56.3530   28.6590   44.6200 N   0  0  0  0  0  0  0  0  0  0  0  0
   56.4970   29.9760   44.8720 C   0  0  0  0  0  0  0  0  0  0  0  0
   55.8990   30.8630   44.2090 O   0  0  0  0  0  0  0  0  0  0  0  0
   57.3360   30.2670   45.8860 N   0  0  0  0  0  0  0  0  0  0  0  0
   57.7520   29.0580   46.3090 C   0  0  0  0  0  0  0  0  0  0  0  0
   58.7270   28.8810   47.4030 C   0  0  0  0  0  0  0  0  0  0  0  0
   59.1840   27.7360   47.6640 O   0  0  0  0  0  0  0  0  0  0  0  0
   59.1510   30.0060   48.1830 N   0  0  0  0  0  0  0  0  0  0  0  0
   60.1290   29.8650   49.2190 C   0  0  0  0  0  0  0  0  0  0  0  0
   59.8860   28.9640   50.2650 C   0  0  0  0  0  0  0  0  0  0  0  0
   60.8710   28.7110   51.2320 C   0  0  0  0  0  0  0  0  0  0  0  0
   60.6110   27.7500   52.3210 C   0  0  0  0  0  0  0  0  0  0  0  0
   59.5930   27.9070   53.0470 O   0  0  0  0  0  0  0  0  0  0  0  0
   61.4880   26.6340   52.5570 N   0  0  0  0  0  0  0  0  0  0  0  0
   61.4900   25.8860   53.8040 C   0  0  0  0  0  0  0  0  0  0  0  0
   62.5060   24.7690   53.6060 C   0  0  0  0  0  0  0  0  0  0  0  0
   62.6990   24.6470   52.0950 C   0  0  0  0  0  0  0  0  0  0  0  0
   62.2700   25.9900   51.5140 C   0  0  0  0  0  0  0  0  0  0  0  0
   62.0890   29.4040   51.1720 C   0  0  0  0  0  0  0  0  0  0  0  0
   62.3210   30.3340   50.1560 C   0  0  0  0  0  0  0  0  0  0  0  0
   61.3500   30.5720   49.1700 C   0  0  0  0  0  0  0  0  0  0  0  0
   61.5780   31.5990   48.1870 N   0  0  0  0  0  0  0  0  0  0  0  0
   60.5440   32.6300   48.0120 C   0  0  0  0  0  0  0  0  0  0  0  0
   61.0740   33.8350   47.2350 C   0  0  0  0  0  0  0  0  0  0  0  0
   62.4150   34.0820   47.5930 O   0  0  0  0  0  0  0  0  0  0  0  0
   63.2360   33.0880   47.0140 C   0  0  0  0  0  0  0  0  0  0  0  0
   62.8810   31.6640   47.5020 C   0  0  0  0  0  0  0  0  0  0  0  0
   54.9010   26.0190   45.9920 N   0  0  0  0  0  0  0  0  0  0  0  0
   54.1400   24.8390   45.6060 C   0  0  0  0  0  0  0  0  0  0  0  0
   55.0720   23.7730   45.0990 C   0  0  0  0  0  0  0  0  0  0  0  0
   55.4660   22.7260   45.9500 C   0  0  0  0  0  0  0  0  0  0  0  0
   56.3080   21.7120   45.4780 C   0  0  0  0  0  0  0  0  0  0  0  0
   56.7610   21.7360   44.1550 C   0  0  0  0  0  0  0  0  0  0  0  0
   56.3640   22.7680   43.3000 C   0  0  0  0  0  0  0  0  0  0  0  0
   55.5210   23.7830   43.7660 C   0  0  0  0  0  0  0  0  0  0  0  0
   58.3154   26.3728   46.0716 H   0  0  0  0  0  0  0  0  0  0  0  0
   57.2980   26.1697   44.5984 H   0  0  0  0  0  0  0  0  0  0  0  0
   58.6150   30.9010   48.1260 H   0  0  0  0  0  0  0  0  0  0  0  0
   58.9150   28.4510   50.3284 H   0  0  0  0  0  0  0  0  0  0  0  0
   61.7893   26.5342   54.6408 H   0  0  0  0  0  0  0  0  0  0  0  0
   60.4918   25.4920   54.0455 H   0  0  0  0  0  0  0  0  0  0  0  0
   63.4576   25.0254   54.0945 H   0  0  0  0  0  0  0  0  0  0  0  0
   62.1601   23.8231   54.0483 H   0  0  0  0  0  0  0  0  0  0  0  0
   63.7543   24.4463   51.8582 H   0  0  0  0  0  0  0  0  0  0  0  0
   62.1106   23.8172   51.6764 H   0  0  0  0  0  0  0  0  0  0  0  0
   63.1509   26.5990   51.2629 H   0  0  0  0  0  0  0  0  0  0  0  0
   61.6902   25.8666   50.5874 H   0  0  0  0  0  0  0  0  0  0  0  0
   62.8649   29.2143   51.9283 H   0  0  0  0  0  0  0  0  0  0  0  0
   63.2728   30.8848   50.1280 H   0  0  0  0  0  0  0  0  0  0  0  0
   59.6966   32.1954   47.4615 H   0  0  0  0  0  0  0  0  0  0  0  0
   60.2310   32.9748   49.0086 H   0  0  0  0  0  0  0  0  0  0  0  0
   61.0163   33.6280   46.1562 H   0  0  0  0  0  0  0  0  0  0  0  0
   60.4651   34.7188   47.4760 H   0  0  0  0  0  0  0  0  0  0  0  0
   63.1170   33.1256   45.9211 H   0  0  0  0  0  0  0  0  0  0  0  0
   64.2730   33.2948   47.3169 H   0  0  0  0  0  0  0  0  0  0  0  0
   62.8536   30.9918   46.6317 H   0  0  0  0  0  0  0  0  0  0  0  0
   63.6504   31.3635   48.2285 H   0  0  0  0  0  0  0  0  0  0  0  0
   53.5901   24.4578   46.4791 H   0  0  0  0  0  0  0  0  0  0  0  0
   53.4311   25.1094   44.8096 H   0  0  0  0  0  0  0  0  0  0  0  0
   55.1113   22.7033   46.9910 H   0  0  0  0  0  0  0  0  0  0  0  0
   56.6137   20.8953   46.1485 H   0  0  0  0  0  0  0  0  0  0  0  0
   57.4293   20.9433   43.7876 H   0  0  0  0  0  0  0  0  0  0  0  0
   56.7153   22.7823   42.2577 H   0  0  0  0  0  0  0  0  0  0  0  0
   55.2086   24.5909   43.0880 H   0  0  0  0  0  0  0  0  0  0  0  0
  1  2  2  0
  2  3  1  0
  3  4  1  0
  4  5  1  0
  5  6  1  0
  6  7  2  0
  6  8  1  0
  8  9  1  0
  9 10  1  0
 10 11  2  0
 10 12  1  0
 12 13  1  0
 13 14  2  0
 14 15  1  0
 15 16  1  0
 16 17  2  0
 16 18  1  0
 18 19  1  0
 19 20  1  0
 20 21  1  0
 21 22  1  0
 15 23  2  0
 23 24  1  0
 24 25  2  0
 25 26  1  0
 26 27  1  0
 27 28  1  0
 28 29  1  0
 29 30  1  0
 30 31  1  0
  2 32  1  0
 32 33  1  0
 33 34  1  0
 34 35  2  0
 35 36  1  0
 36 37  2  0
 37 38  1  0
 38 39  2  0
  9  4  2  0
 25 13  1  0
 31 26  1  0
 39 34  1  0
 22 18  1  0
  3 40  1  0
  3 41  1  0
 12 42  1  0
 14 43  1  0
 19 44  1  0
 19 45  1  0
 20 46  1  0
 20 47  1  0
 21 48  1  0
 21 49  1  0
 22 50  1  0
 22 51  1  0
 23 52  1  0
 24 53  1  0
 27 54  1  0
 27 55  1  0
 28 56  1  0
 28 57  1  0
 30 58  1  0
 30 59  1  0
 31 60  1  0
 31 61  1  0
 33 62  1  0
 33 63  1  0
 35 64  1  0
 36 65  1  0
 37 66  1  0
 38 67  1  0
 39 68  1  0
M  CHG  3   5  -1   8  -1  32  -1
M  END
>  <UniqueID>  (28) 
27

>  <SMILES>  (28) 
O=C(Cc1[n-]c(=O)[n-]c1C(=O)Nc1cc(C(=O)N2CCCC2)ccc1N1CCOCC1)[N-]Cc1ccccc1

>  <Energy>  (28) 
115.92969639378289

>  <Genealogy>  (28) 
O=C(Cc1[n-]c(=O)[n-]c1C(=O)Nc1cc(C(=O)N2CCCC2)ccc1N1CCOCC1)[N-]Cc1ccccc1 (protonated)
O=C(Cc1[n-]c(=O)[n-]c1C(=O)Nc1cc(C(=O)N2CCCC2)ccc1N1CCOCC1)[N-]Cc1ccccc1 (3D coordinates assigned)
O=C(Cc1[n-]c(=O)[n-]c1C(=O)Nc1cc(C(=O)N2CCCC2)ccc1N1CCOCC1)[N-]Cc1ccccc1 (nonaromatic ring conformer: 115.92969639378289 kcal/mol)

>  <smiles>  (28) 
O=C(Cc1[nH]c(=O)[nH]c1C(=O)Nc1cc(C(=O)N2CCCC2)ccc1N1CCOCC1)NCc1ccccc1

>  <score_type>  (28) 
oracle

>  <origin>  (28) 
adg

>  <m_score__min__energy>  (28) 
-14.84

>  <m_primary>  (28) 
energy

$$$$
28:0
     RDKit          3D

 52 55  0  0  0  0  0  0  0  0999 V2000
   61.1400   29.6790   46.2320 O   0  0  0  0  0  0  0  0  0  0  0  0
   60.1510   29.0520   46.7020 C   0  0  0  0  0  0  0  0  0  0  0  0
   59.8140   29.2110   48.1460 C   0  0  0  0  0  0  0  0  0  0  0  0
   58.8800   30.1890   48.5460 C   0  0  0  0  0  0  0  0  0  0  0  0
   58.5790   30.3740   49.9000 C   0  0  0  0  0  0  0  0  0  0  0  0
   59.2150   29.5950   50.8690 C   0  0  0  0  0  0  0  0  0  0  0  0
   60.1480   28.6240   50.4850 C   0  0  0  0  0  0  0  0  0  0  0  0
   60.4460   28.4280   49.1290 C   0  0  0  0  0  0  0  0  0  0  0  0
   59.3950   28.1450   45.8030 C   0  0  0  0  0  0  0  0  0  0  0  0
   59.2600   26.7910   46.1660 C   0  0  0  0  0  0  0  0  0  0  0  0
   58.5310   25.9070   45.3630 C   0  0  0  0  0  0  0  0  0  0  0  0
   58.3390   24.0750   45.8930 Br  0  0  0  0  0  0  0  0  0  0  0  0
   57.9300   26.3680   44.1880 C   0  0  0  0  0  0  0  0  0  0  0  0
   58.0650   27.7070   43.8070 C   0  0  0  0  0  0  0  0  0  0  0  0
   58.8070   28.5980   44.5950 C   0  0  0  0  0  0  0  0  0  0  0  0
   58.9970   29.9370   44.1220 N   0  0  0  0  0  0  0  0  0  0  0  0
   57.8260   31.1770   44.4240 S   0  0  0  0  0  0  0  0  0  0  0  0
   57.3610   31.7490   43.1150 O   0  0  0  0  0  0  0  0  0  0  0  0
   56.6450   30.5950   45.1470 O   0  0  0  0  0  0  0  0  0  0  0  0
   58.5570   32.4670   45.3820 C   0  0  0  0  0  0  0  0  0  0  0  0
   57.9470   33.7200   45.4680 C   0  0  0  0  0  0  0  0  0  0  0  0
   58.5150   34.7180   46.2580 C   0  0  0  0  0  0  0  0  0  0  0  0
   59.6980   34.4750   46.9630 C   0  0  0  0  0  0  0  0  0  0  0  0
   60.3430   33.2140   46.8990 C   0  0  0  0  0  0  0  0  0  0  0  0
   61.5950   32.9580   47.6200 N   0  0  0  0  0  0  0  0  0  0  0  0
   62.7920   33.7600   47.2790 C   0  0  0  0  0  0  0  0  0  0  0  0
   64.0450   33.4370   48.1090 C   0  0  0  0  0  0  0  0  0  0  0  0
   64.1300   32.0140   48.4340 N   0  0  0  0  0  0  0  0  0  0  0  0
   62.9980   31.6590   49.2870 C   0  0  0  0  0  0  0  0  0  0  0  0
   61.6680   31.7920   48.5350 C   0  0  0  0  0  0  0  0  0  0  0  0
   59.7390   32.2150   46.0940 C   0  0  0  0  0  0  0  0  0  0  0  0
   58.3838   30.8118   47.7871 H   0  0  0  0  0  0  0  0  0  0  0  0
   57.8417   31.1328   50.2010 H   0  0  0  0  0  0  0  0  0  0  0  0
   58.9830   29.7442   51.9339 H   0  0  0  0  0  0  0  0  0  0  0  0
   60.6490   28.0127   51.2500 H   0  0  0  0  0  0  0  0  0  0  0  0
   61.1758   27.6600   48.8331 H   0  0  0  0  0  0  0  0  0  0  0  0
   59.7322   26.4249   47.0896 H   0  0  0  0  0  0  0  0  0  0  0  0
   57.3491   25.6755   43.5611 H   0  0  0  0  0  0  0  0  0  0  0  0
   57.5859   28.0632   42.8831 H   0  0  0  0  0  0  0  0  0  0  0  0
   57.0187   33.9194   44.9126 H   0  0  0  0  0  0  0  0  0  0  0  0
   58.0298   35.7028   46.3273 H   0  0  0  0  0  0  0  0  0  0  0  0
   60.1355   35.2756   47.5775 H   0  0  0  0  0  0  0  0  0  0  0  0
   63.0297   33.5856   46.2192 H   0  0  0  0  0  0  0  0  0  0  0  0
   62.5359   34.8065   47.5011 H   0  0  0  0  0  0  0  0  0  0  0  0
   64.9371   33.7245   47.5333 H   0  0  0  0  0  0  0  0  0  0  0  0
   63.9843   33.9998   49.0522 H   0  0  0  0  0  0  0  0  0  0  0  0
   64.0910   31.4530   47.5500 H   0  0  0  0  0  0  0  0  0  0  0  0
   63.1162   30.6186   49.6241 H   0  0  0  0  0  0  0  0  0  0  0  0
   62.9813   32.3474   50.1448 H   0  0  0  0  0  0  0  0  0  0  0  0
   61.5157   30.8787   47.9412 H   0  0  0  0  0  0  0  0  0  0  0  0
   60.8898   31.9424   49.2978 H   0  0  0  0  0  0  0  0  0  0  0  0
   60.2071   31.2219   46.0265 H   0  0  0  0  0  0  0  0  0  0  0  0
  1  2  2  0
  2  3  1  0
  3  4  2  0
  4  5  1  0
  5  6  2  0
  6  7  1  0
  7  8  2  0
  2  9  1  0
  9 10  2  0
 10 11  1  0
 11 12  1  0
 11 13  2  0
 13 14  1  0
 14 15  2  0
 15 16  1  0
 16 17  1  0
 17 18  2  0
 17 19  2  0
 17 20  1  0
 20 21  2  0
 21 22  1  0
 22 23  2  0
 23 24  1  0
 24 25  1  0
 25 26  1  0
 26 27  1  0
 27 28  1  0
 28 29  1  0
 29 30  1  0
 24 31  2  0
  8  3  1  0
 15  9  1  0
 31 20  1  0
 30 25  1  0
  4 32  1  0
  5 33  1  0
  6 34  1  0
  7 35  1  0
  8 36  1  0
 10 37  1  0
 13 38  1  0
 14 39  1  0
 21 40  1  0
 22 41  1  0
 23 42  1  0
 26 43  1  0
 26 44  1  0
 27 45  1  0
 27 46  1  0
 28 47  1  0
 29 48  1  0
 29 49  1  0
 30 50  1  0
 30 51  1  0
 31 52  1  0
M  CHG  1  16  -1
M  END
>  <UniqueID>  (29) 
28

>  <SMILES>  (29) 
O=C(c1ccccc1)c1cc(Br)ccc1[N-]S(=O)(=O)c1cccc(N2CCNCC2)c1

>  <Energy>  (29) 
77.01386993829864

>  <Genealogy>  (29) 
O=C(c1ccccc1)c1cc(Br)ccc1[N-]S(=O)(=O)c1cccc(N2CCNCC2)c1 (protonated)
O=C(c1ccccc1)c1cc(Br)ccc1[N-]S(=O)(=O)c1cccc(N2CCNCC2)c1 (3D coordinates assigned)
O=C(c1ccccc1)c1cc(Br)ccc1[N-]S(=O)(=O)c1cccc(N2CCNCC2)c1 (nonaromatic ring conformer: 77.01386993829864 kcal/mol)

>  <smiles>  (29) 
O=C(c1ccccc1)c1cc(Br)ccc1NS(=O)(=O)c1cccc(N2CCNCC2)c1

>  <score_type>  (29) 
oracle

>  <origin>  (29) 
adg

>  <m_score__min__energy>  (29) 
-11.66

>  <m_primary>  (29) 
energy

$$$$
29:0
     RDKit          3D

 47 50  0  0  0  0  0  0  0  0999 V2000
   60.1070   29.5980   44.9990 C   0  0  0  0  0  0  0  0  0  0  0  0
   59.7350   29.3550   46.2650 C   0  0  0  0  0  0  0  0  0  0  0  0
   59.0090   28.2500   46.7300 C   0  0  0  0  0  0  0  0  0  0  0  0
   58.5530   27.2150   45.9900 C   0  0  0  0  0  0  0  0  0  0  0  0
   57.2470   26.5390   46.1640 C   0  0  0  0  0  0  0  0  0  0  0  0
   56.0990   26.8670   45.5450 N   0  0  0  0  0  0  0  0  0  0  0  0
   55.2220   25.9440   45.9960 C   0  0  0  0  0  0  0  0  0  0  0  0
   54.0150   25.9240   45.6390 O   0  0  0  0  0  0  0  0  0  0  0  0
   55.7400   25.0450   46.8580 N   0  0  0  0  0  0  0  0  0  0  0  0
   57.0230   25.4330   46.9500 C   0  0  0  0  0  0  0  0  0  0  0  0
   57.9740   24.7890   47.7360 O   0  0  0  0  0  0  0  0  0  0  0  0
   58.8770   28.4280   48.1030 C   0  0  0  0  0  0  0  0  0  0  0  0
   59.5040   29.6170   48.4140 C   0  0  0  0  0  0  0  0  0  0  0  0
   59.6440   30.1650   49.8020 C   0  0  0  0  0  0  0  0  0  0  0  0
   60.0370   30.1710   47.3040 N   0  0  0  0  0  0  0  0  0  0  0  0
   60.7710   31.4070   47.2450 C   0  0  0  0  0  0  0  0  0  0  0  0
   62.1720   31.3690   47.1880 C   0  0  0  0  0  0  0  0  0  0  0  0
   62.9070   32.5560   47.1460 C   0  0  0  0  0  0  0  0  0  0  0  0
   62.2490   33.7870   47.1750 C   0  0  0  0  0  0  0  0  0  0  0  0
   60.8550   33.8350   47.2370 C   0  0  0  0  0  0  0  0  0  0  0  0
   60.1020   32.6510   47.2480 C   0  0  0  0  0  0  0  0  0  0  0  0
   58.6300   32.7190   47.3270 C   0  0  0  0  0  0  0  0  0  0  0  0
   58.0540   32.2990   48.3630 O   0  0  0  0  0  0  0  0  0  0  0  0
   57.8320   33.2150   46.2440 N   0  0  0  0  0  0  0  0  0  0  0  0
   58.1850   33.1440   44.8290 C   0  0  0  0  0  0  0  0  0  0  0  0
   57.5820   31.9340   44.1900 C   0  0  0  0  0  0  0  0  0  0  0  0
   57.0530   30.8410   44.8650 C   0  0  0  0  0  0  0  0  0  0  0  0
   56.5040   29.8790   44.0090 C   0  0  0  0  0  0  0  0  0  0  0  0
   56.5840   30.2180   42.6640 C   0  0  0  0  0  0  0  0  0  0  0  0
   57.3360   31.7180   42.5400 S   0  0  0  0  0  0  0  0  0  0  0  0
   60.6782   30.5068   44.7584 H   0  0  0  0  0  0  0  0  0  0  0  0
   59.8408   28.8885   44.2017 H   0  0  0  0  0  0  0  0  0  0  0  0
   59.2087   26.8426   45.1892 H   0  0  0  0  0  0  0  0  0  0  0  0
   58.5250   25.3080   48.4070 H   0  0  0  0  0  0  0  0  0  0  0  0
   58.3700   27.7508   48.8061 H   0  0  0  0  0  0  0  0  0  0  0  0
   59.4405   29.3685   50.5329 H   0  0  0  0  0  0  0  0  0  0  0  0
   60.6673   30.5420   49.9459 H   0  0  0  0  0  0  0  0  0  0  0  0
   58.9269   30.9866   49.9459 H   0  0  0  0  0  0  0  0  0  0  0  0
   62.6938   30.4007   47.1763 H   0  0  0  0  0  0  0  0  0  0  0  0
   64.0050   32.5209   47.0900 H   0  0  0  0  0  0  0  0  0  0  0  0
   62.8299   34.7208   47.1490 H   0  0  0  0  0  0  0  0  0  0  0  0
   60.3434   34.8079   47.2775 H   0  0  0  0  0  0  0  0  0  0  0  0
   57.8122   34.0445   44.3190 H   0  0  0  0  0  0  0  0  0  0  0  0
   59.2797   33.0794   44.7421 H   0  0  0  0  0  0  0  0  0  0  0  0
   57.0644   30.7417   45.9604 H   0  0  0  0  0  0  0  0  0  0  0  0
   56.0517   28.9426   44.3676 H   0  0  0  0  0  0  0  0  0  0  0  0
   56.2182   29.6096   41.8237 H   0  0  0  0  0  0  0  0  0  0  0  0
  1  2  2  0
  2  3  1  0
  3  4  2  3
  4  5  1  0
  5  6  1  0
  6  7  1  0
  7  8  2  0
  7  9  1  0
  9 10  1  0
 10 11  1  0
  3 12  1  0
 12 13  2  0
 13 14  1  0
 13 15  1  0
 15 16  1  0
 16 17  2  0
 17 18  1  0
 18 19  2  0
 19 20  1  0
 20 21  2  0
 21 22  1  0
 22 23  2  0
 22 24  1  0
 24 25  1  0
 25 26  1  0
 26 27  2  0
 27 28  1  0
 28 29  2  0
 29 30  1  0
 15  2  1  0
 21 16  1  0
 30 26  1  0
 10  5  2  0
  1 31  1  0
  1 32  1  0
  4 33  1  0
 11 34  1  0
 12 35  1  0
 14 36  1  0
 14 37  1  0
 14 38  1  0
 17 39  1  0
 18 40  1  0
 19 41  1  0
 20 42  1  0
 25 43  1  0
 25 44  1  0
 27 45  1  0
 28 46  1  0
 29 47  1  0
M  CHG  3   6  -1   9  -1  24  -1
M  END
>  <UniqueID>  (30) 
29

>  <SMILES>  (30) 
C=c1c(=Cc2[n-]c(=O)[n-]c2O)cc(C)n1-c1ccccc1C(=O)[N-]Cc1cccs1

>  <Energy>  (30) 
147.71924138245382

>  <Genealogy>  (30) 
C=c1c(=Cc2[n-]c(=O)[n-]c2O)cc(C)n1-c1ccccc1C(=O)[N-]Cc1cccs1 (protonated)
C=c1c(=Cc2[n-]c(=O)[n-]c2O)cc(C)n1-c1ccccc1C(=O)[N-]Cc1cccs1 (3D coordinates assigned)
C=c1c(=Cc2[n-]c(=O)[n-]c2O)cc(C)n1-c1ccccc1C(=O)[N-]Cc1cccs1 (optimized conformer: 147.71924138245382 kcal/mol)

>  <smiles>  (30) 
C=c1c(=Cc2[nH]c(=O)[nH]c2O)cc(C)n1-c1ccccc1C(=O)NCc1cccs1

>  <score_type>  (30) 
oracle

>  <origin>  (30) 
adg

>  <m_score__min__energy>  (30) 
-14.65

>  <m_primary>  (30) 
energy

$$$$
30:0
     RDKit          3D

 41 42  0  0  0  0  0  0  0  0999 V2000
   56.7110   31.9430   51.9520 N   0  0  0  0  0  0  0  0  0  0  0  0
   57.7810   30.5930   51.8040 S   0  0  0  0  0  0  0  0  0  0  0  0
   58.8710   30.6970   52.8340 O   0  0  0  0  0  0  0  0  0  0  0  0
   57.0130   29.3210   52.0400 O   0  0  0  0  0  0  0  0  0  0  0  0
   58.4870   30.5810   50.1920 C   0  0  0  0  0  0  0  0  0  0  0  0
   58.9900   29.3880   49.6610 C   0  0  0  0  0  0  0  0  0  0  0  0
   59.5610   29.3740   48.3860 C   0  0  0  0  0  0  0  0  0  0  0  0
   59.6400   30.5520   47.6370 C   0  0  0  0  0  0  0  0  0  0  0  0
   59.1520   31.7630   48.1620 C   0  0  0  0  0  0  0  0  0  0  0  0
   59.2530   33.0150   47.3780 C   0  0  0  0  0  0  0  0  0  0  0  0
   59.4810   34.1110   47.9620 O   0  0  0  0  0  0  0  0  0  0  0  0
   59.0970   32.9900   45.9530 N   0  0  0  0  0  0  0  0  0  0  0  0
   58.0110   33.6550   45.2440 C   0  0  0  0  0  0  0  0  0  0  0  0
   57.1740   32.6330   44.4690 C   0  0  0  0  0  0  0  0  0  0  0  0
   57.2360   31.3130   45.1160 N   0  0  0  0  0  0  0  0  0  0  0  0
   57.7710   30.2630   44.2320 C   0  0  0  0  0  0  0  0  0  0  0  0
   57.6720   28.8840   44.8500 C   0  0  0  0  0  0  0  0  0  0  0  0
   58.8370   28.1250   45.0530 C   0  0  0  0  0  0  0  0  0  0  0  0
   58.7630   26.8560   45.6310 C   0  0  0  0  0  0  0  0  0  0  0  0
   57.5270   26.3310   46.0110 C   0  0  0  0  0  0  0  0  0  0  0  0
   56.3570   27.0710   45.8170 C   0  0  0  0  0  0  0  0  0  0  0  0
   55.1360   26.5210   46.2080 O   0  0  0  0  0  0  0  0  0  0  0  0
   56.4250   28.3500   45.2340 C   0  0  0  0  0  0  0  0  0  0  0  0
   55.2600   29.0830   45.0320 O   0  0  0  0  0  0  0  0  0  0  0  0
   58.5740   31.7650   49.4460 C   0  0  0  0  0  0  0  0  0  0  0  0
   56.1170   31.9560   51.0920 H   0  0  0  0  0  0  0  0  0  0  0  0
   58.9357   28.4596   50.2485 H   0  0  0  0  0  0  0  0  0  0  0  0
   59.9498   28.4329   47.9699 H   0  0  0  0  0  0  0  0  0  0  0  0
   60.0861   30.5320   46.6317 H   0  0  0  0  0  0  0  0  0  0  0  0
   57.3681   34.1737   45.9704 H   0  0  0  0  0  0  0  0  0  0  0  0
   58.4387   34.3778   44.5336 H   0  0  0  0  0  0  0  0  0  0  0  0
   56.1278   32.9716   44.4386 H   0  0  0  0  0  0  0  0  0  0  0  0
   57.5766   32.5464   43.4490 H   0  0  0  0  0  0  0  0  0  0  0  0
   57.8370   31.3840   45.9700 H   0  0  0  0  0  0  0  0  0  0  0  0
   57.2023   30.2700   43.2904 H   0  0  0  0  0  0  0  0  0  0  0  0
   58.8360   30.4786   44.0606 H   0  0  0  0  0  0  0  0  0  0  0  0
   59.8139   28.5332   44.7546 H   0  0  0  0  0  0  0  0  0  0  0  0
   59.6803   26.2693   45.7870 H   0  0  0  0  0  0  0  0  0  0  0  0
   57.4732   25.3306   46.4651 H   0  0  0  0  0  0  0  0  0  0  0  0
   54.3100   27.0890   46.3530 H   0  0  0  0  0  0  0  0  0  0  0  0
   58.1871   32.7043   49.8678 H   0  0  0  0  0  0  0  0  0  0  0  0
  1  2  1  0
  2  3  2  0
  2  4  2  0
  2  5  1  0
  5  6  2  0
  6  7  1  0
  7  8  2  0
  8  9  1  0
  9 10  1  0
 10 11  2  0
 10 12  1  0
 12 13  1  0
 13 14  1  0
 14 15  1  0
 15 16  1  0
 16 17  1  0
 17 18  2  0
 18 19  1  0
 19 20  2  0
 20 21  1  0
 21 22  1  0
 21 23  2  0
 23 24  1  0
  9 25  2  0
 25  5  1  0
 23 17  1  0
  1 26  1  0
  6 27  1  0
  7 28  1  0
  8 29  1  0
 13 30  1  0
 13 31  1  0
 14 32  1  0
 14 33  1  0
 15 34  1  0
 16 35  1  0
 16 36  1  0
 18 37  1  0
 19 38  1  0
 20 39  1  0
 22 40  1  0
 25 41  1  0
M  CHG  3   1  -1  12  -1  24  -1
M  END
>  <UniqueID>  (31) 
30

>  <SMILES>  (31) 
[NH-]S(=O)(=O)c1cccc(C(=O)[N-]CCNCc2cccc(O)c2[O-])c1

>  <Energy>  (31) 
40.38293275051033

>  <Genealogy>  (31) 
[NH-]S(=O)(=O)c1cccc(C(=O)[N-]CCNCc2cccc(O)c2[O-])c1 (protonated)
[NH-]S(=O)(=O)c1cccc(C(=O)[N-]CCNCc2cccc(O)c2[O-])c1 (3D coordinates assigned)
[NH-]S(=O)(=O)c1cccc(C(=O)[N-]CCNCc2cccc(O)c2[O-])c1 (optimized conformer: 40.38293275051033 kcal/mol)

>  <smiles>  (31) 
NS(=O)(=O)c1cccc(C(=O)NCCNCc2cccc(O)c2O)c1

>  <score_type>  (31) 
oracle

>  <origin>  (31) 
adg

>  <m_score__min__energy>  (31) 
-13.890000000000001

>  <m_primary>  (31) 
energy

$$$$
31:0
     RDKit          3D

 64 67  0  0  0  0  0  0  0  0999 V2000
   56.6600   32.3180   42.8340 H   0  0  0  0  0  0  0  0  0  0  0  0
   57.4220   32.8310   43.2550 O   0  0  0  0  0  0  0  0  0  0  0  0
   58.0420   32.4590   44.4520 C   0  0  0  0  0  0  0  0  0  0  0  0
   58.2210   31.1190   44.7740 C   0  0  0  0  0  0  0  0  0  0  0  0
   57.7590   29.9440   43.9660 C   0  0  0  0  0  0  0  0  0  0  0  0
   57.9938   30.1184   42.9056 H   0  0  0  0  0  0  0  0  0  0  0  0
   58.2743   29.0403   44.3235 H   0  0  0  0  0  0  0  0  0  0  0  0
   56.2760   29.7530   44.1200 C   0  0  0  0  0  0  0  0  0  0  0  0
   55.4910   30.4700   43.4450 O   0  0  0  0  0  0  0  0  0  0  0  0
   55.7270   28.7320   44.9620 N   0  0  0  0  0  0  0  0  0  0  0  0
   56.4640   27.6900   45.6190 C   0  0  0  0  0  0  0  0  0  0  0  0
   57.8570   27.8080   45.7120 C   0  0  0  0  0  0  0  0  0  0  0  0
   58.3562   28.6999   45.3054 H   0  0  0  0  0  0  0  0  0  0  0  0
   58.6210   26.8010   46.3180 C   0  0  0  0  0  0  0  0  0  0  0  0
   60.3760   26.9730   46.4550 S   0  0  0  0  0  0  0  0  0  0  0  0
   61.0110   25.6170   46.3160 O   0  0  0  0  0  0  0  0  0  0  0  0
   60.8730   27.8370   45.3290 O   0  0  0  0  0  0  0  0  0  0  0  0
   60.8760   27.6800   47.9740 N   0  0  0  0  0  0  0  0  0  0  0  0
   60.1860   28.9390   48.2490 C   0  0  0  0  0  0  0  0  0  0  0  0
   60.7178   29.7759   47.7728 H   0  0  0  0  0  0  0  0  0  0  0  0
   59.1613   28.9270   47.8491 H   0  0  0  0  0  0  0  0  0  0  0  0
   60.1850   29.1090   49.7620 C   0  0  0  0  0  0  0  0  0  0  0  0
   60.9652   29.8207   50.0699 H   0  0  0  0  0  0  0  0  0  0  0  0
   59.2272   29.5070   50.1284 H   0  0  0  0  0  0  0  0  0  0  0  0
   60.4750   27.7250   50.3240 C   0  0  0  0  0  0  0  0  0  0  0  0
   61.4229   27.7263   50.8821 H   0  0  0  0  0  0  0  0  0  0  0  0
   59.6944   27.3943   51.0249 H   0  0  0  0  0  0  0  0  0  0  0  0
   60.5720   26.8140   49.1110 C   0  0  0  0  0  0  0  0  0  0  0  0
   61.3742   26.0748   49.2525 H   0  0  0  0  0  0  0  0  0  0  0  0
   59.6367   26.2573   48.9520 H   0  0  0  0  0  0  0  0  0  0  0  0
   57.9810   25.6660   46.8360 C   0  0  0  0  0  0  0  0  0  0  0  0
   58.5708   24.8827   47.3346 H   0  0  0  0  0  0  0  0  0  0  0  0
   56.5950   25.5280   46.7200 C   0  0  0  0  0  0  0  0  0  0  0  0
   56.0993   24.6305   47.1185 H   0  0  0  0  0  0  0  0  0  0  0  0
   55.8350   26.5250   46.1000 C   0  0  0  0  0  0  0  0  0  0  0  0
   54.4660   26.3350   45.9430 O   0  0  0  0  0  0  0  0  0  0  0  0
   58.9870   31.0260   46.2580 S   0  0  0  0  0  0  0  0  0  0  0  0
   59.0930   32.6920   46.4430 C   0  0  0  0  0  0  0  0  0  0  0  0
   59.6820   33.2070   47.4890 N   0  0  0  0  0  0  0  0  0  0  0  0
   61.0610   33.2110   47.8620 C   0  0  0  0  0  0  0  0  0  0  0  0
   61.4330   33.5710   49.1620 C   0  0  0  0  0  0  0  0  0  0  0  0
   60.6661   33.8793   49.8877 H   0  0  0  0  0  0  0  0  0  0  0  0
   62.7790   33.5390   49.5390 C   0  0  0  0  0  0  0  0  0  0  0  0
   63.0697   33.8571   50.5511 H   0  0  0  0  0  0  0  0  0  0  0  0
   63.7610   33.1050   48.6380 C   0  0  0  0  0  0  0  0  0  0  0  0
   65.1020   33.1150   49.0530 O   0  0  0  0  0  0  0  0  0  0  0  0
   65.6350   32.3520   50.1000 C   0  0  0  0  0  0  0  0  0  0  0  0
   64.9780   31.4090   50.6160 O   0  0  0  0  0  0  0  0  0  0  0  0
   66.9530   32.7360   50.6810 C   0  0  0  0  0  0  0  0  0  0  0  0
   66.8891   32.7174   51.7790 H   0  0  0  0  0  0  0  0  0  0  0  0
   67.7225   32.0247   50.3464 H   0  0  0  0  0  0  0  0  0  0  0  0
   67.2200   33.7493   50.3464 H   0  0  0  0  0  0  0  0  0  0  0  0
   63.3780   32.7120   47.3410 C   0  0  0  0  0  0  0  0  0  0  0  0
   64.1396   32.3752   46.6222 H   0  0  0  0  0  0  0  0  0  0  0  0
   62.0320   32.7490   46.9650 C   0  0  0  0  0  0  0  0  0  0  0  0
   61.7345   32.4138   45.9604 H   0  0  0  0  0  0  0  0  0  0  0  0
   58.5130   33.3570   45.3840 N   0  0  0  0  0  0  0  0  0  0  0  0
   58.3780   34.8110   45.2020 C   0  0  0  0  0  0  0  0  0  0  0  0
   57.5280   35.1709   45.8003 H   0  0  0  0  0  0  0  0  0  0  0  0
   58.2124   35.0164   44.1341 H   0  0  0  0  0  0  0  0  0  0  0  0
   59.6440   35.5380   45.6460 C   0  0  0  0  0  0  0  0  0  0  0  0
   59.6865   35.5624   46.7449 H   0  0  0  0  0  0  0  0  0  0  0  0
   60.5263   35.0090   45.2566 H   0  0  0  0  0  0  0  0  0  0  0  0
   59.6318   36.5667   45.2566 H   0  0  0  0  0  0  0  0  0  0  0  0
  1  2  1  0
  2  3  1  0
  3  4  2  0
  4  5  1  0
  5  6  1  0
  5  7  1  0
  5  8  1  0
  8  9  2  0
  8 10  1  0
 10 11  1  0
 11 12  2  0
 12 13  1  0
 12 14  1  0
 14 15  1  0
 15 16  2  0
 15 17  2  0
 15 18  1  0
 18 19  1  0
 19 20  1  0
 19 21  1  0
 19 22  1  0
 22 23  1  0
 22 24  1  0
 22 25  1  0
 25 26  1  0
 25 27  1  0
 25 28  1  0
 28 29  1  0
 28 30  1  0
 14 31  2  0
 31 32  1  0
 31 33  1  0
 33 34  1  0
 33 35  2  0
 35 36  1  0
  4 37  1  0
 37 38  1  0
 38 39  2  0
 39 40  1  0
 40 41  2  0
 41 42  1  0
 41 43  1  0
 43 44  1  0
 43 45  2  0
 45 46  1  0
 46 47  1  0
 47 48  2  0
 47 49  1  0
 49 50  1  0
 49 51  1  0
 49 52  1  0
 45 53  1  0
 53 54  1  0
 53 55  2  0
 55 56  1  0
 38 57  1  0
 57 58  1  0
 58 59  1  0
 58 60  1  0
 58 61  1  0
 61 62  1  0
 61 63  1  0
 61 64  1  0
 57  3  1  0
 35 11  1  0
 55 40  1  0
 28 18  1  0
M  CHG  2  10  -1  36  -1
M  END
>  <UniqueID>  (32) 
31

>  <SMILES>  (32) 
CCn1c(O)c(CC(=O)[N-]c2cc(S(=O)(=O)N3CCCC3)ccc2[O-])s/c1=N/c1ccc(OC(C)=O)cc1

>  <Energy>  (32) 
121.32124739960516

>  <Genealogy>  (32) 
CCn1c(O)c(CC(=O)[N-]c2cc(S(=O)(=O)N3CCCC3)ccc2[O-])sc1=Nc1ccc(OC(C)=O)cc1 (protonated)
CCn1c(O)c(CC(=O)[N-]c2cc(S(=O)(=O)N3CCCC3)ccc2[O-])s/c1=N/c1ccc(OC(C)=O)cc1 (cis-trans isomerization)
CCn1c(O)c(CC(=O)[N-]c2cc(S(=O)(=O)N3CCCC3)ccc2[O-])s/c1=N/c1ccc(OC(C)=O)cc1 (3D coordinates assigned)
CCn1c(O)c(CC(=O)[N-]c2cc(S(=O)(=O)N3CCCC3)ccc2[O-])s/c1=N/c1ccc(OC(C)=O)cc1 (nonaromatic ring conformer: 121.32124739960516 kcal/mol)

>  <smiles>  (32) 
CCn1c(O)c(CC(=O)Nc2cc(S(=O)(=O)N3CCCC3)ccc2O)sc1=Nc1ccc(OC(C)=O)cc1

>  <score_type>  (32) 
oracle

>  <origin>  (32) 
adg

>  <m_score__min__energy>  (32) 
-15.19

>  <m_primary>  (32) 
energy

$$$$
32:0
     RDKit          3D

 53 56  0  0  0  0  0  0  0  0999 V2000
   56.6530   29.1280   44.4700 C   0  0  0  0  0  0  0  0  0  0  0  0
   57.5230   28.8310   45.6710 C   0  0  0  0  0  0  0  0  0  0  0  0
   57.7230   27.5100   46.1460 C   0  0  0  0  0  0  0  0  0  0  0  0
   57.0490   26.3350   45.5520 C   0  0  0  0  0  0  0  0  0  0  0  0
   57.7100   25.5780   44.5730 C   0  0  0  0  0  0  0  0  0  0  0  0
   57.0900   24.4600   44.0100 C   0  0  0  0  0  0  0  0  0  0  0  0
   55.8160   24.0750   44.4340 C   0  0  0  0  0  0  0  0  0  0  0  0
   55.1650   24.7900   45.4540 C   0  0  0  0  0  0  0  0  0  0  0  0
   53.8490   24.4360   45.9010 N   0  0  0  0  0  0  0  0  0  0  0  0
   52.9120   23.5920   45.2180 C   0  0  0  0  0  0  0  0  0  0  0  0
   52.7710   22.4020   45.6090 O   0  0  0  0  0  0  0  0  0  0  0  0
   52.1360   24.0690   44.0240 C   0  0  0  0  0  0  0  0  0  0  0  0
   50.4480   24.4160   44.4760 Cl  0  0  0  0  0  0  0  0  0  0  0  0
   55.7800   25.9240   46.0000 C   0  0  0  0  0  0  0  0  0  0  0  0
   58.5560   27.2880   47.1590 O   0  0  0  0  0  0  0  0  0  0  0  0
   59.2010   28.2550   47.7990 C   0  0  0  0  0  0  0  0  0  0  0  0
   60.0610   27.9320   48.8520 C   0  0  0  0  0  0  0  0  0  0  0  0
   60.7430   28.9390   49.5400 C   0  0  0  0  0  0  0  0  0  0  0  0
   60.5660   30.2900   49.1820 C   0  0  0  0  0  0  0  0  0  0  0  0
   61.2300   31.3350   49.8400 O   0  0  0  0  0  0  0  0  0  0  0  0
   60.7870   31.9340   51.0550 C   0  0  0  0  0  0  0  0  0  0  0  0
   60.0580   33.2020   50.7540 C   0  0  0  0  0  0  0  0  0  0  0  0
   58.8740   33.3560   51.1590 O   0  0  0  0  0  0  0  0  0  0  0  0
   60.7050   34.2290   49.9940 N   0  0  0  0  0  0  0  0  0  0  0  0
   61.5570   33.9870   48.8670 C   0  0  0  0  0  0  0  0  0  0  0  0
   61.0080   34.0340   47.5720 C   0  0  0  0  0  0  0  0  0  0  0  0
   59.2970   34.3590   47.3310 Cl  0  0  0  0  0  0  0  0  0  0  0  0
   61.8190   33.8020   46.4570 C   0  0  0  0  0  0  0  0  0  0  0  0
   63.1790   33.5380   46.6200 C   0  0  0  0  0  0  0  0  0  0  0  0
   63.7410   33.5210   47.8990 C   0  0  0  0  0  0  0  0  0  0  0  0
   62.9420   33.7540   49.0250 C   0  0  0  0  0  0  0  0  0  0  0  0
   63.7260   33.8440   50.5970 Cl  0  0  0  0  0  0  0  0  0  0  0  0
   59.7000   30.6120   48.1300 C   0  0  0  0  0  0  0  0  0  0  0  0
   59.0170   29.6020   47.4270 C   0  0  0  0  0  0  0  0  0  0  0  0
   58.1620   29.8860   46.3510 C   0  0  0  0  0  0  0  0  0  0  0  0
   57.9710   31.0810   45.9900 O   0  0  0  0  0  0  0  0  0  0  0  0
   55.6627   29.4661   44.8092 H   0  0  0  0  0  0  0  0  0  0  0  0
   57.1219   29.9170   43.8637 H   0  0  0  0  0  0  0  0  0  0  0  0
   56.5416   28.2170   43.8637 H   0  0  0  0  0  0  0  0  0  0  0  0
   58.7205   25.8660   44.2475 H   0  0  0  0  0  0  0  0  0  0  0  0
   57.6067   23.8810   43.2303 H   0  0  0  0  0  0  0  0  0  0  0  0
   55.3210   23.2100   43.9684 H   0  0  0  0  0  0  0  0  0  0  0  0
   52.6016   24.9853   43.6320 H   0  0  0  0  0  0  0  0  0  0  0  0
   52.1443   23.2814   43.2561 H   0  0  0  0  0  0  0  0  0  0  0  0
   55.2666   26.4980   46.7855 H   0  0  0  0  0  0  0  0  0  0  0  0
   60.2018   26.8799   49.1407 H   0  0  0  0  0  0  0  0  0  0  0  0
   61.4213   28.6756   50.3650 H   0  0  0  0  0  0  0  0  0  0  0  0
   60.1135   31.2408   51.5802 H   0  0  0  0  0  0  0  0  0  0  0  0
   61.6571   32.1559   51.6904 H   0  0  0  0  0  0  0  0  0  0  0  0
   61.3830   33.8277   45.4474 H   0  0  0  0  0  0  0  0  0  0  0  0
   63.8099   33.3429   45.7403 H   0  0  0  0  0  0  0  0  0  0  0  0
   64.8161   33.3237   48.0220 H   0  0  0  0  0  0  0  0  0  0  0  0
   59.5519   31.6654   47.8500 H   0  0  0  0  0  0  0  0  0  0  0  0
  1  2  1  0
  2  3  2  0
  3  4  1  0
  4  5  2  0
  5  6  1  0
  6  7  2  0
  7  8  1  0
  8  9  1  0
  9 10  1  0
 10 11  2  0
 10 12  1  0
 12 13  1  0
  8 14  2  0
  3 15  1  0
 15 16  1  0
 16 17  2  0
 17 18  1  0
 18 19  2  0
 19 20  1  0
 20 21  1  0
 21 22  1  0
 22 23  2  0
 22 24  1  0
 24 25  1  0
 25 26  2  0
 26 27  1  0
 26 28  1  0
 28 29  2  0
 29 30  1  0
 30 31  2  0
 31 32  1  0
 19 33  1  0
 33 34  2  0
 34 35  1  0
 35 36  2  0
 35  2  1  0
 14  4  1  0
 34 16  1  0
 31 25  1  0
  1 37  1  0
  1 38  1  0
  1 39  1  0
  5 40  1  0
  6 41  1  0
  7 42  1  0
 12 43  1  0
 12 44  1  0
 14 45  1  0
 17 46  1  0
 18 47  1  0
 21 48  1  0
 21 49  1  0
 28 50  1  0
 29 51  1  0
 30 52  1  0
 33 53  1  0
M  CHG  2   9  -1  24  -1
M  END
>  <UniqueID>  (33) 
32

>  <SMILES>  (33) 
Cc1c(-c2cccc([N-]C(=O)CCl)c2)oc2ccc(OCC(=O)[N-]c3c(Cl)cccc3Cl)cc2c1=O

>  <Energy>  (33) 
80.50161388329377

>  <Genealogy>  (33) 
Cc1c(-c2cccc([N-]C(=O)CCl)c2)oc2ccc(OCC(=O)[N-]c3c(Cl)cccc3Cl)cc2c1=O (protonated)
Cc1c(-c2cccc([N-]C(=O)CCl)c2)oc2ccc(OCC(=O)[N-]c3c(Cl)cccc3Cl)cc2c1=O (3D coordinates assigned)
Cc1c(-c2cccc([N-]C(=O)CCl)c2)oc2ccc(OCC(=O)[N-]c3c(Cl)cccc3Cl)cc2c1=O (optimized conformer: 80.50161388329377 kcal/mol)

>  <smiles>  (33) 
Cc1c(-c2cccc(NC(=O)CCl)c2)oc2ccc(OCC(=O)Nc3c(Cl)cccc3Cl)cc2c1=O

>  <score_type>  (33) 
oracle

>  <origin>  (33) 
adg

>  <m_score__min__energy>  (33) 
-11.94

>  <m_primary>  (33) 
energy

$$$$
33:0
     RDKit          3D

 64 68  0  0  1  0  0  0  0  0999 V2000
   55.5190   26.7000   45.9670 O   0  0  0  0  0  0  0  0  0  0  0  0
   56.6220   27.1540   45.6360 C   0  0  0  0  0  0  0  0  0  0  0  0
   57.8360   26.3690   45.5910 N   0  0  0  0  0  0  0  0  0  0  0  0
   58.7900   26.4920   46.4260 C   0  0  0  0  0  0  0  0  0  0  0  0
   58.8100   27.1170   47.5990 N   0  0  0  0  0  0  0  0  0  0  0  0
   60.0590   27.0380   48.0930 C   0  0  0  0  0  0  0  0  0  0  0  0
   60.4480   27.6110   49.3990 C   0  0  0  0  0  0  0  0  0  0  0  0
   59.8970   29.0020   49.4790 C   0  0  0  0  0  0  0  0  0  0  0  0
   59.2070   29.5010   50.5270 C   0  0  0  0  0  0  0  0  0  0  0  0
   58.7110   30.8130   50.5160 C   0  0  0  0  0  0  0  0  0  0  0  0
   58.9620   31.5690   49.3790 C   0  0  0  0  0  0  0  0  0  0  0  0
   59.6610   31.0790   48.3070 C   0  0  0  0  0  0  0  0  0  0  0  0
   60.1410   29.7820   48.3420 C   0  0  0  0  0  0  0  0  0  0  0  0
   60.7870   26.3530   47.2020 N   0  0  0  0  0  0  0  0  0  0  0  0
   60.0400   25.9970   46.1550 N   0  0  0  0  0  0  0  0  0  0  0  0
   56.8420   28.5680   45.2430 C   0  0  0  0  0  0  0  0  0  0  0  0
   55.8790   29.3200   44.6190 C   0  0  0  0  0  0  0  0  0  0  0  0
   56.1620   30.6400   44.3250 C   0  0  0  0  0  0  0  0  0  0  0  0
   57.3790   31.2370   44.6330 C   0  0  0  0  0  0  0  0  0  0  0  0
   57.5330   32.6600   44.2870 C   0  0  0  0  0  0  0  0  0  0  0  0
   58.1250   33.4880   45.2540 N   0  0  0  0  0  0  0  0  0  0  0  0
   58.7470   34.6960   44.8490 C   0  0  0  0  0  0  0  0  0  0  0  0
   60.0240   34.9140   45.6640 C   0  0  0  0  0  0  0  0  0  0  0  0
   59.9770   33.9460   46.8240 C   0  0  0  0  0  0  0  0  0  0  0  0
   61.0770   34.0380   47.7270 N   0  0  0  0  0  0  0  0  0  0  0  0
   61.0370   34.3600   49.1330 C   0  0  0  0  0  0  0  0  0  0  0  0
   62.2110   33.5770   49.6750 C   0  0  0  0  0  0  0  0  0  0  0  0
   63.2250   33.4580   48.5520 C   0  0  0  0  0  0  0  0  0  0  0  0
   62.4350   33.8090   47.3380 C   0  0  0  0  0  0  0  0  0  0  0  0
   62.9240   33.8830   46.1680 O   0  0  0  0  0  0  0  0  0  0  0  0
   58.6280   34.0990   47.4960 C   0  0  0  0  0  0  0  0  0  0  0  0
   57.5760   33.4920   46.5670 C   0  0  0  0  0  0  0  0  0  0  0  0
   58.3420   30.4760   45.2570 C   0  0  0  0  0  0  0  0  0  0  0  0
   58.0750   29.1510   45.5610 C   0  0  0  0  0  0  0  0  0  0  0  0
   60.0338   26.9984   50.2133 H   0  0  0  0  0  0  0  0  0  0  0  0
   61.5435   27.6286   49.4966 H   0  0  0  0  0  0  0  0  0  0  0  0
   59.0303   28.8656   51.4074 H   0  0  0  0  0  0  0  0  0  0  0  0
   58.1496   31.2236   51.3682 H   0  0  0  0  0  0  0  0  0  0  0  0
   58.5851   32.6016   49.3370 H   0  0  0  0  0  0  0  0  0  0  0  0
   59.8391   31.7122   47.4253 H   0  0  0  0  0  0  0  0  0  0  0  0
   60.7045   29.3707   47.4915 H   0  0  0  0  0  0  0  0  0  0  0  0
   61.8070   26.1120   47.2840 H   0  0  0  0  0  0  0  0  0  0  0  0
   60.3180   25.4570   45.2980 H   0  0  0  0  0  0  0  0  0  0  0  0
   54.9041   28.8821   44.3588 H   0  0  0  0  0  0  0  0  0  0  0  0
   55.3908   31.2448   43.8255 H   0  0  0  0  0  0  0  0  0  0  0  0
   58.1504   32.7162   43.3783 H   0  0  0  0  0  0  0  0  0  0  0  0
   56.5071   33.0402   44.1729 H   0  0  0  0  0  0  0  0  0  0  0  0
   59.0004   34.6369   43.7802 H   0  0  0  0  0  0  0  0  0  0  0  0
   58.0577   35.5364   45.0180 H   0  0  0  0  0  0  0  0  0  0  0  0
   60.9085   34.7149   45.0411 H   0  0  0  0  0  0  0  0  0  0  0  0
   60.0901   35.9524   46.0209 H   0  0  0  0  0  0  0  0  0  0  0  0
   60.0887   32.9244   46.4318 H   0  0  0  0  0  0  0  0  0  0  0  0
   61.1674   35.4396   49.2985 H   0  0  0  0  0  0  0  0  0  0  0  0
   60.0803   34.1109   49.6154 H   0  0  0  0  0  0  0  0  0  0  0  0
   62.6556   34.1072   50.5301 H   0  0  0  0  0  0  0  0  0  0  0  0
   61.8921   32.5829   50.0214 H   0  0  0  0  0  0  0  0  0  0  0  0
   64.0580   34.1616   48.6971 H   0  0  0  0  0  0  0  0  0  0  0  0
   63.6860   32.4610   48.4922 H   0  0  0  0  0  0  0  0  0  0  0  0
   58.6272   33.5693   48.4601 H   0  0  0  0  0  0  0  0  0  0  0  0
   58.4093   35.1603   47.6853 H   0  0  0  0  0  0  0  0  0  0  0  0
   57.3440   32.4638   46.8815 H   0  0  0  0  0  0  0  0  0  0  0  0
   56.6442   34.0758   46.5985 H   0  0  0  0  0  0  0  0  0  0  0  0
   59.3168   30.9171   45.5124 H   0  0  0  0  0  0  0  0  0  0  0  0
   58.8455   28.5459   46.0612 H   0  0  0  0  0  0  0  0  0  0  0  0
  1  2  2  0
  2  3  1  0
  3  4  2  0
  4  5  1  0
  5  6  2  0
  6  7  1  0
  7  8  1  0
  8  9  2  0
  9 10  1  0
 10 11  2  0
 11 12  1  0
 12 13  2  0
  6 14  1  0
 14 15  1  0
  2 16  1  0
 16 17  2  0
 17 18  1  0
 18 19  2  0
 19 20  1  0
 20 21  1  0
 21 22  1  0
 22 23  1  0
 23 24  1  0
 24 25  1  0
 25 26  1  0
 26 27  1  0
 27 28  1  0
 28 29  1  0
 29 30  2  0
 24 31  1  0
 31 32  1  0
 19 33  1  0
 33 34  2  0
 15  4  1  0
 34 16  1  0
 13  8  1  0
 32 21  1  0
 29 25  1  0
  7 35  1  0
  7 36  1  0
  9 37  1  0
 10 38  1  0
 11 39  1  0
 12 40  1  0
 13 41  1  0
 14 42  1  0
 15 43  1  0
 17 44  1  0
 18 45  1  0
 20 46  1  0
 20 47  1  0
 22 48  1  0
 22 49  1  0
 23 50  1  0
 23 51  1  0
 24 52  1  0
 26 53  1  0
 26 54  1  0
 27 55  1  0
 27 56  1  0
 28 57  1  0
 28 58  1  0
 31 59  1  0
 31 60  1  0
 32 61  1  0
 32 62  1  0
 33 63  1  0
 34 64  1  0
M  END
>  <smiles>  (34) 
O=C(N=c1nc(Cc2ccccc2)[nH][nH]1)c1ccc(CN2CCC(N3CCCC3=O)CC2)cc1

>  <score_type>  (34) 
oracle

>  <origin>  (34) 
adg

>  <m_score__min__energy>  (34) 
-10.16

>  <m_primary>  (34) 
energy

$$$$
34:0
     RDKit          3D

 43 45  0  0  0  0  0  0  0  0999 V2000
   59.2640   30.3990   47.6400 C   0  0  0  0  0  0  0  0  0  0  0  0
   58.4800   31.3020   46.7240 C   0  0  0  0  0  0  0  0  0  0  0  0
   58.1100   32.5810   47.1780 C   0  0  0  0  0  0  0  0  0  0  0  0
   57.3860   33.4450   46.3540 C   0  0  0  0  0  0  0  0  0  0  0  0
   57.0150   33.0410   45.0720 C   0  0  0  0  0  0  0  0  0  0  0  0
   57.3610   31.7710   44.6110 C   0  0  0  0  0  0  0  0  0  0  0  0
   58.0930   30.8880   45.4240 C   0  0  0  0  0  0  0  0  0  0  0  0
   58.4060   29.5360   44.9120 C   0  0  0  0  0  0  0  0  0  0  0  0
   59.3730   29.3890   44.1160 O   0  0  0  0  0  0  0  0  0  0  0  0
   57.6330   28.3480   45.3280 C   0  0  0  0  0  0  0  0  0  0  0  0
   58.1650   27.1460   45.7760 C   0  0  0  0  0  0  0  0  0  0  0  0
   57.1690   26.2740   46.0420 N   0  0  0  0  0  0  0  0  0  0  0  0
   57.3290   24.9250   46.5870 C   0  0  0  0  0  0  0  0  0  0  0  0
   58.3060   24.1220   45.7690 C   0  0  0  0  0  0  0  0  0  0  0  0
   59.5430   24.2510   45.9690 O   0  0  0  0  0  0  0  0  0  0  0  0
   57.8650   23.1640   44.7970 N   0  0  0  0  0  0  0  0  0  0  0  0
   56.7310   23.3320   43.8930 C   0  0  0  0  0  0  0  0  0  0  0  0
   55.4430   22.9480   44.5720 C   0  0  0  0  0  0  0  0  0  0  0  0
   55.3770   21.7870   45.3540 C   0  0  0  0  0  0  0  0  0  0  0  0
   54.1770   21.4440   45.9800 C   0  0  0  0  0  0  0  0  0  0  0  0
   53.0790   22.2320   45.8260 N   0  0  0  0  0  0  0  0  0  0  0  0
   53.1100   23.3610   45.0690 C   0  0  0  0  0  0  0  0  0  0  0  0
   52.0730   24.0630   44.9490 O   0  0  0  0  0  0  0  0  0  0  0  0
   54.2920   23.7390   44.4230 C   0  0  0  0  0  0  0  0  0  0  0  0
   56.0100   26.9050   45.7740 C   0  0  0  0  0  0  0  0  0  0  0  0
   54.7500   26.3370   45.9350 O   0  0  0  0  0  0  0  0  0  0  0  0
   56.2580   28.1790   45.3220 C   0  0  0  0  0  0  0  0  0  0  0  0
   55.3010   29.1000   44.9170 O   0  0  0  0  0  0  0  0  0  0  0  0
   59.0414   30.6554   48.6863 H   0  0  0  0  0  0  0  0  0  0  0  0
   58.9834   29.3523   47.4513 H   0  0  0  0  0  0  0  0  0  0  0  0
   60.3398   30.5299   47.4513 H   0  0  0  0  0  0  0  0  0  0  0  0
   58.3935   32.9032   48.1908 H   0  0  0  0  0  0  0  0  0  0  0  0
   57.1080   34.4456   46.7166 H   0  0  0  0  0  0  0  0  0  0  0  0
   56.4485   33.7251   44.4232 H   0  0  0  0  0  0  0  0  0  0  0  0
   57.0581   31.4571   43.6012 H   0  0  0  0  0  0  0  0  0  0  0  0
   59.2380   26.9356   45.8962 H   0  0  0  0  0  0  0  0  0  0  0  0
   57.6992   24.9966   47.6204 H   0  0  0  0  0  0  0  0  0  0  0  0
   56.3525   24.4193   46.5603 H   0  0  0  0  0  0  0  0  0  0  0  0
   56.6731   24.3847   43.5792 H   0  0  0  0  0  0  0  0  0  0  0  0
   56.8770   22.6791   43.0199 H   0  0  0  0  0  0  0  0  0  0  0  0
   56.2654   21.1496   45.4740 H   0  0  0  0  0  0  0  0  0  0  0  0
   54.1195   20.5359   46.5981 H   0  0  0  0  0  0  0  0  0  0  0  0
   54.3197   24.6478   43.8038 H   0  0  0  0  0  0  0  0  0  0  0  0
  1  2  1  0
  2  3  2  0
  3  4  1  0
  4  5  2  0
  5  6  1  0
  6  7  2  0
  7  8  1  0
  8  9  2  0
  8 10  1  0
 10 11  2  0
 11 12  1  0
 12 13  1  0
 13 14  1  0
 14 15  2  0
 14 16  1  0
 16 17  1  0
 17 18  1  0
 18 19  1  0
 19 20  2  0
 20 21  1  0
 21 22  1  0
 22 23  2  0
 22 24  1  0
 12 25  1  0
 25 26  1  0
 25 27  2  0
 27 28  1  0
  7  2  1  0
 27 10  1  0
 24 18  2  0
  1 29  1  0
  1 30  1  0
  1 31  1  0
  3 32  1  0
  4 33  1  0
  5 34  1  0
  6 35  1  0
 11 36  1  0
 13 37  1  0
 13 38  1  0
 17 39  1  0
 17 40  1  0
 19 41  1  0
 20 42  1  0
 24 43  1  0
M  CHG  4  16  -1  21  -1  26  -1  28  -1
M  END
>  <UniqueID>  (35) 
33

>  <SMILES>  (35) 
Cc1ccccc1C(=O)c1cn(CC(=O)[N-]Cc2cc[n-]c(=O)c2)c([O-])c1[O-]

>  <Energy>  (35) 
79.49121216116866

>  <Genealogy>  (35) 
Cc1ccccc1C(=O)c1cn(CC(=O)[N-]Cc2cc[n-]c(=O)c2)c([O-])c1[O-] (protonated)
Cc1ccccc1C(=O)c1cn(CC(=O)[N-]Cc2cc[n-]c(=O)c2)c([O-])c1[O-] (3D coordinates assigned)
Cc1ccccc1C(=O)c1cn(CC(=O)[N-]Cc2cc[n-]c(=O)c2)c([O-])c1[O-] (optimized conformer: 79.49121216116866 kcal/mol)

>  <smiles>  (35) 
Cc1ccccc1C(=O)c1cn(CC(=O)NCc2cc[nH]c(=O)c2)c(O)c1O

>  <score_type>  (35) 
oracle

>  <origin>  (35) 
adg

>  <m_score__min__energy>  (35) 
-17.059999999999999

>  <m_primary>  (35) 
energy

$$$$
35:0
     RDKit          3D

 47 50  0  0  0  0  0  0  0  0999 V2000
   56.6430   19.3920   43.5450 H   0  0  0  0  0  0  0  0  0  0  0  0
   56.2290   20.3430   43.4170 N   0  0  0  0  0  0  0  0  0  0  0  0
   56.7080   21.3880   44.0120 C   0  0  0  0  0  0  0  0  0  0  0  0
   55.8780   22.4170   44.3210 N   0  0  0  0  0  0  0  0  0  0  0  0
   56.3400   23.5320   44.9430 C   0  0  0  0  0  0  0  0  0  0  0  0
   55.4620   24.5750   45.2520 C   0  0  0  0  0  0  0  0  0  0  0  0
   54.3966   24.4910   44.9915 H   0  0  0  0  0  0  0  0  0  0  0  0
   55.9350   25.7240   45.8910 C   0  0  0  0  0  0  0  0  0  0  0  0
   55.2390   26.5410   46.1318 H   0  0  0  0  0  0  0  0  0  0  0  0
   57.2980   25.8430   46.2290 C   0  0  0  0  0  0  0  0  0  0  0  0
   57.8270   26.9740   46.8730 O   0  0  0  0  0  0  0  0  0  0  0  0
   57.6510   28.3310   46.4580 C   0  0  0  0  0  0  0  0  0  0  0  0
   57.2151   28.9142   47.2825 H   0  0  0  0  0  0  0  0  0  0  0  0
   59.0180   28.9140   46.0790 C   0  0  0  0  0  0  0  0  0  0  0  0
   59.6727   28.8883   46.9626 H   0  0  0  0  0  0  0  0  0  0  0  0
   59.4318   28.3070   45.2603 H   0  0  0  0  0  0  0  0  0  0  0  0
   58.9060   30.3730   45.5830 C   0  0  0  0  0  0  0  0  0  0  0  0
   59.2619   31.0460   46.3769 H   0  0  0  0  0  0  0  0  0  0  0  0
   59.5179   30.4701   44.6741 H   0  0  0  0  0  0  0  0  0  0  0  0
   57.5140   30.7370   45.2370 N   0  0  0  0  0  0  0  0  0  0  0  0
   57.3940   32.0940   44.6590 C   0  0  0  0  0  0  0  0  0  0  0  0
   57.7657   32.0633   43.6241 H   0  0  0  0  0  0  0  0  0  0  0  0
   56.3317   32.3729   44.7195 H   0  0  0  0  0  0  0  0  0  0  0  0
   58.1690   33.1550   45.4120 C   0  0  0  0  0  0  0  0  0  0  0  0
   58.1780   33.1700   46.8190 C   0  0  0  0  0  0  0  0  0  0  0  0
   57.6172   32.4066   47.3782 H   0  0  0  0  0  0  0  0  0  0  0  0
   58.8960   34.1500   47.5090 C   0  0  0  0  0  0  0  0  0  0  0  0
   58.8937   34.1596   48.6090 H   0  0  0  0  0  0  0  0  0  0  0  0
   59.6170   35.1180   46.8050 C   0  0  0  0  0  0  0  0  0  0  0  0
   60.1785   35.8905   47.3509 H   0  0  0  0  0  0  0  0  0  0  0  0
   59.6250   35.1050   45.4090 C   0  0  0  0  0  0  0  0  0  0  0  0
   60.1957   35.8654   44.8558 H   0  0  0  0  0  0  0  0  0  0  0  0
   58.9080   34.1260   44.7130 C   0  0  0  0  0  0  0  0  0  0  0  0
   58.9223   34.1157   43.6131 H   0  0  0  0  0  0  0  0  0  0  0  0
   56.8680   29.6910   44.4240 C   0  0  0  0  0  0  0  0  0  0  0  0
   55.8841   30.0493   44.0870 H   0  0  0  0  0  0  0  0  0  0  0  0
   57.5055   29.4679   43.5558 H   0  0  0  0  0  0  0  0  0  0  0  0
   56.6840   28.4060   45.2540 C   0  0  0  0  0  0  0  0  0  0  0  0
   55.6507   28.3745   45.6298 H   0  0  0  0  0  0  0  0  0  0  0  0
   56.9036   27.5514   44.5972 H   0  0  0  0  0  0  0  0  0  0  0  0
   58.1730   24.7930   45.9240 C   0  0  0  0  0  0  0  0  0  0  0  0
   59.2370   24.8752   46.1908 H   0  0  0  0  0  0  0  0  0  0  0  0
   57.7040   23.6350   45.2800 C   0  0  0  0  0  0  0  0  0  0  0  0
   58.5470   22.5590   44.9520 C   0  0  0  0  0  0  0  0  0  0  0  0
   59.7760   22.5970   45.2300 O   0  0  0  0  0  0  0  0  0  0  0  0
   58.0340   21.4630   44.3270 N   0  0  0  0  0  0  0  0  0  0  0  0
   58.6730   20.6690   44.0880 H   0  0  0  0  0  0  0  0  0  0  0  0
  1  2  1  0
  2  3  2  0
  3  4  1  0
  4  5  1  0
  5  6  2  0
  6  7  1  0
  6  8  1  0
  8  9  1  0
  8 10  2  0
 10 11  1  0
 11 12  1  0
 12 13  1  0
 12 14  1  0
 14 15  1  0
 14 16  1  0
 14 17  1  0
 17 18  1  0
 17 19  1  0
 17 20  1  0
 20 21  1  0
 21 22  1  0
 21 23  1  0
 21 24  1  0
 24 25  2  0
 25 26  1  0
 25 27  1  0
 27 28  1  0
 27 29  2  0
 29 30  1  0
 29 31  1  0
 31 32  1  0
 31 33  2  0
 33 34  1  0
 20 35  1  0
 35 36  1  0
 35 37  1  0
 35 38  1  0
 38 39  1  0
 38 40  1  0
 10 41  1  0
 41 42  1  0
 41 43  2  0
 43 44  1  0
 44 45  2  0
 44 46  1  0
 46 47  1  0
 46  3  1  0
 43  5  1  0
 38 12  1  0
 33 24  1  0
M  CHG  1   4  -1
M  END
>  <UniqueID>  (36) 
34

>  <SMILES>  (36) 
[H]/N=c1/[n-]c2ccc(OC3CCN(Cc4ccccc4)CC3)cc2c(=O)[nH]1

>  <Energy>  (36) 
63.52869933337956

>  <Genealogy>  (36) 
N=c1[n-]c2ccc(OC3CCN(Cc4ccccc4)CC3)cc2c(=O)[nH]1 (protonated)
[H]/N=c1/[n-]c2ccc(OC3CCN(Cc4ccccc4)CC3)cc2c(=O)[nH]1 (cis-trans isomerization)
[H]/N=c1/[n-]c2ccc(OC3CCN(Cc4ccccc4)CC3)cc2c(=O)[nH]1 (3D coordinates assigned)
[H]/N=c1/[n-]c2ccc(OC3CCN(Cc4ccccc4)CC3)cc2c(=O)[nH]1 (nonaromatic ring conformer: 63.52869933337956 kcal/mol)

>  <smiles>  (36) 
N=c1[nH]c(=O)c2cc(OC3CCN(Cc4ccccc4)CC3)ccc2[nH]1

>  <score_type>  (36) 
oracle

>  <origin>  (36) 
adg

>  <m_score__min__energy>  (36) 
-10.58

>  <m_primary>  (36) 
energy

$$$$
36:0
     RDKit          3D

 39 40  0  0  0  0  0  0  0  0999 V2000
   58.3620   24.0750   45.4270 C   0  0  0  0  0  0  0  0  0  0  0  0
   59.0880   25.0420   45.9940 C   0  0  0  0  0  0  0  0  0  0  0  0
   58.4970   25.9950   46.9980 C   0  0  0  0  0  0  0  0  0  0  0  0
   57.9430   27.1940   46.3300 N   0  0  0  0  0  0  0  0  0  0  0  0
   58.7010   28.3400   46.1870 C   0  0  0  0  0  0  0  0  0  0  0  0
   60.0560   28.3960   46.6770 N   0  0  0  0  0  0  0  0  0  0  0  0
   58.1360   29.4830   45.5740 C   0  0  0  0  0  0  0  0  0  0  0  0
   58.9140   30.7290   45.3860 C   0  0  0  0  0  0  0  0  0  0  0  0
   59.9920   30.8900   46.0190 O   0  0  0  0  0  0  0  0  0  0  0  0
   58.4150   31.8250   44.4880 C   0  0  0  0  0  0  0  0  0  0  0  0
   58.0510   33.2940   45.4360 S   0  0  0  0  0  0  0  0  0  0  0  0
   58.0180   34.4830   44.5190 O   0  0  0  0  0  0  0  0  0  0  0  0
   56.6990   33.1340   46.0750 O   0  0  0  0  0  0  0  0  0  0  0  0
   59.2800   33.5560   46.6720 C   0  0  0  0  0  0  0  0  0  0  0  0
   58.9280   33.6360   48.0280 C   0  0  0  0  0  0  0  0  0  0  0  0
   59.9120   33.8440   48.9990 C   0  0  0  0  0  0  0  0  0  0  0  0
   61.2510   33.9770   48.6210 C   0  0  0  0  0  0  0  0  0  0  0  0
   61.6070   33.9070   47.2720 C   0  0  0  0  0  0  0  0  0  0  0  0
   60.6250   33.6990   46.2980 C   0  0  0  0  0  0  0  0  0  0  0  0
   56.8220   29.4020   45.0970 C   0  0  0  0  0  0  0  0  0  0  0  0
   56.2900   30.3820   44.5070 O   0  0  0  0  0  0  0  0  0  0  0  0
   56.1170   28.2550   45.2460 N   0  0  0  0  0  0  0  0  0  0  0  0
   56.6560   27.1630   45.8470 C   0  0  0  0  0  0  0  0  0  0  0  0
   55.9520   26.1220   45.9530 O   0  0  0  0  0  0  0  0  0  0  0  0
   58.8256   23.3955   44.6967 H   0  0  0  0  0  0  0  0  0  0  0  0
   57.3004   23.9581   45.6903 H   0  0  0  0  0  0  0  0  0  0  0  0
   60.1482   25.1449   45.7194 H   0  0  0  0  0  0  0  0  0  0  0  0
   57.6918   25.4850   47.5472 H   0  0  0  0  0  0  0  0  0  0  0  0
   59.2921   26.3144   47.6878 H   0  0  0  0  0  0  0  0  0  0  0  0
   60.3940   29.1870   47.2650 H   0  0  0  0  0  0  0  0  0  0  0  0
   60.7670   27.6690   46.4550 H   0  0  0  0  0  0  0  0  0  0  0  0
   59.1865   32.0591   43.7397 H   0  0  0  0  0  0  0  0  0  0  0  0
   57.4944   31.4857   43.9906 H   0  0  0  0  0  0  0  0  0  0  0  0
   57.8745   33.5347   48.3279 H   0  0  0  0  0  0  0  0  0  0  0  0
   59.6323   33.9030   50.0612 H   0  0  0  0  0  0  0  0  0  0  0  0
   62.0249   34.1369   49.3862 H   0  0  0  0  0  0  0  0  0  0  0  0
   62.6607   34.0156   46.9755 H   0  0  0  0  0  0  0  0  0  0  0  0
   60.9077   33.6474   45.2362 H   0  0  0  0  0  0  0  0  0  0  0  0
   55.1380   28.2080   44.8830 H   0  0  0  0  0  0  0  0  0  0  0  0
  1  2  2  0
  2  3  1  0
  3  4  1  0
  4  5  1  0
  5  6  1  0
  5  7  2  0
  7  8  1  0
  8  9  2  0
  8 10  1  0
 10 11  1  0
 11 12  2  0
 11 13  2  0
 11 14  1  0
 14 15  2  0
 15 16  1  0
 16 17  2  0
 17 18  1  0
 18 19  2  0
  7 20  1  0
 20 21  2  0
 20 22  1  0
 22 23  1  0
 23 24  2  0
 23  4  1  0
 19 14  1  0
  1 25  1  0
  1 26  1  0
  2 27  1  0
  3 28  1  0
  3 29  1  0
  6 30  1  0
  6 31  1  0
 10 32  1  0
 10 33  1  0
 15 34  1  0
 16 35  1  0
 17 36  1  0
 18 37  1  0
 19 38  1  0
 22 39  1  0
M  END
>  <UniqueID>  (37) 
35

>  <SMILES>  (37) 
C=CCn1c(N)c(C(=O)CS(=O)(=O)c2ccccc2)c(=O)[nH]c1=O

>  <Energy>  (37) 
46.273032836532416

>  <Genealogy>  (37) 
C=CCn1c(N)c(C(=O)CS(=O)(=O)c2ccccc2)c(=O)[nH]c1=O (3D coordinates assigned)
C=CCn1c(N)c(C(=O)CS(=O)(=O)c2ccccc2)c(=O)[nH]c1=O (optimized conformer: 46.273032836532416 kcal/mol)

>  <smiles>  (37) 
C=CCn1c(N)c(C(=O)CS(=O)(=O)c2ccccc2)c(=O)[nH]c1=O

>  <score_type>  (37) 
oracle

>  <origin>  (37) 
adg

>  <m_score__min__energy>  (37) 
-8.1099999999999994

>  <m_primary>  (37) 
energy

$$$$
37:0
     RDKit          3D

 55 58  0  0  0  0  0  0  0  0999 V2000
   56.2410   20.9260   44.9370 C   0  0  0  0  0  0  0  0  0  0  0  0
   57.4420   21.6510   44.4960 N   0  0  0  0  0  0  0  0  0  0  0  0
   57.1150   22.6490   43.4470 C   0  0  0  0  0  0  0  0  0  0  0  0
   56.8510   24.0540   44.0110 C   0  0  0  0  0  0  0  0  0  0  0  0
   57.9450   24.4810   44.8930 N   0  0  0  0  0  0  0  0  0  0  0  0
   57.9970   25.8380   45.3700 C   0  0  0  0  0  0  0  0  0  0  0  0
   59.1620   26.3380   45.9760 C   0  0  0  0  0  0  0  0  0  0  0  0
   59.2130   27.6570   46.4300 C   0  0  0  0  0  0  0  0  0  0  0  0
   58.0980   28.4950   46.3080 C   0  0  0  0  0  0  0  0  0  0  0  0
   58.2020   29.8530   46.7570 N   0  0  0  0  0  0  0  0  0  0  0  0
   57.9860   31.0050   45.9310 C   0  0  0  0  0  0  0  0  0  0  0  0
   57.1400   30.9450   44.9980 O   0  0  0  0  0  0  0  0  0  0  0  0
   58.7280   32.2680   46.1790 C   0  0  0  0  0  0  0  0  0  0  0  0
   59.9190   32.2420   46.9330 C   0  0  0  0  0  0  0  0  0  0  0  0
   60.6200   33.4250   47.2310 C   0  0  0  0  0  0  0  0  0  0  0  0
   61.8340   33.3840   48.0160 N   0  0  0  0  0  0  0  0  0  0  0  0
   61.9560   33.9020   49.3780 C   0  0  0  0  0  0  0  0  0  0  0  0
   63.3550   33.5320   49.9190 C   0  0  0  0  0  0  0  0  0  0  0  0
   64.3500   33.4560   48.7570 C   0  0  0  0  0  0  0  0  0  0  0  0
   63.3710   32.9420   47.3850 S   0  0  0  0  0  0  0  0  0  0  0  0
   63.7050   33.7150   46.1400 O   0  0  0  0  0  0  0  0  0  0  0  0
   63.4690   31.4580   47.1620 O   0  0  0  0  0  0  0  0  0  0  0  0
   60.1090   34.6500   46.7660 C   0  0  0  0  0  0  0  0  0  0  0  0
   58.9420   34.6850   46.0060 C   0  0  0  0  0  0  0  0  0  0  0  0
   58.2520   33.5090   45.7090 C   0  0  0  0  0  0  0  0  0  0  0  0
   57.1100   33.5980   44.9790 F   0  0  0  0  0  0  0  0  0  0  0  0
   56.9350   28.0120   45.6760 C   0  0  0  0  0  0  0  0  0  0  0  0
   55.8450   28.8550   45.4640 O   0  0  0  0  0  0  0  0  0  0  0  0
   56.8860   26.6840   45.2240 C   0  0  0  0  0  0  0  0  0  0  0  0
   58.9280   23.4890   45.3380 C   0  0  0  0  0  0  0  0  0  0  0  0
   58.1960   22.1850   45.6610 C   0  0  0  0  0  0  0  0  0  0  0  0
   56.2078   20.9060   46.0363 H   0  0  0  0  0  0  0  0  0  0  0  0
   55.3443   21.4338   44.5523 H   0  0  0  0  0  0  0  0  0  0  0  0
   56.2726   19.8960   44.5523 H   0  0  0  0  0  0  0  0  0  0  0  0
   57.9592   22.7071   42.7441 H   0  0  0  0  0  0  0  0  0  0  0  0
   56.1901   22.3149   42.9542 H   0  0  0  0  0  0  0  0  0  0  0  0
   56.7627   24.7657   43.1769 H   0  0  0  0  0  0  0  0  0  0  0  0
   55.9195   24.0278   44.5954 H   0  0  0  0  0  0  0  0  0  0  0  0
   60.0398   25.6855   46.0934 H   0  0  0  0  0  0  0  0  0  0  0  0
   60.1367   28.0412   46.8873 H   0  0  0  0  0  0  0  0  0  0  0  0
   60.3075   31.2787   47.2951 H   0  0  0  0  0  0  0  0  0  0  0  0
   61.8380   34.9956   49.3711 H   0  0  0  0  0  0  0  0  0  0  0  0
   61.1761   33.4651   50.0190 H   0  0  0  0  0  0  0  0  0  0  0  0
   63.6856   34.2990   50.6348 H   0  0  0  0  0  0  0  0  0  0  0  0
   63.3059   32.5556   50.4232 H   0  0  0  0  0  0  0  0  0  0  0  0
   64.8034   34.4399   48.5663 H   0  0  0  0  0  0  0  0  0  0  0  0
   65.1848   32.7692   48.9605 H   0  0  0  0  0  0  0  0  0  0  0  0
   60.6343   35.5867   47.0040 H   0  0  0  0  0  0  0  0  0  0  0  0
   58.5609   35.6485   45.6366 H   0  0  0  0  0  0  0  0  0  0  0  0
   55.7260   29.7150   45.9890 H   0  0  0  0  0  0  0  0  0  0  0  0
   55.9689   26.3027   44.7511 H   0  0  0  0  0  0  0  0  0  0  0  0
   59.6637   23.3127   44.5395 H   0  0  0  0  0  0  0  0  0  0  0  0
   59.4529   23.8560   46.2323 H   0  0  0  0  0  0  0  0  0  0  0  0
   58.9355   21.4343   45.9766 H   0  0  0  0  0  0  0  0  0  0  0  0
   57.4700   22.3985   46.4593 H   0  0  0  0  0  0  0  0  0  0  0  0
  1  2  1  0
  2  3  1  0
  3  4  1  0
  4  5  1  0
  5  6  1  0
  6  7  2  0
  7  8  1  0
  8  9  2  0
  9 10  1  0
 10 11  1  0
 11 12  2  0
 11 13  1  0
 13 14  2  0
 14 15  1  0
 15 16  1  0
 16 17  1  0
 17 18  1  0
 18 19  1  0
 19 20  1  0
 20 21  2  0
 20 22  2  0
 15 23  2  0
 23 24  1  0
 24 25  2  0
 25 26  1  0
  9 27  1  0
 27 28  1  0
 27 29  2  0
  5 30  1  0
 30 31  1  0
 31  2  1  0
 29  6  1  0
 25 13  1  0
 20 16  1  0
  1 32  1  0
  1 33  1  0
  1 34  1  0
  3 35  1  0
  3 36  1  0
  4 37  1  0
  4 38  1  0
  7 39  1  0
  8 40  1  0
 14 41  1  0
 17 42  1  0
 17 43  1  0
 18 44  1  0
 18 45  1  0
 19 46  1  0
 19 47  1  0
 23 48  1  0
 24 49  1  0
 28 50  1  0
 29 51  1  0
 30 52  1  0
 30 53  1  0
 31 54  1  0
 31 55  1  0
M  CHG  1  10  -1
M  END
>  <UniqueID>  (38) 
36

>  <SMILES>  (38) 
CN1CCN(c2ccc([N-]C(=O)c3cc(N4CCCS4(=O)=O)ccc3F)c(O)c2)CC1

>  <Energy>  (38) 
83.73457173771679

>  <Genealogy>  (38) 
CN1CCN(c2ccc([N-]C(=O)c3cc(N4CCCS4(=O)=O)ccc3F)c(O)c2)CC1 (protonated)
CN1CCN(c2ccc([N-]C(=O)c3cc(N4CCCS4(=O)=O)ccc3F)c(O)c2)CC1 (3D coordinates assigned)
CN1CCN(c2ccc([N-]C(=O)c3cc(N4CCCS4(=O)=O)ccc3F)c(O)c2)CC1 (nonaromatic ring conformer: 83.73457173771679 kcal/mol)

>  <smiles>  (38) 
CN1CCN(c2ccc(NC(=O)c3cc(N4CCCS4(=O)=O)ccc3F)c(O)c2)CC1

>  <score_type>  (38) 
oracle

>  <origin>  (38) 
adg

>  <m_score__min__energy>  (38) 
-10.66

>  <m_primary>  (38) 
energy

$$$$
38:0
     RDKit          3D

 46 48  0  0  0  0  0  0  0  0999 V2000
   56.6916   29.2268   41.2257 H   0  0  0  0  0  0  0  0  0  0  0  0
   56.4830   28.9750   42.2760 C   0  0  0  0  0  0  0  0  0  0  0  0
   56.1498   27.9612   42.5428 H   0  0  0  0  0  0  0  0  0  0  0  0
   56.6340   29.8980   43.2250 C   0  0  0  0  0  0  0  0  0  0  0  0
   57.0520   31.1990   43.0610 C   0  0  0  0  0  0  0  0  0  0  0  0
   57.4050   31.7430   41.9800 O   0  0  0  0  0  0  0  0  0  0  0  0
   57.0540   31.7520   44.3340 C   0  0  0  0  0  0  0  0  0  0  0  0
   57.4060   32.9890   44.7150 C   0  0  0  0  0  0  0  0  0  0  0  0
   56.9223   33.8374   44.2088 H   0  0  0  0  0  0  0  0  0  0  0  0
   58.3970   33.2910   45.7660 C   0  0  0  0  0  0  0  0  0  0  0  0
   58.5460   34.5920   46.2630 C   0  0  0  0  0  0  0  0  0  0  0  0
   57.9423   35.4108   45.8444 H   0  0  0  0  0  0  0  0  0  0  0  0
   59.4580   34.8540   47.2880 C   0  0  0  0  0  0  0  0  0  0  0  0
   59.5767   35.8805   47.6652 H   0  0  0  0  0  0  0  0  0  0  0  0
   60.2260   33.8120   47.8410 C   0  0  0  0  0  0  0  0  0  0  0  0
   61.1590   34.0370   48.8660 O   0  0  0  0  0  0  0  0  0  0  0  0
   61.0330   33.5390   50.1940 C   0  0  0  0  0  0  0  0  0  0  0  0
   61.2378   34.3485   50.9101 H   0  0  0  0  0  0  0  0  0  0  0  0
   60.0112   33.1622   50.3489 H   0  0  0  0  0  0  0  0  0  0  0  0
   61.7526   32.7216   50.3489 H   0  0  0  0  0  0  0  0  0  0  0  0
   60.0650   32.5020   47.3620 C   0  0  0  0  0  0  0  0  0  0  0  0
   60.8520   31.4860   47.9310 O   0  0  0  0  0  0  0  0  0  0  0  0
   61.3870   30.3630   47.2280 C   0  0  0  0  0  0  0  0  0  0  0  0
   61.9147   30.7174   46.3303 H   0  0  0  0  0  0  0  0  0  0  0  0
   62.0806   29.8280   47.8933 H   0  0  0  0  0  0  0  0  0  0  0  0
   60.2890   29.4190   46.8150 C   0  0  0  0  0  0  0  0  0  0  0  0
   60.2170   28.9600   45.4930 C   0  0  0  0  0  0  0  0  0  0  0  0
   60.9675   29.2884   44.7588 H   0  0  0  0  0  0  0  0  0  0  0  0
   59.1970   28.0870   45.1010 C   0  0  0  0  0  0  0  0  0  0  0  0
   59.1473   27.7401   44.0583 H   0  0  0  0  0  0  0  0  0  0  0  0
   58.2330   27.6480   46.0290 C   0  0  0  0  0  0  0  0  0  0  0  0
   57.1390   26.7220   45.6280 C   0  0  0  0  0  0  0  0  0  0  0  0
   55.9540   26.9630   45.9870 O   0  0  0  0  0  0  0  0  0  0  0  0
   57.3980   25.4990   44.8010 C   0  0  0  0  0  0  0  0  0  0  0  0
   57.5799   24.6400   45.4637 H   0  0  0  0  0  0  0  0  0  0  0  0
   56.5234   25.2936   44.1662 H   0  0  0  0  0  0  0  0  0  0  0  0
   58.2807   25.6658   44.1662 H   0  0  0  0  0  0  0  0  0  0  0  0
   58.3220   28.1010   47.3580 C   0  0  0  0  0  0  0  0  0  0  0  0
   57.5807   27.7652   48.0981 H   0  0  0  0  0  0  0  0  0  0  0  0
   59.3420   28.9730   47.7480 C   0  0  0  0  0  0  0  0  0  0  0  0
   59.4023   29.3115   48.7929 H   0  0  0  0  0  0  0  0  0  0  0  0
   59.1330   32.2460   46.3380 C   0  0  0  0  0  0  0  0  0  0  0  0
   58.9817   31.2155   45.9841 H   0  0  0  0  0  0  0  0  0  0  0  0
   56.6630   30.8020   45.2120 N   0  0  0  0  0  0  0  0  0  0  0  0
   56.4050   29.6900   44.5360 N   0  0  0  0  0  0  0  0  0  0  0  0
   56.0830   28.8000   44.9790 H   0  0  0  0  0  0  0  0  0  0  0  0
  1  2  1  0
  2  3  1  0
  2  4  2  0
  4  5  1  0
  5  6  2  0
  5  7  1  0
  7  8  2  0
  8  9  1  0
  8 10  1  0
 10 11  2  0
 11 12  1  0
 11 13  1  0
 13 14  1  0
 13 15  2  0
 15 16  1  0
 16 17  1  0
 17 18  1  0
 17 19  1  0
 17 20  1  0
 15 21  1  0
 21 22  1  0
 22 23  1  0
 23 24  1  0
 23 25  1  0
 23 26  1  0
 26 27  2  0
 27 28  1  0
 27 29  1  0
 29 30  1  0
 29 31  2  0
 31 32  1  0
 32 33  2  0
 32 34  1  0
 34 35  1  0
 34 36  1  0
 34 37  1  0
 31 38  1  0
 38 39  1  0
 38 40  2  0
 40 41  1  0
 21 42  2  0
 42 43  1  0
  7 44  1  0
 44 45  1  0
 45 46  1  0
 45  4  1  0
 42 10  1  0
 40 26  1  0
M  CHG  1  44  -1
M  END
>  <UniqueID>  (39) 
37

>  <SMILES>  (39) 
C=c1[nH][n-]/c(=C/c2ccc(OC)c(OCc3ccc(C(C)=O)cc3)c2)c1=O

>  <Energy>  (39) 
88.67051000639107

>  <Genealogy>  (39) 
C=c1[nH][n-]c(=Cc2ccc(OC)c(OCc3ccc(C(C)=O)cc3)c2)c1=O (protonated)
C=c1[nH][n-]/c(=C/c2ccc(OC)c(OCc3ccc(C(C)=O)cc3)c2)c1=O (cis-trans isomerization)
C=c1[nH][n-]/c(=C/c2ccc(OC)c(OCc3ccc(C(C)=O)cc3)c2)c1=O (3D coordinates assigned)
C=c1[nH][n-]/c(=C/c2ccc(OC)c(OCc3ccc(C(C)=O)cc3)c2)c1=O (optimized conformer: 88.67051000639107 kcal/mol)

>  <smiles>  (39) 
C=c1[nH][nH]c(=Cc2ccc(OC)c(OCc3ccc(C(C)=O)cc3)c2)c1=O

>  <score_type>  (39) 
oracle

>  <origin>  (39) 
adg

>  <m_score__min__energy>  (39) 
-10.26

>  <m_primary>  (39) 
energy

$$$$
39:0
     RDKit          3D

 64 67  0  0  0  0  0  0  0  0999 V2000
   56.4000   31.9680   51.9880 N   0  0  0  0  0  0  0  0  0  0  0  0
   57.5920   30.7600   52.3130 S   0  0  0  0  0  0  0  0  0  0  0  0
   57.0320   29.4020   51.9930 O   0  0  0  0  0  0  0  0  0  0  0  0
   57.9520   30.8020   53.7720 O   0  0  0  0  0  0  0  0  0  0  0  0
   59.0200   31.0560   51.3240 C   0  0  0  0  0  0  0  0  0  0  0  0
   60.2000   30.3270   51.5330 C   0  0  0  0  0  0  0  0  0  0  0  0
   61.3240   30.5670   50.7370 C   0  0  0  0  0  0  0  0  0  0  0  0
   61.2830   31.5440   49.7360 C   0  0  0  0  0  0  0  0  0  0  0  0
   60.1130   32.2960   49.5300 C   0  0  0  0  0  0  0  0  0  0  0  0
   60.0640   33.3270   48.4660 C   0  0  0  0  0  0  0  0  0  0  0  0
   60.7550   34.3750   48.5790 O   0  0  0  0  0  0  0  0  0  0  0  0
   59.2400   33.1500   47.3000 N   0  0  0  0  0  0  0  0  0  0  0  0
   59.8710   33.0850   45.9750 C   0  0  0  0  0  0  0  0  0  0  0  0
   58.9830   33.7470   44.9080 C   0  0  0  0  0  0  0  0  0  0  0  0
   57.5090   33.2930   44.9850 C   0  0  0  0  0  0  0  0  0  0  0  0
   57.3030   31.8440   44.4800 C   0  0  0  0  0  0  0  0  0  0  0  0
   58.0440   30.8880   45.3040 N   0  0  0  0  0  0  0  0  0  0  0  0
   58.0280   29.4590   45.1030 C   0  0  0  0  0  0  0  0  0  0  0  0
   58.8740   28.9000   44.1330 C   0  0  0  0  0  0  0  0  0  0  0  0
   58.8890   27.5210   43.9120 C   0  0  0  0  0  0  0  0  0  0  0  0
   58.0540   26.6820   44.6530 C   0  0  0  0  0  0  0  0  0  0  0  0
   57.1940   27.2160   45.6260 C   0  0  0  0  0  0  0  0  0  0  0  0
   56.2710   26.3330   46.3740 C   0  0  0  0  0  0  0  0  0  0  0  0
   56.6980   25.6530   47.3460 O   0  0  0  0  0  0  0  0  0  0  0  0
   54.8950   26.2430   45.9950 N   0  0  0  0  0  0  0  0  0  0  0  0
   54.2400   24.9950   45.6180 C   0  0  0  0  0  0  0  0  0  0  0  0
   55.2660   24.0020   45.1460 C   0  0  0  0  0  0  0  0  0  0  0  0
   55.7420   22.9960   46.0050 C   0  0  0  0  0  0  0  0  0  0  0  0
   56.6740   22.0580   45.5420 C   0  0  0  0  0  0  0  0  0  0  0  0
   57.1250   22.1100   44.2190 C   0  0  0  0  0  0  0  0  0  0  0  0
   56.6440   23.1000   43.3550 C   0  0  0  0  0  0  0  0  0  0  0  0
   55.7180   24.0430   43.8160 C   0  0  0  0  0  0  0  0  0  0  0  0
   57.1920   28.6060   45.8500 C   0  0  0  0  0  0  0  0  0  0  0  0
   56.9720   33.4770   46.4160 C   0  0  0  0  0  0  0  0  0  0  0  0
   57.8380   32.7430   47.4440 C   0  0  0  0  0  0  0  0  0  0  0  0
   58.9800   32.0340   50.3220 C   0  0  0  0  0  0  0  0  0  0  0  0
   56.2310   31.9660   50.9520 H   0  0  0  0  0  0  0  0  0  0  0  0
   60.2411   29.5647   52.3250 H   0  0  0  0  0  0  0  0  0  0  0  0
   62.2439   29.9858   50.8981 H   0  0  0  0  0  0  0  0  0  0  0  0
   62.1684   31.7241   49.1087 H   0  0  0  0  0  0  0  0  0  0  0  0
   60.8388   33.6066   46.0116 H   0  0  0  0  0  0  0  0  0  0  0  0
   60.0126   32.0278   45.7060 H   0  0  0  0  0  0  0  0  0  0  0  0
   59.0218   34.8375   45.0467 H   0  0  0  0  0  0  0  0  0  0  0  0
   59.3699   33.4449   43.9236 H   0  0  0  0  0  0  0  0  0  0  0  0
   56.9287   33.9344   44.3054 H   0  0  0  0  0  0  0  0  0  0  0  0
   56.2315   31.5984   44.5206 H   0  0  0  0  0  0  0  0  0  0  0  0
   57.6762   31.7778   43.4474 H   0  0  0  0  0  0  0  0  0  0  0  0
   58.5270   31.2680   46.1500 H   0  0  0  0  0  0  0  0  0  0  0  0
   59.5314   29.5539   43.5412 H   0  0  0  0  0  0  0  0  0  0  0  0
   59.5604   27.0946   43.1521 H   0  0  0  0  0  0  0  0  0  0  0  0
   58.0701   25.5969   44.4734 H   0  0  0  0  0  0  0  0  0  0  0  0
   53.7083   24.5843   46.4890 H   0  0  0  0  0  0  0  0  0  0  0  0
   53.5251   25.1917   44.8055 H   0  0  0  0  0  0  0  0  0  0  0  0
   55.3818   22.9452   47.0431 H   0  0  0  0  0  0  0  0  0  0  0  0
   57.0519   21.2789   46.2204 H   0  0  0  0  0  0  0  0  0  0  0  0
   57.8574   21.3730   43.8579 H   0  0  0  0  0  0  0  0  0  0  0  0
   56.9938   23.1372   42.3128 H   0  0  0  0  0  0  0  0  0  0  0  0
   55.3423   24.8199   43.1339 H   0  0  0  0  0  0  0  0  0  0  0  0
   56.5293   29.0313   46.6180 H   0  0  0  0  0  0  0  0  0  0  0  0
   56.9631   34.5499   46.6583 H   0  0  0  0  0  0  0  0  0  0  0  0
   55.9570   33.0552   46.4586 H   0  0  0  0  0  0  0  0  0  0  0  0
   57.4890   32.9903   48.4574 H   0  0  0  0  0  0  0  0  0  0  0  0
   57.7574   31.6589   47.2762 H   0  0  0  0  0  0  0  0  0  0  0  0
   58.0538   32.6027   50.1527 H   0  0  0  0  0  0  0  0  0  0  0  0
  1  2  1  0
  2  3  2  0
  2  4  2  0
  2  5  1  0
  5  6  2  0
  6  7  1  0
  7  8  2  0
  8  9  1  0
  9 10  1  0
 10 11  2  0
 10 12  1  0
 12 13  1  0
 13 14  1  0
 14 15  1  0
 15 16  1  0
 16 17  1  0
 17 18  1  0
 18 19  2  0
 19 20  1  0
 20 21  2  0
 21 22  1  0
 22 23  1  0
 23 24  2  0
 23 25  1  0
 25 26  1  0
 26 27  1  0
 27 28  2  0
 28 29  1  0
 29 30  2  0
 30 31  1  0
 31 32  2  0
 22 33  2  0
 15 34  1  0
 34 35  1  0
  9 36  2  0
 36  5  1  0
 35 12  1  0
 33 18  1  0
 32 27  1  0
  1 37  1  0
  6 38  1  0
  7 39  1  0
  8 40  1  0
 13 41  1  0
 13 42  1  0
 14 43  1  0
 14 44  1  0
 15 45  1  0
 16 46  1  0
 16 47  1  0
 17 48  1  0
 19 49  1  0
 20 50  1  0
 21 51  1  0
 26 52  1  0
 26 53  1  0
 28 54  1  0
 29 55  1  0
 30 56  1  0
 31 57  1  0
 32 58  1  0
 33 59  1  0
 34 60  1  0
 34 61  1  0
 35 62  1  0
 35 63  1  0
 36 64  1  0
M  CHG  2   1  -1  25  -1
M  END
>  <UniqueID>  (40) 
38

>  <SMILES>  (40) 
[NH-]S(=O)(=O)c1cccc(C(=O)N2CCC(CNc3cccc(C(=O)[N-]Cc4ccccc4)c3)CC2)c1

>  <Energy>  (40) 
68.4931503971312

>  <Genealogy>  (40) 
[NH-]S(=O)(=O)c1cccc(C(=O)N2CCC(CNc3cccc(C(=O)[N-]Cc4ccccc4)c3)CC2)c1 (protonated)
[NH-]S(=O)(=O)c1cccc(C(=O)N2CCC(CNc3cccc(C(=O)[N-]Cc4ccccc4)c3)CC2)c1 (3D coordinates assigned)
[NH-]S(=O)(=O)c1cccc(C(=O)N2CCC(CNc3cccc(C(=O)[N-]Cc4ccccc4)c3)CC2)c1 (nonaromatic ring conformer: 68.4931503971312 kcal/mol)

>  <smiles>  (40) 
NS(=O)(=O)c1cccc(C(=O)N2CCC(CNc3cccc(C(=O)NCc4ccccc4)c3)CC2)c1

>  <score_type>  (40) 
oracle

>  <origin>  (40) 
adg

>  <m_score__min__energy>  (40) 
-15.23

>  <m_primary>  (40) 
energy

$$$$
40:0
     RDKit          3D

 32 34  0  0  0  0  0  0  0  0999 V2000
   56.6610   31.0580   45.6870 H   0  0  0  0  0  0  0  0  0  0  0  0
   56.9210   32.0170   45.4920 O   0  0  0  0  0  0  0  0  0  0  0  0
   58.1690   32.5090   45.8640 C   0  0  0  0  0  0  0  0  0  0  0  0
   58.4330   33.8390   45.7640 N   0  0  0  0  0  0  0  0  0  0  0  0
   59.6430   34.3420   46.1230 C   0  0  0  0  0  0  0  0  0  0  0  0
   59.9300   35.9420   45.9940 S   0  0  0  0  0  0  0  0  0  0  0  0
   60.6140   33.5130   46.5870 N   0  0  0  0  0  0  0  0  0  0  0  0
   60.3980   32.1770   46.7030 C   0  0  0  0  0  0  0  0  0  0  0  0
   61.3180   31.4320   47.1310 O   0  0  0  0  0  0  0  0  0  0  0  0
   59.1560   31.6390   46.3420 C   0  0  0  0  0  0  0  0  0  0  0  0
   58.9000   30.2280   46.4460 N   0  0  0  0  0  0  0  0  0  0  0  0
   58.9970   29.4990   47.5780 C   0  0  0  0  0  0  0  0  0  0  0  0
   59.4390   30.0420   48.9030 C   0  0  0  0  0  0  0  0  0  0  0  0
   58.9683   29.4637   49.7117 H   0  0  0  0  0  0  0  0  0  0  0  0
   60.5331   29.9634   48.9849 H   0  0  0  0  0  0  0  0  0  0  0  0
   59.1400   31.0974   48.9849 H   0  0  0  0  0  0  0  0  0  0  0  0
   58.6140   28.1950   47.3430 C   0  0  0  0  0  0  0  0  0  0  0  0
   58.5709   27.3814   48.0820 H   0  0  0  0  0  0  0  0  0  0  0  0
   58.2940   28.1060   45.9980 C   0  0  0  0  0  0  0  0  0  0  0  0
   57.9460   26.9470   45.4070 C   0  0  0  0  0  0  0  0  0  0  0  0
   58.1996   26.8290   44.3432 H   0  0  0  0  0  0  0  0  0  0  0  0
   57.2550   25.8240   46.0630 C   0  0  0  0  0  0  0  0  0  0  0  0
   57.8710   24.7670   46.6240 N   0  0  0  0  0  0  0  0  0  0  0  0
   56.8600   24.0930   47.2130 C   0  0  0  0  0  0  0  0  0  0  0  0
   57.0370   23.0170   47.8400 O   0  0  0  0  0  0  0  0  0  0  0  0
   55.6460   24.6700   47.0870 N   0  0  0  0  0  0  0  0  0  0  0  0
   55.9180   25.7710   46.3690 C   0  0  0  0  0  0  0  0  0  0  0  0
   54.9630   26.7130   46.0050 O   0  0  0  0  0  0  0  0  0  0  0  0
   58.4370   29.4020   45.4740 C   0  0  0  0  0  0  0  0  0  0  0  0
   58.0640   29.8370   44.2600 C   0  0  0  0  0  0  0  0  0  0  0  0
   58.2359   30.8854   43.9747 H   0  0  0  0  0  0  0  0  0  0  0  0
   57.5865   29.1451   43.5506 H   0  0  0  0  0  0  0  0  0  0  0  0
  1  2  1  0
  2  3  1  0
  3  4  1  0
  4  5  1  0
  5  6  2  0
  5  7  1  0
  7  8  1  0
  8  9  2  0
  8 10  1  0
 10 11  1  0
 11 12  1  0
 12 13  1  0
 13 14  1  0
 13 15  1  0
 13 16  1  0
 12 17  2  0
 17 18  1  0
 17 19  1  0
 19 20  2  0
 20 21  1  0
 20 22  1  0
 22 23  1  0
 23 24  1  0
 24 25  2  0
 24 26  1  0
 26 27  1  0
 27 28  1  0
 19 29  1  0
 29 30  2  0
 30 31  1  0
 30 32  1  0
 10  3  2  0
 29 11  1  0
 27 22  2  0
M  CHG  5   4  -1   7  -1  23  -1  26  -1  28  -1
M  END
>  <UniqueID>  (41) 
39

>  <SMILES>  (41) 
C=c1/c(=C\c2[n-]c(=O)[n-]c2[O-])cc(C)n1-c1c(O)[n-]c(=S)[n-]c1=O

>  <Energy>  (41) 
110.69853879762279

>  <Genealogy>  (41) 
C=c1c(=Cc2[n-]c(=O)[n-]c2[O-])cc(C)n1-c1c(O)[n-]c(=S)[n-]c1=O (protonated)
C=c1/c(=C\c2[n-]c(=O)[n-]c2[O-])cc(C)n1-c1c(O)[n-]c(=S)[n-]c1=O (cis-trans isomerization)
C=c1/c(=C\c2[n-]c(=O)[n-]c2[O-])cc(C)n1-c1c(O)[n-]c(=S)[n-]c1=O (3D coordinates assigned)
C=c1/c(=C\c2[n-]c(=O)[n-]c2[O-])cc(C)n1-c1c(O)[n-]c(=S)[n-]c1=O (optimized conformer: 110.69853879762279 kcal/mol)

>  <smiles>  (41) 
C=c1c(=Cc2[nH]c(=O)[nH]c2O)cc(C)n1-c1c(O)[nH]c(=S)[nH]c1=O

>  <score_type>  (41) 
oracle

>  <origin>  (41) 
adg

>  <m_score__min__energy>  (41) 
-16.73

>  <m_primary>  (41) 
energy

$$$$
41:0
     RDKit          3D

 38 40  0  0  0  0  0  0  0  0999 V2000
   54.7850   30.9490   44.3390 H   0  0  0  0  0  0  0  0  0  0  0  0
   55.8160   30.8060   44.2370 N   0  0  0  0  0  0  0  0  0  0  0  0
   56.4070   29.7480   44.7010 C   0  0  0  0  0  0  0  0  0  0  0  0
   55.6340   28.6950   45.1130 N   0  0  0  0  0  0  0  0  0  0  0  0
   56.0240   27.4930   45.6360 C   0  0  0  0  0  0  0  0  0  0  0  0
   55.0360   26.5810   45.9880 O   0  0  0  0  0  0  0  0  0  0  0  0
   57.3700   27.1580   45.8290 C   0  0  0  0  0  0  0  0  0  0  0  0
   57.8090   25.8590   46.4520 C   0  0  0  0  0  0  0  0  0  0  0  0
   58.3164   26.0742   47.4039 H   0  0  0  0  0  0  0  0  0  0  0  0
   56.9157   25.2374   46.6119 H   0  0  0  0  0  0  0  0  0  0  0  0
   58.7710   25.0860   45.5400 C   0  0  0  0  0  0  0  0  0  0  0  0
   59.2735   25.7971   44.8678 H   0  0  0  0  0  0  0  0  0  0  0  0
   59.4994   24.5621   46.1763 H   0  0  0  0  0  0  0  0  0  0  0  0
   58.0500   24.0600   44.7120 C   0  0  0  0  0  0  0  0  0  0  0  0
   58.4050   22.7480   44.8070 N   0  0  0  0  0  0  0  0  0  0  0  0
   57.7550   21.7770   44.1110 C   0  0  0  0  0  0  0  0  0  0  0  0
   58.0703   20.7276   44.2071 H   0  0  0  0  0  0  0  0  0  0  0  0
   56.6870   22.1110   43.2740 C   0  0  0  0  0  0  0  0  0  0  0  0
   56.1587   21.3296   42.7080 H   0  0  0  0  0  0  0  0  0  0  0  0
   56.2980   23.4470   43.1640 C   0  0  0  0  0  0  0  0  0  0  0  0
   55.4584   23.7250   42.5099 H   0  0  0  0  0  0  0  0  0  0  0  0
   56.9780   24.4300   43.8870 C   0  0  0  0  0  0  0  0  0  0  0  0
   56.6754   25.4847   43.8099 H   0  0  0  0  0  0  0  0  0  0  0  0
   58.5170   28.3190   45.4030 S   0  0  0  0  0  0  0  0  0  0  0  0
   57.8080   29.7200   44.7630 C   0  0  0  0  0  0  0  0  0  0  0  0
   58.5090   30.7570   44.3950 N   0  0  0  0  0  0  0  0  0  0  0  0
   58.6770   31.9900   45.1130 C   0  0  0  0  0  0  0  0  0  0  0  0
   59.3050   32.0270   46.3710 C   0  0  0  0  0  0  0  0  0  0  0  0
   59.6478   31.0930   46.8403 H   0  0  0  0  0  0  0  0  0  0  0  0
   59.4950   33.2470   47.0270 C   0  0  0  0  0  0  0  0  0  0  0  0
   59.9686   33.2686   48.0196 H   0  0  0  0  0  0  0  0  0  0  0  0
   59.0830   34.4430   46.4220 C   0  0  0  0  0  0  0  0  0  0  0  0
   59.2660   35.6650   47.0660 O   0  0  0  0  0  0  0  0  0  0  0  0
   58.5330   36.0830   47.6260 H   0  0  0  0  0  0  0  0  0  0  0  0
   58.4890   34.4100   45.1570 C   0  0  0  0  0  0  0  0  0  0  0  0
   58.1706   35.3469   44.6765 H   0  0  0  0  0  0  0  0  0  0  0  0
   58.2980   33.1900   44.5000 C   0  0  0  0  0  0  0  0  0  0  0  0
   57.8477   33.1735   43.4965 H   0  0  0  0  0  0  0  0  0  0  0  0
  1  2  1  0
  2  3  2  0
  3  4  1  0
  4  5  1  0
  5  6  1  0
  5  7  2  0
  7  8  1  0
  8  9  1  0
  8 10  1  0
  8 11  1  0
 11 12  1  0
 11 13  1  0
 11 14  1  0
 14 15  2  0
 15 16  1  0
 16 17  1  0
 16 18  2  0
 18 19  1  0
 18 20  1  0
 20 21  1  0
 20 22  2  0
 22 23  1  0
  7 24  1  0
 24 25  1  0
 25 26  2  0
 26 27  1  0
 27 28  2  0
 28 29  1  0
 28 30  1  0
 30 31  1  0
 30 32  2  0
 32 33  1  0
 33 34  1  0
 32 35  1  0
 35 36  1  0
 35 37  2  0
 37 38  1  0
 25  3  1  0
 37 27  1  0
 22 14  1  0
M  CHG  2   4  -1   6  -1
M  END
>  <UniqueID>  (42) 
40

>  <SMILES>  (42) 
[H]/N=c1\[n-]c([O-])c(CCc2ccccn2)s\c1=N/c1ccc(O)cc1

>  <Energy>  (42) 
49.69805900864697

>  <Genealogy>  (42) 
N=c1[n-]c([O-])c(CCc2ccccn2)sc1=Nc1ccc(O)cc1 (protonated)
[H]/N=c1\[n-]c([O-])c(CCc2ccccn2)s\c1=N/c1ccc(O)cc1 (cis-trans isomerization)
[H]/N=c1\[n-]c([O-])c(CCc2ccccn2)s\c1=N/c1ccc(O)cc1 (3D coordinates assigned)
[H]/N=c1\[n-]c([O-])c(CCc2ccccn2)s\c1=N/c1ccc(O)cc1 (optimized conformer: 49.69805900864697 kcal/mol)

>  <smiles>  (42) 
N=c1[nH]c(O)c(CCc2ccccn2)sc1=Nc1ccc(O)cc1

>  <score_type>  (42) 
oracle

>  <origin>  (42) 
adg

>  <m_score__min__energy>  (42) 
-12.85

>  <m_primary>  (42) 
energy

$$$$
42:0
     RDKit          3D

 56 59  0  0  0  0  0  0  0  0999 V2000
   56.3000   25.8100   46.7980 O   0  0  0  0  0  0  0  0  0  0  0  0
   56.7170   26.6650   45.9720 C   0  0  0  0  0  0  0  0  0  0  0  0
   58.0880   26.5220   45.3830 C   0  0  0  0  0  0  0  0  0  0  0  0
   59.0380   27.5250   45.9840 C   0  0  0  0  0  0  0  0  0  0  0  0
   59.0520   27.7660   47.3640 C   0  0  0  0  0  0  0  0  0  0  0  0
   59.9250   28.7150   47.8990 C   0  0  0  0  0  0  0  0  0  0  0  0
   60.7650   29.4360   47.0480 C   0  0  0  0  0  0  0  0  0  0  0  0
   61.6230   30.4030   47.5900 O   0  0  0  0  0  0  0  0  0  0  0  0
   61.2600   31.7390   47.8030 C   0  0  0  0  0  0  0  0  0  0  0  0
   61.5680   32.6950   46.8280 C   0  0  0  0  0  0  0  0  0  0  0  0
   61.2070   34.0310   47.0150 C   0  0  0  0  0  0  0  0  0  0  0  0
   60.5390   34.4220   48.1800 C   0  0  0  0  0  0  0  0  0  0  0  0
   60.2320   33.4810   49.1690 C   0  0  0  0  0  0  0  0  0  0  0  0
   59.5790   33.9140   50.3340 O   0  0  0  0  0  0  0  0  0  0  0  0
   58.8240   33.1050   51.1970 C   0  0  0  0  0  0  0  0  0  0  0  0
   57.9880   32.0780   50.7160 C   0  0  0  0  0  0  0  0  0  0  0  0
   57.2520   31.2960   51.6110 C   0  0  0  0  0  0  0  0  0  0  0  0
   57.3260   31.5440   52.9850 C   0  0  0  0  0  0  0  0  0  0  0  0
   58.1390   32.5720   53.4660 C   0  0  0  0  0  0  0  0  0  0  0  0
   58.8790   33.3540   52.5740 C   0  0  0  0  0  0  0  0  0  0  0  0
   60.6200   32.1420   48.9880 C   0  0  0  0  0  0  0  0  0  0  0  0
   60.7540   29.1760   45.7060 N   0  0  0  0  0  0  0  0  0  0  0  0
   59.9190   28.2480   45.1660 C   0  0  0  0  0  0  0  0  0  0  0  0
   55.9020   27.7840   45.6190 N   0  0  0  0  0  0  0  0  0  0  0  0
   56.5410   29.2080   44.8710 S   0  0  0  0  0  0  0  0  0  0  0  0
   57.3730   28.8230   43.6800 O   0  0  0  0  0  0  0  0  0  0  0  0
   55.4150   30.1020   44.4310 O   0  0  0  0  0  0  0  0  0  0  0  0
   57.5810   30.0560   46.0460 C   0  0  0  0  0  0  0  0  0  0  0  0
   57.8060   31.4780   45.6120 C   0  0  0  0  0  0  0  0  0  0  0  0
   57.9760   31.7830   44.2510 C   0  0  0  0  0  0  0  0  0  0  0  0
   58.1470   33.1090   43.8430 C   0  0  0  0  0  0  0  0  0  0  0  0
   58.1360   34.1410   44.7870 C   0  0  0  0  0  0  0  0  0  0  0  0
   57.9580   33.8460   46.1440 C   0  0  0  0  0  0  0  0  0  0  0  0
   57.7910   32.5190   46.5560 C   0  0  0  0  0  0  0  0  0  0  0  0
   58.4619   25.5070   45.5829 H   0  0  0  0  0  0  0  0  0  0  0  0
   58.0258   26.7018   44.2996 H   0  0  0  0  0  0  0  0  0  0  0  0
   58.3747   27.2071   48.0264 H   0  0  0  0  0  0  0  0  0  0  0  0
   59.9510   28.8936   48.9841 H   0  0  0  0  0  0  0  0  0  0  0  0
   62.0961   32.3929   45.9116 H   0  0  0  0  0  0  0  0  0  0  0  0
   61.4486   34.7777   46.2442 H   0  0  0  0  0  0  0  0  0  0  0  0
   60.2534   35.4751   48.3195 H   0  0  0  0  0  0  0  0  0  0  0  0
   57.9143   31.8912   49.6345 H   0  0  0  0  0  0  0  0  0  0  0  0
   56.6133   30.4839   51.2335 H   0  0  0  0  0  0  0  0  0  0  0  0
   56.7436   30.9291   53.6870 H   0  0  0  0  0  0  0  0  0  0  0  0
   58.1974   32.7668   54.5470 H   0  0  0  0  0  0  0  0  0  0  0  0
   59.5089   34.1706   52.9565 H   0  0  0  0  0  0  0  0  0  0  0  0
   60.4214   31.4042   49.7794 H   0  0  0  0  0  0  0  0  0  0  0  0
   61.4100   29.6810   45.0690 H   0  0  0  0  0  0  0  0  0  0  0  0
   59.9346   28.0634   44.0817 H   0  0  0  0  0  0  0  0  0  0  0  0
   57.0939   30.0503   47.0323 H   0  0  0  0  0  0  0  0  0  0  0  0
   58.5514   29.5410   46.1023 H   0  0  0  0  0  0  0  0  0  0  0  0
   57.9745   30.9755   43.5040 H   0  0  0  0  0  0  0  0  0  0  0  0
   58.2905   33.3413   42.7774 H   0  0  0  0  0  0  0  0  0  0  0  0
   58.2672   35.1841   44.4633 H   0  0  0  0  0  0  0  0  0  0  0  0
   57.9494   34.6575   46.8866 H   0  0  0  0  0  0  0  0  0  0  0  0
   57.6475   32.2900   47.6223 H   0  0  0  0  0  0  0  0  0  0  0  0
  1  2  2  0
  2  3  1  0
  3  4  1  0
  4  5  2  0
  5  6  1  0
  6  7  2  0
  7  8  1  0
  8  9  1  0
  9 10  2  0
 10 11  1  0
 11 12  2  0
 12 13  1  0
 13 14  1  0
 14 15  1  0
 15 16  2  0
 16 17  1  0
 17 18  2  0
 18 19  1  0
 19 20  2  0
 13 21  2  0
  7 22  1  0
 22 23  2  0
  2 24  1  0
 24 25  1  0
 25 26  2  0
 25 27  2  0
 25 28  1  0
 28 29  1  0
 29 30  2  0
 30 31  1  0
 31 32  2  0
 32 33  1  0
 33 34  2  0
 23  4  1  0
 34 29  1  0
 21  9  1  0
 20 15  1  0
  3 35  1  0
  3 36  1  0
  5 37  1  0
  6 38  1  0
 10 39  1  0
 11 40  1  0
 12 41  1  0
 16 42  1  0
 17 43  1  0
 18 44  1  0
 19 45  1  0
 20 46  1  0
 21 47  1  0
 22 48  1  0
 23 49  1  0
 28 50  1  0
 28 51  1  0
 30 52  1  0
 31 53  1  0
 32 54  1  0
 33 55  1  0
 34 56  1  0
M  CHG  2  22   1  24  -1
M  END
>  <UniqueID>  (43) 
41

>  <SMILES>  (43) 
O=C(Cc1ccc(Oc2cccc(Oc3ccccc3)c2)[nH+]c1)[N-]S(=O)(=O)Cc1ccccc1

>  <Energy>  (43) 
64.33670519591384

>  <Genealogy>  (43) 
O=C(Cc1ccc(Oc2cccc(Oc3ccccc3)c2)[nH+]c1)[N-]S(=O)(=O)Cc1ccccc1 (protonated)
O=C(Cc1ccc(Oc2cccc(Oc3ccccc3)c2)[nH+]c1)[N-]S(=O)(=O)Cc1ccccc1 (3D coordinates assigned)
O=C(Cc1ccc(Oc2cccc(Oc3ccccc3)c2)[nH+]c1)[N-]S(=O)(=O)Cc1ccccc1 (optimized conformer: 64.33670519591384 kcal/mol)

>  <smiles>  (43) 
O=C(Cc1ccc(Oc2cccc(Oc3ccccc3)c2)nc1)NS(=O)(=O)Cc1ccccc1

>  <score_type>  (43) 
oracle

>  <origin>  (43) 
adg

>  <m_score__min__energy>  (43) 
-10.539999999999999

>  <m_primary>  (43) 
energy

$$$$
43:0
     RDKit          3D

 36 38  0  0  0  0  0  0  0  0999 V2000
   55.6250   29.5150   44.8650 N   0  0  0  0  0  0  0  0  0  0  0  0
   56.8780   29.1970   44.9230 C   0  0  0  0  0  0  0  0  0  0  0  0
   57.7110   29.8070   45.8680 C   0  0  0  0  0  0  0  0  0  0  0  0
   59.0710   29.4530   45.9320 C   0  0  0  0  0  0  0  0  0  0  0  0
   59.9720   30.0860   46.9280 C   0  0  0  0  0  0  0  0  0  0  0  0
   60.2470   29.4560   48.1550 C   0  0  0  0  0  0  0  0  0  0  0  0
   61.0670   30.0470   49.0660 N   0  0  0  0  0  0  0  0  0  0  0  0
   61.6420   31.2560   48.8270 C   0  0  0  0  0  0  0  0  0  0  0  0
   61.4030   31.9240   47.6230 C   0  0  0  0  0  0  0  0  0  0  0  0
   62.1380   33.4980   47.3320 S   0  0  0  0  0  0  0  0  0  0  0  0
   62.6220   34.0570   48.6400 O   0  0  0  0  0  0  0  0  0  0  0  0
   63.3060   33.3840   46.3920 O   0  0  0  0  0  0  0  0  0  0  0  0
   60.9600   34.5740   46.6530 N   0  0  0  0  0  0  0  0  0  0  0  0
   59.6370   34.1980   46.2430 C   0  0  0  0  0  0  0  0  0  0  0  0
   58.7030   33.8500   47.2290 C   0  0  0  0  0  0  0  0  0  0  0  0
   57.4030   33.4780   46.8720 C   0  0  0  0  0  0  0  0  0  0  0  0
   57.0270   33.4510   45.5280 C   0  0  0  0  0  0  0  0  0  0  0  0
   57.9500   33.7980   44.5380 C   0  0  0  0  0  0  0  0  0  0  0  0
   59.2500   34.1730   44.8900 C   0  0  0  0  0  0  0  0  0  0  0  0
   60.5670   31.3310   46.6710 C   0  0  0  0  0  0  0  0  0  0  0  0
   59.5610   28.4890   45.0350 C   0  0  0  0  0  0  0  0  0  0  0  0
   58.6980   27.9070   44.1040 C   0  0  0  0  0  0  0  0  0  0  0  0
   57.3870   28.2690   44.0680 N   0  0  0  0  0  0  0  0  0  0  0  0
   55.0450   29.6120   45.7300 H   0  0  0  0  0  0  0  0  0  0  0  0
   57.3037   30.5605   46.5582 H   0  0  0  0  0  0  0  0  0  0  0  0
   59.7959   28.4783   48.3799 H   0  0  0  0  0  0  0  0  0  0  0  0
   61.2530   29.5650   49.9730 H   0  0  0  0  0  0  0  0  0  0  0  0
   62.2979   31.7100   49.5845 H   0  0  0  0  0  0  0  0  0  0  0  0
   58.9944   33.8697   48.2895 H   0  0  0  0  0  0  0  0  0  0  0  0
   56.6758   33.2063   47.6514 H   0  0  0  0  0  0  0  0  0  0  0  0
   56.0046   33.1567   45.2484 H   0  0  0  0  0  0  0  0  0  0  0  0
   57.6530   33.7761   43.4791 H   0  0  0  0  0  0  0  0  0  0  0  0
   59.9722   34.4492   44.1076 H   0  0  0  0  0  0  0  0  0  0  0  0
   60.3750   31.8428   45.7165 H   0  0  0  0  0  0  0  0  0  0  0  0
   60.6202   28.1939   45.0659 H   0  0  0  0  0  0  0  0  0  0  0  0
   59.0790   27.1542   43.3982 H   0  0  0  0  0  0  0  0  0  0  0  0
  1  2  2  3
  2  3  1  0
  3  4  2  0
  4  5  1  0
  5  6  2  0
  6  7  1  0
  7  8  2  0
  8  9  1  0
  9 10  1  0
 10 11  2  0
 10 12  2  0
 10 13  1  0
 13 14  1  0
 14 15  2  0
 15 16  1  0
 16 17  2  0
 17 18  1  0
 18 19  2  0
  9 20  2  0
  4 21  1  0
 21 22  2  0
 22 23  1  0
 23  2  1  0
 20  5  1  0
 19 14  1  0
  1 24  1  0
  3 25  1  0
  6 26  1  0
  7 27  1  0
  8 28  1  0
 15 29  1  0
 16 30  1  0
 17 31  1  0
 18 32  1  0
 19 33  1  0
 20 34  1  0
 21 35  1  0
 22 36  1  0
M  CHG  3   7   1  13  -1  23  -1
M  END
>  <UniqueID>  (44) 
42

>  <SMILES>  (44) 
N=c1cc(-c2c[nH+]cc(S(=O)(=O)[N-]c3ccccc3)c2)cc[n-]1

>  <Energy>  (44) 
47.57344905803204

>  <Genealogy>  (44) 
N=c1cc(-c2c[nH+]cc(S(=O)(=O)[N-]c3ccccc3)c2)cc[n-]1 (protonated)
N=c1cc(-c2c[nH+]cc(S(=O)(=O)[N-]c3ccccc3)c2)cc[n-]1 (3D coordinates assigned)
N=c1cc(-c2c[nH+]cc(S(=O)(=O)[N-]c3ccccc3)c2)cc[n-]1 (optimized conformer: 47.57344905803204 kcal/mol)

>  <smiles>  (44) 
N=c1cc(-c2cncc(S(=O)(=O)Nc3ccccc3)c2)cc[nH]1

>  <score_type>  (44) 
oracle

>  <origin>  (44) 
adg

>  <m_score__min__energy>  (44) 
-10.039999999999999

>  <m_primary>  (44) 
energy

$$$$
44:0
     RDKit          3D

 68 71  0  0  0  0  0  0  0  0999 V2000
   57.0740   21.3350   45.4420 C   0  0  0  0  0  0  0  0  0  0  0  0
   57.1740   22.7380   45.0110 N   0  0  0  0  0  0  0  0  0  0  0  0
   55.8430   23.2680   44.6270 C   0  0  0  0  0  0  0  0  0  0  0  0
   55.0420   23.5890   45.8910 C   0  0  0  0  0  0  0  0  0  0  0  0
   54.0640   24.6910   45.6370 C   0  0  0  0  0  0  0  0  0  0  0  0
   54.3890   26.0330   45.9940 N   0  0  0  0  0  0  0  0  0  0  0  0
   52.9520   24.4380   45.0990 O   0  0  0  0  0  0  0  0  0  0  0  0
   57.8040   23.5510   46.0700 C   0  0  0  0  0  0  0  0  0  0  0  0
   57.7280   25.0190   45.7320 C   0  0  0  0  0  0  0  0  0  0  0  0
   58.0760   25.4740   44.4510 C   0  0  0  0  0  0  0  0  0  0  0  0
   57.9740   26.8310   44.1310 C   0  0  0  0  0  0  0  0  0  0  0  0
   57.5050   27.7490   45.0780 C   0  0  0  0  0  0  0  0  0  0  0  0
   57.4150   29.1340   44.7160 N   0  0  0  0  0  0  0  0  0  0  0  0
   56.2170   29.9200   44.7220 C   0  0  0  0  0  0  0  0  0  0  0  0
   55.1090   29.3420   44.8660 O   0  0  0  0  0  0  0  0  0  0  0  0
   56.2470   31.3490   44.6150 N   0  0  0  0  0  0  0  0  0  0  0  0
   57.3780   32.1380   44.1320 C   0  0  0  0  0  0  0  0  0  0  0  0
   58.2290   32.5970   45.2850 C   0  0  0  0  0  0  0  0  0  0  0  0
   58.4480   33.9660   45.5100 C   0  0  0  0  0  0  0  0  0  0  0  0
   59.2500   34.3860   46.5760 C   0  0  0  0  0  0  0  0  0  0  0  0
   59.8280   33.4450   47.4390 C   0  0  0  0  0  0  0  0  0  0  0  0
   60.6350   33.8960   48.5870 C   0  0  0  0  0  0  0  0  0  0  0  0
   60.2060   34.8770   49.2490 O   0  0  0  0  0  0  0  0  0  0  0  0
   61.8690   33.2250   48.9590 N   0  0  0  0  0  0  0  0  0  0  0  0
   62.6950   32.5660   47.9380 C   0  0  0  0  0  0  0  0  0  0  0  0
   64.0650   33.2400   47.8920 C   0  0  0  0  0  0  0  0  0  0  0  0
   64.7720   33.1070   49.2440 C   0  0  0  0  0  0  0  0  0  0  0  0
   63.8590   33.3390   50.4270 C   0  0  0  0  0  0  0  0  0  0  0  0
   64.4330   33.4550   51.7020 C   0  0  0  0  0  0  0  0  0  0  0  0
   63.6270   33.5380   52.8370 C   0  0  0  0  0  0  0  0  0  0  0  0
   62.2370   33.4660   52.7170 C   0  0  0  0  0  0  0  0  0  0  0  0
   61.4260   33.5030   53.8490 O   0  0  0  0  0  0  0  0  0  0  0  0
   61.6510   33.3460   51.4530 C   0  0  0  0  0  0  0  0  0  0  0  0
   62.4470   33.3190   50.2880 C   0  0  0  0  0  0  0  0  0  0  0  0
   59.6340   32.0770   47.1980 C   0  0  0  0  0  0  0  0  0  0  0  0
   58.8420   31.6560   46.1270 C   0  0  0  0  0  0  0  0  0  0  0  0
   57.1760   27.2990   46.3670 C   0  0  0  0  0  0  0  0  0  0  0  0
   57.2720   25.9420   46.6870 C   0  0  0  0  0  0  0  0  0  0  0  0
   57.0707   21.2884   46.5410 H   0  0  0  0  0  0  0  0  0  0  0  0
   56.1424   20.8976   45.0536 H   0  0  0  0  0  0  0  0  0  0  0  0
   57.9341   20.7699   45.0536 H   0  0  0  0  0  0  0  0  0  0  0  0
   55.9702   24.1833   44.0304 H   0  0  0  0  0  0  0  0  0  0  0  0
   55.3050   22.5160   44.0311 H   0  0  0  0  0  0  0  0  0  0  0  0
   54.4957   22.6889   46.2096 H   0  0  0  0  0  0  0  0  0  0  0  0
   55.7402   23.9128   46.6769 H   0  0  0  0  0  0  0  0  0  0  0  0
   54.7770   26.6980   45.2870 H   0  0  0  0  0  0  0  0  0  0  0  0
   57.2816   23.3721   47.0214 H   0  0  0  0  0  0  0  0  0  0  0  0
   58.8620   23.2622   46.1551 H   0  0  0  0  0  0  0  0  0  0  0  0
   58.4311   24.7589   43.6944 H   0  0  0  0  0  0  0  0  0  0  0  0
   58.2641   27.1796   43.1288 H   0  0  0  0  0  0  0  0  0  0  0  0
   57.9873   31.5211   43.4551 H   0  0  0  0  0  0  0  0  0  0  0  0
   56.9950   33.0203   43.5982 H   0  0  0  0  0  0  0  0  0  0  0  0
   57.9868   34.7110   44.8450 H   0  0  0  0  0  0  0  0  0  0  0  0
   59.4279   35.4594   46.7378 H   0  0  0  0  0  0  0  0  0  0  0  0
   62.8160   31.5026   48.1921 H   0  0  0  0  0  0  0  0  0  0  0  0
   62.2073   32.6504   46.9556 H   0  0  0  0  0  0  0  0  0  0  0  0
   64.6781   32.7617   47.1139 H   0  0  0  0  0  0  0  0  0  0  0  0
   63.9296   34.3076   47.6640 H   0  0  0  0  0  0  0  0  0  0  0  0
   65.1898   32.0923   49.3202 H   0  0  0  0  0  0  0  0  0  0  0  0
   65.5513   33.8825   49.2795 H   0  0  0  0  0  0  0  0  0  0  0  0
   65.5277   33.4807   51.8072 H   0  0  0  0  0  0  0  0  0  0  0  0
   64.0867   33.6604   53.8288 H   0  0  0  0  0  0  0  0  0  0  0  0
   61.7010   33.0450   54.7110 H   0  0  0  0  0  0  0  0  0  0  0  0
   60.5570   33.2718   51.3658 H   0  0  0  0  0  0  0  0  0  0  0  0
   60.1074   31.3325   47.8550 H   0  0  0  0  0  0  0  0  0  0  0  0
   58.6980   30.5812   45.9425 H   0  0  0  0  0  0  0  0  0  0  0  0
   56.8410   28.0184   47.1287 H   0  0  0  0  0  0  0  0  0  0  0  0
   56.9890   25.5952   47.6918 H   0  0  0  0  0  0  0  0  0  0  0  0
  1  2  1  0
  2  3  1  0
  3  4  1  0
  4  5  1  0
  5  6  1  0
  5  7  2  0
  2  8  1  0
  8  9  1  0
  9 10  2  0
 10 11  1  0
 11 12  2  0
 12 13  1  0
 13 14  1  0
 14 15  2  0
 14 16  1  0
 16 17  1  0
 17 18  1  0
 18 19  2  0
 19 20  1  0
 20 21  2  0
 21 22  1  0
 22 23  2  0
 22 24  1  0
 24 25  1  0
 25 26  1  0
 26 27  1  0
 27 28  1  0
 28 29  2  0
 29 30  1  0
 30 31  2  0
 31 32  1  0
 31 33  1  0
 33 34  2  0
 21 35  1  0
 35 36  2  0
 12 37  1  0
 37 38  2  0
 38  9  1  0
 36 18  1  0
 34 24  1  0
 34 28  1  0
  1 39  1  0
  1 40  1  0
  1 41  1  0
  3 42  1  0
  3 43  1  0
  4 44  1  0
  4 45  1  0
  6 46  1  0
  8 47  1  0
  8 48  1  0
 10 49  1  0
 11 50  1  0
 17 51  1  0
 17 52  1  0
 19 53  1  0
 20 54  1  0
 25 55  1  0
 25 56  1  0
 26 57  1  0
 26 58  1  0
 27 59  1  0
 27 60  1  0
 29 61  1  0
 30 62  1  0
 32 63  1  0
 33 64  1  0
 35 65  1  0
 36 66  1  0
 37 67  1  0
 38 68  1  0
M  CHG  3   6  -1  13  -1  16  -1
M  END
>  <UniqueID>  (45) 
43

>  <SMILES>  (45) 
CN(CCC([NH-])=O)Cc1ccc([N-]C(=O)[N-]Cc2ccc(C(=O)N3CCCc4ccc(O)cc43)cc2)cc1

>  <Energy>  (45) 
88.39704874328919

>  <Genealogy>  (45) 
CN(CCC([NH-])=O)Cc1ccc([N-]C(=O)[N-]Cc2ccc(C(=O)N3CCCc4ccc(O)cc43)cc2)cc1 (protonated)
CN(CCC([NH-])=O)Cc1ccc([N-]C(=O)[N-]Cc2ccc(C(=O)N3CCCc4ccc(O)cc43)cc2)cc1 (3D coordinates assigned)
CN(CCC([NH-])=O)Cc1ccc([N-]C(=O)[N-]Cc2ccc(C(=O)N3CCCc4ccc(O)cc43)cc2)cc1 (nonaromatic ring conformer: 88.39704874328919 kcal/mol)

>  <smiles>  (45) 
CN(CCC(N)=O)Cc1ccc(NC(=O)NCc2ccc(C(=O)N3CCCc4ccc(O)cc43)cc2)cc1

>  <score_type>  (45) 
oracle

>  <origin>  (45) 
adg

>  <m_score__min__energy>  (45) 
-15.01

>  <m_primary>  (45) 
energy

$$$$
45:0
     RDKit          3D

 55 58  0  0  0  0  0  0  0  0999 V2000
   58.9240   29.9490   44.4640 C   0  0  0  0  0  0  0  0  0  0  0  0
   58.7850   29.6300   45.7610 C   0  0  0  0  0  0  0  0  0  0  0  0
   58.2360   28.4510   46.2830 C   0  0  0  0  0  0  0  0  0  0  0  0
   57.7290   27.4160   45.5800 C   0  0  0  0  0  0  0  0  0  0  0  0
   57.1960   26.1620   46.1570 C   0  0  0  0  0  0  0  0  0  0  0  0
   57.9250   25.1020   46.5510 N   0  0  0  0  0  0  0  0  0  0  0  0
   56.9940   24.2080   46.9470 C   0  0  0  0  0  0  0  0  0  0  0  0
   57.2940   23.0690   47.3930 O   0  0  0  0  0  0  0  0  0  0  0  0
   55.7170   24.6260   46.8240 N   0  0  0  0  0  0  0  0  0  0  0  0
   55.8630   25.8620   46.3180 C   0  0  0  0  0  0  0  0  0  0  0  0
   54.7980   26.6990   46.0100 O   0  0  0  0  0  0  0  0  0  0  0  0
   58.3040   28.5760   47.6690 C   0  0  0  0  0  0  0  0  0  0  0  0
   58.8840   29.8020   47.9300 C   0  0  0  0  0  0  0  0  0  0  0  0
   59.1640   30.3490   49.2970 C   0  0  0  0  0  0  0  0  0  0  0  0
   59.1790   30.4360   46.7770 N   0  0  0  0  0  0  0  0  0  0  0  0
   59.8050   31.7240   46.6720 C   0  0  0  0  0  0  0  0  0  0  0  0
   61.1350   31.8820   47.0810 C   0  0  0  0  0  0  0  0  0  0  0  0
   61.7860   33.1270   46.9660 C   0  0  0  0  0  0  0  0  0  0  0  0
   63.2110   33.2560   47.4040 C   0  0  0  0  0  0  0  0  0  0  0  0
   64.1170   33.1010   46.5360 O   0  0  0  0  0  0  0  0  0  0  0  0
   63.5700   33.5920   48.7750 N   0  0  0  0  0  0  0  0  0  0  0  0
   63.7040   32.3840   49.6150 C   0  0  0  0  0  0  0  0  0  0  0  0
   62.3490   31.7360   49.9130 C   0  0  0  0  0  0  0  0  0  0  0  0
   61.4410   32.7210   50.5080 N   0  0  0  0  0  0  0  0  0  0  0  0
   60.4620   32.2850   51.4820 C   0  0  0  0  0  0  0  0  0  0  0  0
   59.2350   33.0940   51.7870 C   0  0  0  0  0  0  0  0  0  0  0  0
   60.6380   31.2070   52.1130 O   0  0  0  0  0  0  0  0  0  0  0  0
   61.3000   34.0160   49.8290 C   0  0  0  0  0  0  0  0  0  0  0  0
   62.6690   34.5870   49.4070 C   0  0  0  0  0  0  0  0  0  0  0  0
   61.0610   34.2140   46.4340 C   0  0  0  0  0  0  0  0  0  0  0  0
   59.7320   34.0580   46.0330 C   0  0  0  0  0  0  0  0  0  0  0  0
   59.1000   32.8180   46.1500 C   0  0  0  0  0  0  0  0  0  0  0  0
   57.4290   32.6520   45.6280 Cl  0  0  0  0  0  0  0  0  0  0  0  0
   59.3735   30.9118   44.1795 H   0  0  0  0  0  0  0  0  0  0  0  0
   58.5884   29.2475   43.6860 H   0  0  0  0  0  0  0  0  0  0  0  0
   57.7105   27.5132   44.4845 H   0  0  0  0  0  0  0  0  0  0  0  0
   57.9619   27.8404   48.4118 H   0  0  0  0  0  0  0  0  0  0  0  0
   58.8015   29.6408   50.0566 H   0  0  0  0  0  0  0  0  0  0  0  0
   60.2475   30.4946   49.4188 H   0  0  0  0  0  0  0  0  0  0  0  0
   58.6485   31.3131   49.4188 H   0  0  0  0  0  0  0  0  0  0  0  0
   61.6796   31.0221   47.4981 H   0  0  0  0  0  0  0  0  0  0  0  0
   64.5030   34.0630   48.7460 H   0  0  0  0  0  0  0  0  0  0  0  0
   64.3378   31.6548   49.0890 H   0  0  0  0  0  0  0  0  0  0  0  0
   64.1530   32.6857   50.5728 H   0  0  0  0  0  0  0  0  0  0  0  0
   61.9127   31.3575   48.9768 H   0  0  0  0  0  0  0  0  0  0  0  0
   62.4940   30.9059   50.6201 H   0  0  0  0  0  0  0  0  0  0  0  0
   59.1112   33.1756   52.8770 H   0  0  0  0  0  0  0  0  0  0  0  0
   59.3417   34.0995   51.3538 H   0  0  0  0  0  0  0  0  0  0  0  0
   58.3529   32.5998   51.3538 H   0  0  0  0  0  0  0  0  0  0  0  0
   60.6768   33.8831   48.9324 H   0  0  0  0  0  0  0  0  0  0  0  0
   60.8332   34.7234   50.5302 H   0  0  0  0  0  0  0  0  0  0  0  0
   62.4970   35.4026   48.6893 H   0  0  0  0  0  0  0  0  0  0  0  0
   63.1677   34.9289   50.3259 H   0  0  0  0  0  0  0  0  0  0  0  0
   61.5477   35.1954   46.3338 H   0  0  0  0  0  0  0  0  0  0  0  0
   59.1801   34.9166   45.6228 H   0  0  0  0  0  0  0  0  0  0  0  0
  1  2  2  0
  2  3  1  0
  3  4  2  3
  4  5  1  0
  5  6  1  0
  6  7  1  0
  7  8  2  0
  7  9  1  0
  9 10  1  0
 10 11  1  0
  3 12  1  0
 12 13  2  0
 13 14  1  0
 13 15  1  0
 15 16  1  0
 16 17  2  0
 17 18  1  0
 18 19  1  0
 19 20  2  0
 19 21  1  0
 21 22  1  0
 22 23  1  0
 23 24  1  0
 24 25  1  0
 25 26  1  0
 25 27  2  0
 24 28  1  0
 28 29  1  0
 18 30  2  0
 30 31  1  0
 31 32  2  0
 32 33  1  0
 15  2  1  0
 32 16  1  0
 10  5  2  0
 29 21  1  0
  1 34  1  0
  1 35  1  0
  4 36  1  0
 12 37  1  0
 14 38  1  0
 14 39  1  0
 14 40  1  0
 17 41  1  0
 21 42  1  0
 22 43  1  0
 22 44  1  0
 23 45  1  0
 23 46  1  0
 26 47  1  0
 26 48  1  0
 26 49  1  0
 28 50  1  0
 28 51  1  0
 29 52  1  0
 29 53  1  0
 30 54  1  0
 31 55  1  0
M  CHG  4   6  -1   9  -1  11  -1  21   1
M  END
>  <UniqueID>  (46) 
44

>  <SMILES>  (46) 
C=c1c(=Cc2[n-]c(=O)[n-]c2[O-])cc(C)n1-c1cc(C(=O)[NH+]2CCN(C(C)=O)CC2)ccc1Cl

>  <Energy>  (46) 
135.98226365921394

>  <Genealogy>  (46) 
C=c1c(=Cc2[n-]c(=O)[n-]c2[O-])cc(C)n1-c1cc(C(=O)[NH+]2CCN(C(C)=O)CC2)ccc1Cl (protonated)
C=c1c(=Cc2[n-]c(=O)[n-]c2[O-])cc(C)n1-c1cc(C(=O)[NH+]2CCN(C(C)=O)CC2)ccc1Cl (3D coordinates assigned)
C=c1c(=Cc2[n-]c(=O)[n-]c2[O-])cc(C)n1-c1cc(C(=O)[NH+]2CCN(C(C)=O)CC2)ccc1Cl (nonaromatic ring conformer: 135.98226365921394 kcal/mol)

>  <smiles>  (46) 
C=c1c(=Cc2[nH]c(=O)[nH]c2O)cc(C)n1-c1cc(C(=O)N2CCN(C(C)=O)CC2)ccc1Cl

>  <score_type>  (46) 
oracle

>  <origin>  (46) 
adg

>  <m_score__min__energy>  (46) 
-15.82

>  <m_primary>  (46) 
energy

$$$$
46:0
     RDKit          3D

 47 49  0  0  0  0  0  0  0  0999 V2000
   58.0610   30.8180   51.2830 C   0  0  0  0  0  0  0  0  0  0  0  0
   59.3140   30.4390   50.5010 C   0  0  0  0  0  0  0  0  0  0  0  0
   59.1830   30.8320   49.0960 N   0  0  0  0  0  0  0  0  0  0  0  0
   59.1950   32.1600   48.5980 C   0  0  0  0  0  0  0  0  0  0  0  0
   59.5820   33.3080   49.2950 C   0  0  0  0  0  0  0  0  0  0  0  0
   59.6190   34.5280   48.6060 C   0  0  0  0  0  0  0  0  0  0  0  0
   59.2850   34.5820   47.2420 C   0  0  0  0  0  0  0  0  0  0  0  0
   58.8900   33.4180   46.5520 C   0  0  0  0  0  0  0  0  0  0  0  0
   58.5760   33.4880   45.1100 C   0  0  0  0  0  0  0  0  0  0  0  0
   58.8630   34.5350   44.4690 O   0  0  0  0  0  0  0  0  0  0  0  0
   57.9010   32.4040   44.4550 N   0  0  0  0  0  0  0  0  0  0  0  0
   57.8340   32.2540   43.0280 C   0  0  0  0  0  0  0  0  0  0  0  0
   58.4910   33.0190   42.2710 O   0  0  0  0  0  0  0  0  0  0  0  0
   56.9900   31.1720   42.4300 C   0  0  0  0  0  0  0  0  0  0  0  0
   57.2160   29.9090   43.1290 N   0  0  0  0  0  0  0  0  0  0  0  0
   56.5470   29.5800   44.3550 C   0  0  0  0  0  0  0  0  0  0  0  0
   55.7030   30.3760   44.8490 O   0  0  0  0  0  0  0  0  0  0  0  0
   56.8440   28.3140   45.0430 C   0  0  0  0  0  0  0  0  0  0  0  0
   58.0920   27.7350   45.1720 C   0  0  0  0  0  0  0  0  0  0  0  0
   57.8880   26.5710   45.8820 C   0  0  0  0  0  0  0  0  0  0  0  0
   56.5330   26.5120   46.1410 C   0  0  0  0  0  0  0  0  0  0  0  0
   55.9390   27.5640   45.6280 O   0  0  0  0  0  0  0  0  0  0  0  0
   58.8570   32.2060   47.2700 C   0  0  0  0  0  0  0  0  0  0  0  0
   58.5780   30.8240   46.7690 C   0  0  0  0  0  0  0  0  0  0  0  0
   58.8900   29.9150   47.9920 C   0  0  1  0  0  0  0  0  0  0  0  0
   60.0880   29.0000   47.7190 C   0  0  0  0  0  0  0  0  0  0  0  0
   58.2688   30.7552   52.3614 H   0  0  0  0  0  0  0  0  0  0  0  0
   57.7652   31.8458   51.0259 H   0  0  0  0  0  0  0  0  0  0  0  0
   57.2451   30.1264   51.0259 H   0  0  0  0  0  0  0  0  0  0  0  0
   60.1829   30.9509   50.9401 H   0  0  0  0  0  0  0  0  0  0  0  0
   59.4486   29.3485   50.5533 H   0  0  0  0  0  0  0  0  0  0  0  0
   59.8514   33.2552   50.3602 H   0  0  0  0  0  0  0  0  0  0  0  0
   59.9107   35.4472   49.1352 H   0  0  0  0  0  0  0  0  0  0  0  0
   59.3323   35.5422   46.7074 H   0  0  0  0  0  0  0  0  0  0  0  0
   57.3840   31.7140   45.0450 H   0  0  0  0  0  0  0  0  0  0  0  0
   55.9291   31.4498   42.5160 H   0  0  0  0  0  0  0  0  0  0  0  0
   57.2623   31.0492   41.3713 H   0  0  0  0  0  0  0  0  0  0  0  0
   57.8860   29.2250   42.7110 H   0  0  0  0  0  0  0  0  0  0  0  0
   59.0478   28.1217   44.7886 H   0  0  0  0  0  0  0  0  0  0  0  0
   58.6508   25.8373   46.1817 H   0  0  0  0  0  0  0  0  0  0  0  0
   56.0281   25.7058   46.6934 H   0  0  0  0  0  0  0  0  0  0  0  0
   57.5260   30.7228   46.4640 H   0  0  0  0  0  0  0  0  0  0  0  0
   59.1758   30.5643   45.8829 H   0  0  0  0  0  0  0  0  0  0  0  0
   58.0435   29.2507   48.2203 H   0  0  0  0  0  0  0  0  0  0  0  0
   60.5216   28.6688   48.6742 H   0  0  0  0  0  0  0  0  0  0  0  0
   59.7561   28.1233   47.1434 H   0  0  0  0  0  0  0  0  0  0  0  0
   60.8465   29.5509   47.1434 H   0  0  0  0  0  0  0  0  0  0  0  0
  1  2  1  0
  2  3  1  0
  3  4  1  0
  4  5  2  0
  5  6  1  0
  6  7  2  0
  7  8  1  0
  8  9  1  0
  9 10  2  0
  9 11  1  0
 11 12  1  0
 12 13  2  0
 12 14  1  0
 14 15  1  0
 15 16  1  0
 16 17  2  0
 16 18  1  0
 18 19  2  0
 19 20  1  0
 20 21  2  0
 21 22  1  0
  8 23  2  0
 23 24  1  0
 24 25  1  0
 25 26  1  0
 25  3  1  0
 23  4  1  0
 22 18  1  0
  1 27  1  0
  1 28  1  0
  1 29  1  0
  2 30  1  0
  2 31  1  0
  5 32  1  0
  6 33  1  0
  7 34  1  0
 11 35  1  0
 14 36  1  0
 14 37  1  0
 15 38  1  0
 19 39  1  0
 20 40  1  0
 21 41  1  0
 24 42  1  0
 24 43  1  0
 25 44  1  1
 26 45  1  0
 26 46  1  0
 26 47  1  0
M  END
>  <UniqueID>  (47) 
45

>  <SMILES>  (47) 
CCN1c2cccc(C(=O)NC(=O)CNC(=O)c3ccco3)c2C[C@H]1C

>  <Energy>  (47) 
82.61715879320828

>  <Genealogy>  (47) 
CCN1c2cccc(C(=O)NC(=O)CNC(=O)c3ccco3)c2C[C@H]1C (chirality)
CCN1c2cccc(C(=O)NC(=O)CNC(=O)c3ccco3)c2C[C@H]1C (3D coordinates assigned)
CCN1c2cccc(C(=O)NC(=O)CNC(=O)c3ccco3)c2C[C@H]1C (nonaromatic ring conformer: 82.61715879320828 kcal/mol)

>  <smiles>  (47) 
CCN1c2cccc(C(=O)NC(=O)CNC(=O)c3ccco3)c2CC1C

>  <score_type>  (47) 
oracle

>  <origin>  (47) 
adg

>  <m_score__min__energy>  (47) 
-8.3800000000000008

>  <m_primary>  (47) 
energy

$$$$
47:0
     RDKit          3D

 58 60  0  0  0  0  0  0  0  0999 V2000
   57.5693   29.5845   43.7694 H   0  0  0  0  0  0  0  0  0  0  0  0
   57.3860   28.5090   43.9100 C   0  0  0  0  0  0  0  0  0  0  0  0
   56.8154   27.9453   43.1572 H   0  0  0  0  0  0  0  0  0  0  0  0
   57.8590   27.8840   45.0010 C   0  0  0  0  0  0  0  0  0  0  0  0
   57.7140   26.5260   45.3290 C   0  0  0  0  0  0  0  0  0  0  0  0
   57.2520   25.4850   44.6080 C   0  0  0  0  0  0  0  0  0  0  0  0
   57.8814   25.1273   43.7798 H   0  0  0  0  0  0  0  0  0  0  0  0
   55.9720   24.7840   44.8360 C   0  0  0  0  0  0  0  0  0  0  0  0
   54.9400   25.4090   45.5500 C   0  0  0  0  0  0  0  0  0  0  0  0
   55.0830   26.7160   46.0040 O   0  0  0  0  0  0  0  0  0  0  0  0
   53.7830   24.7390   45.7940 N   0  0  0  0  0  0  0  0  0  0  0  0
   53.6090   23.4600   45.3720 C   0  0  0  0  0  0  0  0  0  0  0  0
   52.5270   22.8630   45.6070 O   0  0  0  0  0  0  0  0  0  0  0  0
   54.6030   22.8240   44.7020 N   0  0  0  0  0  0  0  0  0  0  0  0
   55.7790   23.4490   44.4330 C   0  0  0  0  0  0  0  0  0  0  0  0
   56.6900   22.8200   43.8300 O   0  0  0  0  0  0  0  0  0  0  0  0
   58.1820   26.3890   46.6250 C   0  0  0  0  0  0  0  0  0  0  0  0
   58.1838   25.4680   47.2264 H   0  0  0  0  0  0  0  0  0  0  0  0
   58.6450   27.6260   47.0180 C   0  0  0  0  0  0  0  0  0  0  0  0
   59.2710   27.9150   48.3500 C   0  0  0  0  0  0  0  0  0  0  0  0
   58.5878   27.5996   49.1524 H   0  0  0  0  0  0  0  0  0  0  0  0
   60.2186   27.3632   48.4373 H   0  0  0  0  0  0  0  0  0  0  0  0
   59.4657   28.9941   48.4373 H   0  0  0  0  0  0  0  0  0  0  0  0
   58.4490   28.5370   46.0370 N   0  0  0  0  0  0  0  0  0  0  0  0
   58.7840   29.9350   46.1080 C   0  0  0  0  0  0  0  0  0  0  0  0
   60.0400   30.3410   46.5840 C   0  0  0  0  0  0  0  0  0  0  0  0
   60.7803   29.5868   46.8891 H   0  0  0  0  0  0  0  0  0  0  0  0
   60.3540   31.7000   46.6720 C   0  0  0  0  0  0  0  0  0  0  0  0
   61.3445   32.0098   47.0366 H   0  0  0  0  0  0  0  0  0  0  0  0
   59.4130   32.6720   46.2980 C   0  0  0  0  0  0  0  0  0  0  0  0
   59.7620   34.1040   46.3730 C   0  0  0  0  0  0  0  0  0  0  0  0
   59.5190   34.8440   45.3830 O   0  0  0  0  0  0  0  0  0  0  0  0
   60.3520   34.6890   47.5400 N   0  0  0  0  0  0  0  0  0  0  0  0
   60.2270   34.1840   48.9070 C   0  0  0  0  0  0  0  0  0  0  0  0
   60.2845   35.0280   49.6101 H   0  0  0  0  0  0  0  0  0  0  0  0
   59.2601   33.6690   49.0062 H   0  0  0  0  0  0  0  0  0  0  0  0
   61.3490   33.1890   49.2230 C   0  0  0  0  0  0  0  0  0  0  0  0
   61.3632   32.9904   50.3048 H   0  0  0  0  0  0  0  0  0  0  0  0
   61.1649   32.2563   48.6697 H   0  0  0  0  0  0  0  0  0  0  0  0
   62.6600   33.7410   48.8110 N   0  0  0  0  0  0  0  0  0  0  0  0
   63.2060   33.0150   47.6400 C   0  0  0  0  0  0  0  0  0  0  0  0
   64.2191   32.6627   47.8837 H   0  0  0  0  0  0  0  0  0  0  0  0
   62.5295   32.1759   47.4202 H   0  0  0  0  0  0  0  0  0  0  0  0
   63.2790   33.8940   46.3920 C   0  0  0  0  0  0  0  0  0  0  0  0
   63.3666   34.9489   46.6911 H   0  0  0  0  0  0  0  0  0  0  0  0
   64.1565   33.6086   45.7933 H   0  0  0  0  0  0  0  0  0  0  0  0
   62.3664   33.7572   45.7933 H   0  0  0  0  0  0  0  0  0  0  0  0
   63.6020   33.8640   49.9500 C   0  0  0  0  0  0  0  0  0  0  0  0
   63.8667   34.9253   50.0667 H   0  0  0  0  0  0  0  0  0  0  0  0
   63.0884   33.4556   50.8329 H   0  0  0  0  0  0  0  0  0  0  0  0
   64.8970   33.0600   49.7790 C   0  0  0  0  0  0  0  0  0  0  0  0
   65.3048   32.8068   50.7687 H   0  0  0  0  0  0  0  0  0  0  0  0
   64.6837   32.1353   49.2228 H   0  0  0  0  0  0  0  0  0  0  0  0
   65.6312   33.6613   49.2228 H   0  0  0  0  0  0  0  0  0  0  0  0
   58.1690   32.2640   45.7930 C   0  0  0  0  0  0  0  0  0  0  0  0
   57.4365   33.0175   45.4679 H   0  0  0  0  0  0  0  0  0  0  0  0
   57.8560   30.9050   45.7010 C   0  0  0  0  0  0  0  0  0  0  0  0
   56.8769   30.5944   45.3074 H   0  0  0  0  0  0  0  0  0  0  0  0
  1  2  1  0
  2  3  1  0
  2  4  2  0
  4  5  1  0
  5  6  2  0
  6  7  1  0
  6  8  1  0
  8  9  2  0
  9 10  1  0
  9 11  1  0
 11 12  1  0
 12 13  2  0
 12 14  1  0
 14 15  1  0
 15 16  2  0
  5 17  1  0
 17 18  1  0
 17 19  2  0
 19 20  1  0
 20 21  1  0
 20 22  1  0
 20 23  1  0
 19 24  1  0
 24 25  1  0
 25 26  2  0
 26 27  1  0
 26 28  1  0
 28 29  1  0
 28 30  2  0
 30 31  1  0
 31 32  2  0
 31 33  1  0
 33 34  1  0
 34 35  1  0
 34 36  1  0
 34 37  1  0
 37 38  1  0
 37 39  1  0
 37 40  1  0
 40 41  1  0
 41 42  1  0
 41 43  1  0
 41 44  1  0
 44 45  1  0
 44 46  1  0
 44 47  1  0
 40 48  1  0
 48 49  1  0
 48 50  1  0
 48 51  1  0
 51 52  1  0
 51 53  1  0
 51 54  1  0
 30 55  1  0
 55 56  1  0
 55 57  2  0
 57 58  1  0
 24  4  1  0
 57 25  1  0
 15  8  1  0
M  CHG  4  10  -1  11  -1  14  -1  33  -1
M  END
>  <UniqueID>  (48) 
46

>  <SMILES>  (48) 
C=c1/c(=C\c2c([O-])[n-]c(=O)[n-]c2=O)cc(C)n1-c1ccc(C(=O)[N-]CCN(CC)CC)cc1

>  <Energy>  (48) 
110.30129445692872

>  <Genealogy>  (48) 
C=c1c(=Cc2c([O-])[n-]c(=O)[n-]c2=O)cc(C)n1-c1ccc(C(=O)[N-]CCN(CC)CC)cc1 (protonated)
C=c1/c(=C\c2c([O-])[n-]c(=O)[n-]c2=O)cc(C)n1-c1ccc(C(=O)[N-]CCN(CC)CC)cc1 (cis-trans isomerization)
C=c1/c(=C\c2c([O-])[n-]c(=O)[n-]c2=O)cc(C)n1-c1ccc(C(=O)[N-]CCN(CC)CC)cc1 (3D coordinates assigned)
C=c1/c(=C\c2c([O-])[n-]c(=O)[n-]c2=O)cc(C)n1-c1ccc(C(=O)[N-]CCN(CC)CC)cc1 (optimized conformer: 110.30129445692872 kcal/mol)

>  <smiles>  (48) 
C=c1c(=Cc2c(O)[nH]c(=O)[nH]c2=O)cc(C)n1-c1ccc(C(=O)NCCN(CC)CC)cc1

>  <score_type>  (48) 
oracle

>  <origin>  (48) 
adg

>  <m_score__min__energy>  (48) 
-16.530000000000001

>  <m_primary>  (48) 
energy

$$$$
48:0
     RDKit          3D

 37 39  0  0  0  0  0  0  0  0999 V2000
   56.9960   26.1480   47.2000 O   0  0  0  0  0  0  0  0  0  0  0  0
   56.6750   26.1450   45.9800 C   0  0  0  0  0  0  0  0  0  0  0  0
   57.1620   27.1810   45.1110 N   0  0  0  0  0  0  0  0  0  0  0  0
   58.1780   28.1080   45.5210 C   0  0  0  0  0  0  0  0  0  0  0  0
   59.3490   27.6090   46.1100 C   0  0  0  0  0  0  0  0  0  0  0  0
   60.3960   28.4700   46.4470 C   0  0  0  0  0  0  0  0  0  0  0  0
   60.2800   29.8380   46.2040 C   0  0  0  0  0  0  0  0  0  0  0  0
   59.1090   30.3550   45.6450 C   0  0  0  0  0  0  0  0  0  0  0  0
   58.0380   29.5040   45.3190 C   0  0  0  0  0  0  0  0  0  0  0  0
   56.7780   30.0950   44.8220 C   0  0  0  0  0  0  0  0  0  0  0  0
   55.8740   29.3500   44.3560 O   0  0  0  0  0  0  0  0  0  0  0  0
   56.5830   31.5120   44.8710 N   0  0  0  0  0  0  0  0  0  0  0  0
   57.4480   32.4600   44.1790 C   0  0  0  0  0  0  0  0  0  0  0  0
   58.1160   33.3630   45.1680 C   0  0  0  0  0  0  0  0  0  0  0  0
   59.1130   34.2760   44.8870 C   0  0  0  0  0  0  0  0  0  0  0  0
   59.4390   34.8510   46.0960 C   0  0  0  0  0  0  0  0  0  0  0  0
   58.6260   34.2520   47.0370 C   0  0  0  0  0  0  0  0  0  0  0  0
   57.8490   33.3680   46.4530 O   0  0  0  0  0  0  0  0  0  0  0  0
   55.8030   25.0750   45.4520 C   0  0  0  0  0  0  0  0  0  0  0  0
   56.3060   24.0930   44.5860 C   0  0  0  0  0  0  0  0  0  0  0  0
   55.4320   23.1200   44.0990 C   0  0  0  0  0  0  0  0  0  0  0  0
   55.8510   22.2270   43.3160 O   0  0  0  0  0  0  0  0  0  0  0  0
   54.1260   23.1350   44.4680 N   0  0  0  0  0  0  0  0  0  0  0  0
   53.6520   24.0900   45.3100 C   0  0  0  0  0  0  0  0  0  0  0  0
   52.4390   24.0890   45.6430 O   0  0  0  0  0  0  0  0  0  0  0  0
   54.4860   25.0470   45.7920 N   0  0  0  0  0  0  0  0  0  0  0  0
   56.6460   27.3790   44.2240 H   0  0  0  0  0  0  0  0  0  0  0  0
   59.4436   26.5311   46.3081 H   0  0  0  0  0  0  0  0  0  0  0  0
   61.3124   28.0686   46.9043 H   0  0  0  0  0  0  0  0  0  0  0  0
   61.1129   30.5119   46.4532 H   0  0  0  0  0  0  0  0  0  0  0  0
   59.0240   31.4357   45.4584 H   0  0  0  0  0  0  0  0  0  0  0  0
   58.2142   31.9084   43.6145 H   0  0  0  0  0  0  0  0  0  0  0  0
   56.8403   33.0662   43.4910 H   0  0  0  0  0  0  0  0  0  0  0  0
   59.5544   34.4978   43.9042 H   0  0  0  0  0  0  0  0  0  0  0  0
   60.1946   35.6301   46.2751 H   0  0  0  0  0  0  0  0  0  0  0  0
   58.6283   34.4802   48.1131 H   0  0  0  0  0  0  0  0  0  0  0  0
   57.3673   24.0898   44.2967 H   0  0  0  0  0  0  0  0  0  0  0  0
  1  2  2  0
  2  3  1  0
  3  4  1  0
  4  5  2  0
  5  6  1  0
  6  7  2  0
  7  8  1  0
  8  9  2  0
  9 10  1  0
 10 11  2  0
 10 12  1  0
 12 13  1  0
 13 14  1  0
 14 15  2  0
 15 16  1  0
 16 17  2  0
 17 18  1  0
  2 19  1  0
 19 20  2  0
 20 21  1  0
 21 22  2  0
 21 23  1  0
 23 24  1  0
 24 25  2  0
 24 26  1  0
  9  4  1  0
 18 14  1  0
 26 19  1  0
  3 27  1  0
  5 28  1  0
  6 29  1  0
  7 30  1  0
  8 31  1  0
 13 32  1  0
 13 33  1  0
 15 34  1  0
 16 35  1  0
 17 36  1  0
 20 37  1  0
M  CHG  3  12  -1  23  -1  26  -1
M  END
>  <UniqueID>  (49) 
47

>  <SMILES>  (49) 
O=C(Nc1ccccc1C(=O)[N-]Cc1ccco1)c1cc(=O)[n-]c(=O)[n-]1

>  <Energy>  (49) 
70.60881908581707

>  <Genealogy>  (49) 
O=C(Nc1ccccc1C(=O)[N-]Cc1ccco1)c1cc(=O)[n-]c(=O)[n-]1 (protonated)
O=C(Nc1ccccc1C(=O)[N-]Cc1ccco1)c1cc(=O)[n-]c(=O)[n-]1 (3D coordinates assigned)
O=C(Nc1ccccc1C(=O)[N-]Cc1ccco1)c1cc(=O)[n-]c(=O)[n-]1 (optimized conformer: 70.60881908581707 kcal/mol)

>  <smiles>  (49) 
O=C(Nc1ccccc1C(=O)NCc1ccco1)c1cc(=O)[nH]c(=O)[nH]1

>  <score_type>  (49) 
oracle

>  <origin>  (49) 
adg

>  <m_score__min__energy>  (49) 
-13.869999999999999

>  <m_primary>  (49) 
energy

$$$$
49:0
     RDKit          3D

 50 53  0  0  0  0  0  0  0  0999 V2000
   58.8930   29.9880   44.8520 C   0  0  0  0  0  0  0  0  0  0  0  0
   58.9480   29.8240   46.1840 C   0  0  0  0  0  0  0  0  0  0  0  0
   58.8160   28.6180   46.8770 C   0  0  0  0  0  0  0  0  0  0  0  0
   58.6260   27.3920   46.3540 C   0  0  0  0  0  0  0  0  0  0  0  0
   57.3370   26.6790   46.3880 C   0  0  0  0  0  0  0  0  0  0  0  0
   57.1970   25.4230   46.8480 N   0  0  0  0  0  0  0  0  0  0  0  0
   55.8960   25.1460   46.6100 C   0  0  0  0  0  0  0  0  0  0  0  0
   55.3700   24.0460   46.9200 O   0  0  0  0  0  0  0  0  0  0  0  0
   55.2080   26.1360   46.0020 N   0  0  0  0  0  0  0  0  0  0  0  0
   56.1370   27.0950   45.8560 C   0  0  0  0  0  0  0  0  0  0  0  0
   55.9050   28.3070   45.2120 O   0  0  0  0  0  0  0  0  0  0  0  0
   58.9410   28.9250   48.2240 C   0  0  0  0  0  0  0  0  0  0  0  0
   59.1330   30.2900   48.3020 C   0  0  0  0  0  0  0  0  0  0  0  0
   59.3420   31.0380   49.5850 C   0  0  0  0  0  0  0  0  0  0  0  0
   59.1010   30.8420   47.0680 N   0  0  0  0  0  0  0  0  0  0  0  0
   59.2320   32.2430   46.7600 C   0  0  0  0  0  0  0  0  0  0  0  0
   58.1170   32.9390   46.2660 C   0  0  0  0  0  0  0  0  0  0  0  0
   58.2200   34.2840   45.9110 C   0  0  0  0  0  0  0  0  0  0  0  0
   59.4400   34.9470   46.0340 C   0  0  0  0  0  0  0  0  0  0  0  0
   60.5610   34.2680   46.5180 C   0  0  0  0  0  0  0  0  0  0  0  0
   60.4700   32.9180   46.8980 C   0  0  0  0  0  0  0  0  0  0  0  0
   61.6900   32.2370   47.3920 C   0  0  0  0  0  0  0  0  0  0  0  0
   62.1090   31.2250   46.7650 O   0  0  0  0  0  0  0  0  0  0  0  0
   62.4170   32.7100   48.5450 N   0  0  0  0  0  0  0  0  0  0  0  0
   63.0810   31.7210   49.4170 C   0  0  0  0  0  0  0  0  0  0  0  0
   64.3020   32.3050   50.1350 C   0  0  0  0  0  0  0  0  0  0  0  0
   63.9440   33.6030   50.7880 C   0  0  0  0  0  0  0  0  0  0  0  0
   64.4040   33.8830   51.8830 O   0  0  0  0  0  0  0  0  0  0  0  0
   63.0350   34.5720   50.0910 C   0  0  0  0  0  0  0  0  0  0  0  0
   62.7390   34.1450   48.6450 C   0  0  0  0  0  0  0  0  0  0  0  0
   59.0111   30.9910   44.4160 H   0  0  0  0  0  0  0  0  0  0  0  0
   58.7299   29.1193   44.1972 H   0  0  0  0  0  0  0  0  0  0  0  0
   59.4816   26.8944   45.8741 H   0  0  0  0  0  0  0  0  0  0  0  0
   56.1820   28.4410   44.2480 H   0  0  0  0  0  0  0  0  0  0  0  0
   58.8959   28.2185   49.0660 H   0  0  0  0  0  0  0  0  0  0  0  0
   59.1543   30.3664   50.4357 H   0  0  0  0  0  0  0  0  0  0  0  0
   60.3775   31.4064   49.6301 H   0  0  0  0  0  0  0  0  0  0  0  0
   58.6475   31.8898   49.6301 H   0  0  0  0  0  0  0  0  0  0  0  0
   57.1537   32.4189   46.1580 H   0  0  0  0  0  0  0  0  0  0  0  0
   57.3378   34.8219   45.5337 H   0  0  0  0  0  0  0  0  0  0  0  0
   59.5203   36.0065   45.7495 H   0  0  0  0  0  0  0  0  0  0  0  0
   61.5231   34.7946   46.6024 H   0  0  0  0  0  0  0  0  0  0  0  0
   62.3596   31.3740   50.1714 H   0  0  0  0  0  0  0  0  0  0  0  0
   63.4286   30.8927   48.7821 H   0  0  0  0  0  0  0  0  0  0  0  0
   64.6470   31.5954   50.9014 H   0  0  0  0  0  0  0  0  0  0  0  0
   65.1013   32.4808   49.4000 H   0  0  0  0  0  0  0  0  0  0  0  0
   62.0866   34.6309   50.6452 H   0  0  0  0  0  0  0  0  0  0  0  0
   63.5391   35.5492   50.0604 H   0  0  0  0  0  0  0  0  0  0  0  0
   61.8838   34.7272   48.2713 H   0  0  0  0  0  0  0  0  0  0  0  0
   63.6420   34.3319   48.0452 H   0  0  0  0  0  0  0  0  0  0  0  0
  1  2  2  0
  2  3  1  0
  3  4  2  3
  4  5  1  0
  5  6  1  0
  6  7  1  0
  7  8  2  0
  7  9  1  0
  9 10  1  0
 10 11  1  0
  3 12  1  0
 12 13  2  0
 13 14  1  0
 13 15  1  0
 15 16  1  0
 16 17  2  0
 17 18  1  0
 18 19  2  0
 19 20  1  0
 20 21  2  0
 21 22  1  0
 22 23  2  0
 22 24  1  0
 24 25  1  0
 25 26  1  0
 26 27  1  0
 27 28  2  0
 27 29  1  0
 29 30  1  0
 15  2  1  0
 21 16  1  0
 30 24  1  0
 10  5  2  0
  1 31  1  0
  1 32  1  0
  4 33  1  0
 11 34  1  0
 12 35  1  0
 14 36  1  0
 14 37  1  0
 14 38  1  0
 17 39  1  0
 18 40  1  0
 19 41  1  0
 20 42  1  0
 25 43  1  0
 25 44  1  0
 26 45  1  0
 26 46  1  0
 29 47  1  0
 29 48  1  0
 30 49  1  0
 30 50  1  0
M  CHG  2   6  -1   9  -1
M  END
>  <UniqueID>  (50) 
48

>  <SMILES>  (50) 
C=c1c(=Cc2[n-]c(=O)[n-]c2O)cc(C)n1-c1ccccc1C(=O)N1CCC(=O)CC1

>  <Energy>  (50) 
125.69144061318914

>  <Genealogy>  (50) 
C=c1c(=Cc2[n-]c(=O)[n-]c2O)cc(C)n1-c1ccccc1C(=O)N1CCC(=O)CC1 (protonated)
C=c1c(=Cc2[n-]c(=O)[n-]c2O)cc(C)n1-c1ccccc1C(=O)N1CCC(=O)CC1 (3D coordinates assigned)
C=c1c(=Cc2[n-]c(=O)[n-]c2O)cc(C)n1-c1ccccc1C(=O)N1CCC(=O)CC1 (nonaromatic ring conformer: 125.69144061318914 kcal/mol)

>  <smiles>  (50) 
C=c1c(=Cc2[nH]c(=O)[nH]c2O)cc(C)n1-c1ccccc1C(=O)N1CCC(=O)CC1

>  <score_type>  (50) 
oracle

>  <origin>  (50) 
adg

>  <m_score__min__energy>  (50) 
-13.970000000000001

>  <m_primary>  (50) 
energy

$$$$
50:0
     RDKit          3D

 45 47  0  0  0  0  0  0  0  0999 V2000
   56.2000   30.7710   44.4530 O   0  0  0  0  0  0  0  0  0  0  0  0
   56.7460   29.7750   45.0000 C   0  0  0  0  0  0  0  0  0  0  0  0
   58.2000   29.8210   45.3520 C   0  0  0  0  0  0  0  0  0  0  0  0
   58.4180   29.4980   46.7600 N   0  0  0  0  0  0  0  0  0  0  0  0
   58.8690   30.4110   47.7710 C   0  0  0  0  0  0  0  0  0  0  0  0
   58.7910   30.0620   48.9790 O   0  0  0  0  0  0  0  0  0  0  0  0
   59.4600   31.7220   47.4440 C   0  0  0  0  0  0  0  0  0  0  0  0
   58.6240   32.7990   47.1110 C   0  0  0  0  0  0  0  0  0  0  0  0
   59.1720   34.0420   46.7850 C   0  0  0  0  0  0  0  0  0  0  0  0
   60.5590   34.2140   46.7720 C   0  0  0  0  0  0  0  0  0  0  0  0
   61.4040   33.1380   47.0750 C   0  0  0  0  0  0  0  0  0  0  0  0
   63.1550   33.3340   47.0570 S   0  0  0  0  0  0  0  0  0  0  0  0
   63.5590   34.2740   45.9540 O   0  0  0  0  0  0  0  0  0  0  0  0
   63.7810   31.9910   46.8030 O   0  0  0  0  0  0  0  0  0  0  0  0
   63.6900   33.9530   48.6050 N   0  0  0  0  0  0  0  0  0  0  0  0
   64.5070   32.9550   49.3050 C   0  0  0  0  0  0  0  0  0  0  0  0
   63.6060   32.1840   50.2580 C   0  0  0  0  0  0  0  0  0  0  0  0
   62.3190   32.9790   50.3430 C   0  0  0  0  0  0  0  0  0  0  0  0
   62.5400   34.2090   49.4770 C   0  0  0  0  0  0  0  0  0  0  0  0
   60.8520   31.8940   47.4060 C   0  0  0  0  0  0  0  0  0  0  0  0
   56.0070   28.5740   45.2800 N   0  0  0  0  0  0  0  0  0  0  0  0
   56.4280   27.3560   45.4860 C   0  0  0  0  0  0  0  0  0  0  0  0
   57.7250   26.9130   45.1410 C   0  0  0  0  0  0  0  0  0  0  0  0
   58.0880   25.5880   45.3960 C   0  0  0  0  0  0  0  0  0  0  0  0
   57.1700   24.7080   45.9670 C   0  0  0  0  0  0  0  0  0  0  0  0
   57.6130   23.0410   46.2830 Cl  0  0  0  0  0  0  0  0  0  0  0  0
   55.8890   25.1680   46.2740 C   0  0  0  0  0  0  0  0  0  0  0  0
   55.5540   26.4630   46.0270 N   0  0  0  0  0  0  0  0  0  0  0  0
   58.7420   29.0936   44.7299 H   0  0  0  0  0  0  0  0  0  0  0  0
   58.5682   30.8414   45.1698 H   0  0  0  0  0  0  0  0  0  0  0  0
   57.5324   32.6638   47.1067 H   0  0  0  0  0  0  0  0  0  0  0  0
   58.5113   34.8862   46.5383 H   0  0  0  0  0  0  0  0  0  0  0  0
   60.9881   35.1959   46.5234 H   0  0  0  0  0  0  0  0  0  0  0  0
   64.9556   32.2640   48.5761 H   0  0  0  0  0  0  0  0  0  0  0  0
   65.3144   33.4506   49.8640 H   0  0  0  0  0  0  0  0  0  0  0  0
   63.4080   31.1753   49.8663 H   0  0  0  0  0  0  0  0  0  0  0  0
   64.0725   32.0618   51.2466 H   0  0  0  0  0  0  0  0  0  0  0  0
   61.4755   32.3861   49.9597 H   0  0  0  0  0  0  0  0  0  0  0  0
   62.0761   33.2504   51.3810 H   0  0  0  0  0  0  0  0  0  0  0  0
   61.6451   34.4007   48.8668 H   0  0  0  0  0  0  0  0  0  0  0  0
   62.7297   35.0897   50.1082 H   0  0  0  0  0  0  0  0  0  0  0  0
   61.5139   31.0465   47.6376 H   0  0  0  0  0  0  0  0  0  0  0  0
   58.4423   27.6052   44.6759 H   0  0  0  0  0  0  0  0  0  0  0  0
   59.1005   25.2385   45.1456 H   0  0  0  0  0  0  0  0  0  0  0  0
   55.1500   24.4834   46.7158 H   0  0  0  0  0  0  0  0  0  0  0  0
  1  2  2  0
  2  3  1  0
  3  4  1  0
  4  5  1  0
  5  6  2  0
  5  7  1  0
  7  8  2  0
  8  9  1  0
  9 10  2  0
 10 11  1  0
 11 12  1  0
 12 13  2  0
 12 14  2  0
 12 15  1  0
 15 16  1  0
 16 17  1  0
 17 18  1  0
 18 19  1  0
 11 20  2  0
  2 21  1  0
 21 22  2  3
 22 23  1  0
 23 24  2  0
 24 25  1  0
 25 26  1  0
 25 27  2  0
 27 28  1  0
 20  7  1  0
 28 22  1  0
 19 15  1  0
  3 29  1  0
  3 30  1  0
  8 31  1  0
  9 32  1  0
 10 33  1  0
 16 34  1  0
 16 35  1  0
 17 36  1  0
 17 37  1  0
 18 38  1  0
 18 39  1  0
 19 40  1  0
 19 41  1  0
 20 42  1  0
 23 43  1  0
 24 44  1  0
 27 45  1  0
M  CHG  2   4  -1  28  -1
M  END
>  <UniqueID>  (51) 
49

>  <SMILES>  (51) 
O=C(C[N-]C(=O)c1cccc(S(=O)(=O)N2CCCC2)c1)N=c1ccc(Cl)c[n-]1

>  <Energy>  (51) 
56.55742784757392

>  <Genealogy>  (51) 
O=C(C[N-]C(=O)c1cccc(S(=O)(=O)N2CCCC2)c1)N=c1ccc(Cl)c[n-]1 (protonated)
O=C(C[N-]C(=O)c1cccc(S(=O)(=O)N2CCCC2)c1)N=c1ccc(Cl)c[n-]1 (3D coordinates assigned)
O=C(C[N-]C(=O)c1cccc(S(=O)(=O)N2CCCC2)c1)N=c1ccc(Cl)c[n-]1 (nonaromatic ring conformer: 56.55742784757392 kcal/mol)

>  <smiles>  (51) 
O=C(CNC(=O)c1cccc(S(=O)(=O)N2CCCC2)c1)N=c1ccc(Cl)c[nH]1

>  <score_type>  (51) 
oracle

>  <origin>  (51) 
adg

>  <m_score__min__energy>  (51) 
-12.550000000000001

>  <m_primary>  (51) 
energy

$$$$
51:0
     RDKit          3D

 46 48  0  0  0  0  0  0  0  0999 V2000
   63.6690   34.1080   47.1900 C   0  0  0  0  0  0  0  0  0  0  0  0
   63.2680   32.9920   48.0990 C   0  0  0  0  0  0  0  0  0  0  0  0
   62.2760   32.0830   47.7090 C   0  0  0  0  0  0  0  0  0  0  0  0
   61.9070   31.0410   48.5730 C   0  0  0  0  0  0  0  0  0  0  0  0
   60.8210   30.0600   48.1770 C   0  0  0  0  0  0  0  0  0  0  0  0
   60.1860   30.3740   46.8750 N   0  0  0  0  0  0  0  0  0  0  0  0
   60.1590   29.1980   45.9730 C   0  0  0  0  0  0  0  0  0  0  0  0
   58.8030   28.5420   45.9840 C   0  0  0  0  0  0  0  0  0  0  0  0
   58.6100   27.3370   46.6770 C   0  0  0  0  0  0  0  0  0  0  0  0
   57.3650   26.7030   46.6570 C   0  0  0  0  0  0  0  0  0  0  0  0
   56.2990   27.2720   45.9540 C   0  0  0  0  0  0  0  0  0  0  0  0
   55.0660   26.6300   45.9330 O   0  0  0  0  0  0  0  0  0  0  0  0
   56.4730   28.4840   45.2760 C   0  0  0  0  0  0  0  0  0  0  0  0
   55.4070   29.0450   44.5760 O   0  0  0  0  0  0  0  0  0  0  0  0
   57.7220   29.1220   45.2990 C   0  0  0  0  0  0  0  0  0  0  0  0
   58.8540   31.0030   47.0470 C   0  0  0  0  0  0  0  0  0  0  0  0
   58.7840   32.3330   46.3360 C   0  0  0  0  0  0  0  0  0  0  0  0
   59.7720   33.3060   46.5640 C   0  0  0  0  0  0  0  0  0  0  0  0
   59.6900   34.5550   45.9400 C   0  0  0  0  0  0  0  0  0  0  0  0
   58.6290   34.8380   45.0770 C   0  0  0  0  0  0  0  0  0  0  0  0
   57.6530   33.8710   44.8280 C   0  0  0  0  0  0  0  0  0  0  0  0
   57.7280   32.6180   45.4490 C   0  0  0  0  0  0  0  0  0  0  0  0
   56.7460   31.6690   45.1860 O   0  0  0  0  0  0  0  0  0  0  0  0
   62.5590   30.9210   49.8110 C   0  0  0  0  0  0  0  0  0  0  0  0
   63.5470   31.8450   50.1630 C   0  0  0  0  0  0  0  0  0  0  0  0
   64.1350   31.7500   51.2710 O   0  0  0  0  0  0  0  0  0  0  0  0
   63.8750   32.8500   49.3090 N   0  0  0  0  0  0  0  0  0  0  0  0
   63.9808   34.9756   47.7900 H   0  0  0  0  0  0  0  0  0  0  0  0
   64.5060   33.7813   46.5554 H   0  0  0  0  0  0  0  0  0  0  0  0
   62.8155   34.3887   46.5554 H   0  0  0  0  0  0  0  0  0  0  0  0
   61.7880   32.1859   46.7286 H   0  0  0  0  0  0  0  0  0  0  0  0
   61.2652   29.0556   48.1144 H   0  0  0  0  0  0  0  0  0  0  0  0
   60.0345   30.1216   48.9435 H   0  0  0  0  0  0  0  0  0  0  0  0
   60.3927   29.5244   44.9489 H   0  0  0  0  0  0  0  0  0  0  0  0
   60.9044   28.4692   46.3240 H   0  0  0  0  0  0  0  0  0  0  0  0
   59.4431   26.8893   47.2388 H   0  0  0  0  0  0  0  0  0  0  0  0
   57.2234   25.7543   47.1955 H   0  0  0  0  0  0  0  0  0  0  0  0
   54.5170   28.5680   44.4940 H   0  0  0  0  0  0  0  0  0  0  0  0
   57.8559   30.0815   44.7780 H   0  0  0  0  0  0  0  0  0  0  0  0
   58.0849   30.3340   46.6337 H   0  0  0  0  0  0  0  0  0  0  0  0
   58.6838   31.1718   48.1206 H   0  0  0  0  0  0  0  0  0  0  0  0
   60.6138   33.0842   47.2364 H   0  0  0  0  0  0  0  0  0  0  0  0
   60.4621   35.3153   46.1292 H   0  0  0  0  0  0  0  0  0  0  0  0
   58.5622   35.8236   44.5930 H   0  0  0  0  0  0  0  0  0  0  0  0
   56.8226   34.0941   44.1419 H   0  0  0  0  0  0  0  0  0  0  0  0
   62.2939   30.1050   50.4994 H   0  0  0  0  0  0  0  0  0  0  0  0
  1  2  1  0
  2  3  2  0
  3  4  1  0
  4  5  1  0
  5  6  1  0
  6  7  1  0
  7  8  1  0
  8  9  2  0
  9 10  1  0
 10 11  2  0
 11 12  1  0
 11 13  1  0
 13 14  1  0
 13 15  2  0
  6 16  1  0
 16 17  1  0
 17 18  2  0
 18 19  1  0
 19 20  2  0
 20 21  1  0
 21 22  2  0
 22 23  1  0
  4 24  2  0
 24 25  1  0
 25 26  2  0
 25 27  1  0
 27  2  1  0
 15  8  1  0
 22 17  1  0
  1 28  1  0
  1 29  1  0
  1 30  1  0
  3 31  1  0
  5 32  1  0
  5 33  1  0
  7 34  1  0
  7 35  1  0
  9 36  1  0
 10 37  1  0
 14 38  1  0
 15 39  1  0
 16 40  1  0
 16 41  1  0
 18 42  1  0
 19 43  1  0
 20 44  1  0
 21 45  1  0
 24 46  1  0
M  CHG  3  12  -1  23  -1  27  -1
M  END
>  <UniqueID>  (52) 
50

>  <SMILES>  (52) 
Cc1cc(CN(Cc2ccc([O-])c(O)c2)Cc2ccccc2[O-])cc(=O)[n-]1

>  <Energy>  (52) 
49.24266254597726

>  <Genealogy>  (52) 
Cc1cc(CN(Cc2ccc([O-])c(O)c2)Cc2ccccc2[O-])cc(=O)[n-]1 (protonated)
Cc1cc(CN(Cc2ccc([O-])c(O)c2)Cc2ccccc2[O-])cc(=O)[n-]1 (3D coordinates assigned)
Cc1cc(CN(Cc2ccc([O-])c(O)c2)Cc2ccccc2[O-])cc(=O)[n-]1 (optimized conformer: 49.24266254597726 kcal/mol)

>  <smiles>  (52) 
Cc1cc(CN(Cc2ccc(O)c(O)c2)Cc2ccccc2O)cc(=O)[nH]1

>  <score_type>  (52) 
oracle

>  <origin>  (52) 
adg

>  <m_score__min__energy>  (52) 
-14.630000000000001

>  <m_primary>  (52) 
energy

$$$$
52:0
     RDKit          3D

 68 72  0  0  0  0  0  0  0  0999 V2000
   60.6140   30.9310   50.2490 C   0  0  0  0  0  0  0  0  0  0  0  0
   60.5580   30.1030   49.0370 N   0  0  0  0  0  0  0  0  0  0  0  0
   60.3170   30.7570   47.7420 C   0  0  0  0  0  0  0  0  0  0  0  0
   61.3520   31.8360   47.4870 C   0  0  0  0  0  0  0  0  0  0  0  0
   62.6770   31.5960   47.8950 C   0  0  0  0  0  0  0  0  0  0  0  0
   63.6890   32.5170   47.6160 C   0  0  0  0  0  0  0  0  0  0  0  0
   63.3950   33.6890   46.9210 C   0  0  0  0  0  0  0  0  0  0  0  0
   62.0870   33.9510   46.5150 C   0  0  0  0  0  0  0  0  0  0  0  0
   61.0530   33.0430   46.7990 C   0  0  0  0  0  0  0  0  0  0  0  0
   59.6820   33.3970   46.3760 C   0  0  0  0  0  0  0  0  0  0  0  0
   59.4480   33.9270   45.0960 C   0  0  0  0  0  0  0  0  0  0  0  0
   58.1480   34.2470   44.6930 C   0  0  0  0  0  0  0  0  0  0  0  0
   57.0730   34.0280   45.5600 C   0  0  0  0  0  0  0  0  0  0  0  0
   57.2960   33.4820   46.8260 C   0  0  0  0  0  0  0  0  0  0  0  0
   58.5940   33.1610   47.2330 C   0  0  0  0  0  0  0  0  0  0  0  0
   60.6100   28.6610   49.1370 C   0  0  0  0  0  0  0  0  0  0  0  0
   61.2690   28.1150   50.0640 O   0  0  0  0  0  0  0  0  0  0  0  0
   59.9270   27.7930   48.1610 C   0  0  0  0  0  0  0  0  0  0  0  0
   58.5500   27.9430   47.9360 C   0  0  0  0  0  0  0  0  0  0  0  0
   57.8900   27.1090   47.0280 C   0  0  0  0  0  0  0  0  0  0  0  0
   58.6020   26.1210   46.3330 C   0  0  0  0  0  0  0  0  0  0  0  0
   57.9040   25.2150   45.3990 C   0  0  0  0  0  0  0  0  0  0  0  0
   57.4860   23.9650   45.8850 C   0  0  0  0  0  0  0  0  0  0  0  0
   56.8570   23.0530   45.0410 C   0  0  0  0  0  0  0  0  0  0  0  0
   56.6380   23.3770   43.7050 C   0  0  0  0  0  0  0  0  0  0  0  0
   57.0380   24.6180   43.2100 C   0  0  0  0  0  0  0  0  0  0  0  0
   57.6560   25.5660   44.0450 C   0  0  0  0  0  0  0  0  0  0  0  0
   58.1330   27.1660   43.4040 S   0  0  0  0  0  0  0  0  0  0  0  0
   59.5160   27.4890   43.8970 O   0  0  0  0  0  0  0  0  0  0  0  0
   58.1690   27.0810   41.9030 O   0  0  0  0  0  0  0  0  0  0  0  0
   57.1080   28.5120   43.8610 N   0  0  0  0  0  0  0  0  0  0  0  0
   56.6790   29.3170   42.7110 C   0  0  0  0  0  0  0  0  0  0  0  0
   56.5120   30.7380   43.2140 C   0  0  0  0  0  0  0  0  0  0  0  0
   57.4560   30.8490   44.3950 C   0  0  0  0  0  0  0  0  0  0  0  0
   57.7350   29.4160   44.8390 C   0  0  0  0  0  0  0  0  0  0  0  0
   59.9870   26.0040   46.5200 C   0  0  0  0  0  0  0  0  0  0  0  0
   60.6450   26.8360   47.4290 C   0  0  0  0  0  0  0  0  0  0  0  0
   60.5702   30.2839   51.1375 H   0  0  0  0  0  0  0  0  0  0  0  0
   61.5529   31.5040   50.2586 H   0  0  0  0  0  0  0  0  0  0  0  0
   59.7608   31.6252   50.2586 H   0  0  0  0  0  0  0  0  0  0  0  0
   60.3742   30.0050   46.9412 H   0  0  0  0  0  0  0  0  0  0  0  0
   59.3194   31.2201   47.7592 H   0  0  0  0  0  0  0  0  0  0  0  0
   62.9187   30.6718   48.4403 H   0  0  0  0  0  0  0  0  0  0  0  0
   64.7194   32.3173   47.9451 H   0  0  0  0  0  0  0  0  0  0  0  0
   64.1956   34.4079   46.6926 H   0  0  0  0  0  0  0  0  0  0  0  0
   61.8624   34.8779   45.9669 H   0  0  0  0  0  0  0  0  0  0  0  0
   60.2908   34.0908   44.4083 H   0  0  0  0  0  0  0  0  0  0  0  0
   57.9708   34.6712   43.6936 H   0  0  0  0  0  0  0  0  0  0  0  0
   56.0512   34.2859   45.2448 H   0  0  0  0  0  0  0  0  0  0  0  0
   56.4484   33.3042   47.5042 H   0  0  0  0  0  0  0  0  0  0  0  0
   58.7642   32.7223   48.2273 H   0  0  0  0  0  0  0  0  0  0  0  0
   57.9878   28.7193   48.4757 H   0  0  0  0  0  0  0  0  0  0  0  0
   56.8097   27.2283   46.8586 H   0  0  0  0  0  0  0  0  0  0  0  0
   57.6568   23.7046   46.9400 H   0  0  0  0  0  0  0  0  0  0  0  0
   56.5332   22.0764   45.4302 H   0  0  0  0  0  0  0  0  0  0  0  0
   56.1482   22.6523   43.0380 H   0  0  0  0  0  0  0  0  0  0  0  0
   56.8675   24.8590   42.1503 H   0  0  0  0  0  0  0  0  0  0  0  0
   56.2510   28.1030   44.3030 H   0  0  0  0  0  0  0  0  0  0  0  0
   57.4408   29.2822   41.9182 H   0  0  0  0  0  0  0  0  0  0  0  0
   55.7391   28.9335   42.2872 H   0  0  0  0  0  0  0  0  0  0  0  0
   56.7859   31.4602   42.4308 H   0  0  0  0  0  0  0  0  0  0  0  0
   55.4713   30.9576   43.4945 H   0  0  0  0  0  0  0  0  0  0  0  0
   58.3901   31.3456   44.0936 H   0  0  0  0  0  0  0  0  0  0  0  0
   57.0193   31.4475   45.2081 H   0  0  0  0  0  0  0  0  0  0  0  0
   58.8201   29.2386   44.8706 H   0  0  0  0  0  0  0  0  0  0  0  0
   57.3252   29.2384   45.8443 H   0  0  0  0  0  0  0  0  0  0  0  0
   60.5565   25.2554   45.9496 H   0  0  0  0  0  0  0  0  0  0  0  0
   61.7315   26.7401   47.5714 H   0  0  0  0  0  0  0  0  0  0  0  0
  1  2  1  0
  2  3  1  0
  3  4  1  0
  4  5  2  0
  5  6  1  0
  6  7  2  0
  7  8  1  0
  8  9  2  0
  9 10  1  0
 10 11  2  0
 11 12  1  0
 12 13  2  0
 13 14  1  0
 14 15  2  0
  2 16  1  0
 16 17  2  0
 16 18  1  0
 18 19  2  0
 19 20  1  0
 20 21  2  0
 21 22  1  0
 22 23  2  0
 23 24  1  0
 24 25  2  0
 25 26  1  0
 26 27  2  0
 27 28  1  0
 28 29  2  0
 28 30  2  0
 28 31  1  0
 31 32  1  0
 32 33  1  0
 33 34  1  0
 34 35  1  0
 21 36  1  0
 36 37  2  0
  9  4  1  0
 15 10  1  0
 37 18  1  0
 27 22  1  0
 35 31  1  0
  1 38  1  0
  1 39  1  0
  1 40  1  0
  3 41  1  0
  3 42  1  0
  5 43  1  0
  6 44  1  0
  7 45  1  0
  8 46  1  0
 11 47  1  0
 12 48  1  0
 13 49  1  0
 14 50  1  0
 15 51  1  0
 19 52  1  0
 20 53  1  0
 23 54  1  0
 24 55  1  0
 25 56  1  0
 26 57  1  0
 31 58  1  0
 32 59  1  0
 32 60  1  0
 33 61  1  0
 33 62  1  0
 34 63  1  0
 34 64  1  0
 35 65  1  0
 35 66  1  0
 36 67  1  0
 37 68  1  0
M  CHG  1  31   1
M  END
>  <UniqueID>  (53) 
51

>  <SMILES>  (53) 
CN(Cc1ccccc1-c1ccccc1)C(=O)c1ccc(-c2ccccc2S(=O)(=O)[NH+]2CCCC2)cc1

>  <Energy>  (53) 
99.46184842306896

>  <Genealogy>  (53) 
CN(Cc1ccccc1-c1ccccc1)C(=O)c1ccc(-c2ccccc2S(=O)(=O)[NH+]2CCCC2)cc1 (protonated)
CN(Cc1ccccc1-c1ccccc1)C(=O)c1ccc(-c2ccccc2S(=O)(=O)[NH+]2CCCC2)cc1 (3D coordinates assigned)
CN(Cc1ccccc1-c1ccccc1)C(=O)c1ccc(-c2ccccc2S(=O)(=O)[NH+]2CCCC2)cc1 (nonaromatic ring conformer: 99.46184842306896 kcal/mol)

>  <smiles>  (53) 
CN(Cc1ccccc1-c1ccccc1)C(=O)c1ccc(-c2ccccc2S(=O)(=O)N2CCCC2)cc1

>  <score_type>  (53) 
oracle

>  <origin>  (53) 
adg

>  <m_score__min__energy>  (53) 
-9.9700000000000006

>  <m_primary>  (53) 
energy

$$$$
53:0
     RDKit          3D

 58 61  0  0  0  0  0  0  0  0999 V2000
   59.4688   29.0878   47.5095 H   0  0  0  0  0  0  0  0  0  0  0  0
   59.0630   28.3230   46.8310 C   0  0  0  0  0  0  0  0  0  0  0  0
   59.1483   27.2573   47.0897 H   0  0  0  0  0  0  0  0  0  0  0  0
   58.4640   28.6900   45.6880 C   0  0  0  0  0  0  0  0  0  0  0  0
   57.9030   27.8330   44.7310 C   0  0  0  0  0  0  0  0  0  0  0  0
   57.9200   26.4830   44.7420 C   0  0  0  0  0  0  0  0  0  0  0  0
   58.4039   25.9751   43.8947 H   0  0  0  0  0  0  0  0  0  0  0  0
   57.3390   25.6340   45.8040 C   0  0  0  0  0  0  0  0  0  0  0  0
   57.9360   24.5720   46.3750 N   0  0  0  0  0  0  0  0  0  0  0  0
   56.9970   24.0990   47.2230 C   0  0  0  0  0  0  0  0  0  0  0  0
   57.1900   23.0930   47.9550 O   0  0  0  0  0  0  0  0  0  0  0  0
   55.8350   24.7870   47.2210 N   0  0  0  0  0  0  0  0  0  0  0  0
   56.0670   25.7490   46.3140 C   0  0  0  0  0  0  0  0  0  0  0  0
   55.1340   26.7150   45.9590 O   0  0  0  0  0  0  0  0  0  0  0  0
   57.3510   28.6540   43.7550 C   0  0  0  0  0  0  0  0  0  0  0  0
   56.8179   28.3287   42.8494 H   0  0  0  0  0  0  0  0  0  0  0  0
   57.6000   29.9560   44.1400 C   0  0  0  0  0  0  0  0  0  0  0  0
   57.1600   31.1650   43.3710 C   0  0  0  0  0  0  0  0  0  0  0  0
   56.8704   31.9607   44.0731 H   0  0  0  0  0  0  0  0  0  0  0  0
   57.9873   31.5179   42.7378 H   0  0  0  0  0  0  0  0  0  0  0  0
   56.2994   30.9036   42.7378 H   0  0  0  0  0  0  0  0  0  0  0  0
   58.2660   29.9820   45.3170 N   0  0  0  0  0  0  0  0  0  0  0  0
   58.6860   31.1660   46.0190 C   0  0  0  0  0  0  0  0  0  0  0  0
   57.8010   32.2380   46.1860 C   0  0  0  0  0  0  0  0  0  0  0  0
   56.7880   32.1847   45.7605 H   0  0  0  0  0  0  0  0  0  0  0  0
   58.2010   33.3740   46.8910 C   0  0  0  0  0  0  0  0  0  0  0  0
   57.5034   34.2153   47.0154 H   0  0  0  0  0  0  0  0  0  0  0  0
   59.4830   33.4470   47.4390 C   0  0  0  0  0  0  0  0  0  0  0  0
   59.7864   34.3432   48.0000 H   0  0  0  0  0  0  0  0  0  0  0  0
   60.3920   32.3810   47.2790 C   0  0  0  0  0  0  0  0  0  0  0  0
   61.7640   32.4110   47.8650 C   0  0  0  0  0  0  0  0  0  0  0  0
   62.6750   33.0010   47.2200 O   0  0  0  0  0  0  0  0  0  0  0  0
   62.0680   31.8460   49.1720 N   0  0  2  0  0  0  0  0  0  0  0  0
   63.0990   31.6910   49.2410 H   0  0  0  0  0  0  0  0  0  0  0  0
   61.4520   30.4870   49.2940 C   0  0  0  0  0  0  0  0  0  0  0  0
   60.8282   30.3112   48.4052 H   0  0  0  0  0  0  0  0  0  0  0  0
   62.2837   29.7726   49.3829 H   0  0  0  0  0  0  0  0  0  0  0  0
   60.5750   30.2960   50.5420 C   0  0  0  0  0  0  0  0  0  0  0  0
   59.9885   29.3713   50.4369 H   0  0  0  0  0  0  0  0  0  0  0  0
   61.2207   30.2296   51.4301 H   0  0  0  0  0  0  0  0  0  0  0  0
   59.6630   31.4350   50.6940 N   0  0  0  0  0  0  0  0  0  0  0  0
   58.2890   31.2280   51.0910 C   0  0  0  0  0  0  0  0  0  0  0  0
   57.7440   30.1030   50.9260 O   0  0  0  0  0  0  0  0  0  0  0  0
   57.4860   32.3270   51.7190 C   0  0  0  0  0  0  0  0  0  0  0  0
   57.5459   32.2450   52.8143 H   0  0  0  0  0  0  0  0  0  0  0  0
   57.8866   33.3011   51.4018 H   0  0  0  0  0  0  0  0  0  0  0  0
   56.4362   32.2414   51.4018 H   0  0  0  0  0  0  0  0  0  0  0  0
   60.2040   32.7960   50.5830 C   0  0  0  0  0  0  0  0  0  0  0  0
   59.6897   33.3209   49.7645 H   0  0  0  0  0  0  0  0  0  0  0  0
   60.0411   33.3147   51.5392 H   0  0  0  0  0  0  0  0  0  0  0  0
   61.7190   32.7720   50.2920 C   0  0  2  0  0  0  0  0  0  0  0  0
   62.2267   32.3587   51.1760 H   0  0  0  0  0  0  0  0  0  0  0  0
   62.2600   34.1980   50.0920 C   0  0  0  0  0  0  0  0  0  0  0  0
   62.4368   34.6640   51.0726 H   0  0  0  0  0  0  0  0  0  0  0  0
   63.2048   34.1563   49.5302 H   0  0  0  0  0  0  0  0  0  0  0  0
   61.5253   34.7935   49.5302 H   0  0  0  0  0  0  0  0  0  0  0  0
   59.9740   31.2390   46.5690 C   0  0  0  0  0  0  0  0  0  0  0  0
   60.6665   30.3935   46.4442 H   0  0  0  0  0  0  0  0  0  0  0  0
  1  2  1  0
  2  3  1  0
  2  4  2  0
  4  5  1  0
  5  6  2  0
  6  7  1  0
  6  8  1  0
  8  9  1  0
  9 10  1  0
 10 11  2  0
 10 12  1  0
 12 13  1  0
 13 14  1  0
  5 15  1  0
 15 16  1  0
 15 17  2  0
 17 18  1  0
 18 19  1  0
 18 20  1  0
 18 21  1  0
 17 22  1  0
 22 23  1  0
 23 24  2  0
 24 25  1  0
 24 26  1  0
 26 27  1  0
 26 28  2  0
 28 29  1  0
 28 30  1  0
 30 31  1  0
 31 32  2  0
 31 33  1  0
 33 34  1  6
 33 35  1  0
 35 36  1  0
 35 37  1  0
 35 38  1  0
 38 39  1  0
 38 40  1  0
 38 41  1  0
 41 42  1  0
 42 43  2  0
 42 44  1  0
 44 45  1  0
 44 46  1  0
 44 47  1  0
 41 48  1  0
 48 49  1  0
 48 50  1  0
 48 51  1  0
 51 52  1  1
 51 53  1  0
 53 54  1  0
 53 55  1  0
 53 56  1  0
 30 57  2  0
 57 58  1  0
 22  4  1  0
 57 23  1  0
 13  8  2  0
 51 33  1  0
M  CHG  4   9  -1  12  -1  14  -1  33   1
M  END
>  <UniqueID>  (54) 
52

>  <SMILES>  (54) 
C=c1/c(=C/c2[n-]c(=O)[n-]c2[O-])cc(C)n1-c1cccc(C(=O)[N@@H+]2CCN(C(C)=O)C[C@@H]2C)c1

>  <Energy>  (54) 
143.24625540185158

>  <Genealogy>  (54) 
C=c1c(=Cc2[n-]c(=O)[n-]c2[O-])cc(C)n1-c1cccc(C(=O)[NH+]2CCN(C(C)=O)CC2C)c1 (protonated)
C=c1c(=Cc2[n-]c(=O)[n-]c2[O-])cc(C)n1-c1cccc(C(=O)[N@@H+]2CCN(C(C)=O)C[C@@H]2C)c1 (chirality)
C=c1/c(=C/c2[n-]c(=O)[n-]c2[O-])cc(C)n1-c1cccc(C(=O)[N@@H+]2CCN(C(C)=O)C[C@@H]2C)c1 (cis-trans isomerization)
C=c1/c(=C/c2[n-]c(=O)[n-]c2[O-])cc(C)n1-c1cccc(C(=O)[N@@H+]2CCN(C(C)=O)C[C@@H]2C)c1 (3D coordinates assigned)
C=c1/c(=C/c2[n-]c(=O)[n-]c2[O-])cc(C)n1-c1cccc(C(=O)[N@@H+]2CCN(C(C)=O)C[C@@H]2C)c1 (nonaromatic ring conformer: 143.24625540185158 kcal/mol)

>  <smiles>  (54) 
C=c1c(=Cc2[nH]c(=O)[nH]c2O)cc(C)n1-c1cccc(C(=O)N2CCN(C(C)=O)CC2C)c1

>  <score_type>  (54) 
oracle

>  <origin>  (54) 
adg

>  <m_score__min__energy>  (54) 
-15.99

>  <m_primary>  (54) 
energy

$$$$
54:0
     RDKit          3D

 59 62  0  0  1  0  0  0  0  0999 V2000
   59.2830   34.5750   53.7440 C   0  0  0  0  0  0  0  0  0  0  0  0
   58.7330   34.3040   52.3870 C   0  0  0  0  0  0  0  0  0  0  0  0
   59.6930   33.4780   51.6450 N   0  0  0  0  0  0  0  0  0  0  0  0
   59.3150   32.0760   51.7900 C   0  0  0  0  0  0  0  0  0  0  0  0
   58.3930   31.5730   50.7380 C   0  0  0  0  0  0  0  0  0  0  0  0
   59.0940   30.8280   49.6800 N   0  0  0  0  0  0  0  0  0  0  0  0
   59.8270   29.7200   49.8890 C   0  0  0  0  0  0  0  0  0  0  0  0
   60.3480   29.2660   48.7360 N   0  0  0  0  0  0  0  0  0  0  0  0
   59.9420   30.0960   47.7790 C   0  0  0  0  0  0  0  0  0  0  0  0
   60.1750   30.0990   46.4010 C   0  0  0  0  0  0  0  0  0  0  0  0
   60.9070   29.1800   45.8920 N   0  0  0  0  0  0  0  0  0  0  0  0
   60.3740   28.3360   44.8690 C   0  0  0  0  0  0  0  0  0  0  0  0
   58.9830   27.8750   45.2150 C   0  0  0  0  0  0  0  0  0  0  0  0
   58.7530   26.6300   45.7780 C   0  0  0  0  0  0  0  0  0  0  0  0
   57.4830   26.1740   46.0890 C   0  0  0  0  0  0  0  0  0  0  0  0
   56.4120   27.0090   45.8190 C   0  0  0  0  0  0  0  0  0  0  0  0
   55.1530   26.5150   46.1450 O   0  0  0  0  0  0  0  0  0  0  0  0
   56.5830   28.2650   45.2570 C   0  0  0  0  0  0  0  0  0  0  0  0
   55.4870   29.0780   45.0000 O   0  0  0  0  0  0  0  0  0  0  0  0
   55.5840   30.0930   44.0150 C   0  0  0  0  0  0  0  0  0  0  0  0
   57.8710   28.6540   44.9740 C   0  0  0  0  0  0  0  0  0  0  0  0
   59.5980   31.0930   45.7140 N   0  0  0  0  0  0  0  0  0  0  0  0
   58.8340   32.0500   46.2690 C   0  0  0  0  0  0  0  0  0  0  0  0
   58.6110   32.0460   47.5940 N   0  0  0  0  0  0  0  0  0  0  0  0
   59.1470   31.0890   48.3660 C   0  0  0  0  0  0  0  0  0  0  0  0
   59.6350   33.8470   50.2250 C   0  0  0  0  0  0  0  0  0  0  0  0
   60.8760   33.6010   49.4840 C   0  0  0  0  0  0  0  0  0  0  0  0
   61.0890   33.9930   48.1660 C   0  0  0  0  0  0  0  0  0  0  0  0
   62.2840   33.7500   47.5020 C   0  0  0  0  0  0  0  0  0  0  0  0
   63.3050   33.1170   48.1140 N   0  0  0  0  0  0  0  0  0  0  0  0
   63.1450   32.7170   49.3950 C   0  0  0  0  0  0  0  0  0  0  0  0
   61.9650   32.9470   50.0750 C   0  0  0  0  0  0  0  0  0  0  0  0
   58.5707   34.2240   54.5052 H   0  0  0  0  0  0  0  0  0  0  0  0
   60.2393   34.0449   53.8646 H   0  0  0  0  0  0  0  0  0  0  0  0
   59.4453   35.6562   53.8646 H   0  0  0  0  0  0  0  0  0  0  0  0
   57.7759   33.7692   52.4758 H   0  0  0  0  0  0  0  0  0  0  0  0
   58.5654   35.2521   51.8550 H   0  0  0  0  0  0  0  0  0  0  0  0
   60.2317   31.4686   51.7622 H   0  0  0  0  0  0  0  0  0  0  0  0
   58.7737   31.9955   52.7442 H   0  0  0  0  0  0  0  0  0  0  0  0
   57.6534   30.9073   51.2068 H   0  0  0  0  0  0  0  0  0  0  0  0
   57.9142   32.4456   50.2697 H   0  0  0  0  0  0  0  0  0  0  0  0
   59.9796   29.2487   50.8711 H   0  0  0  0  0  0  0  0  0  0  0  0
   60.3417   28.8956   43.9225 H   0  0  0  0  0  0  0  0  0  0  0  0
   61.0211   27.4516   44.7741 H   0  0  0  0  0  0  0  0  0  0  0  0
   59.6138   25.9776   45.9863 H   0  0  0  0  0  0  0  0  0  0  0  0
   57.3300   25.1807   46.5360 H   0  0  0  0  0  0  0  0  0  0  0  0
   54.3770   27.1280   46.3600 H   0  0  0  0  0  0  0  0  0  0  0  0
   55.6776   31.0728   44.5061 H   0  0  0  0  0  0  0  0  0  0  0  0
   56.4689   29.9114   43.3873 H   0  0  0  0  0  0  0  0  0  0  0  0
   54.6807   30.0823   43.3873 H   0  0  0  0  0  0  0  0  0  0  0  0
   58.0238   29.6478   44.5279 H   0  0  0  0  0  0  0  0  0  0  0  0
   59.7340   31.1480   44.6850 H   0  0  0  0  0  0  0  0  0  0  0  0
   58.3918   32.8357   45.6388 H   0  0  0  0  0  0  0  0  0  0  0  0
   58.8304   33.2657   49.7511 H   0  0  0  0  0  0  0  0  0  0  0  0
   59.4582   34.9321   50.1896 H   0  0  0  0  0  0  0  0  0  0  0  0
   60.2816   34.5142   47.6308 H   0  0  0  0  0  0  0  0  0  0  0  0
   62.3996   34.0796   46.4589 H   0  0  0  0  0  0  0  0  0  0  0  0
   63.9699   32.1986   49.9056 H   0  0  0  0  0  0  0  0  0  0  0  0
   61.8772   32.6048   51.1167 H   0  0  0  0  0  0  0  0  0  0  0  0
  1  2  1  0
  2  3  1  0
  3  4  1  0
  4  5  1  0
  5  6  1  0
  6  7  1  0
  7  8  2  0
  8  9  1  0
  9 10  1  0
 10 11  2  0
 11 12  1  0
 12 13  1  0
 13 14  2  0
 14 15  1  0
 15 16  2  0
 16 17  1  0
 16 18  1  0
 18 19  1  0
 19 20  1  0
 18 21  2  0
 10 22  1  0
 22 23  1  0
 23 24  2  0
 24 25  1  0
  3 26  1  0
 26 27  1  0
 27 28  2  0
 28 29  1  0
 29 30  2  0
 30 31  1  0
 31 32  2  0
 25  6  1  0
 32 27  1  0
 25  9  2  0
 21 13  1  0
  1 33  1  0
  1 34  1  0
  1 35  1  0
  2 36  1  0
  2 37  1  0
  4 38  1  0
  4 39  1  0
  5 40  1  0
  5 41  1  0
  7 42  1  0
 12 43  1  0
 12 44  1  0
 14 45  1  0
 15 46  1  0
 17 47  1  0
 20 48  1  0
 20 49  1  0
 20 50  1  0
 21 51  1  0
 22 52  1  0
 23 53  1  0
 26 54  1  0
 26 55  1  0
 28 56  1  0
 29 57  1  0
 31 58  1  0
 32 59  1  0
M  END
>  <smiles>  (55) 
CCN(CCn1cnc2c(=NCc3ccc(O)c(OC)c3)[nH]cnc21)Cc1ccncc1

>  <score_type>  (55) 
oracle

>  <origin>  (55) 
adg

>  <m_score__min__energy>  (55) 
-8.9299999999999997

>  <m_primary>  (55) 
energy

$$$$
55:0
     RDKit          3D

 50 52  0  0  1  0  0  0  0  0999 V2000
   56.6540   30.4840   42.6030 C   0  0  0  0  0  0  0  0  0  0  0  0
   56.2620   30.1230   44.0130 C   0  0  0  0  0  0  0  0  0  0  0  0
   56.7330   31.1360   44.9080 N   0  0  0  0  0  0  0  0  0  0  0  0
   57.0190   32.3130   44.4860 C   0  0  0  0  0  0  0  0  0  0  0  0
   58.4810   32.6840   44.6030 C   0  0  0  0  0  0  0  0  0  0  0  0
   58.8090   33.0370   46.0070 C   0  0  0  0  0  0  0  0  0  0  0  0
   58.8650   34.3170   46.4290 N   0  0  0  0  0  0  0  0  0  0  0  0
   59.2040   34.2700   47.7350 C   0  0  0  0  0  0  0  0  0  0  0  0
   59.3510   32.9880   48.1030 N   0  0  0  0  0  0  0  0  0  0  0  0
   59.1090   32.1650   47.0340 C   0  0  0  0  0  0  0  0  0  0  0  0
   59.1460   30.7180   47.0840 C   0  0  0  0  0  0  0  0  0  0  0  0
   59.4640   30.1910   48.2170 O   0  0  0  0  0  0  0  0  0  0  0  0
   58.8720   29.8330   46.0460 N   0  0  0  0  0  0  0  0  0  0  0  0
   58.9360   28.4050   46.1400 C   0  0  0  0  0  0  0  0  0  0  0  0
   60.0630   27.7370   46.5610 C   0  0  0  0  0  0  0  0  0  0  0  0
   60.0700   26.3580   46.6730 C   0  0  0  0  0  0  0  0  0  0  0  0
   58.9330   25.6190   46.3650 C   0  0  0  0  0  0  0  0  0  0  0  0
   57.8080   26.2920   45.9470 C   0  0  0  0  0  0  0  0  0  0  0  0
   56.5690   25.6160   45.6340 C   0  0  0  0  0  0  0  0  0  0  0  0
   55.5490   25.9680   46.3240 O   0  0  0  0  0  0  0  0  0  0  0  0
   56.3600   24.6280   44.6690 N   0  0  0  0  0  0  0  0  0  0  0  0
   54.9900   24.0980   44.5470 C   0  0  0  0  0  0  0  0  0  0  0  0
   55.1640   22.6010   44.8050 C   0  0  0  0  0  0  0  0  0  0  0  0
   55.8910   22.1290   43.7140 O   0  0  0  0  0  0  0  0  0  0  0  0
   57.2260   22.5330   43.7620 C   0  0  0  0  0  0  0  0  0  0  0  0
   57.3360   24.0570   43.7780 C   0  0  0  0  0  0  0  0  0  0  0  0
   57.8180   27.6740   45.8370 C   0  0  0  0  0  0  0  0  0  0  0  0
   57.4630   31.2290   42.6267 H   0  0  0  0  0  0  0  0  0  0  0  0
   57.0010   29.5826   42.0767 H   0  0  0  0  0  0  0  0  0  0  0  0
   55.7841   30.9039   42.0767 H   0  0  0  0  0  0  0  0  0  0  0  0
   55.1666   30.0509   44.0830 H   0  0  0  0  0  0  0  0  0  0  0  0
   56.7086   29.1549   44.2837 H   0  0  0  0  0  0  0  0  0  0  0  0
   56.2630   32.9968   44.0727 H   0  0  0  0  0  0  0  0  0  0  0  0
   59.0990   31.8298   44.2891 H   0  0  0  0  0  0  0  0  0  0  0  0
   58.6842   33.5514   43.9577 H   0  0  0  0  0  0  0  0  0  0  0  0
   59.3381   35.1422   48.3917 H   0  0  0  0  0  0  0  0  0  0  0  0
   59.6110   32.6620   49.0660 H   0  0  0  0  0  0  0  0  0  0  0  0
   58.5860   30.2070   45.1220 H   0  0  0  0  0  0  0  0  0  0  0  0
   60.9700   28.3067   46.8117 H   0  0  0  0  0  0  0  0  0  0  0  0
   60.9819   25.8423   47.0082 H   0  0  0  0  0  0  0  0  0  0  0  0
   58.9330   24.5226   46.4534 H   0  0  0  0  0  0  0  0  0  0  0  0
   54.3245   24.5516   45.2962 H   0  0  0  0  0  0  0  0  0  0  0  0
   54.5314   24.3148   43.5710 H   0  0  0  0  0  0  0  0  0  0  0  0
   55.7172   22.4317   45.7406 H   0  0  0  0  0  0  0  0  0  0  0  0
   54.1983   22.0853   44.9123 H   0  0  0  0  0  0  0  0  0  0  0  0
   57.6917   22.1290   44.6730 H   0  0  0  0  0  0  0  0  0  0  0  0
   57.7397   22.1537   42.8663 H   0  0  0  0  0  0  0  0  0  0  0  0
   58.3434   24.3429   44.1148 H   0  0  0  0  0  0  0  0  0  0  0  0
   57.1517   24.4357   42.7618 H   0  0  0  0  0  0  0  0  0  0  0  0
   56.9094   28.1941   45.4995 H   0  0  0  0  0  0  0  0  0  0  0  0
  1  2  1  0
  2  3  1  0
  3  4  2  0
  4  5  1  0
  5  6  1  0
  6  7  1  0
  7  8  2  0
  8  9  1  0
  9 10  1  0
 10 11  1  0
 11 12  2  0
 11 13  1  0
 13 14  1  0
 14 15  2  0
 15 16  1  0
 16 17  2  0
 17 18  1  0
 18 19  1  0
 19 20  2  0
 19 21  1  0
 21 22  1  0
 22 23  1  0
 23 24  1  0
 24 25  1  0
 25 26  1  0
 18 27  2  0
 10  6  2  0
 27 14  1  0
 26 21  1  0
  1 28  1  0
  1 29  1  0
  1 30  1  0
  2 31  1  0
  2 32  1  0
  4 33  1  0
  5 34  1  0
  5 35  1  0
  8 36  1  0
  9 37  1  0
 13 38  1  0
 15 39  1  0
 16 40  1  0
 17 41  1  0
 22 42  1  0
 22 43  1  0
 23 44  1  0
 23 45  1  0
 25 46  1  0
 25 47  1  0
 26 48  1  0
 26 49  1  0
 27 50  1  0
M  END
>  <smiles>  (56) 
CCN=CCc1nc[nH]c1C(=O)Nc1cccc(C(=O)N2CCOCC2)c1

>  <score_type>  (56) 
oracle

>  <origin>  (56) 
adg

>  <m_score__min__energy>  (56) 
-8.3300000000000001

>  <m_primary>  (56) 
energy

$$$$
56:0
     RDKit          3D

 26 27  0  0  0  0  0  0  0  0999 V2000
   59.1950   23.0870   45.6300 O   0  0  0  0  0  0  0  0  0  0  0  0
   58.2260   23.8900   45.5700 C   0  0  0  0  0  0  0  0  0  0  0  0
   58.5200   25.3320   45.4130 C   0  0  0  0  0  0  0  0  0  0  0  0
   58.0560   26.3090   46.2080 C   0  0  0  0  0  0  0  0  0  0  0  0
   57.4570   27.5760   45.7280 C   0  0  0  0  0  0  0  0  0  0  0  0
   56.0660   27.7410   45.6180 C   0  0  0  0  0  0  0  0  0  0  0  0
   55.1960   26.7190   45.9830 O   0  0  0  0  0  0  0  0  0  0  0  0
   55.5560   28.9140   45.1640 N   0  0  0  0  0  0  0  0  0  0  0  0
   56.3680   29.9480   44.8290 C   0  0  0  0  0  0  0  0  0  0  0  0
   55.8730   31.0240   44.4040 O   0  0  0  0  0  0  0  0  0  0  0  0
   57.7140   29.8260   44.9590 N   0  0  0  0  0  0  0  0  0  0  0  0
   58.2740   28.6730   45.4070 C   0  0  0  0  0  0  0  0  0  0  0  0
   59.5260   28.5950   45.5160 O   0  0  0  0  0  0  0  0  0  0  0  0
   56.8460   23.3510   45.6330 C   0  0  0  0  0  0  0  0  0  0  0  0
   55.8850   23.8160   44.7210 C   0  0  0  0  0  0  0  0  0  0  0  0
   54.5880   23.2950   44.7320 C   0  0  0  0  0  0  0  0  0  0  0  0
   54.2340   22.3170   45.6650 C   0  0  0  0  0  0  0  0  0  0  0  0
   52.9450   21.7950   45.6710 O   0  0  0  0  0  0  0  0  0  0  0  0
   55.1740   21.8660   46.5950 C   0  0  0  0  0  0  0  0  0  0  0  0
   56.4740   22.3840   46.5910 C   0  0  0  0  0  0  0  0  0  0  0  0
   57.3800   21.9430   47.5500 O   0  0  0  0  0  0  0  0  0  0  0  0
   59.1715   25.6270   44.5772 H   0  0  0  0  0  0  0  0  0  0  0  0
   58.1256   26.1578   47.2953 H   0  0  0  0  0  0  0  0  0  0  0  0
   56.1546   24.5954   43.9931 H   0  0  0  0  0  0  0  0  0  0  0  0
   53.8451   23.6554   44.0052 H   0  0  0  0  0  0  0  0  0  0  0  0
   54.8912   21.1010   47.3331 H   0  0  0  0  0  0  0  0  0  0  0  0
  1  2  2  0
  2  3  1  0
  3  4  2  3
  4  5  1  0
  5  6  2  0
  6  7  1  0
  6  8  1  0
  8  9  1  0
  9 10  2  0
  9 11  1  0
 11 12  1  0
 12 13  2  0
  2 14  1  0
 14 15  2  0
 15 16  1  0
 16 17  2  0
 17 18  1  0
 17 19  1  0
 19 20  2  0
 20 21  1  0
 12  5  1  0
 20 14  1  0
  3 22  1  0
  4 23  1  0
 15 24  1  0
 16 25  1  0
 19 26  1  0
M  CHG  5   7  -1   8  -1  11  -1  18  -1  21  -1
M  END
>  <UniqueID>  (57) 
53

>  <SMILES>  (57) 
O=C(C=Cc1c([O-])[n-]c(=O)[n-]c1=O)c1ccc([O-])cc1[O-]

>  <Energy>  (57) 
42.33363117875072

>  <Genealogy>  (57) 
O=C(C=Cc1c([O-])[n-]c(=O)[n-]c1=O)c1ccc([O-])cc1[O-] (protonated)
O=C(C=Cc1c([O-])[n-]c(=O)[n-]c1=O)c1ccc([O-])cc1[O-] (3D coordinates assigned)
O=C(C=Cc1c([O-])[n-]c(=O)[n-]c1=O)c1ccc([O-])cc1[O-] (optimized conformer: 42.33363117875072 kcal/mol)

>  <smiles>  (57) 
O=C(C=Cc1c(O)[nH]c(=O)[nH]c1=O)c1ccc(O)cc1O

>  <score_type>  (57) 
oracle

>  <origin>  (57) 
adg

>  <m_score__min__energy>  (57) 
-18.539999999999999

>  <m_primary>  (57) 
energy

$$$$
57:0
     RDKit          3D

 57 60  0  0  0  0  0  0  0  0999 V2000
   55.5690   29.0480   45.2450 N   0  0  0  0  0  0  0  0  0  0  0  0
   55.7730   29.7460   44.0180 C   0  0  0  0  0  0  0  0  0  0  0  0
   55.1320   29.3850   42.9940 O   0  0  0  0  0  0  0  0  0  0  0  0
   56.7180   30.8850   43.9450 C   0  0  0  0  0  0  0  0  0  0  0  0
   57.2170   31.3170   42.7050 C   0  0  0  0  0  0  0  0  0  0  0  0
   58.0920   32.4030   42.6340 C   0  0  0  0  0  0  0  0  0  0  0  0
   58.4680   33.0800   43.7950 C   0  0  0  0  0  0  0  0  0  0  0  0
   57.9890   32.6630   45.0490 C   0  0  0  0  0  0  0  0  0  0  0  0
   58.3700   33.4280   46.3040 C   0  0  2  0  0  0  0  0  0  0  0  0
   59.4960   34.4550   46.0220 C   0  0  0  0  0  0  0  0  0  0  0  0
   60.4020   34.6470   47.2330 C   0  0  0  0  0  0  0  0  0  0  0  0
   61.0760   33.3210   47.5980 C   0  0  0  0  0  0  0  0  0  0  0  0
   60.1170   32.2030   47.6520 N   0  0  0  0  0  0  0  0  0  0  0  0
   60.5640   30.9510   48.2260 C   0  0  0  0  0  0  0  0  0  0  0  0
   61.5310   30.9410   49.0360 O   0  0  0  0  0  0  0  0  0  0  0  0
   59.9060   29.6710   47.9070 C   0  0  0  0  0  0  0  0  0  0  0  0
   60.2270   28.5120   48.6250 C   0  0  0  0  0  0  0  0  0  0  0  0
   59.6280   27.2930   48.3050 C   0  0  0  0  0  0  0  0  0  0  0  0
   58.6840   27.2160   47.2650 C   0  0  0  0  0  0  0  0  0  0  0  0
   58.0790   25.9670   46.8880 N   0  0  0  0  0  0  0  0  0  0  0  0
   56.9580   25.8180   45.5700 S   0  0  0  0  0  0  0  0  0  0  0  0
   57.2510   26.8780   44.5470 O   0  0  0  0  0  0  0  0  0  0  0  0
   55.5610   26.0080   46.0910 O   0  0  0  0  0  0  0  0  0  0  0  0
   57.1300   24.2360   44.8110 C   0  0  0  0  0  0  0  0  0  0  0  0
   56.2630   23.8440   43.7800 C   0  0  0  0  0  0  0  0  0  0  0  0
   56.4020   22.5860   43.1870 C   0  0  0  0  0  0  0  0  0  0  0  0
   57.4030   21.7130   43.6220 C   0  0  0  0  0  0  0  0  0  0  0  0
   58.2680   22.0980   44.6520 C   0  0  0  0  0  0  0  0  0  0  0  0
   58.1360   23.3580   45.2420 C   0  0  0  0  0  0  0  0  0  0  0  0
   58.3280   28.3880   46.5820 C   0  0  0  0  0  0  0  0  0  0  0  0
   58.9320   29.6080   46.9010 C   0  0  0  0  0  0  0  0  0  0  0  0
   58.6750   32.4620   47.4830 C   0  0  0  0  0  0  0  0  0  0  0  0
   57.1230   31.5570   45.1130 C   0  0  0  0  0  0  0  0  0  0  0  0
   55.5340   28.0060   45.2710 H   0  0  0  0  0  0  0  0  0  0  0  0
   56.9165   30.7964   41.7838 H   0  0  0  0  0  0  0  0  0  0  0  0
   58.4864   32.7261   41.6593 H   0  0  0  0  0  0  0  0  0  0  0  0
   59.1436   33.9455   43.7283 H   0  0  0  0  0  0  0  0  0  0  0  0
   57.5038   34.0245   46.6264 H   0  0  0  0  0  0  0  0  0  0  0  0
   60.1020   34.0962   45.1770 H   0  0  0  0  0  0  0  0  0  0  0  0
   59.0267   35.4221   45.7887 H   0  0  0  0  0  0  0  0  0  0  0  0
   61.1733   35.3947   46.9961 H   0  0  0  0  0  0  0  0  0  0  0  0
   59.7978   34.9917   48.0851 H   0  0  0  0  0  0  0  0  0  0  0  0
   61.8423   33.0937   46.8422 H   0  0  0  0  0  0  0  0  0  0  0  0
   61.5196   33.4328   48.5984 H   0  0  0  0  0  0  0  0  0  0  0  0
   60.9564   28.5631   49.4468 H   0  0  0  0  0  0  0  0  0  0  0  0
   59.8955   26.3873   48.8691 H   0  0  0  0  0  0  0  0  0  0  0  0
   58.1910   25.1390   47.5120 H   0  0  0  0  0  0  0  0  0  0  0  0
   55.4724   24.5280   43.4377 H   0  0  0  0  0  0  0  0  0  0  0  0
   55.7226   22.2826   42.3768 H   0  0  0  0  0  0  0  0  0  0  0  0
   57.5107   20.7231   43.1545 H   0  0  0  0  0  0  0  0  0  0  0  0
   59.0524   21.4086   44.9976 H   0  0  0  0  0  0  0  0  0  0  0  0
   58.8223   23.6621   46.0461 H   0  0  0  0  0  0  0  0  0  0  0  0
   57.5672   28.3471   45.7886 H   0  0  0  0  0  0  0  0  0  0  0  0
   58.6419   30.5212   46.3608 H   0  0  0  0  0  0  0  0  0  0  0  0
   58.1660   31.5053   47.2941 H   0  0  0  0  0  0  0  0  0  0  0  0
   58.3145   32.9412   48.4052 H   0  0  0  0  0  0  0  0  0  0  0  0
   56.7566   31.2119   46.0911 H   0  0  0  0  0  0  0  0  0  0  0  0
  1  2  1  0
  2  3  2  0
  2  4  1  0
  4  5  2  0
  5  6  1  0
  6  7  2  0
  7  8  1  0
  8  9  1  0
  9 10  1  0
 10 11  1  0
 11 12  1  0
 12 13  1  0
 13 14  1  0
 14 15  2  0
 14 16  1  0
 16 17  2  0
 17 18  1  0
 18 19  2  0
 19 20  1  0
 20 21  1  0
 21 22  2  0
 21 23  2  0
 21 24  1  0
 24 25  2  0
 25 26  1  0
 26 27  2  0
 27 28  1  0
 28 29  2  0
 19 30  1  0
 30 31  2  0
 13 32  1  0
  8 33  2  0
 33  4  1  0
 32  9  1  0
 31 16  1  0
 29 24  1  0
  1 34  1  0
  5 35  1  0
  6 36  1  0
  7 37  1  0
  9 38  1  1
 10 39  1  0
 10 40  1  0
 11 41  1  0
 11 42  1  0
 12 43  1  0
 12 44  1  0
 17 45  1  0
 18 46  1  0
 20 47  1  0
 25 48  1  0
 26 49  1  0
 27 50  1  0
 28 51  1  0
 29 52  1  0
 30 53  1  0
 31 54  1  0
 32 55  1  0
 32 56  1  0
 33 57  1  0
M  CHG  1   1  -1
M  END
>  <UniqueID>  (58) 
54

>  <SMILES>  (58) 
[NH-]C(=O)c1cccc([C@@H]2CCCN(C(=O)c3ccc(NS(=O)(=O)c4ccccc4)cc3)C2)c1

>  <Energy>  (58) 
68.84536159623347

>  <Genealogy>  (58) 
[NH-]C(=O)c1cccc(C2CCCN(C(=O)c3ccc(NS(=O)(=O)c4ccccc4)cc3)C2)c1 (protonated)
[NH-]C(=O)c1cccc([C@@H]2CCCN(C(=O)c3ccc(NS(=O)(=O)c4ccccc4)cc3)C2)c1 (chirality)
[NH-]C(=O)c1cccc([C@@H]2CCCN(C(=O)c3ccc(NS(=O)(=O)c4ccccc4)cc3)C2)c1 (3D coordinates assigned)
[NH-]C(=O)c1cccc([C@@H]2CCCN(C(=O)c3ccc(NS(=O)(=O)c4ccccc4)cc3)C2)c1 (nonaromatic ring conformer: 68.84536159623347 kcal/mol)

>  <smiles>  (58) 
NC(=O)c1cccc(C2CCCN(C(=O)c3ccc(NS(=O)(=O)c4ccccc4)cc3)C2)c1

>  <score_type>  (58) 
oracle

>  <origin>  (58) 
adg

>  <m_score__min__energy>  (58) 
-13.619999999999999

>  <m_primary>  (58) 
energy

$$$$
58:0
     RDKit          3D

 63 66  0  0  0  0  0  0  0  0999 V2000
   64.5790   31.9950   46.7060 H   0  0  0  0  0  0  0  0  0  0  0  0
   63.6820   32.4050   46.8150 O   0  0  0  0  0  0  0  0  0  0  0  0
   63.8020   33.3720   47.8220 C   0  0  0  0  0  0  0  0  0  0  0  0
   63.0611   34.1665   47.6495 H   0  0  0  0  0  0  0  0  0  0  0  0
   64.8205   33.7866   47.7940 H   0  0  0  0  0  0  0  0  0  0  0  0
   63.5620   32.7530   49.1980 C   0  0  0  0  0  0  0  0  0  0  0  0
   63.0449   33.4828   49.8384 H   0  0  0  0  0  0  0  0  0  0  0  0
   64.5317   32.4813   49.6406 H   0  0  0  0  0  0  0  0  0  0  0  0
   62.7410   31.5490   49.0800 N   0  0  0  0  0  0  0  0  0  0  0  0
   62.3830   31.2820   48.1350 H   0  0  0  0  0  0  0  0  0  0  0  0
   62.3550   30.7580   50.2090 C   0  0  0  0  0  0  0  0  0  0  0  0
   62.6930   31.1060   51.3730 O   0  0  0  0  0  0  0  0  0  0  0  0
   61.5180   29.6100   50.0070 N   0  0  0  0  0  0  0  0  0  0  0  0
   60.8640   29.2760   48.9290 C   0  0  0  0  0  0  0  0  0  0  0  0
   60.9090   30.1160   47.8610 N   0  0  0  0  0  0  0  0  0  0  0  0
   60.3040   29.8260   46.6790 C   0  0  0  0  0  0  0  0  0  0  0  0
   60.3469   30.5481   45.8503 H   0  0  0  0  0  0  0  0  0  0  0  0
   59.6290   28.6170   46.5120 C   0  0  0  0  0  0  0  0  0  0  0  0
   59.1270   28.2860   45.2480 O   0  0  0  0  0  0  0  0  0  0  0  0
   58.1460   29.0620   44.6220 C   0  0  0  0  0  0  0  0  0  0  0  0
   57.9080   30.3330   45.0440 N   0  0  0  0  0  0  0  0  0  0  0  0
   56.9600   31.1140   44.4610 C   0  0  0  0  0  0  0  0  0  0  0  0
   56.7560   32.3270   44.8790 N   0  0  0  0  0  0  0  0  0  0  0  0
   57.7540   33.0700   45.5920 C   0  0  0  0  0  0  0  0  0  0  0  0
   58.3720   34.1630   44.9840 C   0  0  0  0  0  0  0  0  0  0  0  0
   58.1502   34.4076   43.9347 H   0  0  0  0  0  0  0  0  0  0  0  0
   59.2700   34.9440   45.7070 C   0  0  0  0  0  0  0  0  0  0  0  0
   59.7475   35.8120   45.2290 H   0  0  0  0  0  0  0  0  0  0  0  0
   59.5680   34.6320   47.0350 C   0  0  0  0  0  0  0  0  0  0  0  0
   60.2694   35.2679   47.5950 H   0  0  0  0  0  0  0  0  0  0  0  0
   58.9830   33.5110   47.6740 C   0  0  0  0  0  0  0  0  0  0  0  0
   59.3190   33.1570   49.0550 N   0  0  0  0  0  0  0  0  0  0  0  0
   60.2670   34.0130   49.8020 C   0  0  0  0  0  0  0  0  0  0  0  0
   61.1727   34.1350   49.1897 H   0  0  0  0  0  0  0  0  0  0  0  0
   59.7414   34.9597   49.9953 H   0  0  0  0  0  0  0  0  0  0  0  0
   60.6890   33.4660   51.1750 C   0  0  0  0  0  0  0  0  0  0  0  0
   61.5134   32.7527   51.0285 H   0  0  0  0  0  0  0  0  0  0  0  0
   60.9905   34.3265   51.7903 H   0  0  0  0  0  0  0  0  0  0  0  0
   59.6030   32.7830   51.8850 N   0  0  0  0  0  0  0  0  0  0  0  0
   58.5230   33.6950   52.2990 C   0  0  0  0  0  0  0  0  0  0  0  0
   58.4769   33.7340   53.3973 H   0  0  0  0  0  0  0  0  0  0  0  0
   58.7223   34.7023   51.9044 H   0  0  0  0  0  0  0  0  0  0  0  0
   57.5633   33.3299   51.9044 H   0  0  0  0  0  0  0  0  0  0  0  0
   59.1210   31.6490   51.0890 C   0  0  0  0  0  0  0  0  0  0  0  0
   59.9562   30.9500   50.9346 H   0  0  0  0  0  0  0  0  0  0  0  0
   58.2931   31.1865   51.6464 H   0  0  0  0  0  0  0  0  0  0  0  0
   58.5720   32.0640   49.7170 C   0  0  0  0  0  0  0  0  0  0  0  0
   58.5972   31.1838   49.0577 H   0  0  0  0  0  0  0  0  0  0  0  0
   57.5553   32.4454   49.8924 H   0  0  0  0  0  0  0  0  0  0  0  0
   58.0530   32.7470   46.9230 C   0  0  0  0  0  0  0  0  0  0  0  0
   57.5573   31.8852   47.3938 H   0  0  0  0  0  0  0  0  0  0  0  0
   56.2190   30.6150   43.4370 N   0  0  0  0  0  0  0  0  0  0  0  0
   56.4160   29.3470   42.9850 C   0  0  0  0  0  0  0  0  0  0  0  0
   55.8060   28.9583   42.1563 H   0  0  0  0  0  0  0  0  0  0  0  0
   57.3920   28.5380   43.5720 C   0  0  0  0  0  0  0  0  0  0  0  0
   57.5619   27.5117   43.2145 H   0  0  0  0  0  0  0  0  0  0  0  0
   59.5110   27.7410   47.6100 C   0  0  0  0  0  0  0  0  0  0  0  0
   58.7610   26.4420   47.5020 C   0  0  0  0  0  0  0  0  0  0  0  0
   58.5409   26.0608   48.5101 H   0  0  0  0  0  0  0  0  0  0  0  0
   57.8189   26.6066   46.9585 H   0  0  0  0  0  0  0  0  0  0  0  0
   59.3746   25.7084   46.9585 H   0  0  0  0  0  0  0  0  0  0  0  0
   60.1570   28.0610   48.8110 C   0  0  0  0  0  0  0  0  0  0  0  0
   60.1130   27.3651   49.6618 H   0  0  0  0  0  0  0  0  0  0  0  0
  1  2  1  0
  2  3  1  0
  3  4  1  0
  3  5  1  0
  3  6  1  0
  6  7  1  0
  6  8  1  0
  6  9  1  0
  9 10  1  0
  9 11  1  0
 11 12  2  0
 11 13  1  0
 13 14  2  3
 14 15  1  0
 15 16  1  0
 16 17  1  0
 16 18  2  0
 18 19  1  0
 19 20  1  0
 20 21  2  0
 21 22  1  0
 22 23  2  0
 23 24  1  0
 24 25  2  0
 25 26  1  0
 25 27  1  0
 27 28  1  0
 27 29  2  0
 29 30  1  0
 29 31  1  0
 31 32  1  0
 32 33  1  0
 33 34  1  0
 33 35  1  0
 33 36  1  0
 36 37  1  0
 36 38  1  0
 36 39  1  0
 39 40  1  0
 40 41  1  0
 40 42  1  0
 40 43  1  0
 39 44  1  0
 44 45  1  0
 44 46  1  0
 44 47  1  0
 47 48  1  0
 47 49  1  0
 31 50  2  0
 50 51  1  0
 22 52  1  0
 52 53  1  0
 53 54  1  0
 53 55  2  0
 55 56  1  0
 18 57  1  0
 57 58  1  0
 58 59  1  0
 58 60  1  0
 58 61  1  0
 57 62  2  0
 62 63  1  0
 62 14  1  0
 55 20  1  0
 50 24  1  0
 47 32  1  0
M  CHG  2  15  -1  52  -1
M  END
>  <UniqueID>  (59) 
55

>  <SMILES>  (59) 
Cc1cc(=NC(=O)NCCO)[n-]cc1Oc1cc[n-]/c(=N/c2cccc(N3CCN(C)CC3)c2)n1

>  <Energy>  (59) 
90.98343771161497

>  <Genealogy>  (59) 
Cc1cc(=NC(=O)NCCO)[n-]cc1Oc1cc[n-]c(=Nc2cccc(N3CCN(C)CC3)c2)n1 (protonated)
Cc1cc(=NC(=O)NCCO)[n-]cc1Oc1cc[n-]/c(=N/c2cccc(N3CCN(C)CC3)c2)n1 (cis-trans isomerization)
Cc1cc(=NC(=O)NCCO)[n-]cc1Oc1cc[n-]/c(=N/c2cccc(N3CCN(C)CC3)c2)n1 (3D coordinates assigned)
Cc1cc(=NC(=O)NCCO)[n-]cc1Oc1cc[n-]/c(=N/c2cccc(N3CCN(C)CC3)c2)n1 (nonaromatic ring conformer: 90.98343771161497 kcal/mol)

>  <smiles>  (59) 
Cc1cc(=NC(=O)NCCO)[nH]cc1Oc1cc[nH]c(=Nc2cccc(N3CCN(C)CC3)c2)n1

>  <score_type>  (59) 
oracle

>  <origin>  (59) 
adg

>  <m_score__min__energy>  (59) 
-12.4

>  <m_primary>  (59) 
energy

$$$$
59:0
     RDKit          3D

 24 25  0  0  0  0  0  0  0  0999 V2000
   50.9112   32.1466   54.9510 H   0  0  0  0  0  0  0  0  0  0  0  0
   50.5200   32.4310   53.9630 C   0  0  0  0  0  0  0  0  0  0  0  0
   49.6267   33.0685   53.8878 H   0  0  0  0  0  0  0  0  0  0  0  0
   51.1300   32.0020   52.8540 C   0  0  0  0  0  0  0  0  0  0  0  0
   50.6260   32.3680   51.6460 N   0  0  0  0  0  0  0  0  0  0  0  0
   51.2030   31.9650   50.4870 C   0  0  0  0  0  0  0  0  0  0  0  0
   50.7140   32.3220   49.3850 O   0  0  0  0  0  0  0  0  0  0  0  0
   52.3070   31.1800   50.5150 N   0  0  0  0  0  0  0  0  0  0  0  0
   52.8650   30.7670   51.6870 C   0  0  0  0  0  0  0  0  0  0  0  0
   53.9760   30.0020   51.6710 C   0  0  0  0  0  0  0  0  0  0  0  0
   53.9536   29.0722   51.0836 H   0  0  0  0  0  0  0  0  0  0  0  0
   55.2240   30.3360   52.3950 C   0  0  0  0  0  0  0  0  0  0  0  0
   56.2650   30.9700   51.7000 C   0  0  0  0  0  0  0  0  0  0  0  0
   56.1567   31.1997   50.6297 H   0  0  0  0  0  0  0  0  0  0  0  0
   57.4380   31.3070   52.3750 C   0  0  0  0  0  0  0  0  0  0  0  0
   58.2645   31.7921   51.8350 H   0  0  0  0  0  0  0  0  0  0  0  0
   57.5610   31.0280   53.7350 C   0  0  0  0  0  0  0  0  0  0  0  0
   58.4852   31.2843   54.2737 H   0  0  0  0  0  0  0  0  0  0  0  0
   56.4990   30.4200   54.4060 C   0  0  0  0  0  0  0  0  0  0  0  0
   56.5834   30.2007   55.4806 H   0  0  0  0  0  0  0  0  0  0  0  0
   55.3580   30.0970   53.7350 N   0  0  0  0  0  0  0  0  0  0  0  0
   54.5680   29.6870   54.2810 H   0  0  0  0  0  0  0  0  0  0  0  0
   52.2800   31.1840   52.9030 C   0  0  0  0  0  0  0  0  0  0  0  0
   52.7700   30.8310   54.0130 O   0  0  0  0  0  0  0  0  0  0  0  0
  1  2  1  0
  2  3  1  0
  2  4  2  0
  4  5  1  0
  5  6  1  0
  6  7  2  0
  6  8  1  0
  8  9  1  0
  9 10  2  0
 10 11  1  0
 10 12  1  0
 12 13  2  0
 13 14  1  0
 13 15  1  0
 15 16  1  0
 15 17  2  0
 17 18  1  0
 17 19  1  0
 19 20  1  0
 19 21  2  0
 21 22  1  0
  9 23  1  0
 23 24  2  0
 23  4  1  0
 21 12  1  0
M  CHG  3   5  -1   8  -1  21   1
M  END
>  <UniqueID>  (60) 
56

>  <SMILES>  (60) 
C=c1[n-]c(=O)[n-]/c(=C\c2cccc[nH+]2)c1=O

>  <Energy>  (60) 
34.42610472703691

>  <Genealogy>  (60) 
C=c1[n-]c(=O)[n-]c(=Cc2cccc[nH+]2)c1=O (protonated)
C=c1[n-]c(=O)[n-]/c(=C\c2cccc[nH+]2)c1=O (cis-trans isomerization)
C=c1[n-]c(=O)[n-]/c(=C\c2cccc[nH+]2)c1=O (3D coordinates assigned)
C=c1[n-]c(=O)[n-]/c(=C\c2cccc[nH+]2)c1=O (optimized conformer: 34.42610472703691 kcal/mol)

>  <smiles>  (60) 
C=c1[nH]c(=O)[nH]c(=Cc2ccccn2)c1=O

>  <score_type>  (60) 
oracle

>  <origin>  (60) 
adg

>  <m_score__min__energy>  (60) 
-9.5999999999999996

>  <m_primary>  (60) 
energy

$$$$
60:0
     RDKit          3D

 64 68  0  0  0  0  0  0  0  0999 V2000
   61.3138   29.7565   45.2457 H   0  0  0  0  0  0  0  0  0  0  0  0
   60.5350   28.9840   45.3280 C   0  0  0  0  0  0  0  0  0  0  0  0
   60.2413   28.4025   44.4417 H   0  0  0  0  0  0  0  0  0  0  0  0
   59.9430   28.7510   46.5100 C   0  0  0  0  0  0  0  0  0  0  0  0
   58.9390   27.8080   46.7830 C   0  0  0  0  0  0  0  0  0  0  0  0
   58.1910   27.0480   45.9590 C   0  0  0  0  0  0  0  0  0  0  0  0
   58.1632   27.3371   44.8980 H   0  0  0  0  0  0  0  0  0  0  0  0
   57.4090   25.8670   46.3520 C   0  0  0  0  0  0  0  0  0  0  0  0
   57.9510   24.7660   46.9010 N   0  0  0  0  0  0  0  0  0  0  0  0
   56.8760   24.0130   47.2180 C   0  0  0  0  0  0  0  0  0  0  0  0
   56.9770   22.8770   47.7500 O   0  0  0  0  0  0  0  0  0  0  0  0
   55.6830   24.5780   46.9340 N   0  0  0  0  0  0  0  0  0  0  0  0
   56.0360   25.7580   46.4010 C   0  0  0  0  0  0  0  0  0  0  0  0
   55.1260   26.7250   45.9940 O   0  0  0  0  0  0  0  0  0  0  0  0
   58.8020   27.7740   48.1600 C   0  0  0  0  0  0  0  0  0  0  0  0
   58.1360   27.1156   48.7370 H   0  0  0  0  0  0  0  0  0  0  0  0
   59.6600   28.7230   48.6680 C   0  0  0  0  0  0  0  0  0  0  0  0
   59.8280   29.0090   50.1020 C   0  0  0  0  0  0  0  0  0  0  0  0
   59.3650   30.0890   50.5570 O   0  0  0  0  0  0  0  0  0  0  0  0
   60.5310   28.0910   50.9670 N   0  0  0  0  0  0  0  0  0  0  0  0
   60.8780   26.7440   50.4800 C   0  0  0  0  0  0  0  0  0  0  0  0
   59.9573   26.2281   50.1698 H   0  0  0  0  0  0  0  0  0  0  0  0
   61.5715   26.8518   49.6330 H   0  0  0  0  0  0  0  0  0  0  0  0
   61.5710   25.9150   51.5650 C   0  0  0  0  0  0  0  0  0  0  0  0
   60.8326   25.6173   52.3240 H   0  0  0  0  0  0  0  0  0  0  0  0
   62.0158   25.0189   51.1076 H   0  0  0  0  0  0  0  0  0  0  0  0
   62.6300   26.7100   52.2010 N   0  0  0  0  0  0  0  0  0  0  0  0
   63.9700   26.1760   52.2740 C   0  0  0  0  0  0  0  0  0  0  0  0
   64.4280   25.5310   51.2910 O   0  0  0  0  0  0  0  0  0  0  0  0
   64.8570   26.3390   53.4940 C   0  0  1  0  0  0  0  0  0  0  0  0
   64.5268   27.3114   53.8882 H   0  0  0  0  0  0  0  0  0  0  0  0
   64.6900   25.2270   54.5250 C   0  0  0  0  0  0  0  0  0  0  0  0
   63.8883   24.5449   54.2055 H   0  0  0  0  0  0  0  0  0  0  0  0
   64.4265   25.6608   55.5009 H   0  0  0  0  0  0  0  0  0  0  0  0
   65.9010   24.5160   54.6310 O   0  0  0  0  0  0  0  0  0  0  0  0
   66.9170   25.3910   54.2050 C   0  0  0  0  0  0  0  0  0  0  0  0
   67.7384   24.8142   53.7550 H   0  0  0  0  0  0  0  0  0  0  0  0
   67.3085   25.9585   55.0621 H   0  0  0  0  0  0  0  0  0  0  0  0
   66.3360   26.3410   53.1760 C   0  0  0  0  0  0  0  0  0  0  0  0
   66.5197   25.9757   52.1548 H   0  0  0  0  0  0  0  0  0  0  0  0
   66.7831   27.3452   53.2173 H   0  0  0  0  0  0  0  0  0  0  0  0
   62.3380   28.0850   52.6400 C   0  0  0  0  0  0  0  0  0  0  0  0
   62.5104   28.1572   53.7240 H   0  0  0  0  0  0  0  0  0  0  0  0
   63.0005   28.7686   52.0888 H   0  0  0  0  0  0  0  0  0  0  0  0
   60.8860   28.4810   52.3400 C   0  0  0  0  0  0  0  0  0  0  0  0
   60.2159   27.9715   53.0481 H   0  0  0  0  0  0  0  0  0  0  0  0
   60.7804   29.5709   52.4442 H   0  0  0  0  0  0  0  0  0  0  0  0
   60.3500   29.3270   47.6730 N   0  0  0  0  0  0  0  0  0  0  0  0
   61.3700   30.3740   47.8450 C   0  0  0  0  0  0  0  0  0  0  0  0
   61.5748   30.5056   48.9177 H   0  0  0  0  0  0  0  0  0  0  0  0
   62.2843   30.0666   47.3163 H   0  0  0  0  0  0  0  0  0  0  0  0
   60.8940   31.6830   47.2680 C   0  0  0  0  0  0  0  0  0  0  0  0
   59.5310   31.8910   47.0110 C   0  0  0  0  0  0  0  0  0  0  0  0
   58.8040   31.0988   47.2432 H   0  0  0  0  0  0  0  0  0  0  0  0
   59.0900   33.1000   46.4610 C   0  0  0  0  0  0  0  0  0  0  0  0
   58.0180   33.2534   46.2678 H   0  0  0  0  0  0  0  0  0  0  0  0
   60.0070   34.1190   46.1540 C   0  0  0  0  0  0  0  0  0  0  0  0
   59.5460   35.4000   45.5760 C   0  0  0  0  0  0  0  0  0  0  0  0
   60.0060   36.4950   45.9940 O   0  0  0  0  0  0  0  0  0  0  0  0
   58.5930   35.4140   44.5640 O   0  0  0  0  0  0  0  0  0  0  0  0
   61.3740   33.9030   46.4020 C   0  0  0  0  0  0  0  0  0  0  0  0
   62.1031   34.6921   46.1661 H   0  0  0  0  0  0  0  0  0  0  0  0
   61.8130   32.6930   46.9460 C   0  0  0  0  0  0  0  0  0  0  0  0
   62.8866   32.5313   47.1230 H   0  0  0  0  0  0  0  0  0  0  0  0
  1  2  1  0
  2  3  1  0
  2  4  2  0
  4  5  1  0
  5  6  2  0
  6  7  1  0
  6  8  1  0
  8  9  1  0
  9 10  1  0
 10 11  2  0
 10 12  1  0
 12 13  1  0
 13 14  1  0
  5 15  1  0
 15 16  1  0
 15 17  2  0
 17 18  1  0
 18 19  2  0
 18 20  1  0
 20 21  1  0
 21 22  1  0
 21 23  1  0
 21 24  1  0
 24 25  1  0
 24 26  1  0
 24 27  1  0
 27 28  1  0
 28 29  2  0
 28 30  1  0
 30 31  1  1
 30 32  1  0
 32 33  1  0
 32 34  1  0
 32 35  1  0
 35 36  1  0
 36 37  1  0
 36 38  1  0
 36 39  1  0
 39 40  1  0
 39 41  1  0
 27 42  1  0
 42 43  1  0
 42 44  1  0
 42 45  1  0
 45 46  1  0
 45 47  1  0
 17 48  1  0
 48 49  1  0
 49 50  1  0
 49 51  1  0
 49 52  1  0
 52 53  2  0
 53 54  1  0
 53 55  1  0
 55 56  1  0
 55 57  2  0
 57 58  1  0
 58 59  2  0
 58 60  1  0
 57 61  1  0
 61 62  1  0
 61 63  2  0
 63 64  1  0
 48  4  1  0
 63 52  1  0
 13  8  2  0
 45 20  1  0
 39 30  1  0
M  CHG  4   9  -1  12  -1  14  -1  60  -1
M  END
>  <UniqueID>  (61) 
57

>  <SMILES>  (61) 
C=c1/c(=C\c2[n-]c(=O)[n-]c2[O-])cc(C(=O)N2CCN(C(=O)[C@@H]3CCOC3)CC2)n1Cc1ccc(C(=O)[O-])cc1

>  <Energy>  (61) 
150.65758861560224

>  <Genealogy>  (61) 
C=c1c(=Cc2[n-]c(=O)[n-]c2[O-])cc(C(=O)N2CCN(C(=O)C3CCOC3)CC2)n1Cc1ccc(C(=O)[O-])cc1 (protonated)
C=c1c(=Cc2[n-]c(=O)[n-]c2[O-])cc(C(=O)N2CCN(C(=O)[C@@H]3CCOC3)CC2)n1Cc1ccc(C(=O)[O-])cc1 (chirality)
C=c1/c(=C\c2[n-]c(=O)[n-]c2[O-])cc(C(=O)N2CCN(C(=O)[C@@H]3CCOC3)CC2)n1Cc1ccc(C(=O)[O-])cc1 (cis-trans isomerization)
C=c1/c(=C\c2[n-]c(=O)[n-]c2[O-])cc(C(=O)N2CCN(C(=O)[C@@H]3CCOC3)CC2)n1Cc1ccc(C(=O)[O-])cc1 (3D coordinates assigned)
C=c1/c(=C\c2[n-]c(=O)[n-]c2[O-])cc(C(=O)N2CCN(C(=O)[C@@H]3CCOC3)CC2)n1Cc1ccc(C(=O)[O-])cc1 (nonaromatic ring conformer: 150.65758861560224 kcal/mol)

>  <smiles>  (61) 
C=c1c(=Cc2[nH]c(=O)[nH]c2O)cc(C(=O)N2CCN(C(=O)C3CCOC3)CC2)n1Cc1ccc(C(=O)O)cc1

>  <score_type>  (61) 
oracle

>  <origin>  (61) 
adg

>  <m_score__min__energy>  (61) 
-17.420000000000002

>  <m_primary>  (61) 
energy

$$$$
61:0
     RDKit          3D

 31 32  0  0  0  0  0  0  0  0999 V2000
   55.1620   28.9760   44.5730 O   0  0  0  0  0  0  0  0  0  0  0  0
   56.2690   29.2250   45.1210 C   0  0  0  0  0  0  0  0  0  0  0  0
   56.6890   30.5960   45.2060 N   0  0  0  0  0  0  0  0  0  0  0  0
   56.9750   31.4990   44.0930 C   0  0  0  0  0  0  0  0  0  0  0  0
   58.4340   31.9620   44.1250 C   0  0  0  0  0  0  0  0  0  0  0  0
   58.7470   32.6320   45.4350 C   0  0  0  0  0  0  0  0  0  0  0  0
   58.6100   34.0230   45.5660 C   0  0  0  0  0  0  0  0  0  0  0  0
   58.8670   34.6440   46.7930 C   0  0  0  0  0  0  0  0  0  0  0  0
   59.2530   33.8790   47.9020 C   0  0  0  0  0  0  0  0  0  0  0  0
   59.5130   34.4860   49.1280 O   0  0  0  0  0  0  0  0  0  0  0  0
   59.3780   32.4910   47.7780 C   0  0  0  0  0  0  0  0  0  0  0  0
   59.1210   31.8680   46.5520 C   0  0  0  0  0  0  0  0  0  0  0  0
   57.0860   28.1010   45.6400 C   0  0  0  0  0  0  0  0  0  0  0  0
   58.4400   28.2300   45.7130 N   0  0  0  0  0  0  0  0  0  0  0  0
   59.2440   27.2350   46.1700 C   0  0  0  0  0  0  0  0  0  0  0  0
   58.6890   26.0230   46.5800 C   0  0  0  0  0  0  0  0  0  0  0  0
   57.3060   25.8480   46.5140 C   0  0  0  0  0  0  0  0  0  0  0  0
   56.7930   24.7570   46.8800 O   0  0  0  0  0  0  0  0  0  0  0  0
   56.4920   26.8880   46.0420 C   0  0  0  0  0  0  0  0  0  0  0  0
   55.1120   26.7140   45.9920 O   0  0  0  0  0  0  0  0  0  0  0  0
   56.7847   30.9739   43.1454 H   0  0  0  0  0  0  0  0  0  0  0  0
   56.3245   32.3817   44.1810 H   0  0  0  0  0  0  0  0  0  0  0  0
   59.0930   31.0904   43.9979 H   0  0  0  0  0  0  0  0  0  0  0  0
   58.5958   32.6827   43.3099 H   0  0  0  0  0  0  0  0  0  0  0  0
   58.2994   34.6269   44.7007 H   0  0  0  0  0  0  0  0  0  0  0  0
   58.7659   35.7353   46.8875 H   0  0  0  0  0  0  0  0  0  0  0  0
   59.5000   33.9590   49.9930 H   0  0  0  0  0  0  0  0  0  0  0  0
   59.6793   31.8878   48.6471 H   0  0  0  0  0  0  0  0  0  0  0  0
   59.2123   30.7754   46.4628 H   0  0  0  0  0  0  0  0  0  0  0  0
   60.3327   27.3852   46.2167 H   0  0  0  0  0  0  0  0  0  0  0  0
   59.3345   25.2135   46.9515 H   0  0  0  0  0  0  0  0  0  0  0  0
  1  2  2  0
  2  3  1  0
  3  4  1  0
  4  5  1  0
  5  6  1  0
  6  7  2  0
  7  8  1  0
  8  9  2  0
  9 10  1  0
  9 11  1  0
 11 12  2  0
  2 13  1  0
 13 14  1  0
 14 15  1  0
 15 16  2  0
 16 17  1  0
 17 18  2  0
 17 19  1  0
 19 20  1  0
 12  6  1  0
 19 13  2  0
  4 21  1  0
  4 22  1  0
  5 23  1  0
  5 24  1  0
  7 25  1  0
  8 26  1  0
 10 27  1  0
 11 28  1  0
 12 29  1  0
 15 30  1  0
 16 31  1  0
M  CHG  3   3  -1  14  -1  20  -1
M  END
>  <UniqueID>  (62) 
58

>  <SMILES>  (62) 
O=C([N-]CCc1ccc(O)cc1)c1[n-]ccc(=O)c1[O-]

>  <Energy>  (62) 
32.63198809146883

>  <Genealogy>  (62) 
O=C([N-]CCc1ccc(O)cc1)c1[n-]ccc(=O)c1[O-] (protonated)
O=C([N-]CCc1ccc(O)cc1)c1[n-]ccc(=O)c1[O-] (3D coordinates assigned)
O=C([N-]CCc1ccc(O)cc1)c1[n-]ccc(=O)c1[O-] (optimized conformer: 32.63198809146883 kcal/mol)

>  <smiles>  (62) 
O=C(NCCc1ccc(O)cc1)c1[nH]ccc(=O)c1O

>  <score_type>  (62) 
oracle

>  <origin>  (62) 
adg

>  <m_score__min__energy>  (62) 
-13.35

>  <m_primary>  (62) 
energy

$$$$
62:0
     RDKit          3D

 53 55  0  0  0  0  0  0  0  0999 V2000
   56.5700   29.9590   43.0350 C   0  0  0  0  0  0  0  0  0  0  0  0
   56.2340   29.9040   44.4940 C   0  0  0  0  0  0  0  0  0  0  0  0
   55.1700   29.3360   44.8540 O   0  0  0  0  0  0  0  0  0  0  0  0
   57.1060   30.4420   45.4970 N   0  0  0  0  0  0  0  0  0  0  0  0
   57.7230   31.7400   45.4890 C   0  0  0  0  0  0  0  0  0  0  0  0
   57.3930   32.6870   44.5030 C   0  0  0  0  0  0  0  0  0  0  0  0
   57.9810   33.9530   44.5140 C   0  0  0  0  0  0  0  0  0  0  0  0
   58.8910   34.2940   45.5130 C   0  0  0  0  0  0  0  0  0  0  0  0
   59.2070   33.3740   46.5150 C   0  0  0  0  0  0  0  0  0  0  0  0
   58.6200   32.0960   46.5210 C   0  0  0  0  0  0  0  0  0  0  0  0
   58.9620   31.1250   47.6320 C   0  0  0  0  0  0  0  0  0  0  0  0
   60.3950   30.7820   47.6560 N   0  0  0  0  0  0  0  0  0  0  0  0
   60.8290   30.0540   46.4540 C   0  0  0  0  0  0  0  0  0  0  0  0
   59.9580   28.8500   46.2110 C   0  0  0  0  0  0  0  0  0  0  0  0
   59.6020   27.9990   47.2670 C   0  0  0  0  0  0  0  0  0  0  0  0
   58.8050   26.8760   47.0320 C   0  0  0  0  0  0  0  0  0  0  0  0
   58.3460   26.5830   45.7350 C   0  0  0  0  0  0  0  0  0  0  0  0
   57.5260   25.4180   45.4920 N   0  0  0  0  0  0  0  0  0  0  0  0
   56.1050   25.4260   45.8620 C   0  0  0  0  0  0  0  0  0  0  0  0
   55.5810   23.9950   46.0080 C   0  0  0  0  0  0  0  0  0  0  0  0
   55.7800   23.2180   44.7650 N   0  0  0  0  0  0  0  0  0  0  0  0
   55.5230   21.7910   45.0130 C   0  0  0  0  0  0  0  0  0  0  0  0
   57.0980   23.4280   44.1050 C   0  0  0  0  0  0  0  0  0  0  0  0
   58.1180   24.1770   44.9750 C   0  0  0  0  0  0  0  0  0  0  0  0
   58.7060   27.4410   44.6790 C   0  0  0  0  0  0  0  0  0  0  0  0
   59.5030   28.5630   44.9150 C   0  0  0  0  0  0  0  0  0  0  0  0
   57.6489   30.1356   42.9136 H   0  0  0  0  0  0  0  0  0  0  0  0
   56.2990   29.0045   42.5601 H   0  0  0  0  0  0  0  0  0  0  0  0
   56.0088   30.7772   42.5601 H   0  0  0  0  0  0  0  0  0  0  0  0
   56.6669   32.4284   43.7182 H   0  0  0  0  0  0  0  0  0  0  0  0
   57.7254   34.6834   43.7322 H   0  0  0  0  0  0  0  0  0  0  0  0
   59.3607   35.2887   45.5122 H   0  0  0  0  0  0  0  0  0  0  0  0
   59.9202   33.6510   47.3053 H   0  0  0  0  0  0  0  0  0  0  0  0
   58.6916   31.5812   48.5957 H   0  0  0  0  0  0  0  0  0  0  0  0
   58.3978   30.1978   47.4530 H   0  0  0  0  0  0  0  0  0  0  0  0
   60.9610   31.6580   47.7350 H   0  0  0  0  0  0  0  0  0  0  0  0
   60.7667   30.7249   45.5845 H   0  0  0  0  0  0  0  0  0  0  0  0
   61.8644   29.7142   46.6038 H   0  0  0  0  0  0  0  0  0  0  0  0
   59.9524   28.2170   48.2867 H   0  0  0  0  0  0  0  0  0  0  0  0
   58.5340   26.2151   47.8685 H   0  0  0  0  0  0  0  0  0  0  0  0
   55.9829   25.9556   46.8184 H   0  0  0  0  0  0  0  0  0  0  0  0
   55.5343   25.9349   45.0712 H   0  0  0  0  0  0  0  0  0  0  0  0
   56.1183   23.4992   46.8299 H   0  0  0  0  0  0  0  0  0  0  0  0
   54.5023   24.0411   46.2186 H   0  0  0  0  0  0  0  0  0  0  0  0
   55.4899   21.6074   46.0971 H   0  0  0  0  0  0  0  0  0  0  0  0
   54.5595   21.5085   44.5637 H   0  0  0  0  0  0  0  0  0  0  0  0
   56.3274   21.1901   44.5637 H   0  0  0  0  0  0  0  0  0  0  0  0
   57.5177   22.4440   43.8490 H   0  0  0  0  0  0  0  0  0  0  0  0
   56.9149   24.0530   43.2185 H   0  0  0  0  0  0  0  0  0  0  0  0
   58.4160   23.5371   45.8186 H   0  0  0  0  0  0  0  0  0  0  0  0
   58.9985   24.4254   44.3642 H   0  0  0  0  0  0  0  0  0  0  0  0
   58.3563   27.2257   43.6585 H   0  0  0  0  0  0  0  0  0  0  0  0
   59.7757   29.2256   44.0803 H   0  0  0  0  0  0  0  0  0  0  0  0
  1  2  1  0
  2  3  2  0
  2  4  1  0
  4  5  1  0
  5  6  2  0
  6  7  1  0
  7  8  2  0
  8  9  1  0
  9 10  2  0
 10 11  1  0
 11 12  1  0
 12 13  1  0
 13 14  1  0
 14 15  2  0
 15 16  1  0
 16 17  2  0
 17 18  1  0
 18 19  1  0
 19 20  1  0
 20 21  1  0
 21 22  1  0
 21 23  1  0
 23 24  1  0
 17 25  1  0
 25 26  2  0
 10  5  1  0
 26 14  1  0
 24 18  1  0
  1 27  1  0
  1 28  1  0
  1 29  1  0
  6 30  1  0
  7 31  1  0
  8 32  1  0
  9 33  1  0
 11 34  1  0
 11 35  1  0
 12 36  1  0
 13 37  1  0
 13 38  1  0
 15 39  1  0
 16 40  1  0
 19 41  1  0
 19 42  1  0
 20 43  1  0
 20 44  1  0
 22 45  1  0
 22 46  1  0
 22 47  1  0
 23 48  1  0
 23 49  1  0
 24 50  1  0
 24 51  1  0
 25 52  1  0
 26 53  1  0
M  CHG  1   4  -1
M  END
>  <UniqueID>  (63) 
59

>  <SMILES>  (63) 
CC(=O)[N-]c1ccccc1CNCc1ccc(N2CCN(C)CC2)cc1

>  <Energy>  (63) 
67.08128861280403

>  <Genealogy>  (63) 
CC(=O)[N-]c1ccccc1CNCc1ccc(N2CCN(C)CC2)cc1 (protonated)
CC(=O)[N-]c1ccccc1CNCc1ccc(N2CCN(C)CC2)cc1 (3D coordinates assigned)
CC(=O)[N-]c1ccccc1CNCc1ccc(N2CCN(C)CC2)cc1 (nonaromatic ring conformer: 67.08128861280403 kcal/mol)

>  <smiles>  (63) 
CC(=O)Nc1ccccc1CNCc1ccc(N2CCN(C)CC2)cc1

>  <score_type>  (63) 
oracle

>  <origin>  (63) 
adg

>  <m_score__min__energy>  (63) 
-10.279999999999999

>  <m_primary>  (63) 
energy

$$$$
63:0
     RDKit          3D

 31 32  0  0  0  0  0  0  0  0999 V2000
   58.9670   25.8910   46.3070 C   0  0  0  0  0  0  0  0  0  0  0  0
   57.9650   26.6120   46.8060 C   0  0  0  0  0  0  0  0  0  0  0  0
   57.4040   27.8050   46.1220 C   0  0  0  0  0  0  0  0  0  0  0  0
   56.1080   27.8170   45.5910 C   0  0  0  0  0  0  0  0  0  0  0  0
   55.2690   26.7130   45.7060 O   0  0  0  0  0  0  0  0  0  0  0  0
   55.6450   28.9280   44.9770 N   0  0  0  0  0  0  0  0  0  0  0  0
   56.3900   30.0540   44.8720 C   0  0  0  0  0  0  0  0  0  0  0  0
   55.8950   31.0450   44.2720 O   0  0  0  0  0  0  0  0  0  0  0  0
   57.6580   30.1070   45.4100 N   0  0  0  0  0  0  0  0  0  0  0  0
   58.4780   31.3490   45.3250 C   0  0  0  0  0  0  0  0  0  0  0  0
   58.2770   32.2570   46.5580 C   0  0  0  0  0  0  0  0  0  0  0  0
   59.2380   33.4630   46.5320 C   0  0  0  0  0  0  0  0  0  0  0  0
   59.5420   33.9800   45.1090 C   0  0  0  0  0  0  0  0  0  0  0  0
   58.4290   33.6290   44.1160 C   0  0  0  0  0  0  0  0  0  0  0  0
   58.2510   32.1040   43.9850 C   0  0  0  0  0  0  0  0  0  0  0  0
   58.1640   28.9870   46.0340 C   0  0  0  0  0  0  0  0  0  0  0  0
   59.3260   29.0000   46.5290 O   0  0  0  0  0  0  0  0  0  0  0  0
   59.3426   25.0161   46.8579 H   0  0  0  0  0  0  0  0  0  0  0  0
   59.4192   26.1703   45.3439 H   0  0  0  0  0  0  0  0  0  0  0  0
   57.5320   26.3096   47.7709 H   0  0  0  0  0  0  0  0  0  0  0  0
   59.5342   31.0417   45.3333 H   0  0  0  0  0  0  0  0  0  0  0  0
   57.2406   32.6255   46.5659 H   0  0  0  0  0  0  0  0  0  0  0  0
   58.4882   31.6657   47.4612 H   0  0  0  0  0  0  0  0  0  0  0  0
   58.7845   34.2817   47.1100 H   0  0  0  0  0  0  0  0  0  0  0  0
   60.1918   33.1251   46.9633 H   0  0  0  0  0  0  0  0  0  0  0  0
   59.6523   35.0738   45.1455 H   0  0  0  0  0  0  0  0  0  0  0  0
   60.4675   33.4958   44.7642 H   0  0  0  0  0  0  0  0  0  0  0  0
   57.4845   34.0705   44.4667 H   0  0  0  0  0  0  0  0  0  0  0  0
   58.7061   34.0306   43.1301 H   0  0  0  0  0  0  0  0  0  0  0  0
   57.2281   31.8991   43.6360 H   0  0  0  0  0  0  0  0  0  0  0  0
   59.0076   31.7443   43.2722 H   0  0  0  0  0  0  0  0  0  0  0  0
  1  2  2  0
  2  3  1  0
  3  4  2  0
  4  5  1  0
  4  6  1  0
  6  7  1  0
  7  8  2  0
  7  9  1  0
  9 10  1  0
 10 11  1  0
 11 12  1  0
 12 13  1  0
 13 14  1  0
 14 15  1  0
  9 16  1  0
 16 17  2  0
 16  3  1  0
 15 10  1  0
  1 18  1  0
  1 19  1  0
  2 20  1  0
 10 21  1  0
 11 22  1  0
 11 23  1  0
 12 24  1  0
 12 25  1  0
 13 26  1  0
 13 27  1  0
 14 28  1  0
 14 29  1  0
 15 30  1  0
 15 31  1  0
M  CHG  2   5  -1   6  -1
M  END
>  <UniqueID>  (64) 
60

>  <SMILES>  (64) 
C=Cc1c([O-])[n-]c(=O)n(C2CCCCC2)c1=O

>  <Energy>  (64) 
45.79299927732277

>  <Genealogy>  (64) 
C=Cc1c([O-])[n-]c(=O)n(C2CCCCC2)c1=O (protonated)
C=Cc1c([O-])[n-]c(=O)n(C2CCCCC2)c1=O (3D coordinates assigned)
C=Cc1c([O-])[n-]c(=O)n(C2CCCCC2)c1=O (nonaromatic ring conformer: 45.79299927732277 kcal/mol)

>  <smiles>  (64) 
C=Cc1c(O)[nH]c(=O)n(C2CCCCC2)c1=O

>  <score_type>  (64) 
oracle

>  <origin>  (64) 
adg

>  <m_score__min__energy>  (64) 
-11.01

>  <m_primary>  (64) 
energy

$$$$
64:0
     RDKit          3D

 50 53  0  0  0  0  0  0  0  0999 V2000
   55.1530   29.3250   44.7280 N   0  0  0  0  0  0  0  0  0  0  0  0
   56.1820   29.4430   43.7490 C   0  0  0  0  0  0  0  0  0  0  0  0
   56.0160   30.1950   42.7540 O   0  0  0  0  0  0  0  0  0  0  0  0
   57.4400   28.6460   43.8890 C   0  0  0  0  0  0  0  0  0  0  0  0
   57.9960   28.7820   45.2700 C   0  0  0  0  0  0  0  0  0  0  0  0
   57.3920   29.4810   46.2500 N   0  0  0  0  0  0  0  0  0  0  0  0
   58.1570   29.3270   47.2860 O   0  0  0  0  0  0  0  0  0  0  0  0
   59.1760   28.5670   46.9700 C   0  0  0  0  0  0  0  0  0  0  0  0
   60.2670   28.1890   47.9200 C   0  0  0  0  0  0  0  0  0  0  0  0
   60.8100   29.4140   48.6040 C   0  0  0  0  0  0  0  0  0  0  0  0
   61.5100   29.3000   49.8160 C   0  0  0  0  0  0  0  0  0  0  0  0
   62.0400   30.4350   50.4310 C   0  0  0  0  0  0  0  0  0  0  0  0
   61.8820   31.6920   49.8410 C   0  0  0  0  0  0  0  0  0  0  0  0
   62.4120   32.7850   50.4430 F   0  0  0  0  0  0  0  0  0  0  0  0
   61.1910   31.8240   48.6290 C   0  0  0  0  0  0  0  0  0  0  0  0
   61.0900   33.0990   48.0510 O   0  0  0  0  0  0  0  0  0  0  0  0
   60.0510   33.5400   47.2170 C   0  0  0  0  0  0  0  0  0  0  0  0
   60.3050   34.3760   46.1150 C   0  0  0  0  0  0  0  0  0  0  0  0
   59.2580   34.8020   45.2960 C   0  0  0  0  0  0  0  0  0  0  0  0
   57.9550   34.3790   45.5520 C   0  0  0  0  0  0  0  0  0  0  0  0
   57.6920   33.5270   46.6270 C   0  0  0  0  0  0  0  0  0  0  0  0
   58.7350   33.1040   47.4710 C   0  0  0  0  0  0  0  0  0  0  0  0
   58.4770   32.2010   48.5630 N   0  0  0  0  0  0  0  0  0  0  0  0
   58.5530   32.5840   49.9450 C   0  0  0  0  0  0  0  0  0  0  0  0
   59.2500   33.5840   50.2790 O   0  0  0  0  0  0  0  0  0  0  0  0
   57.8890   31.7770   50.9990 C   0  0  0  0  0  0  0  0  0  0  0  0
   57.3250   32.4200   52.1140 C   0  0  0  0  0  0  0  0  0  0  0  0
   56.6950   31.6750   53.1120 C   0  0  0  0  0  0  0  0  0  0  0  0
   56.6210   30.2900   52.9890 C   0  0  0  0  0  0  0  0  0  0  0  0
   57.1520   29.6750   51.8990 N   0  0  0  0  0  0  0  0  0  0  0  0
   57.7740   30.3720   50.9100 C   0  0  0  0  0  0  0  0  0  0  0  0
   58.2200   29.7450   49.9130 O   0  0  0  0  0  0  0  0  0  0  0  0
   60.6700   30.6760   48.0030 C   0  0  0  0  0  0  0  0  0  0  0  0
   59.1290   28.1760   45.6820 N   0  0  0  0  0  0  0  0  0  0  0  0
   55.3420   28.8780   45.6520 H   0  0  0  0  0  0  0  0  0  0  0  0
   57.2212   27.5866   43.6897 H   0  0  0  0  0  0  0  0  0  0  0  0
   58.1813   29.0225   43.1688 H   0  0  0  0  0  0  0  0  0  0  0  0
   59.8665   27.4982   48.6766 H   0  0  0  0  0  0  0  0  0  0  0  0
   61.0784   27.7028   47.3585 H   0  0  0  0  0  0  0  0  0  0  0  0
   61.6410   28.3124   50.2823 H   0  0  0  0  0  0  0  0  0  0  0  0
   62.5835   30.3401   51.3826 H   0  0  0  0  0  0  0  0  0  0  0  0
   61.3346   34.6960   45.8972 H   0  0  0  0  0  0  0  0  0  0  0  0
   59.4615   35.4722   44.4478 H   0  0  0  0  0  0  0  0  0  0  0  0
   57.1316   34.7170   44.9057 H   0  0  0  0  0  0  0  0  0  0  0  0
   56.6636   33.1848   46.8148 H   0  0  0  0  0  0  0  0  0  0  0  0
   58.3170   31.1910   48.3440 H   0  0  0  0  0  0  0  0  0  0  0  0
   57.3803   33.5152   52.2006 H   0  0  0  0  0  0  0  0  0  0  0  0
   56.2605   32.1778   53.9886 H   0  0  0  0  0  0  0  0  0  0  0  0
   56.1329   29.6935   53.7738 H   0  0  0  0  0  0  0  0  0  0  0  0
   60.1503   30.7675   47.0378 H   0  0  0  0  0  0  0  0  0  0  0  0
  1  2  1  0
  2  3  2  0
  2  4  1  0
  4  5  1  0
  5  6  2  0
  6  7  1  0
  7  8  1  0
  8  9  1  0
  9 10  1  0
 10 11  2  0
 11 12  1  0
 12 13  2  0
 13 14  1  0
 13 15  1  0
 15 16  1  0
 16 17  1  0
 17 18  2  0
 18 19  1  0
 19 20  2  0
 20 21  1  0
 21 22  2  0
 22 23  1  0
 23 24  1  0
 24 25  2  0
 24 26  1  0
 26 27  2  0
 27 28  1  0
 28 29  2  0
 29 30  1  0
 30 31  1  0
 31 32  2  0
 15 33  2  0
  8 34  2  0
 34  5  1  0
 33 10  1  0
 22 17  1  0
 31 26  1  0
  1 35  1  0
  4 36  1  0
  4 37  1  0
  9 38  1  0
  9 39  1  0
 11 40  1  0
 12 41  1  0
 18 42  1  0
 19 43  1  0
 20 44  1  0
 21 45  1  0
 23 46  1  0
 27 47  1  0
 28 48  1  0
 29 49  1  0
 33 50  1  0
M  CHG  2   1  -1  30  -1
M  END
>  <UniqueID>  (65) 
61

>  <SMILES>  (65) 
[NH-]C(=O)Cc1noc(Cc2ccc(F)c(Oc3ccccc3NC(=O)c3ccc[n-]c3=O)c2)n1

>  <Energy>  (65) 
98.48606820166353

>  <Genealogy>  (65) 
[NH-]C(=O)Cc1noc(Cc2ccc(F)c(Oc3ccccc3NC(=O)c3ccc[n-]c3=O)c2)n1 (protonated)
[NH-]C(=O)Cc1noc(Cc2ccc(F)c(Oc3ccccc3NC(=O)c3ccc[n-]c3=O)c2)n1 (3D coordinates assigned)
[NH-]C(=O)Cc1noc(Cc2ccc(F)c(Oc3ccccc3NC(=O)c3ccc[n-]c3=O)c2)n1 (optimized conformer: 98.48606820166353 kcal/mol)

>  <smiles>  (65) 
NC(=O)Cc1noc(Cc2ccc(F)c(Oc3ccccc3NC(=O)c3ccc[nH]c3=O)c2)n1

>  <score_type>  (65) 
oracle

>  <origin>  (65) 
adg

>  <m_score__min__energy>  (65) 
-15.789999999999999

>  <m_primary>  (65) 
energy

$$$$
65:0
     RDKit          3D

 68 72  0  0  0  0  0  0  0  0999 V2000
   56.9740   30.3450   55.3210 C   0  0  0  0  0  0  0  0  0  0  0  0
   56.4520   31.1360   54.2570 O   0  0  0  0  0  0  0  0  0  0  0  0
   57.1950   31.5590   53.1440 C   0  0  0  0  0  0  0  0  0  0  0  0
   57.8920   32.7840   53.1350 C   0  0  0  0  0  0  0  0  0  0  0  0
   58.6420   33.1610   52.0220 C   0  0  0  0  0  0  0  0  0  0  0  0
   58.7270   32.3200   50.9040 C   0  0  0  0  0  0  0  0  0  0  0  0
   59.5470   32.6740   49.7730 N   0  0  0  0  0  0  0  0  0  0  0  0
   58.9880   32.6620   48.5610 N   0  0  0  0  0  0  0  0  0  0  0  0
   59.6690   32.9540   47.4210 C   0  0  0  0  0  0  0  0  0  0  0  0
   58.8950   32.9660   46.1560 C   0  0  0  0  0  0  0  0  0  0  0  0
   59.1750   33.7940   45.2460 O   0  0  0  0  0  0  0  0  0  0  0  0
   57.7750   32.0840   45.9950 N   0  0  0  0  0  0  0  0  0  0  0  0
   57.0110   32.0480   44.7490 C   0  0  0  0  0  0  0  0  0  0  0  0
   56.6660   30.6400   44.3780 C   0  0  0  0  0  0  0  0  0  0  0  0
   55.5050   30.3750   43.9580 O   0  0  0  0  0  0  0  0  0  0  0  0
   57.6560   29.6130   44.5000 N   0  0  0  0  0  0  0  0  0  0  0  0
   58.3860   29.2830   45.6900 C   0  0  0  0  0  0  0  0  0  0  0  0
   57.8070   28.5280   46.7290 C   0  0  0  0  0  0  0  0  0  0  0  0
   58.5390   28.2560   47.8900 C   0  0  0  0  0  0  0  0  0  0  0  0
   59.8590   28.7170   48.0280 C   0  0  0  0  0  0  0  0  0  0  0  0
   60.6090   28.4390   49.2290 N   0  0  0  0  0  0  0  0  0  0  0  0
   61.1610   29.5760   49.9830 C   0  0  0  0  0  0  0  0  0  0  0  0
   61.8930   29.1150   51.2380 C   0  0  0  0  0  0  0  0  0  0  0  0
   61.1360   28.1090   51.8690 O   0  0  0  0  0  0  0  0  0  0  0  0
   61.2610   26.9090   51.1300 C   0  0  0  0  0  0  0  0  0  0  0  0
   60.7600   27.0410   49.6730 C   0  0  0  0  0  0  0  0  0  0  0  0
   60.4220   29.4870   46.9980 C   0  0  0  0  0  0  0  0  0  0  0  0
   59.6860   29.7820   45.8460 C   0  0  0  0  0  0  0  0  0  0  0  0
   61.0460   33.2670   47.5080 C   0  0  0  0  0  0  0  0  0  0  0  0
   61.8600   33.4880   46.3720 C   0  0  0  0  0  0  0  0  0  0  0  0
   63.2120   33.8180   46.5140 C   0  0  0  0  0  0  0  0  0  0  0  0
   63.7820   33.9070   47.7840 C   0  0  0  0  0  0  0  0  0  0  0  0
   63.0110   33.6450   48.9160 C   0  0  0  0  0  0  0  0  0  0  0  0
   61.6450   33.3100   48.7920 C   0  0  0  0  0  0  0  0  0  0  0  0
   60.8740   32.9840   49.9210 C   0  0  0  0  0  0  0  0  0  0  0  0
   61.4160   32.9440   51.0620 O   0  0  0  0  0  0  0  0  0  0  0  0
   58.0030   31.1160   50.8950 C   0  0  0  0  0  0  0  0  0  0  0  0
   57.2430   30.7240   52.0150 C   0  0  0  0  0  0  0  0  0  0  0  0
   56.5400   29.5030   52.0540 O   0  0  0  0  0  0  0  0  0  0  0  0
   55.1640   29.3680   52.4060 C   0  0  0  0  0  0  0  0  0  0  0  0
   56.6818   30.7878   56.2846 H   0  0  0  0  0  0  0  0  0  0  0  0
   56.5720   29.3236   55.2499 H   0  0  0  0  0  0  0  0  0  0  0  0
   58.0712   30.3130   55.2499 H   0  0  0  0  0  0  0  0  0  0  0  0
   57.8439   33.4467   54.0116 H   0  0  0  0  0  0  0  0  0  0  0  0
   59.1709   34.1255   52.0212 H   0  0  0  0  0  0  0  0  0  0  0  0
   57.5830   31.3830   46.7460 H   0  0  0  0  0  0  0  0  0  0  0  0
   56.0832   32.6247   44.8780 H   0  0  0  0  0  0  0  0  0  0  0  0
   57.6242   32.4840   43.9466 H   0  0  0  0  0  0  0  0  0  0  0  0
   56.7783   28.1519   46.6274 H   0  0  0  0  0  0  0  0  0  0  0  0
   58.0767   27.6759   48.7022 H   0  0  0  0  0  0  0  0  0  0  0  0
   61.8658   30.1227   49.3393 H   0  0  0  0  0  0  0  0  0  0  0  0
   60.3260   30.2230   50.2899 H   0  0  0  0  0  0  0  0  0  0  0  0
   62.8802   28.7154   50.9629 H   0  0  0  0  0  0  0  0  0  0  0  0
   62.0249   29.9650   51.9237 H   0  0  0  0  0  0  0  0  0  0  0  0
   62.3217   26.6181   51.1108 H   0  0  0  0  0  0  0  0  0  0  0  0
   60.6360   26.1513   51.6252 H   0  0  0  0  0  0  0  0  0  0  0  0
   61.4811   26.5407   49.0099 H   0  0  0  0  0  0  0  0  0  0  0  0
   59.7634   26.5775   49.6295 H   0  0  0  0  0  0  0  0  0  0  0  0
   61.4514   29.8617   47.0979 H   0  0  0  0  0  0  0  0  0  0  0  0
   60.1298   30.4088   45.0585 H   0  0  0  0  0  0  0  0  0  0  0  0
   61.4248   33.3993   45.3657 H   0  0  0  0  0  0  0  0  0  0  0  0
   63.8271   34.0078   45.6220 H   0  0  0  0  0  0  0  0  0  0  0  0
   64.8409   34.1842   47.8927 H   0  0  0  0  0  0  0  0  0  0  0  0
   63.4708   33.6998   49.9138 H   0  0  0  0  0  0  0  0  0  0  0  0
   58.0297   30.4721   50.0036 H   0  0  0  0  0  0  0  0  0  0  0  0
   55.0650   29.3583   53.5015 H   0  0  0  0  0  0  0  0  0  0  0  0
   54.5953   30.2147   51.9939 H   0  0  0  0  0  0  0  0  0  0  0  0
   54.7707   28.4270   51.9939 H   0  0  0  0  0  0  0  0  0  0  0  0
  1  2  1  0
  2  3  1  0
  3  4  2  0
  4  5  1  0
  5  6  2  0
  6  7  1  0
  7  8  1  0
  8  9  2  0
  9 10  1  0
 10 11  2  0
 10 12  1  0
 12 13  1  0
 13 14  1  0
 14 15  2  0
 14 16  1  0
 16 17  1  0
 17 18  2  0
 18 19  1  0
 19 20  2  0
 20 21  1  0
 21 22  1  0
 22 23  1  0
 23 24  1  0
 24 25  1  0
 25 26  1  0
 20 27  1  0
 27 28  2  0
  9 29  1  0
 29 30  2  0
 30 31  1  0
 31 32  2  0
 32 33  1  0
 33 34  2  0
 34 35  1  0
 35 36  2  0
  6 37  1  0
 37 38  2  0
 38 39  1  0
 39 40  1  0
 38  3  1  0
 35  7  1  0
 28 17  1  0
 34 29  1  0
 26 21  1  0
  1 41  1  0
  1 42  1  0
  1 43  1  0
  4 44  1  0
  5 45  1  0
 12 46  1  0
 13 47  1  0
 13 48  1  0
 18 49  1  0
 19 50  1  0
 22 51  1  0
 22 52  1  0
 23 53  1  0
 23 54  1  0
 25 55  1  0
 25 56  1  0
 26 57  1  0
 26 58  1  0
 27 59  1  0
 28 60  1  0
 30 61  1  0
 31 62  1  0
 32 63  1  0
 33 64  1  0
 37 65  1  0
 40 66  1  0
 40 67  1  0
 40 68  1  0
M  CHG  1  16  -1
M  END
>  <UniqueID>  (66) 
62

>  <SMILES>  (66) 
COc1ccc(-n2nc(C(=O)NCC(=O)[N-]c3ccc(N4CCOCC4)cc3)c3ccccc3c2=O)cc1OC

>  <Energy>  (66) 
101.68150330495902

>  <Genealogy>  (66) 
COc1ccc(-n2nc(C(=O)NCC(=O)[N-]c3ccc(N4CCOCC4)cc3)c3ccccc3c2=O)cc1OC (protonated)
COc1ccc(-n2nc(C(=O)NCC(=O)[N-]c3ccc(N4CCOCC4)cc3)c3ccccc3c2=O)cc1OC (3D coordinates assigned)
COc1ccc(-n2nc(C(=O)NCC(=O)[N-]c3ccc(N4CCOCC4)cc3)c3ccccc3c2=O)cc1OC (nonaromatic ring conformer: 101.68150330495902 kcal/mol)

>  <smiles>  (66) 
COc1ccc(-n2nc(C(=O)NCC(=O)Nc3ccc(N4CCOCC4)cc3)c3ccccc3c2=O)cc1OC

>  <score_type>  (66) 
oracle

>  <origin>  (66) 
adg

>  <m_score__min__energy>  (66) 
-10.779999999999999

>  <m_primary>  (66) 
energy

$$$$
66:0
     RDKit          3D

 61 64  0  0  0  0  0  0  0  0999 V2000
   56.9213   29.7541   44.7214 H   0  0  0  0  0  0  0  0  0  0  0  0
   57.0530   28.8260   45.2970 C   0  0  0  0  0  0  0  0  0  0  0  0
   56.0580   27.9000   45.3240 N   0  0  0  0  0  0  0  0  0  0  0  0
   56.1700   26.7280   46.0050 C   0  0  0  0  0  0  0  0  0  0  0  0
   55.1580   25.9040   45.9890 N   0  0  0  0  0  0  0  0  0  0  0  0
   55.1940   24.4730   45.8690 C   0  0  0  0  0  0  0  0  0  0  0  0
   54.5960   23.6470   46.8320 C   0  0  0  0  0  0  0  0  0  0  0  0
   54.0435   24.0950   47.6711 H   0  0  0  0  0  0  0  0  0  0  0  0
   54.6990   22.2610   46.7300 C   0  0  0  0  0  0  0  0  0  0  0  0
   54.2077   21.6231   47.4795 H   0  0  0  0  0  0  0  0  0  0  0  0
   55.4230   21.6680   45.6810 C   0  0  0  0  0  0  0  0  0  0  0  0
   55.5500   20.1680   45.6480 C   0  0  0  0  0  0  0  0  0  0  0  0
   55.5828   19.7801   46.6768 H   0  0  0  0  0  0  0  0  0  0  0  0
   54.6850   19.7383   45.1215 H   0  0  0  0  0  0  0  0  0  0  0  0
   56.4749   19.8898   45.1215 H   0  0  0  0  0  0  0  0  0  0  0  0
   56.0280   22.4990   44.7030 C   0  0  0  0  0  0  0  0  0  0  0  0
   56.7800   21.9580   43.5470 C   0  0  0  0  0  0  0  0  0  0  0  0
   56.2010   21.8390   42.4350 O   0  0  0  0  0  0  0  0  0  0  0  0
   58.2040   21.5100   43.6720 C   0  0  0  0  0  0  0  0  0  0  0  0
   58.4700   21.4263   44.7361 H   0  0  0  0  0  0  0  0  0  0  0  0
   58.3243   20.5306   43.1859 H   0  0  0  0  0  0  0  0  0  0  0  0
   58.8634   22.2441   43.1859 H   0  0  0  0  0  0  0  0  0  0  0  0
   55.9320   23.8950   44.8320 C   0  0  0  0  0  0  0  0  0  0  0  0
   56.4453   24.5427   44.1060 H   0  0  0  0  0  0  0  0  0  0  0  0
   57.3510   26.4700   46.7290 C   0  0  0  0  0  0  0  0  0  0  0  0
   57.4553   25.5384   47.3045 H   0  0  0  0  0  0  0  0  0  0  0  0
   58.3870   27.4040   46.7110 C   0  0  0  0  0  0  0  0  0  0  0  0
   59.3190   27.1983   47.2579 H   0  0  0  0  0  0  0  0  0  0  0  0
   58.2460   28.6040   45.9990 C   0  0  0  0  0  0  0  0  0  0  0  0
   59.3490   29.5940   45.9740 C   0  0  0  0  0  0  0  0  0  0  0  0
   60.3900   29.3430   45.3110 O   0  0  0  0  0  0  0  0  0  0  0  0
   59.2510   30.8600   46.6410 N   0  0  0  0  0  0  0  0  0  0  0  0
   58.8800   32.1100   46.0400 C   0  0  0  0  0  0  0  0  0  0  0  0
   57.7560   32.2080   45.2000 C   0  0  0  0  0  0  0  0  0  0  0  0
   57.1662   31.3090   44.9678 H   0  0  0  0  0  0  0  0  0  0  0  0
   57.3850   33.4420   44.6590 C   0  0  0  0  0  0  0  0  0  0  0  0
   56.5131   33.5090   43.9917 H   0  0  0  0  0  0  0  0  0  0  0  0
   58.1190   34.5900   44.9640 C   0  0  0  0  0  0  0  0  0  0  0  0
   57.8266   35.5598   44.5351 H   0  0  0  0  0  0  0  0  0  0  0  0
   59.2250   34.5070   45.8140 C   0  0  0  0  0  0  0  0  0  0  0  0
   59.7968   35.4142   46.0590 H   0  0  0  0  0  0  0  0  0  0  0  0
   59.6090   33.2720   46.3560 C   0  0  0  0  0  0  0  0  0  0  0  0
   60.7480   33.2040   47.2250 N   0  0  0  0  0  0  0  0  0  0  0  0
   62.0900   33.4870   46.7100 C   0  0  0  0  0  0  0  0  0  0  0  0
   62.1372   33.2261   45.6424 H   0  0  0  0  0  0  0  0  0  0  0  0
   62.3154   34.5567   46.8323 H   0  0  0  0  0  0  0  0  0  0  0  0
   63.1120   32.6530   47.4870 C   0  0  0  0  0  0  0  0  0  0  0  0
   62.8951   31.5871   47.3233 H   0  0  0  0  0  0  0  0  0  0  0  0
   64.1129   32.9230   47.1192 H   0  0  0  0  0  0  0  0  0  0  0  0
   63.0780   32.9280   48.9490 N   0  0  0  0  0  0  0  0  0  0  0  0
   63.7650   33.6970   49.1380 H   0  0  0  0  0  0  0  0  0  0  0  0
   63.5510   31.7490   49.6970 C   0  0  0  0  0  0  0  0  0  0  0  0
   63.4727   31.9441   50.7767 H   0  0  0  0  0  0  0  0  0  0  0  0
   62.9330   30.8772   49.4362 H   0  0  0  0  0  0  0  0  0  0  0  0
   64.6002   31.5460   49.4362 H   0  0  0  0  0  0  0  0  0  0  0  0
   61.7560   33.3870   49.4650 C   0  0  0  0  0  0  0  0  0  0  0  0
   61.6436   33.0354   50.5012 H   0  0  0  0  0  0  0  0  0  0  0  0
   61.7416   34.4849   49.3982 H   0  0  0  0  0  0  0  0  0  0  0  0
   60.5710   32.8630   48.6400 C   0  0  0  0  0  0  0  0  0  0  0  0
   60.5103   31.7697   48.7453 H   0  0  0  0  0  0  0  0  0  0  0  0
   59.6445   33.3281   49.0078 H   0  0  0  0  0  0  0  0  0  0  0  0
  1  2  1  0
  2  3  1  0
  3  4  1  0
  4  5  2  0
  5  6  1  0
  6  7  2  0
  7  8  1  0
  7  9  1  0
  9 10  1  0
  9 11  2  0
 11 12  1  0
 12 13  1  0
 12 14  1  0
 12 15  1  0
 11 16  1  0
 16 17  1  0
 17 18  2  0
 17 19  1  0
 19 20  1  0
 19 21  1  0
 19 22  1  0
 16 23  2  0
 23 24  1  0
  4 25  1  0
 25 26  1  0
 25 27  2  0
 27 28  1  0
 27 29  1  0
 29 30  1  0
 30 31  2  0
 30 32  1  0
 32 33  1  0
 33 34  2  0
 34 35  1  0
 34 36  1  0
 36 37  1  0
 36 38  2  0
 38 39  1  0
 38 40  1  0
 40 41  1  0
 40 42  2  0
 42 43  1  0
 43 44  1  0
 44 45  1  0
 44 46  1  0
 44 47  1  0
 47 48  1  0
 47 49  1  0
 47 50  1  0
 50 51  1  0
 50 52  1  0
 52 53  1  0
 52 54  1  0
 52 55  1  0
 50 56  1  0
 56 57  1  0
 56 58  1  0
 56 59  1  0
 59 60  1  0
 59 61  1  0
 29  2  2  0
 42 33  1  0
 59 43  1  0
 23  6  1  0
M  CHG  3   3  -1  32  -1  50   1
M  END
>  <UniqueID>  (67) 
63

>  <SMILES>  (67) 
CC(=O)c1cc(/N=c2\ccc(C(=O)[N-]c3ccccc3N3CC[NH+](C)CC3)c[n-]2)ccc1C

>  <Energy>  (67) 
98.49640134759194

>  <Genealogy>  (67) 
CC(=O)c1cc(N=c2ccc(C(=O)[N-]c3ccccc3N3CC[NH+](C)CC3)c[n-]2)ccc1C (protonated)
CC(=O)c1cc(/N=c2\ccc(C(=O)[N-]c3ccccc3N3CC[NH+](C)CC3)c[n-]2)ccc1C (cis-trans isomerization)
CC(=O)c1cc(/N=c2\ccc(C(=O)[N-]c3ccccc3N3CC[NH+](C)CC3)c[n-]2)ccc1C (3D coordinates assigned)
CC(=O)c1cc(/N=c2\ccc(C(=O)[N-]c3ccccc3N3CC[NH+](C)CC3)c[n-]2)ccc1C (nonaromatic ring conformer: 98.49640134759194 kcal/mol)

>  <smiles>  (67) 
CC(=O)c1cc(N=c2ccc(C(=O)Nc3ccccc3N3CCN(C)CC3)c[nH]2)ccc1C

>  <score_type>  (67) 
oracle

>  <origin>  (67) 
adg

>  <m_score__min__energy>  (67) 
-11.26

>  <m_primary>  (67) 
energy

$$$$
67:0
     RDKit          3D

 47 49  0  0  0  0  0  0  0  0999 V2000
   55.1690   23.6120   46.1360 C   0  0  0  0  0  0  0  0  0  0  0  0
   56.2600   24.6340   46.1620 C   0  0  0  0  0  0  0  0  0  0  0  0
   57.6210   24.4060   46.2650 C   0  0  0  0  0  0  0  0  0  0  0  0
   58.2270   23.1550   46.3450 O   0  0  0  0  0  0  0  0  0  0  0  0
   58.3200   25.5600   46.2800 N   0  0  0  0  0  0  0  0  0  0  0  0
   57.3970   26.5410   46.1910 C   0  0  0  0  0  0  0  0  0  0  0  0
   57.7320   27.9700   46.1780 C   0  0  0  0  0  0  0  0  0  0  0  0
   58.8100   28.3620   46.7060 O   0  0  0  0  0  0  0  0  0  0  0  0
   56.8600   28.8870   45.5840 O   0  0  0  0  0  0  0  0  0  0  0  0
   56.6960   28.9910   44.1740 C   0  0  0  0  0  0  0  0  0  0  0  0
   56.7880   30.4300   43.7590 C   0  0  0  0  0  0  0  0  0  0  0  0
   57.0480   30.7060   42.5570 O   0  0  0  0  0  0  0  0  0  0  0  0
   56.5540   31.5030   44.6800 N   0  0  0  0  0  0  0  0  0  0  0  0
   57.4920   32.0230   45.6340 C   0  0  0  0  0  0  0  0  0  0  0  0
   57.4290   33.3560   46.0750 C   0  0  0  0  0  0  0  0  0  0  0  0
   58.3500   33.8290   47.0140 C   0  0  0  0  0  0  0  0  0  0  0  0
   59.3350   32.9760   47.5310 C   0  0  0  0  0  0  0  0  0  0  0  0
   60.5230   33.5860   48.6840 S   0  0  0  0  0  0  0  0  0  0  0  0
   59.9040   34.6900   49.4940 O   0  0  0  0  0  0  0  0  0  0  0  0
   60.9080   32.4800   49.6270 O   0  0  0  0  0  0  0  0  0  0  0  0
   61.9610   34.1890   47.8840 N   0  0  0  0  0  0  0  0  0  0  0  0
   63.1200   34.1560   48.7840 C   0  0  0  0  0  0  0  0  0  0  0  0
   63.9230   32.9000   48.4830 C   0  0  0  0  0  0  0  0  0  0  0  0
   63.4120   32.3890   47.1520 C   0  0  0  0  0  0  0  0  0  0  0  0
   62.3140   33.3570   46.7300 C   0  0  0  0  0  0  0  0  0  0  0  0
   59.3710   31.6360   47.1210 C   0  0  0  0  0  0  0  0  0  0  0  0
   58.4480   31.1620   46.1840 C   0  0  0  0  0  0  0  0  0  0  0  0
   56.1260   26.0020   46.1200 C   0  0  0  0  0  0  0  0  0  0  0  0
   54.9310   26.7060   46.0270 O   0  0  0  0  0  0  0  0  0  0  0  0
   54.8883   23.3490   47.1666 H   0  0  0  0  0  0  0  0  0  0  0  0
   54.2940   24.0230   45.6112 H   0  0  0  0  0  0  0  0  0  0  0  0
   55.5220   22.7121   45.6112 H   0  0  0  0  0  0  0  0  0  0  0  0
   58.1340   22.5770   47.1710 H   0  0  0  0  0  0  0  0  0  0  0  0
   57.4857   28.4140   43.6705 H   0  0  0  0  0  0  0  0  0  0  0  0
   55.7103   28.5927   43.8915 H   0  0  0  0  0  0  0  0  0  0  0  0
   56.6532   34.0285   45.6803 H   0  0  0  0  0  0  0  0  0  0  0  0
   58.3017   34.8757   47.3489 H   0  0  0  0  0  0  0  0  0  0  0  0
   63.7451   35.0458   48.6181 H   0  0  0  0  0  0  0  0  0  0  0  0
   62.7859   34.1500   49.8320 H   0  0  0  0  0  0  0  0  0  0  0  0
   64.9948   33.1382   48.4153 H   0  0  0  0  0  0  0  0  0  0  0  0
   63.8066   32.1468   49.2762 H   0  0  0  0  0  0  0  0  0  0  0  0
   64.2223   32.3809   46.4081 H   0  0  0  0  0  0  0  0  0  0  0  0
   63.0350   31.3587   47.2315 H   0  0  0  0  0  0  0  0  0  0  0  0
   62.6758   33.9942   45.9096 H   0  0  0  0  0  0  0  0  0  0  0  0
   61.4318   32.7992   46.3827 H   0  0  0  0  0  0  0  0  0  0  0  0
   60.1279   30.9553   47.5378 H   0  0  0  0  0  0  0  0  0  0  0  0
   58.4735   30.1059   45.8773 H   0  0  0  0  0  0  0  0  0  0  0  0
  1  2  1  0
  2  3  2  0
  3  4  1  0
  3  5  1  0
  5  6  1  0
  6  7  1  0
  7  8  2  0
  7  9  1  0
  9 10  1  0
 10 11  1  0
 11 12  2  0
 11 13  1  0
 13 14  1  0
 14 15  2  0
 15 16  1  0
 16 17  2  0
 17 18  1  0
 18 19  2  0
 18 20  2  0
 18 21  1  0
 21 22  1  0
 22 23  1  0
 23 24  1  0
 24 25  1  0
 17 26  1  0
 26 27  2  0
  6 28  2  0
 28 29  1  0
 28  2  1  0
 27 14  1  0
 25 21  1  0
  1 30  1  0
  1 31  1  0
  1 32  1  0
  4 33  1  0
 10 34  1  0
 10 35  1  0
 15 36  1  0
 16 37  1  0
 22 38  1  0
 22 39  1  0
 23 40  1  0
 23 41  1  0
 24 42  1  0
 24 43  1  0
 25 44  1  0
 25 45  1  0
 26 46  1  0
 27 47  1  0
M  CHG  3   5  -1  13  -1  29  -1
M  END
>  <UniqueID>  (68) 
64

>  <SMILES>  (68) 
Cc1c(O)[n-]c(C(=O)OCC(=O)[N-]c2ccc(S(=O)(=O)N3CCCC3)cc2)c1[O-]

>  <Energy>  (68) 
75.14211098293458

>  <Genealogy>  (68) 
Cc1c(O)[n-]c(C(=O)OCC(=O)[N-]c2ccc(S(=O)(=O)N3CCCC3)cc2)c1[O-] (protonated)
Cc1c(O)[n-]c(C(=O)OCC(=O)[N-]c2ccc(S(=O)(=O)N3CCCC3)cc2)c1[O-] (3D coordinates assigned)
Cc1c(O)[n-]c(C(=O)OCC(=O)[N-]c2ccc(S(=O)(=O)N3CCCC3)cc2)c1[O-] (nonaromatic ring conformer: 75.14211098293458 kcal/mol)

>  <smiles>  (68) 
Cc1c(O)[nH]c(C(=O)OCC(=O)Nc2ccc(S(=O)(=O)N3CCCC3)cc2)c1O

>  <score_type>  (68) 
oracle

>  <origin>  (68) 
adg

>  <m_score__min__energy>  (68) 
-15.140000000000001

>  <m_primary>  (68) 
energy

$$$$
68:0
     RDKit          3D

 58 61  0  0  0  0  0  0  0  0999 V2000
   68.6090   34.5530   50.8230 C   0  0  0  0  0  0  0  0  0  0  0  0
   68.3190   33.1600   50.7730 O   0  0  0  0  0  0  0  0  0  0  0  0
   67.0210   32.6230   50.7480 C   0  0  0  0  0  0  0  0  0  0  0  0
   66.6060   31.6120   51.6330 C   0  0  0  0  0  0  0  0  0  0  0  0
   65.3180   31.0810   51.5380 C   0  0  0  0  0  0  0  0  0  0  0  0
   64.4360   31.5220   50.5430 C   0  0  0  0  0  0  0  0  0  0  0  0
   63.1940   30.8240   50.3510 N   0  0  0  0  0  0  0  0  0  0  0  0
   61.9290   31.4870   50.5140 C   0  0  0  0  0  0  0  0  0  0  0  0
   61.8680   32.6030   51.1000 O   0  0  0  0  0  0  0  0  0  0  0  0
   60.6600   30.8430   50.0230 C   0  0  0  0  0  0  0  0  0  0  0  0
   60.2350   31.3640   48.6310 C   0  0  0  0  0  0  0  0  0  0  0  0
   59.5380   30.3290   47.7280 C   0  0  0  0  0  0  0  0  0  0  0  0
   59.1290   30.8640   46.4190 N   0  0  0  0  0  0  0  0  0  0  0  0
   58.8450   30.1530   45.2920 C   0  0  0  0  0  0  0  0  0  0  0  0
   58.8350   28.3560   45.2040 S   0  0  0  0  0  0  0  0  0  0  0  0
   57.7390   28.1100   46.6350 C   0  0  0  0  0  0  0  0  0  0  0  0
   57.0510   26.7930   46.4560 C   0  0  0  0  0  0  0  0  0  0  0  0
   57.6440   25.6170   46.9320 C   0  0  0  0  0  0  0  0  0  0  0  0
   56.8970   24.4380   46.9200 C   0  0  0  0  0  0  0  0  0  0  0  0
   57.4060   23.3580   47.3240 O   0  0  0  0  0  0  0  0  0  0  0  0
   55.6170   24.4550   46.4600 N   0  0  0  0  0  0  0  0  0  0  0  0
   55.0570   25.6040   45.9970 C   0  0  0  0  0  0  0  0  0  0  0  0
   53.8590   25.6120   45.6060 O   0  0  0  0  0  0  0  0  0  0  0  0
   55.7700   26.7600   45.9960 N   0  0  0  0  0  0  0  0  0  0  0  0
   58.3710   30.9160   44.2750 N   0  0  0  0  0  0  0  0  0  0  0  0
   58.3460   32.1470   44.8040 C   0  0  0  0  0  0  0  0  0  0  0  0
   57.8820   33.3170   44.2040 C   0  0  0  0  0  0  0  0  0  0  0  0
   57.8750   34.4930   44.9750 C   0  0  0  0  0  0  0  0  0  0  0  0
   58.3130   34.4660   46.3160 C   0  0  0  0  0  0  0  0  0  0  0  0
   58.7580   33.2660   46.9010 C   0  0  0  0  0  0  0  0  0  0  0  0
   58.7800   32.1220   46.0990 C   0  0  0  0  0  0  0  0  0  0  0  0
   64.8070   32.5950   49.7100 C   0  0  0  0  0  0  0  0  0  0  0  0
   63.8540   33.1290   48.8250 O   0  0  0  0  0  0  0  0  0  0  0  0
   63.4630   32.5250   47.5950 C   0  0  0  0  0  0  0  0  0  0  0  0
   66.1160   33.1160   49.8000 C   0  0  0  0  0  0  0  0  0  0  0  0
   68.6763   34.8761   51.8723 H   0  0  0  0  0  0  0  0  0  0  0  0
   69.5667   34.7465   50.3177 H   0  0  0  0  0  0  0  0  0  0  0  0
   67.8081   35.1126   50.3177 H   0  0  0  0  0  0  0  0  0  0  0  0
   67.2979   31.2384   52.4022 H   0  0  0  0  0  0  0  0  0  0  0  0
   64.9929   30.3092   52.2512 H   0  0  0  0  0  0  0  0  0  0  0  0
   63.2210   29.9360   49.7990 H   0  0  0  0  0  0  0  0  0  0  0  0
   60.8167   29.7560   49.9606 H   0  0  0  0  0  0  0  0  0  0  0  0
   59.8593   31.0947   50.7341 H   0  0  0  0  0  0  0  0  0  0  0  0
   59.5435   32.2065   48.7796 H   0  0  0  0  0  0  0  0  0  0  0  0
   61.1642   31.6442   48.1132 H   0  0  0  0  0  0  0  0  0  0  0  0
   60.2319   29.4923   47.5595 H   0  0  0  0  0  0  0  0  0  0  0  0
   58.6204   30.0160   48.2477 H   0  0  0  0  0  0  0  0  0  0  0  0
   58.3296   28.1017   47.5629 H   0  0  0  0  0  0  0  0  0  0  0  0
   57.0030   28.9246   46.7028 H   0  0  0  0  0  0  0  0  0  0  0  0
   58.6778   25.6223   47.3078 H   0  0  0  0  0  0  0  0  0  0  0  0
   57.5326   33.3200   43.1610 H   0  0  0  0  0  0  0  0  0  0  0  0
   57.5268   35.4373   44.5311 H   0  0  0  0  0  0  0  0  0  0  0  0
   58.3066   35.3919   46.9099 H   0  0  0  0  0  0  0  0  0  0  0  0
   59.0774   33.2298   47.9530 H   0  0  0  0  0  0  0  0  0  0  0  0
   62.8759   31.6181   47.8022 H   0  0  0  0  0  0  0  0  0  0  0  0
   62.8517   33.2334   47.0167 H   0  0  0  0  0  0  0  0  0  0  0  0
   64.3596   32.2572   47.0167 H   0  0  0  0  0  0  0  0  0  0  0  0
   66.4289   33.9193   49.1168 H   0  0  0  0  0  0  0  0  0  0  0  0
  1  2  1  0
  2  3  1  0
  3  4  2  0
  4  5  1  0
  5  6  2  0
  6  7  1  0
  7  8  1  0
  8  9  2  0
  8 10  1  0
 10 11  1  0
 11 12  1  0
 12 13  1  0
 13 14  1  0
 14 15  1  0
 15 16  1  0
 16 17  1  0
 17 18  2  0
 18 19  1  0
 19 20  2  0
 19 21  1  0
 21 22  1  0
 22 23  2  0
 22 24  1  0
 14 25  2  0
 25 26  1  0
 26 27  2  0
 27 28  1  0
 28 29  2  0
 29 30  1  0
 30 31  2  0
  6 32  1  0
 32 33  1  0
 33 34  1  0
 32 35  2  0
 35  3  1  0
 31 13  1  0
 24 17  1  0
 31 26  1  0
  1 36  1  0
  1 37  1  0
  1 38  1  0
  4 39  1  0
  5 40  1  0
  7 41  1  0
 10 42  1  0
 10 43  1  0
 11 44  1  0
 11 45  1  0
 12 46  1  0
 12 47  1  0
 16 48  1  0
 16 49  1  0
 18 50  1  0
 27 51  1  0
 28 52  1  0
 29 53  1  0
 30 54  1  0
 34 55  1  0
 34 56  1  0
 34 57  1  0
 35 58  1  0
M  CHG  2  21  -1  24  -1
M  END
>  <UniqueID>  (69) 
65

>  <SMILES>  (69) 
COc1ccc(NC(=O)CCCn2c(SCc3cc(=O)[n-]c(=O)[n-]3)nc3ccccc32)c(OC)c1

>  <Energy>  (69) 
99.84007955559206

>  <Genealogy>  (69) 
COc1ccc(NC(=O)CCCn2c(SCc3cc(=O)[n-]c(=O)[n-]3)nc3ccccc32)c(OC)c1 (protonated)
COc1ccc(NC(=O)CCCn2c(SCc3cc(=O)[n-]c(=O)[n-]3)nc3ccccc32)c(OC)c1 (3D coordinates assigned)
COc1ccc(NC(=O)CCCn2c(SCc3cc(=O)[n-]c(=O)[n-]3)nc3ccccc32)c(OC)c1 (optimized conformer: 99.84007955559206 kcal/mol)

>  <smiles>  (69) 
COc1ccc(NC(=O)CCCn2c(SCc3cc(=O)[nH]c(=O)[nH]3)nc3ccccc32)c(OC)c1

>  <score_type>  (69) 
oracle

>  <origin>  (69) 
adg

>  <m_score__min__energy>  (69) 
-12.69

>  <m_primary>  (69) 
energy

$$$$
69:0
     RDKit          3D

 51 53  0  0  0  0  0  0  0  0999 V2000
   51.6890   24.4530   44.7440 C   0  0  0  0  0  0  0  0  0  0  0  0
   53.0670   24.0910   45.2020 C   0  0  0  0  0  0  0  0  0  0  0  0
   53.3960   22.8780   45.2380 O   0  0  0  0  0  0  0  0  0  0  0  0
   54.0080   25.0820   45.6350 N   0  0  0  0  0  0  0  0  0  0  0  0
   55.4370   24.9710   45.6160 C   0  0  0  0  0  0  0  0  0  0  0  0
   56.0370   24.0690   44.7280 C   0  0  0  0  0  0  0  0  0  0  0  0
   57.4280   23.9420   44.6850 C   0  0  0  0  0  0  0  0  0  0  0  0
   58.2320   24.7380   45.5060 C   0  0  0  0  0  0  0  0  0  0  0  0
   57.6480   25.6860   46.3530 C   0  0  0  0  0  0  0  0  0  0  0  0
   58.4870   26.4720   47.2060 N   0  0  0  0  0  0  0  0  0  0  0  0
   59.7700   27.0080   46.8500 C   0  0  0  0  0  0  0  0  0  0  0  0
   60.6850   26.2180   46.4840 O   0  0  0  0  0  0  0  0  0  0  0  0
   60.0050   28.4870   46.7650 C   0  0  0  0  0  0  0  0  0  0  0  0
   60.3050   28.9400   45.0270 S   0  0  0  0  0  0  0  0  0  0  0  0
   58.7180   29.7560   44.8380 C   0  0  0  0  0  0  0  0  0  0  0  0
   58.5750   31.0130   45.3370 N   0  0  0  0  0  0  0  0  0  0  0  0
   57.4130   31.7030   45.1960 C   0  0  0  0  0  0  0  0  0  0  0  0
   57.3110   33.1070   45.6990 C   0  0  0  0  0  0  0  0  0  0  0  0
   58.4470   33.3950   46.6280 C   0  0  0  0  0  0  0  0  0  0  0  0
   58.2430   33.4200   47.8720 O   0  0  0  0  0  0  0  0  0  0  0  0
   59.7700   33.5400   46.0960 N   0  0  0  0  0  0  0  0  0  0  0  0
   61.0020   33.1520   46.7210 C   0  0  0  0  0  0  0  0  0  0  0  0
   62.2010   33.8440   46.4730 C   0  0  0  0  0  0  0  0  0  0  0  0
   63.3970   33.4220   47.0600 C   0  0  0  0  0  0  0  0  0  0  0  0
   63.4110   32.3020   47.8900 C   0  0  0  0  0  0  0  0  0  0  0  0
   62.2280   31.6000   48.1340 C   0  0  0  0  0  0  0  0  0  0  0  0
   61.0270   32.0130   47.5490 C   0  0  0  0  0  0  0  0  0  0  0  0
   59.8700   31.2780   47.8060 O   0  0  0  0  0  0  0  0  0  0  0  0
   56.3710   31.1410   44.5290 N   0  0  0  0  0  0  0  0  0  0  0  0
   56.4590   29.8870   44.0160 C   0  0  0  0  0  0  0  0  0  0  0  0
   55.4710   29.3990   43.4030 O   0  0  0  0  0  0  0  0  0  0  0  0
   57.6460   29.1510   44.1600 C   0  0  0  0  0  0  0  0  0  0  0  0
   57.7690   27.8320   43.5900 C   0  0  0  0  0  0  0  0  0  0  0  0
   57.8710   26.7810   43.1270 N   0  0  0  0  0  0  0  0  0  0  0  0
   56.2490   25.7920   46.4160 C   0  0  0  0  0  0  0  0  0  0  0  0
   51.0444   24.6223   45.6191 H   0  0  0  0  0  0  0  0  0  0  0  0
   51.7331   25.3700   44.1381 H   0  0  0  0  0  0  0  0  0  0  0  0
   51.2767   23.6327   44.1381 H   0  0  0  0  0  0  0  0  0  0  0  0
   55.4105   23.4580   44.0616 H   0  0  0  0  0  0  0  0  0  0  0  0
   57.8915   23.2137   44.0033 H   0  0  0  0  0  0  0  0  0  0  0  0
   59.3253   24.6188   45.4860 H   0  0  0  0  0  0  0  0  0  0  0  0
   59.1201   29.0232   47.1385 H   0  0  0  0  0  0  0  0  0  0  0  0
   60.8774   28.7607   47.3765 H   0  0  0  0  0  0  0  0  0  0  0  0
   57.3490   33.8035   44.8484 H   0  0  0  0  0  0  0  0  0  0  0  0
   56.3601   33.2321   46.2376 H   0  0  0  0  0  0  0  0  0  0  0  0
   62.1974   34.7235   45.8124 H   0  0  0  0  0  0  0  0  0  0  0  0
   64.3285   33.9743   46.8669 H   0  0  0  0  0  0  0  0  0  0  0  0
   64.3527   31.9713   48.3524 H   0  0  0  0  0  0  0  0  0  0  0  0
   62.2414   30.7172   48.7901 H   0  0  0  0  0  0  0  0  0  0  0  0
   58.9940   31.4620   47.3280 H   0  0  0  0  0  0  0  0  0  0  0  0
   55.7862   26.5224   47.0960 H   0  0  0  0  0  0  0  0  0  0  0  0
  1  2  1  0
  2  3  2  0
  2  4  1  0
  4  5  1  0
  5  6  2  0
  6  7  1  0
  7  8  2  0
  8  9  1  0
  9 10  1  0
 10 11  1  0
 11 12  2  0
 11 13  1  0
 13 14  1  0
 14 15  1  0
 15 16  1  0
 16 17  2  0
 17 18  1  0
 18 19  1  0
 19 20  2  0
 19 21  1  0
 21 22  1  0
 22 23  2  0
 23 24  1  0
 24 25  2  0
 25 26  1  0
 26 27  2  0
 27 28  1  0
 17 29  1  0
 29 30  1  0
 30 31  2  0
 30 32  1  0
 32 33  1  0
 33 34  3  0
  9 35  2  0
 35  5  1  0
 32 15  2  0
 27 22  1  0
  1 36  1  0
  1 37  1  0
  1 38  1  0
  6 39  1  0
  7 40  1  0
  8 41  1  0
 13 42  1  0
 13 43  1  0
 18 44  1  0
 18 45  1  0
 23 46  1  0
 24 47  1  0
 25 48  1  0
 26 49  1  0
 28 50  1  0
 35 51  1  0
M  CHG  4   4  -1  10  -1  21  -1  29  -1
M  END
>  <UniqueID>  (70) 
66

>  <SMILES>  (70) 
CC(=O)[N-]c1cccc([N-]C(=O)CSc2nc(CC(=O)[N-]c3ccccc3O)[n-]c(=O)c2C#N)c1

>  <Energy>  (70) 
57.06079312648462

>  <Genealogy>  (70) 
CC(=O)[N-]c1cccc([N-]C(=O)CSc2nc(CC(=O)[N-]c3ccccc3O)[n-]c(=O)c2C#N)c1 (protonated)
CC(=O)[N-]c1cccc([N-]C(=O)CSc2nc(CC(=O)[N-]c3ccccc3O)[n-]c(=O)c2C#N)c1 (3D coordinates assigned)
CC(=O)[N-]c1cccc([N-]C(=O)CSc2nc(CC(=O)[N-]c3ccccc3O)[n-]c(=O)c2C#N)c1 (optimized conformer: 57.06079312648462 kcal/mol)

>  <smiles>  (70) 
CC(=O)Nc1cccc(NC(=O)CSc2nc(CC(=O)Nc3ccccc3O)[nH]c(=O)c2C#N)c1

>  <score_type>  (70) 
oracle

>  <origin>  (70) 
adg

>  <m_score__min__energy>  (70) 
-15.869999999999999

>  <m_primary>  (70) 
energy

$$$$
70:0
     RDKit          3D

 47 49  0  0  0  0  0  0  0  0999 V2000
   57.8090   26.2950   45.6310 C   0  0  0  0  0  0  0  0  0  0  0  0
   56.5980   27.1720   45.6230 C   0  0  0  0  0  0  0  0  0  0  0  0
   55.4990   26.7030   46.0220 O   0  0  0  0  0  0  0  0  0  0  0  0
   56.7130   28.5970   45.2470 C   0  0  0  0  0  0  0  0  0  0  0  0
   55.6470   29.3460   44.9010 N   0  0  0  0  0  0  0  0  0  0  0  0
   56.0890   30.5230   44.5640 O   0  0  0  0  0  0  0  0  0  0  0  0
   57.3950   30.5870   44.6720 C   0  0  0  0  0  0  0  0  0  0  0  0
   58.1940   31.8150   44.3750 C   0  0  0  0  0  0  0  0  0  0  0  0
   57.8660   29.3640   45.1170 C   0  0  0  0  0  0  0  0  0  0  0  0
   59.2620   29.0170   45.4510 C   0  0  0  0  0  0  0  0  0  0  0  0
   60.1050   28.8650   44.5270 O   0  0  0  0  0  0  0  0  0  0  0  0
   59.6740   28.9460   46.8210 N   0  0  0  0  0  0  0  0  0  0  0  0
   59.5280   29.9680   47.8180 C   0  0  0  0  0  0  0  0  0  0  0  0
   58.9390   29.7130   49.0690 C   0  0  0  0  0  0  0  0  0  0  0  0
   58.7760   30.7500   49.9920 C   0  0  0  0  0  0  0  0  0  0  0  0
   59.1730   32.0490   49.6670 C   0  0  0  0  0  0  0  0  0  0  0  0
   59.7220   32.3230   48.4070 C   0  0  0  0  0  0  0  0  0  0  0  0
   60.1870   33.9690   47.9780 S   0  0  0  0  0  0  0  0  0  0  0  0
   59.6610   34.2810   46.6050 O   0  0  0  0  0  0  0  0  0  0  0  0
   59.5480   34.9290   48.9430 O   0  0  0  0  0  0  0  0  0  0  0  0
   61.9220   34.2000   47.9930 N   0  0  0  0  0  0  0  0  0  0  0  0
   62.5700   33.6720   49.2120 C   0  0  0  0  0  0  0  0  0  0  0  0
   62.9150   32.1700   49.1420 C   0  0  0  0  0  0  0  0  0  0  0  0
   63.2760   31.6810   47.7330 C   0  0  0  0  0  0  0  0  0  0  0  0
   63.7100   32.8350   46.8380 C   0  0  0  0  0  0  0  0  0  0  0  0
   62.5670   33.8510   46.7050 C   0  0  0  0  0  0  0  0  0  0  0  0
   59.9110   31.2760   47.4940 C   0  0  0  0  0  0  0  0  0  0  0  0
   58.1015   26.0832   46.6700 H   0  0  0  0  0  0  0  0  0  0  0  0
   57.5814   25.3509   45.1144 H   0  0  0  0  0  0  0  0  0  0  0  0
   58.6350   26.8057   45.1144 H   0  0  0  0  0  0  0  0  0  0  0  0
   58.5024   32.2889   45.3186 H   0  0  0  0  0  0  0  0  0  0  0  0
   59.0866   31.5400   43.7939 H   0  0  0  0  0  0  0  0  0  0  0  0
   57.5810   32.5197   43.7939 H   0  0  0  0  0  0  0  0  0  0  0  0
   58.6059   28.6956   49.3218 H   0  0  0  0  0  0  0  0  0  0  0  0
   58.3336   30.5423   50.9775 H   0  0  0  0  0  0  0  0  0  0  0  0
   59.0545   32.8590   50.4018 H   0  0  0  0  0  0  0  0  0  0  0  0
   63.5014   34.2329   49.3786 H   0  0  0  0  0  0  0  0  0  0  0  0
   61.8480   33.7936   50.0330 H   0  0  0  0  0  0  0  0  0  0  0  0
   63.7720   31.9800   49.8049 H   0  0  0  0  0  0  0  0  0  0  0  0
   62.0135   31.6202   49.4501 H   0  0  0  0  0  0  0  0  0  0  0  0
   64.0996   30.9555   47.8061 H   0  0  0  0  0  0  0  0  0  0  0  0
   62.3837   31.2154   47.2891 H   0  0  0  0  0  0  0  0  0  0  0  0
   64.5878   33.3292   47.2799 H   0  0  0  0  0  0  0  0  0  0  0  0
   63.9655   32.4446   45.8418 H   0  0  0  0  0  0  0  0  0  0  0  0
   62.9718   34.7717   46.2595 H   0  0  0  0  0  0  0  0  0  0  0  0
   61.7946   33.3829   46.0771 H   0  0  0  0  0  0  0  0  0  0  0  0
   60.3645   31.4836   46.5136 H   0  0  0  0  0  0  0  0  0  0  0  0
  1  2  1  0
  2  3  2  0
  2  4  1  0
  4  5  2  0
  5  6  1  0
  6  7  1  0
  7  8  1  0
  7  9  2  0
  9 10  1  0
 10 11  2  0
 10 12  1  0
 12 13  1  0
 13 14  2  0
 14 15  1  0
 15 16  2  0
 16 17  1  0
 17 18  1  0
 18 19  2  0
 18 20  2  0
 18 21  1  0
 21 22  1  0
 22 23  1  0
 23 24  1  0
 24 25  1  0
 25 26  1  0
 17 27  2  0
  9  4  1  0
 27 13  1  0
 26 21  1  0
  1 28  1  0
  1 29  1  0
  1 30  1  0
  8 31  1  0
  8 32  1  0
  8 33  1  0
 14 34  1  0
 15 35  1  0
 16 36  1  0
 22 37  1  0
 22 38  1  0
 23 39  1  0
 23 40  1  0
 24 41  1  0
 24 42  1  0
 25 43  1  0
 25 44  1  0
 26 45  1  0
 26 46  1  0
 27 47  1  0
M  CHG  1  12  -1
M  END
>  <UniqueID>  (71) 
67

>  <SMILES>  (71) 
CC(=O)c1noc(C)c1C(=O)[N-]c1cccc(S(=O)(=O)N2CCCCC2)c1

>  <Energy>  (71) 
90.40151087909064

>  <Genealogy>  (71) 
CC(=O)c1noc(C)c1C(=O)[N-]c1cccc(S(=O)(=O)N2CCCCC2)c1 (protonated)
CC(=O)c1noc(C)c1C(=O)[N-]c1cccc(S(=O)(=O)N2CCCCC2)c1 (3D coordinates assigned)
CC(=O)c1noc(C)c1C(=O)[N-]c1cccc(S(=O)(=O)N2CCCCC2)c1 (nonaromatic ring conformer: 90.40151087909064 kcal/mol)

>  <smiles>  (71) 
CC(=O)c1noc(C)c1C(=O)Nc1cccc(S(=O)(=O)N2CCCCC2)c1

>  <score_type>  (71) 
oracle

>  <origin>  (71) 
adg

>  <m_score__min__energy>  (71) 
-11.449999999999999

>  <m_primary>  (71) 
energy

$$$$
71:0
     RDKit          3D

 48 51  0  0  0  0  0  0  0  0999 V2000
   61.7427   34.8433   49.5823 H   0  0  0  0  0  0  0  0  0  0  0  0
   61.5740   33.9280   48.9960 C   0  0  0  0  0  0  0  0  0  0  0  0
   62.6400   33.5120   48.0620 C   0  0  0  0  0  0  0  0  0  0  0  0
   62.5630   33.8660   46.8560 O   0  0  0  0  0  0  0  0  0  0  0  0
   63.7120   32.6620   48.4740 N   0  0  0  0  0  0  0  0  0  0  0  0
   63.6980   32.1820   49.4000 H   0  0  0  0  0  0  0  0  0  0  0  0
   64.4810   32.4300   47.8060 H   0  0  0  0  0  0  0  0  0  0  0  0
   60.4070   33.2720   49.1870 C   0  0  0  0  0  0  0  0  0  0  0  0
   59.6280   32.7790   48.0170 C   0  0  0  0  0  0  0  0  0  0  0  0
   59.4420   33.6420   46.9190 C   0  0  0  0  0  0  0  0  0  0  0  0
   59.9093   34.6377   46.9290 H   0  0  0  0  0  0  0  0  0  0  0  0
   58.6760   33.2560   45.8200 C   0  0  0  0  0  0  0  0  0  0  0  0
   58.5541   33.9427   44.9693 H   0  0  0  0  0  0  0  0  0  0  0  0
   58.0600   31.9960   45.7940 C   0  0  0  0  0  0  0  0  0  0  0  0
   57.2680   31.5620   44.7180 O   0  0  0  0  0  0  0  0  0  0  0  0
   57.6070   30.5010   43.8230 C   0  0  0  0  0  0  0  0  0  0  0  0
   56.6827   30.0971   43.3843 H   0  0  0  0  0  0  0  0  0  0  0  0
   58.2698   30.9097   43.0461 H   0  0  0  0  0  0  0  0  0  0  0  0
   58.3460   29.3790   44.5280 C   0  0  0  0  0  0  0  0  0  0  0  0
   59.7540   29.3430   44.4660 C   0  0  0  0  0  0  0  0  0  0  0  0
   60.2911   30.0934   43.8673 H   0  0  0  0  0  0  0  0  0  0  0  0
   60.4740   28.3670   45.1550 C   0  0  0  0  0  0  0  0  0  0  0  0
   61.5729   28.3595   45.1075 H   0  0  0  0  0  0  0  0  0  0  0  0
   59.8040   27.4020   45.9030 C   0  0  0  0  0  0  0  0  0  0  0  0
   60.3746   26.6466   46.4633 H   0  0  0  0  0  0  0  0  0  0  0  0
   58.4090   27.3930   45.9420 C   0  0  0  0  0  0  0  0  0  0  0  0
   57.8873   26.6233   46.5298 H   0  0  0  0  0  0  0  0  0  0  0  0
   57.6610   28.3560   45.2390 C   0  0  0  0  0  0  0  0  0  0  0  0
   56.1840   28.2390   45.2490 C   0  0  0  0  0  0  0  0  0  0  0  0
   55.4700   29.2150   44.9000 O   0  0  0  0  0  0  0  0  0  0  0  0
   55.5640   27.0790   45.6990 O   0  0  0  0  0  0  0  0  0  0  0  0
   58.2290   31.1350   46.8810 C   0  0  0  0  0  0  0  0  0  0  0  0
   57.7433   30.1482   46.8647 H   0  0  0  0  0  0  0  0  0  0  0  0
   59.0020   31.4980   47.9910 C   0  0  0  0  0  0  0  0  0  0  0  0
   59.1030   30.5410   49.0170 O   0  0  0  0  0  0  0  0  0  0  0  0
   59.9660   30.5980   50.1470 C   0  0  0  0  0  0  0  0  0  0  0  0
   61.0063   30.7037   49.8057 H   0  0  0  0  0  0  0  0  0  0  0  0
   59.8568   29.6724   50.7313 H   0  0  0  0  0  0  0  0  0  0  0  0
   59.6050   31.7710   51.0110 C   0  0  0  0  0  0  0  0  0  0  0  0
   59.0370   31.5830   52.2810 C   0  0  0  0  0  0  0  0  0  0  0  0
   58.8503   30.5648   52.6531 H   0  0  0  0  0  0  0  0  0  0  0  0
   58.7080   32.6860   53.0740 C   0  0  0  0  0  0  0  0  0  0  0  0
   58.2673   32.5343   54.0704 H   0  0  0  0  0  0  0  0  0  0  0  0
   58.9380   33.9800   52.6030 C   0  0  0  0  0  0  0  0  0  0  0  0
   58.6800   34.8468   53.2292 H   0  0  0  0  0  0  0  0  0  0  0  0
   59.4960   34.1750   51.3360 C   0  0  0  0  0  0  0  0  0  0  0  0
   59.6700   35.1957   50.9647 H   0  0  0  0  0  0  0  0  0  0  0  0
   59.8350   33.0720   50.5360 C   0  0  0  0  0  0  0  0  0  0  0  0
  1  2  1  0
  2  3  1  0
  3  4  2  0
  3  5  1  0
  5  6  1  0
  5  7  1  0
  2  8  2  0
  8  9  1  0
  9 10  2  0
 10 11  1  0
 10 12  1  0
 12 13  1  0
 12 14  2  0
 14 15  1  0
 15 16  1  0
 16 17  1  0
 16 18  1  0
 16 19  1  0
 19 20  2  0
 20 21  1  0
 20 22  1  0
 22 23  1  0
 22 24  2  0
 24 25  1  0
 24 26  1  0
 26 27  1  0
 26 28  2  0
 28 29  1  0
 29 30  2  0
 29 31  1  0
 14 32  1  0
 32 33  1  0
 32 34  2  0
 34 35  1  0
 35 36  1  0
 36 37  1  0
 36 38  1  0
 36 39  1  0
 39 40  2  0
 40 41  1  0
 40 42  1  0
 42 43  1  0
 42 44  2  0
 44 45  1  0
 44 46  1  0
 46 47  1  0
 46 48  2  0
 48  8  1  0
 34  9  1  0
 48 39  1  0
 28 19  1  0
M  CHG  1  31  -1
M  END
>  <UniqueID>  (72) 
68

>  <SMILES>  (72) 
NC(=O)/C=C1\c2ccccc2COc2cc(OCc3ccccc3C(=O)[O-])ccc21

>  <Energy>  (72) 
78.91850773247326

>  <Genealogy>  (72) 
NC(=O)C=C1c2ccccc2COc2cc(OCc3ccccc3C(=O)[O-])ccc21 (protonated)
NC(=O)/C=C1\c2ccccc2COc2cc(OCc3ccccc3C(=O)[O-])ccc21 (cis-trans isomerization)
NC(=O)/C=C1\c2ccccc2COc2cc(OCc3ccccc3C(=O)[O-])ccc21 (3D coordinates assigned)
NC(=O)/C=C1\c2ccccc2COc2cc(OCc3ccccc3C(=O)[O-])ccc21 (nonaromatic ring conformer: 78.91850773247326 kcal/mol)

>  <smiles>  (72) 
NC(=O)C=C1c2ccccc2COc2cc(OCc3ccccc3C(=O)O)ccc21

>  <score_type>  (72) 
oracle

>  <origin>  (72) 
adg

>  <m_score__min__energy>  (72) 
-12.25

>  <m_primary>  (72) 
energy

$$$$
72:0
     RDKit          3D

 32 34  0  0  0  0  0  0  0  0999 V2000
   60.7062   26.3729   46.1469 H   0  0  0  0  0  0  0  0  0  0  0  0
   59.7140   25.9650   46.3900 C   0  0  0  0  0  0  0  0  0  0  0  0
   59.6291   25.0224   46.9506 H   0  0  0  0  0  0  0  0  0  0  0  0
   58.6110   26.6150   46.0040 C   0  0  0  0  0  0  0  0  0  0  0  0
   57.4010   26.0880   46.3180 N   0  0  0  0  0  0  0  0  0  0  0  0
   56.2450   26.7010   45.9630 C   0  0  0  0  0  0  0  0  0  0  0  0
   55.1420   26.1840   46.2840 O   0  0  0  0  0  0  0  0  0  0  0  0
   56.2750   27.8710   45.2700 N   0  0  0  0  0  0  0  0  0  0  0  0
   55.3590   28.3250   45.0570 H   0  0  0  0  0  0  0  0  0  0  0  0
   57.4610   28.4510   44.9010 C   0  0  0  0  0  0  0  0  0  0  0  0
   57.4860   29.6140   44.2090 C   0  0  0  0  0  0  0  0  0  0  0  0
   57.3087   29.5672   43.1244 H   0  0  0  0  0  0  0  0  0  0  0  0
   57.7340   30.9390   44.8060 C   0  0  0  0  0  0  0  0  0  0  0  0
   57.3790   32.1600   44.2430 C   0  0  0  0  0  0  0  0  0  0  0  0
   56.9355   32.2874   43.2445 H   0  0  0  0  0  0  0  0  0  0  0  0
   57.6580   33.1690   45.1010 N   0  0  0  0  0  0  0  0  0  0  0  0
   57.3750   34.5850   44.8860 C   0  0  0  0  0  0  0  0  0  0  0  0
   57.2740   35.0904   45.8578 H   0  0  0  0  0  0  0  0  0  0  0  0
   58.1996   35.0418   44.3191 H   0  0  0  0  0  0  0  0  0  0  0  0
   56.4382   34.6897   44.3191 H   0  0  0  0  0  0  0  0  0  0  0  0
   58.1470   32.5960   46.2200 C   0  0  0  0  0  0  0  0  0  0  0  0
   58.5140   33.2210   47.4150 C   0  0  0  0  0  0  0  0  0  0  0  0
   58.4678   34.3150   47.5198 H   0  0  0  0  0  0  0  0  0  0  0  0
   58.9440   32.4090   48.4790 C   0  0  0  0  0  0  0  0  0  0  0  0
   59.2522   32.8708   49.4286 H   0  0  0  0  0  0  0  0  0  0  0  0
   58.9830   31.0040   48.3370 C   0  0  0  0  0  0  0  0  0  0  0  0
   59.3169   30.3788   49.1782 H   0  0  0  0  0  0  0  0  0  0  0  0
   58.5980   30.4000   47.1280 C   0  0  0  0  0  0  0  0  0  0  0  0
   58.6098   29.3062   47.0117 H   0  0  0  0  0  0  0  0  0  0  0  0
   58.2000   31.2310   46.0790 C   0  0  0  0  0  0  0  0  0  0  0  0
   58.6710   27.8250   45.2840 C   0  0  0  0  0  0  0  0  0  0  0  0
   59.7880   28.3350   44.9810 O   0  0  0  0  0  0  0  0  0  0  0  0
  1  2  1  0
  2  3  1  0
  2  4  2  0
  4  5  1  0
  5  6  1  0
  6  7  2  0
  6  8  1  0
  8  9  1  0
  8 10  1  0
 10 11  2  0
 11 12  1  0
 11 13  1  0
 13 14  2  0
 14 15  1  0
 14 16  1  0
 16 17  1  0
 17 18  1  0
 17 19  1  0
 17 20  1  0
 16 21  1  0
 21 22  2  0
 22 23  1  0
 22 24  1  0
 24 25  1  0
 24 26  2  0
 26 27  1  0
 26 28  1  0
 28 29  1  0
 28 30  2  0
 10 31  1  0
 31 32  2  0
 31  4  1  0
 30 13  1  0
 30 21  1  0
M  CHG  1   5  -1
M  END
>  <UniqueID>  (73) 
69

>  <SMILES>  (73) 
C=c1[n-]c(=O)[nH]/c(=C\c2cn(C)c3ccccc23)c1=O

>  <Energy>  (73) 
80.03691547227757

>  <Genealogy>  (73) 
C=c1[n-]c(=O)[nH]c(=Cc2cn(C)c3ccccc23)c1=O (protonated)
C=c1[n-]c(=O)[nH]/c(=C\c2cn(C)c3ccccc23)c1=O (cis-trans isomerization)
C=c1[n-]c(=O)[nH]/c(=C\c2cn(C)c3ccccc23)c1=O (3D coordinates assigned)
C=c1[n-]c(=O)[nH]/c(=C\c2cn(C)c3ccccc23)c1=O (optimized conformer: 80.03691547227757 kcal/mol)

>  <smiles>  (73) 
C=c1[nH]c(=O)[nH]c(=Cc2cn(C)c3ccccc23)c1=O

>  <score_type>  (73) 
oracle

>  <origin>  (73) 
adg

>  <m_score__min__energy>  (73) 
-9.3499999999999996

>  <m_primary>  (73) 
energy

$$$$
73:0
     RDKit          3D

 37 40  0  0  0  0  0  0  0  0999 V2000
   60.7832   30.1048   44.6714 H   0  0  0  0  0  0  0  0  0  0  0  0
   60.1680   29.2220   44.9000 C   0  0  0  0  0  0  0  0  0  0  0  0
   60.0822   28.4065   44.1668 H   0  0  0  0  0  0  0  0  0  0  0  0
   59.5230   29.1400   46.0720 C   0  0  0  0  0  0  0  0  0  0  0  0
   58.7010   28.0930   46.5240 C   0  0  0  0  0  0  0  0  0  0  0  0
   58.1840   27.0320   45.8750 C   0  0  0  0  0  0  0  0  0  0  0  0
   58.3457   26.9793   44.7882 H   0  0  0  0  0  0  0  0  0  0  0  0
   57.4210   25.9370   46.4960 C   0  0  0  0  0  0  0  0  0  0  0  0
   57.9650   24.8130   46.9990 N   0  0  0  0  0  0  0  0  0  0  0  0
   56.8890   24.0620   47.3170 C   0  0  0  0  0  0  0  0  0  0  0  0
   56.9880   22.9210   47.8390 O   0  0  0  0  0  0  0  0  0  0  0  0
   55.6970   24.6230   47.0190 N   0  0  0  0  0  0  0  0  0  0  0  0
   56.0550   25.8040   46.4870 C   0  0  0  0  0  0  0  0  0  0  0  0
   55.1500   26.7360   45.9970 O   0  0  0  0  0  0  0  0  0  0  0  0
   58.4590   28.3430   47.8660 C   0  0  0  0  0  0  0  0  0  0  0  0
   57.8930   27.7036   48.5594 H   0  0  0  0  0  0  0  0  0  0  0  0
   59.0630   29.5460   48.1660 C   0  0  0  0  0  0  0  0  0  0  0  0
   59.0620   30.1960   49.5160 C   0  0  0  0  0  0  0  0  0  0  0  0
   59.0632   29.4206   50.2963 H   0  0  0  0  0  0  0  0  0  0  0  0
   59.9592   30.8237   49.6214 H   0  0  0  0  0  0  0  0  0  0  0  0
   58.1629   30.8209   49.6214 H   0  0  0  0  0  0  0  0  0  0  0  0
   59.7150   30.0230   47.0840 N   0  0  0  0  0  0  0  0  0  0  0  0
   60.4770   31.2410   47.0370 C   0  0  0  0  0  0  0  0  0  0  0  0
   61.7890   31.2270   47.5350 C   0  0  0  0  0  0  0  0  0  0  0  0
   62.1933   30.3064   47.9811 H   0  0  0  0  0  0  0  0  0  0  0  0
   62.5840   32.3700   47.4690 C   0  0  0  0  0  0  0  0  0  0  0  0
   63.6111   32.3487   47.8622 H   0  0  0  0  0  0  0  0  0  0  0  0
   62.0780   33.5400   46.9050 C   0  0  0  0  0  0  0  0  0  0  0  0
   62.7084   34.4397   46.8491 H   0  0  0  0  0  0  0  0  0  0  0  0
   60.7730   33.5720   46.4110 C   0  0  0  0  0  0  0  0  0  0  0  0
   60.3831   34.4991   45.9656 H   0  0  0  0  0  0  0  0  0  0  0  0
   59.9500   32.4320   46.4760 C   0  0  0  0  0  0  0  0  0  0  0  0
   58.5560   32.5250   45.9720 C   0  0  0  0  0  0  0  0  0  0  0  0
   57.8260   33.6570   45.9710 N   0  0  0  0  0  0  0  0  0  0  0  0
   56.6540   33.3070   45.4680 N   0  0  0  0  0  0  0  0  0  0  0  0
   56.6610   32.0170   45.1770 N   0  0  0  0  0  0  0  0  0  0  0  0
   57.8370   31.4970   45.4850 N   0  0  0  0  0  0  0  0  0  0  0  0
  1  2  1  0
  2  3  1  0
  2  4  2  0
  4  5  1  0
  5  6  2  0
  6  7  1  0
  6  8  1  0
  8  9  1  0
  9 10  1  0
 10 11  2  0
 10 12  1  0
 12 13  1  0
 13 14  1  0
  5 15  1  0
 15 16  1  0
 15 17  2  0
 17 18  1  0
 18 19  1  0
 18 20  1  0
 18 21  1  0
 17 22  1  0
 22 23  1  0
 23 24  2  0
 24 25  1  0
 24 26  1  0
 26 27  1  0
 26 28  2  0
 28 29  1  0
 28 30  1  0
 30 31  1  0
 30 32  2  0
 32 33  1  0
 33 34  1  0
 34 35  2  0
 35 36  1  0
 36 37  1  0
 22  4  1  0
 32 23  1  0
 37 33  2  0
 13  8  2  0
M  CHG  4   9  -1  12  -1  14  -1  36  -1
M  END
>  <UniqueID>  (74) 
70

>  <SMILES>  (74) 
C=c1/c(=C\c2[n-]c(=O)[n-]c2[O-])cc(C)n1-c1ccccc1-c1nn[n-]n1

>  <Energy>  (74) 
156.57071237572623

>  <Genealogy>  (74) 
C=c1c(=Cc2[n-]c(=O)[n-]c2[O-])cc(C)n1-c1ccccc1-c1nn[n-]n1 (protonated)
C=c1/c(=C\c2[n-]c(=O)[n-]c2[O-])cc(C)n1-c1ccccc1-c1nn[n-]n1 (cis-trans isomerization)
C=c1/c(=C\c2[n-]c(=O)[n-]c2[O-])cc(C)n1-c1ccccc1-c1nn[n-]n1 (3D coordinates assigned)
C=c1/c(=C\c2[n-]c(=O)[n-]c2[O-])cc(C)n1-c1ccccc1-c1nn[n-]n1 (optimized conformer: 156.57071237572623 kcal/mol)

>  <smiles>  (74) 
C=c1c(=Cc2[nH]c(=O)[nH]c2O)cc(C)n1-c1ccccc1-c1nn[nH]n1

>  <score_type>  (74) 
oracle

>  <origin>  (74) 
adg

>  <m_score__min__energy>  (74) 
-17.120000000000001

>  <m_primary>  (74) 
energy

$$$$
74:0
     RDKit          3D

 59 61  0  0  0  0  0  0  0  0999 V2000
   57.7094   30.4694   43.7837 H   0  0  0  0  0  0  0  0  0  0  0  0
   57.8250   29.7400   44.5990 C   0  0  0  0  0  0  0  0  0  0  0  0
   56.6270   29.0480   45.1040 C   0  0  0  0  0  0  0  0  0  0  0  0
   55.4920   29.4990   44.7910 O   0  0  0  0  0  0  0  0  0  0  0  0
   56.7510   27.8890   45.9450 N   0  0  0  0  0  0  0  0  0  0  0  0
   56.4110   26.6740   45.6280 C   0  0  0  0  0  0  0  0  0  0  0  0
   55.2460   26.0910   45.9830 N   0  0  0  0  0  0  0  0  0  0  0  0
   55.1570   24.8140   45.5210 C   0  0  0  0  0  0  0  0  0  0  0  0
   53.9550   23.9730   45.8140 C   0  0  0  0  0  0  0  0  0  0  0  0
   53.8268   23.8833   46.9028 H   0  0  0  0  0  0  0  0  0  0  0  0
   53.0623   24.4445   45.3773 H   0  0  0  0  0  0  0  0  0  0  0  0
   54.0921   22.9727   45.3773 H   0  0  0  0  0  0  0  0  0  0  0  0
   56.2690   24.3760   44.7860 C   0  0  0  0  0  0  0  0  0  0  0  0
   56.4900   23.0240   44.2240 C   0  0  0  0  0  0  0  0  0  0  0  0
   55.7150   22.6010   43.3250 O   0  0  0  0  0  0  0  0  0  0  0  0
   57.5460   22.1660   44.7020 N   0  0  0  0  0  0  0  0  0  0  0  0
   58.8160   22.7110   45.1880 C   0  0  0  0  0  0  0  0  0  0  0  0
   58.8177   22.7117   46.2880 H   0  0  0  0  0  0  0  0  0  0  0  0
   59.6461   22.0899   44.8205 H   0  0  0  0  0  0  0  0  0  0  0  0
   58.9378   23.7406   44.8205 H   0  0  0  0  0  0  0  0  0  0  0  0
   57.3420   20.7170   44.6960 C   0  0  0  0  0  0  0  0  0  0  0  0
   57.2903   20.3497   45.7316 H   0  0  0  0  0  0  0  0  0  0  0  0
   56.4018   20.4812   44.1760 H   0  0  0  0  0  0  0  0  0  0  0  0
   58.1806   20.2308   44.1760 H   0  0  0  0  0  0  0  0  0  0  0  0
   57.3850   25.6410   44.7380 S   0  0  0  0  0  0  0  0  0  0  0  0
   59.0520   29.5160   45.0940 C   0  0  0  0  0  0  0  0  0  0  0  0
   59.8455   29.2022   44.3999 H   0  0  0  0  0  0  0  0  0  0  0  0
   59.3930   29.6700   46.5300 C   0  0  0  0  0  0  0  0  0  0  0  0
   59.6970   28.5700   47.3570 C   0  0  0  0  0  0  0  0  0  0  0  0
   59.6765   27.5515   46.9420 H   0  0  0  0  0  0  0  0  0  0  0  0
   60.0240   28.7660   48.7000 C   0  0  0  0  0  0  0  0  0  0  0  0
   60.2456   27.9003   49.3415 H   0  0  0  0  0  0  0  0  0  0  0  0
   60.0710   30.0540   49.2320 C   0  0  0  0  0  0  0  0  0  0  0  0
   60.3164   30.1994   50.2944 H   0  0  0  0  0  0  0  0  0  0  0  0
   59.8060   31.1670   48.4160 C   0  0  0  0  0  0  0  0  0  0  0  0
   59.8250   32.5060   48.9300 N   0  0  0  0  0  0  0  0  0  0  0  0
   59.9760   33.7060   48.1570 C   0  0  0  0  0  0  0  0  0  0  0  0
   59.3480   34.7530   48.4680 O   0  0  0  0  0  0  0  0  0  0  0  0
   60.9430   33.7300   47.0130 C   0  0  0  0  0  0  0  0  0  0  0  0
   61.0302   32.7191   46.5882 H   0  0  0  0  0  0  0  0  0  0  0  0
   60.5768   34.4266   46.2445 H   0  0  0  0  0  0  0  0  0  0  0  0
   62.2710   34.1800   47.4840 N   0  0  0  0  0  0  0  0  0  0  0  0
   62.4160   34.1260   48.9640 C   0  0  0  0  0  0  0  0  0  0  0  0
   62.8940   35.0585   49.2987 H   0  0  0  0  0  0  0  0  0  0  0  0
   61.4052   33.9951   49.3776 H   0  0  0  0  0  0  0  0  0  0  0  0
   63.2630   32.9370   49.4710 C   0  0  0  0  0  0  0  0  0  0  0  0
   64.3233   33.2297   49.4771 H   0  0  0  0  0  0  0  0  0  0  0  0
   62.9241   32.6776   50.4848 H   0  0  0  0  0  0  0  0  0  0  0  0
   63.0910   31.7090   48.5770 C   0  0  0  0  0  0  0  0  0  0  0  0
   63.7340   30.9000   48.9539 H   0  0  0  0  0  0  0  0  0  0  0  0
   62.0322   31.4118   48.6001 H   0  0  0  0  0  0  0  0  0  0  0  0
   63.4740   32.0130   47.1190 C   0  0  0  0  0  0  0  0  0  0  0  0
   64.5077   31.6769   46.9500 H   0  0  0  0  0  0  0  0  0  0  0  0
   62.7604   31.4816   46.4721 H   0  0  0  0  0  0  0  0  0  0  0  0
   63.3820   33.5130   46.7760 C   0  0  0  0  0  0  0  0  0  0  0  0
   64.3264   34.0000   47.0604 H   0  0  0  0  0  0  0  0  0  0  0  0
   63.1954   33.6015   45.6956 H   0  0  0  0  0  0  0  0  0  0  0  0
   59.4560   30.9650   47.0740 C   0  0  0  0  0  0  0  0  0  0  0  0
   59.2273   31.8322   46.4371 H   0  0  0  0  0  0  0  0  0  0  0  0
  1  2  1  0
  2  3  1  0
  3  4  2  0
  3  5  1  0
  5  6  2  3
  6  7  1  0
  7  8  1  0
  8  9  1  0
  9 10  1  0
  9 11  1  0
  9 12  1  0
  8 13  2  0
 13 14  1  0
 14 15  2  0
 14 16  1  0
 16 17  1  0
 17 18  1  0
 17 19  1  0
 17 20  1  0
 16 21  1  0
 21 22  1  0
 21 23  1  0
 21 24  1  0
 13 25  1  0
  2 26  2  0
 26 27  1  0
 26 28  1  0
 28 29  2  0
 29 30  1  0
 29 31  1  0
 31 32  1  0
 31 33  2  0
 33 34  1  0
 33 35  1  0
 35 36  1  0
 36 37  1  0
 37 38  2  0
 37 39  1  0
 39 40  1  0
 39 41  1  0
 39 42  1  0
 42 43  1  0
 43 44  1  0
 43 45  1  0
 43 46  1  0
 46 47  1  0
 46 48  1  0
 46 49  1  0
 49 50  1  0
 49 51  1  0
 49 52  1  0
 52 53  1  0
 52 54  1  0
 52 55  1  0
 55 56  1  0
 55 57  1  0
 35 58  2  0
 58 59  1  0
 25  6  1  0
 58 28  1  0
 55 42  1  0
M  CHG  2   7  -1  36  -1
M  END
>  <UniqueID>  (75) 
71

>  <SMILES>  (75) 
Cc1[n-]c(=NC(=O)/C=C/c2cccc([N-]C(=O)CN3CCCCC3)c2)sc1C(=O)N(C)C

>  <Energy>  (75) 
105.70918153444615

>  <Genealogy>  (75) 
Cc1[n-]c(=NC(=O)C=Cc2cccc([N-]C(=O)CN3CCCCC3)c2)sc1C(=O)N(C)C (protonated)
Cc1[n-]c(=NC(=O)/C=C/c2cccc([N-]C(=O)CN3CCCCC3)c2)sc1C(=O)N(C)C (cis-trans isomerization)
Cc1[n-]c(=NC(=O)/C=C/c2cccc([N-]C(=O)CN3CCCCC3)c2)sc1C(=O)N(C)C (3D coordinates assigned)
Cc1[n-]c(=NC(=O)/C=C/c2cccc([N-]C(=O)CN3CCCCC3)c2)sc1C(=O)N(C)C (nonaromatic ring conformer: 105.70918153444615 kcal/mol)

>  <smiles>  (75) 
Cc1[nH]c(=NC(=O)C=Cc2cccc(NC(=O)CN3CCCCC3)c2)sc1C(=O)N(C)C

>  <score_type>  (75) 
oracle

>  <origin>  (75) 
adg

>  <m_score__min__energy>  (75) 
-12.880000000000001

>  <m_primary>  (75) 
energy

$$$$
75:0
     RDKit          3D

 51 54  0  0  0  0  0  0  0  0999 V2000
   57.4560   28.2350   44.4620 C   0  0  0  0  0  0  0  0  0  0  0  0
   57.9210   27.4040   45.4080 C   0  0  0  0  0  0  0  0  0  0  0  0
   57.8280   26.0020   45.4310 C   0  0  0  0  0  0  0  0  0  0  0  0
   57.1370   25.1460   44.6510 C   0  0  0  0  0  0  0  0  0  0  0  0
   55.8370   24.5330   44.9890 C   0  0  0  0  0  0  0  0  0  0  0  0
   54.8410   25.2920   45.6170 C   0  0  0  0  0  0  0  0  0  0  0  0
   55.0790   26.6130   45.9780 O   0  0  0  0  0  0  0  0  0  0  0  0
   53.6320   24.7340   45.8870 N   0  0  0  0  0  0  0  0  0  0  0  0
   53.3600   23.4500   45.5420 C   0  0  0  0  0  0  0  0  0  0  0  0
   52.2350   22.9520   45.8060 O   0  0  0  0  0  0  0  0  0  0  0  0
   54.2990   22.7020   44.9080 N   0  0  0  0  0  0  0  0  0  0  0  0
   55.5230   23.2130   44.6150 C   0  0  0  0  0  0  0  0  0  0  0  0
   56.3630   22.4990   44.0050 O   0  0  0  0  0  0  0  0  0  0  0  0
   58.6190   25.5770   46.4850 C   0  0  0  0  0  0  0  0  0  0  0  0
   59.1120   26.7100   47.0980 C   0  0  0  0  0  0  0  0  0  0  0  0
   60.0100   26.7050   48.2990 C   0  0  0  0  0  0  0  0  0  0  0  0
   58.6930   27.8170   46.4470 N   0  0  0  0  0  0  0  0  0  0  0  0
   59.0280   29.1730   46.7960 C   0  0  0  0  0  0  0  0  0  0  0  0
   59.8330   29.9440   45.9480 C   0  0  0  0  0  0  0  0  0  0  0  0
   60.1660   31.2580   46.2910 C   0  0  0  0  0  0  0  0  0  0  0  0
   59.7020   31.8200   47.4950 C   0  0  0  0  0  0  0  0  0  0  0  0
   60.0340   33.2180   47.8770 C   0  0  0  0  0  0  0  0  0  0  0  0
   61.1500   33.4400   48.4230 O   0  0  0  0  0  0  0  0  0  0  0  0
   59.0930   34.3070   47.6720 N   0  0  1  0  0  0  0  0  0  0  0  0
   59.6520   35.3460   46.7800 C   0  0  0  0  0  0  0  0  0  0  0  0
   59.6020   34.9580   45.3250 C   0  0  0  0  0  0  0  0  0  0  0  0
   58.6840   34.1080   44.8520 C   0  0  0  0  0  0  0  0  0  0  0  0
   57.7540   33.3410   45.7520 C   0  0  0  0  0  0  0  0  0  0  0  0
   57.7640   33.8440   47.2090 C   0  0  0  0  0  0  0  0  0  0  0  0
   58.8830   31.0440   48.3350 C   0  0  0  0  0  0  0  0  0  0  0  0
   58.5540   29.7310   47.9910 C   0  0  0  0  0  0  0  0  0  0  0  0
   57.5963   29.3210   44.5666 H   0  0  0  0  0  0  0  0  0  0  0  0
   56.9346   27.8300   43.5822 H   0  0  0  0  0  0  0  0  0  0  0  0
   57.5800   24.8817   43.6794 H   0  0  0  0  0  0  0  0  0  0  0  0
   58.8164   24.5351   46.7775 H   0  0  0  0  0  0  0  0  0  0  0  0
   59.3990   26.7084   49.2137 H   0  0  0  0  0  0  0  0  0  0  0  0
   60.6399   25.8033   48.2821 H   0  0  0  0  0  0  0  0  0  0  0  0
   60.6499   27.5996   48.2821 H   0  0  0  0  0  0  0  0  0  0  0  0
   60.2054   29.5134   45.0068 H   0  0  0  0  0  0  0  0  0  0  0  0
   60.7948   31.8564   45.6153 H   0  0  0  0  0  0  0  0  0  0  0  0
   58.9150   34.7610   48.5970 H   0  0  0  0  0  0  0  0  0  0  0  0
   59.0754   36.2728   46.9162 H   0  0  0  0  0  0  0  0  0  0  0  0
   60.7100   35.4788   47.0502 H   0  0  0  0  0  0  0  0  0  0  0  0
   60.3414   35.3859   44.6321 H   0  0  0  0  0  0  0  0  0  0  0  0
   58.6061   33.9644   43.7642 H   0  0  0  0  0  0  0  0  0  0  0  0
   56.7313   33.4333   45.3577 H   0  0  0  0  0  0  0  0  0  0  0  0
   58.1002   32.2970   45.7651 H   0  0  0  0  0  0  0  0  0  0  0  0
   57.0565   34.6822   47.2915 H   0  0  0  0  0  0  0  0  0  0  0  0
   57.4822   32.9915   47.8445 H   0  0  0  0  0  0  0  0  0  0  0  0
   58.4983   31.4751   49.2710 H   0  0  0  0  0  0  0  0  0  0  0  0
   57.9199   29.1320   48.6612 H   0  0  0  0  0  0  0  0  0  0  0  0
  1  2  2  0
  2  3  1  0
  3  4  2  3
  4  5  1  0
  5  6  2  0
  6  7  1  0
  6  8  1  0
  8  9  1  0
  9 10  2  0
  9 11  1  0
 11 12  1  0
 12 13  2  0
  3 14  1  0
 14 15  2  0
 15 16  1  0
 15 17  1  0
 17 18  1  0
 18 19  2  0
 19 20  1  0
 20 21  2  0
 21 22  1  0
 22 23  2  0
 22 24  1  0
 24 25  1  0
 25 26  1  0
 26 27  2  0
 27 28  1  0
 28 29  1  0
 21 30  1  0
 30 31  2  0
 17  2  1  0
 31 18  1  0
 12  5  1  0
 29 24  1  0
  1 32  1  0
  1 33  1  0
  4 34  1  0
 14 35  1  0
 16 36  1  0
 16 37  1  0
 16 38  1  0
 19 39  1  0
 20 40  1  0
 24 41  1  1
 25 42  1  0
 25 43  1  0
 26 44  1  0
 27 45  1  0
 28 46  1  0
 28 47  1  0
 29 48  1  0
 29 49  1  0
 30 50  1  0
 31 51  1  0
M  CHG  4   7  -1   8  -1  11  -1  24   1
M  END
>  <UniqueID>  (76) 
72

>  <SMILES>  (76) 
C=c1c(=Cc2c([O-])[n-]c(=O)[n-]c2=O)cc(C)n1-c1ccc(C(=O)[N@H+]2CC=CCC2)cc1

>  <Energy>  (76) 
113.86053219099904

>  <Genealogy>  (76) 
C=c1c(=Cc2c([O-])[n-]c(=O)[n-]c2=O)cc(C)n1-c1ccc(C(=O)[NH+]2CC=CCC2)cc1 (protonated)
C=c1c(=Cc2c([O-])[n-]c(=O)[n-]c2=O)cc(C)n1-c1ccc(C(=O)[N@H+]2CC=CCC2)cc1 (chirality)
C=c1c(=Cc2c([O-])[n-]c(=O)[n-]c2=O)cc(C)n1-c1ccc(C(=O)[N@H+]2CC=CCC2)cc1 (3D coordinates assigned)
C=c1c(=Cc2c([O-])[n-]c(=O)[n-]c2=O)cc(C)n1-c1ccc(C(=O)[N@H+]2CC=CCC2)cc1 (nonaromatic ring conformer: 113.86053219099904 kcal/mol)

>  <smiles>  (76) 
C=c1c(=Cc2c(O)[nH]c(=O)[nH]c2=O)cc(C)n1-c1ccc(C(=O)N2CC=CCC2)cc1

>  <score_type>  (76) 
oracle

>  <origin>  (76) 
adg

>  <m_score__min__energy>  (76) 
-14.949999999999999

>  <m_primary>  (76) 
energy

$$$$
76:0
     RDKit          3D

 60 64  0  0  0  0  0  0  0  0999 V2000
   56.5390   19.5260   44.2570 H   0  0  0  0  0  0  0  0  0  0  0  0
   55.8730   19.9610   43.5800 N   0  0  0  0  0  0  0  0  0  0  0  0
   56.4490   21.5620   43.2620 S   0  0  0  0  0  0  0  0  0  0  0  0
   55.5370   22.2220   42.2680 O   0  0  0  0  0  0  0  0  0  0  0  0
   57.8340   21.4680   42.6880 O   0  0  0  0  0  0  0  0  0  0  0  0
   56.4840   22.5170   44.7460 C   0  0  0  0  0  0  0  0  0  0  0  0
   55.9920   23.8310   44.7490 C   0  0  0  0  0  0  0  0  0  0  0  0
   55.5946   24.2648   43.8195 H   0  0  0  0  0  0  0  0  0  0  0  0
   56.0010   24.5970   45.9220 C   0  0  0  0  0  0  0  0  0  0  0  0
   55.5130   25.9490   45.8640 N   0  0  0  0  0  0  0  0  0  0  0  0
   56.2120   27.0380   46.0030 C   0  0  0  0  0  0  0  0  0  0  0  0
   57.2240   27.0640   46.9050 N   0  0  0  0  0  0  0  0  0  0  0  0
   57.9850   28.1800   47.0570 C   0  0  0  0  0  0  0  0  0  0  0  0
   58.9540   28.2190   47.9230 N   0  0  0  0  0  0  0  0  0  0  0  0
   59.7940   29.3900   48.1960 C   0  0  0  0  0  0  0  0  0  0  0  0
   60.3162   29.7101   47.2823 H   0  0  0  0  0  0  0  0  0  0  0  0
   58.8970   30.5630   48.6580 C   0  0  0  0  0  0  0  0  0  0  0  0
   59.3447   31.5087   48.3186 H   0  0  0  0  0  0  0  0  0  0  0  0
   57.8968   30.4205   48.2229 H   0  0  0  0  0  0  0  0  0  0  0  0
   58.7520   30.6020   50.1830 C   0  0  0  0  0  0  0  0  0  0  0  0
   58.0848   31.4325   50.4570 H   0  0  0  0  0  0  0  0  0  0  0  0
   58.3365   29.6387   50.5138 H   0  0  0  0  0  0  0  0  0  0  0  0
   60.1140   30.8040   50.8780 C   0  0  0  0  0  0  0  0  0  0  0  0
   60.2732   31.8823   51.0260 H   0  0  0  0  0  0  0  0  0  0  0  0
   60.0770   30.2541   51.8299 H   0  0  0  0  0  0  0  0  0  0  0  0
   61.3020   30.2410   50.0740 C   0  0  0  0  0  0  0  0  0  0  0  0
   61.6844   31.0259   49.4049 H   0  0  0  0  0  0  0  0  0  0  0  0
   62.0773   29.9192   50.7849 H   0  0  0  0  0  0  0  0  0  0  0  0
   60.8890   29.0280   49.2330 C   0  0  0  0  0  0  0  0  0  0  0  0
   61.7725   28.6476   48.6994 H   0  0  0  0  0  0  0  0  0  0  0  0
   60.4777   28.2663   49.9117 H   0  0  0  0  0  0  0  0  0  0  0  0
   57.7350   29.2710   46.2910 N   0  0  0  0  0  0  0  0  0  0  0  0
   56.7290   29.2520   45.3760 C   0  0  0  0  0  0  0  0  0  0  0  0
   56.4790   30.2900   44.6340 N   0  0  0  0  0  0  0  0  0  0  0  0
   57.3950   31.4170   44.4410 C   0  0  0  0  0  0  0  0  0  0  0  0
   57.3936   31.6482   43.3656 H   0  0  0  0  0  0  0  0  0  0  0  0
   58.8280   31.0650   44.9090 C   0  0  0  0  0  0  0  0  0  0  0  0
   58.8356   30.1190   45.4703 H   0  0  0  0  0  0  0  0  0  0  0  0
   59.5267   30.9245   44.0711 H   0  0  0  0  0  0  0  0  0  0  0  0
   59.2030   32.2000   45.7830 C   0  0  0  0  0  0  0  0  0  0  0  0
   60.4460   32.4150   46.3860 C   0  0  0  0  0  0  0  0  0  0  0  0
   61.2780   31.7142   46.2229 H   0  0  0  0  0  0  0  0  0  0  0  0
   60.6100   33.5440   47.2040 C   0  0  0  0  0  0  0  0  0  0  0  0
   61.5805   33.7358   47.6850 H   0  0  0  0  0  0  0  0  0  0  0  0
   59.5380   34.4310   47.4110 C   0  0  0  0  0  0  0  0  0  0  0  0
   59.6718   35.3139   48.0534 H   0  0  0  0  0  0  0  0  0  0  0  0
   58.2980   34.1910   46.7990 C   0  0  0  0  0  0  0  0  0  0  0  0
   57.4528   34.8769   46.9577 H   0  0  0  0  0  0  0  0  0  0  0  0
   58.1570   33.0640   45.9840 C   0  0  0  0  0  0  0  0  0  0  0  0
   56.9330   32.6330   45.2730 C   0  0  0  0  0  0  0  0  0  0  0  0
   56.1475   32.3433   45.9865 H   0  0  0  0  0  0  0  0  0  0  0  0
   56.4997   33.4313   44.6526 H   0  0  0  0  0  0  0  0  0  0  0  0
   55.9750   28.1340   45.2320 N   0  0  0  0  0  0  0  0  0  0  0  0
   56.5640   24.0560   47.0910 C   0  0  0  0  0  0  0  0  0  0  0  0
   56.6116   24.6619   48.0078 H   0  0  0  0  0  0  0  0  0  0  0  0
   57.0630   22.7520   47.0920 C   0  0  0  0  0  0  0  0  0  0  0  0
   57.4889   22.3309   48.0146 H   0  0  0  0  0  0  0  0  0  0  0  0
   57.0250   21.9760   45.9260 C   0  0  0  0  0  0  0  0  0  0  0  0
   57.5330   20.6780   45.9360 O   0  0  0  0  0  0  0  0  0  0  0  0
   57.4970   20.0870   45.1140 H   0  0  0  0  0  0  0  0  0  0  0  0
  1  2  1  0
  2  3  1  0
  3  4  2  0
  3  5  2  0
  3  6  1  0
  6  7  2  0
  7  8  1  0
  7  9  1  0
  9 10  1  0
 10 11  2  3
 11 12  1  0
 12 13  1  0
 13 14  2  3
 14 15  1  0
 15 16  1  0
 15 17  1  0
 17 18  1  0
 17 19  1  0
 17 20  1  0
 20 21  1  0
 20 22  1  0
 20 23  1  0
 23 24  1  0
 23 25  1  0
 23 26  1  0
 26 27  1  0
 26 28  1  0
 26 29  1  0
 29 30  1  0
 29 31  1  0
 13 32  1  0
 32 33  1  0
 33 34  2  0
 34 35  1  0
 35 36  1  0
 35 37  1  0
 37 38  1  0
 37 39  1  0
 37 40  1  0
 40 41  2  0
 41 42  1  0
 41 43  1  0
 43 44  1  0
 43 45  2  0
 45 46  1  0
 45 47  1  0
 47 48  1  0
 47 49  2  0
 49 50  1  0
 50 51  1  0
 50 52  1  0
 33 53  1  0
  9 54  2  0
 54 55  1  0
 54 56  1  0
 56 57  1  0
 56 58  2  0
 58 59  1  0
 59 60  1  0
 58  6  1  0
 53 11  1  0
 29 15  1  0
 50 35  1  0
 49 40  1  0
M  CHG  4   2  -1  12  -1  32  -1  53  -1
M  END
>  <UniqueID>  (77) 
73

>  <SMILES>  (77) 
[NH-]S(=O)(=O)c1cc(N=c2[n-]c(=NC3CCCCC3)[n-]/c(=N\C3Cc4ccccc4C3)[n-]2)ccc1O

>  <Energy>  (77) 
81.00842863338572

>  <Genealogy>  (77) 
[NH-]S(=O)(=O)c1cc(N=c2[n-]c(=NC3CCCCC3)[n-]c(=NC3Cc4ccccc4C3)[n-]2)ccc1O (protonated)
[NH-]S(=O)(=O)c1cc(N=c2[n-]c(=NC3CCCCC3)[n-]/c(=N\C3Cc4ccccc4C3)[n-]2)ccc1O (cis-trans isomerization)
[NH-]S(=O)(=O)c1cc(N=c2[n-]c(=NC3CCCCC3)[n-]/c(=N\C3Cc4ccccc4C3)[n-]2)ccc1O (3D coordinates assigned)
[NH-]S(=O)(=O)c1cc(N=c2[n-]c(=NC3CCCCC3)[n-]/c(=N\C3Cc4ccccc4C3)[n-]2)ccc1O (nonaromatic ring conformer: 81.00842863338572 kcal/mol)

>  <smiles>  (77) 
NS(=O)(=O)c1cc(N=c2[nH]c(=NC3CCCCC3)[nH]c(=NC3Cc4ccccc4C3)[nH]2)ccc1O

>  <score_type>  (77) 
oracle

>  <origin>  (77) 
adg

>  <m_score__min__energy>  (77) 
-15.91

>  <m_primary>  (77) 
energy

$$$$
77:0
     RDKit          3D

 55 58  0  0  0  0  0  0  0  0999 V2000
   60.6440   29.1170   49.6810 C   0  0  0  0  0  0  0  0  0  0  0  0
   60.1810   29.2420   48.2600 C   0  0  0  0  0  0  0  0  0  0  0  0
   61.0930   29.5320   47.2310 C   0  0  0  0  0  0  0  0  0  0  0  0
   60.6550   29.6450   45.9090 C   0  0  0  0  0  0  0  0  0  0  0  0
   59.2970   29.4820   45.6030 C   0  0  0  0  0  0  0  0  0  0  0  0
   58.8280   29.6160   44.2910 C   0  0  0  0  0  0  0  0  0  0  0  0
   57.4560   29.5060   44.0160 C   0  0  0  0  0  0  0  0  0  0  0  0
   56.9470   29.8190   42.6260 C   0  0  0  0  0  0  0  0  0  0  0  0
   57.0140   31.3230   42.3090 C   0  0  0  0  0  0  0  0  0  0  0  0
   57.9040   32.0140   43.2410 N   0  0  0  0  0  0  0  0  0  0  0  0
   57.4810   32.4310   44.5460 C   0  0  0  0  0  0  0  0  0  0  0  0
   56.4000   31.9870   45.0230 O   0  0  0  0  0  0  0  0  0  0  0  0
   58.3500   33.3040   45.3660 C   0  0  0  0  0  0  0  0  0  0  0  0
   58.7280   34.5770   44.9040 C   0  0  0  0  0  0  0  0  0  0  0  0
   59.6330   35.3530   45.6330 C   0  0  0  0  0  0  0  0  0  0  0  0
   60.1730   34.8680   46.8240 C   0  0  0  0  0  0  0  0  0  0  0  0
   59.7970   33.6070   47.3060 C   0  0  0  0  0  0  0  0  0  0  0  0
   60.4810   32.9870   48.8070 S   0  0  0  0  0  0  0  0  0  0  0  0
   59.4660   32.1100   49.4880 O   0  0  0  0  0  0  0  0  0  0  0  0
   60.7720   34.1450   49.7220 O   0  0  0  0  0  0  0  0  0  0  0  0
   61.9580   32.0800   48.5480 N   0  0  0  0  0  0  0  0  0  0  0  0
   62.5250   32.2930   47.2040 C   0  0  0  0  0  0  0  0  0  0  0  0
   63.3780   33.5810   47.1020 C   0  0  0  0  0  0  0  0  0  0  0  0
   63.6110   34.1970   48.3520 O   0  0  0  0  0  0  0  0  0  0  0  0
   64.0680   33.2370   49.2750 C   0  0  0  0  0  0  0  0  0  0  0  0
   62.9370   32.2610   49.6400 C   0  0  0  0  0  0  0  0  0  0  0  0
   58.8870   32.8300   46.5760 C   0  0  0  0  0  0  0  0  0  0  0  0
   56.5730   29.2280   45.0780 C   0  0  0  0  0  0  0  0  0  0  0  0
   55.3350   29.1250   44.8720 O   0  0  0  0  0  0  0  0  0  0  0  0
   57.0510   29.0840   46.3430 N   0  0  0  0  0  0  0  0  0  0  0  0
   58.3750   29.2100   46.6330 C   0  0  0  0  0  0  0  0  0  0  0  0
   58.8190   29.0890   47.9550 C   0  0  0  0  0  0  0  0  0  0  0  0
   59.8085   29.3426   50.3600 H   0  0  0  0  0  0  0  0  0  0  0  0
   60.9974   28.0913   49.8626 H   0  0  0  0  0  0  0  0  0  0  0  0
   61.4656   29.8255   49.8626 H   0  0  0  0  0  0  0  0  0  0  0  0
   62.1582   29.6709   47.4677 H   0  0  0  0  0  0  0  0  0  0  0  0
   61.3766   29.8621   45.1077 H   0  0  0  0  0  0  0  0  0  0  0  0
   59.5373   29.8082   43.4725 H   0  0  0  0  0  0  0  0  0  0  0  0
   57.5603   29.2745   41.8929 H   0  0  0  0  0  0  0  0  0  0  0  0
   55.8929   29.5090   42.5740 H   0  0  0  0  0  0  0  0  0  0  0  0
   57.3902   31.4586   41.2843 H   0  0  0  0  0  0  0  0  0  0  0  0
   56.0042   31.7480   42.4071 H   0  0  0  0  0  0  0  0  0  0  0  0
   58.3090   34.9642   43.9635 H   0  0  0  0  0  0  0  0  0  0  0  0
   59.9204   36.3495   45.2664 H   0  0  0  0  0  0  0  0  0  0  0  0
   60.8960   35.4770   47.3865 H   0  0  0  0  0  0  0  0  0  0  0  0
   63.1604   31.4313   46.9515 H   0  0  0  0  0  0  0  0  0  0  0  0
   61.6820   32.4016   46.5057 H   0  0  0  0  0  0  0  0  0  0  0  0
   64.3487   33.3224   46.6538 H   0  0  0  0  0  0  0  0  0  0  0  0
   62.8147   34.2971   46.4857 H   0  0  0  0  0  0  0  0  0  0  0  0
   64.9020   32.6747   48.8297 H   0  0  0  0  0  0  0  0  0  0  0  0
   64.4028   33.7516   50.1878 H   0  0  0  0  0  0  0  0  0  0  0  0
   63.3808   31.2833   49.8790 H   0  0  0  0  0  0  0  0  0  0  0  0
   62.3979   32.6872   50.4989 H   0  0  0  0  0  0  0  0  0  0  0  0
   58.5902   31.8402   46.9532 H   0  0  0  0  0  0  0  0  0  0  0  0
   58.0984   28.8733   48.7577 H   0  0  0  0  0  0  0  0  0  0  0  0
  1  2  1  0
  2  3  2  0
  3  4  1  0
  4  5  2  0
  5  6  1  0
  6  7  2  0
  7  8  1  0
  8  9  1  0
  9 10  1  0
 10 11  1  0
 11 12  2  0
 11 13  1  0
 13 14  2  0
 14 15  1  0
 15 16  2  0
 16 17  1  0
 17 18  1  0
 18 19  2  0
 18 20  2  0
 18 21  1  0
 21 22  1  0
 22 23  1  0
 23 24  1  0
 24 25  1  0
 25 26  1  0
 17 27  2  0
  7 28  1  0
 28 29  2  0
 28 30  1  0
 30 31  1  0
 31 32  2  0
 32  2  1  0
 31  5  1  0
 27 13  1  0
 26 21  1  0
  1 33  1  0
  1 34  1  0
  1 35  1  0
  3 36  1  0
  4 37  1  0
  6 38  1  0
  8 39  1  0
  8 40  1  0
  9 41  1  0
  9 42  1  0
 14 43  1  0
 15 44  1  0
 16 45  1  0
 22 46  1  0
 22 47  1  0
 23 48  1  0
 23 49  1  0
 25 50  1  0
 25 51  1  0
 26 52  1  0
 26 53  1  0
 27 54  1  0
 32 55  1  0
M  CHG  2  10  -1  30  -1
M  END
>  <UniqueID>  (78) 
74

>  <SMILES>  (78) 
Cc1ccc2cc(CC[N-]C(=O)c3cccc(S(=O)(=O)N4CCOCC4)c3)c(=O)[n-]c2c1

>  <Energy>  (78) 
65.74459853767958

>  <Genealogy>  (78) 
Cc1ccc2cc(CC[N-]C(=O)c3cccc(S(=O)(=O)N4CCOCC4)c3)c(=O)[n-]c2c1 (protonated)
Cc1ccc2cc(CC[N-]C(=O)c3cccc(S(=O)(=O)N4CCOCC4)c3)c(=O)[n-]c2c1 (3D coordinates assigned)
Cc1ccc2cc(CC[N-]C(=O)c3cccc(S(=O)(=O)N4CCOCC4)c3)c(=O)[n-]c2c1 (nonaromatic ring conformer: 65.74459853767958 kcal/mol)

>  <smiles>  (78) 
Cc1ccc2cc(CCNC(=O)c3cccc(S(=O)(=O)N4CCOCC4)c3)c(=O)[nH]c2c1

>  <score_type>  (78) 
oracle

>  <origin>  (78) 
adg

>  <m_score__min__energy>  (78) 
-12.57

>  <m_primary>  (78) 
energy

$$$$
78:0
     RDKit          3D

 41 43  0  0  0  0  0  0  0  0999 V2000
   59.3480   30.0220   48.5090 O   0  0  0  0  0  0  0  0  0  0  0  0
   59.6170   30.8240   47.5750 C   0  0  0  0  0  0  0  0  0  0  0  0
   59.7200   32.2950   47.8760 C   0  0  0  0  0  0  0  0  0  0  0  0
   59.0380   33.1030   46.8020 C   0  0  0  0  0  0  0  0  0  0  0  0
   59.8000   33.8870   45.9190 C   0  0  0  0  0  0  0  0  0  0  0  0
   59.1680   34.6900   44.9640 C   0  0  0  0  0  0  0  0  0  0  0  0
   57.7740   34.7080   44.8760 C   0  0  0  0  0  0  0  0  0  0  0  0
   57.0090   33.9210   45.7410 C   0  0  0  0  0  0  0  0  0  0  0  0
   57.6360   33.1190   46.7000 C   0  0  0  0  0  0  0  0  0  0  0  0
   59.7370   30.3170   46.2400 N   0  0  0  0  0  0  0  0  0  0  0  0
   58.6310   30.1150   45.3540 C   0  0  0  0  0  0  0  0  0  0  0  0
   58.3380   31.1070   44.4050 C   0  0  0  0  0  0  0  0  0  0  0  0
   57.2750   30.9470   43.5160 C   0  0  0  0  0  0  0  0  0  0  0  0
   56.4980   29.7900   43.5610 C   0  0  0  0  0  0  0  0  0  0  0  0
   56.7780   28.7940   44.4980 C   0  0  0  0  0  0  0  0  0  0  0  0
   57.8440   28.9350   45.4110 C   0  0  0  0  0  0  0  0  0  0  0  0
   58.0570   27.8750   46.4380 C   0  0  0  0  0  0  0  0  0  0  0  0
   59.1830   27.7720   46.9980 O   0  0  0  0  0  0  0  0  0  0  0  0
   57.0220   26.9310   46.7450 N   0  0  0  0  0  0  0  0  0  0  0  0
   56.7410   25.6940   46.0730 C   0  0  0  0  0  0  0  0  0  0  0  0
   57.7360   24.7260   45.8380 C   0  0  0  0  0  0  0  0  0  0  0  0
   57.4160   23.5280   45.1910 C   0  0  0  0  0  0  0  0  0  0  0  0
   58.7740   22.2230   44.8690 Br  0  0  0  0  0  0  0  0  0  0  0  0
   56.1000   23.2770   44.7920 C   0  0  0  0  0  0  0  0  0  0  0  0
   55.1020   24.2180   45.0500 C   0  0  0  0  0  0  0  0  0  0  0  0
   55.4160   25.4180   45.6960 C   0  0  0  0  0  0  0  0  0  0  0  0
   54.4070   26.3370   45.9620 O   0  0  0  0  0  0  0  0  0  0  0  0
   59.2395   32.5009   48.8439 H   0  0  0  0  0  0  0  0  0  0  0  0
   60.7826   32.5770   47.9123 H   0  0  0  0  0  0  0  0  0  0  0  0
   60.8982   33.8691   45.9792 H   0  0  0  0  0  0  0  0  0  0  0  0
   59.7695   35.3082   44.2813 H   0  0  0  0  0  0  0  0  0  0  0  0
   57.2784   35.3417   44.1258 H   0  0  0  0  0  0  0  0  0  0  0  0
   55.9115   33.9323   45.6675 H   0  0  0  0  0  0  0  0  0  0  0  0
   57.0301   32.4986   47.3767 H   0  0  0  0  0  0  0  0  0  0  0  0
   58.9521   32.0186   44.3620 H   0  0  0  0  0  0  0  0  0  0  0  0
   57.0499   31.7329   42.7800 H   0  0  0  0  0  0  0  0  0  0  0  0
   55.6628   29.6619   42.8567 H   0  0  0  0  0  0  0  0  0  0  0  0
   56.1582   27.8857   44.5248 H   0  0  0  0  0  0  0  0  0  0  0  0
   58.7696   24.9127   46.1647 H   0  0  0  0  0  0  0  0  0  0  0  0
   55.8511   22.3385   44.2750 H   0  0  0  0  0  0  0  0  0  0  0  0
   54.0650   24.0151   44.7442 H   0  0  0  0  0  0  0  0  0  0  0  0
  1  2  2  0
  2  3  1  0
  3  4  1  0
  4  5  2  0
  5  6  1  0
  6  7  2  0
  7  8  1  0
  8  9  2  0
  2 10  1  0
 10 11  1  0
 11 12  2  0
 12 13  1  0
 13 14  2  0
 14 15  1  0
 15 16  2  0
 16 17  1  0
 17 18  2  0
 17 19  1  0
 19 20  1  0
 20 21  2  0
 21 22  1  0
 22 23  1  0
 22 24  2  0
 24 25  1  0
 25 26  2  0
 26 27  1  0
  9  4  1  0
 16 11  1  0
 26 20  1  0
  3 28  1  0
  3 29  1  0
  5 30  1  0
  6 31  1  0
  7 32  1  0
  8 33  1  0
  9 34  1  0
 12 35  1  0
 13 36  1  0
 14 37  1  0
 15 38  1  0
 21 39  1  0
 24 40  1  0
 25 41  1  0
M  CHG  3  10  -1  19  -1  27  -1
M  END
>  <UniqueID>  (79) 
75

>  <SMILES>  (79) 
O=C(Cc1ccccc1)[N-]c1ccccc1C(=O)[N-]c1cc(Br)ccc1[O-]

>  <Energy>  (79) 
51.88970898326908

>  <Genealogy>  (79) 
O=C(Cc1ccccc1)[N-]c1ccccc1C(=O)[N-]c1cc(Br)ccc1[O-] (protonated)
O=C(Cc1ccccc1)[N-]c1ccccc1C(=O)[N-]c1cc(Br)ccc1[O-] (3D coordinates assigned)
O=C(Cc1ccccc1)[N-]c1ccccc1C(=O)[N-]c1cc(Br)ccc1[O-] (optimized conformer: 51.88970898326908 kcal/mol)

>  <smiles>  (79) 
O=C(Cc1ccccc1)Nc1ccccc1C(=O)Nc1cc(Br)ccc1O

>  <score_type>  (79) 
oracle

>  <origin>  (79) 
adg

>  <m_score__min__energy>  (79) 
-15.66

>  <m_primary>  (79) 
energy

$$$$
79:0
     RDKit          3D

 44 46  0  0  0  0  0  0  0  0999 V2000
   57.3734   32.0072   47.4775 H   0  0  0  0  0  0  0  0  0  0  0  0
   57.6590   32.7310   46.7000 C   0  0  0  0  0  0  0  0  0  0  0  0
   57.2840   32.4530   45.2980 C   0  0  0  0  0  0  0  0  0  0  0  0
   57.3430   33.3920   44.4620 O   0  0  0  0  0  0  0  0  0  0  0  0
   56.8160   31.1680   44.8590 N   0  0  0  0  0  0  0  0  0  0  0  0
   57.3200   30.0150   45.1980 C   0  0  0  0  0  0  0  0  0  0  0  0
   58.6430   29.8920   45.5080 N   0  0  0  0  0  0  0  0  0  0  0  0
   59.1940   28.6980   45.8560 C   0  0  0  0  0  0  0  0  0  0  0  0
   60.2635   28.6378   46.1059 H   0  0  0  0  0  0  0  0  0  0  0  0
   58.4020   27.5490   45.8960 C   0  0  0  0  0  0  0  0  0  0  0  0
   58.8409   26.5808   46.1790 H   0  0  0  0  0  0  0  0  0  0  0  0
   57.0470   27.6420   45.5730 C   0  0  0  0  0  0  0  0  0  0  0  0
   56.4120   26.7441   45.5973 H   0  0  0  0  0  0  0  0  0  0  0  0
   56.4990   28.8770   45.2190 C   0  0  0  0  0  0  0  0  0  0  0  0
   55.1490   28.9690   44.8950 O   0  0  0  0  0  0  0  0  0  0  0  0
   58.3330   33.8300   47.0600 C   0  0  0  0  0  0  0  0  0  0  0  0
   57.7801   34.7750   47.1664 H   0  0  0  0  0  0  0  0  0  0  0  0
   59.7890   33.8290   47.3210 C   0  0  0  0  0  0  0  0  0  0  0  0
   60.6570   33.7790   46.2180 C   0  0  0  0  0  0  0  0  0  0  0  0
   60.2433   33.7530   45.1991 H   0  0  0  0  0  0  0  0  0  0  0  0
   62.0400   33.7620   46.4040 C   0  0  0  0  0  0  0  0  0  0  0  0
   62.7112   33.7336   45.5330 H   0  0  0  0  0  0  0  0  0  0  0  0
   62.5720   33.7810   47.6930 C   0  0  0  0  0  0  0  0  0  0  0  0
   63.6625   33.7779   47.8369 H   0  0  0  0  0  0  0  0  0  0  0  0
   61.7230   33.8040   48.8010 C   0  0  0  0  0  0  0  0  0  0  0  0
   62.1494   33.8152   49.8149 H   0  0  0  0  0  0  0  0  0  0  0  0
   60.3240   33.8130   48.6310 C   0  0  0  0  0  0  0  0  0  0  0  0
   59.4470   33.7770   49.7300 O   0  0  0  0  0  0  0  0  0  0  0  0
   59.6220   32.9930   50.9090 C   0  0  0  0  0  0  0  0  0  0  0  0
   59.3031   33.5799   51.7830 H   0  0  0  0  0  0  0  0  0  0  0  0
   60.6842   32.7212   50.9971 H   0  0  0  0  0  0  0  0  0  0  0  0
   58.8070   31.7330   50.8380 C   0  0  0  0  0  0  0  0  0  0  0  0
   57.7320   31.3640   51.6270 C   0  0  0  0  0  0  0  0  0  0  0  0
   57.0670   32.1900   52.6800 C   0  0  0  0  0  0  0  0  0  0  0  0
   57.3621   31.8235   53.6743 H   0  0  0  0  0  0  0  0  0  0  0  0
   57.3743   33.2405   52.5704 H   0  0  0  0  0  0  0  0  0  0  0  0
   55.9751   32.1140   52.5704 H   0  0  0  0  0  0  0  0  0  0  0  0
   57.3140   30.1350   51.2650 N   0  0  0  0  0  0  0  0  0  0  0  0
   58.1030   29.7290   50.3120 O   0  0  0  0  0  0  0  0  0  0  0  0
   59.0120   30.6330   50.0280 C   0  0  0  0  0  0  0  0  0  0  0  0
   60.0710   30.4650   48.9890 C   0  0  0  0  0  0  0  0  0  0  0  0
   61.0439   30.3107   49.4786 H   0  0  0  0  0  0  0  0  0  0  0  0
   59.8340   29.5932   48.3614 H   0  0  0  0  0  0  0  0  0  0  0  0
   60.1154   31.3673   48.3614 H   0  0  0  0  0  0  0  0  0  0  0  0
  1  2  1  0
  2  3  1  0
  3  4  2  0
  3  5  1  0
  5  6  2  3
  6  7  1  0
  7  8  1  0
  8  9  1  0
  8 10  2  0
 10 11  1  0
 10 12  1  0
 12 13  1  0
 12 14  2  0
 14 15  1  0
  2 16  2  0
 16 17  1  0
 16 18  1  0
 18 19  2  0
 19 20  1  0
 19 21  1  0
 21 22  1  0
 21 23  2  0
 23 24  1  0
 23 25  1  0
 25 26  1  0
 25 27  2  0
 27 28  1  0
 28 29  1  0
 29 30  1  0
 29 31  1  0
 29 32  1  0
 32 33  1  0
 33 34  1  0
 34 35  1  0
 34 36  1  0
 34 37  1  0
 33 38  2  0
 38 39  1  0
 39 40  1  0
 40 41  1  0
 41 42  1  0
 41 43  1  0
 41 44  1  0
 14  6  1  0
 27 18  1  0
 40 32  2  0
M  CHG  2   7  -1  15  -1
M  END
>  <UniqueID>  (80) 
76

>  <SMILES>  (80) 
Cc1noc(C)c1COc1ccccc1/C=C/C(=O)N=c1[n-]cccc1[O-]

>  <Energy>  (80) 
85.17254063842134

>  <Genealogy>  (80) 
Cc1noc(C)c1COc1ccccc1C=CC(=O)N=c1[n-]cccc1[O-] (protonated)
Cc1noc(C)c1COc1ccccc1/C=C/C(=O)N=c1[n-]cccc1[O-] (cis-trans isomerization)
Cc1noc(C)c1COc1ccccc1/C=C/C(=O)N=c1[n-]cccc1[O-] (3D coordinates assigned)
Cc1noc(C)c1COc1ccccc1/C=C/C(=O)N=c1[n-]cccc1[O-] (optimized conformer: 85.17254063842134 kcal/mol)

>  <smiles>  (80) 
Cc1noc(C)c1COc1ccccc1C=CC(=O)N=c1[nH]cccc1O

>  <score_type>  (80) 
oracle

>  <origin>  (80) 
adg

>  <m_score__min__energy>  (80) 
-14.26

>  <m_primary>  (80) 
energy

$$$$
80:0
     RDKit          3D

 52 54  0  0  0  0  0  0  0  0999 V2000
   59.7970   33.9160   50.4610 C   0  0  0  0  0  0  0  0  0  0  0  0
   58.8710   32.8700   51.0230 C   0  0  0  0  0  0  0  0  0  0  0  0
   58.3420   33.0730   52.3090 C   0  0  0  0  0  0  0  0  0  0  0  0
   57.4600   32.1540   52.8740 C   0  0  0  0  0  0  0  0  0  0  0  0
   57.0760   31.0070   52.1650 C   0  0  0  0  0  0  0  0  0  0  0  0
   56.1400   30.0280   52.7670 C   0  0  0  0  0  0  0  0  0  0  0  0
   56.2740   29.6850   53.9730 O   0  0  0  0  0  0  0  0  0  0  0  0
   55.0800   29.4670   51.9810 N   0  0  0  0  0  0  0  0  0  0  0  0
   53.6770   29.4850   52.3820 C   0  0  0  0  0  0  0  0  0  0  0  0
   53.0410   30.8370   52.0480 C   0  0  0  0  0  0  0  0  0  0  0  0
   52.3210   30.7700   50.7250 C   0  0  0  0  0  0  0  0  0  0  0  0
   52.5940   29.7140   49.8370 C   0  0  0  0  0  0  0  0  0  0  0  0
   51.9170   29.6220   48.6180 C   0  0  0  0  0  0  0  0  0  0  0  0
   50.9560   30.5760   48.2780 C   0  0  0  0  0  0  0  0  0  0  0  0
   50.6680   31.6240   49.1570 C   0  0  0  0  0  0  0  0  0  0  0  0
   51.3390   31.7220   50.3800 C   0  0  0  0  0  0  0  0  0  0  0  0
   51.0250   32.7640   51.2460 O   0  0  0  0  0  0  0  0  0  0  0  0
   57.5910   30.8040   50.8750 C   0  0  0  0  0  0  0  0  0  0  0  0
   58.4810   31.7180   50.2890 C   0  0  0  0  0  0  0  0  0  0  0  0
   59.0630   31.3570   48.6460 S   0  0  0  0  0  0  0  0  0  0  0  0
   60.5640   31.4580   48.6420 O   0  0  0  0  0  0  0  0  0  0  0  0
   58.7140   29.9530   48.2380 O   0  0  0  0  0  0  0  0  0  0  0  0
   58.4110   32.4720   47.4670 N   0  0  0  0  0  0  0  0  0  0  0  0
   59.3030   33.6370   47.3060 C   0  0  0  0  0  0  0  0  0  0  0  0
   58.8980   34.5240   46.1060 C   0  0  0  0  0  0  0  0  0  0  0  0
   57.4880   34.1950   45.6060 C   0  0  0  0  0  0  0  0  0  0  0  0
   57.3650   32.7070   45.2410 C   0  0  0  0  0  0  0  0  0  0  0  0
   58.1880   31.8000   46.1760 C   0  0  0  0  0  0  0  0  0  0  0  0
   60.2790   34.4605   51.2863 H   0  0  0  0  0  0  0  0  0  0  0  0
   60.5667   33.4305   49.8431 H   0  0  0  0  0  0  0  0  0  0  0  0
   59.2217   34.6211   49.8431 H   0  0  0  0  0  0  0  0  0  0  0  0
   58.6282   33.9701   52.8776 H   0  0  0  0  0  0  0  0  0  0  0  0
   57.0619   32.3298   53.8842 H   0  0  0  0  0  0  0  0  0  0  0  0
   53.1375   28.6893   51.8474 H   0  0  0  0  0  0  0  0  0  0  0  0
   53.6153   29.3215   53.4680 H   0  0  0  0  0  0  0  0  0  0  0  0
   52.3232   31.1042   52.8375 H   0  0  0  0  0  0  0  0  0  0  0  0
   53.8340   31.5966   51.9832 H   0  0  0  0  0  0  0  0  0  0  0  0
   53.3451   28.9559   50.1037 H   0  0  0  0  0  0  0  0  0  0  0  0
   52.1414   28.7972   47.9257 H   0  0  0  0  0  0  0  0  0  0  0  0
   50.4250   30.5029   47.3175 H   0  0  0  0  0  0  0  0  0  0  0  0
   49.9108   32.3744   48.8857 H   0  0  0  0  0  0  0  0  0  0  0  0
   57.2905   29.9088   50.3107 H   0  0  0  0  0  0  0  0  0  0  0  0
   59.2629   34.2428   48.2233 H   0  0  0  0  0  0  0  0  0  0  0  0
   60.3191   33.2598   47.1182 H   0  0  0  0  0  0  0  0  0  0  0  0
   58.9286   35.5788   46.4165 H   0  0  0  0  0  0  0  0  0  0  0  0
   59.6051   34.3329   45.2854 H   0  0  0  0  0  0  0  0  0  0  0  0
   56.7615   34.4324   46.3971 H   0  0  0  0  0  0  0  0  0  0  0  0
   57.2874   34.7940   44.7055 H   0  0  0  0  0  0  0  0  0  0  0  0
   56.3068   32.4140   45.3069 H   0  0  0  0  0  0  0  0  0  0  0  0
   57.7573   32.5795   44.2213 H   0  0  0  0  0  0  0  0  0  0  0  0
   57.6416   30.8604   46.3448 H   0  0  0  0  0  0  0  0  0  0  0  0
   59.1607   31.5889   45.7077 H   0  0  0  0  0  0  0  0  0  0  0  0
  1  2  1  0
  2  3  2  0
  3  4  1  0
  4  5  2  0
  5  6  1  0
  6  7  2  0
  6  8  1  0
  8  9  1  0
  9 10  1  0
 10 11  1  0
 11 12  2  0
 12 13  1  0
 13 14  2  0
 14 15  1  0
 15 16  2  0
 16 17  1  0
  5 18  1  0
 18 19  2  0
 19 20  1  0
 20 21  2  0
 20 22  2  0
 20 23  1  0
 23 24  1  0
 24 25  1  0
 25 26  1  0
 26 27  1  0
 27 28  1  0
 19  2  1  0
 28 23  1  0
 16 11  1  0
  1 29  1  0
  1 30  1  0
  1 31  1  0
  3 32  1  0
  4 33  1  0
  9 34  1  0
  9 35  1  0
 10 36  1  0
 10 37  1  0
 12 38  1  0
 13 39  1  0
 14 40  1  0
 15 41  1  0
 18 42  1  0
 24 43  1  0
 24 44  1  0
 25 45  1  0
 25 46  1  0
 26 47  1  0
 26 48  1  0
 27 49  1  0
 27 50  1  0
 28 51  1  0
 28 52  1  0
M  CHG  2   8  -1  17  -1
M  END
>  <UniqueID>  (81) 
77

>  <SMILES>  (81) 
Cc1ccc(C(=O)[N-]CCc2ccccc2[O-])cc1S(=O)(=O)N1CCCCC1

>  <Energy>  (81) 
55.71420970741391

>  <Genealogy>  (81) 
Cc1ccc(C(=O)[N-]CCc2ccccc2[O-])cc1S(=O)(=O)N1CCCCC1 (protonated)
Cc1ccc(C(=O)[N-]CCc2ccccc2[O-])cc1S(=O)(=O)N1CCCCC1 (3D coordinates assigned)
Cc1ccc(C(=O)[N-]CCc2ccccc2[O-])cc1S(=O)(=O)N1CCCCC1 (nonaromatic ring conformer: 55.71420970741391 kcal/mol)

>  <smiles>  (81) 
Cc1ccc(C(=O)NCCc2ccccc2O)cc1S(=O)(=O)N1CCCCC1

>  <score_type>  (81) 
oracle

>  <origin>  (81) 
adg

>  <m_score__min__energy>  (81) 
-15.289999999999999

>  <m_primary>  (81) 
energy

$$$$
81:0
     RDKit          3D

 48 50  0  0  0  0  0  0  0  0999 V2000
   62.9600   32.5120   47.4850 C   0  0  0  0  0  0  0  0  0  0  0  0
   61.7430   32.0620   47.1730 C   0  0  0  0  0  0  0  0  0  0  0  0
   60.9930   31.0550   47.9650 C   0  0  0  0  0  0  0  0  0  0  0  0
   60.1850   31.5010   49.0230 C   0  0  0  0  0  0  0  0  0  0  0  0
   59.4420   30.5940   49.7820 C   0  0  0  0  0  0  0  0  0  0  0  0
   59.4970   29.2290   49.4970 C   0  0  0  0  0  0  0  0  0  0  0  0
   60.3010   28.7560   48.4480 C   0  0  0  0  0  0  0  0  0  0  0  0
   60.3630   27.3050   48.1490 C   0  0  0  0  0  0  0  0  0  0  0  0
   61.0500   26.5470   48.8830 O   0  0  0  0  0  0  0  0  0  0  0  0
   59.6120   26.7270   47.0680 N   0  0  0  0  0  0  0  0  0  0  0  0
   58.5500   27.2550   46.5300 C   0  0  0  0  0  0  0  0  0  0  0  0
   57.3460   26.5440   46.5360 C   0  0  0  0  0  0  0  0  0  0  0  0
   56.2030   27.1230   45.9800 C   0  0  0  0  0  0  0  0  0  0  0  0
   54.9980   26.4300   45.9980 O   0  0  0  0  0  0  0  0  0  0  0  0
   56.2750   28.3970   45.4060 C   0  0  0  0  0  0  0  0  0  0  0  0
   55.1410   28.9700   44.8360 O   0  0  0  0  0  0  0  0  0  0  0  0
   57.5040   29.0750   45.3990 C   0  0  0  0  0  0  0  0  0  0  0  0
   57.6400   30.4010   44.7800 C   0  0  0  0  0  0  0  0  0  0  0  0
   58.1320   30.4920   43.6250 O   0  0  0  0  0  0  0  0  0  0  0  0
   57.2420   31.5920   45.4660 N   0  0  0  0  0  0  0  0  0  0  0  0
   57.9700   32.1480   46.6010 C   0  0  0  0  0  0  0  0  0  0  0  0
   57.7780   33.6780   46.6550 C   0  0  0  0  0  0  0  0  0  0  0  0
   58.9140   34.3750   47.4420 C   0  0  0  0  0  0  0  0  0  0  0  0
   60.0390   34.8750   46.5150 C   0  0  0  0  0  0  0  0  0  0  0  0
   60.1500   34.0510   45.3730 O   0  0  0  0  0  0  0  0  0  0  0  0
   59.0410   34.2480   44.5080 C   0  0  0  0  0  0  0  0  0  0  0  0
   57.6760   34.2740   45.2390 C   0  0  0  0  0  0  0  0  0  0  0  0
   58.5990   28.4880   45.9490 N   0  0  0  0  0  0  0  0  0  0  0  0
   61.0310   29.6770   47.6740 C   0  0  0  0  0  0  0  0  0  0  0  0
   63.4503   33.2607   46.8454 H   0  0  0  0  0  0  0  0  0  0  0  0
   63.4729   32.1343   48.3818 H   0  0  0  0  0  0  0  0  0  0  0  0
   61.2635   32.4642   46.2684 H   0  0  0  0  0  0  0  0  0  0  0  0
   60.1366   32.5749   49.2564 H   0  0  0  0  0  0  0  0  0  0  0  0
   58.8114   30.9568   50.6071 H   0  0  0  0  0  0  0  0  0  0  0  0
   58.9075   28.5203   50.0972 H   0  0  0  0  0  0  0  0  0  0  0  0
   57.2994   25.5366   46.9752 H   0  0  0  0  0  0  0  0  0  0  0  0
   57.5904   31.7005   47.5314 H   0  0  0  0  0  0  0  0  0  0  0  0
   59.0407   31.9230   46.4875 H   0  0  0  0  0  0  0  0  0  0  0  0
   56.8331   33.8620   47.1872 H   0  0  0  0  0  0  0  0  0  0  0  0
   58.4938   35.2343   47.9852 H   0  0  0  0  0  0  0  0  0  0  0  0
   59.3478   33.6386   48.1345 H   0  0  0  0  0  0  0  0  0  0  0  0
   59.8141   35.9038   46.1972 H   0  0  0  0  0  0  0  0  0  0  0  0
   60.9904   34.8444   47.0662 H   0  0  0  0  0  0  0  0  0  0  0  0
   59.1737   35.2075   43.9867 H   0  0  0  0  0  0  0  0  0  0  0  0
   59.0181   33.3931   43.8162 H   0  0  0  0  0  0  0  0  0  0  0  0
   57.3317   35.3160   45.3146 H   0  0  0  0  0  0  0  0  0  0  0  0
   56.9652   33.6654   44.6607 H   0  0  0  0  0  0  0  0  0  0  0  0
   61.6390   29.3165   46.8311 H   0  0  0  0  0  0  0  0  0  0  0  0
  1  2  2  0
  2  3  1  0
  3  4  2  0
  4  5  1  0
  5  6  2  0
  6  7  1  0
  7  8  1  0
  8  9  2  0
  8 10  1  0
 10 11  2  3
 11 12  1  0
 12 13  2  0
 13 14  1  0
 13 15  1  0
 15 16  1  0
 15 17  2  0
 17 18  1  0
 18 19  2  0
 18 20  1  0
 20 21  1  0
 21 22  1  0
 22 23  1  0
 23 24  1  0
 24 25  1  0
 25 26  1  0
 26 27  1  0
 17 28  1  0
  7 29  2  0
 29  3  1  0
 28 11  1  0
 27 22  1  0
  1 30  1  0
  1 31  1  0
  2 32  1  0
  4 33  1  0
  5 34  1  0
  6 35  1  0
 12 36  1  0
 21 37  1  0
 21 38  1  0
 22 39  1  0
 23 40  1  0
 23 41  1  0
 24 42  1  0
 24 43  1  0
 26 44  1  0
 26 45  1  0
 27 46  1  0
 27 47  1  0
 29 48  1  0
M  CHG  4  14  -1  16  -1  20  -1  28  -1
M  END
>  <UniqueID>  (82) 
78

>  <SMILES>  (82) 
C=Cc1cccc(C(=O)N=c2cc([O-])c([O-])c(C(=O)[N-]CC3CCOCC3)[n-]2)c1

>  <Energy>  (82) 
67.40914721528894

>  <Genealogy>  (82) 
C=Cc1cccc(C(=O)N=c2cc([O-])c([O-])c(C(=O)[N-]CC3CCOCC3)[n-]2)c1 (protonated)
C=Cc1cccc(C(=O)N=c2cc([O-])c([O-])c(C(=O)[N-]CC3CCOCC3)[n-]2)c1 (3D coordinates assigned)
C=Cc1cccc(C(=O)N=c2cc([O-])c([O-])c(C(=O)[N-]CC3CCOCC3)[n-]2)c1 (nonaromatic ring conformer: 67.40914721528894 kcal/mol)

>  <smiles>  (82) 
C=Cc1cccc(C(=O)N=c2cc(O)c(O)c(C(=O)NCC3CCOCC3)[nH]2)c1

>  <score_type>  (82) 
oracle

>  <origin>  (82) 
adg

>  <m_score__min__energy>  (82) 
-18.75

>  <m_primary>  (82) 
energy

$$$$
82:0
     RDKit          3D

 40 42  0  0  0  0  0  0  0  0999 V2000
   60.3680   27.1860   46.0220 H   0  0  0  0  0  0  0  0  0  0  0  0
   59.9780   26.3630   46.4640 O   0  0  0  0  0  0  0  0  0  0  0  0
   58.6180   26.0500   46.4120 C   0  0  0  0  0  0  0  0  0  0  0  0
   58.2220   24.7240   46.1630 C   0  0  0  0  0  0  0  0  0  0  0  0
   59.1940   23.7310   46.0470 O   0  0  0  0  0  0  0  0  0  0  0  0
   56.8570   24.4020   46.0220 C   0  0  0  0  0  0  0  0  0  0  0  0
   56.4710   23.1360   45.7840 C   0  0  0  0  0  0  0  0  0  0  0  0
   55.4025   22.8979   45.6760 H   0  0  0  0  0  0  0  0  0  0  0  0
   57.2237   22.3386   45.6973 H   0  0  0  0  0  0  0  0  0  0  0  0
   55.9120   25.4410   46.1270 C   0  0  0  0  0  0  0  0  0  0  0  0
   54.6790   25.2180   45.9880 O   0  0  0  0  0  0  0  0  0  0  0  0
   56.3230   26.7080   46.3870 N   0  0  0  0  0  0  0  0  0  0  0  0
   57.6270   27.0520   46.5600 C   0  0  0  0  0  0  0  0  0  0  0  0
   57.8900   28.3440   46.8390 C   0  0  0  0  0  0  0  0  0  0  0  0
   58.4144   28.5532   47.7831 H   0  0  0  0  0  0  0  0  0  0  0  0
   57.5410   29.5030   45.9980 C   0  0  0  0  0  0  0  0  0  0  0  0
   56.4270   29.6260   45.1810 C   0  0  0  0  0  0  0  0  0  0  0  0
   55.5160   28.6080   44.9320 O   0  0  0  0  0  0  0  0  0  0  0  0
   56.3130   30.8640   44.6470 N   0  0  0  0  0  0  0  0  0  0  0  0
   57.3610   31.5390   45.1580 C   0  0  0  0  0  0  0  0  0  0  0  0
   57.6690   32.8790   44.9420 C   0  0  0  0  0  0  0  0  0  0  0  0
   57.0591   33.4982   44.2677 H   0  0  0  0  0  0  0  0  0  0  0  0
   58.7830   33.4190   45.6110 C   0  0  0  0  0  0  0  0  0  0  0  0
   59.0538   34.4738   45.4555 H   0  0  0  0  0  0  0  0  0  0  0  0
   59.5580   32.6170   46.4820 C   0  0  0  0  0  0  0  0  0  0  0  0
   60.9300   33.3200   47.3350 S   0  0  0  0  0  0  0  0  0  0  0  0
   61.7390   34.1720   46.3960 O   0  0  0  0  0  0  0  0  0  0  0  0
   60.4200   34.1930   48.4480 O   0  0  0  0  0  0  0  0  0  0  0  0
   61.9280   32.0680   48.0060 N   0  0  0  0  0  0  0  0  0  0  0  0
   63.2550   32.1110   47.3970 C   0  0  0  0  0  0  0  0  0  0  0  0
   63.7119   31.1117   47.4473 H   0  0  0  0  0  0  0  0  0  0  0  0
   63.1615   32.4247   46.3468 H   0  0  0  0  0  0  0  0  0  0  0  0
   64.1370   33.1090   48.1430 C   0  0  0  0  0  0  0  0  0  0  0  0
   64.8373   32.5602   48.7899 H   0  0  0  0  0  0  0  0  0  0  0  0
   64.6917   33.7116   47.4088 H   0  0  0  0  0  0  0  0  0  0  0  0
   63.3530   33.9640   48.9320 O   0  0  0  0  0  0  0  0  0  0  0  0
   62.5090   34.1200   48.4320 H   0  0  0  0  0  0  0  0  0  0  0  0
   59.2140   31.2660   46.6890 C   0  0  0  0  0  0  0  0  0  0  0  0
   59.7928   30.6329   47.3776 H   0  0  0  0  0  0  0  0  0  0  0  0
   58.1170   30.7560   45.9940 C   0  0  0  0  0  0  0  0  0  0  0  0
  1  2  1  0
  2  3  1  0
  3  4  2  0
  4  5  1  0
  4  6  1  0
  6  7  2  0
  7  8  1  0
  7  9  1  0
  6 10  1  0
 10 11  2  0
 10 12  1  0
 12 13  1  0
 13 14  2  0
 14 15  1  0
 14 16  1  0
 16 17  2  0
 17 18  1  0
 17 19  1  0
 19 20  1  0
 20 21  2  0
 21 22  1  0
 21 23  1  0
 23 24  1  0
 23 25  2  0
 25 26  1  0
 26 27  2  0
 26 28  2  0
 26 29  1  0
 29 30  1  0
 30 31  1  0
 30 32  1  0
 30 33  1  0
 33 34  1  0
 33 35  1  0
 33 36  1  0
 36 37  1  0
 25 38  1  0
 38 39  1  0
 38 40  2  0
 13  3  1  0
 40 16  1  0
 40 20  1  0
M  CHG  5   5  -1  12  -1  18  -1  19  -1  29  -1
M  END
>  <UniqueID>  (83) 
79

>  <SMILES>  (83) 
C=c1c([O-])c(O)/c(=C\c2c([O-])[n-]c3ccc(S(=O)(=O)[N-]CCO)cc23)[n-]c1=O

>  <Energy>  (83) 
86.56185375977051

>  <Genealogy>  (83) 
C=c1c([O-])c(O)c(=Cc2c([O-])[n-]c3ccc(S(=O)(=O)[N-]CCO)cc23)[n-]c1=O (protonated)
C=c1c([O-])c(O)/c(=C\c2c([O-])[n-]c3ccc(S(=O)(=O)[N-]CCO)cc23)[n-]c1=O (cis-trans isomerization)
C=c1c([O-])c(O)/c(=C\c2c([O-])[n-]c3ccc(S(=O)(=O)[N-]CCO)cc23)[n-]c1=O (3D coordinates assigned)
C=c1c([O-])c(O)/c(=C\c2c([O-])[n-]c3ccc(S(=O)(=O)[N-]CCO)cc23)[n-]c1=O (optimized conformer: 86.56185375977051 kcal/mol)

>  <smiles>  (83) 
C=c1c(O)c(O)c(=Cc2c(O)[nH]c3ccc(S(=O)(=O)NCCO)cc23)[nH]c1=O

>  <score_type>  (83) 
oracle

>  <origin>  (83) 
adg

>  <m_score__min__energy>  (83) 
-15.859999999999999

>  <m_primary>  (83) 
energy

$$$$
83:0
     RDKit          3D

 62 65  0  0  0  0  0  0  0  0999 V2000
   57.6417   28.4220   42.9028 H   0  0  0  0  0  0  0  0  0  0  0  0
   57.3920   28.5610   43.9650 C   0  0  0  0  0  0  0  0  0  0  0  0
   56.2690   29.4570   44.3200 C   0  0  0  0  0  0  0  0  0  0  0  0
   55.2060   28.9790   44.7990 O   0  0  0  0  0  0  0  0  0  0  0  0
   56.3330   30.8660   44.0640 N   0  0  0  0  0  0  0  0  0  0  0  0
   57.1480   31.8060   44.7760 C   0  0  0  0  0  0  0  0  0  0  0  0
   56.6290   33.0290   45.2310 C   0  0  0  0  0  0  0  0  0  0  0  0
   55.5866   33.2994   45.0065 H   0  0  0  0  0  0  0  0  0  0  0  0
   57.4320   33.9040   45.9680 C   0  0  0  0  0  0  0  0  0  0  0  0
   57.0183   34.8581   46.3266 H   0  0  0  0  0  0  0  0  0  0  0  0
   58.7620   33.5690   46.2510 C   0  0  0  0  0  0  0  0  0  0  0  0
   59.7400   34.6210   47.2770 S   0  0  0  0  0  0  0  0  0  0  0  0
   61.1860   34.5020   46.8820 O   0  0  0  0  0  0  0  0  0  0  0  0
   59.3160   36.0490   47.0680 O   0  0  0  0  0  0  0  0  0  0  0  0
   59.5700   34.2020   48.9660 N   0  0  0  0  0  0  0  0  0  0  0  0
   58.8980   32.8980   49.1050 C   0  0  0  0  0  0  0  0  0  0  0  0
   57.9862   32.8918   48.4897 H   0  0  0  0  0  0  0  0  0  0  0  0
   59.5824   32.1044   48.7707 H   0  0  0  0  0  0  0  0  0  0  0  0
   58.5200   32.6480   50.5770 C   0  0  0  0  0  0  0  0  0  0  0  0
   57.4785   32.9663   50.7317 H   0  0  0  0  0  0  0  0  0  0  0  0
   58.6512   31.5741   50.7757 H   0  0  0  0  0  0  0  0  0  0  0  0
   59.4220   33.4170   51.5620 C   0  0  0  0  0  0  0  0  0  0  0  0
   58.9120   34.6910   51.7610 F   0  0  0  0  0  0  0  0  0  0  0  0
   59.4400   32.7590   52.7790 F   0  0  0  0  0  0  0  0  0  0  0  0
   60.8530   33.5250   51.0210 C   0  0  0  0  0  0  0  0  0  0  0  0
   61.4518   34.1297   51.7180 H   0  0  0  0  0  0  0  0  0  0  0  0
   61.2595   32.5071   50.9281 H   0  0  0  0  0  0  0  0  0  0  0  0
   60.8940   34.1860   49.6240 C   0  0  0  0  0  0  0  0  0  0  0  0
   61.2456   35.2224   49.7343 H   0  0  0  0  0  0  0  0  0  0  0  0
   61.5733   33.5934   48.9937 H   0  0  0  0  0  0  0  0  0  0  0  0
   59.2940   32.3750   45.7490 C   0  0  0  0  0  0  0  0  0  0  0  0
   60.3465   32.1207   45.9430 H   0  0  0  0  0  0  0  0  0  0  0  0
   58.4950   31.5050   45.0030 C   0  0  0  0  0  0  0  0  0  0  0  0
   58.9267   30.5801   44.5927 H   0  0  0  0  0  0  0  0  0  0  0  0
   58.1160   27.9130   44.8860 C   0  0  0  0  0  0  0  0  0  0  0  0
   58.1563   26.8143   44.8498 H   0  0  0  0  0  0  0  0  0  0  0  0
   58.8650   28.6180   45.9520 C   0  0  0  0  0  0  0  0  0  0  0  0
   58.2840   28.8750   47.2080 C   0  0  0  0  0  0  0  0  0  0  0  0
   57.2487   28.5600   47.4052 H   0  0  0  0  0  0  0  0  0  0  0  0
   59.0120   29.5270   48.2060 C   0  0  0  0  0  0  0  0  0  0  0  0
   58.5490   29.7138   49.1862 H   0  0  0  0  0  0  0  0  0  0  0  0
   60.3290   29.9450   47.9670 C   0  0  0  0  0  0  0  0  0  0  0  0
   61.0970   30.6290   49.0310 C   0  0  0  0  0  0  0  0  0  0  0  0
   60.6080   30.6940   50.1920 O   0  0  0  0  0  0  0  0  0  0  0  0
   62.3770   31.2360   48.7660 N   0  0  0  0  0  0  0  0  0  0  0  0
   63.4450   31.2030   49.7680 C   0  0  0  0  0  0  0  0  0  0  0  0
   63.0227   30.9335   50.7473 H   0  0  0  0  0  0  0  0  0  0  0  0
   64.1994   30.4560   49.4800 H   0  0  0  0  0  0  0  0  0  0  0  0
   64.0960   32.5850   49.8540 C   0  0  0  0  0  0  0  0  0  0  0  0
   63.3653   33.3054   50.2503 H   0  0  0  0  0  0  0  0  0  0  0  0
   64.9696   32.5261   50.5198 H   0  0  0  0  0  0  0  0  0  0  0  0
   64.5240   33.0120   48.5730 O   0  0  0  0  0  0  0  0  0  0  0  0
   63.4040   33.2010   47.7270 C   0  0  0  0  0  0  0  0  0  0  0  0
   62.7116   33.9125   48.2006 H   0  0  0  0  0  0  0  0  0  0  0  0
   63.7566   33.5912   46.7609 H   0  0  0  0  0  0  0  0  0  0  0  0
   62.6720   31.8780   47.4810 C   0  0  0  0  0  0  0  0  0  0  0  0
   61.7318   32.0734   46.9444 H   0  0  0  0  0  0  0  0  0  0  0  0
   63.3079   31.2141   46.8770 H   0  0  0  0  0  0  0  0  0  0  0  0
   60.9190   29.6670   46.7230 C   0  0  0  0  0  0  0  0  0  0  0  0
   61.9582   29.9729   46.5318 H   0  0  0  0  0  0  0  0  0  0  0  0
   60.1970   29.0050   45.7260 C   0  0  0  0  0  0  0  0  0  0  0  0
   60.7960   28.7550   44.5330 F   0  0  0  0  0  0  0  0  0  0  0  0
  1  2  1  0
  2  3  1  0
  3  4  2  0
  3  5  1  0
  5  6  1  0
  6  7  2  0
  7  8  1  0
  7  9  1  0
  9 10  1  0
  9 11  2  0
 11 12  1  0
 12 13  2  0
 12 14  2  0
 12 15  1  0
 15 16  1  0
 16 17  1  0
 16 18  1  0
 16 19  1  0
 19 20  1  0
 19 21  1  0
 19 22  1  0
 22 23  1  0
 22 24  1  0
 22 25  1  0
 25 26  1  0
 25 27  1  0
 25 28  1  0
 28 29  1  0
 28 30  1  0
 11 31  1  0
 31 32  1  0
 31 33  2  0
 33 34  1  0
  2 35  2  0
 35 36  1  0
 35 37  1  0
 37 38  2  0
 38 39  1  0
 38 40  1  0
 40 41  1  0
 40 42  2  0
 42 43  1  0
 43 44  2  0
 43 45  1  0
 45 46  1  0
 46 47  1  0
 46 48  1  0
 46 49  1  0
 49 50  1  0
 49 51  1  0
 49 52  1  0
 52 53  1  0
 53 54  1  0
 53 55  1  0
 53 56  1  0
 56 57  1  0
 56 58  1  0
 42 59  1  0
 59 60  1  0
 59 61  2  0
 61 62  1  0
 33  6  1  0
 61 37  1  0
 28 15  1  0
 56 45  1  0
M  CHG  1   5  -1
M  END
>  <UniqueID>  (84) 
80

>  <SMILES>  (84) 
O=C(/C=C/c1ccc(C(=O)N2CCOCC2)cc1F)[N-]c1ccc(S(=O)(=O)N2CCC(F)(F)CC2)cc1

>  <Energy>  (84) 
81.21887790172597

>  <Genealogy>  (84) 
O=C(C=Cc1ccc(C(=O)N2CCOCC2)cc1F)[N-]c1ccc(S(=O)(=O)N2CCC(F)(F)CC2)cc1 (protonated)
O=C(/C=C/c1ccc(C(=O)N2CCOCC2)cc1F)[N-]c1ccc(S(=O)(=O)N2CCC(F)(F)CC2)cc1 (cis-trans isomerization)
O=C(/C=C/c1ccc(C(=O)N2CCOCC2)cc1F)[N-]c1ccc(S(=O)(=O)N2CCC(F)(F)CC2)cc1 (3D coordinates assigned)
O=C(/C=C/c1ccc(C(=O)N2CCOCC2)cc1F)[N-]c1ccc(S(=O)(=O)N2CCC(F)(F)CC2)cc1 (nonaromatic ring conformer: 81.21887790172597 kcal/mol)

>  <smiles>  (84) 
O=C(C=Cc1ccc(C(=O)N2CCOCC2)cc1F)Nc1ccc(S(=O)(=O)N2CCC(F)(F)CC2)cc1

>  <score_type>  (84) 
oracle

>  <origin>  (84) 
adg

>  <m_score__min__energy>  (84) 
-11.289999999999999

>  <m_primary>  (84) 
energy

$$$$
84:0
     RDKit          3D

 48 50  0  0  0  0  0  0  0  0999 V2000
   66.8300   31.6960   50.8830 C   0  0  0  0  0  0  0  0  0  0  0  0
   66.2860   32.6340   50.1030 C   0  0  0  0  0  0  0  0  0  0  0  0
   65.1560   33.5000   50.5870 C   0  0  0  0  0  0  0  0  0  0  0  0
   63.8650   32.8340   50.4030 N   0  0  0  0  0  0  0  0  0  0  0  0
   62.8490   33.3160   49.5030 C   0  0  0  0  0  0  0  0  0  0  0  0
   61.6220   33.7560   50.0250 C   0  0  0  0  0  0  0  0  0  0  0  0
   60.6190   34.2320   49.1770 C   0  0  0  0  0  0  0  0  0  0  0  0
   60.8300   34.2820   47.7940 C   0  0  0  0  0  0  0  0  0  0  0  0
   59.5820   34.8950   46.7140 S   0  0  0  0  0  0  0  0  0  0  0  0
   58.2420   34.7090   47.3670 O   0  0  0  0  0  0  0  0  0  0  0  0
   59.7850   36.3570   46.4320 O   0  0  0  0  0  0  0  0  0  0  0  0
   59.6170   34.0150   45.2220 N   0  0  0  0  0  0  0  0  0  0  0  0
   58.7960   32.8820   44.9100 C   0  0  0  0  0  0  0  0  0  0  0  0
   58.7500   31.8180   45.8180 C   0  0  0  0  0  0  0  0  0  0  0  0
   57.9530   30.6990   45.5620 C   0  0  0  0  0  0  0  0  0  0  0  0
   57.1750   30.6330   44.3950 C   0  0  0  0  0  0  0  0  0  0  0  0
   56.3190   29.4540   44.1200 C   0  0  0  0  0  0  0  0  0  0  0  0
   56.0140   29.1770   42.9290 O   0  0  0  0  0  0  0  0  0  0  0  0
   55.8650   28.5830   45.1650 N   0  0  0  0  0  0  0  0  0  0  0  0
   56.5330   27.3980   45.6260 C   0  0  0  0  0  0  0  0  0  0  0  0
   57.9340   27.3440   45.7430 C   0  0  0  0  0  0  0  0  0  0  0  0
   58.5570   26.1820   46.2070 C   0  0  0  0  0  0  0  0  0  0  0  0
   57.7900   25.0740   46.5720 C   0  0  0  0  0  0  0  0  0  0  0  0
   56.3960   25.1290   46.4800 C   0  0  0  0  0  0  0  0  0  0  0  0
   55.7660   26.2880   46.0170 C   0  0  0  0  0  0  0  0  0  0  0  0
   54.3790   26.3320   45.9360 O   0  0  0  0  0  0  0  0  0  0  0  0
   57.2370   31.6900   43.4720 C   0  0  0  0  0  0  0  0  0  0  0  0
   58.0360   32.8070   43.7290 C   0  0  0  0  0  0  0  0  0  0  0  0
   62.0510   33.8470   47.2650 C   0  0  0  0  0  0  0  0  0  0  0  0
   63.0550   33.3650   48.1100 C   0  0  0  0  0  0  0  0  0  0  0  0
   67.6559   31.0763   50.5036 H   0  0  0  0  0  0  0  0  0  0  0  0
   66.4521   31.5433   51.9047 H   0  0  0  0  0  0  0  0  0  0  0  0
   66.6735   32.7762   49.0834 H   0  0  0  0  0  0  0  0  0  0  0  0
   65.3004   33.7145   51.6562 H   0  0  0  0  0  0  0  0  0  0  0  0
   65.1548   34.4317   50.0023 H   0  0  0  0  0  0  0  0  0  0  0  0
   63.6740   31.9480   50.9290 H   0  0  0  0  0  0  0  0  0  0  0  0
   61.4490   33.7256   51.1109 H   0  0  0  0  0  0  0  0  0  0  0  0
   59.6600   34.5687   49.5975 H   0  0  0  0  0  0  0  0  0  0  0  0
   59.3464   31.8629   46.7412 H   0  0  0  0  0  0  0  0  0  0  0  0
   57.9350   29.8650   46.2790 H   0  0  0  0  0  0  0  0  0  0  0  0
   58.5411   28.2192   45.4684 H   0  0  0  0  0  0  0  0  0  0  0  0
   59.6535   26.1404   46.2847 H   0  0  0  0  0  0  0  0  0  0  0  0
   58.2821   24.1583   46.9317 H   0  0  0  0  0  0  0  0  0  0  0  0
   55.7927   24.2571   46.7730 H   0  0  0  0  0  0  0  0  0  0  0  0
   56.6530   31.6380   42.5413 H   0  0  0  0  0  0  0  0  0  0  0  0
   58.0708   33.6328   43.0032 H   0  0  0  0  0  0  0  0  0  0  0  0
   62.2213   33.8847   46.1789 H   0  0  0  0  0  0  0  0  0  0  0  0
   64.0102   33.0224   47.6854 H   0  0  0  0  0  0  0  0  0  0  0  0
  1  2  2  0
  2  3  1  0
  3  4  1  0
  4  5  1  0
  5  6  2  0
  6  7  1  0
  7  8  2  0
  8  9  1  0
  9 10  2  0
  9 11  2  0
  9 12  1  0
 12 13  1  0
 13 14  2  0
 14 15  1  0
 15 16  2  0
 16 17  1  0
 17 18  2  0
 17 19  1  0
 19 20  1  0
 20 21  2  0
 21 22  1  0
 22 23  2  0
 23 24  1  0
 24 25  2  0
 25 26  1  0
 16 27  1  0
 27 28  2  0
  8 29  1  0
 29 30  2  0
 30  5  1  0
 28 13  1  0
 25 20  1  0
  1 31  1  0
  1 32  1  0
  2 33  1  0
  3 34  1  0
  3 35  1  0
  4 36  1  0
  6 37  1  0
  7 38  1  0
 14 39  1  0
 15 40  1  0
 21 41  1  0
 22 42  1  0
 23 43  1  0
 24 44  1  0
 27 45  1  0
 28 46  1  0
 29 47  1  0
 30 48  1  0
M  CHG  3  12  -1  19  -1  26  -1
M  END
>  <UniqueID>  (85) 
81

>  <SMILES>  (85) 
C=CCNc1ccc(S(=O)(=O)[N-]c2ccc(C(=O)[N-]c3ccccc3[O-])cc2)cc1

>  <Energy>  (85) 
57.96679523190899

>  <Genealogy>  (85) 
C=CCNc1ccc(S(=O)(=O)[N-]c2ccc(C(=O)[N-]c3ccccc3[O-])cc2)cc1 (protonated)
C=CCNc1ccc(S(=O)(=O)[N-]c2ccc(C(=O)[N-]c3ccccc3[O-])cc2)cc1 (3D coordinates assigned)
C=CCNc1ccc(S(=O)(=O)[N-]c2ccc(C(=O)[N-]c3ccccc3[O-])cc2)cc1 (optimized conformer: 57.96679523190899 kcal/mol)

>  <smiles>  (85) 
C=CCNc1ccc(S(=O)(=O)Nc2ccc(C(=O)Nc3ccccc3O)cc2)cc1

>  <score_type>  (85) 
oracle

>  <origin>  (85) 
adg

>  <m_score__min__energy>  (85) 
-16.41

>  <m_primary>  (85) 
energy

$$$$
85:0
     RDKit          3D

 54 58  0  0  0  0  0  0  0  0999 V2000
   64.1450   33.4980   49.2750 C   0  0  0  0  0  0  0  0  0  0  0  0
   62.7400   33.6060   48.7870 C   0  0  0  0  0  0  0  0  0  0  0  0
   61.9160   34.5030   49.2310 N   0  0  0  0  0  0  0  0  0  0  0  0
   60.7140   34.2010   48.5480 C   0  0  0  0  0  0  0  0  0  0  0  0
   59.6590   34.8800   48.6480 O   0  0  0  0  0  0  0  0  0  0  0  0
   60.9390   33.0420   47.7030 C   0  0  0  0  0  0  0  0  0  0  0  0
   59.9860   32.3510   46.8000 C   0  0  0  0  0  0  0  0  0  0  0  0
   58.9190   33.0520   46.1750 C   0  0  0  0  0  0  0  0  0  0  0  0
   58.0210   32.3890   45.3200 C   0  0  0  0  0  0  0  0  0  0  0  0
   58.2080   31.0210   45.1120 C   0  0  0  0  0  0  0  0  0  0  0  0
   59.2270   30.3390   45.7100 C   0  0  0  0  0  0  0  0  0  0  0  0
   60.1330   30.9630   46.5620 C   0  0  0  0  0  0  0  0  0  0  0  0
   59.2120   29.0470   45.3410 N   0  0  0  0  0  0  0  0  0  0  0  0
   58.1490   28.9770   44.4970 C   0  0  0  0  0  0  0  0  0  0  0  0
   57.7590   27.6990   43.8080 C   0  0  0  0  0  0  0  0  0  0  0  0
   57.6180   26.5840   44.8120 C   0  0  0  0  0  0  0  0  0  0  0  0
   58.5840   25.5680   44.8720 C   0  0  0  0  0  0  0  0  0  0  0  0
   58.4650   24.5180   45.7910 C   0  0  0  0  0  0  0  0  0  0  0  0
   59.5080   23.5370   45.8430 N   0  0  0  0  0  0  0  0  0  0  0  0
   59.3930   22.2110   45.3140 C   0  0  0  0  0  0  0  0  0  0  0  0
   60.4050   21.4590   45.2770 O   0  0  0  0  0  0  0  0  0  0  0  0
   58.1050   21.7190   44.7850 C   0  0  0  0  0  0  0  0  0  0  0  0
   57.4860   22.1780   43.6390 C   0  0  0  0  0  0  0  0  0  0  0  0
   56.3300   21.5100   43.4540 N   0  0  0  0  0  0  0  0  0  0  0  0
   56.2650   20.6510   44.4930 C   0  0  0  0  0  0  0  0  0  0  0  0
   57.3270   20.7540   45.3190 N   0  0  0  0  0  0  0  0  0  0  0  0
   57.5490   19.9630   46.5280 C   0  0  0  0  0  0  0  0  0  0  0  0
   57.3220   24.4420   46.6160 C   0  0  0  0  0  0  0  0  0  0  0  0
   57.0940   23.3600   47.4680 O   0  0  0  0  0  0  0  0  0  0  0  0
   56.3610   25.4570   46.5600 C   0  0  0  0  0  0  0  0  0  0  0  0
   56.5010   26.5210   45.6640 C   0  0  0  0  0  0  0  0  0  0  0  0
   55.5190   27.5040   45.6210 O   0  0  0  0  0  0  0  0  0  0  0  0
   57.5020   30.1670   44.3490 N   0  0  0  0  0  0  0  0  0  0  0  0
   56.3460   30.4580   43.5000 C   0  0  0  0  0  0  0  0  0  0  0  0
   62.1710   32.6830   47.8470 N   0  0  0  0  0  0  0  0  0  0  0  0
   64.1521   33.4975   50.3750 H   0  0  0  0  0  0  0  0  0  0  0  0
   64.5908   32.5629   48.9050 H   0  0  0  0  0  0  0  0  0  0  0  0
   64.7285   34.3539   48.9050 H   0  0  0  0  0  0  0  0  0  0  0  0
   58.7940   34.1286   46.3629 H   0  0  0  0  0  0  0  0  0  0  0  0
   57.1979   32.9305   44.8308 H   0  0  0  0  0  0  0  0  0  0  0  0
   60.9434   30.3921   47.0388 H   0  0  0  0  0  0  0  0  0  0  0  0
   56.7994   27.8443   43.2903 H   0  0  0  0  0  0  0  0  0  0  0  0
   58.5419   27.4305   43.0834 H   0  0  0  0  0  0  0  0  0  0  0  0
   59.4455   25.5966   44.1886 H   0  0  0  0  0  0  0  0  0  0  0  0
   57.8761   22.9669   42.9791 H   0  0  0  0  0  0  0  0  0  0  0  0
   55.4368   19.9442   44.6493 H   0  0  0  0  0  0  0  0  0  0  0  0
   57.3729   20.5905   47.4142 H   0  0  0  0  0  0  0  0  0  0  0  0
   56.8558   19.1089   46.5398 H   0  0  0  0  0  0  0  0  0  0  0  0
   58.5853   19.5943   46.5398 H   0  0  0  0  0  0  0  0  0  0  0  0
   57.7340   22.5810   47.5480 H   0  0  0  0  0  0  0  0  0  0  0  0
   55.4872   25.4176   47.2270 H   0  0  0  0  0  0  0  0  0  0  0  0
   55.4729   30.6778   44.1320 H   0  0  0  0  0  0  0  0  0  0  0  0
   56.5673   31.3284   42.8649 H   0  0  0  0  0  0  0  0  0  0  0  0
   56.1288   29.5865   42.8649 H   0  0  0  0  0  0  0  0  0  0  0  0
  1  2  1  0
  2  3  2  0
  3  4  1  0
  4  5  2  0
  4  6  1  0
  6  7  1  0
  7  8  2  0
  8  9  1  0
  9 10  2  0
 10 11  1  0
 11 12  2  0
 11 13  1  0
 13 14  2  0
 14 15  1  0
 15 16  1  0
 16 17  2  0
 17 18  1  0
 18 19  1  0
 19 20  1  0
 20 21  2  0
 20 22  1  0
 22 23  2  0
 23 24  1  0
 24 25  2  0
 25 26  1  0
 26 27  1  0
 18 28  2  0
 28 29  1  0
 28 30  1  0
 30 31  2  0
 31 32  1  0
 14 33  1  0
 33 34  1  0
  6 35  2  0
 35  2  1  0
 12  7  1  0
 31 16  1  0
 33 10  1  0
 26 22  1  0
  1 36  1  0
  1 37  1  0
  1 38  1  0
  8 39  1  0
  9 40  1  0
 12 41  1  0
 15 42  1  0
 15 43  1  0
 17 44  1  0
 23 45  1  0
 25 46  1  0
 27 47  1  0
 27 48  1  0
 27 49  1  0
 29 50  1  0
 30 51  1  0
 34 52  1  0
 34 53  1  0
 34 54  1  0
M  CHG  2  19  -1  32  -1
M  END
>  <UniqueID>  (86) 
82

>  <SMILES>  (86) 
CC1=NC(=O)C(c2ccc3c(c2)nc(Cc2cc([N-]C(=O)c4cncn4C)c(O)cc2[O-])n3C)=N1

>  <Energy>  (86) 
163.05405882174657

>  <Genealogy>  (86) 
CC1=NC(=O)C(c2ccc3c(c2)nc(Cc2cc([N-]C(=O)c4cncn4C)c(O)cc2[O-])n3C)=N1 (protonated)
CC1=NC(=O)C(c2ccc3c(c2)nc(Cc2cc([N-]C(=O)c4cncn4C)c(O)cc2[O-])n3C)=N1 (3D coordinates assigned)
CC1=NC(=O)C(c2ccc3c(c2)nc(Cc2cc([N-]C(=O)c4cncn4C)c(O)cc2[O-])n3C)=N1 (nonaromatic ring conformer: 163.05405882174657 kcal/mol)

>  <smiles>  (86) 
CC1=NC(=O)C(c2ccc3c(c2)nc(Cc2cc(NC(=O)c4cncn4C)c(O)cc2O)n3C)=N1

>  <score_type>  (86) 
oracle

>  <origin>  (86) 
adg

>  <m_score__min__energy>  (86) 
-14.029999999999999

>  <m_primary>  (86) 
energy

$$$$
86:0
     RDKit          3D

 58 61  0  0  0  0  0  0  0  0999 V2000
   56.6760   27.0640   46.7590 O   0  0  0  0  0  0  0  0  0  0  0  0
   57.9270   26.8950   46.7160 C   0  0  0  0  0  0  0  0  0  0  0  0
   58.4790   25.9510   45.7920 N   0  0  0  0  0  0  0  0  0  0  0  0
   57.7200   25.4980   44.6270 C   0  0  0  0  0  0  0  0  0  0  0  0
   57.8860   26.4520   43.4730 C   0  0  0  0  0  0  0  0  0  0  0  0
   57.7890   25.9860   42.3030 O   0  0  0  0  0  0  0  0  0  0  0  0
   58.1690   27.8620   43.6650 N   0  0  0  0  0  0  0  0  0  0  0  0
   59.5060   28.2750   44.1210 C   0  0  0  0  0  0  0  0  0  0  0  0
   59.4940   29.6080   44.8200 C   0  0  0  0  0  0  0  0  0  0  0  0
   58.4050   30.3950   44.8980 C   0  0  0  0  0  0  0  0  0  0  0  0
   58.4690   31.7000   45.6170 C   0  0  0  0  0  0  0  0  0  0  0  0
   59.5890   32.0410   46.3980 C   0  0  0  0  0  0  0  0  0  0  0  0
   59.6280   33.2590   47.0830 C   0  0  0  0  0  0  0  0  0  0  0  0
   58.5560   34.1500   46.9980 C   0  0  0  0  0  0  0  0  0  0  0  0
   57.4460   33.8330   46.2130 C   0  0  0  0  0  0  0  0  0  0  0  0
   57.4020   32.6140   45.5230 C   0  0  0  0  0  0  0  0  0  0  0  0
   57.0750   29.9160   44.3700 C   0  0  0  0  0  0  0  0  0  0  0  0
   57.2510   28.9200   43.2330 C   0  0  0  0  0  0  0  0  0  0  0  0
   58.8010   27.6740   47.6230 C   0  0  0  0  0  0  0  0  0  0  0  0
   59.9320   27.0820   48.2180 C   0  0  0  0  0  0  0  0  0  0  0  0
   60.7750   27.8320   49.0440 C   0  0  0  0  0  0  0  0  0  0  0  0
   60.5020   29.1900   49.2910 C   0  0  0  0  0  0  0  0  0  0  0  0
   61.3240   29.9930   50.0960 O   0  0  0  0  0  0  0  0  0  0  0  0
   61.2110   31.4100   50.2260 C   0  0  0  0  0  0  0  0  0  0  0  0
   62.0440   32.1080   49.1860 C   0  0  0  0  0  0  0  0  0  0  0  0
   62.5540   31.3990   48.0840 C   0  0  0  0  0  0  0  0  0  0  0  0
   63.3230   32.0580   47.1200 C   0  0  0  0  0  0  0  0  0  0  0  0
   63.5940   33.4230   47.2520 C   0  0  0  0  0  0  0  0  0  0  0  0
   63.0990   34.1320   48.3500 C   0  0  0  0  0  0  0  0  0  0  0  0
   62.3290   33.4780   49.3170 C   0  0  0  0  0  0  0  0  0  0  0  0
   59.3710   29.7740   48.7110 C   0  0  0  0  0  0  0  0  0  0  0  0
   58.5330   29.0300   47.8730 C   0  0  0  0  0  0  0  0  0  0  0  0
   59.4410   25.5760   45.9600 H   0  0  0  0  0  0  0  0  0  0  0  0
   58.0809   24.5032   44.3267 H   0  0  0  0  0  0  0  0  0  0  0  0
   56.6545   25.4549   44.8968 H   0  0  0  0  0  0  0  0  0  0  0  0
   59.8906   27.5155   44.8176 H   0  0  0  0  0  0  0  0  0  0  0  0
   60.1459   28.3715   43.2315 H   0  0  0  0  0  0  0  0  0  0  0  0
   60.4242   29.9573   45.2919 H   0  0  0  0  0  0  0  0  0  0  0  0
   60.4382   31.3455   46.4698 H   0  0  0  0  0  0  0  0  0  0  0  0
   60.5072   33.5168   47.6918 H   0  0  0  0  0  0  0  0  0  0  0  0
   58.5863   35.1013   47.5494 H   0  0  0  0  0  0  0  0  0  0  0  0
   56.6064   34.5396   46.1361 H   0  0  0  0  0  0  0  0  0  0  0  0
   56.5269   32.3692   44.9030 H   0  0  0  0  0  0  0  0  0  0  0  0
   56.5200   29.4313   45.1868 H   0  0  0  0  0  0  0  0  0  0  0  0
   56.5240   30.7861   43.9837 H   0  0  0  0  0  0  0  0  0  0  0  0
   56.2767   28.4801   42.9736 H   0  0  0  0  0  0  0  0  0  0  0  0
   57.6618   29.4317   42.3502 H   0  0  0  0  0  0  0  0  0  0  0  0
   60.1540   26.0209   48.0314 H   0  0  0  0  0  0  0  0  0  0  0  0
   61.6554   27.3582   49.5027 H   0  0  0  0  0  0  0  0  0  0  0  0
   60.1578   31.7012   50.1000 H   0  0  0  0  0  0  0  0  0  0  0  0
   61.5717   31.7033   51.2229 H   0  0  0  0  0  0  0  0  0  0  0  0
   62.3475   30.3236   47.9801 H   0  0  0  0  0  0  0  0  0  0  0  0
   63.7154   31.5014   46.2562 H   0  0  0  0  0  0  0  0  0  0  0  0
   64.1974   33.9396   46.4910 H   0  0  0  0  0  0  0  0  0  0  0  0
   63.3153   35.2055   48.4537 H   0  0  0  0  0  0  0  0  0  0  0  0
   61.9452   34.0376   50.1828 H   0  0  0  0  0  0  0  0  0  0  0  0
   59.1379   30.8293   48.9158 H   0  0  0  0  0  0  0  0  0  0  0  0
   57.6595   29.5097   47.4074 H   0  0  0  0  0  0  0  0  0  0  0  0
  1  2  2  0
  2  3  1  0
  3  4  1  0
  4  5  1  0
  5  6  2  0
  5  7  1  0
  7  8  1  0
  8  9  1  0
  9 10  2  0
 10 11  1  0
 11 12  2  0
 12 13  1  0
 13 14  2  0
 14 15  1  0
 15 16  2  0
 10 17  1  0
 17 18  1  0
  2 19  1  0
 19 20  2  0
 20 21  1  0
 21 22  2  0
 22 23  1  0
 23 24  1  0
 24 25  1  0
 25 26  2  0
 26 27  1  0
 27 28  2  0
 28 29  1  0
 29 30  2  0
 22 31  1  0
 31 32  2  0
 18  7  1  0
 32 19  1  0
 16 11  1  0
 30 25  1  0
  3 33  1  0
  4 34  1  0
  4 35  1  0
  8 36  1  0
  8 37  1  0
  9 38  1  0
 12 39  1  0
 13 40  1  0
 14 41  1  0
 15 42  1  0
 16 43  1  0
 17 44  1  0
 17 45  1  0
 18 46  1  0
 18 47  1  0
 20 48  1  0
 21 49  1  0
 24 50  1  0
 24 51  1  0
 26 52  1  0
 27 53  1  0
 28 54  1  0
 29 55  1  0
 30 56  1  0
 31 57  1  0
 32 58  1  0
M  END
>  <UniqueID>  (87) 
83

>  <SMILES>  (87) 
O=C(NCC(=O)N1CC=C(c2ccccc2)CC1)c1ccc(OCc2ccccc2)cc1

>  <Energy>  (87) 
67.66799422636241

>  <Genealogy>  (87) 
O=C(NCC(=O)N1CC=C(c2ccccc2)CC1)c1ccc(OCc2ccccc2)cc1 (3D coordinates assigned)
O=C(NCC(=O)N1CC=C(c2ccccc2)CC1)c1ccc(OCc2ccccc2)cc1 (nonaromatic ring conformer: 67.66799422636241 kcal/mol)

>  <smiles>  (87) 
O=C(NCC(=O)N1CC=C(c2ccccc2)CC1)c1ccc(OCc2ccccc2)cc1

>  <score_type>  (87) 
oracle

>  <origin>  (87) 
adg

>  <m_score__min__energy>  (87) 
-9.6300000000000008

>  <m_primary>  (87) 
energy

$$$$
87:0
     RDKit          3D

 43 45  0  0  0  0  0  0  0  0999 V2000
   56.2500   22.1700   46.5830 C   0  0  0  0  0  0  0  0  0  0  0  0
   56.6130   23.6160   46.4570 C   0  0  0  0  0  0  0  0  0  0  0  0
   57.9520   24.0060   46.3960 C   0  0  0  0  0  0  0  0  0  0  0  0
   58.2830   25.3650   46.2880 C   0  0  0  0  0  0  0  0  0  0  0  0
   59.7390   25.7480   46.2350 C   0  0  0  0  0  0  0  0  0  0  0  0
   57.2480   26.3360   46.2970 C   0  0  0  0  0  0  0  0  0  0  0  0
   57.5510   27.8260   46.2990 C   0  0  0  0  0  0  0  0  0  0  0  0
   57.2060   28.4490   45.0210 N   0  0  0  0  0  0  0  0  0  0  0  0
   56.6200   29.7480   44.8630 C   0  0  0  0  0  0  0  0  0  0  0  0
   55.3770   29.8450   44.6930 O   0  0  0  0  0  0  0  0  0  0  0  0
   57.4440   30.9640   44.8430 C   0  0  0  0  0  0  0  0  0  0  0  0
   57.3910   31.8380   43.7500 C   0  0  0  0  0  0  0  0  0  0  0  0
   58.1250   33.0250   43.7690 C   0  0  0  0  0  0  0  0  0  0  0  0
   58.8910   33.3600   44.8900 C   0  0  0  0  0  0  0  0  0  0  0  0
   58.9280   32.5030   46.0050 C   0  0  0  0  0  0  0  0  0  0  0  0
   59.6690   32.8440   47.1870 N   0  0  0  0  0  0  0  0  0  0  0  0
   60.9900   33.4090   47.1610 C   0  0  0  0  0  0  0  0  0  0  0  0
   61.5470   33.6830   46.0630 O   0  0  0  0  0  0  0  0  0  0  0  0
   61.6910   33.7250   48.4140 C   0  0  0  0  0  0  0  0  0  0  0  0
   63.0100   34.0070   48.4770 N   0  0  0  0  0  0  0  0  0  0  0  0
   63.2320   34.2200   49.7850 C   0  0  0  0  0  0  0  0  0  0  0  0
   62.0550   34.0630   50.4760 C   0  0  0  0  0  0  0  0  0  0  0  0
   61.0730   33.7480   49.6140 N   0  0  0  0  0  0  0  0  0  0  0  0
   58.2330   31.2860   45.9550 C   0  0  0  0  0  0  0  0  0  0  0  0
   55.9080   25.8840   46.3210 C   0  0  0  0  0  0  0  0  0  0  0  0
   54.9490   26.6990   46.2760 O   0  0  0  0  0  0  0  0  0  0  0  0
   55.6350   24.5550   46.4040 N   0  0  0  0  0  0  0  0  0  0  0  0
   56.1823   21.9003   47.6473 H   0  0  0  0  0  0  0  0  0  0  0  0
   55.2793   21.9920   46.0972 H   0  0  0  0  0  0  0  0  0  0  0  0
   57.0215   21.5546   46.0972 H   0  0  0  0  0  0  0  0  0  0  0  0
   58.7478   23.2475   46.4326 H   0  0  0  0  0  0  0  0  0  0  0  0
   60.1287   25.8505   47.2586 H   0  0  0  0  0  0  0  0  0  0  0  0
   60.3042   24.9680   45.7039 H   0  0  0  0  0  0  0  0  0  0  0  0
   59.8473   26.7052   45.7039 H   0  0  0  0  0  0  0  0  0  0  0  0
   56.9692   28.3072   47.0990 H   0  0  0  0  0  0  0  0  0  0  0  0
   58.6306   27.9566   46.4643 H   0  0  0  0  0  0  0  0  0  0  0  0
   56.7708   31.5889   42.8763 H   0  0  0  0  0  0  0  0  0  0  0  0
   58.1009   33.6988   42.8999 H   0  0  0  0  0  0  0  0  0  0  0  0
   59.4668   34.2972   44.9000 H   0  0  0  0  0  0  0  0  0  0  0  0
   59.1570   32.8300   48.0980 H   0  0  0  0  0  0  0  0  0  0  0  0
   64.2031   34.4792   50.2320 H   0  0  0  0  0  0  0  0  0  0  0  0
   61.9351   34.1771   51.5635 H   0  0  0  0  0  0  0  0  0  0  0  0
   58.3079   30.5793   46.7947 H   0  0  0  0  0  0  0  0  0  0  0  0
  1  2  1  0
  2  3  2  0
  3  4  1  0
  4  5  1  0
  4  6  2  0
  6  7  1  0
  7  8  1  0
  8  9  1  0
  9 10  2  0
  9 11  1  0
 11 12  2  0
 12 13  1  0
 13 14  2  0
 14 15  1  0
 15 16  1  0
 16 17  1  0
 17 18  2  0
 17 19  1  0
 19 20  2  0
 20 21  1  0
 21 22  2  0
 22 23  1  0
 15 24  2  0
  6 25  1  0
 25 26  2  0
 25 27  1  0
 27  2  1  0
 24 11  1  0
 23 19  1  0
  1 28  1  0
  1 29  1  0
  1 30  1  0
  3 31  1  0
  5 32  1  0
  5 33  1  0
  5 34  1  0
  7 35  1  0
  7 36  1  0
 12 37  1  0
 13 38  1  0
 14 39  1  0
 16 40  1  0
 21 41  1  0
 22 42  1  0
 24 43  1  0
M  CHG  3   8  -1  23  -1  27  -1
M  END
>  <UniqueID>  (88) 
84

>  <SMILES>  (88) 
Cc1cc(C)c(C[N-]C(=O)c2cccc(NC(=O)c3ncc[n-]3)c2)c(=O)[n-]1

>  <Energy>  (88) 
77.8697247896119

>  <Genealogy>  (88) 
Cc1cc(C)c(C[N-]C(=O)c2cccc(NC(=O)c3ncc[n-]3)c2)c(=O)[n-]1 (protonated)
Cc1cc(C)c(C[N-]C(=O)c2cccc(NC(=O)c3ncc[n-]3)c2)c(=O)[n-]1 (3D coordinates assigned)
Cc1cc(C)c(C[N-]C(=O)c2cccc(NC(=O)c3ncc[n-]3)c2)c(=O)[n-]1 (optimized conformer: 77.8697247896119 kcal/mol)

>  <smiles>  (88) 
Cc1cc(C)c(CNC(=O)c2cccc(NC(=O)c3ncc[nH]3)c2)c(=O)[nH]1

>  <score_type>  (88) 
oracle

>  <origin>  (88) 
adg

>  <m_score__min__energy>  (88) 
-12.5

>  <m_primary>  (88) 
energy

$$$$
88:0
     RDKit          3D

 64 66  0  0  0  0  0  0  0  0999 V2000
   60.7610   29.4410   45.3130 C   0  0  0  0  0  0  0  0  0  0  0  0
   60.7650   29.2750   46.8070 C   0  0  0  0  0  0  0  0  0  0  0  0
   60.3190   28.1620   47.5080 C   0  0  0  0  0  0  0  0  0  0  0  0
   59.8080   26.8910   46.9580 C   0  0  0  0  0  0  0  0  0  0  0  0
   60.6090   25.9290   46.7960 O   0  0  0  0  0  0  0  0  0  0  0  0
   58.3750   26.7170   46.6170 C   0  0  0  0  0  0  0  0  0  0  0  0
   57.6810   25.5500   46.9940 C   0  0  0  0  0  0  0  0  0  0  0  0
   56.3300   25.3950   46.6780 C   0  0  0  0  0  0  0  0  0  0  0  0
   55.6480   26.4030   45.9910 C   0  0  0  0  0  0  0  0  0  0  0  0
   54.3140   26.2110   45.6500 O   0  0  0  0  0  0  0  0  0  0  0  0
   56.3180   27.5880   45.6380 C   0  0  0  0  0  0  0  0  0  0  0  0
   55.6360   28.6450   44.9560 N   0  0  0  0  0  0  0  0  0  0  0  0
   56.5040   29.8970   44.1310 S   0  0  0  0  0  0  0  0  0  0  0  0
   56.3580   29.6540   42.3730 C   0  0  0  0  0  0  0  0  0  0  0  0
   57.9530   29.8770   44.5340 O   0  0  0  0  0  0  0  0  0  0  0  0
   55.9080   31.2280   44.4940 O   0  0  0  0  0  0  0  0  0  0  0  0
   57.6790   27.7310   45.9330 C   0  0  0  0  0  0  0  0  0  0  0  0
   60.4240   28.4640   48.8520 C   0  0  0  0  0  0  0  0  0  0  0  0
   60.9210   29.7500   48.9240 C   0  0  0  0  0  0  0  0  0  0  0  0
   61.1610   30.4930   50.1760 C   0  0  0  0  0  0  0  0  0  0  0  0
   62.3210   30.4980   50.6630 O   0  0  0  0  0  0  0  0  0  0  0  0
   60.1090   31.2250   50.8330 N   0  0  0  0  0  0  0  0  0  0  0  0
   60.3460   32.0380   52.0130 C   0  0  0  0  0  0  0  0  0  0  0  0
   59.1090   32.9140   52.1720 C   0  0  0  0  0  0  0  0  0  0  0  0
   58.0420   32.3210   51.2550 C   0  0  0  0  0  0  0  0  0  0  0  0
   58.7740   31.4030   50.2860 C   0  0  0  0  0  0  0  0  0  0  0  0
   61.1430   30.2400   47.6810 N   0  0  0  0  0  0  0  0  0  0  0  0
   61.5060   31.6240   47.3510 C   0  0  0  0  0  0  0  0  0  0  0  0
   60.2850   32.4850   47.3870 C   0  0  0  0  0  0  0  0  0  0  0  0
   60.1190   33.2980   48.3370 O   0  0  0  0  0  0  0  0  0  0  0  0
   59.2850   32.3230   46.3740 N   0  0  0  0  0  0  0  0  0  0  0  0
   58.5290   33.3820   45.6970 C   0  0  0  0  0  0  0  0  0  0  0  0
   57.1100   33.4820   46.2870 C   0  0  0  0  0  0  0  0  0  0  0  0
   58.4280   33.0040   44.2120 C   0  0  0  0  0  0  0  0  0  0  0  0
   59.2600   34.7300   45.8270 C   0  0  0  0  0  0  0  0  0  0  0  0
   60.7352   30.5119   45.0631 H   0  0  0  0  0  0  0  0  0  0  0  0
   61.6703   28.9879   44.8913 H   0  0  0  0  0  0  0  0  0  0  0  0
   59.8745   28.9446   44.8913 H   0  0  0  0  0  0  0  0  0  0  0  0
   58.2079   24.7548   47.5417 H   0  0  0  0  0  0  0  0  0  0  0  0
   55.8005   24.4763   46.9708 H   0  0  0  0  0  0  0  0  0  0  0  0
   55.8006   28.7263   42.1761 H   0  0  0  0  0  0  0  0  0  0  0  0
   55.8217   30.5053   41.9285 H   0  0  0  0  0  0  0  0  0  0  0  0
   57.3615   29.5802   41.9285 H   0  0  0  0  0  0  0  0  0  0  0  0
   58.2095   28.6448   45.6272 H   0  0  0  0  0  0  0  0  0  0  0  0
   60.1634   27.8097   49.6970 H   0  0  0  0  0  0  0  0  0  0  0  0
   60.4782   31.3984   52.8981 H   0  0  0  0  0  0  0  0  0  0  0  0
   61.2588   32.6431   51.9099 H   0  0  0  0  0  0  0  0  0  0  0  0
   58.7641   32.8997   53.2164 H   0  0  0  0  0  0  0  0  0  0  0  0
   59.3242   33.9604   51.9099 H   0  0  0  0  0  0  0  0  0  0  0  0
   57.3099   31.7482   51.8431 H   0  0  0  0  0  0  0  0  0  0  0  0
   57.4911   33.1090   50.7206 H   0  0  0  0  0  0  0  0  0  0  0  0
   58.2582   30.4341   50.2140 H   0  0  0  0  0  0  0  0  0  0  0  0
   58.8075   31.8309   49.2732 H   0  0  0  0  0  0  0  0  0  0  0  0
   62.2374   31.9953   48.0839 H   0  0  0  0  0  0  0  0  0  0  0  0
   61.9457   31.6558   46.3432 H   0  0  0  0  0  0  0  0  0  0  0  0
   57.1685   33.4779   47.3854 H   0  0  0  0  0  0  0  0  0  0  0  0
   56.6371   34.4157   45.9485 H   0  0  0  0  0  0  0  0  0  0  0  0
   56.5108   32.6238   45.9485 H   0  0  0  0  0  0  0  0  0  0  0  0
   58.1450   31.9449   44.1217 H   0  0  0  0  0  0  0  0  0  0  0  0
   57.6656   33.6300   43.7253 H   0  0  0  0  0  0  0  0  0  0  0  0
   59.4010   33.1663   43.7253 H   0  0  0  0  0  0  0  0  0  0  0  0
   59.3924   34.9742   46.8914 H   0  0  0  0  0  0  0  0  0  0  0  0
   60.2446   34.6615   45.3413 H   0  0  0  0  0  0  0  0  0  0  0  0
   58.6655   35.5178   45.3413 H   0  0  0  0  0  0  0  0  0  0  0  0
  1  2  1  0
  2  3  2  0
  3  4  1  0
  4  5  2  0
  4  6  1  0
  6  7  2  0
  7  8  1  0
  8  9  2  0
  9 10  1  0
  9 11  1  0
 11 12  1  0
 12 13  1  0
 13 14  1  0
 13 15  2  0
 13 16  2  0
 11 17  2  0
  3 18  1  0
 18 19  2  0
 19 20  1  0
 20 21  2  0
 20 22  1  0
 22 23  1  0
 23 24  1  0
 24 25  1  0
 25 26  1  0
 19 27  1  0
 27 28  1  0
 28 29  1  0
 29 30  2  0
 29 31  1  0
 31 32  1  0
 32 33  1  0
 32 34  1  0
 32 35  1  0
 27  2  1  0
 17  6  1  0
 26 22  1  0
  1 36  1  0
  1 37  1  0
  1 38  1  0
  7 39  1  0
  8 40  1  0
 14 41  1  0
 14 42  1  0
 14 43  1  0
 17 44  1  0
 18 45  1  0
 23 46  1  0
 23 47  1  0
 24 48  1  0
 24 49  1  0
 25 50  1  0
 25 51  1  0
 26 52  1  0
 26 53  1  0
 28 54  1  0
 28 55  1  0
 33 56  1  0
 33 57  1  0
 33 58  1  0
 34 59  1  0
 34 60  1  0
 34 61  1  0
 35 62  1  0
 35 63  1  0
 35 64  1  0
M  CHG  3  10  -1  12  -1  31  -1
M  END
>  <UniqueID>  (89) 
85

>  <SMILES>  (89) 
Cc1c(C(=O)c2ccc([O-])c([N-]S(C)(=O)=O)c2)cc(C(=O)N2CCCC2)n1CC(=O)[N-]C(C)(C)C

>  <Energy>  (89) 
95.88068011908166

>  <Genealogy>  (89) 
Cc1c(C(=O)c2ccc([O-])c([N-]S(C)(=O)=O)c2)cc(C(=O)N2CCCC2)n1CC(=O)[N-]C(C)(C)C (protonated)
Cc1c(C(=O)c2ccc([O-])c([N-]S(C)(=O)=O)c2)cc(C(=O)N2CCCC2)n1CC(=O)[N-]C(C)(C)C (3D coordinates assigned)
Cc1c(C(=O)c2ccc([O-])c([N-]S(C)(=O)=O)c2)cc(C(=O)N2CCCC2)n1CC(=O)[N-]C(C)(C)C (nonaromatic ring conformer: 95.88068011908166 kcal/mol)

>  <smiles>  (89) 
Cc1c(C(=O)c2ccc(O)c(NS(C)(=O)=O)c2)cc(C(=O)N2CCCC2)n1CC(=O)NC(C)(C)C

>  <score_type>  (89) 
oracle

>  <origin>  (89) 
adg

>  <m_score__min__energy>  (89) 
-15.66

>  <m_primary>  (89) 
energy

$$$$
