0:0
     RDKit          3D

 28 29  0  0  0  0  0  0  0  0999 V2000
   60.7574   32.6368   47.2543 H   0  0  0  0  0  0  0  0  0  0  0  0
   60.0120   33.0970   46.5890 C   0  0  0  0  0  0  0  0  0  0  0  0
   58.9510   32.3690   46.1520 N   0  0  0  0  0  0  0  0  0  0  0  0
   57.9940   32.8920   45.3350 C   0  0  0  0  0  0  0  0  0  0  0  0
   57.0160   32.1170   44.9560 N   0  0  0  0  0  0  0  0  0  0  0  0
   57.0100   30.6850   44.8840 C   0  0  0  0  0  0  0  0  0  0  0  0
   55.9870   30.1040   44.4330 O   0  0  0  0  0  0  0  0  0  0  0  0
   58.1960   29.9290   45.1790 N   0  0  0  0  0  0  0  0  0  0  0  0
   59.1120   30.4280   45.1250 H   0  0  0  0  0  0  0  0  0  0  0  0
   58.2060   28.5140   45.4320 C   0  0  0  0  0  0  0  0  0  0  0  0
   59.4240   27.8210   45.4120 C   0  0  0  0  0  0  0  0  0  0  0  0
   60.3557   28.3605   45.1867 H   0  0  0  0  0  0  0  0  0  0  0  0
   59.4630   26.4510   45.6760 C   0  0  0  0  0  0  0  0  0  0  0  0
   60.4226   25.9140   45.6469 H   0  0  0  0  0  0  0  0  0  0  0  0
   58.2870   25.7600   45.9770 C   0  0  0  0  0  0  0  0  0  0  0  0
   58.3242   24.6788   46.1762 H   0  0  0  0  0  0  0  0  0  0  0  0
   57.0570   26.4370   46.0270 C   0  0  0  0  0  0  0  0  0  0  0  0
   55.8490   25.7240   46.3560 N   0  0  0  0  0  0  0  0  0  0  0  0
   54.7370   26.1470   45.9760 O   0  0  0  0  0  0  0  0  0  0  0  0
   55.9000   24.5630   47.0910 O   0  0  0  0  0  0  0  0  0  0  0  0
   57.0260   27.8180   45.7590 C   0  0  0  0  0  0  0  0  0  0  0  0
   56.0699   28.3599   45.8054 H   0  0  0  0  0  0  0  0  0  0  0  0
   58.1250   34.2290   44.9020 C   0  0  0  0  0  0  0  0  0  0  0  0
   57.3793   34.6667   44.2220 H   0  0  0  0  0  0  0  0  0  0  0  0
   59.2080   34.9920   45.3430 C   0  0  0  0  0  0  0  0  0  0  0  0
   59.3128   36.0379   45.0188 H   0  0  0  0  0  0  0  0  0  0  0  0
   60.1570   34.4270   46.1950 C   0  0  0  0  0  0  0  0  0  0  0  0
   61.0096   35.0234   46.5519 H   0  0  0  0  0  0  0  0  0  0  0  0
  1  2  1  0
  2  3  1  0
  3  4  1  0
  4  5  2  0
  5  6  1  0
  6  7  2  0
  6  8  1  0
  8  9  1  0
  8 10  1  0
 10 11  2  0
 11 12  1  0
 11 13  1  0
 13 14  1  0
 13 15  2  0
 15 16  1  0
 15 17  1  0
 17 18  1  0
 18 19  2  0
 18 20  1  0
 17 21  2  0
 21 22  1  0
  4 23  1  0
 23 24  1  0
 23 25  2  0
 25 26  1  0
 25 27  1  0
 27 28  1  0
 27  2  2  0
 21 10  1  0
M  CHG  3   3  -1  18   1  20  -1
M  END
>  <UniqueID>  (1) 
1

>  <SMILES>  (1) 
O=C(/N=c1\cccc[n-]1)Nc1cccc([N+](=O)[O-])c1

>  <Energy>  (1) 
41.70388773723106

>  <Genealogy>  (1) 
O=C(N=c1cccc[n-]1)Nc1cccc([N+](=O)[O-])c1 (protonated)
O=C(/N=c1\cccc[n-]1)Nc1cccc([N+](=O)[O-])c1 (cis-trans isomerization)
O=C(/N=c1\cccc[n-]1)Nc1cccc([N+](=O)[O-])c1 (3D coordinates assigned)
O=C(/N=c1\cccc[n-]1)Nc1cccc([N+](=O)[O-])c1 (optimized conformer: 41.70388773723106 kcal/mol)

>  <smiles>  (1) 
O=C(N=c1cccc[nH]1)Nc1cccc([N+](=O)[O-])c1

>  <score_type>  (1) 
oracle

>  <origin>  (1) 
adg

>  <m_score__min__energy>  (1) 
-8.4900000000000002

>  <m_primary>  (1) 
energy

$$$$
1:0
     RDKit          3D

 69 71  0  0  0  0  0  0  0  0999 V2000
   63.3720   32.1210   47.5560 C   0  0  0  0  0  0  0  0  0  0  0  0
   62.1690   31.1800   47.5230 C   0  0  0  0  0  0  0  0  0  0  0  0
   61.7030   30.8100   48.9380 C   0  0  0  0  0  0  0  0  0  0  0  0
   60.3710   30.2060   48.8930 N   0  0  0  0  0  0  0  0  0  0  0  0
   59.4880   30.1130   50.0200 C   0  0  0  0  0  0  0  0  0  0  0  0
   59.5450   29.0930   50.7570 O   0  0  0  0  0  0  0  0  0  0  0  0
   58.5290   31.1930   50.3290 C   0  0  0  0  0  0  0  0  0  0  0  0
   58.7590   32.5040   50.1550 C   0  0  0  0  0  0  0  0  0  0  0  0
   59.3820   33.1350   48.9680 C   0  0  0  0  0  0  0  0  0  0  0  0
   60.4480   34.0480   49.0810 C   0  0  0  0  0  0  0  0  0  0  0  0
   61.0880   34.5320   47.9360 C   0  0  0  0  0  0  0  0  0  0  0  0
   60.6920   34.0930   46.6710 C   0  0  0  0  0  0  0  0  0  0  0  0
   59.6460   33.1640   46.5410 C   0  0  0  0  0  0  0  0  0  0  0  0
   59.2700   32.6510   45.2910 O   0  0  0  0  0  0  0  0  0  0  0  0
   58.2260   31.7390   45.0740 C   0  0  0  0  0  0  0  0  0  0  0  0
   56.9460   32.1650   44.6770 C   0  0  0  0  0  0  0  0  0  0  0  0
   55.9210   31.2340   44.4940 C   0  0  0  0  0  0  0  0  0  0  0  0
   56.1620   29.8730   44.6980 C   0  0  0  0  0  0  0  0  0  0  0  0
   55.1320   28.9630   44.4960 O   0  0  0  0  0  0  0  0  0  0  0  0
   57.4360   29.4340   45.1010 C   0  0  0  0  0  0  0  0  0  0  0  0
   57.6910   28.0330   45.2850 N   0  0  0  0  0  0  0  0  0  0  0  0
   57.8480   27.1710   44.1070 C   0  0  0  0  0  0  0  0  0  0  0  0
   58.0970   27.5430   46.6090 C   0  0  0  0  0  0  0  0  0  0  0  0
   58.4410   26.0450   46.5670 C   0  0  0  0  0  0  0  0  0  0  0  0
   57.9970   25.3430   47.8550 C   0  0  0  0  0  0  0  0  0  0  0  0
   56.6520   24.6260   47.6870 C   0  0  0  0  0  0  0  0  0  0  0  0
   55.7860   25.3300   46.7410 N   0  0  0  0  0  0  0  0  0  0  0  0
   54.9920   24.6710   45.7440 C   0  0  0  0  0  0  0  0  0  0  0  0
   53.7900   25.0150   45.5700 O   0  0  0  0  0  0  0  0  0  0  0  0
   55.5830   23.6040   44.9040 C   0  0  0  0  0  0  0  0  0  0  0  0
   55.8580   22.3340   45.4470 C   0  0  0  0  0  0  0  0  0  0  0  0
   56.4670   21.3460   44.6660 C   0  0  0  0  0  0  0  0  0  0  0  0
   56.8090   21.6120   43.3380 C   0  0  0  0  0  0  0  0  0  0  0  0
   56.5200   22.8590   42.7790 C   0  0  0  0  0  0  0  0  0  0  0  0
   55.9140   23.8530   43.5570 C   0  0  0  0  0  0  0  0  0  0  0  0
   58.4610   30.3760   45.3020 C   0  0  0  0  0  0  0  0  0  0  0  0
   59.6870   29.9720   45.7220 F   0  0  0  0  0  0  0  0  0  0  0  0
   59.0050   32.6860   47.6910 C   0  0  0  0  0  0  0  0  0  0  0  0
   63.6431   32.3330   48.6008 H   0  0  0  0  0  0  0  0  0  0  0  0
   64.2229   31.6463   47.0455 H   0  0  0  0  0  0  0  0  0  0  0  0
   63.1162   33.0612   47.0455 H   0  0  0  0  0  0  0  0  0  0  0  0
   61.3423   31.6757   46.9930 H   0  0  0  0  0  0  0  0  0  0  0  0
   62.4685   30.2561   47.0065 H   0  0  0  0  0  0  0  0  0  0  0  0
   62.4119   30.0928   49.3774 H   0  0  0  0  0  0  0  0  0  0  0  0
   61.6612   31.7226   49.5507 H   0  0  0  0  0  0  0  0  0  0  0  0
   57.5490   30.8999   50.7336 H   0  0  0  0  0  0  0  0  0  0  0  0
   58.4557   33.1745   50.9725 H   0  0  0  0  0  0  0  0  0  0  0  0
   60.7790   34.3822   50.0754 H   0  0  0  0  0  0  0  0  0  0  0  0
   61.9061   35.2610   48.0320 H   0  0  0  0  0  0  0  0  0  0  0  0
   61.2004   34.4756   45.7737 H   0  0  0  0  0  0  0  0  0  0  0  0
   56.7514   33.2347   44.5101 H   0  0  0  0  0  0  0  0  0  0  0  0
   54.9204   31.5736   44.1882 H   0  0  0  0  0  0  0  0  0  0  0  0
   58.0363   26.1370   44.4317 H   0  0  0  0  0  0  0  0  0  0  0  0
   56.9290   27.2041   43.5033 H   0  0  0  0  0  0  0  0  0  0  0  0
   58.6963   27.5260   43.5033 H   0  0  0  0  0  0  0  0  0  0  0  0
   58.9815   28.1049   46.9436 H   0  0  0  0  0  0  0  0  0  0  0  0
   57.2584   27.6880   47.3059 H   0  0  0  0  0  0  0  0  0  0  0  0
   57.9291   25.5823   45.7103 H   0  0  0  0  0  0  0  0  0  0  0  0
   59.5313   25.9385   46.4679 H   0  0  0  0  0  0  0  0  0  0  0  0
   58.7606   24.6031   48.1370 H   0  0  0  0  0  0  0  0  0  0  0  0
   57.8770   26.1097   48.6346 H   0  0  0  0  0  0  0  0  0  0  0  0
   56.8338   23.6067   47.3155 H   0  0  0  0  0  0  0  0  0  0  0  0
   56.1485   24.6012   48.6647 H   0  0  0  0  0  0  0  0  0  0  0  0
   55.5922   22.1175   46.4922 H   0  0  0  0  0  0  0  0  0  0  0  0
   56.6772   20.3568   45.0989 H   0  0  0  0  0  0  0  0  0  0  0  0
   57.3058   20.8396   42.7326 H   0  0  0  0  0  0  0  0  0  0  0  0
   56.7687   23.0603   41.7266 H   0  0  0  0  0  0  0  0  0  0  0  0
   55.6947   24.8355   43.1135 H   0  0  0  0  0  0  0  0  0  0  0  0
   58.1948   31.9485   47.5931 H   0  0  0  0  0  0  0  0  0  0  0  0
  1  2  1  0
  2  3  1  0
  3  4  1  0
  4  5  1  0
  5  6  2  0
  5  7  1  0
  7  8  2  3
  8  9  1  0
  9 10  2  0
 10 11  1  0
 11 12  2  0
 12 13  1  0
 13 14  1  0
 14 15  1  0
 15 16  2  0
 16 17  1  0
 17 18  2  0
 18 19  1  0
 18 20  1  0
 20 21  1  0
 21 22  1  0
 21 23  1  0
 23 24  1  0
 24 25  1  0
 25 26  1  0
 26 27  1  0
 27 28  1  0
 28 29  2  0
 28 30  1  0
 30 31  2  0
 31 32  1  0
 32 33  2  0
 33 34  1  0
 34 35  2  0
 20 36  2  0
 36 37  1  0
 13 38  2  0
 38  9  1  0
 36 15  1  0
 35 30  1  0
  1 39  1  0
  1 40  1  0
  1 41  1  0
  2 42  1  0
  2 43  1  0
  3 44  1  0
  3 45  1  0
  7 46  1  0
  8 47  1  0
 10 48  1  0
 11 49  1  0
 12 50  1  0
 16 51  1  0
 17 52  1  0
 22 53  1  0
 22 54  1  0
 22 55  1  0
 23 56  1  0
 23 57  1  0
 24 58  1  0
 24 59  1  0
 25 60  1  0
 25 61  1  0
 26 62  1  0
 26 63  1  0
 31 64  1  0
 32 65  1  0
 33 66  1  0
 34 67  1  0
 35 68  1  0
 38 69  1  0
M  CHG  3   4  -1  19  -1  27  -1
M  END
>  <UniqueID>  (2) 
2

>  <SMILES>  (2) 
CCC[N-]C(=O)C=Cc1cccc(Oc2ccc([O-])c(N(C)CCCC[N-]C(=O)c3ccccc3)c2F)c1

>  <Energy>  (2) 
81.64836467480148

>  <Genealogy>  (2) 
CCC[N-]C(=O)C=Cc1cccc(Oc2ccc([O-])c(N(C)CCCC[N-]C(=O)c3ccccc3)c2F)c1 (protonated)
CCC[N-]C(=O)C=Cc1cccc(Oc2ccc([O-])c(N(C)CCCC[N-]C(=O)c3ccccc3)c2F)c1 (3D coordinates assigned)
CCC[N-]C(=O)C=Cc1cccc(Oc2ccc([O-])c(N(C)CCCC[N-]C(=O)c3ccccc3)c2F)c1 (optimized conformer: 81.64836467480148 kcal/mol)

>  <smiles>  (2) 
CCCNC(=O)C=Cc1cccc(Oc2ccc(O)c(N(C)CCCCNC(=O)c3ccccc3)c2F)c1

>  <score_type>  (2) 
oracle

>  <origin>  (2) 
adg

>  <m_score__min__energy>  (2) 
-14.83

>  <m_primary>  (2) 
energy

$$$$
2:0
     RDKit          3D

 57 60  0  0  0  0  0  0  0  0999 V2000
   57.7580   32.9160   45.1840 C   0  0  0  0  0  0  0  0  0  0  0  0
   59.1670   33.4170   45.4850 C   0  0  0  0  0  0  0  0  0  0  0  0
   59.5230   33.2340   46.9040 N   0  0  0  0  0  0  0  0  0  0  0  0
   58.4520   32.8300   47.8290 C   0  0  0  0  0  0  0  0  0  0  0  0
   58.9370   32.6620   49.2710 C   0  0  0  0  0  0  0  0  0  0  0  0
   60.8820   32.8570   47.2000 C   0  0  0  0  0  0  0  0  0  0  0  0
   61.7880   33.8620   47.5770 C   0  0  0  0  0  0  0  0  0  0  0  0
   63.1110   33.5500   47.8830 C   0  0  0  0  0  0  0  0  0  0  0  0
   63.5480   32.2290   47.8150 C   0  0  0  0  0  0  0  0  0  0  0  0
   62.6660   31.2170   47.4370 C   0  0  0  0  0  0  0  0  0  0  0  0
   61.3230   31.5080   47.1190 C   0  0  0  0  0  0  0  0  0  0  0  0
   60.4310   30.3900   46.7070 C   0  0  0  0  0  0  0  0  0  0  0  0
   59.4650   29.8820   47.5220 N   0  0  0  0  0  0  0  0  0  0  0  0
   58.9210   28.9130   46.7750 C   0  0  0  0  0  0  0  0  0  0  0  0
   57.8660   28.0680   47.1080 C   0  0  0  0  0  0  0  0  0  0  0  0
   57.4340   27.1390   46.1370 C   0  0  0  0  0  0  0  0  0  0  0  0
   56.2810   26.2700   46.4210 C   0  0  0  0  0  0  0  0  0  0  0  0
   55.1450   26.5940   45.9840 O   0  0  0  0  0  0  0  0  0  0  0  0
   56.4200   25.0390   47.1440 N   0  0  0  0  0  0  0  0  0  0  0  0
   57.5620   24.1310   47.0560 C   0  0  0  0  0  0  0  0  0  0  0  0
   57.5440   23.3810   45.7510 C   0  0  0  0  0  0  0  0  0  0  0  0
   58.5380   22.4310   45.4710 C   0  0  0  0  0  0  0  0  0  0  0  0
   58.4930   21.6910   44.2870 C   0  0  0  0  0  0  0  0  0  0  0  0
   57.4520   21.8860   43.3740 C   0  0  0  0  0  0  0  0  0  0  0  0
   56.4510   22.8340   43.6400 C   0  0  0  0  0  0  0  0  0  0  0  0
   55.3230   23.0530   42.6770 C   0  0  0  0  0  0  0  0  0  0  0  0
   56.5090   23.5890   44.8210 C   0  0  0  0  0  0  0  0  0  0  0  0
   58.0990   27.0640   44.8860 C   0  0  0  0  0  0  0  0  0  0  0  0
   59.1660   27.9320   44.5910 C   0  0  0  0  0  0  0  0  0  0  0  0
   59.5400   28.8500   45.5670 C   0  0  0  0  0  0  0  0  0  0  0  0
   60.5040   29.7760   45.4960 N   0  0  0  0  0  0  0  0  0  0  0  0
   57.2265   32.7270   46.1283 H   0  0  0  0  0  0  0  0  0  0  0  0
   57.2148   33.6761   44.6033 H   0  0  0  0  0  0  0  0  0  0  0  0
   57.8166   31.9836   44.6033 H   0  0  0  0  0  0  0  0  0  0  0  0
   59.8832   32.8594   44.8637 H   0  0  0  0  0  0  0  0  0  0  0  0
   59.2019   34.4933   45.2603 H   0  0  0  0  0  0  0  0  0  0  0  0
   57.6654   33.5988   47.8113 H   0  0  0  0  0  0  0  0  0  0  0  0
   58.0787   31.8517   47.4920 H   0  0  0  0  0  0  0  0  0  0  0  0
   58.1300   32.9416   49.9642 H   0  0  0  0  0  0  0  0  0  0  0  0
   59.2208   31.6132   49.4426 H   0  0  0  0  0  0  0  0  0  0  0  0
   59.8088   33.3105   49.4426 H   0  0  0  0  0  0  0  0  0  0  0  0
   61.4492   34.9071   47.6313 H   0  0  0  0  0  0  0  0  0  0  0  0
   63.8101   34.3464   48.1781 H   0  0  0  0  0  0  0  0  0  0  0  0
   64.5918   31.9834   48.0602 H   0  0  0  0  0  0  0  0  0  0  0  0
   63.0226   30.1776   47.3862 H   0  0  0  0  0  0  0  0  0  0  0  0
   57.3847   28.1225   48.0956 H   0  0  0  0  0  0  0  0  0  0  0  0
   58.4927   24.7131   47.1255 H   0  0  0  0  0  0  0  0  0  0  0  0
   57.5033   23.4067   47.8818 H   0  0  0  0  0  0  0  0  0  0  0  0
   59.3567   22.2682   46.1874 H   0  0  0  0  0  0  0  0  0  0  0  0
   59.2792   20.9523   44.0722 H   0  0  0  0  0  0  0  0  0  0  0  0
   57.4173   21.2960   42.4463 H   0  0  0  0  0  0  0  0  0  0  0  0
   54.3932   23.2335   43.2363 H   0  0  0  0  0  0  0  0  0  0  0  0
   55.5453   23.9248   42.0440 H   0  0  0  0  0  0  0  0  0  0  0  0
   55.2029   22.1614   42.0440 H   0  0  0  0  0  0  0  0  0  0  0  0
   55.7396   24.3492   45.0213 H   0  0  0  0  0  0  0  0  0  0  0  0
   57.7777   26.3213   44.1409 H   0  0  0  0  0  0  0  0  0  0  0  0
   59.6862   27.8864   43.6228 H   0  0  0  0  0  0  0  0  0  0  0  0
  1  2  1  0
  2  3  1  0
  3  4  1  0
  4  5  1  0
  3  6  1  0
  6  7  2  0
  7  8  1  0
  8  9  2  0
  9 10  1  0
 10 11  2  0
 11 12  1  0
 12 13  2  0
 13 14  1  0
 14 15  2  0
 15 16  1  0
 16 17  1  0
 17 18  2  0
 17 19  1  0
 19 20  1  0
 20 21  1  0
 21 22  2  0
 22 23  1  0
 23 24  2  0
 24 25  1  0
 25 26  1  0
 25 27  2  0
 16 28  2  0
 28 29  1  0
 29 30  2  0
 30 31  1  0
 11  6  1  0
 31 12  1  0
 30 14  1  0
 27 21  1  0
  1 32  1  0
  1 33  1  0
  1 34  1  0
  2 35  1  0
  2 36  1  0
  4 37  1  0
  4 38  1  0
  5 39  1  0
  5 40  1  0
  5 41  1  0
  7 42  1  0
  8 43  1  0
  9 44  1  0
 10 45  1  0
 15 46  1  0
 20 47  1  0
 20 48  1  0
 22 49  1  0
 23 50  1  0
 24 51  1  0
 26 52  1  0
 26 53  1  0
 26 54  1  0
 27 55  1  0
 28 56  1  0
 29 57  1  0
M  CHG  2  19  -1  31  -1
M  END
>  <UniqueID>  (3) 
3

>  <SMILES>  (3) 
CCN(CC)c1ccccc1-c1nc2cc(C(=O)[N-]Cc3cccc(C)c3)ccc2[n-]1

>  <Energy>  (3) 
98.26961694171479

>  <Genealogy>  (3) 
CCN(CC)c1ccccc1-c1nc2cc(C(=O)[N-]Cc3cccc(C)c3)ccc2[n-]1 (protonated)
CCN(CC)c1ccccc1-c1nc2cc(C(=O)[N-]Cc3cccc(C)c3)ccc2[n-]1 (3D coordinates assigned)
CCN(CC)c1ccccc1-c1nc2cc(C(=O)[N-]Cc3cccc(C)c3)ccc2[n-]1 (optimized conformer: 98.26961694171479 kcal/mol)

>  <smiles>  (3) 
CCN(CC)c1ccccc1-c1nc2cc(C(=O)NCc3cccc(C)c3)ccc2[nH]1

>  <score_type>  (3) 
oracle

>  <origin>  (3) 
adg

>  <m_score__min__energy>  (3) 
-11.83

>  <m_primary>  (3) 
energy

$$$$
3:0
     RDKit          3D

 51 54  0  0  1  0  0  0  0  0999 V2000
   63.3570   33.5160   46.7890 C   0  0  0  0  0  0  0  0  0  0  0  0
   63.0770   34.1100   48.0370 O   0  0  0  0  0  0  0  0  0  0  0  0
   61.8480   33.8780   48.6530 C   0  0  0  0  0  0  0  0  0  0  0  0
   60.6850   33.7620   47.8840 C   0  0  0  0  0  0  0  0  0  0  0  0
   59.4740   33.5320   48.5010 C   0  0  0  0  0  0  0  0  0  0  0  0
   58.2480   33.4030   47.7920 N   0  0  0  0  0  0  0  0  0  0  0  0
   58.2860   33.2920   46.5080 C   0  0  0  0  0  0  0  0  0  0  0  0
   57.8210   32.1880   45.8980 N   0  0  0  0  0  0  0  0  0  0  0  0
   57.8460   32.0360   44.5320 C   0  0  0  0  0  0  0  0  0  0  0  0
   57.4300   30.7590   44.0280 C   0  0  0  0  0  0  0  0  0  0  0  0
   56.6410   30.6640   42.8630 C   0  0  0  0  0  0  0  0  0  0  0  0
   56.4350   29.3510   42.6400 N   0  0  0  0  0  0  0  0  0  0  0  0
   57.0190   28.6100   43.5520 N   0  0  0  0  0  0  0  0  0  0  0  0
   57.6280   29.4700   44.3940 C   0  0  0  0  0  0  0  0  0  0  0  0
   58.4060   29.0760   45.3300 N   0  0  0  0  0  0  0  0  0  0  0  0
   59.8150   29.4090   45.3970 C   0  0  0  0  0  0  0  0  0  0  0  0
   60.0060   29.7290   46.8740 C   0  0  0  0  0  0  0  0  0  0  0  0
   61.1700   30.2930   47.3420 C   0  0  0  0  0  0  0  0  0  0  0  0
   61.2140   30.5330   48.7200 C   0  0  0  0  0  0  0  0  0  0  0  0
   60.1810   30.2280   49.5150 N   0  0  0  0  0  0  0  0  0  0  0  0
   59.0600   29.6770   49.0160 C   0  0  0  0  0  0  0  0  0  0  0  0
   58.9320   29.4070   47.6710 C   0  0  0  0  0  0  0  0  0  0  0  0
   58.3800   33.0910   43.8440 C   0  0  0  0  0  0  0  0  0  0  0  0
   58.8520   34.2210   44.4930 C   0  0  0  0  0  0  0  0  0  0  0  0
   58.8110   34.3350   45.8330 N   0  0  0  0  0  0  0  0  0  0  0  0
   59.4090   33.4150   49.8930 C   0  0  0  0  0  0  0  0  0  0  0  0
   60.5490   33.5280   50.6520 C   0  0  0  0  0  0  0  0  0  0  0  0
   60.5270   33.4170   52.0520 O   0  0  0  0  0  0  0  0  0  0  0  0
   59.2980   33.5830   52.7310 C   0  0  0  0  0  0  0  0  0  0  0  0
   61.7740   33.7600   50.0340 C   0  0  0  0  0  0  0  0  0  0  0  0
   63.8211   32.5314   46.9475 H   0  0  0  0  0  0  0  0  0  0  0  0
   62.4217   33.3937   46.2230 H   0  0  0  0  0  0  0  0  0  0  0  0
   64.0465   34.1596   46.2230 H   0  0  0  0  0  0  0  0  0  0  0  0
   60.7369   33.8542   46.7891 H   0  0  0  0  0  0  0  0  0  0  0  0
   56.2662   31.4999   42.2541 H   0  0  0  0  0  0  0  0  0  0  0  0
   55.8820   28.9590   41.8470 H   0  0  0  0  0  0  0  0  0  0  0  0
   57.0160   27.5670   43.6160 H   0  0  0  0  0  0  0  0  0  0  0  0
   60.4401   28.5574   45.0903 H   0  0  0  0  0  0  0  0  0  0  0  0
   60.1040   30.2329   44.7280 H   0  0  0  0  0  0  0  0  0  0  0  0
   62.0109   30.5392   46.6769 H   0  0  0  0  0  0  0  0  0  0  0  0
   62.1169   30.9820   49.1594 H   0  0  0  0  0  0  0  0  0  0  0  0
   58.2288   29.4371   49.6954 H   0  0  0  0  0  0  0  0  0  0  0  0
   58.0181   28.9571   47.2559 H   0  0  0  0  0  0  0  0  0  0  0  0
   58.4363   33.0411   42.7466 H   0  0  0  0  0  0  0  0  0  0  0  0
   59.2708   35.0456   43.8974 H   0  0  0  0  0  0  0  0  0  0  0  0
   59.1610   35.1730   46.3410 H   0  0  0  0  0  0  0  0  0  0  0  0
   58.4411   33.2317   50.3825 H   0  0  0  0  0  0  0  0  0  0  0  0
   59.4729   33.5594   53.8168 H   0  0  0  0  0  0  0  0  0  0  0  0
   58.8527   34.5494   52.4523 H   0  0  0  0  0  0  0  0  0  0  0  0
   58.6123   32.7693   52.4523 H   0  0  0  0  0  0  0  0  0  0  0  0
   62.6864   33.8501   50.6417 H   0  0  0  0  0  0  0  0  0  0  0  0
  1  2  1  0
  2  3  1  0
  3  4  2  0
  4  5  1  0
  5  6  1  0
  6  7  2  0
  7  8  1  0
  8  9  2  0
  9 10  1  0
 10 11  2  0
 11 12  1  0
 12 13  1  0
 13 14  1  0
 14 15  2  0
 15 16  1  0
 16 17  1  0
 17 18  2  0
 18 19  1  0
 19 20  2  0
 20 21  1  0
 21 22  2  0
  9 23  1  0
 23 24  2  0
 24 25  1  0
  5 26  2  0
 26 27  1  0
 27 28  1  0
 28 29  1  0
 27 30  2  0
 30  3  1  0
 25  7  1  0
 14 10  1  0
 22 17  1  0
  1 31  1  0
  1 32  1  0
  1 33  1  0
  4 34  1  0
 11 35  1  0
 12 36  1  0
 13 37  1  0
 16 38  1  0
 16 39  1  0
 18 40  1  0
 19 41  1  0
 21 42  1  0
 22 43  1  0
 23 44  1  0
 24 45  1  0
 25 46  1  0
 26 47  1  0
 29 48  1  0
 29 49  1  0
 29 50  1  0
 30 51  1  0
M  END
>  <smiles>  (4) 
COc1cc(N=c2nc(-c3c[nH][nH]c3=NCc3ccncc3)cc[nH]2)cc(OC)c1

>  <score_type>  (4) 
oracle

>  <origin>  (4) 
adg

>  <m_score__min__energy>  (4) 
-8.7300000000000004

>  <m_primary>  (4) 
energy

$$$$
4:0
     RDKit          3D

 28 29  0  0  0  0  0  0  0  0999 V2000
   55.1470   29.3730   44.8430 N   0  0  0  0  0  0  0  0  0  0  0  0
   56.7880   29.8180   44.5290 S   0  0  0  0  0  0  0  0  0  0  0  0
   57.0510   31.1610   45.1540 O   0  0  0  0  0  0  0  0  0  0  0  0
   57.0060   29.9070   43.0460 O   0  0  0  0  0  0  0  0  0  0  0  0
   57.8770   28.6150   45.2110 C   0  0  0  0  0  0  0  0  0  0  0  0
   59.2540   28.6860   44.9640 C   0  0  0  0  0  0  0  0  0  0  0  0
   60.1140   27.7220   45.5010 C   0  0  0  0  0  0  0  0  0  0  0  0
   59.6010   26.6800   46.2770 C   0  0  0  0  0  0  0  0  0  0  0  0
   58.2250   26.5960   46.5160 C   0  0  0  0  0  0  0  0  0  0  0  0
   57.5590   25.2520   47.5020 S   0  0  0  0  0  0  0  0  0  0  0  0
   56.8820   24.4040   46.0680 C   0  0  0  0  0  0  0  0  0  0  0  0
   57.5930   23.3250   45.5260 C   0  0  0  0  0  0  0  0  0  0  0  0
   57.0880   22.6280   44.4260 C   0  0  0  0  0  0  0  0  0  0  0  0
   55.8720   23.0080   43.8550 C   0  0  0  0  0  0  0  0  0  0  0  0
   55.1620   24.0900   44.3810 C   0  0  0  0  0  0  0  0  0  0  0  0
   55.6590   24.7980   45.4820 C   0  0  0  0  0  0  0  0  0  0  0  0
   54.9260   25.8840   45.9630 O   0  0  0  0  0  0  0  0  0  0  0  0
   57.3640   27.5660   45.9870 C   0  0  0  0  0  0  0  0  0  0  0  0
   55.1640   28.6760   45.6220 H   0  0  0  0  0  0  0  0  0  0  0  0
   59.6598   29.5011   44.3468 H   0  0  0  0  0  0  0  0  0  0  0  0
   61.1958   27.7847   45.3118 H   0  0  0  0  0  0  0  0  0  0  0  0
   60.2794   25.9248   46.7006 H   0  0  0  0  0  0  0  0  0  0  0  0
   58.5541   23.0253   45.9693 H   0  0  0  0  0  0  0  0  0  0  0  0
   57.6491   21.7787   44.0091 H   0  0  0  0  0  0  0  0  0  0  0  0
   55.4732   22.4557   42.9914 H   0  0  0  0  0  0  0  0  0  0  0  0
   54.2054   24.3880   43.9269 H   0  0  0  0  0  0  0  0  0  0  0  0
   55.0980   26.3070   46.8660 H   0  0  0  0  0  0  0  0  0  0  0  0
   56.2830   27.5046   46.1808 H   0  0  0  0  0  0  0  0  0  0  0  0
  1  2  1  0
  2  3  2  0
  2  4  2  0
  2  5  1  0
  5  6  2  0
  6  7  1  0
  7  8  2  0
  8  9  1  0
  9 10  1  0
 10 11  1  0
 11 12  2  0
 12 13  1  0
 13 14  2  0
 14 15  1  0
 15 16  2  0
 16 17  1  0
  9 18  2  0
 18  5  1  0
 16 11  1  0
  1 19  1  0
  6 20  1  0
  7 21  1  0
  8 22  1  0
 12 23  1  0
 13 24  1  0
 14 25  1  0
 15 26  1  0
 17 27  1  0
 18 28  1  0
M  CHG  1   1  -1
M  END
>  <UniqueID>  (5) 
4

>  <SMILES>  (5) 
[NH-]S(=O)(=O)c1cccc(Sc2ccccc2O)c1

>  <Energy>  (5) 
24.57212637847877

>  <Genealogy>  (5) 
[NH-]S(=O)(=O)c1cccc(Sc2ccccc2O)c1 (protonated)
[NH-]S(=O)(=O)c1cccc(Sc2ccccc2O)c1 (3D coordinates assigned)
[NH-]S(=O)(=O)c1cccc(Sc2ccccc2O)c1 (optimized conformer: 24.57212637847877 kcal/mol)

>  <smiles>  (5) 
NS(=O)(=O)c1cccc(Sc2ccccc2O)c1

>  <score_type>  (5) 
oracle

>  <origin>  (5) 
adg

>  <m_score__min__energy>  (5) 
-11.1

>  <m_primary>  (5) 
energy

$$$$
5:0
     RDKit          3D

 36 38  0  0  0  0  0  0  0  0999 V2000
   59.2990   34.8120   46.6800 C   0  0  0  0  0  0  0  0  0  0  0  0
   58.7160   33.8540   45.7460 N   0  0  0  0  0  0  0  0  0  0  0  0
   58.3830   34.1680   44.5040 N   0  0  0  0  0  0  0  0  0  0  0  0
   57.8340   33.0780   43.9350 C   0  0  0  0  0  0  0  0  0  0  0  0
   57.8250   32.0360   44.8450 C   0  0  0  0  0  0  0  0  0  0  0  0
   57.2410   30.7020   44.6150 C   0  0  0  0  0  0  0  0  0  0  0  0
   56.0150   30.5200   44.8470 O   0  0  0  0  0  0  0  0  0  0  0  0
   58.0300   29.6340   44.0750 N   0  0  0  0  0  0  0  0  0  0  0  0
   57.7940   28.2450   44.3630 C   0  0  0  0  0  0  0  0  0  0  0  0
   58.0480   27.2430   43.4070 C   0  0  0  0  0  0  0  0  0  0  0  0
   57.7690   25.9040   43.6970 C   0  0  0  0  0  0  0  0  0  0  0  0
   57.2280   25.5530   44.9370 C   0  0  0  0  0  0  0  0  0  0  0  0
   56.9580   26.5430   45.8850 C   0  0  0  0  0  0  0  0  0  0  0  0
   57.2320   27.8840   45.5970 C   0  0  0  0  0  0  0  0  0  0  0  0
   58.3860   32.5670   46.0010 C   0  0  0  0  0  0  0  0  0  0  0  0
   58.5140   31.8950   47.3470 C   0  0  0  0  0  0  0  0  0  0  0  0
   59.1450   30.5800   47.2250 N   0  0  0  0  0  0  0  0  0  0  0  0
   58.9570   29.5080   48.0140 C   0  0  0  0  0  0  0  0  0  0  0  0
   59.8250   28.5220   47.6010 C   0  0  0  0  0  0  0  0  0  0  0  0
   60.5720   28.9790   46.5750 N   0  0  0  0  0  0  0  0  0  0  0  0
   60.1370   30.2410   46.3810 C   0  0  0  0  0  0  0  0  0  0  0  0
   59.1004   34.4857   47.7116 H   0  0  0  0  0  0  0  0  0  0  0  0
   60.3852   34.8693   46.5162 H   0  0  0  0  0  0  0  0  0  0  0  0
   58.8507   35.8031   46.5162 H   0  0  0  0  0  0  0  0  0  0  0  0
   57.4515   33.0243   42.9050 H   0  0  0  0  0  0  0  0  0  0  0  0
   58.7630   29.8780   43.3720 H   0  0  0  0  0  0  0  0  0  0  0  0
   58.4679   27.5149   42.4273 H   0  0  0  0  0  0  0  0  0  0  0  0
   57.9756   25.1254   42.9479 H   0  0  0  0  0  0  0  0  0  0  0  0
   57.0151   24.4984   45.1662 H   0  0  0  0  0  0  0  0  0  0  0  0
   56.5291   26.2674   46.8597 H   0  0  0  0  0  0  0  0  0  0  0  0
   57.0055   28.6605   46.3425 H   0  0  0  0  0  0  0  0  0  0  0  0
   59.1267   32.5270   48.0066 H   0  0  0  0  0  0  0  0  0  0  0  0
   57.5058   31.7597   47.7657 H   0  0  0  0  0  0  0  0  0  0  0  0
   58.2375   29.4319   48.8425 H   0  0  0  0  0  0  0  0  0  0  0  0
   59.8980   27.5162   48.0403 H   0  0  0  0  0  0  0  0  0  0  0  0
   60.5476   30.9181   45.6175 H   0  0  0  0  0  0  0  0  0  0  0  0
  1  2  1  0
  2  3  1  0
  3  4  2  0
  4  5  1  0
  5  6  1  0
  6  7  2  0
  6  8  1  0
  8  9  1  0
  9 10  2  0
 10 11  1  0
 11 12  2  0
 12 13  1  0
 13 14  2  0
  5 15  2  0
 15 16  1  0
 16 17  1  0
 17 18  1  0
 18 19  2  0
 19 20  1  0
 20 21  2  0
 15  2  1  0
 21 17  1  0
 14  9  1  0
  1 22  1  0
  1 23  1  0
  1 24  1  0
  4 25  1  0
  8 26  1  0
 10 27  1  0
 11 28  1  0
 12 29  1  0
 13 30  1  0
 14 31  1  0
 16 32  1  0
 16 33  1  0
 18 34  1  0
 19 35  1  0
 21 36  1  0
M  END
>  <UniqueID>  (6) 
5

>  <SMILES>  (6) 
Cn1ncc(C(=O)Nc2ccccc2)c1Cn1ccnc1

>  <Energy>  (6) 
99.66586535836984

>  <Genealogy>  (6) 
Cn1ncc(C(=O)Nc2ccccc2)c1Cn1ccnc1 (3D coordinates assigned)
Cn1ncc(C(=O)Nc2ccccc2)c1Cn1ccnc1 (optimized conformer: 99.66586535836984 kcal/mol)

>  <smiles>  (6) 
Cn1ncc(C(=O)Nc2ccccc2)c1Cn1ccnc1

>  <score_type>  (6) 
oracle

>  <origin>  (6) 
adg

>  <m_score__min__energy>  (6) 
-6.6299999999999999

>  <m_primary>  (6) 
energy

$$$$
6:0
     RDKit          3D

 28 29  0  0  0  0  0  0  0  0999 V2000
   57.2650   26.1910   44.6340 O   0  0  0  0  0  0  0  0  0  0  0  0
   56.8750   26.8260   45.6350 N   0  0  0  0  0  0  0  0  0  0  0  0
   55.5530   26.7340   46.0040 O   0  0  0  0  0  0  0  0  0  0  0  0
   57.7280   27.8140   46.2370 C   0  0  0  0  0  0  0  0  0  0  0  0
   58.5920   27.4280   47.2780 C   0  0  0  0  0  0  0  0  0  0  0  0
   59.4670   28.3490   47.8550 C   0  0  0  0  0  0  0  0  0  0  0  0
   59.4910   29.6670   47.4020 C   0  0  0  0  0  0  0  0  0  0  0  0
   58.6280   30.0730   46.3830 C   0  0  0  0  0  0  0  0  0  0  0  0
   57.7300   29.1640   45.8010 C   0  0  0  0  0  0  0  0  0  0  0  0
   56.5970   29.7610   44.5810 S   0  0  0  0  0  0  0  0  0  0  0  0
   57.2140   29.5940   43.2200 O   0  0  0  0  0  0  0  0  0  0  0  0
   55.3050   28.9970   44.6520 O   0  0  0  0  0  0  0  0  0  0  0  0
   56.2610   31.4380   44.8680 N   0  0  0  0  0  0  0  0  0  0  0  0
   57.2780   32.4210   45.0820 C   0  0  0  0  0  0  0  0  0  0  0  0
   57.4110   32.9760   46.3620 C   0  0  0  0  0  0  0  0  0  0  0  0
   58.3940   33.9340   46.6200 C   0  0  0  0  0  0  0  0  0  0  0  0
   59.2420   34.3590   45.5950 C   0  0  0  0  0  0  0  0  0  0  0  0
   59.0990   33.8360   44.3080 C   0  0  0  0  0  0  0  0  0  0  0  0
   58.1160   32.8730   44.0400 C   0  0  0  0  0  0  0  0  0  0  0  0
   57.9100   32.3360   42.3780 Cl  0  0  0  0  0  0  0  0  0  0  0  0
   58.5776   26.3896   47.6407 H   0  0  0  0  0  0  0  0  0  0  0  0
   60.1383   28.0348   48.6678 H   0  0  0  0  0  0  0  0  0  0  0  0
   60.1913   30.3884   47.8484 H   0  0  0  0  0  0  0  0  0  0  0  0
   58.6516   31.1154   46.0324 H   0  0  0  0  0  0  0  0  0  0  0  0
   56.7363   32.6548   47.1692 H   0  0  0  0  0  0  0  0  0  0  0  0
   58.5003   34.3540   47.6311 H   0  0  0  0  0  0  0  0  0  0  0  0
   60.0227   35.1059   45.8014 H   0  0  0  0  0  0  0  0  0  0  0  0
   59.7611   34.1814   43.5003 H   0  0  0  0  0  0  0  0  0  0  0  0
  1  2  2  0
  2  3  1  0
  2  4  1  0
  4  5  2  0
  5  6  1  0
  6  7  2  0
  7  8  1  0
  8  9  2  0
  9 10  1  0
 10 11  2  0
 10 12  2  0
 10 13  1  0
 13 14  1  0
 14 15  2  0
 15 16  1  0
 16 17  2  0
 17 18  1  0
 18 19  2  0
 19 20  1  0
  9  4  1  0
 19 14  1  0
  5 21  1  0
  6 22  1  0
  7 23  1  0
  8 24  1  0
 15 25  1  0
 16 26  1  0
 17 27  1  0
 18 28  1  0
M  CHG  3   2   1   3  -1  13  -1
M  END
>  <UniqueID>  (7) 
6

>  <SMILES>  (7) 
O=[N+]([O-])c1ccccc1S(=O)(=O)[N-]c1ccccc1Cl

>  <Energy>  (7) 
45.58690177369176

>  <Genealogy>  (7) 
O=[N+]([O-])c1ccccc1S(=O)(=O)[N-]c1ccccc1Cl (protonated)
O=[N+]([O-])c1ccccc1S(=O)(=O)[N-]c1ccccc1Cl (3D coordinates assigned)
O=[N+]([O-])c1ccccc1S(=O)(=O)[N-]c1ccccc1Cl (optimized conformer: 45.58690177369176 kcal/mol)

>  <smiles>  (7) 
O=[N+]([O-])c1ccccc1S(=O)(=O)Nc1ccccc1Cl

>  <score_type>  (7) 
oracle

>  <origin>  (7) 
adg

>  <m_score__min__energy>  (7) 
-9.4399999999999995

>  <m_primary>  (7) 
energy

$$$$
7:0
     RDKit          3D

 53 56  0  0  0  0  0  0  0  0999 V2000
   57.5160   27.4850   45.3940 O   0  0  0  0  0  0  0  0  0  0  0  0
   56.2830   27.7210   45.5120 C   0  0  0  0  0  0  0  0  0  0  0  0
   55.3970   26.7090   45.9920 N   0  0  0  0  0  0  0  0  0  0  0  0
   55.8320   25.3450   46.2600 C   0  0  0  0  0  0  0  0  0  0  0  0
   55.9250   24.5910   44.9750 C   0  0  0  0  0  0  0  0  0  0  0  0
   57.0280   24.5390   44.1480 C   0  0  0  0  0  0  0  0  0  0  0  0
   56.6580   23.7390   43.0880 C   0  0  0  0  0  0  0  0  0  0  0  0
   55.3530   23.3600   43.3310 C   0  0  0  0  0  0  0  0  0  0  0  0
   54.9430   23.8860   44.4620 O   0  0  0  0  0  0  0  0  0  0  0  0
   55.7600   29.0100   45.1840 N   0  0  0  0  0  0  0  0  0  0  0  0
   56.4630   29.9920   44.4110 C   0  0  0  0  0  0  0  0  0  0  0  0
   56.1980   30.0740   43.0370 C   0  0  0  0  0  0  0  0  0  0  0  0
   56.9040   30.9720   42.2330 C   0  0  0  0  0  0  0  0  0  0  0  0
   57.8760   31.8010   42.7970 C   0  0  0  0  0  0  0  0  0  0  0  0
   58.1240   31.7560   44.1700 C   0  0  0  0  0  0  0  0  0  0  0  0
   57.4000   30.8840   44.9940 C   0  0  0  0  0  0  0  0  0  0  0  0
   57.6350   30.9290   46.3760 O   0  0  0  0  0  0  0  0  0  0  0  0
   58.7740   30.4060   47.0080 C   0  0  0  0  0  0  0  0  0  0  0  0
   59.2280   29.0990   46.7620 C   0  0  0  0  0  0  0  0  0  0  0  0
   60.3870   28.6450   47.3920 C   0  0  0  0  0  0  0  0  0  0  0  0
   61.0660   29.4630   48.2400 N   0  0  0  0  0  0  0  0  0  0  0  0
   60.6410   30.7280   48.5120 C   0  0  0  0  0  0  0  0  0  0  0  0
   61.3570   31.5570   49.3820 O   0  0  0  0  0  0  0  0  0  0  0  0
   62.5760   32.2090   49.0270 C   0  0  0  0  0  0  0  0  0  0  0  0
   62.3620   33.7120   48.8270 C   0  0  0  0  0  0  0  0  0  0  0  0
   61.2340   33.9780   47.8640 C   0  0  0  0  0  0  0  0  0  0  0  0
   61.4070   33.7420   46.4910 C   0  0  0  0  0  0  0  0  0  0  0  0
   60.3490   33.9550   45.6010 C   0  0  0  0  0  0  0  0  0  0  0  0
   59.1100   34.3940   46.0770 C   0  0  0  0  0  0  0  0  0  0  0  0
   58.9270   34.6210   47.4440 C   0  0  0  0  0  0  0  0  0  0  0  0
   59.9830   34.4130   48.3370 C   0  0  0  0  0  0  0  0  0  0  0  0
   59.4760   31.2120   47.9090 C   0  0  0  0  0  0  0  0  0  0  0  0
   56.8184   25.3636   46.7465 H   0  0  0  0  0  0  0  0  0  0  0  0
   55.1056   24.8519   46.9228 H   0  0  0  0  0  0  0  0  0  0  0  0
   57.9990   25.0324   44.3021 H   0  0  0  0  0  0  0  0  0  0  0  0
   57.2775   23.4592   42.2232 H   0  0  0  0  0  0  0  0  0  0  0  0
   54.7483   22.7151   42.6764 H   0  0  0  0  0  0  0  0  0  0  0  0
   55.4293   29.4271   42.5891 H   0  0  0  0  0  0  0  0  0  0  0  0
   56.6941   31.0262   41.1546 H   0  0  0  0  0  0  0  0  0  0  0  0
   58.4472   32.4907   42.1582 H   0  0  0  0  0  0  0  0  0  0  0  0
   58.8929   32.4094   44.6080 H   0  0  0  0  0  0  0  0  0  0  0  0
   58.6739   28.4392   46.0782 H   0  0  0  0  0  0  0  0  0  0  0  0
   60.7518   27.6247   47.2027 H   0  0  0  0  0  0  0  0  0  0  0  0
   63.3122   32.0550   49.8297 H   0  0  0  0  0  0  0  0  0  0  0  0
   62.9381   31.7797   48.0811 H   0  0  0  0  0  0  0  0  0  0  0  0
   62.1221   34.1725   49.7967 H   0  0  0  0  0  0  0  0  0  0  0  0
   63.2845   34.1430   48.4108 H   0  0  0  0  0  0  0  0  0  0  0  0
   62.3779   33.3884   46.1137 H   0  0  0  0  0  0  0  0  0  0  0  0
   60.4921   33.7768   44.5250 H   0  0  0  0  0  0  0  0  0  0  0  0
   58.2791   34.5608   45.3757 H   0  0  0  0  0  0  0  0  0  0  0  0
   57.9509   34.9637   47.8180 H   0  0  0  0  0  0  0  0  0  0  0  0
   59.8347   34.5901   49.4125 H   0  0  0  0  0  0  0  0  0  0  0  0
   59.1130   32.2237   48.1428 H   0  0  0  0  0  0  0  0  0  0  0  0
  1  2  2  0
  2  3  1  0
  3  4  1  0
  4  5  1  0
  5  6  2  0
  6  7  1  0
  7  8  2  0
  8  9  1  0
  2 10  1  0
 10 11  1  0
 11 12  2  0
 12 13  1  0
 13 14  2  0
 14 15  1  0
 15 16  2  0
 16 17  1  0
 17 18  1  0
 18 19  2  0
 19 20  1  0
 20 21  2  0
 21 22  1  0
 22 23  1  0
 23 24  1  0
 24 25  1  0
 25 26  1  0
 26 27  2  0
 27 28  1  0
 28 29  2  0
 29 30  1  0
 30 31  2  0
 22 32  2  0
  9  5  1  0
 16 11  1  0
 32 18  1  0
 31 26  1  0
  4 33  1  0
  4 34  1  0
  6 35  1  0
  7 36  1  0
  8 37  1  0
 12 38  1  0
 13 39  1  0
 14 40  1  0
 15 41  1  0
 19 42  1  0
 20 43  1  0
 24 44  1  0
 24 45  1  0
 25 46  1  0
 25 47  1  0
 27 48  1  0
 28 49  1  0
 29 50  1  0
 30 51  1  0
 31 52  1  0
 32 53  1  0
M  CHG  2   3  -1  10  -1
M  END
>  <UniqueID>  (8) 
7

>  <SMILES>  (8) 
O=C([N-]Cc1ccco1)[N-]c1ccccc1Oc1ccnc(OCCc2ccccc2)c1

>  <Energy>  (8) 
86.48217073353473

>  <Genealogy>  (8) 
O=C([N-]Cc1ccco1)[N-]c1ccccc1Oc1ccnc(OCCc2ccccc2)c1 (protonated)
O=C([N-]Cc1ccco1)[N-]c1ccccc1Oc1ccnc(OCCc2ccccc2)c1 (3D coordinates assigned)
O=C([N-]Cc1ccco1)[N-]c1ccccc1Oc1ccnc(OCCc2ccccc2)c1 (optimized conformer: 86.48217073353473 kcal/mol)

>  <smiles>  (8) 
O=C(NCc1ccco1)Nc1ccccc1Oc1ccnc(OCCc2ccccc2)c1

>  <score_type>  (8) 
oracle

>  <origin>  (8) 
adg

>  <m_score__min__energy>  (8) 
-13.529999999999999

>  <m_primary>  (8) 
energy

$$$$
8:0
     RDKit          3D

 25 25  0  0  0  0  0  0  0  0999 V2000
   55.9300   26.7870   45.7980 N   0  0  0  0  0  0  0  0  0  0  0  0
   56.9770   26.2860   46.3700 C   0  0  0  0  0  0  0  0  0  0  0  0
   57.2260   24.8810   46.3280 N   0  0  0  0  0  0  0  0  0  0  0  0
   58.1100   27.3660   47.2430 S   0  0  0  0  0  0  0  0  0  0  0  0
   58.8190   28.1110   45.7290 C   0  0  0  0  0  0  0  0  0  0  0  0
   58.7730   29.6230   45.7840 C   0  0  0  0  0  0  0  0  0  0  0  0
   59.7450   30.2790   46.5620 C   0  0  0  0  0  0  0  0  0  0  0  0
   59.7610   31.6690   46.6690 C   0  0  0  0  0  0  0  0  0  0  0  0
   58.8120   32.4310   45.9900 C   0  0  0  0  0  0  0  0  0  0  0  0
   58.8360   34.3350   46.1380 Br  0  0  0  0  0  0  0  0  0  0  0  0
   57.8520   31.8030   45.1950 C   0  0  0  0  0  0  0  0  0  0  0  0
   57.8200   30.4030   45.0730 C   0  0  0  0  0  0  0  0  0  0  0  0
   56.6060   29.6800   44.0000 S   0  0  0  0  0  0  0  0  0  0  0  0
   55.1420   29.3430   44.8570 N   0  0  0  0  0  0  0  0  0  0  0  0
   56.2910   30.6380   42.8850 O   0  0  0  0  0  0  0  0  0  0  0  0
   57.1300   28.3930   43.4280 O   0  0  0  0  0  0  0  0  0  0  0  0
   56.0010   27.3590   44.9280 H   0  0  0  0  0  0  0  0  0  0  0  0
   58.0740   24.4840   46.7900 H   0  0  0  0  0  0  0  0  0  0  0  0
   56.5750   24.2350   45.8280 H   0  0  0  0  0  0  0  0  0  0  0  0
   59.8657   27.7882   45.6276 H   0  0  0  0  0  0  0  0  0  0  0  0
   58.2225   27.7776   44.8670 H   0  0  0  0  0  0  0  0  0  0  0  0
   60.5037   29.6861   47.0938 H   0  0  0  0  0  0  0  0  0  0  0  0
   60.5226   32.1642   47.2893 H   0  0  0  0  0  0  0  0  0  0  0  0
   57.1106   32.4117   44.6567 H   0  0  0  0  0  0  0  0  0  0  0  0
   55.3700   28.6290   45.5860 H   0  0  0  0  0  0  0  0  0  0  0  0
  1  2  2  3
  2  3  1  0
  2  4  1  0
  4  5  1  0
  5  6  1  0
  6  7  2  0
  7  8  1  0
  8  9  2  0
  9 10  1  0
  9 11  1  0
 11 12  2  0
 12 13  1  0
 13 14  1  0
 13 15  2  0
 13 16  2  0
 12  6  1  0
  1 17  1  0
  3 18  1  0
  3 19  1  0
  5 20  1  0
  5 21  1  0
  7 22  1  0
  8 23  1  0
 11 24  1  0
 14 25  1  0
M  CHG  1  14  -1
M  END
>  <UniqueID>  (9) 
8

>  <SMILES>  (9) 
N=C(N)SCc1ccc(Br)cc1S([NH-])(=O)=O

>  <Energy>  (9) 
20.257935628883292

>  <Genealogy>  (9) 
N=C(N)SCc1ccc(Br)cc1S([NH-])(=O)=O (protonated)
N=C(N)SCc1ccc(Br)cc1S([NH-])(=O)=O (3D coordinates assigned)
N=C(N)SCc1ccc(Br)cc1S([NH-])(=O)=O (optimized conformer: 20.257935628883292 kcal/mol)

>  <smiles>  (9) 
N=C(N)SCc1ccc(Br)cc1S(N)(=O)=O

>  <score_type>  (9) 
oracle

>  <origin>  (9) 
adg

>  <m_score__min__energy>  (9) 
-9.5899999999999999

>  <m_primary>  (9) 
energy

$$$$
9:0
     RDKit          3D

 38 40  0  0  0  0  0  0  0  0999 V2000
   57.1140   31.2740   43.3600 C   0  0  0  0  0  0  0  0  0  0  0  0
   57.5560   31.6060   44.7540 C   0  0  0  0  0  0  0  0  0  0  0  0
   57.3940   32.9060   45.2550 C   0  0  0  0  0  0  0  0  0  0  0  0
   57.8400   33.2260   46.5410 C   0  0  0  0  0  0  0  0  0  0  0  0
   58.4780   32.2580   47.3340 C   0  0  0  0  0  0  0  0  0  0  0  0
   58.9430   32.5810   48.7000 C   0  0  0  0  0  0  0  0  0  0  0  0
   58.1320   32.6020   49.7720 N   0  0  0  0  0  0  0  0  0  0  0  0
   58.9000   33.0420   50.7850 C   0  0  0  0  0  0  0  0  0  0  0  0
   58.3050   33.2700   52.4150 S   0  0  0  0  0  0  0  0  0  0  0  0
   57.0340   32.0920   52.8080 C   0  0  0  0  0  0  0  0  0  0  0  0
   57.7640   34.8460   52.6290 O   0  0  0  0  0  0  0  0  0  0  0  0
   60.1730   33.2970   50.4220 N   0  0  0  0  0  0  0  0  0  0  0  0
   60.2060   33.0010   49.1060 C   0  0  0  0  0  0  0  0  0  0  0  0
   61.4460   33.0660   48.3050 C   0  0  0  0  0  0  0  0  0  0  0  0
   61.4970   33.7990   47.1060 C   0  0  0  0  0  0  0  0  0  0  0  0
   62.6740   33.8370   46.3520 C   0  0  0  0  0  0  0  0  0  0  0  0
   63.8030   33.1310   46.7790 C   0  0  0  0  0  0  0  0  0  0  0  0
   63.7530   32.3810   47.9570 C   0  0  0  0  0  0  0  0  0  0  0  0
   62.5790   32.3420   48.7130 C   0  0  0  0  0  0  0  0  0  0  0  0
   58.6380   30.9580   46.8300 C   0  0  0  0  0  0  0  0  0  0  0  0
   58.1910   30.6380   45.5450 C   0  0  0  0  0  0  0  0  0  0  0  0
   56.2351   30.6138   43.4015 H   0  0  0  0  0  0  0  0  0  0  0  0
   56.8519   32.2004   42.8280 H   0  0  0  0  0  0  0  0  0  0  0  0
   57.9307   30.7642   42.8280 H   0  0  0  0  0  0  0  0  0  0  0  0
   56.9143   33.6767   44.6339 H   0  0  0  0  0  0  0  0  0  0  0  0
   57.6903   34.2424   46.9342 H   0  0  0  0  0  0  0  0  0  0  0  0
   57.1150   32.3690   49.8070 H   0  0  0  0  0  0  0  0  0  0  0  0
   56.9400   32.0048   53.9005 H   0  0  0  0  0  0  0  0  0  0  0  0
   56.0771   32.4297   52.3834 H   0  0  0  0  0  0  0  0  0  0  0  0
   57.2981   31.1122   52.3834 H   0  0  0  0  0  0  0  0  0  0  0  0
   58.3570   35.3910   52.0540 H   0  0  0  0  0  0  0  0  0  0  0  0
   60.6070   34.3449   46.7597 H   0  0  0  0  0  0  0  0  0  0  0  0
   62.7118   34.4230   45.4218 H   0  0  0  0  0  0  0  0  0  0  0  0
   64.7300   33.1660   46.1879 H   0  0  0  0  0  0  0  0  0  0  0  0
   64.6393   31.8206   48.2894 H   0  0  0  0  0  0  0  0  0  0  0  0
   62.5413   31.7408   49.6334 H   0  0  0  0  0  0  0  0  0  0  0  0
   59.1180   30.1864   47.4499 H   0  0  0  0  0  0  0  0  0  0  0  0
   58.3382   29.6212   45.1521 H   0  0  0  0  0  0  0  0  0  0  0  0
  1  2  1  0
  2  3  2  0
  3  4  1  0
  4  5  2  0
  5  6  1  0
  6  7  1  0
  7  8  1  0
  8  9  1  0
  9 10  1  0
  9 11  1  6
  8 12  2  0
 12 13  1  0
 13 14  1  0
 14 15  2  0
 15 16  1  0
 16 17  2  0
 17 18  1  0
 18 19  2  0
  5 20  1  0
 20 21  2  0
 21  2  1  0
 13  6  2  0
 19 14  1  0
  1 22  1  0
  1 23  1  0
  1 24  1  0
  3 25  1  0
  4 26  1  0
  7 27  1  0
 10 28  1  0
 10 29  1  0
 10 30  1  0
 11 31  1  0
 15 32  1  0
 16 33  1  0
 17 34  1  0
 18 35  1  0
 19 36  1  0
 20 37  1  0
 21 38  1  0
M  CHG  1   9   1
M  END
>  <UniqueID>  (10) 
9

>  <SMILES>  (10) 
Cc1ccc(-c2[nH]c([S@+](C)O)nc2-c2ccccc2)cc1

>  <Energy>  (10) 
71.75803112327344

>  <Genealogy>  (10) 
Cc1ccc(-c2[nH]c([S+](C)O)nc2-c2ccccc2)cc1 (protonated)
Cc1ccc(-c2[nH]c([S@+](C)O)nc2-c2ccccc2)cc1 (chirality)
Cc1ccc(-c2[nH]c([S@+](C)O)nc2-c2ccccc2)cc1 (3D coordinates assigned)
Cc1ccc(-c2[nH]c([S@+](C)O)nc2-c2ccccc2)cc1 (optimized conformer: 71.75803112327344 kcal/mol)

>  <smiles>  (10) 
Cc1ccc(-c2[nH]c([S+](C)[O-])nc2-c2ccccc2)cc1

>  <score_type>  (10) 
oracle

>  <origin>  (10) 
adg

>  <m_score__min__energy>  (10) 
-6.1100000000000003

>  <m_primary>  (10) 
energy

$$$$
10:0
     RDKit          3D

 42 44  0  0  0  0  0  0  0  0999 V2000
   59.5900   35.1640   45.7470 C   0  0  0  0  0  0  0  0  0  0  0  0
   59.2770   34.0060   46.6580 C   0  0  0  0  0  0  0  0  0  0  0  0
   59.8360   33.9970   47.9480 C   0  0  0  0  0  0  0  0  0  0  0  0
   59.5640   32.9520   48.8330 C   0  0  0  0  0  0  0  0  0  0  0  0
   58.7280   31.9070   48.4450 C   0  0  0  0  0  0  0  0  0  0  0  0
   58.1500   31.9090   47.1740 C   0  0  0  0  0  0  0  0  0  0  0  0
   58.4000   32.9590   46.2750 C   0  0  0  0  0  0  0  0  0  0  0  0
   57.6110   32.9250   44.6870 S   0  0  0  0  0  0  0  0  0  0  0  0
   58.6160   33.0830   43.5810 O   0  0  0  0  0  0  0  0  0  0  0  0
   56.6410   34.0700   44.6130 O   0  0  0  0  0  0  0  0  0  0  0  0
   56.7470   31.4360   44.4580 N   0  0  0  0  0  0  0  0  0  0  0  0
   57.1490   30.1220   44.8760 C   0  0  0  0  0  0  0  0  0  0  0  0
   58.5230   29.8500   44.9130 C   0  0  0  0  0  0  0  0  0  0  0  0
   58.9900   28.5820   45.2550 C   0  0  0  0  0  0  0  0  0  0  0  0
   58.0890   27.5730   45.5930 C   0  0  0  0  0  0  0  0  0  0  0  0
   56.7160   27.8340   45.6260 C   0  0  0  0  0  0  0  0  0  0  0  0
   55.8270   26.7680   45.9880 N   0  0  0  0  0  0  0  0  0  0  0  0
   56.2300   25.4540   46.3910 C   0  0  0  0  0  0  0  0  0  0  0  0
   56.6960   25.2680   47.5490 O   0  0  0  0  0  0  0  0  0  0  0  0
   56.1470   24.3220   45.4370 C   0  0  0  0  0  0  0  0  0  0  0  0
   56.6250   24.4610   44.1210 C   0  0  0  0  0  0  0  0  0  0  0  0
   56.5500   23.3920   43.2230 C   0  0  0  0  0  0  0  0  0  0  0  0
   55.9990   22.1730   43.6280 C   0  0  0  0  0  0  0  0  0  0  0  0
   55.9250   21.1120   42.7340 O   0  0  0  0  0  0  0  0  0  0  0  0
   55.5200   22.0230   44.9320 C   0  0  0  0  0  0  0  0  0  0  0  0
   55.5940   23.0900   45.8330 C   0  0  0  0  0  0  0  0  0  0  0  0
   56.2360   29.1070   45.2480 C   0  0  0  0  0  0  0  0  0  0  0  0
   54.8690   29.3450   45.2420 O   0  0  0  0  0  0  0  0  0  0  0  0
   59.8299   36.0514   46.3512 H   0  0  0  0  0  0  0  0  0  0  0  0
   60.4514   34.9088   45.1123 H   0  0  0  0  0  0  0  0  0  0  0  0
   58.7173   35.3775   45.1123 H   0  0  0  0  0  0  0  0  0  0  0  0
   60.4936   34.8207   48.2628 H   0  0  0  0  0  0  0  0  0  0  0  0
   60.0105   32.9536   49.8383 H   0  0  0  0  0  0  0  0  0  0  0  0
   58.5232   31.0798   49.1406 H   0  0  0  0  0  0  0  0  0  0  0  0
   57.4923   31.0800   46.8737 H   0  0  0  0  0  0  0  0  0  0  0  0
   59.2415   30.6464   44.6693 H   0  0  0  0  0  0  0  0  0  0  0  0
   60.0707   28.3771   45.2583 H   0  0  0  0  0  0  0  0  0  0  0  0
   58.4605   26.5663   45.8350 H   0  0  0  0  0  0  0  0  0  0  0  0
   57.0608   25.4174   43.7964 H   0  0  0  0  0  0  0  0  0  0  0  0
   56.9253   23.5105   42.1958 H   0  0  0  0  0  0  0  0  0  0  0  0
   55.0842   21.0645   45.2503 H   0  0  0  0  0  0  0  0  0  0  0  0
   55.2171   22.9653   46.8589 H   0  0  0  0  0  0  0  0  0  0  0  0
  1  2  1  0
  2  3  2  0
  3  4  1  0
  4  5  2  0
  5  6  1  0
  6  7  2  0
  7  8  1  0
  8  9  2  0
  8 10  2  0
  8 11  1  0
 11 12  1  0
 12 13  2  0
 13 14  1  0
 14 15  2  0
 15 16  1  0
 16 17  1  0
 17 18  1  0
 18 19  2  0
 18 20  1  0
 20 21  2  0
 21 22  1  0
 22 23  2  0
 23 24  1  0
 23 25  1  0
 25 26  2  0
 16 27  2  0
 27 28  1  0
  7  2  1  0
 27 12  1  0
 26 20  1  0
  1 29  1  0
  1 30  1  0
  1 31  1  0
  3 32  1  0
  4 33  1  0
  5 34  1  0
  6 35  1  0
 13 36  1  0
 14 37  1  0
 15 38  1  0
 21 39  1  0
 22 40  1  0
 25 41  1  0
 26 42  1  0
M  CHG  4  11  -1  17  -1  24  -1  28  -1
M  END
>  <UniqueID>  (11) 
10

>  <SMILES>  (11) 
Cc1ccccc1S(=O)(=O)[N-]c1cccc([N-]C(=O)c2ccc([O-])cc2)c1[O-]

>  <Energy>  (11) 
59.45279047676353

>  <Genealogy>  (11) 
Cc1ccccc1S(=O)(=O)[N-]c1cccc([N-]C(=O)c2ccc([O-])cc2)c1[O-] (protonated)
Cc1ccccc1S(=O)(=O)[N-]c1cccc([N-]C(=O)c2ccc([O-])cc2)c1[O-] (3D coordinates assigned)
Cc1ccccc1S(=O)(=O)[N-]c1cccc([N-]C(=O)c2ccc([O-])cc2)c1[O-] (optimized conformer: 59.45279047676353 kcal/mol)

>  <smiles>  (11) 
Cc1ccccc1S(=O)(=O)Nc1cccc(NC(=O)c2ccc(O)cc2)c1O

>  <score_type>  (11) 
oracle

>  <origin>  (11) 
adg

>  <m_score__min__energy>  (11) 
-17.32

>  <m_primary>  (11) 
energy

$$$$
11:0
     RDKit          3D

 56 59  0  0  0  0  0  0  0  0999 V2000
   56.2900   30.7050   54.2760 C   0  0  0  0  0  0  0  0  0  0  0  0
   56.7060   30.2960   52.5930 S   0  0  0  0  0  0  0  0  0  0  0  0
   56.4160   28.8370   52.3720 O   0  0  0  0  0  0  0  0  0  0  0  0
   55.8730   31.1030   51.6360 O   0  0  0  0  0  0  0  0  0  0  0  0
   58.3930   30.5810   52.3060 N   0  0  0  0  0  0  0  0  0  0  0  0
   58.9190   31.6950   51.5600 C   0  0  0  0  0  0  0  0  0  0  0  0
   59.6560   32.6780   52.2370 C   0  0  0  0  0  0  0  0  0  0  0  0
   60.1800   33.7730   51.5480 C   0  0  0  0  0  0  0  0  0  0  0  0
   59.9800   33.8980   50.1730 C   0  0  0  0  0  0  0  0  0  0  0  0
   59.2530   32.9240   49.4700 C   0  0  0  0  0  0  0  0  0  0  0  0
   59.0460   33.0530   48.0050 C   0  0  0  0  0  0  0  0  0  0  0  0
   60.1200   33.3730   47.1540 C   0  0  0  0  0  0  0  0  0  0  0  0
   59.9260   33.4920   45.7760 C   0  0  0  0  0  0  0  0  0  0  0  0
   58.6520   33.2970   45.2200 C   0  0  0  0  0  0  0  0  0  0  0  0
   58.4470   33.3900   43.7260 C   0  0  0  0  0  0  0  0  0  0  0  0
   57.4790   32.3220   43.1870 C   0  0  1  0  0  0  0  0  0  0  0  0
   57.4320   32.3430   41.7160 C   0  0  0  0  0  0  0  0  0  0  0  0
   57.3960   32.3580   40.5590 N   0  0  0  0  0  0  0  0  0  0  0  0
   57.8810   30.9990   43.6530 N   0  0  0  0  0  0  0  0  0  0  0  0
   57.0610   30.1510   44.4640 C   0  0  0  0  0  0  0  0  0  0  0  0
   55.8700   30.4820   44.7170 O   0  0  0  0  0  0  0  0  0  0  0  0
   57.5790   28.8060   44.9230 C   0  0  1  0  0  0  0  0  0  0  0  0
   58.6460   28.2460   44.0660 N   0  0  0  0  0  0  0  0  0  0  0  0
   59.7050   27.9000   45.0320 C   0  0  1  0  0  0  0  0  0  0  0  0
   60.4110   29.1870   45.4990 C   0  0  0  0  0  0  0  0  0  0  0  0
   59.3520   29.8190   46.4120 C   0  0  0  0  0  0  0  0  0  0  0  0
   58.1940   28.8010   46.3390 C   0  0  2  0  0  0  0  0  0  0  0  0
   58.9500   27.4990   46.2770 C   0  0  0  0  0  0  0  0  0  0  0  0
   57.5780   32.9740   46.0640 C   0  0  0  0  0  0  0  0  0  0  0  0
   57.7720   32.8550   47.4410 C   0  0  0  0  0  0  0  0  0  0  0  0
   58.7250   31.8240   50.1720 C   0  0  0  0  0  0  0  0  0  0  0  0
   56.9031   30.1022   54.9621 H   0  0  0  0  0  0  0  0  0  0  0  0
   56.4847   31.7731   54.4526 H   0  0  0  0  0  0  0  0  0  0  0  0
   55.2253   30.4922   54.4526 H   0  0  0  0  0  0  0  0  0  0  0  0
   59.0630   29.9270   52.7720 H   0  0  0  0  0  0  0  0  0  0  0  0
   59.8224   32.5851   53.3204 H   0  0  0  0  0  0  0  0  0  0  0  0
   60.7524   34.5397   52.0908 H   0  0  0  0  0  0  0  0  0  0  0  0
   60.3942   34.7645   49.6366 H   0  0  0  0  0  0  0  0  0  0  0  0
   61.1225   33.5310   47.5783 H   0  0  0  0  0  0  0  0  0  0  0  0
   60.7759   33.7398   45.1231 H   0  0  0  0  0  0  0  0  0  0  0  0
   58.0404   34.3841   43.4887 H   0  0  0  0  0  0  0  0  0  0  0  0
   59.4233   33.2223   43.2477 H   0  0  0  0  0  0  0  0  0  0  0  0
   56.4725   32.5509   43.5674 H   0  0  0  0  0  0  0  0  0  0  0  0
   56.6583   28.2054   44.8825 H   0  0  0  0  0  0  0  0  0  0  0  0
   59.0150   28.9380   43.3720 H   0  0  0  0  0  0  0  0  0  0  0  0
   60.3996   27.1644   44.6001 H   0  0  0  0  0  0  0  0  0  0  0  0
   61.3324   28.9582   46.0545 H   0  0  0  0  0  0  0  0  0  0  0  0
   60.7325   29.8404   44.6746 H   0  0  0  0  0  0  0  0  0  0  0  0
   59.7257   29.9222   47.4414 H   0  0  0  0  0  0  0  0  0  0  0  0
   59.0613   30.8351   46.1069 H   0  0  0  0  0  0  0  0  0  0  0  0
   57.4515   28.9761   47.1315 H   0  0  0  0  0  0  0  0  0  0  0  0
   59.6014   27.3306   47.1473 H   0  0  0  0  0  0  0  0  0  0  0  0
   58.3809   26.5577   46.2694 H   0  0  0  0  0  0  0  0  0  0  0  0
   56.5769   32.8136   45.6374 H   0  0  0  0  0  0  0  0  0  0  0  0
   56.9212   32.6041   48.0915 H   0  0  0  0  0  0  0  0  0  0  0  0
   58.1540   31.0562   49.6293 H   0  0  0  0  0  0  0  0  0  0  0  0
  1  2  1  0
  2  3  2  0
  2  4  2  0
  2  5  1  0
  5  6  1  0
  6  7  2  0
  7  8  1  0
  8  9  2  0
  9 10  1  0
 10 11  1  0
 11 12  2  0
 12 13  1  0
 13 14  2  0
 14 15  1  0
 15 16  1  0
 16 17  1  0
 17 18  3  0
 16 19  1  0
 19 20  1  0
 20 21  2  0
 20 22  1  0
 22 23  1  0
 23 24  1  0
 24 25  1  0
 25 26  1  0
 26 27  1  0
 27 28  1  0
 14 29  1  0
 29 30  2  0
 10 31  2  0
 31  6  1  0
 30 11  1  0
 27 22  1  0
 28 24  1  0
  1 32  1  0
  1 33  1  0
  1 34  1  0
  5 35  1  0
  7 36  1  0
  8 37  1  0
  9 38  1  0
 12 39  1  0
 13 40  1  0
 15 41  1  0
 15 42  1  0
 16 43  1  1
 22 44  1  1
 23 45  1  0
 24 46  1  6
 25 47  1  0
 25 48  1  0
 26 49  1  0
 26 50  1  0
 27 51  1  1
 28 52  1  0
 28 53  1  0
 29 54  1  0
 30 55  1  0
 31 56  1  0
M  CHG  1  19  -1
M  END
>  <UniqueID>  (12) 
11

>  <SMILES>  (12) 
CS(=O)(=O)Nc1cccc(-c2ccc(C[C@@H](C#N)[N-]C(=O)[C@H]3NC4CCC3C4)cc2)c1

>  <Energy>  (12) 
86.70979643324924

>  <Genealogy>  (12) 
CS(=O)(=O)Nc1cccc(-c2ccc(CC(C#N)[N-]C(=O)C3NC4CCC3C4)cc2)c1 (protonated)
CS(=O)(=O)Nc1cccc(-c2ccc(C[C@@H](C#N)[N-]C(=O)[C@H]3NC4CCC3C4)cc2)c1 (chirality)
CS(=O)(=O)Nc1cccc(-c2ccc(C[C@@H](C#N)[N-]C(=O)[C@H]3NC4CCC3C4)cc2)c1 (3D coordinates assigned)
CS(=O)(=O)Nc1cccc(-c2ccc(C[C@@H](C#N)[N-]C(=O)[C@H]3NC4CCC3C4)cc2)c1 (nonaromatic ring conformer: 86.70979643324924 kcal/mol)

>  <smiles>  (12) 
CS(=O)(=O)Nc1cccc(-c2ccc(CC(C#N)NC(=O)C3NC4CCC3C4)cc2)c1

>  <score_type>  (12) 
oracle

>  <origin>  (12) 
adg

>  <m_score__min__energy>  (12) 
-11.279999999999999

>  <m_primary>  (12) 
energy

$$$$
12:0
     RDKit          3D

 56 59  0  0  0  0  0  0  0  0999 V2000
   60.6440   33.9710   49.9510 C   0  0  0  0  0  0  0  0  0  0  0  0
   60.3650   33.8770   48.5210 N   0  0  0  0  0  0  0  0  0  0  0  0
   59.1340   33.8680   47.9720 C   0  0  0  0  0  0  0  0  0  0  0  0
   59.2380   33.6420   46.6150 C   0  0  0  0  0  0  0  0  0  0  0  0
   57.8980   33.4360   45.4990 S   0  0  0  0  0  0  0  0  0  0  0  0
   57.8650   34.5990   44.5480 O   0  0  0  0  0  0  0  0  0  0  0  0
   56.6160   33.4090   46.2830 O   0  0  0  0  0  0  0  0  0  0  0  0
   58.0460   31.9600   44.6000 N   0  0  0  0  0  0  0  0  0  0  0  0
   58.4340   30.7220   45.2070 C   0  0  0  0  0  0  0  0  0  0  0  0
   59.6600   30.6340   45.8730 C   0  0  0  0  0  0  0  0  0  0  0  0
   60.0330   29.4560   46.5100 C   0  0  0  0  0  0  0  0  0  0  0  0
   59.1940   28.3350   46.4870 C   0  0  0  0  0  0  0  0  0  0  0  0
   57.9360   28.4040   45.8280 C   0  0  0  0  0  0  0  0  0  0  0  0
   57.5790   29.6000   45.1420 C   0  0  0  0  0  0  0  0  0  0  0  0
   56.3400   29.7040   44.3320 C   0  0  0  0  0  0  0  0  0  0  0  0
   56.3810   30.0790   43.1280 O   0  0  0  0  0  0  0  0  0  0  0  0
   55.1190   29.3300   44.8870 O   0  0  0  0  0  0  0  0  0  0  0  0
   57.0560   27.1640   45.7320 C   0  0  0  0  0  0  0  0  0  0  0  0
   57.4210   26.0710   46.7420 C   0  0  0  0  0  0  0  0  0  0  0  0
   58.9270   25.8360   46.7570 C   0  0  0  0  0  0  0  0  0  0  0  0
   59.6410   27.1000   47.2360 C   0  0  0  0  0  0  0  0  0  0  0  0
   60.5770   33.4890   46.3190 C   0  0  0  0  0  0  0  0  0  0  0  0
   61.2440   33.6300   47.5220 C   0  0  0  0  0  0  0  0  0  0  0  0
   62.9850   33.4230   47.7230 S   0  0  0  0  0  0  0  0  0  0  0  0
   63.6330   33.3840   46.3660 O   0  0  0  0  0  0  0  0  0  0  0  0
   63.5350   34.5980   48.4850 O   0  0  0  0  0  0  0  0  0  0  0  0
   63.3300   31.9390   48.5820 N   0  0  0  0  0  0  0  0  0  0  0  0
   64.1980   32.1920   49.7610 C   0  0  0  0  0  0  0  0  0  0  0  0
   63.4100   32.1210   51.0790 C   0  0  0  0  0  0  0  0  0  0  0  0
   62.8140   30.8500   51.2820 O   0  0  0  0  0  0  0  0  0  0  0  0
   62.2850   30.2680   50.0930 C   0  0  0  0  0  0  0  0  0  0  0  0
   62.0630   31.2590   48.9360 C   0  0  0  0  0  0  0  0  0  0  0  0
   59.7515   33.6703   50.5193 H   0  0  0  0  0  0  0  0  0  0  0  0
   61.4821   33.3056   50.2056 H   0  0  0  0  0  0  0  0  0  0  0  0
   60.9086   35.0079   50.2056 H   0  0  0  0  0  0  0  0  0  0  0  0
   58.1925   34.0176   48.5208 H   0  0  0  0  0  0  0  0  0  0  0  0
   60.3342   31.5029   45.8931 H   0  0  0  0  0  0  0  0  0  0  0  0
   60.9969   29.4039   47.0374 H   0  0  0  0  0  0  0  0  0  0  0  0
   56.0123   27.4642   45.9070 H   0  0  0  0  0  0  0  0  0  0  0  0
   57.2074   26.7388   44.7289 H   0  0  0  0  0  0  0  0  0  0  0  0
   57.0935   26.3817   47.7451 H   0  0  0  0  0  0  0  0  0  0  0  0
   56.9191   25.1366   46.4504 H   0  0  0  0  0  0  0  0  0  0  0  0
   59.1605   25.0040   47.4376 H   0  0  0  0  0  0  0  0  0  0  0  0
   59.2672   25.5884   45.7406 H   0  0  0  0  0  0  0  0  0  0  0  0
   59.4299   27.2406   48.3064 H   0  0  0  0  0  0  0  0  0  0  0  0
   60.7171   26.9673   47.0507 H   0  0  0  0  0  0  0  0  0  0  0  0
   61.0213   33.2952   45.3316 H   0  0  0  0  0  0  0  0  0  0  0  0
   63.8520   31.3150   47.9210 H   0  0  0  0  0  0  0  0  0  0  0  0
   64.9969   31.4361   49.7832 H   0  0  0  0  0  0  0  0  0  0  0  0
   64.6138   33.2060   49.6667 H   0  0  0  0  0  0  0  0  0  0  0  0
   64.0967   32.3270   51.9133 H   0  0  0  0  0  0  0  0  0  0  0  0
   62.6031   32.8670   51.0293 H   0  0  0  0  0  0  0  0  0  0  0  0
   62.9855   29.4922   49.7502 H   0  0  0  0  0  0  0  0  0  0  0  0
   61.2938   29.8701   50.3560 H   0  0  0  0  0  0  0  0  0  0  0  0
   61.6888   30.7119   48.0581 H   0  0  0  0  0  0  0  0  0  0  0  0
   61.3307   32.0161   49.2530 H   0  0  0  0  0  0  0  0  0  0  0  0
  1  2  1  0
  2  3  1  0
  3  4  2  0
  4  5  1  0
  5  6  2  0
  5  7  2  0
  5  8  1  0
  8  9  1  0
  9 10  2  0
 10 11  1  0
 11 12  2  0
 12 13  1  0
 13 14  2  0
 14 15  1  0
 15 16  2  0
 15 17  1  0
 13 18  1  0
 18 19  1  0
 19 20  1  0
 20 21  1  0
  4 22  1  0
 22 23  2  0
 23 24  1  0
 24 25  2  0
 24 26  2  0
 24 27  1  0
 27 28  1  0
 28 29  1  0
 29 30  1  0
 30 31  1  0
 31 32  1  0
 23  2  1  0
 32 27  1  0
 14  9  1  0
 21 12  1  0
  1 33  1  0
  1 34  1  0
  1 35  1  0
  3 36  1  0
 10 37  1  0
 11 38  1  0
 18 39  1  0
 18 40  1  0
 19 41  1  0
 19 42  1  0
 20 43  1  0
 20 44  1  0
 21 45  1  0
 21 46  1  0
 22 47  1  0
 27 48  1  0
 28 49  1  0
 28 50  1  0
 29 51  1  0
 29 52  1  0
 31 53  1  0
 31 54  1  0
 32 55  1  0
 32 56  1  0
M  CHG  3   8  -1  17  -1  27   1
M  END
>  <UniqueID>  (13) 
12

>  <SMILES>  (13) 
Cn1cc(S(=O)(=O)[N-]c2ccc3c(c2C(=O)[O-])CCCC3)cc1S(=O)(=O)[NH+]1CCOCC1

>  <Energy>  (13) 
110.43989233919204

>  <Genealogy>  (13) 
Cn1cc(S(=O)(=O)[N-]c2ccc3c(c2C(=O)[O-])CCCC3)cc1S(=O)(=O)[NH+]1CCOCC1 (protonated)
Cn1cc(S(=O)(=O)[N-]c2ccc3c(c2C(=O)[O-])CCCC3)cc1S(=O)(=O)[NH+]1CCOCC1 (3D coordinates assigned)
Cn1cc(S(=O)(=O)[N-]c2ccc3c(c2C(=O)[O-])CCCC3)cc1S(=O)(=O)[NH+]1CCOCC1 (nonaromatic ring conformer: 110.43989233919204 kcal/mol)

>  <smiles>  (13) 
Cn1cc(S(=O)(=O)Nc2ccc3c(c2C(=O)O)CCCC3)cc1S(=O)(=O)N1CCOCC1

>  <score_type>  (13) 
oracle

>  <origin>  (13) 
adg

>  <m_score__min__energy>  (13) 
-11.98

>  <m_primary>  (13) 
energy

$$$$
13:0
     RDKit          3D

 57 60  0  0  0  0  0  0  0  0999 V2000
   55.5350   29.0020   44.8460 N   0  0  0  0  0  0  0  0  0  0  0  0
   57.2400   29.1760   45.0730 S   0  0  0  0  0  0  0  0  0  0  0  0
   57.9320   28.1370   44.2360 O   0  0  0  0  0  0  0  0  0  0  0  0
   57.5810   28.9480   46.5190 O   0  0  0  0  0  0  0  0  0  0  0  0
   57.7770   30.7950   44.5840 C   0  0  0  0  0  0  0  0  0  0  0  0
   57.4020   31.2730   43.3180 C   0  0  0  0  0  0  0  0  0  0  0  0
   57.7680   32.5550   42.9030 C   0  0  0  0  0  0  0  0  0  0  0  0
   58.5140   33.3770   43.7470 C   0  0  0  0  0  0  0  0  0  0  0  0
   58.9020   32.9170   45.0070 C   0  0  0  0  0  0  0  0  0  0  0  0
   58.5530   31.6250   45.4340 C   0  0  0  0  0  0  0  0  0  0  0  0
   59.0110   31.1770   46.7630 C   0  0  0  0  0  0  0  0  0  0  0  0
   59.9260   30.1220   46.8800 C   0  0  0  0  0  0  0  0  0  0  0  0
   60.3190   29.6690   48.1400 C   0  0  0  0  0  0  0  0  0  0  0  0
   59.8010   30.2630   49.3030 C   0  0  0  0  0  0  0  0  0  0  0  0
   60.1920   29.7240   50.6590 C   0  0  0  0  0  0  0  0  0  0  0  0
   59.6970   30.5870   51.7570 N   0  0  0  0  0  0  0  0  0  0  0  0
   60.5220   31.5120   52.3740 C   0  0  0  0  0  0  0  0  0  0  0  0
   61.9040   31.6920   51.9810 N   0  0  0  0  0  0  0  0  0  0  0  0
   62.2070   33.1180   51.7680 C   0  0  0  0  0  0  0  0  0  0  0  0
   63.2930   33.3140   50.6970 C   0  0  0  0  0  0  0  0  0  0  0  0
   62.7020   33.3960   49.3130 C   0  0  0  0  0  0  0  0  0  0  0  0
   61.4230   33.9430   49.1230 C   0  0  0  0  0  0  0  0  0  0  0  0
   60.8930   34.0680   47.8360 C   0  0  0  0  0  0  0  0  0  0  0  0
   61.6410   33.6580   46.7290 C   0  0  0  0  0  0  0  0  0  0  0  0
   62.9170   33.1190   46.9090 C   0  0  0  0  0  0  0  0  0  0  0  0
   63.4470   32.9860   48.1950 C   0  0  0  0  0  0  0  0  0  0  0  0
   60.0070   32.3310   53.3900 C   0  0  0  0  0  0  0  0  0  0  0  0
   58.6840   32.1790   53.7800 C   0  0  0  0  0  0  0  0  0  0  0  0
   58.2040   32.8980   54.6940 O   0  0  0  0  0  0  0  0  0  0  0  0
   57.9110   31.2500   53.1750 N   0  0  0  0  0  0  0  0  0  0  0  0
   58.3920   30.4620   52.1810 C   0  0  0  0  0  0  0  0  0  0  0  0
   57.6210   29.6110   51.6610 O   0  0  0  0  0  0  0  0  0  0  0  0
   58.9350   31.3620   49.1830 C   0  0  0  0  0  0  0  0  0  0  0  0
   58.5400   31.8130   47.9190 C   0  0  0  0  0  0  0  0  0  0  0  0
   55.1500   28.5960   45.7290 H   0  0  0  0  0  0  0  0  0  0  0  0
   56.8137   30.6307   42.6461 H   0  0  0  0  0  0  0  0  0  0  0  0
   57.4674   32.9171   41.9087 H   0  0  0  0  0  0  0  0  0  0  0  0
   58.7970   34.3884   43.4200 H   0  0  0  0  0  0  0  0  0  0  0  0
   59.4858   33.5717   45.6707 H   0  0  0  0  0  0  0  0  0  0  0  0
   60.3359   29.6493   45.9753 H   0  0  0  0  0  0  0  0  0  0  0  0
   61.0390   28.8415   48.2232 H   0  0  0  0  0  0  0  0  0  0  0  0
   59.7664   28.7167   50.7782 H   0  0  0  0  0  0  0  0  0  0  0  0
   61.2904   29.6976   50.7131 H   0  0  0  0  0  0  0  0  0  0  0  0
   62.1260   31.1320   51.1320 H   0  0  0  0  0  0  0  0  0  0  0  0
   62.5280   31.3230   52.7370 H   0  0  0  0  0  0  0  0  0  0  0  0
   61.2903   33.6330   51.4448 H   0  0  0  0  0  0  0  0  0  0  0  0
   62.5798   33.5349   52.7152 H   0  0  0  0  0  0  0  0  0  0  0  0
   63.8377   34.2461   50.9079 H   0  0  0  0  0  0  0  0  0  0  0  0
   63.9686   32.4466   50.7307 H   0  0  0  0  0  0  0  0  0  0  0  0
   60.8352   34.2748   49.9915 H   0  0  0  0  0  0  0  0  0  0  0  0
   59.8868   34.4892   47.6942 H   0  0  0  0  0  0  0  0  0  0  0  0
   61.2249   33.7598   45.7158 H   0  0  0  0  0  0  0  0  0  0  0  0
   63.5057   32.7986   46.0368 H   0  0  0  0  0  0  0  0  0  0  0  0
   64.4513   32.5587   48.3324 H   0  0  0  0  0  0  0  0  0  0  0  0
   60.6453   33.0858   53.8725 H   0  0  0  0  0  0  0  0  0  0  0  0
   58.5659   31.8701   50.0861 H   0  0  0  0  0  0  0  0  0  0  0  0
   57.8567   32.6707   47.8324 H   0  0  0  0  0  0  0  0  0  0  0  0
  1  2  1  0
  2  3  2  0
  2  4  2  0
  2  5  1  0
  5  6  2  0
  6  7  1  0
  7  8  2  0
  8  9  1  0
  9 10  2  0
 10 11  1  0
 11 12  2  0
 12 13  1  0
 13 14  2  0
 14 15  1  0
 15 16  1  0
 16 17  1  0
 17 18  1  0
 18 19  1  0
 19 20  1  0
 20 21  1  0
 21 22  2  0
 22 23  1  0
 23 24  2  0
 24 25  1  0
 25 26  2  0
 17 27  2  0
 27 28  1  0
 28 29  2  0
 28 30  1  0
 30 31  1  0
 31 32  2  0
 14 33  1  0
 33 34  2  0
 10  5  1  0
 34 11  1  0
 31 16  1  0
 26 21  1  0
  1 35  1  0
  6 36  1  0
  7 37  1  0
  8 38  1  0
  9 39  1  0
 12 40  1  0
 13 41  1  0
 15 42  1  0
 15 43  1  0
 18 44  1  0
 18 45  1  0
 19 46  1  0
 19 47  1  0
 20 48  1  0
 20 49  1  0
 22 50  1  0
 23 51  1  0
 24 52  1  0
 25 53  1  0
 26 54  1  0
 27 55  1  0
 33 56  1  0
 34 57  1  0
M  CHG  3   1  -1  18   1  30  -1
M  END
>  <UniqueID>  (14) 
13

>  <SMILES>  (14) 
[NH-]S(=O)(=O)c1ccccc1-c1ccc(Cn2c([NH2+]CCc3ccccc3)cc(=O)[n-]c2=O)cc1

>  <Energy>  (14) 
71.98612408763337

>  <Genealogy>  (14) 
[NH-]S(=O)(=O)c1ccccc1-c1ccc(Cn2c([NH2+]CCc3ccccc3)cc(=O)[n-]c2=O)cc1 (protonated)
[NH-]S(=O)(=O)c1ccccc1-c1ccc(Cn2c([NH2+]CCc3ccccc3)cc(=O)[n-]c2=O)cc1 (3D coordinates assigned)
[NH-]S(=O)(=O)c1ccccc1-c1ccc(Cn2c([NH2+]CCc3ccccc3)cc(=O)[n-]c2=O)cc1 (optimized conformer: 71.98612408763337 kcal/mol)

>  <smiles>  (14) 
NS(=O)(=O)c1ccccc1-c1ccc(Cn2c(NCCc3ccccc3)cc(=O)[nH]c2=O)cc1

>  <score_type>  (14) 
oracle

>  <origin>  (14) 
adg

>  <m_score__min__energy>  (14) 
-11.24

>  <m_primary>  (14) 
energy

$$$$
14:0
     RDKit          3D

 41 43  0  0  0  0  0  0  0  0999 V2000
   59.0910   24.8050   46.1320 O   0  0  0  0  0  0  0  0  0  0  0  0
   58.5730   25.9170   45.8360 C   0  0  0  0  0  0  0  0  0  0  0  0
   57.3080   25.9630   45.1620 N   0  0  0  0  0  0  0  0  0  0  0  0
   56.2550   24.9910   45.2480 C   0  0  0  0  0  0  0  0  0  0  0  0
   56.4390   23.6600   44.8300 C   0  0  0  0  0  0  0  0  0  0  0  0
   55.3850   22.7450   44.9050 C   0  0  0  0  0  0  0  0  0  0  0  0
   54.1330   23.1500   45.3800 C   0  0  0  0  0  0  0  0  0  0  0  0
   53.0920   22.2260   45.4500 O   0  0  0  0  0  0  0  0  0  0  0  0
   53.9380   24.4790   45.7750 C   0  0  0  0  0  0  0  0  0  0  0  0
   54.9910   25.3970   45.7030 C   0  0  0  0  0  0  0  0  0  0  0  0
   54.7780   26.7150   46.0900 O   0  0  0  0  0  0  0  0  0  0  0  0
   59.2500   27.1740   46.2320 C   0  0  0  0  0  0  0  0  0  0  0  0
   59.9730   27.9260   45.2890 C   0  0  0  0  0  0  0  0  0  0  0  0
   60.6100   29.1140   45.6600 C   0  0  0  0  0  0  0  0  0  0  0  0
   60.5230   29.5790   46.9840 C   0  0  0  0  0  0  0  0  0  0  0  0
   61.1800   30.7800   47.4140 N   0  0  0  0  0  0  0  0  0  0  0  0
   60.9880   32.0990   46.8840 C   0  0  0  0  0  0  0  0  0  0  0  0
   61.9800   32.8660   46.7450 O   0  0  0  0  0  0  0  0  0  0  0  0
   59.6420   32.5480   46.4330 C   0  0  0  0  0  0  0  0  0  0  0  0
   58.8770   31.7080   45.5960 C   0  0  0  0  0  0  0  0  0  0  0  0
   57.6000   32.0910   45.1510 C   0  0  0  0  0  0  0  0  0  0  0  0
   56.8320   31.2200   44.3000 N   0  0  0  0  0  0  0  0  0  0  0  0
   56.9970   31.2320   43.0620 O   0  0  0  0  0  0  0  0  0  0  0  0
   55.9050   30.3570   44.8350 O   0  0  0  0  0  0  0  0  0  0  0  0
   57.0860   33.3370   45.5490 C   0  0  0  0  0  0  0  0  0  0  0  0
   57.8320   34.1780   46.3720 C   0  0  0  0  0  0  0  0  0  0  0  0
   59.1020   33.7980   46.8140 C   0  0  0  0  0  0  0  0  0  0  0  0
   59.8120   34.6790   47.6220 O   0  0  0  0  0  0  0  0  0  0  0  0
   59.8260   28.8210   47.9300 C   0  0  0  0  0  0  0  0  0  0  0  0
   59.1870   27.6330   47.5600 C   0  0  0  0  0  0  0  0  0  0  0  0
   57.4168   23.3381   44.4424 H   0  0  0  0  0  0  0  0  0  0  0  0
   55.5405   21.7028   44.5894 H   0  0  0  0  0  0  0  0  0  0  0  0
   53.2380   21.2470   45.2320 H   0  0  0  0  0  0  0  0  0  0  0  0
   52.9532   24.8024   46.1433 H   0  0  0  0  0  0  0  0  0  0  0  0
   60.0381   27.5758   44.2483 H   0  0  0  0  0  0  0  0  0  0  0  0
   61.1808   29.6864   44.9140 H   0  0  0  0  0  0  0  0  0  0  0  0
   59.2876   30.7357   45.2862 H   0  0  0  0  0  0  0  0  0  0  0  0
   56.0881   33.6503   45.2085 H   0  0  0  0  0  0  0  0  0  0  0  0
   57.4174   35.1502   46.6767 H   0  0  0  0  0  0  0  0  0  0  0  0
   59.7798   29.1621   48.9748 H   0  0  0  0  0  0  0  0  0  0  0  0
   58.6316   27.0540   48.3125 H   0  0  0  0  0  0  0  0  0  0  0  0
  1  2  2  0
  2  3  1  0
  3  4  1  0
  4  5  2  0
  5  6  1  0
  6  7  2  0
  7  8  1  0
  7  9  1  0
  9 10  2  0
 10 11  1  0
  2 12  1  0
 12 13  2  0
 13 14  1  0
 14 15  2  0
 15 16  1  0
 16 17  1  0
 17 18  2  0
 17 19  1  0
 19 20  2  0
 20 21  1  0
 21 22  1  0
 22 23  2  0
 22 24  1  0
 21 25  2  0
 25 26  1  0
 26 27  2  0
 27 28  1  0
 15 29  1  0
 29 30  2  0
 10  4  1  0
 30 12  1  0
 27 19  1  0
  5 31  1  0
  6 32  1  0
  8 33  1  0
  9 34  1  0
 13 35  1  0
 14 36  1  0
 20 37  1  0
 25 38  1  0
 26 39  1  0
 29 40  1  0
 30 41  1  0
M  CHG  6   3  -1  11  -1  16  -1  22   1  24  -1  28  -1
M  END
>  <UniqueID>  (15) 
14

>  <SMILES>  (15) 
O=C([N-]c1ccc(O)cc1[O-])c1ccc([N-]C(=O)c2cc([N+](=O)[O-])ccc2[O-])cc1

>  <Energy>  (15) 
56.51089488254276

>  <Genealogy>  (15) 
O=C([N-]c1ccc(O)cc1[O-])c1ccc([N-]C(=O)c2cc([N+](=O)[O-])ccc2[O-])cc1 (protonated)
O=C([N-]c1ccc(O)cc1[O-])c1ccc([N-]C(=O)c2cc([N+](=O)[O-])ccc2[O-])cc1 (3D coordinates assigned)
O=C([N-]c1ccc(O)cc1[O-])c1ccc([N-]C(=O)c2cc([N+](=O)[O-])ccc2[O-])cc1 (optimized conformer: 56.51089488254276 kcal/mol)

>  <smiles>  (15) 
O=C(Nc1ccc(O)cc1O)c1ccc(NC(=O)c2cc([N+](=O)[O-])ccc2O)cc1

>  <score_type>  (15) 
oracle

>  <origin>  (15) 
adg

>  <m_score__min__energy>  (15) 
-15.44

>  <m_primary>  (15) 
energy

$$$$
15:0
     RDKit          3D

 67 71  0  0  0  0  0  0  0  0999 V2000
   58.4930   19.8840   45.4010 H   0  0  0  0  0  0  0  0  0  0  0  0
   58.2670   20.6140   46.0280 O   0  0  0  0  0  0  0  0  0  0  0  0
   57.0070   21.4330   45.2810 S   0  0  0  0  0  0  0  0  0  0  0  0
   56.7710   23.0230   46.0390 C   0  0  0  0  0  0  0  0  0  0  0  0
   56.3026   22.8892   47.0252 H   0  0  0  0  0  0  0  0  0  0  0  0
   57.7482   23.5155   46.1505 H   0  0  0  0  0  0  0  0  0  0  0  0
   55.8670   23.8990   45.1640 C   0  0  0  0  0  0  0  0  0  0  0  0
   54.8705   23.4358   45.1154 H   0  0  0  0  0  0  0  0  0  0  0  0
   55.8328   24.8983   45.6225 H   0  0  0  0  0  0  0  0  0  0  0  0
   56.4010   24.0680   43.7280 C   0  0  1  0  0  0  0  0  0  0  0  0
   55.7338   24.7440   43.1732 H   0  0  0  0  0  0  0  0  0  0  0  0
   57.7120   24.6420   43.7780 O   0  0  0  0  0  0  0  0  0  0  0  0
   58.1240   25.6890   44.6160 C   0  0  0  0  0  0  0  0  0  0  0  0
   58.8710   25.4760   45.8010 C   0  0  0  0  0  0  0  0  0  0  0  0
   59.1741   24.4563   46.0810 H   0  0  0  0  0  0  0  0  0  0  0  0
   59.2260   26.5590   46.6190 C   0  0  0  0  0  0  0  0  0  0  0  0
   59.7974   26.3994   47.5453 H   0  0  0  0  0  0  0  0  0  0  0  0
   58.8400   27.8400   46.2340 C   0  0  0  0  0  0  0  0  0  0  0  0
   58.1350   28.0700   45.0640 C   0  0  0  0  0  0  0  0  0  0  0  0
   57.7720   26.9990   44.2450 C   0  0  0  0  0  0  0  0  0  0  0  0
   57.2136   27.1790   43.3145 H   0  0  0  0  0  0  0  0  0  0  0  0
   57.8220   29.5170   44.7740 C   0  0  0  0  0  0  0  0  0  0  0  0
   56.7350   29.6595   44.6840 H   0  0  0  0  0  0  0  0  0  0  0  0
   58.2797   29.8397   43.8272 H   0  0  0  0  0  0  0  0  0  0  0  0
   58.3420   30.2930   45.9040 N   0  0  0  0  0  0  0  0  0  0  0  0
   58.4550   31.7150   45.8920 C   0  0  0  0  0  0  0  0  0  0  0  0
   59.0710   32.3510   46.9240 N   0  0  0  0  0  0  0  0  0  0  0  0
   59.2060   33.7050   46.9700 C   0  0  0  0  0  0  0  0  0  0  0  0
   59.8010   34.2340   48.0040 N   0  0  0  0  0  0  0  0  0  0  0  0
   60.2090   33.5700   49.2090 C   0  0  0  0  0  0  0  0  0  0  0  0
   59.3280   33.0420   49.9360 O   0  0  0  0  0  0  0  0  0  0  0  0
   61.6200   33.5860   49.6520 C   0  0  0  0  0  0  0  0  0  0  0  0
   62.0210   34.1400   50.8160 N   0  0  0  0  0  0  0  0  0  0  0  0
   63.3400   34.0360   50.8830 N   0  0  0  0  0  0  0  0  0  0  0  0
   64.1240   34.5420   52.0050 C   0  0  0  0  0  0  0  0  0  0  0  0
   63.6510   34.2367   52.9500 H   0  0  0  0  0  0  0  0  0  0  0  0
   65.1430   34.1307   51.9553 H   0  0  0  0  0  0  0  0  0  0  0  0
   64.1689   35.6400   51.9553 H   0  0  0  0  0  0  0  0  0  0  0  0
   63.8130   33.4480   49.7630 C   0  0  0  0  0  0  0  0  0  0  0  0
   65.2570   33.0960   49.5140 C   0  0  0  0  0  0  0  0  0  0  0  0
   65.8878   33.9621   49.7628 H   0  0  0  0  0  0  0  0  0  0  0  0
   65.3778   32.8276   48.4541 H   0  0  0  0  0  0  0  0  0  0  0  0
   65.6780   31.9070   50.3720 C   0  0  0  0  0  0  0  0  0  0  0  0
   65.5845   32.1711   51.4357 H   0  0  0  0  0  0  0  0  0  0  0  0
   65.0299   31.0465   50.1495 H   0  0  0  0  0  0  0  0  0  0  0  0
   66.7232   31.6461   50.1495 H   0  0  0  0  0  0  0  0  0  0  0  0
   62.7310   33.1190   48.9600 C   0  0  0  0  0  0  0  0  0  0  0  0
   62.7630   32.4190   47.6670 C   0  0  0  0  0  0  0  0  0  0  0  0
   63.8350   32.3640   47.0110 O   0  0  0  0  0  0  0  0  0  0  0  0
   61.5870   31.7860   47.1560 N   0  0  0  0  0  0  0  0  0  0  0  0
   61.6120   31.2840   46.2390 H   0  0  0  0  0  0  0  0  0  0  0  0
   60.7150   31.7450   47.7270 H   0  0  0  0  0  0  0  0  0  0  0  0
   58.7330   34.4740   45.8860 C   0  0  0  0  0  0  0  0  0  0  0  0
   58.8668   35.5658   45.8816 H   0  0  0  0  0  0  0  0  0  0  0  0
   58.0940   33.8400   44.8190 C   0  0  0  0  0  0  0  0  0  0  0  0
   57.7105   34.4337   43.9761 H   0  0  0  0  0  0  0  0  0  0  0  0
   57.9420   32.4540   44.8220 C   0  0  0  0  0  0  0  0  0  0  0  0
   57.4250   31.9485   43.9930 H   0  0  0  0  0  0  0  0  0  0  0  0
   59.1460   29.3140   47.0710 S   0  0  0  0  0  0  0  0  0  0  0  0
   60.6120   29.6320   47.1520 O   0  0  0  0  0  0  0  0  0  0  0  0
   58.4670   29.3750   48.4100 O   0  0  0  0  0  0  0  0  0  0  0  0
   56.4070   22.7200   42.9700 C   0  0  0  0  0  0  0  0  0  0  0  0
   55.3948   22.2910   43.0077 H   0  0  0  0  0  0  0  0  0  0  0  0
   56.7262   22.9223   41.9369 H   0  0  0  0  0  0  0  0  0  0  0  0
   57.3890   21.7090   43.5660 C   0  0  0  0  0  0  0  0  0  0  0  0
   57.3118   20.7586   43.0176 H   0  0  0  0  0  0  0  0  0  0  0  0
   58.4119   22.1047   43.4819 H   0  0  0  0  0  0  0  0  0  0  0  0
  1  2  1  0
  3  2  1  1
  3  4  1  0
  4  5  1  0
  4  6  1  0
  4  7  1  0
  7  8  1  0
  7  9  1  0
  7 10  1  0
 10 11  1  6
 10 12  1  0
 12 13  1  0
 13 14  2  0
 14 15  1  0
 14 16  1  0
 16 17  1  0
 16 18  2  0
 18 19  1  0
 19 20  2  0
 20 21  1  0
 19 22  1  0
 22 23  1  0
 22 24  1  0
 22 25  1  0
 25 26  1  0
 26 27  1  0
 27 28  1  0
 28 29  2  0
 29 30  1  0
 30 31  2  0
 30 32  1  0
 32 33  2  0
 33 34  1  0
 34 35  1  0
 35 36  1  0
 35 37  1  0
 35 38  1  0
 34 39  1  0
 39 40  1  0
 40 41  1  0
 40 42  1  0
 40 43  1  0
 43 44  1  0
 43 45  1  0
 43 46  1  0
 39 47  2  0
 47 48  1  0
 48 49  2  0
 48 50  1  0
 50 51  1  0
 50 52  1  0
 28 53  1  0
 53 54  1  0
 53 55  2  0
 55 56  1  0
 55 57  1  0
 57 58  1  0
 25 59  1  0
 59 60  2  0
 59 61  2  0
 10 62  1  0
 62 63  1  0
 62 64  1  0
 62 65  1  0
 65 66  1  0
 65 67  1  0
 65  3  1  0
 20 13  1  0
 57 26  2  0
 59 18  1  0
 47 32  1  0
M  CHG  2   3   1  27  -1
M  END
>  <UniqueID>  (16) 
15

>  <SMILES>  (16) 
CCc1c(C(N)=O)c(C(=O)/N=c2\cccc(N3Cc4cc(OC5CC[S+](O)CC5)ccc4S3(=O)=O)[n-]2)nn1C

>  <Energy>  (16) 
127.3136234048395

>  <Genealogy>  (16) 
CCc1c(C(N)=O)c(C(=O)N=c2cccc(N3Cc4cc(OC5CC[S+](O)CC5)ccc4S3(=O)=O)[n-]2)nn1C (protonated)
CCc1c(C(N)=O)c(C(=O)/N=c2\cccc(N3Cc4cc(OC5CC[S+](O)CC5)ccc4S3(=O)=O)[n-]2)nn1C (cis-trans isomerization)
CCc1c(C(N)=O)c(C(=O)/N=c2\cccc(N3Cc4cc(OC5CC[S+](O)CC5)ccc4S3(=O)=O)[n-]2)nn1C (3D coordinates assigned)
CCc1c(C(N)=O)c(C(=O)/N=c2\cccc(N3Cc4cc(OC5CC[S+](O)CC5)ccc4S3(=O)=O)[n-]2)nn1C (nonaromatic ring conformer: 127.3136234048395 kcal/mol)

>  <smiles>  (16) 
CCc1c(C(N)=O)c(C(=O)N=c2cccc(N3Cc4cc(OC5CC[S+]([O-])CC5)ccc4S3(=O)=O)[nH]2)nn1C

>  <score_type>  (16) 
oracle

>  <origin>  (16) 
adg

>  <m_score__min__energy>  (16) 
-10.710000000000001

>  <m_primary>  (16) 
energy

$$$$
16:0
     RDKit          3D

 46 48  0  0  0  0  0  0  0  0999 V2000
   56.2670   29.8910   44.9560 O   0  0  0  0  0  0  0  0  0  0  0  0
   57.3000   30.1860   44.2940 C   0  0  0  0  0  0  0  0  0  0  0  0
   57.3850   31.5200   43.6160 C   0  0  0  0  0  0  0  0  0  0  0  0
   57.0200   32.5640   44.5190 O   0  0  0  0  0  0  0  0  0  0  0  0
   57.9090   33.2730   45.3430 C   0  0  0  0  0  0  0  0  0  0  0  0
   57.9620   32.9390   46.7020 C   0  0  0  0  0  0  0  0  0  0  0  0
   58.8290   33.6130   47.5660 C   0  0  0  0  0  0  0  0  0  0  0  0
   59.6500   34.6330   47.0780 C   0  0  0  0  0  0  0  0  0  0  0  0
   59.6040   34.9790   45.7260 C   0  0  0  0  0  0  0  0  0  0  0  0
   58.7380   34.3060   44.8580 C   0  0  0  0  0  0  0  0  0  0  0  0
   58.3720   29.2420   44.1480 N   0  0  0  0  0  0  0  0  0  0  0  0
   58.4510   27.9970   44.8660 C   0  0  0  0  0  0  0  0  0  0  0  0
   57.2980   27.2280   45.1090 C   0  0  0  0  0  0  0  0  0  0  0  0
   57.3830   26.0230   45.8180 C   0  0  0  0  0  0  0  0  0  0  0  0
   55.9270   25.0680   46.0820 S   0  0  0  0  0  0  0  0  0  0  0  0
   54.7280   25.9470   45.8560 O   0  0  0  0  0  0  0  0  0  0  0  0
   55.8960   24.5500   47.4950 O   0  0  0  0  0  0  0  0  0  0  0  0
   55.8990   23.7290   44.9610 N   0  0  0  0  0  0  0  0  0  0  0  0
   56.4030   24.1610   43.6440 C   0  0  0  0  0  0  0  0  0  0  0  0
   56.6440   22.9490   42.7220 C   0  0  0  0  0  0  0  0  0  0  0  0
   56.0710   21.7750   43.2630 O   0  0  0  0  0  0  0  0  0  0  0  0
   56.7180   21.4460   44.4810 C   0  0  0  0  0  0  0  0  0  0  0  0
   56.7170   22.6220   45.4810 C   0  0  0  0  0  0  0  0  0  0  0  0
   58.6220   25.5930   46.3120 C   0  0  0  0  0  0  0  0  0  0  0  0
   59.7660   26.3630   46.0970 C   0  0  0  0  0  0  0  0  0  0  0  0
   59.6850   27.5620   45.3790 C   0  0  0  0  0  0  0  0  0  0  0  0
   60.8390   28.3100   45.1720 O   0  0  0  0  0  0  0  0  0  0  0  0
   58.4159   31.6850   43.2696 H   0  0  0  0  0  0  0  0  0  0  0  0
   56.6918   31.5298   42.7619 H   0  0  0  0  0  0  0  0  0  0  0  0
   57.3156   32.1393   47.0926 H   0  0  0  0  0  0  0  0  0  0  0  0
   58.8653   33.3405   48.6311 H   0  0  0  0  0  0  0  0  0  0  0  0
   60.3323   35.1632   47.7587 H   0  0  0  0  0  0  0  0  0  0  0  0
   60.2502   35.7825   45.3428 H   0  0  0  0  0  0  0  0  0  0  0  0
   58.7033   34.5831   43.7940 H   0  0  0  0  0  0  0  0  0  0  0  0
   59.0930   29.4380   43.4170 H   0  0  0  0  0  0  0  0  0  0  0  0
   56.3222   27.5759   44.7393 H   0  0  0  0  0  0  0  0  0  0  0  0
   55.6634   24.8276   43.1764 H   0  0  0  0  0  0  0  0  0  0  0  0
   57.3579   24.6875   43.7888 H   0  0  0  0  0  0  0  0  0  0  0  0
   56.1916   23.1496   41.7396 H   0  0  0  0  0  0  0  0  0  0  0  0
   57.7288   22.7949   42.6244 H   0  0  0  0  0  0  0  0  0  0  0  0
   56.1973   20.5920   44.9387 H   0  0  0  0  0  0  0  0  0  0  0  0
   57.7653   21.2012   44.2504 H   0  0  0  0  0  0  0  0  0  0  0  0
   56.3011   22.2825   46.4411 H   0  0  0  0  0  0  0  0  0  0  0  0
   57.7495   22.9739   45.6230 H   0  0  0  0  0  0  0  0  0  0  0  0
   58.6929   24.6476   46.8698 H   0  0  0  0  0  0  0  0  0  0  0  0
   60.7353   26.0263   46.4934 H   0  0  0  0  0  0  0  0  0  0  0  0
  1  2  2  0
  2  3  1  0
  3  4  1  0
  4  5  1  0
  5  6  2  0
  6  7  1  0
  7  8  2  0
  8  9  1  0
  9 10  2  0
  2 11  1  0
 11 12  1  0
 12 13  2  0
 13 14  1  0
 14 15  1  0
 15 16  2  0
 15 17  2  0
 15 18  1  0
 18 19  1  0
 19 20  1  0
 20 21  1  0
 21 22  1  0
 22 23  1  0
 14 24  2  0
 24 25  1  0
 25 26  2  0
 26 27  1  0
 10  5  1  0
 26 12  1  0
 23 18  1  0
  3 28  1  0
  3 29  1  0
  6 30  1  0
  7 31  1  0
  8 32  1  0
  9 33  1  0
 10 34  1  0
 11 35  1  0
 13 36  1  0
 19 37  1  0
 19 38  1  0
 20 39  1  0
 20 40  1  0
 22 41  1  0
 22 42  1  0
 23 43  1  0
 23 44  1  0
 24 45  1  0
 25 46  1  0
M  CHG  1  27  -1
M  END
>  <UniqueID>  (17) 
16

>  <SMILES>  (17) 
O=C(COc1ccccc1)Nc1cc(S(=O)(=O)N2CCOCC2)ccc1[O-]

>  <Energy>  (17) 
57.264601787540606

>  <Genealogy>  (17) 
O=C(COc1ccccc1)Nc1cc(S(=O)(=O)N2CCOCC2)ccc1[O-] (protonated)
O=C(COc1ccccc1)Nc1cc(S(=O)(=O)N2CCOCC2)ccc1[O-] (3D coordinates assigned)
O=C(COc1ccccc1)Nc1cc(S(=O)(=O)N2CCOCC2)ccc1[O-] (nonaromatic ring conformer: 57.264601787540606 kcal/mol)

>  <smiles>  (17) 
O=C(COc1ccccc1)Nc1cc(S(=O)(=O)N2CCOCC2)ccc1O

>  <score_type>  (17) 
oracle

>  <origin>  (17) 
adg

>  <m_score__min__energy>  (17) 
-10.73

>  <m_primary>  (17) 
energy

$$$$
17:0
     RDKit          3D

 44 45  0  0  0  0  0  0  0  0999 V2000
   59.5840   34.9910   46.3950 C   0  0  0  0  0  0  0  0  0  0  0  0
   58.8040   34.5060   45.1780 C   0  0  0  0  0  0  0  0  0  0  0  0
   57.5610   33.2580   45.6670 S   0  0  0  0  0  0  0  0  0  0  0  0
   58.4820   31.8150   45.0230 C   0  0  0  0  0  0  0  0  0  0  0  0
   57.8920   30.4960   45.5380 C   0  0  0  0  0  0  0  0  0  0  0  0
   56.5870   30.0840   44.8310 C   0  0  0  0  0  0  0  0  0  0  0  0
   56.5710   28.6580   44.5050 N   0  0  0  0  0  0  0  0  0  0  0  0
   57.0410   27.6440   45.4010 C   0  0  0  0  0  0  0  0  0  0  0  0
   58.3590   27.3350   45.6990 C   0  0  0  0  0  0  0  0  0  0  0  0
   58.2910   26.2440   46.5450 C   0  0  0  0  0  0  0  0  0  0  0  0
   59.3930   25.5810   47.0730 O   0  0  0  0  0  0  0  0  0  0  0  0
   57.0100   25.8840   46.7810 N   0  0  0  0  0  0  0  0  0  0  0  0
   56.5510   24.7100   47.5250 C   0  0  0  0  0  0  0  0  0  0  0  0
   57.3210   23.4530   47.1000 C   0  0  0  0  0  0  0  0  0  0  0  0
   57.0600   23.0970   45.6580 C   0  0  0  0  0  0  0  0  0  0  0  0
   55.9890   23.6850   44.9630 C   0  0  0  0  0  0  0  0  0  0  0  0
   55.7300   23.3280   43.6360 C   0  0  0  0  0  0  0  0  0  0  0  0
   56.5290   22.3750   42.9990 C   0  0  0  0  0  0  0  0  0  0  0  0
   57.5860   21.7750   43.6880 C   0  0  0  0  0  0  0  0  0  0  0  0
   57.8530   22.1320   45.0130 C   0  0  0  0  0  0  0  0  0  0  0  0
   56.2470   26.7410   46.0740 C   0  0  0  0  0  0  0  0  0  0  0  0
   54.8590   26.6860   46.0120 O   0  0  0  0  0  0  0  0  0  0  0  0
   59.0686   34.6705   47.3124 H   0  0  0  0  0  0  0  0  0  0  0  0
   60.5973   34.5635   46.3753 H   0  0  0  0  0  0  0  0  0  0  0  0
   59.6488   36.0889   46.3753 H   0  0  0  0  0  0  0  0  0  0  0  0
   58.2935   35.3613   44.7113 H   0  0  0  0  0  0  0  0  0  0  0  0
   59.5061   34.0476   44.4660 H   0  0  0  0  0  0  0  0  0  0  0  0
   58.4352   31.8225   43.9240 H   0  0  0  0  0  0  0  0  0  0  0  0
   59.5230   31.8866   45.3711 H   0  0  0  0  0  0  0  0  0  0  0  0
   58.6357   29.7000   45.3858 H   0  0  0  0  0  0  0  0  0  0  0  0
   57.6489   30.6455   46.6003 H   0  0  0  0  0  0  0  0  0  0  0  0
   55.7377   30.3071   45.4935 H   0  0  0  0  0  0  0  0  0  0  0  0
   56.5150   30.6499   43.8905 H   0  0  0  0  0  0  0  0  0  0  0  0
   56.2660   28.3760   43.5470 H   0  0  0  0  0  0  0  0  0  0  0  0
   59.2637   27.8474   45.3398 H   0  0  0  0  0  0  0  0  0  0  0  0
   56.7082   24.8816   48.6001 H   0  0  0  0  0  0  0  0  0  0  0  0
   55.4831   24.5554   47.3110 H   0  0  0  0  0  0  0  0  0  0  0  0
   58.3980   23.6332   47.2329 H   0  0  0  0  0  0  0  0  0  0  0  0
   56.9801   22.6153   47.7260 H   0  0  0  0  0  0  0  0  0  0  0  0
   55.3524   24.4286   45.4647 H   0  0  0  0  0  0  0  0  0  0  0  0
   54.8966   23.7978   43.0932 H   0  0  0  0  0  0  0  0  0  0  0  0
   56.3257   22.0970   41.9543 H   0  0  0  0  0  0  0  0  0  0  0  0
   58.2095   21.0200   43.1868 H   0  0  0  0  0  0  0  0  0  0  0  0
   58.6857   21.6566   45.5522 H   0  0  0  0  0  0  0  0  0  0  0  0
  1  2  1  0
  2  3  1  0
  3  4  1  0
  4  5  1  0
  5  6  1  0
  6  7  1  0
  7  8  1  0
  8  9  1  0
  9 10  2  0
 10 11  1  0
 10 12  1  0
 12 13  1  0
 13 14  1  0
 14 15  1  0
 15 16  2  0
 16 17  1  0
 17 18  2  0
 18 19  1  0
 19 20  2  0
 12 21  1  0
 21 22  1  0
 21  8  2  0
 20 15  1  0
  1 23  1  0
  1 24  1  0
  1 25  1  0
  2 26  1  0
  2 27  1  0
  4 28  1  0
  4 29  1  0
  5 30  1  0
  5 31  1  0
  6 32  1  0
  6 33  1  0
  7 34  1  0
  9 35  1  0
 13 36  1  0
 13 37  1  0
 14 38  1  0
 14 39  1  0
 16 40  1  0
 17 41  1  0
 18 42  1  0
 19 43  1  0
 20 44  1  0
M  CHG  2  11  -1  22  -1
M  END
>  <UniqueID>  (18) 
17

>  <SMILES>  (18) 
CCSCCCNc1cc([O-])n(CCc2ccccc2)c1[O-]

>  <Energy>  (18) 
54.31455692574972

>  <Genealogy>  (18) 
CCSCCCNc1cc([O-])n(CCc2ccccc2)c1[O-] (protonated)
CCSCCCNc1cc([O-])n(CCc2ccccc2)c1[O-] (3D coordinates assigned)
CCSCCCNc1cc([O-])n(CCc2ccccc2)c1[O-] (optimized conformer: 54.31455692574972 kcal/mol)

>  <smiles>  (18) 
CCSCCCNc1cc(O)n(CCc2ccccc2)c1O

>  <score_type>  (18) 
oracle

>  <origin>  (18) 
adg

>  <m_score__min__energy>  (18) 
-11.75

>  <m_primary>  (18) 
energy

$$$$
18:0
     RDKit          3D

 39 41  0  0  0  0  0  0  0  0999 V2000
   58.4940   27.8590   47.8250 C   0  0  0  0  0  0  0  0  0  0  0  0
   59.1590   29.1140   47.4870 N   0  0  0  0  0  0  0  0  0  0  0  0
   59.7070   30.0190   48.4190 C   0  0  0  0  0  0  0  0  0  0  0  0
   59.6040   29.8580   49.6650 O   0  0  0  0  0  0  0  0  0  0  0  0
   60.4630   31.0830   47.8400 N   0  0  2  0  0  0  0  0  0  0  0  0
   59.9510   32.4270   48.2080 C   0  0  0  0  0  0  0  0  0  0  0  0
   59.1490   33.1180   47.1190 C   0  0  0  0  0  0  0  0  0  0  0  0
   57.7750   32.8600   46.9700 C   0  0  0  0  0  0  0  0  0  0  0  0
   57.0440   33.4820   45.9530 C   0  0  0  0  0  0  0  0  0  0  0  0
   57.6800   34.3570   45.0690 C   0  0  0  0  0  0  0  0  0  0  0  0
   59.0500   34.6040   45.1940 C   0  0  0  0  0  0  0  0  0  0  0  0
   59.7830   33.9840   46.2100 C   0  0  0  0  0  0  0  0  0  0  0  0
   60.4290   30.7980   46.3830 C   0  0  0  0  0  0  0  0  0  0  0  0
   59.5840   29.5160   46.1590 C   0  0  2  0  0  0  0  0  0  0  0  0
   58.4130   29.7680   45.2280 C   0  0  0  0  0  0  0  0  0  0  0  0
   58.5060   30.7990   44.2780 C   0  0  0  0  0  0  0  0  0  0  0  0
   57.4260   31.0910   43.4390 C   0  0  0  0  0  0  0  0  0  0  0  0
   56.2390   30.3620   43.5470 C   0  0  0  0  0  0  0  0  0  0  0  0
   56.1300   29.3410   44.4930 C   0  0  0  0  0  0  0  0  0  0  0  0
   57.2080   29.0460   45.3340 C   0  0  0  0  0  0  0  0  0  0  0  0
   58.4394   27.7560   48.9188 H   0  0  0  0  0  0  0  0  0  0  0  0
   57.4772   27.8583   47.4054 H   0  0  0  0  0  0  0  0  0  0  0  0
   59.0644   27.0172   47.4054 H   0  0  0  0  0  0  0  0  0  0  0  0
   61.4500   30.9990   48.1830 H   0  0  0  0  0  0  0  0  0  0  0  0
   59.3060   32.3181   49.0924 H   0  0  0  0  0  0  0  0  0  0  0  0
   60.8336   33.0570   48.3926 H   0  0  0  0  0  0  0  0  0  0  0  0
   57.2718   32.1645   47.6578 H   0  0  0  0  0  0  0  0  0  0  0  0
   55.9673   33.2821   45.8490 H   0  0  0  0  0  0  0  0  0  0  0  0
   57.1024   34.8518   44.2743 H   0  0  0  0  0  0  0  0  0  0  0  0
   59.5517   35.2867   44.4924 H   0  0  0  0  0  0  0  0  0  0  0  0
   60.8627   34.1746   46.2992 H   0  0  0  0  0  0  0  0  0  0  0  0
   59.9713   31.6437   45.8488 H   0  0  0  0  0  0  0  0  0  0  0  0
   61.4500   30.6516   46.0007 H   0  0  0  0  0  0  0  0  0  0  0  0
   60.1617   28.7216   45.6639 H   0  0  0  0  0  0  0  0  0  0  0  0
   59.4356   31.3810   44.1935 H   0  0  0  0  0  0  0  0  0  0  0  0
   57.5111   31.8953   42.6934 H   0  0  0  0  0  0  0  0  0  0  0  0
   55.3901   30.5925   42.8865 H   0  0  0  0  0  0  0  0  0  0  0  0
   55.1950   28.7677   44.5771 H   0  0  0  0  0  0  0  0  0  0  0  0
   57.1143   28.2455   46.0826 H   0  0  0  0  0  0  0  0  0  0  0  0
  1  2  1  0
  2  3  1  0
  3  4  2  0
  3  5  1  0
  5  6  1  0
  6  7  1  0
  7  8  2  0
  8  9  1  0
  9 10  2  0
 10 11  1  0
 11 12  2  0
  5 13  1  0
 13 14  1  0
 14 15  1  0
 15 16  2  0
 16 17  1  0
 17 18  2  0
 18 19  1  0
 19 20  2  0
 14  2  1  0
 20 15  1  0
 12  7  1  0
  1 21  1  0
  1 22  1  0
  1 23  1  0
  5 24  1  1
  6 25  1  0
  6 26  1  0
  8 27  1  0
  9 28  1  0
 10 29  1  0
 11 30  1  0
 12 31  1  0
 13 32  1  0
 13 33  1  0
 14 34  1  6
 16 35  1  0
 17 36  1  0
 18 37  1  0
 19 38  1  0
 20 39  1  0
M  CHG  1   5   1
M  END
>  <UniqueID>  (19) 
18

>  <SMILES>  (19) 
CN1C(=O)[N@H+](Cc2ccccc2)C[C@@H]1c1ccccc1

>  <Energy>  (19) 
50.07295915240552

>  <Genealogy>  (19) 
CN1C(=O)[NH+](Cc2ccccc2)CC1c1ccccc1 (protonated)
CN1C(=O)[N@H+](Cc2ccccc2)C[C@@H]1c1ccccc1 (chirality)
CN1C(=O)[N@H+](Cc2ccccc2)C[C@@H]1c1ccccc1 (3D coordinates assigned)
CN1C(=O)[N@H+](Cc2ccccc2)C[C@@H]1c1ccccc1 (nonaromatic ring conformer: 50.07295915240552 kcal/mol)

>  <smiles>  (19) 
CN1C(=O)N(Cc2ccccc2)CC1c1ccccc1

>  <score_type>  (19) 
oracle

>  <origin>  (19) 
adg

>  <m_score__min__energy>  (19) 
-5.7000000000000002

>  <m_primary>  (19) 
energy

$$$$
19:0
     RDKit          3D

 29 31  0  0  0  0  0  0  0  0999 V2000
   54.7840   26.3390   45.9910 N   0  0  0  0  0  0  0  0  0  0  0  0
   56.1430   25.2740   46.0330 S   0  0  0  0  0  0  0  0  0  0  0  0
   56.2120   24.4940   44.7500 O   0  0  0  0  0  0  0  0  0  0  0  0
   55.9910   24.3110   47.1770 O   0  0  0  0  0  0  0  0  0  0  0  0
   57.6160   26.2160   46.2370 C   0  0  0  0  0  0  0  0  0  0  0  0
   58.8170   25.5840   46.5830 C   0  0  0  0  0  0  0  0  0  0  0  0
   59.9790   26.3360   46.7590 C   0  0  0  0  0  0  0  0  0  0  0  0
   59.9530   27.7220   46.5890 C   0  0  0  0  0  0  0  0  0  0  0  0
   58.7570   28.3720   46.2370 C   0  0  0  0  0  0  0  0  0  0  0  0
   58.7120   29.8020   46.0750 N   0  0  0  0  0  0  0  0  0  0  0  0
   59.8990   30.8690   46.5720 S   0  0  0  0  0  0  0  0  0  0  0  0
   59.1790   32.2860   46.0720 C   0  0  0  0  0  0  0  0  0  0  0  0
   59.6200   33.6020   46.1710 C   0  0  0  0  0  0  0  0  0  0  0  0
   58.7870   34.6110   45.6620 C   0  0  0  0  0  0  0  0  0  0  0  0
   57.5470   34.2850   45.0770 C   0  0  0  0  0  0  0  0  0  0  0  0
   57.1260   32.9450   44.9920 C   0  0  0  0  0  0  0  0  0  0  0  0
   57.9630   31.9440   45.4980 C   0  0  0  0  0  0  0  0  0  0  0  0
   57.7190   30.5540   45.5140 C   0  0  0  0  0  0  0  0  0  0  0  0
   56.6510   30.0490   45.0730 O   0  0  0  0  0  0  0  0  0  0  0  0
   57.5870   27.6080   46.0740 C   0  0  0  0  0  0  0  0  0  0  0  0
   55.1540   27.3090   46.1100 H   0  0  0  0  0  0  0  0  0  0  0  0
   58.8442   24.4924   46.7163 H   0  0  0  0  0  0  0  0  0  0  0  0
   60.9194   25.8352   47.0327 H   0  0  0  0  0  0  0  0  0  0  0  0
   60.8729   28.3081   46.7312 H   0  0  0  0  0  0  0  0  0  0  0  0
   60.5888   33.8437   46.6326 H   0  0  0  0  0  0  0  0  0  0  0  0
   59.1042   35.6627   45.7202 H   0  0  0  0  0  0  0  0  0  0  0  0
   56.9027   35.0850   44.6834 H   0  0  0  0  0  0  0  0  0  0  0  0
   56.1579   32.6892   44.5367 H   0  0  0  0  0  0  0  0  0  0  0  0
   56.6413   28.1072   45.8164 H   0  0  0  0  0  0  0  0  0  0  0  0
  1  2  1  0
  2  3  2  0
  2  4  2  0
  2  5  1  0
  5  6  2  0
  6  7  1  0
  7  8  2  0
  8  9  1  0
  9 10  1  0
 10 11  1  0
 11 12  1  0
 12 13  2  0
 13 14  1  0
 14 15  2  0
 15 16  1  0
 16 17  2  0
 17 18  1  0
 18 19  2  0
  9 20  2  0
 20  5  1  0
 18 10  1  0
 17 12  1  0
  1 21  1  0
  6 22  1  0
  7 23  1  0
  8 24  1  0
 13 25  1  0
 14 26  1  0
 15 27  1  0
 16 28  1  0
 20 29  1  0
M  CHG  1   1  -1
M  END
>  <UniqueID>  (20) 
19

>  <SMILES>  (20) 
[NH-]S(=O)(=O)c1cccc(-n2sc3ccccc3c2=O)c1

>  <Energy>  (20) 
76.34581082408083

>  <Genealogy>  (20) 
[NH-]S(=O)(=O)c1cccc(-n2sc3ccccc3c2=O)c1 (protonated)
[NH-]S(=O)(=O)c1cccc(-n2sc3ccccc3c2=O)c1 (3D coordinates assigned)
[NH-]S(=O)(=O)c1cccc(-n2sc3ccccc3c2=O)c1 (optimized conformer: 76.34581082408083 kcal/mol)

>  <smiles>  (20) 
NS(=O)(=O)c1cccc(-n2sc3ccccc3c2=O)c1

>  <score_type>  (20) 
oracle

>  <origin>  (20) 
adg

>  <m_score__min__energy>  (20) 
-11.65

>  <m_primary>  (20) 
energy

$$$$
20:0
     RDKit          3D

 58 61  0  0  0  0  0  0  0  0999 V2000
   56.9190   31.2150   43.5670 C   0  0  0  0  0  0  0  0  0  0  0  0
   57.0400   31.7260   44.8900 O   0  0  0  0  0  0  0  0  0  0  0  0
   57.9780   32.6940   45.2900 C   0  0  0  0  0  0  0  0  0  0  0  0
   58.3540   33.7510   44.4380 C   0  0  0  0  0  0  0  0  0  0  0  0
   59.2900   34.6990   44.8560 C   0  0  0  0  0  0  0  0  0  0  0  0
   59.8640   34.6040   46.1230 C   0  0  0  0  0  0  0  0  0  0  0  0
   59.5020   33.5640   46.9780 C   0  0  0  0  0  0  0  0  0  0  0  0
   58.5580   32.6030   46.5760 C   0  0  0  0  0  0  0  0  0  0  0  0
   58.1800   31.4980   47.5370 C   0  0  0  0  0  0  0  0  0  0  0  0
   59.1250   30.3760   47.4280 N   0  0  0  0  0  0  0  0  0  0  0  0
   60.2020   30.1070   48.2090 C   0  0  0  0  0  0  0  0  0  0  0  0
   60.7730   30.9870   49.2910 C   0  0  0  0  0  0  0  0  0  0  0  0
   61.6880   31.9830   48.7090 N   0  0  0  0  0  0  0  0  0  0  0  0
   62.4860   31.5960   47.6660 C   0  0  0  0  0  0  0  0  0  0  0  0
   63.3960   32.4840   47.0890 C   0  0  0  0  0  0  0  0  0  0  0  0
   63.4950   33.7790   47.5860 C   0  0  0  0  0  0  0  0  0  0  0  0
   62.6890   34.1730   48.6500 C   0  0  0  0  0  0  0  0  0  0  0  0
   61.7860   33.2630   49.2110 C   0  0  0  0  0  0  0  0  0  0  0  0
   60.7960   33.8310   50.5570 Cl  0  0  0  0  0  0  0  0  0  0  0  0
   60.7390   28.8970   47.8230 C   0  0  0  0  0  0  0  0  0  0  0  0
   60.0000   28.4070   46.8100 N   0  0  0  0  0  0  0  0  0  0  0  0
   60.1930   27.1050   46.1650 C   0  0  0  0  0  0  0  0  0  0  0  0
   59.2030   26.0930   46.6820 C   0  0  0  0  0  0  0  0  0  0  0  0
   58.9080   26.0950   47.9090 O   0  0  0  0  0  0  0  0  0  0  0  0
   58.5990   25.0680   45.7910 C   0  0  0  0  0  0  0  0  0  0  0  0
   57.4340   25.3700   45.0610 C   0  0  0  0  0  0  0  0  0  0  0  0
   56.8540   24.4150   44.2220 C   0  0  0  0  0  0  0  0  0  0  0  0
   57.4240   23.1450   44.1030 C   0  0  0  0  0  0  0  0  0  0  0  0
   56.6270   21.8410   42.9580 Br  0  0  0  0  0  0  0  0  0  0  0  0
   58.5760   22.8300   44.8280 C   0  0  0  0  0  0  0  0  0  0  0  0
   59.1620   23.7810   45.6680 C   0  0  0  0  0  0  0  0  0  0  0  0
   59.0270   29.3200   46.5820 C   0  0  0  0  0  0  0  0  0  0  0  0
   57.9080   29.1320   45.5940 C   0  0  0  0  0  0  0  0  0  0  0  0
   56.6657   30.1454   43.6088 H   0  0  0  0  0  0  0  0  0  0  0  0
   56.1249   31.7593   43.0349 H   0  0  0  0  0  0  0  0  0  0  0  0
   57.8729   31.3454   43.0349 H   0  0  0  0  0  0  0  0  0  0  0  0
   57.9069   33.8301   43.4361 H   0  0  0  0  0  0  0  0  0  0  0  0
   59.5750   35.5223   44.1845 H   0  0  0  0  0  0  0  0  0  0  0  0
   60.6034   35.3506   46.4485 H   0  0  0  0  0  0  0  0  0  0  0  0
   59.9591   33.4948   47.9761 H   0  0  0  0  0  0  0  0  0  0  0  0
   58.1996   31.8895   48.5648 H   0  0  0  0  0  0  0  0  0  0  0  0
   57.1706   31.1390   47.2876 H   0  0  0  0  0  0  0  0  0  0  0  0
   59.9522   31.5062   49.8074 H   0  0  0  0  0  0  0  0  0  0  0  0
   61.3307   30.3619   50.0039 H   0  0  0  0  0  0  0  0  0  0  0  0
   62.4091   30.5701   47.2767 H   0  0  0  0  0  0  0  0  0  0  0  0
   64.0289   32.1621   46.2489 H   0  0  0  0  0  0  0  0  0  0  0  0
   64.2072   34.4889   47.1401 H   0  0  0  0  0  0  0  0  0  0  0  0
   62.7615   35.1957   49.0484 H   0  0  0  0  0  0  0  0  0  0  0  0
   61.6217   28.4140   48.2675 H   0  0  0  0  0  0  0  0  0  0  0  0
   60.0578   27.2181   45.0792 H   0  0  0  0  0  0  0  0  0  0  0  0
   61.2086   26.7489   46.3923 H   0  0  0  0  0  0  0  0  0  0  0  0
   56.9764   26.3662   45.1518 H   0  0  0  0  0  0  0  0  0  0  0  0
   55.9458   24.6639   43.6534 H   0  0  0  0  0  0  0  0  0  0  0  0
   59.0237   21.8293   44.7373 H   0  0  0  0  0  0  0  0  0  0  0  0
   60.0679   23.5240   46.2366 H   0  0  0  0  0  0  0  0  0  0  0  0
   56.9637   28.9733   46.1354 H   0  0  0  0  0  0  0  0  0  0  0  0
   57.8223   30.0283   44.9621 H   0  0  0  0  0  0  0  0  0  0  0  0
   58.1199   28.2569   44.9621 H   0  0  0  0  0  0  0  0  0  0  0  0
  1  2  1  0
  2  3  1  0
  3  4  2  0
  4  5  1  0
  5  6  2  0
  6  7  1  0
  7  8  2  0
  8  9  1  0
  9 10  1  0
 10 11  1  0
 11 12  1  0
 12 13  1  0
 13 14  2  0
 14 15  1  0
 15 16  2  0
 16 17  1  0
 17 18  2  0
 18 19  1  0
 11 20  2  0
 20 21  1  0
 21 22  1  0
 22 23  1  0
 23 24  2  0
 23 25  1  0
 25 26  2  0
 26 27  1  0
 27 28  2  0
 28 29  1  0
 28 30  1  0
 30 31  2  0
 21 32  2  0
 32 33  1  0
  8  3  1  0
 32 10  1  0
 18 13  1  0
 31 25  1  0
  1 34  1  0
  1 35  1  0
  1 36  1  0
  4 37  1  0
  5 38  1  0
  6 39  1  0
  7 40  1  0
  9 41  1  0
  9 42  1  0
 12 43  1  0
 12 44  1  0
 14 45  1  0
 15 46  1  0
 16 47  1  0
 17 48  1  0
 20 49  1  0
 22 50  1  0
 22 51  1  0
 26 52  1  0
 27 53  1  0
 30 54  1  0
 31 55  1  0
 33 56  1  0
 33 57  1  0
 33 58  1  0
M  CHG  2  13   1  21   1
M  END
>  <UniqueID>  (21) 
20

>  <SMILES>  (21) 
COc1ccccc1Cn1c(C[n+]2ccccc2Cl)c[n+](CC(=O)c2ccc(Br)cc2)c1C

>  <Energy>  (21) 
95.5002833238415

>  <Genealogy>  (21) 
COc1ccccc1Cn1c(C[n+]2ccccc2Cl)c[n+](CC(=O)c2ccc(Br)cc2)c1C (3D coordinates assigned)
COc1ccccc1Cn1c(C[n+]2ccccc2Cl)c[n+](CC(=O)c2ccc(Br)cc2)c1C (optimized conformer: 95.5002833238415 kcal/mol)

>  <smiles>  (21) 
COc1ccccc1Cn1c(C[n+]2ccccc2Cl)c[n+](CC(=O)c2ccc(Br)cc2)c1C

>  <score_type>  (21) 
oracle

>  <origin>  (21) 
adg

>  <m_score__min__energy>  (21) 
-6.2000000000000002

>  <m_primary>  (21) 
energy

$$$$
21:0
     RDKit          3D

 49 51  0  0  0  0  0  0  0  0999 V2000
   63.3940   33.8420   46.7560 C   0  0  0  0  0  0  0  0  0  0  0  0
   62.0680   33.1920   46.9800 C   0  0  0  0  0  0  0  0  0  0  0  0
   60.8840   33.9000   46.7510 C   0  0  0  0  0  0  0  0  0  0  0  0
   59.6670   33.2680   47.0190 C   0  0  0  0  0  0  0  0  0  0  0  0
   58.1140   34.1180   46.7390 S   0  0  0  0  0  0  0  0  0  0  0  0
   58.2570   34.1430   44.9170 C   0  0  0  0  0  0  0  0  0  0  0  0
   57.8650   32.8090   44.3710 C   0  0  0  0  0  0  0  0  0  0  0  0
   58.0840   32.5470   43.1590 O   0  0  0  0  0  0  0  0  0  0  0  0
   57.2500   31.8440   45.2340 N   0  0  0  0  0  0  0  0  0  0  0  0
   57.4630   30.4250   45.2240 C   0  0  0  0  0  0  0  0  0  0  0  0
   57.8780   29.7220   46.3700 C   0  0  0  0  0  0  0  0  0  0  0  0
   58.0730   28.3390   46.3180 C   0  0  0  0  0  0  0  0  0  0  0  0
   57.8800   27.6360   45.1170 C   0  0  0  0  0  0  0  0  0  0  0  0
   58.0630   26.1660   45.0590 C   0  0  0  0  0  0  0  0  0  0  0  0
   59.1260   25.6560   45.5070 O   0  0  0  0  0  0  0  0  0  0  0  0
   57.0640   25.3270   44.4540 N   0  0  0  0  0  0  0  0  0  0  0  0
   57.1000   23.8920   44.5280 C   0  0  0  0  0  0  0  0  0  0  0  0
   56.9860   23.1280   43.3510 C   0  0  0  0  0  0  0  0  0  0  0  0
   57.0750   21.7360   43.3990 C   0  0  0  0  0  0  0  0  0  0  0  0
   57.2880   21.0890   44.6160 C   0  0  0  0  0  0  0  0  0  0  0  0
   57.4110   21.8340   45.7910 C   0  0  0  0  0  0  0  0  0  0  0  0
   57.3180   23.2350   45.7610 C   0  0  0  0  0  0  0  0  0  0  0  0
   57.4130   23.9660   46.9900 N   0  0  0  0  0  0  0  0  0  0  0  0
   57.5150   28.3500   43.9620 C   0  0  0  0  0  0  0  0  0  0  0  0
   57.3100   29.7310   44.0170 C   0  0  0  0  0  0  0  0  0  0  0  0
   59.6560   31.9900   47.4800 N   0  0  0  0  0  0  0  0  0  0  0  0
   60.8140   31.3110   47.6920 C   0  0  0  0  0  0  0  0  0  0  0  0
   60.7760   29.9240   48.2440 C   0  0  0  0  0  0  0  0  0  0  0  0
   62.0080   31.9210   47.4620 N   0  0  0  0  0  0  0  0  0  0  0  0
   63.8592   34.0700   47.7264 H   0  0  0  0  0  0  0  0  0  0  0  0
   64.0450   33.1609   46.1883 H   0  0  0  0  0  0  0  0  0  0  0  0
   63.2544   34.7738   46.1883 H   0  0  0  0  0  0  0  0  0  0  0  0
   60.9102   34.9310   46.3686 H   0  0  0  0  0  0  0  0  0  0  0  0
   57.5919   34.9173   44.5071 H   0  0  0  0  0  0  0  0  0  0  0  0
   59.2960   34.3659   44.6327 H   0  0  0  0  0  0  0  0  0  0  0  0
   58.0499   30.2637   47.3118 H   0  0  0  0  0  0  0  0  0  0  0  0
   58.3800   27.7967   47.2245 H   0  0  0  0  0  0  0  0  0  0  0  0
   56.3210   25.7730   43.8720 H   0  0  0  0  0  0  0  0  0  0  0  0
   56.8256   23.6319   42.3864 H   0  0  0  0  0  0  0  0  0  0  0  0
   56.9769   21.1478   42.4747 H   0  0  0  0  0  0  0  0  0  0  0  0
   57.3591   19.9918   44.6505 H   0  0  0  0  0  0  0  0  0  0  0  0
   57.5821   21.3191   46.7479 H   0  0  0  0  0  0  0  0  0  0  0  0
   58.1210   24.7180   47.1370 H   0  0  0  0  0  0  0  0  0  0  0  0
   56.7090   23.8170   47.7490 H   0  0  0  0  0  0  0  0  0  0  0  0
   57.3899   27.8172   43.0078 H   0  0  0  0  0  0  0  0  0  0  0  0
   57.0263   30.2774   43.1054 H   0  0  0  0  0  0  0  0  0  0  0  0
   60.7772   29.9667   49.3432 H   0  0  0  0  0  0  0  0  0  0  0  0
   59.8636   29.4164   47.8977 H   0  0  0  0  0  0  0  0  0  0  0  0
   61.6592   29.3672   47.8977 H   0  0  0  0  0  0  0  0  0  0  0  0
  1  2  1  0
  2  3  2  0
  3  4  1  0
  4  5  1  0
  5  6  1  0
  6  7  1  0
  7  8  2  0
  7  9  1  0
  9 10  1  0
 10 11  2  0
 11 12  1  0
 12 13  2  0
 13 14  1  0
 14 15  2  0
 14 16  1  0
 16 17  1  0
 17 18  2  0
 18 19  1  0
 19 20  2  0
 20 21  1  0
 21 22  2  0
 22 23  1  0
 13 24  1  0
 24 25  2  0
  4 26  2  0
 26 27  1  0
 27 28  1  0
 27 29  2  0
 29  2  1  0
 25 10  1  0
 22 17  1  0
  1 30  1  0
  1 31  1  0
  1 32  1  0
  3 33  1  0
  6 34  1  0
  6 35  1  0
 11 36  1  0
 12 37  1  0
 16 38  1  0
 18 39  1  0
 19 40  1  0
 20 41  1  0
 21 42  1  0
 23 43  1  0
 23 44  1  0
 24 45  1  0
 25 46  1  0
 28 47  1  0
 28 48  1  0
 28 49  1  0
M  CHG  1   9  -1
M  END
>  <UniqueID>  (22) 
21

>  <SMILES>  (22) 
Cc1cc(SCC(=O)[N-]c2ccc(C(=O)Nc3ccccc3N)cc2)nc(C)n1

>  <Energy>  (22) 
55.387983628853625

>  <Genealogy>  (22) 
Cc1cc(SCC(=O)[N-]c2ccc(C(=O)Nc3ccccc3N)cc2)nc(C)n1 (protonated)
Cc1cc(SCC(=O)[N-]c2ccc(C(=O)Nc3ccccc3N)cc2)nc(C)n1 (3D coordinates assigned)
Cc1cc(SCC(=O)[N-]c2ccc(C(=O)Nc3ccccc3N)cc2)nc(C)n1 (optimized conformer: 55.387983628853625 kcal/mol)

>  <smiles>  (22) 
Cc1cc(SCC(=O)Nc2ccc(C(=O)Nc3ccccc3N)cc2)nc(C)n1

>  <score_type>  (22) 
oracle

>  <origin>  (22) 
adg

>  <m_score__min__energy>  (22) 
-9.3100000000000005

>  <m_primary>  (22) 
energy

$$$$
22:0
     RDKit          3D

 41 42  0  0  0  0  0  0  0  0999 V2000
   59.2720   35.0200   45.2320 C   0  0  0  0  0  0  0  0  0  0  0  0
   59.8090   34.1440   46.3250 C   0  0  0  0  0  0  0  0  0  0  0  0
   58.9620   33.6500   47.3140 C   0  0  0  0  0  0  0  0  0  0  0  0
   59.4590   32.8020   48.3130 C   0  0  0  0  0  0  0  0  0  0  0  0
   58.4920   32.3150   49.3690 C   0  0  0  0  0  0  0  0  0  0  0  0
   60.7870   32.4140   48.3000 N   0  0  0  0  0  0  0  0  0  0  0  0
   61.3010   31.5090   49.3540 C   0  0  0  0  0  0  0  0  0  0  0  0
   61.1050   30.0710   48.9730 C   0  0  0  0  0  0  0  0  0  0  0  0
   61.3340   29.1710   49.8230 O   0  0  0  0  0  0  0  0  0  0  0  0
   60.5670   29.7410   47.6850 N   0  0  0  0  0  0  0  0  0  0  0  0
   59.5930   28.7290   47.3910 C   0  0  0  0  0  0  0  0  0  0  0  0
   59.7130   27.4210   47.8920 C   0  0  0  0  0  0  0  0  0  0  0  0
   58.7600   26.4500   47.5680 C   0  0  0  0  0  0  0  0  0  0  0  0
   57.6860   26.7680   46.7280 C   0  0  0  0  0  0  0  0  0  0  0  0
   56.4760   25.5590   46.3120 S   0  0  0  0  0  0  0  0  0  0  0  0
   54.9770   26.3470   45.9720 N   0  0  0  0  0  0  0  0  0  0  0  0
   56.2820   24.6000   47.4540 O   0  0  0  0  0  0  0  0  0  0  0  0
   56.9320   24.7910   45.1040 O   0  0  0  0  0  0  0  0  0  0  0  0
   57.5760   28.0640   46.2090 C   0  0  0  0  0  0  0  0  0  0  0  0
   58.5280   29.0380   46.5300 C   0  0  0  0  0  0  0  0  0  0  0  0
   58.3610   30.6520   45.8510 Cl  0  0  0  0  0  0  0  0  0  0  0  0
   61.6410   32.9150   47.3320 C   0  0  0  0  0  0  0  0  0  0  0  0
   63.1090   32.5590   47.2900 C   0  0  0  0  0  0  0  0  0  0  0  0
   61.1480   33.7640   46.3290 C   0  0  0  0  0  0  0  0  0  0  0  0
   58.7458   35.8783   45.6752 H   0  0  0  0  0  0  0  0  0  0  0  0
   60.1039   35.3814   44.6097 H   0  0  0  0  0  0  0  0  0  0  0  0
   58.5725   34.4426   44.6097 H   0  0  0  0  0  0  0  0  0  0  0  0
   57.8974   33.9268   47.3110 H   0  0  0  0  0  0  0  0  0  0  0  0
   58.9043   32.5226   50.3674 H   0  0  0  0  0  0  0  0  0  0  0  0
   57.5302   32.8362   49.2538 H   0  0  0  0  0  0  0  0  0  0  0  0
   58.3382   31.2319   49.2538 H   0  0  0  0  0  0  0  0  0  0  0  0
   62.3747   31.6993   49.4989 H   0  0  0  0  0  0  0  0  0  0  0  0
   60.7454   31.7034   50.2833 H   0  0  0  0  0  0  0  0  0  0  0  0
   60.5609   27.1599   48.5423 H   0  0  0  0  0  0  0  0  0  0  0  0
   58.8546   25.4324   47.9748 H   0  0  0  0  0  0  0  0  0  0  0  0
   55.1460   27.3750   46.0590 H   0  0  0  0  0  0  0  0  0  0  0  0
   56.7364   28.3178   45.5452 H   0  0  0  0  0  0  0  0  0  0  0  0
   63.4932   32.4658   48.3165 H   0  0  0  0  0  0  0  0  0  0  0  0
   63.2395   31.6032   46.7615 H   0  0  0  0  0  0  0  0  0  0  0  0
   63.6629   33.3489   46.7615 H   0  0  0  0  0  0  0  0  0  0  0  0
   61.8233   34.1310   45.5420 H   0  0  0  0  0  0  0  0  0  0  0  0
  1  2  1  0
  2  3  2  0
  3  4  1  0
  4  5  1  0
  4  6  2  0
  6  7  1  0
  7  8  1  0
  8  9  2  0
  8 10  1  0
 10 11  1  0
 11 12  2  0
 12 13  1  0
 13 14  2  0
 14 15  1  0
 15 16  1  0
 15 17  2  0
 15 18  2  0
 14 19  1  0
 19 20  2  0
 20 21  1  0
  6 22  1  0
 22 23  1  0
 22 24  2  0
 24  2  1  0
 20 11  1  0
  1 25  1  0
  1 26  1  0
  1 27  1  0
  3 28  1  0
  5 29  1  0
  5 30  1  0
  5 31  1  0
  7 32  1  0
  7 33  1  0
 12 34  1  0
 13 35  1  0
 16 36  1  0
 19 37  1  0
 23 38  1  0
 23 39  1  0
 23 40  1  0
 24 41  1  0
M  CHG  3   6   1  10  -1  16  -1
M  END
>  <UniqueID>  (23) 
22

>  <SMILES>  (23) 
Cc1cc(C)[n+](CC(=O)[N-]c2ccc(S([NH-])(=O)=O)cc2Cl)c(C)c1

>  <Energy>  (23) 
48.0973746328569

>  <Genealogy>  (23) 
Cc1cc(C)[n+](CC(=O)[N-]c2ccc(S([NH-])(=O)=O)cc2Cl)c(C)c1 (protonated)
Cc1cc(C)[n+](CC(=O)[N-]c2ccc(S([NH-])(=O)=O)cc2Cl)c(C)c1 (3D coordinates assigned)
Cc1cc(C)[n+](CC(=O)[N-]c2ccc(S([NH-])(=O)=O)cc2Cl)c(C)c1 (optimized conformer: 48.0973746328569 kcal/mol)

>  <smiles>  (23) 
Cc1cc(C)[n+](CC(=O)Nc2ccc(S(N)(=O)=O)cc2Cl)c(C)c1

>  <score_type>  (23) 
oracle

>  <origin>  (23) 
adg

>  <m_score__min__energy>  (23) 
-10.630000000000001

>  <m_primary>  (23) 
energy

$$$$
23:0
     RDKit          3D

 55 57  0  0  0  0  0  0  0  0999 V2000
   56.2670   29.8240   42.8530 C   0  0  0  0  0  0  0  0  0  0  0  0
   56.0920   29.9200   44.3320 C   0  0  0  0  0  0  0  0  0  0  0  0
   55.1140   29.3500   44.8820 O   0  0  0  0  0  0  0  0  0  0  0  0
   57.0060   30.7030   45.1040 N   0  0  0  0  0  0  0  0  0  0  0  0
   58.4130   30.0280   45.8590 S   0  0  0  0  0  0  0  0  0  0  0  0
   58.0660   28.6800   46.4250 O   0  0  0  0  0  0  0  0  0  0  0  0
   59.5050   29.8480   44.8400 O   0  0  0  0  0  0  0  0  0  0  0  0
   58.9560   31.0920   47.1520 C   0  0  0  0  0  0  0  0  0  0  0  0
   58.6610   32.4600   47.1010 C   0  0  0  0  0  0  0  0  0  0  0  0
   59.0200   33.2950   48.1620 C   0  0  0  0  0  0  0  0  0  0  0  0
   59.6800   32.7730   49.2760 C   0  0  0  0  0  0  0  0  0  0  0  0
   60.0750   33.8510   50.6550 S   0  0  0  0  0  0  0  0  0  0  0  0
   61.7350   33.1840   50.8680 C   0  0  0  0  0  0  0  0  0  0  0  0
   62.0270   32.5170   52.0600 C   0  0  0  0  0  0  0  0  0  0  0  0
   63.2940   31.9840   52.2780 C   0  0  0  0  0  0  0  0  0  0  0  0
   64.2770   32.0520   51.2770 C   0  0  0  0  0  0  0  0  0  0  0  0
   65.5540   31.5000   51.4760 O   0  0  0  0  0  0  0  0  0  0  0  0
   65.8280   30.1360   51.6730 C   0  0  0  0  0  0  0  0  0  0  0  0
   65.0880   29.4320   52.6280 C   0  0  0  0  0  0  0  0  0  0  0  0
   65.3220   28.0760   52.8460 C   0  0  0  0  0  0  0  0  0  0  0  0
   66.3050   27.4070   52.1120 C   0  0  0  0  0  0  0  0  0  0  0  0
   67.0680   28.0970   51.1530 C   0  0  0  0  0  0  0  0  0  0  0  0
   68.1680   27.4040   50.3920 C   0  0  0  0  0  0  0  0  0  0  0  0
   69.2660   27.2490   51.2170 F   0  0  0  0  0  0  0  0  0  0  0  0
   67.7630   26.1590   49.9460 F   0  0  0  0  0  0  0  0  0  0  0  0
   68.5350   28.1610   49.2920 F   0  0  0  0  0  0  0  0  0  0  0  0
   66.8450   29.4720   50.9630 C   0  0  0  0  0  0  0  0  0  0  0  0
   63.9910   32.7150   50.0680 C   0  0  0  0  0  0  0  0  0  0  0  0
   64.9590   32.6970   49.0100 N   0  0  0  0  0  0  0  0  0  0  0  0
   62.7290   33.3260   49.8800 C   0  0  0  0  0  0  0  0  0  0  0  0
   62.4530   34.1220   48.7200 N   0  0  0  0  0  0  0  0  0  0  0  0
   62.4930   33.4800   47.1040 S   0  0  0  0  0  0  0  0  0  0  0  0
   62.5650   31.7000   47.1410 C   0  0  0  0  0  0  0  0  0  0  0  0
   63.7180   33.9910   46.4010 O   0  0  0  0  0  0  0  0  0  0  0  0
   61.2760   33.9170   46.3400 O   0  0  0  0  0  0  0  0  0  0  0  0
   60.0270   31.4170   49.3040 C   0  0  0  0  0  0  0  0  0  0  0  0
   59.6480   30.5750   48.2560 C   0  0  0  0  0  0  0  0  0  0  0  0
   57.2111   29.3061   42.6283 H   0  0  0  0  0  0  0  0  0  0  0  0
   55.4275   29.2601   42.4203 H   0  0  0  0  0  0  0  0  0  0  0  0
   56.2914   30.8350   42.4203 H   0  0  0  0  0  0  0  0  0  0  0  0
   58.1455   32.8780   46.2237 H   0  0  0  0  0  0  0  0  0  0  0  0
   58.7817   34.3680   48.1195 H   0  0  0  0  0  0  0  0  0  0  0  0
   61.2502   32.4123   52.8317 H   0  0  0  0  0  0  0  0  0  0  0  0
   63.5272   31.5061   53.2409 H   0  0  0  0  0  0  0  0  0  0  0  0
   64.3149   29.9530   53.2118 H   0  0  0  0  0  0  0  0  0  0  0  0
   64.7318   27.5310   53.5974 H   0  0  0  0  0  0  0  0  0  0  0  0
   66.4829   26.3354   52.2851 H   0  0  0  0  0  0  0  0  0  0  0  0
   67.4708   30.0332   50.2535 H   0  0  0  0  0  0  0  0  0  0  0  0
   64.6930   32.9680   48.0390 H   0  0  0  0  0  0  0  0  0  0  0  0
   65.9160   32.3010   49.1570 H   0  0  0  0  0  0  0  0  0  0  0  0
   62.5789   31.3552   48.1855 H   0  0  0  0  0  0  0  0  0  0  0  0
   61.6828   31.2867   46.6302 H   0  0  0  0  0  0  0  0  0  0  0  0
   63.4777   31.3593   46.6302 H   0  0  0  0  0  0  0  0  0  0  0  0
   60.5991   31.0140   50.1527 H   0  0  0  0  0  0  0  0  0  0  0  0
   59.8932   29.5035   48.2971 H   0  0  0  0  0  0  0  0  0  0  0  0
  1  2  1  0
  2  3  2  0
  2  4  1  0
  4  5  1  0
  5  6  2  0
  5  7  2  0
  5  8  1  0
  8  9  2  0
  9 10  1  0
 10 11  2  0
 11 12  1  0
 12 13  1  0
 13 14  2  0
 14 15  1  0
 15 16  2  0
 16 17  1  0
 17 18  1  0
 18 19  2  0
 19 20  1  0
 20 21  2  0
 21 22  1  0
 22 23  1  0
 23 24  1  0
 23 25  1  0
 23 26  1  0
 22 27  2  0
 16 28  1  0
 28 29  1  0
 28 30  2  0
 30 31  1  0
 31 32  1  0
 32 33  1  0
 32 34  2  0
 32 35  2  0
 11 36  1  0
 36 37  2  0
 37  8  1  0
 30 13  1  0
 27 18  1  0
  1 38  1  0
  1 39  1  0
  1 40  1  0
  9 41  1  0
 10 42  1  0
 14 43  1  0
 15 44  1  0
 19 45  1  0
 20 46  1  0
 21 47  1  0
 27 48  1  0
 29 49  1  0
 29 50  1  0
 33 51  1  0
 33 52  1  0
 33 53  1  0
 36 54  1  0
 37 55  1  0
M  CHG  2   4  -1  31  -1
M  END
>  <UniqueID>  (24) 
23

>  <SMILES>  (24) 
CC(=O)[N-]S(=O)(=O)c1ccc(Sc2ccc(Oc3cccc(C(F)(F)F)c3)c(N)c2[N-]S(C)(=O)=O)cc1

>  <Energy>  (24) 
64.58153852362929

>  <Genealogy>  (24) 
CC(=O)[N-]S(=O)(=O)c1ccc(Sc2ccc(Oc3cccc(C(F)(F)F)c3)c(N)c2[N-]S(C)(=O)=O)cc1 (protonated)
CC(=O)[N-]S(=O)(=O)c1ccc(Sc2ccc(Oc3cccc(C(F)(F)F)c3)c(N)c2[N-]S(C)(=O)=O)cc1 (3D coordinates assigned)
CC(=O)[N-]S(=O)(=O)c1ccc(Sc2ccc(Oc3cccc(C(F)(F)F)c3)c(N)c2[N-]S(C)(=O)=O)cc1 (optimized conformer: 64.58153852362929 kcal/mol)

>  <smiles>  (24) 
CC(=O)NS(=O)(=O)c1ccc(Sc2ccc(Oc3cccc(C(F)(F)F)c3)c(N)c2NS(C)(=O)=O)cc1

>  <score_type>  (24) 
oracle

>  <origin>  (24) 
adg

>  <m_score__min__energy>  (24) 
-12.06

>  <m_primary>  (24) 
energy

$$$$
24:0
     RDKit          3D

 53 55  0  0  0  0  0  0  0  0999 V2000
   56.9900   29.1780   43.3560 C   0  0  0  0  0  0  0  0  0  0  0  0
   55.8950   30.1380   43.7930 C   0  0  0  0  0  0  0  0  0  0  0  0
   56.4450   31.1240   44.6600 O   0  0  0  0  0  0  0  0  0  0  0  0
   57.3940   32.0600   44.2360 C   0  0  0  0  0  0  0  0  0  0  0  0
   57.6470   32.1900   43.0060 O   0  0  0  0  0  0  0  0  0  0  0  0
   58.1030   32.8930   45.2330 C   0  0  0  0  0  0  0  0  0  0  0  0
   58.6040   34.1560   44.8730 C   0  0  0  0  0  0  0  0  0  0  0  0
   59.2740   34.9440   45.8120 C   0  0  0  0  0  0  0  0  0  0  0  0
   59.4420   34.4860   47.1210 C   0  0  0  0  0  0  0  0  0  0  0  0
   58.9370   33.2340   47.5000 C   0  0  0  0  0  0  0  0  0  0  0  0
   59.1370   32.6590   49.1560 S   0  0  0  0  0  0  0  0  0  0  0  0
   59.7230   33.7670   49.9850 O   0  0  0  0  0  0  0  0  0  0  0  0
   57.7800   32.3420   49.7240 O   0  0  0  0  0  0  0  0  0  0  0  0
   60.1330   31.2130   49.2550 N   0  0  1  0  0  0  0  0  0  0  0  0
   59.2800   29.9820   49.2900 C   0  0  0  0  0  0  0  0  0  0  0  0
   59.4640   29.0140   48.1330 C   0  0  0  0  0  0  0  0  0  0  0  0
   60.1980   27.8270   48.3160 C   0  0  0  0  0  0  0  0  0  0  0  0
   60.3890   26.9430   47.2500 C   0  0  0  0  0  0  0  0  0  0  0  0
   59.8460   27.2290   45.9960 C   0  0  0  0  0  0  0  0  0  0  0  0
   59.1050   28.3980   45.8070 C   0  0  0  0  0  0  0  0  0  0  0  0
   58.9120   29.2850   46.8700 C   0  0  0  0  0  0  0  0  0  0  0  0
   61.2070   31.2000   48.2270 C   0  0  0  0  0  0  0  0  0  0  0  0
   62.5510   31.6540   48.7600 C   0  0  0  0  0  0  0  0  0  0  0  0
   63.2710   32.6690   48.1040 C   0  0  0  0  0  0  0  0  0  0  0  0
   64.5030   33.0970   48.6050 C   0  0  0  0  0  0  0  0  0  0  0  0
   65.0220   32.5310   49.7730 C   0  0  0  0  0  0  0  0  0  0  0  0
   66.7050   33.1200   50.4560 Br  0  0  0  0  0  0  0  0  0  0  0  0
   64.3000   31.5410   50.4470 C   0  0  0  0  0  0  0  0  0  0  0  0
   63.0680   31.1090   49.9490 C   0  0  0  0  0  0  0  0  0  0  0  0
   58.2860   32.4360   46.5510 C   0  0  0  0  0  0  0  0  0  0  0  0
   57.4782   28.7500   44.2439 H   0  0  0  0  0  0  0  0  0  0  0  0
   56.5499   28.3694   42.7539 H   0  0  0  0  0  0  0  0  0  0  0  0
   57.7341   29.7201   42.7539 H   0  0  0  0  0  0  0  0  0  0  0  0
   55.4628   30.6281   42.9082 H   0  0  0  0  0  0  0  0  0  0  0  0
   55.1097   29.5803   44.3243 H   0  0  0  0  0  0  0  0  0  0  0  0
   58.4677   34.5260   43.8461 H   0  0  0  0  0  0  0  0  0  0  0  0
   59.6703   35.9277   45.5199 H   0  0  0  0  0  0  0  0  0  0  0  0
   59.9719   35.1092   47.8564 H   0  0  0  0  0  0  0  0  0  0  0  0
   60.5950   31.2700   50.1920 H   0  0  0  0  0  0  0  0  0  0  0  0
   59.5063   29.4415   50.2209 H   0  0  0  0  0  0  0  0  0  0  0  0
   58.2414   30.3373   49.2186 H   0  0  0  0  0  0  0  0  0  0  0  0
   60.6236   27.5937   49.3031 H   0  0  0  0  0  0  0  0  0  0  0  0
   60.9684   26.0200   47.3996 H   0  0  0  0  0  0  0  0  0  0  0  0
   60.0016   26.5343   45.1574 H   0  0  0  0  0  0  0  0  0  0  0  0
   58.6728   28.6208   44.8203 H   0  0  0  0  0  0  0  0  0  0  0  0
   58.3237   30.2017   46.7164 H   0  0  0  0  0  0  0  0  0  0  0  0
   61.3115   30.1742   47.8439 H   0  0  0  0  0  0  0  0  0  0  0  0
   60.9125   31.9083   47.4386 H   0  0  0  0  0  0  0  0  0  0  0  0
   62.8619   33.1281   47.1919 H   0  0  0  0  0  0  0  0  0  0  0  0
   65.0662   33.8817   48.0787 H   0  0  0  0  0  0  0  0  0  0  0  0
   64.7029   31.1014   51.3713 H   0  0  0  0  0  0  0  0  0  0  0  0
   62.4993   30.3383   50.4900 H   0  0  0  0  0  0  0  0  0  0  0  0
   57.9139   31.4417   46.8390 H   0  0  0  0  0  0  0  0  0  0  0  0
  1  2  1  0
  2  3  1  0
  3  4  1  0
  4  5  2  0
  4  6  1  0
  6  7  2  0
  7  8  1  0
  8  9  2  0
  9 10  1  0
 10 11  1  0
 11 12  2  0
 11 13  2  0
 11 14  1  0
 14 15  1  0
 15 16  1  0
 16 17  2  0
 17 18  1  0
 18 19  2  0
 19 20  1  0
 20 21  2  0
 14 22  1  0
 22 23  1  0
 23 24  2  0
 24 25  1  0
 25 26  2  0
 26 27  1  0
 26 28  1  0
 28 29  2  0
 10 30  2  0
 30  6  1  0
 21 16  1  0
 29 23  1  0
  1 31  1  0
  1 32  1  0
  1 33  1  0
  2 34  1  0
  2 35  1  0
  7 36  1  0
  8 37  1  0
  9 38  1  0
 14 39  1  1
 15 40  1  0
 15 41  1  0
 17 42  1  0
 18 43  1  0
 19 44  1  0
 20 45  1  0
 21 46  1  0
 22 47  1  0
 22 48  1  0
 24 49  1  0
 25 50  1  0
 28 51  1  0
 29 52  1  0
 30 53  1  0
M  CHG  1  14   1
M  END
>  <UniqueID>  (25) 
24

>  <SMILES>  (25) 
CCOC(=O)c1cccc(S(=O)(=O)[N@@H+](Cc2ccccc2)Cc2ccc(Br)cc2)c1

>  <Energy>  (25) 
58.955630447670316

>  <Genealogy>  (25) 
CCOC(=O)c1cccc(S(=O)(=O)[NH+](Cc2ccccc2)Cc2ccc(Br)cc2)c1 (protonated)
CCOC(=O)c1cccc(S(=O)(=O)[N@@H+](Cc2ccccc2)Cc2ccc(Br)cc2)c1 (chirality)
CCOC(=O)c1cccc(S(=O)(=O)[N@@H+](Cc2ccccc2)Cc2ccc(Br)cc2)c1 (3D coordinates assigned)
CCOC(=O)c1cccc(S(=O)(=O)[N@@H+](Cc2ccccc2)Cc2ccc(Br)cc2)c1 (optimized conformer: 58.955630447670316 kcal/mol)

>  <smiles>  (25) 
CCOC(=O)c1cccc(S(=O)(=O)N(Cc2ccccc2)Cc2ccc(Br)cc2)c1

>  <score_type>  (25) 
oracle

>  <origin>  (25) 
adg

>  <m_score__min__energy>  (25) 
-8.4000000000000004

>  <m_primary>  (25) 
energy

$$$$
25:0
     RDKit          3D

 36 38  0  0  0  0  0  0  0  0999 V2000
   58.2720   28.5250   46.9530 C   0  0  0  0  0  0  0  0  0  0  0  0
   57.9100   27.2990   46.5380 C   0  0  0  0  0  0  0  0  0  0  0  0
   57.7590   26.3600   47.5050 N   0  0  0  0  0  0  0  0  0  0  0  0
   57.4580   25.0720   47.2360 C   0  0  0  0  0  0  0  0  0  0  0  0
   57.3320   24.2630   48.1960 O   0  0  0  0  0  0  0  0  0  0  0  0
   57.2890   24.6600   45.9460 N   0  0  0  0  0  0  0  0  0  0  0  0
   56.9230   23.2600   45.6630 C   0  0  0  0  0  0  0  0  0  0  0  0
   57.3580   25.5700   44.9210 C   0  0  0  0  0  0  0  0  0  0  0  0
   57.0250   25.2040   43.7600 O   0  0  0  0  0  0  0  0  0  0  0  0
   57.7280   26.9260   45.1700 C   0  0  0  0  0  0  0  0  0  0  0  0
   57.8420   27.8360   44.1600 C   0  0  0  0  0  0  0  0  0  0  0  0
   57.4830   29.2670   44.2360 C   0  0  0  0  0  0  0  0  0  0  0  0
   58.5600   30.5620   44.1380 S   0  0  0  0  0  0  0  0  0  0  0  0
   57.3750   31.7010   44.5310 C   0  0  0  0  0  0  0  0  0  0  0  0
   57.5550   32.9830   44.6580 N   0  0  0  0  0  0  0  0  0  0  0  0
   58.4140   33.6330   45.6110 C   0  0  0  0  0  0  0  0  0  0  0  0
   59.1060   34.8140   45.2850 C   0  0  0  0  0  0  0  0  0  0  0  0
   59.9020   35.4510   46.2420 C   0  0  0  0  0  0  0  0  0  0  0  0
   59.9960   34.9300   47.5340 C   0  0  0  0  0  0  0  0  0  0  0  0
   59.2850   33.7760   47.8750 C   0  0  0  0  0  0  0  0  0  0  0  0
   58.4850   33.1320   46.9200 C   0  0  0  0  0  0  0  0  0  0  0  0
   57.7670   31.9870   47.2650 O   0  0  0  0  0  0  0  0  0  0  0  0
   56.1850   31.1180   44.7900 N   0  0  0  0  0  0  0  0  0  0  0  0
   56.2480   29.7680   44.6380 C   0  0  0  0  0  0  0  0  0  0  0  0
   55.1460   28.9570   44.8770 O   0  0  0  0  0  0  0  0  0  0  0  0
   58.4121   29.3343   46.2212 H   0  0  0  0  0  0  0  0  0  0  0  0
   58.4282   28.7192   48.0244 H   0  0  0  0  0  0  0  0  0  0  0  0
   56.7816   22.7193   46.6104 H   0  0  0  0  0  0  0  0  0  0  0  0
   55.9882   23.2353   45.0837 H   0  0  0  0  0  0  0  0  0  0  0  0
   57.7261   22.7810   45.0837 H   0  0  0  0  0  0  0  0  0  0  0  0
   58.2376   27.4706   43.2008 H   0  0  0  0  0  0  0  0  0  0  0  0
   59.0205   35.2377   44.2735 H   0  0  0  0  0  0  0  0  0  0  0  0
   60.4550   36.3641   45.9765 H   0  0  0  0  0  0  0  0  0  0  0  0
   60.6294   35.4276   48.2832 H   0  0  0  0  0  0  0  0  0  0  0  0
   59.3531   33.3716   48.8957 H   0  0  0  0  0  0  0  0  0  0  0  0
   57.0500   31.6080   46.6570 H   0  0  0  0  0  0  0  0  0  0  0  0
  1  2  2  0
  2  3  1  0
  3  4  1  0
  4  5  2  0
  4  6  1  0
  6  7  1  0
  6  8  1  0
  8  9  2  0
  8 10  1  0
 10 11  2  3
 11 12  1  0
 12 13  1  0
 13 14  1  0
 14 15  2  3
 15 16  1  0
 16 17  2  0
 17 18  1  0
 18 19  2  0
 19 20  1  0
 20 21  2  0
 21 22  1  0
 14 23  1  0
 23 24  1  0
 24 25  1  0
 10  2  1  0
 24 12  2  0
 21 16  1  0
  1 26  1  0
  1 27  1  0
  7 28  1  0
  7 29  1  0
  7 30  1  0
 11 31  1  0
 17 32  1  0
 18 33  1  0
 19 34  1  0
 20 35  1  0
 22 36  1  0
M  CHG  3   3  -1  23  -1  25  -1
M  END
>  <UniqueID>  (26) 
25

>  <SMILES>  (26) 
C=c1[n-]c(=O)n(C)c(=O)c1=Cc1sc(=Nc2ccccc2O)[n-]c1[O-]

>  <Energy>  (26) 
100.95629307774924

>  <Genealogy>  (26) 
C=c1[n-]c(=O)n(C)c(=O)c1=Cc1sc(=Nc2ccccc2O)[n-]c1[O-] (protonated)
C=c1[n-]c(=O)n(C)c(=O)c1=Cc1sc(=Nc2ccccc2O)[n-]c1[O-] (3D coordinates assigned)
C=c1[n-]c(=O)n(C)c(=O)c1=Cc1sc(=Nc2ccccc2O)[n-]c1[O-] (optimized conformer: 100.95629307774924 kcal/mol)

>  <smiles>  (26) 
C=c1[nH]c(=O)n(C)c(=O)c1=Cc1sc(=Nc2ccccc2O)[nH]c1O

>  <score_type>  (26) 
oracle

>  <origin>  (26) 
adg

>  <m_score__min__energy>  (26) 
-14.18

>  <m_primary>  (26) 
energy

$$$$
26:0
     RDKit          3D

 30 31  0  0  0  0  0  0  0  0999 V2000
   57.3880   28.7510   43.4950 C   0  0  0  0  0  0  0  0  0  0  0  0
   56.9470   30.4340   43.8600 S   0  0  0  0  0  0  0  0  0  0  0  0
   56.8920   31.2280   42.5840 O   0  0  0  0  0  0  0  0  0  0  0  0
   55.5910   30.4690   44.5070 O   0  0  0  0  0  0  0  0  0  0  0  0
   58.1450   31.1310   44.9450 C   0  0  0  0  0  0  0  0  0  0  0  0
   59.0570   30.3020   45.6130 C   0  0  0  0  0  0  0  0  0  0  0  0
   60.0190   30.8560   46.4630 C   0  0  0  0  0  0  0  0  0  0  0  0
   60.0800   32.2450   46.6550 C   0  0  0  0  0  0  0  0  0  0  0  0
   61.0770   32.8150   47.5220 N   0  0  0  0  0  0  0  0  0  0  0  0
   62.4910   32.7260   47.1360 C   0  0  0  0  0  0  0  0  0  0  0  0
   63.4030   33.1560   48.2880 C   0  0  0  0  0  0  0  0  0  0  0  0
   62.9800   34.4040   48.8040 O   0  0  0  0  0  0  0  0  0  0  0  0
   61.7640   34.2450   49.5100 C   0  0  0  0  0  0  0  0  0  0  0  0
   60.6980   33.6320   48.6450 C   0  0  0  0  0  0  0  0  0  0  0  0
   59.4860   33.7700   48.9640 O   0  0  0  0  0  0  0  0  0  0  0  0
   59.1710   33.0740   45.9750 C   0  0  0  0  0  0  0  0  0  0  0  0
   58.2110   32.5180   45.1240 C   0  0  0  0  0  0  0  0  0  0  0  0
   57.5329   28.1979   44.4347 H   0  0  0  0  0  0  0  0  0  0  0  0
   56.5832   28.2792   42.9122 H   0  0  0  0  0  0  0  0  0  0  0  0
   58.3208   28.7345   42.9122 H   0  0  0  0  0  0  0  0  0  0  0  0
   59.0156   29.2124   45.4680 H   0  0  0  0  0  0  0  0  0  0  0  0
   60.7318   30.1998   46.9840 H   0  0  0  0  0  0  0  0  0  0  0  0
   62.7241   31.6866   46.8616 H   0  0  0  0  0  0  0  0  0  0  0  0
   62.6640   33.3983   46.2827 H   0  0  0  0  0  0  0  0  0  0  0  0
   63.3622   32.3999   49.0859 H   0  0  0  0  0  0  0  0  0  0  0  0
   64.4333   33.2515   47.9148 H   0  0  0  0  0  0  0  0  0  0  0  0
   61.9380   33.5926   50.3784 H   0  0  0  0  0  0  0  0  0  0  0  0
   61.4187   35.2395   49.8288 H   0  0  0  0  0  0  0  0  0  0  0  0
   59.2151   34.1644   46.1129 H   0  0  0  0  0  0  0  0  0  0  0  0
   57.5047   33.1730   44.5929 H   0  0  0  0  0  0  0  0  0  0  0  0
  1  2  1  0
  2  3  2  0
  2  4  2  0
  2  5  1  0
  5  6  2  0
  6  7  1  0
  7  8  2  0
  8  9  1  0
  9 10  1  0
 10 11  1  0
 11 12  1  0
 12 13  1  0
 13 14  1  0
 14 15  2  0
  8 16  1  0
 16 17  2  0
 17  5  1  0
 14  9  1  0
  1 18  1  0
  1 19  1  0
  1 20  1  0
  6 21  1  0
  7 22  1  0
 10 23  1  0
 10 24  1  0
 11 25  1  0
 11 26  1  0
 13 27  1  0
 13 28  1  0
 16 29  1  0
 17 30  1  0
M  END
>  <UniqueID>  (27) 
26

>  <SMILES>  (27) 
CS(=O)(=O)c1ccc(N2CCOCC2=O)cc1

>  <Energy>  (27) 
35.516103381111385

>  <Genealogy>  (27) 
CS(=O)(=O)c1ccc(N2CCOCC2=O)cc1 (3D coordinates assigned)
CS(=O)(=O)c1ccc(N2CCOCC2=O)cc1 (nonaromatic ring conformer: 35.516103381111385 kcal/mol)

>  <smiles>  (27) 
CS(=O)(=O)c1ccc(N2CCOCC2=O)cc1

>  <score_type>  (27) 
oracle

>  <origin>  (27) 
adg

>  <m_score__min__energy>  (27) 
-6.2400000000000002

>  <m_primary>  (27) 
energy

$$$$
27:0
     RDKit          3D

 35 36  0  0  0  0  0  0  0  0999 V2000
   57.7780   22.9790   46.1900 O   0  0  0  0  0  0  0  0  0  0  0  0
   57.5370   24.1920   46.4270 C   0  0  0  0  0  0  0  0  0  0  0  0
   56.3010   24.5450   47.2140 C   0  0  0  0  0  0  0  0  0  0  0  0
   55.0680   24.0200   46.5210 C   0  0  0  0  0  0  0  0  0  0  0  0
   54.7780   22.6440   46.5570 C   0  0  0  0  0  0  0  0  0  0  0  0
   53.6250   22.1490   45.9420 C   0  0  0  0  0  0  0  0  0  0  0  0
   52.7480   23.0200   45.2930 C   0  0  0  0  0  0  0  0  0  0  0  0
   53.0190   24.3900   45.2610 C   0  0  0  0  0  0  0  0  0  0  0  0
   54.1710   24.8950   45.8750 C   0  0  0  0  0  0  0  0  0  0  0  0
   54.4160   26.2630   45.8390 O   0  0  0  0  0  0  0  0  0  0  0  0
   58.4550   25.1800   45.9370 N   0  0  0  0  0  0  0  0  0  0  0  0
   59.0250   26.2870   46.7010 C   0  0  0  0  0  0  0  0  0  0  0  0
   59.7200   27.2820   45.7680 C   0  0  0  0  0  0  0  0  0  0  0  0
   58.7850   28.4020   45.4010 C   0  0  0  0  0  0  0  0  0  0  0  0
   59.2770   29.7040   45.2100 C   0  0  0  0  0  0  0  0  0  0  0  0
   58.4020   30.7490   44.9020 C   0  0  0  0  0  0  0  0  0  0  0  0
   57.0250   30.5080   44.7930 C   0  0  0  0  0  0  0  0  0  0  0  0
   56.1480   31.5460   44.4860 O   0  0  0  0  0  0  0  0  0  0  0  0
   56.5290   29.2140   44.9970 C   0  0  0  0  0  0  0  0  0  0  0  0
   55.1650   28.9670   44.8990 O   0  0  0  0  0  0  0  0  0  0  0  0
   57.4050   28.1670   45.3040 C   0  0  0  0  0  0  0  0  0  0  0  0
   56.3705   24.0990   48.2171 H   0  0  0  0  0  0  0  0  0  0  0  0
   56.2279   25.6399   47.2911 H   0  0  0  0  0  0  0  0  0  0  0  0
   55.4625   21.9540   47.0720 H   0  0  0  0  0  0  0  0  0  0  0  0
   53.4080   21.0710   45.9693 H   0  0  0  0  0  0  0  0  0  0  0  0
   51.8430   22.6272   44.8065 H   0  0  0  0  0  0  0  0  0  0  0  0
   52.3246   25.0743   44.7515 H   0  0  0  0  0  0  0  0  0  0  0  0
   58.2204   26.8029   47.2455 H   0  0  0  0  0  0  0  0  0  0  0  0
   59.7659   25.8862   47.4084 H   0  0  0  0  0  0  0  0  0  0  0  0
   60.6023   27.6988   46.2758 H   0  0  0  0  0  0  0  0  0  0  0  0
   60.0233   26.7568   44.8503 H   0  0  0  0  0  0  0  0  0  0  0  0
   60.3551   29.9015   45.3033 H   0  0  0  0  0  0  0  0  0  0  0  0
   58.7948   31.7643   44.7445 H   0  0  0  0  0  0  0  0  0  0  0  0
   55.1580   31.3790   44.3450 H   0  0  0  0  0  0  0  0  0  0  0  0
   57.0097   27.1540   45.4702 H   0  0  0  0  0  0  0  0  0  0  0  0
  1  2  2  0
  2  3  1  0
  3  4  1  0
  4  5  2  0
  5  6  1  0
  6  7  2  0
  7  8  1  0
  8  9  2  0
  9 10  1  0
  2 11  1  0
 11 12  1  0
 12 13  1  0
 13 14  1  0
 14 15  2  0
 15 16  1  0
 16 17  2  0
 17 18  1  0
 17 19  1  0
 19 20  1  0
 19 21  2  0
  9  4  1  0
 21 14  1  0
  3 22  1  0
  3 23  1  0
  5 24  1  0
  6 25  1  0
  7 26  1  0
  8 27  1  0
 12 28  1  0
 12 29  1  0
 13 30  1  0
 13 31  1  0
 15 32  1  0
 16 33  1  0
 18 34  1  0
 21 35  1  0
M  CHG  3  10  -1  11  -1  20  -1
M  END
>  <UniqueID>  (28) 
27

>  <SMILES>  (28) 
O=C(Cc1ccccc1[O-])[N-]CCc1ccc(O)c([O-])c1

>  <Energy>  (28) 
31.504355282203207

>  <Genealogy>  (28) 
O=C(Cc1ccccc1[O-])[N-]CCc1ccc(O)c([O-])c1 (protonated)
O=C(Cc1ccccc1[O-])[N-]CCc1ccc(O)c([O-])c1 (3D coordinates assigned)
O=C(Cc1ccccc1[O-])[N-]CCc1ccc(O)c([O-])c1 (optimized conformer: 31.504355282203207 kcal/mol)

>  <smiles>  (28) 
O=C(Cc1ccccc1O)NCCc1ccc(O)c(O)c1

>  <score_type>  (28) 
oracle

>  <origin>  (28) 
adg

>  <m_score__min__energy>  (28) 
-14.17

>  <m_primary>  (28) 
energy

$$$$
28:0
     RDKit          3D

 48 51  0  0  0  0  0  0  0  0999 V2000
   56.9823   31.1163   43.4056 H   0  0  0  0  0  0  0  0  0  0  0  0
   57.2440   31.0130   44.4690 C   0  0  0  0  0  0  0  0  0  0  0  0
   57.3030   32.1340   45.2060 C   0  0  0  0  0  0  0  0  0  0  0  0
   56.3701   32.7012   45.3402 H   0  0  0  0  0  0  0  0  0  0  0  0
   58.5230   32.6670   45.8520 C   0  0  0  0  0  0  0  0  0  0  0  0
   58.8730   34.0100   45.6460 C   0  0  0  0  0  0  0  0  0  0  0  0
   58.2380   34.6491   45.0149 H   0  0  0  0  0  0  0  0  0  0  0  0
   60.0230   34.5420   46.2370 C   0  0  0  0  0  0  0  0  0  0  0  0
   60.2784   35.6006   46.0819 H   0  0  0  0  0  0  0  0  0  0  0  0
   60.8560   33.7290   47.0300 C   0  0  0  0  0  0  0  0  0  0  0  0
   62.0160   34.2160   47.6480 O   0  0  0  0  0  0  0  0  0  0  0  0
   63.3310   33.7380   47.3820 C   0  0  0  0  0  0  0  0  0  0  0  0
   63.8516   33.5488   48.3324 H   0  0  0  0  0  0  0  0  0  0  0  0
   63.2717   32.8039   46.8041 H   0  0  0  0  0  0  0  0  0  0  0  0
   63.8854   34.4921   46.8041 H   0  0  0  0  0  0  0  0  0  0  0  0
   60.5230   32.3810   47.2080 C   0  0  0  0  0  0  0  0  0  0  0  0
   61.1713   31.7351   47.8183 H   0  0  0  0  0  0  0  0  0  0  0  0
   59.3740   31.8490   46.6170 C   0  0  0  0  0  0  0  0  0  0  0  0
   59.1335   30.7840   46.7508 H   0  0  0  0  0  0  0  0  0  0  0  0
   57.5040   29.6530   44.9790 C   0  0  0  0  0  0  0  0  0  0  0  0
   58.7910   29.2810   45.2020 N   0  0  0  0  0  0  0  0  0  0  0  0
   59.1250   28.0560   45.6830 C   0  0  0  0  0  0  0  0  0  0  0  0
   60.3420   27.7830   45.8720 O   0  0  0  0  0  0  0  0  0  0  0  0
   58.1200   27.1140   45.9680 C   0  0  0  0  0  0  0  0  0  0  0  0
   58.4270   25.8430   46.4900 C   0  0  0  0  0  0  0  0  0  0  0  0
   59.4763   25.5664   46.6705 H   0  0  0  0  0  0  0  0  0  0  0  0
   57.4090   24.9290   46.7810 C   0  0  0  0  0  0  0  0  0  0  0  0
   57.7640   23.6460   47.3170 N   0  0  0  0  0  0  0  0  0  0  0  0
   57.4000   22.3720   46.7660 C   0  0  0  0  0  0  0  0  0  0  0  0
   57.2480   21.3980   47.5510 O   0  0  0  0  0  0  0  0  0  0  0  0
   57.1510   22.1830   45.3170 C   0  0  0  0  0  0  0  0  0  0  0  0
   57.9520   21.3100   44.5550 C   0  0  0  0  0  0  0  0  0  0  0  0
   58.7739   20.7606   45.0373 H   0  0  0  0  0  0  0  0  0  0  0  0
   57.7080   21.1380   43.1890 C   0  0  0  0  0  0  0  0  0  0  0  0
   58.3312   20.4467   42.6027 H   0  0  0  0  0  0  0  0  0  0  0  0
   56.6750   21.8420   42.5680 C   0  0  0  0  0  0  0  0  0  0  0  0
   56.4819   21.7017   41.4942 H   0  0  0  0  0  0  0  0  0  0  0  0
   55.8860   22.7250   43.3100 C   0  0  0  0  0  0  0  0  0  0  0  0
   55.0761   23.2838   42.8184 H   0  0  0  0  0  0  0  0  0  0  0  0
   56.1250   22.8990   44.6770 C   0  0  0  0  0  0  0  0  0  0  0  0
   55.5058   23.6009   45.2550 H   0  0  0  0  0  0  0  0  0  0  0  0
   56.0750   25.2660   46.5020 C   0  0  0  0  0  0  0  0  0  0  0  0
   55.2749   24.5363   46.6953 H   0  0  0  0  0  0  0  0  0  0  0  0
   55.7580   26.5210   45.9810 C   0  0  0  0  0  0  0  0  0  0  0  0
   54.7083   26.7782   45.7762 H   0  0  0  0  0  0  0  0  0  0  0  0
   56.7710   27.4590   45.7160 C   0  0  0  0  0  0  0  0  0  0  0  0
   56.4640   28.7310   45.2010 C   0  0  0  0  0  0  0  0  0  0  0  0
   55.1480   29.0690   44.8940 O   0  0  0  0  0  0  0  0  0  0  0  0
  1  2  1  0
  2  3  2  0
  3  4  1  0
  3  5  1  0
  5  6  2  0
  6  7  1  0
  6  8  1  0
  8  9  1  0
  8 10  2  0
 10 11  1  0
 11 12  1  0
 12 13  1  0
 12 14  1  0
 12 15  1  0
 10 16  1  0
 16 17  1  0
 16 18  2  0
 18 19  1  0
  2 20  1  0
 20 21  1  0
 21 22  1  0
 22 23  2  0
 22 24  1  0
 24 25  2  0
 25 26  1  0
 25 27  1  0
 27 28  1  0
 28 29  1  0
 29 30  2  0
 29 31  1  0
 31 32  2  0
 32 33  1  0
 32 34  1  0
 34 35  1  0
 34 36  2  0
 36 37  1  0
 36 38  1  0
 38 39  1  0
 38 40  2  0
 40 41  1  0
 27 42  2  0
 42 43  1  0
 42 44  1  0
 44 45  1  0
 44 46  2  0
 46 47  1  0
 47 48  1  0
 18  5  1  0
 47 20  2  0
 46 24  1  0
 40 31  1  0
M  CHG  3  21  -1  28  -1  48  -1
M  END
>  <UniqueID>  (29) 
28

>  <SMILES>  (29) 
COc1ccc(/C=C\c2[n-]c(=O)c3cc([N-]C(=O)c4ccccc4)ccc3c2[O-])cc1

>  <Energy>  (29) 
75.5091471479379

>  <Genealogy>  (29) 
COc1ccc(C=Cc2[n-]c(=O)c3cc([N-]C(=O)c4ccccc4)ccc3c2[O-])cc1 (protonated)
COc1ccc(/C=C\c2[n-]c(=O)c3cc([N-]C(=O)c4ccccc4)ccc3c2[O-])cc1 (cis-trans isomerization)
COc1ccc(/C=C\c2[n-]c(=O)c3cc([N-]C(=O)c4ccccc4)ccc3c2[O-])cc1 (3D coordinates assigned)
COc1ccc(/C=C\c2[n-]c(=O)c3cc([N-]C(=O)c4ccccc4)ccc3c2[O-])cc1 (optimized conformer: 75.5091471479379 kcal/mol)

>  <smiles>  (29) 
COc1ccc(C=Cc2[nH]c(=O)c3cc(NC(=O)c4ccccc4)ccc3c2O)cc1

>  <score_type>  (29) 
oracle

>  <origin>  (29) 
adg

>  <m_score__min__energy>  (29) 
-15.029999999999999

>  <m_primary>  (29) 
energy

$$$$
29:0
     RDKit          3D

 42 44  0  0  0  0  0  0  0  0999 V2000
   54.9630   26.1690   45.9910 N   0  0  0  0  0  0  0  0  0  0  0  0
   56.6480   25.8150   46.1260 S   0  0  0  0  0  0  0  0  0  0  0  0
   56.9980   25.5870   47.5700 O   0  0  0  0  0  0  0  0  0  0  0  0
   56.9620   24.5650   45.3520 O   0  0  0  0  0  0  0  0  0  0  0  0
   57.5870   27.1640   45.4960 C   0  0  0  0  0  0  0  0  0  0  0  0
   58.9810   27.1890   45.6410 C   0  0  0  0  0  0  0  0  0  0  0  0
   59.7150   28.2800   45.1660 C   0  0  0  0  0  0  0  0  0  0  0  0
   59.0610   29.3560   44.5600 C   0  0  0  0  0  0  0  0  0  0  0  0
   57.6680   29.3390   44.4080 C   0  0  0  0  0  0  0  0  0  0  0  0
   56.8320   30.7310   43.7210 S   0  0  0  0  0  0  0  0  0  0  0  0
   56.3990   30.4370   42.3120 O   0  0  0  0  0  0  0  0  0  0  0  0
   55.6240   31.0340   44.5600 O   0  0  0  0  0  0  0  0  0  0  0  0
   57.8800   32.1150   43.7110 N   0  0  0  0  0  0  0  0  0  0  0  0
   58.3110   32.8080   44.8890 C   0  0  0  0  0  0  0  0  0  0  0  0
   58.2360   32.1500   46.1230 C   0  0  0  0  0  0  0  0  0  0  0  0
   58.7740   32.7380   47.2710 C   0  0  0  0  0  0  0  0  0  0  0  0
   59.3730   34.0060   47.2030 C   0  0  0  0  0  0  0  0  0  0  0  0
   60.0730   34.5800   48.4030 C   0  0  0  0  0  0  0  0  0  0  0  0
   61.4840   34.0600   48.4620 C   0  0  0  0  0  0  0  0  0  0  0  0
   62.2090   34.1080   49.6630 C   0  0  0  0  0  0  0  0  0  0  0  0
   63.5370   33.6790   49.6840 C   0  0  0  0  0  0  0  0  0  0  0  0
   64.1260   33.2270   48.5450 N   0  0  0  0  0  0  0  0  0  0  0  0
   63.4520   33.1770   47.3660 C   0  0  0  0  0  0  0  0  0  0  0  0
   62.1210   33.5980   47.3000 C   0  0  0  0  0  0  0  0  0  0  0  0
   59.4050   34.6860   45.9760 C   0  0  0  0  0  0  0  0  0  0  0  0
   58.8700   34.0960   44.8280 C   0  0  0  0  0  0  0  0  0  0  0  0
   56.9390   28.2250   44.8520 C   0  0  0  0  0  0  0  0  0  0  0  0
   54.7980   27.0660   46.5040 H   0  0  0  0  0  0  0  0  0  0  0  0
   59.4979   26.3495   46.1289 H   0  0  0  0  0  0  0  0  0  0  0  0
   60.8101   28.2914   45.2696 H   0  0  0  0  0  0  0  0  0  0  0  0
   59.6413   30.2189   44.2012 H   0  0  0  0  0  0  0  0  0  0  0  0
   57.7510   31.1649   46.1890 H   0  0  0  0  0  0  0  0  0  0  0  0
   58.7280   32.2050   48.2321 H   0  0  0  0  0  0  0  0  0  0  0  0
   60.0903   35.6772   48.3265 H   0  0  0  0  0  0  0  0  0  0  0  0
   59.5359   34.2825   49.3157 H   0  0  0  0  0  0  0  0  0  0  0  0
   61.7335   34.4814   50.5819 H   0  0  0  0  0  0  0  0  0  0  0  0
   64.1081   33.7066   50.6237 H   0  0  0  0  0  0  0  0  0  0  0  0
   63.9552   32.8043   46.4616 H   0  0  0  0  0  0  0  0  0  0  0  0
   61.5768   33.5675   46.3445 H   0  0  0  0  0  0  0  0  0  0  0  0
   59.8536   35.6887   45.9176 H   0  0  0  0  0  0  0  0  0  0  0  0
   58.8864   34.6416   43.8730 H   0  0  0  0  0  0  0  0  0  0  0  0
   55.8513   28.1851   44.6930 H   0  0  0  0  0  0  0  0  0  0  0  0
  1  2  1  0
  2  3  2  0
  2  4  2  0
  2  5  1  0
  5  6  2  0
  6  7  1  0
  7  8  2  0
  8  9  1  0
  9 10  1  0
 10 11  2  0
 10 12  2  0
 10 13  1  0
 13 14  1  0
 14 15  2  0
 15 16  1  0
 16 17  2  0
 17 18  1  0
 18 19  1  0
 19 20  2  0
 20 21  1  0
 21 22  2  0
 22 23  1  0
 23 24  2  0
 17 25  1  0
 25 26  2  0
  9 27  2  0
 27  5  1  0
 26 14  1  0
 24 19  1  0
  1 28  1  0
  6 29  1  0
  7 30  1  0
  8 31  1  0
 15 32  1  0
 16 33  1  0
 18 34  1  0
 18 35  1  0
 20 36  1  0
 21 37  1  0
 23 38  1  0
 24 39  1  0
 25 40  1  0
 26 41  1  0
 27 42  1  0
M  CHG  2   1  -1  13  -1
M  END
>  <UniqueID>  (30) 
29

>  <SMILES>  (30) 
[NH-]S(=O)(=O)c1cccc(S(=O)(=O)[N-]c2ccc(Cc3ccncc3)cc2)c1

>  <Energy>  (30) 
45.48383989565499

>  <Genealogy>  (30) 
[NH-]S(=O)(=O)c1cccc(S(=O)(=O)[N-]c2ccc(Cc3ccncc3)cc2)c1 (protonated)
[NH-]S(=O)(=O)c1cccc(S(=O)(=O)[N-]c2ccc(Cc3ccncc3)cc2)c1 (3D coordinates assigned)
[NH-]S(=O)(=O)c1cccc(S(=O)(=O)[N-]c2ccc(Cc3ccncc3)cc2)c1 (optimized conformer: 45.48383989565499 kcal/mol)

>  <smiles>  (30) 
NS(=O)(=O)c1cccc(S(=O)(=O)Nc2ccc(Cc3ccncc3)cc2)c1

>  <score_type>  (30) 
oracle

>  <origin>  (30) 
adg

>  <m_score__min__energy>  (30) 
-14.08

>  <m_primary>  (30) 
energy

$$$$
30:0
     RDKit          3D

 35 36  0  0  0  0  0  0  0  0999 V2000
   58.6320   31.0930   44.3870 H   0  0  0  0  0  0  0  0  0  0  0  0
   59.2120   30.4610   44.9210 O   0  0  0  0  0  0  0  0  0  0  0  0
   58.7780   29.2080   45.3600 C   0  0  0  0  0  0  0  0  0  0  0  0
   59.7350   28.3290   45.8830 C   0  0  0  0  0  0  0  0  0  0  0  0
   60.7781   28.6609   45.9920 H   0  0  0  0  0  0  0  0  0  0  0  0
   59.3770   27.0360   46.2670 C   0  0  0  0  0  0  0  0  0  0  0  0
   60.1367   26.3539   46.6763 H   0  0  0  0  0  0  0  0  0  0  0  0
   58.0560   26.6080   46.1320 C   0  0  0  0  0  0  0  0  0  0  0  0
   57.7779   25.5836   46.4205 H   0  0  0  0  0  0  0  0  0  0  0  0
   57.0870   27.4790   45.6310 C   0  0  0  0  0  0  0  0  0  0  0  0
   56.0476   27.1348   45.5252 H   0  0  0  0  0  0  0  0  0  0  0  0
   57.4270   28.7930   45.2600 C   0  0  0  0  0  0  0  0  0  0  0  0
   56.3550   29.7040   44.8070 C   0  0  0  0  0  0  0  0  0  0  0  0
   55.1520   29.3350   44.8790 O   0  0  0  0  0  0  0  0  0  0  0  0
   56.6730   31.0550   44.4400 N   0  0  0  0  0  0  0  0  0  0  0  0
   56.8800   32.0260   45.2460 N   0  0  0  0  0  0  0  0  0  0  0  0
   57.7350   33.1590   45.0210 C   0  0  0  0  0  0  0  0  0  0  0  0
   58.5060   33.2100   44.0260 O   0  0  0  0  0  0  0  0  0  0  0  0
   57.8230   34.2250   46.0710 C   0  0  0  0  0  0  0  0  0  0  0  0
   57.1925   35.0748   45.7706 H   0  0  0  0  0  0  0  0  0  0  0  0
   57.4787   33.7979   47.0244 H   0  0  0  0  0  0  0  0  0  0  0  0
   59.2640   34.7160   46.2580 C   0  0  0  0  0  0  0  0  0  0  0  0
   59.6694   35.0108   45.2788 H   0  0  0  0  0  0  0  0  0  0  0  0
   59.2467   35.5689   46.9524 H   0  0  0  0  0  0  0  0  0  0  0  0
   60.1490   33.6470   46.8510 C   0  0  0  0  0  0  0  0  0  0  0  0
   61.5460   33.7340   46.7340 C   0  0  0  0  0  0  0  0  0  0  0  0
   62.0012   34.6041   46.2384 H   0  0  0  0  0  0  0  0  0  0  0  0
   62.3600   32.7190   47.2450 C   0  0  0  0  0  0  0  0  0  0  0  0
   63.4536   32.7928   47.1525 H   0  0  0  0  0  0  0  0  0  0  0  0
   61.7860   31.6110   47.8730 C   0  0  0  0  0  0  0  0  0  0  0  0
   62.4283   30.8148   48.2774 H   0  0  0  0  0  0  0  0  0  0  0  0
   60.3970   31.5130   47.9880 C   0  0  0  0  0  0  0  0  0  0  0  0
   59.9465   30.6396   48.4822 H   0  0  0  0  0  0  0  0  0  0  0  0
   59.5790   32.5250   47.4750 C   0  0  0  0  0  0  0  0  0  0  0  0
   58.4855   32.4419   47.5605 H   0  0  0  0  0  0  0  0  0  0  0  0
  1  2  1  0
  2  3  1  0
  3  4  2  0
  4  5  1  0
  4  6  1  0
  6  7  1  0
  6  8  2  0
  8  9  1  0
  8 10  1  0
 10 11  1  0
 10 12  2  0
 12 13  1  0
 13 14  2  0
 13 15  1  0
 15 16  2  0
 16 17  1  0
 17 18  2  0
 17 19  1  0
 19 20  1  0
 19 21  1  0
 19 22  1  0
 22 23  1  0
 22 24  1  0
 22 25  1  0
 25 26  2  0
 26 27  1  0
 26 28  1  0
 28 29  1  0
 28 30  2  0
 30 31  1  0
 30 32  1  0
 32 33  1  0
 32 34  2  0
 34 35  1  0
 12  3  1  0
 34 25  1  0
M  END
>  <UniqueID>  (31) 
30

>  <SMILES>  (31) 
O=C(CCc1ccccc1)/N=N\C(=O)c1ccccc1O

>  <Energy>  (31) 
46.6760960699998

>  <Genealogy>  (31) 
O=C(CCc1ccccc1)/N=N\C(=O)c1ccccc1O (cis-trans isomerization)
O=C(CCc1ccccc1)/N=N\C(=O)c1ccccc1O (3D coordinates assigned)
O=C(CCc1ccccc1)/N=N\C(=O)c1ccccc1O (optimized conformer: 46.6760960699998 kcal/mol)

>  <smiles>  (31) 
O=C(CCc1ccccc1)N=NC(=O)c1ccccc1O

>  <score_type>  (31) 
oracle

>  <origin>  (31) 
adg

>  <m_score__min__energy>  (31) 
-8.7100000000000009

>  <m_primary>  (31) 
energy

$$$$
31:0
     RDKit          3D

 50 54  0  0  1  0  0  0  0  0999 V2000
   58.0550   27.0840   42.9380 C   0  0  0  0  0  0  0  0  0  0  0  0
   57.7010   28.3870   43.4680 N   0  0  0  0  0  0  0  0  0  0  0  0
   56.7300   29.1810   42.7480 C   0  0  0  0  0  0  0  0  0  0  0  0
   56.6210   30.5810   43.2510 C   0  0  0  0  0  0  0  0  0  0  0  0
   57.8910   31.1020   43.8770 C   0  0  0  0  0  0  0  0  0  0  0  0
   58.4320   30.1840   44.9020 C   0  0  0  0  0  0  0  0  0  0  0  0
   59.0320   30.6130   46.0670 C   0  0  0  0  0  0  0  0  0  0  0  0
   59.5270   29.7120   47.0020 C   0  0  0  0  0  0  0  0  0  0  0  0
   60.1290   30.1700   48.1690 C   0  0  0  0  0  0  0  0  0  0  0  0
   60.2030   31.4250   48.3320 N   0  0  0  0  0  0  0  0  0  0  0  0
   61.3780   32.1350   48.0450 C   0  0  0  0  0  0  0  0  0  0  0  0
   62.5480   31.3850   47.8850 C   0  0  0  0  0  0  0  0  0  0  0  0
   63.7460   32.0010   47.6010 C   0  0  0  0  0  0  0  0  0  0  0  0
   63.7310   33.3750   47.4850 C   0  0  0  0  0  0  0  0  0  0  0  0
   62.6180   34.1160   47.6360 N   0  0  0  0  0  0  0  0  0  0  0  0
   61.4410   33.5120   47.9140 C   0  0  0  0  0  0  0  0  0  0  0  0
   60.2780   34.2460   48.0750 O   0  0  0  0  0  0  0  0  0  0  0  0
   59.3030   34.1840   47.0710 C   0  0  0  0  0  0  0  0  0  0  0  0
   59.5240   34.7240   45.8320 C   0  0  0  0  0  0  0  0  0  0  0  0
   58.5310   34.6420   44.8630 C   0  0  0  0  0  0  0  0  0  0  0  0
   57.3210   34.0120   45.1610 C   0  0  0  0  0  0  0  0  0  0  0  0
   57.0940   33.4640   46.4130 C   0  0  0  0  0  0  0  0  0  0  0  0
   58.0940   33.5530   47.3710 C   0  0  0  0  0  0  0  0  0  0  0  0
   60.6060   29.2900   49.0720 N   0  0  0  0  0  0  0  0  0  0  0  0
   60.4830   27.9770   48.8150 C   0  0  0  0  0  0  0  0  0  0  0  0
   59.8970   27.5120   47.6790 N   0  0  0  0  0  0  0  0  0  0  0  0
   59.4110   28.3530   46.7580 C   0  0  0  0  0  0  0  0  0  0  0  0
   58.8070   27.9370   45.5880 C   0  0  0  0  0  0  0  0  0  0  0  0
   58.3150   28.8240   44.6550 C   0  0  0  0  0  0  0  0  0  0  0  0
   58.2438   26.3889   43.7694 H   0  0  0  0  0  0  0  0  0  0  0  0
   57.2281   26.7020   42.3213 H   0  0  0  0  0  0  0  0  0  0  0  0
   58.9615   27.1729   42.3213 H   0  0  0  0  0  0  0  0  0  0  0  0
   57.0224   29.2129   41.6881 H   0  0  0  0  0  0  0  0  0  0  0  0
   55.7488   28.7057   42.8940 H   0  0  0  0  0  0  0  0  0  0  0  0
   56.3573   31.2339   42.4059 H   0  0  0  0  0  0  0  0  0  0  0  0
   55.8520   30.5806   44.0375 H   0  0  0  0  0  0  0  0  0  0  0  0
   58.6455   31.2342   43.0876 H   0  0  0  0  0  0  0  0  0  0  0  0
   57.6543   32.0554   44.3720 H   0  0  0  0  0  0  0  0  0  0  0  0
   59.1208   31.6922   46.2605 H   0  0  0  0  0  0  0  0  0  0  0  0
   62.5103   30.2904   47.9873 H   0  0  0  0  0  0  0  0  0  0  0  0
   64.6732   31.4233   47.4724 H   0  0  0  0  0  0  0  0  0  0  0  0
   64.6756   33.8908   47.2578 H   0  0  0  0  0  0  0  0  0  0  0  0
   60.4800   35.2188   45.6055 H   0  0  0  0  0  0  0  0  0  0  0  0
   58.6978   35.0721   43.8644 H   0  0  0  0  0  0  0  0  0  0  0  0
   56.5375   33.9500   44.3914 H   0  0  0  0  0  0  0  0  0  0  0  0
   56.1396   32.9680   46.6432 H   0  0  0  0  0  0  0  0  0  0  0  0
   57.9335   33.1245   48.3713 H   0  0  0  0  0  0  0  0  0  0  0  0
   61.0510   29.6700   49.9360 H   0  0  0  0  0  0  0  0  0  0  0  0
   60.8693   27.2536   49.5481 H   0  0  0  0  0  0  0  0  0  0  0  0
   58.7152   26.8582   45.3936 H   0  0  0  0  0  0  0  0  0  0  0  0
  1  2  1  0
  2  3  1  0
  3  4  1  0
  4  5  1  0
  5  6  1  0
  6  7  2  0
  7  8  1  0
  8  9  1  0
  9 10  2  0
 10 11  1  0
 11 12  2  0
 12 13  1  0
 13 14  2  0
 14 15  1  0
 15 16  2  0
 16 17  1  0
 17 18  1  0
 18 19  2  0
 19 20  1  0
 20 21  2  0
 21 22  1  0
 22 23  2  0
  9 24  1  0
 24 25  1  0
 25 26  2  0
 26 27  1  0
 27 28  1  0
 28 29  2  0
 29  2  1  0
 29  6  1  0
 27  8  2  0
 16 11  1  0
 23 18  1  0
  1 30  1  0
  1 31  1  0
  1 32  1  0
  3 33  1  0
  3 34  1  0
  4 35  1  0
  4 36  1  0
  5 37  1  0
  5 38  1  0
  7 39  1  0
 12 40  1  0
 13 41  1  0
 14 42  1  0
 19 43  1  0
 20 44  1  0
 21 45  1  0
 22 46  1  0
 23 47  1  0
 24 48  1  0
 25 49  1  0
 28 50  1  0
M  END
>  <smiles>  (32) 
CN1CCCc2cc3c(=Nc4cccnc4Oc4ccccc4)[nH]cnc3cc21

>  <score_type>  (32) 
oracle

>  <origin>  (32) 
adg

>  <m_score__min__energy>  (32) 
-8.8200000000000003

>  <m_primary>  (32) 
energy

$$$$
32:0
     RDKit          3D

 47 49  0  0  1  0  0  0  0  0999 V2000
   58.8150   32.0490   52.1990 C   0  0  0  0  0  0  0  0  0  0  0  0
   58.1760   31.2220   50.7800 S   0  0  0  0  0  0  0  0  0  0  0  0
   57.7890   32.2420   49.7380 O   0  0  0  0  0  0  0  0  0  0  0  0
   56.9430   30.4670   51.2540 O   0  0  0  0  0  0  0  0  0  0  0  0
   59.3030   30.1380   50.0550 N   0  0  0  0  0  0  0  0  0  0  0  0
   59.6350   30.1720   48.6710 C   0  0  0  0  0  0  0  0  0  0  0  0
   60.9750   30.4270   48.3610 C   0  0  0  0  0  0  0  0  0  0  0  0
   61.3240   30.4670   47.0370 C   0  0  0  0  0  0  0  0  0  0  0  0
   60.3970   30.2640   46.0150 C   0  0  0  0  0  0  0  0  0  0  0  0
   59.0520   30.0090   46.3290 C   0  0  0  0  0  0  0  0  0  0  0  0
   58.1370   29.8990   45.2230 C   0  0  0  0  0  0  0  0  0  0  0  0
   58.2240   28.7020   44.4920 C   0  0  0  0  0  0  0  0  0  0  0  0
   57.4980   28.4560   43.4070 N   0  0  0  0  0  0  0  0  0  0  0  0
   56.6330   29.3880   42.9750 C   0  0  0  0  0  0  0  0  0  0  0  0
   56.5380   30.5260   43.6570 N   0  0  0  0  0  0  0  0  0  0  0  0
   57.2570   30.8180   44.7690 C   0  0  0  0  0  0  0  0  0  0  0  0
   57.0360   31.8870   45.3470 N   0  0  0  0  0  0  0  0  0  0  0  0
   57.9140   32.9320   45.6000 C   0  0  0  0  0  0  0  0  0  0  0  0
   58.4450   33.4980   44.5690 O   0  0  0  0  0  0  0  0  0  0  0  0
   58.2730   33.4400   46.8760 N   0  0  0  0  0  0  0  0  0  0  0  0
   59.1730   34.5290   47.1110 C   0  0  0  0  0  0  0  0  0  0  0  0
   60.5430   34.1390   47.4880 C   0  0  0  0  0  0  0  0  0  0  0  0
   61.0070   34.0250   48.7720 C   0  0  0  0  0  0  0  0  0  0  0  0
   62.2990   33.6510   49.0850 C   0  0  0  0  0  0  0  0  0  0  0  0
   63.1600   33.3810   48.0450 C   0  0  0  0  0  0  0  0  0  0  0  0
   62.7410   33.4820   46.7450 C   0  0  0  0  0  0  0  0  0  0  0  0
   61.4330   33.8600   46.4430 C   0  0  0  0  0  0  0  0  0  0  0  0
   58.7430   29.9770   47.6600 C   0  0  0  0  0  0  0  0  0  0  0  0
   58.4374   31.5603   53.1093 H   0  0  0  0  0  0  0  0  0  0  0  0
   59.9139   32.0023   52.1867 H   0  0  0  0  0  0  0  0  0  0  0  0
   58.4925   33.1006   52.1867 H   0  0  0  0  0  0  0  0  0  0  0  0
   59.7960   29.3950   50.6180 H   0  0  0  0  0  0  0  0  0  0  0  0
   61.7218   30.5896   49.1521 H   0  0  0  0  0  0  0  0  0  0  0  0
   62.3725   30.6663   46.7705 H   0  0  0  0  0  0  0  0  0  0  0  0
   60.7190   30.3036   44.9639 H   0  0  0  0  0  0  0  0  0  0  0  0
   58.9285   27.9301   44.8354 H   0  0  0  0  0  0  0  0  0  0  0  0
   56.0183   29.2146   42.0794 H   0  0  0  0  0  0  0  0  0  0  0  0
   55.8450   31.2350   43.2840 H   0  0  0  0  0  0  0  0  0  0  0  0
   57.8140   32.9410   47.6980 H   0  0  0  0  0  0  0  0  0  0  0  0
   59.2307   35.1279   46.1901 H   0  0  0  0  0  0  0  0  0  0  0  0
   58.7654   35.0827   47.9697 H   0  0  0  0  0  0  0  0  0  0  0  0
   60.3135   34.2430   49.5976 H   0  0  0  0  0  0  0  0  0  0  0  0
   62.6295   33.5714   50.1311 H   0  0  0  0  0  0  0  0  0  0  0  0
   64.1960   33.0808   48.2607 H   0  0  0  0  0  0  0  0  0  0  0  0
   63.4450   33.2622   45.9289 H   0  0  0  0  0  0  0  0  0  0  0  0
   61.1041   33.9381   45.3962 H   0  0  0  0  0  0  0  0  0  0  0  0
   57.6965   29.7791   47.9352 H   0  0  0  0  0  0  0  0  0  0  0  0
  1  2  1  0
  2  3  2  0
  2  4  2  0
  2  5  1  0
  5  6  1  0
  6  7  2  0
  7  8  1  0
  8  9  2  0
  9 10  1  0
 10 11  1  0
 11 12  2  0
 12 13  1  0
 13 14  2  0
 14 15  1  0
 15 16  1  0
 16 17  2  0
 17 18  1  0
 18 19  2  0
 18 20  1  0
 20 21  1  0
 21 22  1  0
 22 23  2  0
 23 24  1  0
 24 25  2  0
 25 26  1  0
 26 27  2  0
 10 28  2  0
 28  6  1  0
 16 11  1  0
 27 22  1  0
  1 29  1  0
  1 30  1  0
  1 31  1  0
  5 32  1  0
  7 33  1  0
  8 34  1  0
  9 35  1  0
 12 36  1  0
 14 37  1  0
 15 38  1  0
 20 39  1  0
 21 40  1  0
 21 41  1  0
 23 42  1  0
 24 43  1  0
 25 44  1  0
 26 45  1  0
 27 46  1  0
 28 47  1  0
M  END
>  <smiles>  (33) 
CS(=O)(=O)Nc1cccc(-c2cnc[nH]c2=NC(=O)NCc2ccccc2)c1

>  <score_type>  (33) 
oracle

>  <origin>  (33) 
adg

>  <m_score__min__energy>  (33) 
-8.4199999999999999

>  <m_primary>  (33) 
energy

$$$$
33:0
     RDKit          3D

 48 50  0  0  0  0  0  0  0  0999 V2000
   65.1730   32.8830   49.8680 C   0  0  0  0  0  0  0  0  0  0  0  0
   64.0630   33.7720   49.7890 O   0  0  0  0  0  0  0  0  0  0  0  0
   63.1300   33.7800   48.7420 C   0  0  0  0  0  0  0  0  0  0  0  0
   61.7830   33.9940   49.0550 C   0  0  0  0  0  0  0  0  0  0  0  0
   60.8120   34.0030   48.0510 C   0  0  0  0  0  0  0  0  0  0  0  0
   61.1750   33.8000   46.7070 C   0  0  0  0  0  0  0  0  0  0  0  0
   60.2060   33.8200   45.6440 N   0  0  0  0  0  0  0  0  0  0  0  0
   58.5040   33.5630   45.8710 S   0  0  0  0  0  0  0  0  0  0  0  0
   58.2780   32.9180   47.2110 O   0  0  0  0  0  0  0  0  0  0  0  0
   57.7980   34.8880   45.8460 O   0  0  0  0  0  0  0  0  0  0  0  0
   57.8650   32.5540   44.5800 C   0  0  0  0  0  0  0  0  0  0  0  0
   58.2590   32.7690   43.2530 C   0  0  0  0  0  0  0  0  0  0  0  0
   57.7770   31.9420   42.2360 C   0  0  0  0  0  0  0  0  0  0  0  0
   56.8990   30.8960   42.5360 C   0  0  0  0  0  0  0  0  0  0  0  0
   56.4880   30.6750   43.8630 C   0  0  0  0  0  0  0  0  0  0  0  0
   55.5750   29.5540   44.1850 C   0  0  0  0  0  0  0  0  0  0  0  0
   54.5240   29.3930   43.5100 O   0  0  0  0  0  0  0  0  0  0  0  0
   55.8780   28.6170   45.2260 N   0  0  0  0  0  0  0  0  0  0  0  0
   57.1990   28.2370   45.6390 C   0  0  0  0  0  0  0  0  0  0  0  0
   57.8430   27.1120   45.0930 C   0  0  0  0  0  0  0  0  0  0  0  0
   59.1520   26.8010   45.4690 C   0  0  0  0  0  0  0  0  0  0  0  0
   59.8270   27.6060   46.3890 C   0  0  0  0  0  0  0  0  0  0  0  0
   59.1960   28.7290   46.9340 C   0  0  0  0  0  0  0  0  0  0  0  0
   60.0630   29.7560   48.1200 S   0  0  0  0  0  0  0  0  0  0  0  0
   61.1640   30.4780   46.8640 C   0  0  0  0  0  0  0  0  0  0  0  0
   57.8860   29.0460   46.5520 C   0  0  0  0  0  0  0  0  0  0  0  0
   56.9850   31.5080   44.8820 C   0  0  0  0  0  0  0  0  0  0  0  0
   62.5240   33.5770   46.3970 C   0  0  0  0  0  0  0  0  0  0  0  0
   63.4960   33.5720   47.4010 C   0  0  0  0  0  0  0  0  0  0  0  0
   65.4138   32.6901   50.9238 H   0  0  0  0  0  0  0  0  0  0  0  0
   64.9197   31.9351   49.3706 H   0  0  0  0  0  0  0  0  0  0  0  0
   66.0427   33.3372   49.3706 H   0  0  0  0  0  0  0  0  0  0  0  0
   61.4860   34.1567   50.1016 H   0  0  0  0  0  0  0  0  0  0  0  0
   59.7567   34.1699   48.3128 H   0  0  0  0  0  0  0  0  0  0  0  0
   60.5200   34.0560   44.6770 H   0  0  0  0  0  0  0  0  0  0  0  0
   58.9493   33.5907   43.0115 H   0  0  0  0  0  0  0  0  0  0  0  0
   58.0892   32.1141   41.1954 H   0  0  0  0  0  0  0  0  0  0  0  0
   56.5284   30.2437   41.7316 H   0  0  0  0  0  0  0  0  0  0  0  0
   57.3145   26.4754   44.3681 H   0  0  0  0  0  0  0  0  0  0  0  0
   59.6520   25.9203   45.0395 H   0  0  0  0  0  0  0  0  0  0  0  0
   60.8565   27.3566   46.6855 H   0  0  0  0  0  0  0  0  0  0  0  0
   61.9845   31.0160   47.3613 H   0  0  0  0  0  0  0  0  0  0  0  0
   61.5791   29.6762   46.2357 H   0  0  0  0  0  0  0  0  0  0  0  0
   60.5940   31.1783   46.2357 H   0  0  0  0  0  0  0  0  0  0  0  0
   57.3942   29.9359   46.9719 H   0  0  0  0  0  0  0  0  0  0  0  0
   56.6796   31.3360   45.9247 H   0  0  0  0  0  0  0  0  0  0  0  0
   62.8206   33.4041   45.3519 H   0  0  0  0  0  0  0  0  0  0  0  0
   64.5516   33.4046   47.1408 H   0  0  0  0  0  0  0  0  0  0  0  0
  1  2  1  0
  2  3  1  0
  3  4  2  0
  4  5  1  0
  5  6  2  0
  6  7  1  0
  7  8  1  0
  8  9  2  0
  8 10  2  0
  8 11  1  0
 11 12  2  0
 12 13  1  0
 13 14  2  0
 14 15  1  0
 15 16  1  0
 16 17  2  0
 16 18  1  0
 18 19  1  0
 19 20  2  0
 20 21  1  0
 21 22  2  0
 22 23  1  0
 23 24  1  0
 24 25  1  0
 23 26  2  0
 15 27  2  0
  6 28  1  0
 28 29  2  0
 29  3  1  0
 27 11  1  0
 26 19  1  0
  1 30  1  0
  1 31  1  0
  1 32  1  0
  4 33  1  0
  5 34  1  0
  7 35  1  0
 12 36  1  0
 13 37  1  0
 14 38  1  0
 20 39  1  0
 21 40  1  0
 22 41  1  0
 25 42  1  0
 25 43  1  0
 25 44  1  0
 26 45  1  0
 27 46  1  0
 28 47  1  0
 29 48  1  0
M  CHG  1  18  -1
M  END
>  <UniqueID>  (34) 
31

>  <SMILES>  (34) 
COc1ccc(NS(=O)(=O)c2cccc(C(=O)[N-]c3cccc(SC)c3)c2)cc1

>  <Energy>  (34) 
49.734756475523916

>  <Genealogy>  (34) 
COc1ccc(NS(=O)(=O)c2cccc(C(=O)[N-]c3cccc(SC)c3)c2)cc1 (protonated)
COc1ccc(NS(=O)(=O)c2cccc(C(=O)[N-]c3cccc(SC)c3)c2)cc1 (3D coordinates assigned)
COc1ccc(NS(=O)(=O)c2cccc(C(=O)[N-]c3cccc(SC)c3)c2)cc1 (optimized conformer: 49.734756475523916 kcal/mol)

>  <smiles>  (34) 
COc1ccc(NS(=O)(=O)c2cccc(C(=O)Nc3cccc(SC)c3)c2)cc1

>  <score_type>  (34) 
oracle

>  <origin>  (34) 
adg

>  <m_score__min__energy>  (34) 
-10.67

>  <m_primary>  (34) 
energy

$$$$
34:0
     RDKit          3D

 57 60  0  0  0  0  0  0  0  0999 V2000
   60.7140   32.0200   51.1180 H   0  0  0  0  0  0  0  0  0  0  0  0
   60.0360   32.3430   50.4680 O   0  0  0  0  0  0  0  0  0  0  0  0
   58.8600   31.6320   50.7420 C   0  0  0  0  0  0  0  0  0  0  0  0
   57.9905   32.2609   50.5002 H   0  0  0  0  0  0  0  0  0  0  0  0
   58.8439   31.3626   51.8084 H   0  0  0  0  0  0  0  0  0  0  0  0
   58.8070   30.3390   49.8940 C   0  0  0  0  0  0  0  0  0  0  0  0
   57.8813   30.3628   49.3003 H   0  0  0  0  0  0  0  0  0  0  0  0
   58.8567   29.5084   50.6134 H   0  0  0  0  0  0  0  0  0  0  0  0
   59.9450   30.1300   48.9570 N   0  0  1  0  0  0  0  0  0  0  0  0
   60.7320   30.7420   49.2810 H   0  0  0  0  0  0  0  0  0  0  0  0
   60.3700   28.7490   49.0080 C   0  0  0  0  0  0  0  0  0  0  0  0
   61.0330   28.2150   50.0490 C   0  0  0  0  0  0  0  0  0  0  0  0
   61.0423   27.1189   50.1409 H   0  0  0  0  0  0  0  0  0  0  0  0
   61.7470   28.9930   51.0740 C   0  0  0  0  0  0  0  0  0  0  0  0
   61.9830   30.2780   50.9640 O   0  0  0  0  0  0  0  0  0  0  0  0
   62.6520   30.6650   52.0250 C   0  0  0  0  0  0  0  0  0  0  0  0
   63.1640   32.3500   52.3270 S   0  0  0  0  0  0  0  0  0  0  0  0
   63.1510   32.7460   50.5790 C   0  0  0  0  0  0  0  0  0  0  0  0
   63.8190   31.9200   49.6680 C   0  0  0  0  0  0  0  0  0  0  0  0
   64.3409   31.0193   50.0236 H   0  0  0  0  0  0  0  0  0  0  0  0
   63.8240   32.2380   48.3060 C   0  0  0  0  0  0  0  0  0  0  0  0
   64.3601   31.5928   47.5944 H   0  0  0  0  0  0  0  0  0  0  0  0
   63.1470   33.3780   47.8440 C   0  0  0  0  0  0  0  0  0  0  0  0
   63.1950   33.7500   46.3920 C   0  0  0  0  0  0  0  0  0  0  0  0
   63.3352   34.8368   46.2964 H   0  0  0  0  0  0  0  0  0  0  0  0
   64.0332   33.2281   45.9073 H   0  0  0  0  0  0  0  0  0  0  0  0
   62.2517   33.4580   45.9073 H   0  0  0  0  0  0  0  0  0  0  0  0
   62.4900   34.2110   48.7640 C   0  0  0  0  0  0  0  0  0  0  0  0
   61.9774   35.1186   48.4126 H   0  0  0  0  0  0  0  0  0  0  0  0
   62.4850   33.8910   50.1250 C   0  0  0  0  0  0  0  0  0  0  0  0
   61.9573   34.5394   50.8399 H   0  0  0  0  0  0  0  0  0  0  0  0
   62.8850   29.5950   52.8620 C   0  0  0  0  0  0  0  0  0  0  0  0
   63.4219   29.6062   53.8220 H   0  0  0  0  0  0  0  0  0  0  0  0
   62.3040   28.5070   52.2440 C   0  0  0  0  0  0  0  0  0  0  0  0
   62.2870   27.4685   52.6061 H   0  0  0  0  0  0  0  0  0  0  0  0
   59.9200   28.0850   47.8040 C   0  0  0  0  0  0  0  0  0  0  0  0
   59.8280   26.8450   47.6050 O   0  0  0  0  0  0  0  0  0  0  0  0
   59.4290   29.0410   46.9440 O   0  0  0  0  0  0  0  0  0  0  0  0
   59.6880   30.3440   47.4790 C   0  0  2  0  0  0  0  0  0  0  0  0
   60.9970   30.8220   46.8000 C   0  0  0  0  0  0  0  0  0  0  0  0
   61.7333   31.0909   47.5717 H   0  0  0  0  0  0  0  0  0  0  0  0
   61.4013   30.0135   46.1732 H   0  0  0  0  0  0  0  0  0  0  0  0
   60.7852   31.7008   46.1732 H   0  0  0  0  0  0  0  0  0  0  0  0
   58.4950   31.2930   47.0880 C   0  0  0  0  0  0  0  0  0  0  0  0
   57.9843   30.8447   46.2230 H   0  0  0  0  0  0  0  0  0  0  0  0
   57.8829   31.3720   47.9986 H   0  0  0  0  0  0  0  0  0  0  0  0
   58.8450   32.7300   46.7210 C   0  0  0  0  0  0  0  0  0  0  0  0
   58.8940   33.1410   45.3710 C   0  0  0  0  0  0  0  0  0  0  0  0
   58.6406   32.4264   44.5741 H   0  0  0  0  0  0  0  0  0  0  0  0
   59.2620   34.4490   45.0380 C   0  0  0  0  0  0  0  0  0  0  0  0
   59.2656   34.7672   43.9850 H   0  0  0  0  0  0  0  0  0  0  0  0
   59.6250   35.3520   46.0410 C   0  0  0  0  0  0  0  0  0  0  0  0
   59.8957   36.3855   45.7791 H   0  0  0  0  0  0  0  0  0  0  0  0
   59.6440   34.9420   47.3760 C   0  0  0  0  0  0  0  0  0  0  0  0
   59.9494   35.6474   48.1629 H   0  0  0  0  0  0  0  0  0  0  0  0
   59.2750   33.6350   47.7140 C   0  0  0  0  0  0  0  0  0  0  0  0
   59.3207   33.3103   48.7640 H   0  0  0  0  0  0  0  0  0  0  0  0
  1  2  1  0
  2  3  1  0
  3  4  1  0
  3  5  1  0
  3  6  1  0
  6  7  1  0
  6  8  1  0
  6  9  1  0
  9 10  1  1
  9 11  1  0
 11 12  2  0
 12 13  1  0
 12 14  1  0
 14 15  1  0
 15 16  1  0
 16 17  1  0
 17 18  1  0
 18 19  2  0
 19 20  1  0
 19 21  1  0
 21 22  1  0
 21 23  2  0
 23 24  1  0
 24 25  1  0
 24 26  1  0
 24 27  1  0
 23 28  1  0
 28 29  1  0
 28 30  2  0
 30 31  1  0
 16 32  2  0
 32 33  1  0
 32 34  1  0
 34 35  1  0
 11 36  1  0
 36 37  2  0
 36 38  1  0
 38 39  1  0
 39 40  1  6
 40 41  1  0
 40 42  1  0
 40 43  1  0
 39 44  1  0
 44 45  1  0
 44 46  1  0
 44 47  1  0
 47 48  2  0
 48 49  1  0
 48 50  1  0
 50 51  1  0
 50 52  2  0
 52 53  1  0
 52 54  1  0
 54 55  1  0
 54 56  2  0
 56 57  1  0
 39  9  1  0
 56 47  1  0
 34 14  2  0
 30 18  1  0
M  CHG  1   9   1
M  END
>  <UniqueID>  (35) 
32

>  <SMILES>  (35) 
Cc1ccc(Sc2ccc(/C=C3\C(=O)O[C@@](C)(Cc4ccccc4)[N@H+]3CCO)o2)cc1

>  <Energy>  (35) 
123.06910908934995

>  <Genealogy>  (35) 
Cc1ccc(Sc2ccc(C=C3C(=O)OC(C)(Cc4ccccc4)[NH+]3CCO)o2)cc1 (protonated)
Cc1ccc(Sc2ccc(C=C3C(=O)O[C@@](C)(Cc4ccccc4)[N@H+]3CCO)o2)cc1 (chirality)
Cc1ccc(Sc2ccc(/C=C3\C(=O)O[C@@](C)(Cc4ccccc4)[N@H+]3CCO)o2)cc1 (cis-trans isomerization)
Cc1ccc(Sc2ccc(/C=C3\C(=O)O[C@@](C)(Cc4ccccc4)[N@H+]3CCO)o2)cc1 (3D coordinates assigned)
Cc1ccc(Sc2ccc(/C=C3\C(=O)O[C@@](C)(Cc4ccccc4)[N@H+]3CCO)o2)cc1 (nonaromatic ring conformer: 123.06910908934995 kcal/mol)

>  <smiles>  (35) 
Cc1ccc(Sc2ccc(C=C3C(=O)OC(C)(Cc4ccccc4)N3CCO)o2)cc1

>  <score_type>  (35) 
oracle

>  <origin>  (35) 
adg

>  <m_score__min__energy>  (35) 
-6.8099999999999996

>  <m_primary>  (35) 
energy

$$$$
35:0
     RDKit          3D

 56 59  0  0  0  0  0  0  0  0999 V2000
   56.2600   24.4660   44.6020 C   0  0  0  0  0  0  0  0  0  0  0  0
   56.0630   25.3990   46.1040 S   0  0  0  0  0  0  0  0  0  0  0  0
   54.8400   26.2650   45.9960 O   0  0  0  0  0  0  0  0  0  0  0  0
   55.8930   24.4630   47.2660 O   0  0  0  0  0  0  0  0  0  0  0  0
   57.4920   26.3960   46.3460 C   0  0  0  0  0  0  0  0  0  0  0  0
   57.7630   27.4490   45.4630 C   0  0  0  0  0  0  0  0  0  0  0  0
   58.8380   28.3080   45.7030 C   0  0  0  0  0  0  0  0  0  0  0  0
   59.6560   28.1210   46.8280 C   0  0  0  0  0  0  0  0  0  0  0  0
   60.6660   29.1710   47.2050 C   0  0  0  0  0  0  0  0  0  0  0  0
   60.0150   30.4270   47.4040 O   0  0  0  0  0  0  0  0  0  0  0  0
   59.8370   30.9770   48.6790 C   0  0  0  0  0  0  0  0  0  0  0  0
   60.5740   32.1020   49.0980 C   0  0  0  0  0  0  0  0  0  0  0  0
   61.6250   32.6890   48.2400 C   0  0  0  0  0  0  0  0  0  0  0  0
   62.9670   32.4670   48.5920 C   0  0  0  0  0  0  0  0  0  0  0  0
   63.9980   33.0450   47.8510 C   0  0  0  0  0  0  0  0  0  0  0  0
   63.7020   33.8470   46.7500 C   0  0  0  0  0  0  0  0  0  0  0  0
   62.3740   34.0610   46.3760 C   0  0  0  0  0  0  0  0  0  0  0  0
   61.3210   33.4750   47.1000 C   0  0  0  0  0  0  0  0  0  0  0  0
   59.6550   33.7260   46.5400 S   0  0  0  0  0  0  0  0  0  0  0  0
   58.9930   32.2600   45.9000 N   0  0  0  0  0  0  0  0  0  0  0  0
   58.7830   34.1620   47.6830 O   0  0  0  0  0  0  0  0  0  0  0  0
   59.6380   34.7800   45.4700 O   0  0  0  0  0  0  0  0  0  0  0  0
   60.2750   32.7010   50.3290 C   0  0  0  0  0  0  0  0  0  0  0  0
   59.2670   32.1800   51.1430 C   0  0  0  0  0  0  0  0  0  0  0  0
   58.5530   31.0370   50.7500 C   0  0  0  0  0  0  0  0  0  0  0  0
   57.4530   30.5220   51.5960 C   0  0  0  0  0  0  0  0  0  0  0  0
   57.5960   29.3450   52.3440 C   0  0  0  0  0  0  0  0  0  0  0  0
   56.5650   28.8870   53.0990 N   0  0  0  0  0  0  0  0  0  0  0  0
   55.3800   29.5520   53.1450 C   0  0  0  0  0  0  0  0  0  0  0  0
   54.4060   29.1020   53.8670 N   0  0  0  0  0  0  0  0  0  0  0  0
   55.2180   30.6960   52.4310 N   0  0  0  0  0  0  0  0  0  0  0  0
   56.2240   31.1920   51.6660 C   0  0  0  0  0  0  0  0  0  0  0  0
   58.8630   30.4260   49.5220 C   0  0  0  0  0  0  0  0  0  0  0  0
   58.1530   29.3500   49.0920 F   0  0  0  0  0  0  0  0  0  0  0  0
   59.3940   27.0540   47.7010 C   0  0  0  0  0  0  0  0  0  0  0  0
   58.3190   26.1950   47.4600 C   0  0  0  0  0  0  0  0  0  0  0  0
   56.4815   23.4171   44.8483 H   0  0  0  0  0  0  0  0  0  0  0  0
   55.3314   24.5165   44.0145 H   0  0  0  0  0  0  0  0  0  0  0  0
   57.0889   24.8876   44.0145 H   0  0  0  0  0  0  0  0  0  0  0  0
   57.1274   27.5999   44.5780 H   0  0  0  0  0  0  0  0  0  0  0  0
   59.0443   29.1346   45.0072 H   0  0  0  0  0  0  0  0  0  0  0  0
   61.1724   28.8720   48.1346 H   0  0  0  0  0  0  0  0  0  0  0  0
   61.4025   29.2708   46.3940 H   0  0  0  0  0  0  0  0  0  0  0  0
   63.2065   31.8328   49.4583 H   0  0  0  0  0  0  0  0  0  0  0  0
   65.0456   32.8677   48.1358 H   0  0  0  0  0  0  0  0  0  0  0  0
   64.5161   34.3121   46.1748 H   0  0  0  0  0  0  0  0  0  0  0  0
   62.1492   34.6949   45.5056 H   0  0  0  0  0  0  0  0  0  0  0  0
   59.7910   31.6480   45.6180 H   0  0  0  0  0  0  0  0  0  0  0  0
   58.4870   31.7790   46.6780 H   0  0  0  0  0  0  0  0  0  0  0  0
   60.8380   33.5875   50.6563 H   0  0  0  0  0  0  0  0  0  0  0  0
   59.0306   32.6690   52.0996 H   0  0  0  0  0  0  0  0  0  0  0  0
   58.5461   28.7912   52.3191 H   0  0  0  0  0  0  0  0  0  0  0  0
   54.5700   28.7040   54.8180 H   0  0  0  0  0  0  0  0  0  0  0  0
   56.0740   32.1228   51.0993 H   0  0  0  0  0  0  0  0  0  0  0  0
   60.0376   26.8934   48.5785 H   0  0  0  0  0  0  0  0  0  0  0  0
   58.1209   25.3585   48.1463 H   0  0  0  0  0  0  0  0  0  0  0  0
  1  2  1  0
  2  3  2  0
  2  4  2  0
  2  5  1  0
  5  6  2  0
  6  7  1  0
  7  8  2  0
  8  9  1  0
  9 10  1  0
 10 11  1  0
 11 12  1  0
 12 13  1  0
 13 14  2  0
 14 15  1  0
 15 16  2  0
 16 17  1  0
 17 18  2  0
 18 19  1  0
 19 20  1  0
 19 21  2  0
 19 22  2  0
 12 23  2  0
 23 24  1  0
 24 25  2  0
 25 26  1  0
 26 27  1  0
 27 28  2  0
 28 29  1  0
 29 30  2  3
 29 31  1  0
 31 32  1  0
 25 33  1  0
 33 34  1  0
  8 35  1  0
 35 36  2  0
 36  5  1  0
 33 11  2  0
 18 13  1  0
 32 26  2  0
  1 37  1  0
  1 38  1  0
  1 39  1  0
  6 40  1  0
  7 41  1  0
  9 42  1  0
  9 43  1  0
 14 44  1  0
 15 45  1  0
 16 46  1  0
 17 47  1  0
 20 48  1  0
 20 49  1  0
 23 50  1  0
 24 51  1  0
 27 52  1  0
 30 53  1  0
 32 54  1  0
 35 55  1  0
 36 56  1  0
M  CHG  1  31  -1
M  END
>  <UniqueID>  (36) 
33

>  <SMILES>  (36) 
CS(=O)(=O)c1ccc(COc2c(-c3ccccc3S(N)(=O)=O)ccc(-c3cnc(=N)[n-]c3)c2F)cc1

>  <Energy>  (36) 
75.60727972588317

>  <Genealogy>  (36) 
CS(=O)(=O)c1ccc(COc2c(-c3ccccc3S(N)(=O)=O)ccc(-c3cnc(=N)[n-]c3)c2F)cc1 (protonated)
CS(=O)(=O)c1ccc(COc2c(-c3ccccc3S(N)(=O)=O)ccc(-c3cnc(=N)[n-]c3)c2F)cc1 (3D coordinates assigned)
CS(=O)(=O)c1ccc(COc2c(-c3ccccc3S(N)(=O)=O)ccc(-c3cnc(=N)[n-]c3)c2F)cc1 (optimized conformer: 75.60727972588317 kcal/mol)

>  <smiles>  (36) 
CS(=O)(=O)c1ccc(COc2c(-c3ccccc3S(N)(=O)=O)ccc(-c3cnc(=N)[nH]c3)c2F)cc1

>  <score_type>  (36) 
oracle

>  <origin>  (36) 
adg

>  <m_score__min__energy>  (36) 
-11.210000000000001

>  <m_primary>  (36) 
energy

$$$$
36:0
     RDKit          3D

 49 52  0  0  0  0  0  0  0  0999 V2000
   65.4590   32.1350   50.1930 C   0  0  0  0  0  0  0  0  0  0  0  0
   65.1430   33.2340   49.3440 O   0  0  0  0  0  0  0  0  0  0  0  0
   63.8860   33.4480   48.7610 C   0  0  0  0  0  0  0  0  0  0  0  0
   63.7460   33.2410   47.3840 C   0  0  0  0  0  0  0  0  0  0  0  0
   62.5110   33.4340   46.7580 C   0  0  0  0  0  0  0  0  0  0  0  0
   61.4000   33.8400   47.5060 C   0  0  0  0  0  0  0  0  0  0  0  0
   59.8340   34.0650   46.7330 S   0  0  0  0  0  0  0  0  0  0  0  0
   59.1740   35.2820   47.3200 O   0  0  0  0  0  0  0  0  0  0  0  0
   59.9950   34.2800   45.2550 O   0  0  0  0  0  0  0  0  0  0  0  0
   58.8390   32.6790   47.0280 N   0  0  0  0  0  0  0  0  0  0  0  0
   59.0690   31.7920   48.1350 C   0  0  0  0  0  0  0  0  0  0  0  0
   58.4890   32.0730   49.3850 C   0  0  0  0  0  0  0  0  0  0  0  0
   58.7750   31.2790   50.4960 C   0  0  0  0  0  0  0  0  0  0  0  0
   59.6590   30.2090   50.3800 C   0  0  0  0  0  0  0  0  0  0  0  0
   59.9570   29.4560   51.4680 F   0  0  0  0  0  0  0  0  0  0  0  0
   60.2400   29.9110   49.1460 C   0  0  0  0  0  0  0  0  0  0  0  0
   59.9210   30.6680   47.9990 C   0  0  0  0  0  0  0  0  0  0  0  0
   60.5130   30.3050   46.6470 C   0  0  0  0  0  0  0  0  0  0  0  0
   59.6530   29.3530   45.8420 C   0  0  0  0  0  0  0  0  0  0  0  0
   59.8580   27.9680   45.9560 C   0  0  0  0  0  0  0  0  0  0  0  0
   59.0780   27.0700   45.2230 C   0  0  0  0  0  0  0  0  0  0  0  0
   58.0800   27.5390   44.3670 C   0  0  0  0  0  0  0  0  0  0  0  0
   57.8550   28.9150   44.2410 C   0  0  0  0  0  0  0  0  0  0  0  0
   56.8510   29.4080   43.3980 C   0  0  0  0  0  0  0  0  0  0  0  0
   56.6360   30.7830   43.3020 C   0  0  0  0  0  0  0  0  0  0  0  0
   57.4300   31.6550   44.0480 C   0  0  0  0  0  0  0  0  0  0  0  0
   58.4080   31.1680   44.8560 N   0  0  0  0  0  0  0  0  0  0  0  0
   58.6450   29.8310   44.9780 C   0  0  0  0  0  0  0  0  0  0  0  0
   61.5300   34.0410   48.8860 C   0  0  0  0  0  0  0  0  0  0  0  0
   62.7660   33.8550   49.5120 C   0  0  0  0  0  0  0  0  0  0  0  0
   65.3695   32.4462   51.2443 H   0  0  0  0  0  0  0  0  0  0  0  0
   64.7626   31.3068   49.9952 H   0  0  0  0  0  0  0  0  0  0  0  0
   66.4889   31.8032   49.9952 H   0  0  0  0  0  0  0  0  0  0  0  0
   64.6152   32.9237   46.7891 H   0  0  0  0  0  0  0  0  0  0  0  0
   62.4123   33.2664   45.6753 H   0  0  0  0  0  0  0  0  0  0  0  0
   57.9700   32.5810   46.4580 H   0  0  0  0  0  0  0  0  0  0  0  0
   57.8033   32.9270   49.4877 H   0  0  0  0  0  0  0  0  0  0  0  0
   58.3018   31.4983   51.4645 H   0  0  0  0  0  0  0  0  0  0  0  0
   60.9536   29.0776   49.0672 H   0  0  0  0  0  0  0  0  0  0  0  0
   60.6449   31.2297   46.0660 H   0  0  0  0  0  0  0  0  0  0  0  0
   61.4664   29.7916   46.8407 H   0  0  0  0  0  0  0  0  0  0  0  0
   60.6402   27.5867   46.6289 H   0  0  0  0  0  0  0  0  0  0  0  0
   59.2512   25.9881   45.3209 H   0  0  0  0  0  0  0  0  0  0  0  0
   57.4702   26.8272   43.7913 H   0  0  0  0  0  0  0  0  0  0  0  0
   56.2327   28.7118   42.8123 H   0  0  0  0  0  0  0  0  0  0  0  0
   55.8473   31.1765   42.6439 H   0  0  0  0  0  0  0  0  0  0  0  0
   57.2636   32.7403   43.9817 H   0  0  0  0  0  0  0  0  0  0  0  0
   60.6558   34.3465   49.4797 H   0  0  0  0  0  0  0  0  0  0  0  0
   62.8642   34.0269   50.5940 H   0  0  0  0  0  0  0  0  0  0  0  0
  1  2  1  0
  2  3  1  0
  3  4  2  0
  4  5  1  0
  5  6  2  0
  6  7  1  0
  7  8  2  0
  7  9  2  0
  7 10  1  0
 10 11  1  0
 11 12  2  0
 12 13  1  0
 13 14  2  0
 14 15  1  0
 14 16  1  0
 16 17  2  0
 17 18  1  0
 18 19  1  0
 19 20  2  0
 20 21  1  0
 21 22  2  0
 22 23  1  0
 23 24  2  0
 24 25  1  0
 25 26  2  0
 26 27  1  0
 27 28  2  0
  6 29  1  0
 29 30  2  0
 30  3  1  0
 17 11  1  0
 28 19  1  0
 28 23  1  0
  1 31  1  0
  1 32  1  0
  1 33  1  0
  4 34  1  0
  5 35  1  0
 10 36  1  0
 12 37  1  0
 13 38  1  0
 16 39  1  0
 18 40  1  0
 18 41  1  0
 20 42  1  0
 21 43  1  0
 22 44  1  0
 24 45  1  0
 25 46  1  0
 26 47  1  0
 29 48  1  0
 30 49  1  0
M  END
>  <UniqueID>  (37) 
34

>  <SMILES>  (37) 
COc1ccc(S(=O)(=O)Nc2ccc(F)cc2Cc2cccc3cccnc23)cc1

>  <Energy>  (37) 
61.417522212699666

>  <Genealogy>  (37) 
COc1ccc(S(=O)(=O)Nc2ccc(F)cc2Cc2cccc3cccnc23)cc1 (3D coordinates assigned)
COc1ccc(S(=O)(=O)Nc2ccc(F)cc2Cc2cccc3cccnc23)cc1 (optimized conformer: 61.417522212699666 kcal/mol)

>  <smiles>  (37) 
COc1ccc(S(=O)(=O)Nc2ccc(F)cc2Cc2cccc3cccnc23)cc1

>  <score_type>  (37) 
oracle

>  <origin>  (37) 
adg

>  <m_score__min__energy>  (37) 
-8.5899999999999999

>  <m_primary>  (37) 
energy

$$$$
37:0
     RDKit          3D

 50 52  0  0  0  0  0  0  0  0999 V2000
   57.3320   25.5160   44.3140 N   0  0  0  0  0  0  0  0  0  0  0  0
   56.9680   26.5960   45.6150 S   0  0  0  0  0  0  0  0  0  0  0  0
   57.8370   26.2680   46.7970 O   0  0  0  0  0  0  0  0  0  0  0  0
   55.5290   26.4300   46.0150 O   0  0  0  0  0  0  0  0  0  0  0  0
   57.2580   28.2570   45.1070 C   0  0  0  0  0  0  0  0  0  0  0  0
   58.5680   28.7310   44.9600 C   0  0  0  0  0  0  0  0  0  0  0  0
   58.7980   30.0540   44.5680 C   0  0  0  0  0  0  0  0  0  0  0  0
   57.7160   30.9150   44.3100 C   0  0  0  0  0  0  0  0  0  0  0  0
   57.9100   32.2850   43.9350 N   0  0  0  0  0  0  0  0  0  0  0  0
   57.7140   33.4270   44.7790 C   0  0  0  0  0  0  0  0  0  0  0  0
   56.6790   33.5330   45.4890 O   0  0  0  0  0  0  0  0  0  0  0  0
   58.7900   34.4630   44.8780 C   0  0  0  0  0  0  0  0  0  0  0  0
   59.9030   33.9560   45.6100 O   0  0  0  0  0  0  0  0  0  0  0  0
   60.2870   34.4410   46.8660 C   0  0  0  0  0  0  0  0  0  0  0  0
   59.5730   35.3020   47.4500 O   0  0  0  0  0  0  0  0  0  0  0  0
   61.5200   33.9340   47.5220 C   0  0  0  0  0  0  0  0  0  0  0  0
   62.5970   33.5020   46.7240 C   0  0  0  0  0  0  0  0  0  0  0  0
   63.7790   33.0460   47.3070 C   0  0  0  0  0  0  0  0  0  0  0  0
   63.9060   33.0140   48.6940 C   0  0  0  0  0  0  0  0  0  0  0  0
   62.8480   33.4300   49.5040 C   0  0  0  0  0  0  0  0  0  0  0  0
   61.6430   33.8860   48.9320 C   0  0  0  0  0  0  0  0  0  0  0  0
   60.5530   34.2760   49.7320 O   0  0  0  0  0  0  0  0  0  0  0  0
   59.6120   33.3950   50.3440 C   0  0  0  0  0  0  0  0  0  0  0  0
   59.4420   32.1460   49.5230 C   0  0  0  0  0  0  0  0  0  0  0  0
   58.6710   32.1590   48.3490 C   0  0  0  0  0  0  0  0  0  0  0  0
   58.5180   30.9930   47.5930 C   0  0  0  0  0  0  0  0  0  0  0  0
   59.1280   29.8050   48.0050 C   0  0  0  0  0  0  0  0  0  0  0  0
   59.8890   29.7790   49.1790 C   0  0  0  0  0  0  0  0  0  0  0  0
   60.6530   28.2880   49.6990 Cl  0  0  0  0  0  0  0  0  0  0  0  0
   60.0410   30.9440   49.9390 C   0  0  0  0  0  0  0  0  0  0  0  0
   56.4090   30.4430   44.4880 C   0  0  0  0  0  0  0  0  0  0  0  0
   56.1790   29.1210   44.8790 C   0  0  0  0  0  0  0  0  0  0  0  0
   56.9680   25.9580   43.4400 H   0  0  0  0  0  0  0  0  0  0  0  0
   58.3720   25.4830   44.2240 H   0  0  0  0  0  0  0  0  0  0  0  0
   59.4185   28.0608   45.1534 H   0  0  0  0  0  0  0  0  0  0  0  0
   59.8289   30.4224   44.4611 H   0  0  0  0  0  0  0  0  0  0  0  0
   59.1186   34.7419   43.8660 H   0  0  0  0  0  0  0  0  0  0  0  0
   58.3899   35.3436   45.4020 H   0  0  0  0  0  0  0  0  0  0  0  0
   62.5048   33.5245   45.6281 H   0  0  0  0  0  0  0  0  0  0  0  0
   64.6118   32.7113   46.6711 H   0  0  0  0  0  0  0  0  0  0  0  0
   64.8417   32.6603   49.1516 H   0  0  0  0  0  0  0  0  0  0  0  0
   62.9555   33.4017   50.5984 H   0  0  0  0  0  0  0  0  0  0  0  0
   59.9722   33.1218   51.3468 H   0  0  0  0  0  0  0  0  0  0  0  0
   58.6411   33.9074   50.4140 H   0  0  0  0  0  0  0  0  0  0  0  0
   58.1855   33.0907   48.0230 H   0  0  0  0  0  0  0  0  0  0  0  0
   57.9164   31.0107   46.6722 H   0  0  0  0  0  0  0  0  0  0  0  0
   59.0098   28.8899   47.4061 H   0  0  0  0  0  0  0  0  0  0  0  0
   60.6320   30.9193   50.8664 H   0  0  0  0  0  0  0  0  0  0  0  0
   55.5572   31.1181   44.3187 H   0  0  0  0  0  0  0  0  0  0  0  0
   55.1486   28.7582   45.0080 H   0  0  0  0  0  0  0  0  0  0  0  0
  1  2  1  0
  2  3  2  0
  2  4  2  0
  2  5  1  0
  5  6  2  0
  6  7  1  0
  7  8  2  0
  8  9  1  0
  9 10  1  0
 10 11  2  0
 10 12  1  0
 12 13  1  0
 13 14  1  0
 14 15  2  0
 14 16  1  0
 16 17  2  0
 17 18  1  0
 18 19  2  0
 19 20  1  0
 20 21  2  0
 21 22  1  0
 22 23  1  0
 23 24  1  0
 24 25  2  0
 25 26  1  0
 26 27  2  0
 27 28  1  0
 28 29  1  0
 28 30  2  0
  8 31  1  0
 31 32  2  0
 32  5  1  0
 21 16  1  0
 30 24  1  0
  1 33  1  0
  1 34  1  0
  6 35  1  0
  7 36  1  0
 12 37  1  0
 12 38  1  0
 17 39  1  0
 18 40  1  0
 19 41  1  0
 20 42  1  0
 23 43  1  0
 23 44  1  0
 25 45  1  0
 26 46  1  0
 27 47  1  0
 30 48  1  0
 31 49  1  0
 32 50  1  0
M  CHG  1   9  -1
M  END
>  <UniqueID>  (38) 
35

>  <SMILES>  (38) 
NS(=O)(=O)c1ccc([N-]C(=O)COC(=O)c2ccccc2OCc2cccc(Cl)c2)cc1

>  <Energy>  (38) 
53.342616712608674

>  <Genealogy>  (38) 
NS(=O)(=O)c1ccc([N-]C(=O)COC(=O)c2ccccc2OCc2cccc(Cl)c2)cc1 (protonated)
NS(=O)(=O)c1ccc([N-]C(=O)COC(=O)c2ccccc2OCc2cccc(Cl)c2)cc1 (3D coordinates assigned)
NS(=O)(=O)c1ccc([N-]C(=O)COC(=O)c2ccccc2OCc2cccc(Cl)c2)cc1 (optimized conformer: 53.342616712608674 kcal/mol)

>  <smiles>  (38) 
NS(=O)(=O)c1ccc(NC(=O)COC(=O)c2ccccc2OCc2cccc(Cl)c2)cc1

>  <score_type>  (38) 
oracle

>  <origin>  (38) 
adg

>  <m_score__min__energy>  (38) 
-11.84

>  <m_primary>  (38) 
energy

$$$$
38:0
     RDKit          3D

 52 55  0  0  0  0  0  0  0  0999 V2000
   58.1290   21.3860   43.9020 C   0  0  0  0  0  0  0  0  0  0  0  0
   58.5110   22.1540   45.4590 S   0  0  0  0  0  0  0  0  0  0  0  0
   60.0000   22.3140   45.5890 O   0  0  0  0  0  0  0  0  0  0  0  0
   58.0210   21.2840   46.5820 O   0  0  0  0  0  0  0  0  0  0  0  0
   57.7330   23.7300   45.5400 C   0  0  0  0  0  0  0  0  0  0  0  0
   56.4150   23.8440   46.0460 C   0  0  0  0  0  0  0  0  0  0  0  0
   55.7760   25.0970   46.1060 C   0  0  0  0  0  0  0  0  0  0  0  0
   56.4760   26.2080   45.6440 C   0  0  0  0  0  0  0  0  0  0  0  0
   56.0550   27.4880   45.6250 N   0  0  0  0  0  0  0  0  0  0  0  0
   57.0760   28.1990   45.0850 C   0  0  0  0  0  0  0  0  0  0  0  0
   58.1470   27.3720   44.8080 C   0  0  0  0  0  0  0  0  0  0  0  0
   57.7510   26.0980   45.1470 C   0  0  0  0  0  0  0  0  0  0  0  0
   58.4140   24.8750   45.0790 C   0  0  0  0  0  0  0  0  0  0  0  0
   59.4470   27.8520   44.2680 C   0  0  0  0  0  0  0  0  0  0  0  0
   59.5780   29.3500   44.5820 C   0  0  0  0  0  0  0  0  0  0  0  0
   58.3700   30.1090   44.1520 N   0  0  2  0  0  0  0  0  0  0  0  0
   58.6520   31.5740   44.1760 C   0  0  0  0  0  0  0  0  0  0  0  0
   58.6790   32.1850   45.5640 C   0  0  0  0  0  0  0  0  0  0  0  0
   58.4740   33.5640   45.7350 C   0  0  0  0  0  0  0  0  0  0  0  0
   58.4840   34.1250   47.0130 C   0  0  0  0  0  0  0  0  0  0  0  0
   58.7180   33.3210   48.1310 C   0  0  0  0  0  0  0  0  0  0  0  0
   58.9720   31.9470   47.9780 C   0  0  0  0  0  0  0  0  0  0  0  0
   59.1850   31.0690   49.1860 C   0  0  0  0  0  0  0  0  0  0  0  0
   58.5860   29.8420   48.9670 F   0  0  0  0  0  0  0  0  0  0  0  0
   60.5360   30.8770   49.4160 F   0  0  0  0  0  0  0  0  0  0  0  0
   58.6320   31.6450   50.3170 F   0  0  0  0  0  0  0  0  0  0  0  0
   58.9360   31.3850   46.6910 C   0  0  0  0  0  0  0  0  0  0  0  0
   57.1380   29.7080   44.9180 C   0  0  1  0  0  0  0  0  0  0  0  0
   55.8460   30.1970   44.2160 C   0  0  0  0  0  0  0  0  0  0  0  0
   54.7840   29.3270   44.4890 O   0  0  0  0  0  0  0  0  0  0  0  0
   57.6457   20.4143   44.0813 H   0  0  0  0  0  0  0  0  0  0  0  0
   57.4483   22.0342   43.3306 H   0  0  0  0  0  0  0  0  0  0  0  0
   59.0566   21.2343   43.3306 H   0  0  0  0  0  0  0  0  0  0  0  0
   55.8858   22.9452   46.3953 H   0  0  0  0  0  0  0  0  0  0  0  0
   54.7558   25.1950   46.5054 H   0  0  0  0  0  0  0  0  0  0  0  0
   55.1400   27.8440   45.9800 H   0  0  0  0  0  0  0  0  0  0  0  0
   59.4361   24.8048   44.6785 H   0  0  0  0  0  0  0  0  0  0  0  0
   60.2725   27.2996   44.7407 H   0  0  0  0  0  0  0  0  0  0  0  0
   59.4888   27.6882   43.1811 H   0  0  0  0  0  0  0  0  0  0  0  0
   59.7119   29.4769   45.6664 H   0  0  0  0  0  0  0  0  0  0  0  0
   60.4449   29.7423   44.0302 H   0  0  0  0  0  0  0  0  0  0  0  0
   58.2080   29.8670   43.1450 H   0  0  0  0  0  0  0  0  0  0  0  0
   59.6323   31.7432   43.7066 H   0  0  0  0  0  0  0  0  0  0  0  0
   57.8273   32.0610   43.6350 H   0  0  0  0  0  0  0  0  0  0  0  0
   58.3047   34.2051   44.8573 H   0  0  0  0  0  0  0  0  0  0  0  0
   58.3071   35.2032   47.1401 H   0  0  0  0  0  0  0  0  0  0  0  0
   58.7034   33.7657   49.1370 H   0  0  0  0  0  0  0  0  0  0  0  0
   59.1109   30.3065   46.5637 H   0  0  0  0  0  0  0  0  0  0  0  0
   57.2030   30.1852   45.9070 H   0  0  0  0  0  0  0  0  0  0  0  0
   55.5934   31.2033   44.5814 H   0  0  0  0  0  0  0  0  0  0  0  0
   56.0172   30.2217   43.1297 H   0  0  0  0  0  0  0  0  0  0  0  0
   54.1370   29.4340   43.7430 H   0  0  0  0  0  0  0  0  0  0  0  0
  1  2  1  0
  2  3  2  0
  2  4  2  0
  2  5  1  0
  5  6  2  0
  6  7  1  0
  7  8  2  0
  8  9  1  0
  9 10  1  0
 10 11  2  0
 11 12  1  0
 12 13  2  0
 11 14  1  0
 14 15  1  0
 15 16  1  0
 16 17  1  0
 17 18  1  0
 18 19  2  0
 19 20  1  0
 20 21  2  0
 21 22  1  0
 22 23  1  0
 23 24  1  0
 23 25  1  0
 23 26  1  0
 22 27  2  0
 16 28  1  0
 28 29  1  0
 29 30  1  0
 13  5  1  0
 27 18  1  0
 12  8  1  0
 28 10  1  0
  1 31  1  0
  1 32  1  0
  1 33  1  0
  6 34  1  0
  7 35  1  0
  9 36  1  0
 13 37  1  0
 14 38  1  0
 14 39  1  0
 15 40  1  0
 15 41  1  0
 16 42  1  6
 17 43  1  0
 17 44  1  0
 19 45  1  0
 20 46  1  0
 21 47  1  0
 27 48  1  0
 28 49  1  1
 29 50  1  0
 29 51  1  0
 30 52  1  0
M  CHG  1  16   1
M  END
>  <UniqueID>  (39) 
36

>  <SMILES>  (39) 
CS(=O)(=O)c1ccc2[nH]c3c(c2c1)CC[N@H+](Cc1cccc(C(F)(F)F)c1)[C@H]3CO

>  <Energy>  (39) 
96.39495557489904

>  <Genealogy>  (39) 
CS(=O)(=O)c1ccc2[nH]c3c(c2c1)CC[NH+](Cc1cccc(C(F)(F)F)c1)C3CO (protonated)
CS(=O)(=O)c1ccc2[nH]c3c(c2c1)CC[N@H+](Cc1cccc(C(F)(F)F)c1)[C@H]3CO (chirality)
CS(=O)(=O)c1ccc2[nH]c3c(c2c1)CC[N@H+](Cc1cccc(C(F)(F)F)c1)[C@H]3CO (3D coordinates assigned)
CS(=O)(=O)c1ccc2[nH]c3c(c2c1)CC[N@H+](Cc1cccc(C(F)(F)F)c1)[C@H]3CO (nonaromatic ring conformer: 96.39495557489904 kcal/mol)

>  <smiles>  (39) 
CS(=O)(=O)c1ccc2[nH]c3c(c2c1)CCN(Cc1cccc(C(F)(F)F)c1)C3CO

>  <score_type>  (39) 
oracle

>  <origin>  (39) 
adg

>  <m_score__min__energy>  (39) 
-8.4000000000000004

>  <m_primary>  (39) 
energy

$$$$
39:0
     RDKit          3D

 81 86  0  0  0  0  0  0  0  0999 V2000
   59.4202   31.7265   44.8953 H   0  0  0  0  0  0  0  0  0  0  0  0
   58.5140   31.1030   44.9020 C   0  0  0  0  0  0  0  0  0  0  0  0
   58.4980   29.9360   45.5970 N   0  0  0  0  0  0  0  0  0  0  0  0
   57.3860   29.1500   45.6250 C   0  0  0  0  0  0  0  0  0  0  0  0
   57.4040   27.8580   46.3920 C   0  0  1  0  0  0  0  0  0  0  0  0
   56.6778   27.9299   47.2151 H   0  0  0  0  0  0  0  0  0  0  0  0
   57.0340   26.7430   45.5210 N   0  0  0  0  0  0  0  0  0  0  0  0
   55.9430   25.8240   45.7240 C   0  0  0  0  0  0  0  0  0  0  0  0
   54.8110   26.2940   46.0060 O   0  0  0  0  0  0  0  0  0  0  0  0
   56.0850   24.3620   45.5490 C   0  0  0  0  0  0  0  0  0  0  0  0
   55.7870   23.7420   44.3230 C   0  0  0  0  0  0  0  0  0  0  0  0
   55.4554   24.3513   43.4693 H   0  0  0  0  0  0  0  0  0  0  0  0
   55.9090   22.3570   44.1810 C   0  0  0  0  0  0  0  0  0  0  0  0
   55.6357   21.8749   43.2308 H   0  0  0  0  0  0  0  0  0  0  0  0
   56.3780   21.5860   45.2460 C   0  0  0  0  0  0  0  0  0  0  0  0
   56.4617   20.4947   45.1364 H   0  0  0  0  0  0  0  0  0  0  0  0
   56.7430   22.1960   46.4550 C   0  0  0  0  0  0  0  0  0  0  0  0
   57.2520   21.3880   47.5250 N   0  0  0  0  0  0  0  0  0  0  0  0
   58.1700   20.9080   47.3720 H   0  0  0  0  0  0  0  0  0  0  0  0
   56.7090   21.4200   48.8550 C   0  0  0  0  0  0  0  0  0  0  0  0
   55.5630   21.8990   49.0640 O   0  0  0  0  0  0  0  0  0  0  0  0
   57.4600   20.9220   49.9710 N   0  0  0  0  0  0  0  0  0  0  0  0
   58.2880   21.7180   50.8340 C   0  0  0  0  0  0  0  0  0  0  0  0
   57.8140   22.9310   51.3460 C   0  0  0  0  0  0  0  0  0  0  0  0
   56.7901   23.2545   51.1075 H   0  0  0  0  0  0  0  0  0  0  0  0
   58.6150   23.7360   52.1520 C   0  0  0  0  0  0  0  0  0  0  0  0
   58.2208   24.6922   52.5264 H   0  0  0  0  0  0  0  0  0  0  0  0
   59.9230   23.3420   52.4940 C   0  0  0  0  0  0  0  0  0  0  0  0
   60.8180   24.1580   53.2260 O   0  0  0  0  0  0  0  0  0  0  0  0
   61.4050   25.3750   52.8310 C   0  0  0  0  0  0  0  0  0  0  0  0
   61.0220   26.0290   51.7070 N   0  0  0  0  0  0  0  0  0  0  0  0
   61.6380   27.1690   51.2950 C   0  0  0  0  0  0  0  0  0  0  0  0
   61.2210   27.7530   50.2120 N   0  0  0  0  0  0  0  0  0  0  0  0
   60.4220   28.9440   50.1150 C   0  0  0  0  0  0  0  0  0  0  0  0
   60.6430   29.8980   49.1070 C   0  0  0  0  0  0  0  0  0  0  0  0
   61.5388   29.8236   48.4730 H   0  0  0  0  0  0  0  0  0  0  0  0
   59.7350   30.9400   48.9030 C   0  0  0  0  0  0  0  0  0  0  0  0
   59.9930   31.8770   47.8470 N   0  0  0  0  0  0  0  0  0  0  0  0
   59.1050   33.3500   47.6230 S   0  0  0  0  0  0  0  0  0  0  0  0
   57.6320   33.0660   47.4940 O   0  0  0  0  0  0  0  0  0  0  0  0
   59.3240   34.2400   48.8120 O   0  0  0  0  0  0  0  0  0  0  0  0
   59.7010   34.1760   46.1590 C   0  0  0  0  0  0  0  0  0  0  0  0
   60.3217   35.0362   46.4503 H   0  0  0  0  0  0  0  0  0  0  0  0
   60.3028   33.4751   45.5619 H   0  0  0  0  0  0  0  0  0  0  0  0
   58.8461   34.5262   45.5619 H   0  0  0  0  0  0  0  0  0  0  0  0
   58.5950   31.0400   49.7190 C   0  0  0  0  0  0  0  0  0  0  0  0
   57.8752   31.8557   49.5561 H   0  0  0  0  0  0  0  0  0  0  0  0
   58.3700   30.1020   50.7430 C   0  0  0  0  0  0  0  0  0  0  0  0
   57.2540   30.1630   51.5900 O   0  0  0  0  0  0  0  0  0  0  0  0
   56.6850   31.3740   52.0780 C   0  0  0  0  0  0  0  0  0  0  0  0
   56.6896   31.3642   53.1779 H   0  0  0  0  0  0  0  0  0  0  0  0
   57.2758   32.2285   51.7165 H   0  0  0  0  0  0  0  0  0  0  0  0
   55.6501   31.4646   51.7165 H   0  0  0  0  0  0  0  0  0  0  0  0
   59.2830   29.0570   50.9250 C   0  0  0  0  0  0  0  0  0  0  0  0
   59.1044   28.3131   51.7154 H   0  0  0  0  0  0  0  0  0  0  0  0
   62.6540   27.6890   52.0390 N   0  0  0  0  0  0  0  0  0  0  0  0
   63.0420   27.0970   53.2010 C   0  0  0  0  0  0  0  0  0  0  0  0
   63.8533   27.5370   53.7995 H   0  0  0  0  0  0  0  0  0  0  0  0
   62.4090   25.9310   53.6320 C   0  0  0  0  0  0  0  0  0  0  0  0
   62.6935   25.4576   54.5833 H   0  0  0  0  0  0  0  0  0  0  0  0
   60.3780   22.0720   52.0710 C   0  0  0  0  0  0  0  0  0  0  0  0
   61.6470   21.6010   52.4590 C   0  0  0  0  0  0  0  0  0  0  0  0
   62.2858   22.2207   53.1054 H   0  0  0  0  0  0  0  0  0  0  0  0
   62.0990   20.3540   52.0290 C   0  0  0  0  0  0  0  0  0  0  0  0
   63.0906   19.9941   52.3409 H   0  0  0  0  0  0  0  0  0  0  0  0
   61.3000   19.5600   51.2050 C   0  0  0  0  0  0  0  0  0  0  0  0
   61.6679   18.5806   50.8652 H   0  0  0  0  0  0  0  0  0  0  0  0
   60.0370   20.0020   50.8100 C   0  0  0  0  0  0  0  0  0  0  0  0
   59.4115   19.3676   50.1648 H   0  0  0  0  0  0  0  0  0  0  0  0
   59.5600   21.2570   51.2340 C   0  0  0  0  0  0  0  0  0  0  0  0
   56.5870   23.5840   46.6050 C   0  0  0  0  0  0  0  0  0  0  0  0
   56.8599   24.0648   47.5560 H   0  0  0  0  0  0  0  0  0  0  0  0
   58.8010   27.6110   46.9550 C   0  0  0  0  0  0  0  0  0  0  0  0
   58.7599   27.6183   48.0542 H   0  0  0  0  0  0  0  0  0  0  0  0
   59.1686   26.6339   46.6083 H   0  0  0  0  0  0  0  0  0  0  0  0
   59.4813   28.4028   46.6083 H   0  0  0  0  0  0  0  0  0  0  0  0
   56.2760   29.5280   44.9310 N   0  0  0  0  0  0  0  0  0  0  0  0
   56.2550   30.6930   44.2280 C   0  0  0  0  0  0  0  0  0  0  0  0
   55.3464   30.9892   43.6833 H   0  0  0  0  0  0  0  0  0  0  0  0
   57.3820   31.5110   44.1970 C   0  0  0  0  0  0  0  0  0  0  0  0
   57.3792   32.4543   43.6311 H   0  0  0  0  0  0  0  0  0  0  0  0
  1  2  1  0
  2  3  2  0
  3  4  1  0
  4  5  1  0
  5  6  1  1
  5  7  1  0
  7  8  1  0
  8  9  2  0
  8 10  1  0
 10 11  2  0
 11 12  1  0
 11 13  1  0
 13 14  1  0
 13 15  2  0
 15 16  1  0
 15 17  1  0
 17 18  1  0
 18 19  1  0
 18 20  1  0
 20 21  2  0
 20 22  1  0
 22 23  1  0
 23 24  2  0
 24 25  1  0
 24 26  1  0
 26 27  1  0
 26 28  2  0
 28 29  1  0
 29 30  1  0
 30 31  2  0
 31 32  1  0
 32 33  2  0
 33 34  1  0
 34 35  2  0
 35 36  1  0
 35 37  1  0
 37 38  1  0
 38 39  1  0
 39 40  2  0
 39 41  2  0
 39 42  1  0
 42 43  1  0
 42 44  1  0
 42 45  1  0
 37 46  2  0
 46 47  1  0
 46 48  1  0
 48 49  1  0
 49 50  1  0
 50 51  1  0
 50 52  1  0
 50 53  1  0
 48 54  2  0
 54 55  1  0
 32 56  1  0
 56 57  1  0
 57 58  1  0
 57 59  2  0
 59 60  1  0
 28 61  1  0
 61 62  2  0
 62 63  1  0
 62 64  1  0
 64 65  1  0
 64 66  2  0
 66 67  1  0
 66 68  1  0
 68 69  1  0
 68 70  2  0
 17 71  2  0
 71 72  1  0
  5 73  1  0
 73 74  1  0
 73 75  1  0
 73 76  1  0
  4 77  2  0
 77 78  1  0
 78 79  1  0
 78 80  2  0
 80 81  1  0
 80  2  1  0
 71 10  1  0
 70 23  1  0
 59 30  1  0
 70 61  1  0
 54 34  1  0
M  CHG  4   7  -1  22  -1  38  -1  56  -1
M  END
>  <UniqueID>  (40) 
37

>  <SMILES>  (40) 
COc1cc(/N=c2/nc(Oc3ccc([N-]C(=O)Nc4cccc(C(=O)[N-][C@@H](C)c5ncccn5)c4)c4ccccc34)cc[n-]2)cc([N-]S(C)(=O)=O)c1

>  <Energy>  (40) 
125.43131808632096

>  <Genealogy>  (40) 
COc1cc(N=c2nc(Oc3ccc([N-]C(=O)Nc4cccc(C(=O)[N-]C(C)c5ncccn5)c4)c4ccccc34)cc[n-]2)cc([N-]S(C)(=O)=O)c1 (protonated)
COc1cc(N=c2nc(Oc3ccc([N-]C(=O)Nc4cccc(C(=O)[N-][C@@H](C)c5ncccn5)c4)c4ccccc34)cc[n-]2)cc([N-]S(C)(=O)=O)c1 (chirality)
COc1cc(/N=c2/nc(Oc3ccc([N-]C(=O)Nc4cccc(C(=O)[N-][C@@H](C)c5ncccn5)c4)c4ccccc34)cc[n-]2)cc([N-]S(C)(=O)=O)c1 (cis-trans isomerization)
COc1cc(/N=c2/nc(Oc3ccc([N-]C(=O)Nc4cccc(C(=O)[N-][C@@H](C)c5ncccn5)c4)c4ccccc34)cc[n-]2)cc([N-]S(C)(=O)=O)c1 (3D coordinates assigned)
COc1cc(/N=c2/nc(Oc3ccc([N-]C(=O)Nc4cccc(C(=O)[N-][C@@H](C)c5ncccn5)c4)c4ccccc34)cc[n-]2)cc([N-]S(C)(=O)=O)c1 (optimized conformer: 125.43131808632096 kcal/mol)

>  <smiles>  (40) 
COc1cc(N=c2nc(Oc3ccc(NC(=O)Nc4cccc(C(=O)NC(C)c5ncccn5)c4)c4ccccc34)cc[nH]2)cc(NS(C)(=O)=O)c1

>  <score_type>  (40) 
oracle

>  <origin>  (40) 
adg

>  <m_score__min__energy>  (40) 
-17.219999999999999

>  <m_primary>  (40) 
energy

$$$$
40:0
     RDKit          3D

 42 43  0  0  0  0  0  0  0  0999 V2000
   54.7670   26.3330   46.0230 N   0  0  0  0  0  0  0  0  0  0  0  0
   56.3580   25.6840   46.2120 S   0  0  0  0  0  0  0  0  0  0  0  0
   56.6490   24.7380   45.0810 O   0  0  0  0  0  0  0  0  0  0  0  0
   56.4410   24.9260   47.5080 O   0  0  0  0  0  0  0  0  0  0  0  0
   57.5320   26.9970   46.2110 C   0  0  0  0  0  0  0  0  0  0  0  0
   58.8170   26.7900   46.7250 C   0  0  0  0  0  0  0  0  0  0  0  0
   59.7450   27.8340   46.7310 C   0  0  0  0  0  0  0  0  0  0  0  0
   59.3930   29.0920   46.2350 C   0  0  0  0  0  0  0  0  0  0  0  0
   58.1000   29.3220   45.7320 C   0  0  0  0  0  0  0  0  0  0  0  0
   57.7100   30.6510   45.2010 C   0  0  0  0  0  0  0  0  0  0  0  0
   56.5720   30.7970   44.6780 O   0  0  0  0  0  0  0  0  0  0  0  0
   58.5990   31.7770   45.3080 N   0  0  0  0  0  0  0  0  0  0  0  0
   58.3950   33.0160   44.6080 C   0  0  0  0  0  0  0  0  0  0  0  0
   57.5190   33.1070   43.7060 O   0  0  0  0  0  0  0  0  0  0  0  0
   59.2430   34.2120   44.9230 C   0  0  0  0  0  0  0  0  0  0  0  0
   59.4300   34.3370   46.3330 O   0  0  0  0  0  0  0  0  0  0  0  0
   60.5370   33.8560   47.0520 C   0  0  0  0  0  0  0  0  0  0  0  0
   61.8610   34.1930   46.7140 C   0  0  0  0  0  0  0  0  0  0  0  0
   62.9330   33.6870   47.4540 C   0  0  0  0  0  0  0  0  0  0  0  0
   62.7050   32.8360   48.5480 C   0  0  0  0  0  0  0  0  0  0  0  0
   63.8390   32.2980   49.3410 C   0  0  0  0  0  0  0  0  0  0  0  0
   65.1780   32.7120   49.0420 N   0  0  0  0  0  0  0  0  0  0  0  0
   63.6320   31.4600   50.3130 N   0  0  0  0  0  0  0  0  0  0  0  0
   61.3830   32.5060   48.8900 C   0  0  0  0  0  0  0  0  0  0  0  0
   60.3090   33.0100   48.1490 C   0  0  0  0  0  0  0  0  0  0  0  0
   58.5270   32.5220   48.6450 Br  0  0  0  0  0  0  0  0  0  0  0  0
   57.1750   28.2600   45.7180 C   0  0  0  0  0  0  0  0  0  0  0  0
   54.6580   27.0860   46.7390 H   0  0  0  0  0  0  0  0  0  0  0  0
   59.0966   25.8041   47.1247 H   0  0  0  0  0  0  0  0  0  0  0  0
   60.7570   27.6651   47.1278 H   0  0  0  0  0  0  0  0  0  0  0  0
   60.1316   29.9072   46.2380 H   0  0  0  0  0  0  0  0  0  0  0  0
   59.4030   31.7190   45.9710 H   0  0  0  0  0  0  0  0  0  0  0  0
   60.2232   34.0986   44.4368 H   0  0  0  0  0  0  0  0  0  0  0  0
   58.7363   35.1145   44.5507 H   0  0  0  0  0  0  0  0  0  0  0  0
   62.0535   34.8599   45.8607 H   0  0  0  0  0  0  0  0  0  0  0  0
   63.9629   33.9571   47.1777 H   0  0  0  0  0  0  0  0  0  0  0  0
   65.3830   33.3140   48.2140 H   0  0  0  0  0  0  0  0  0  0  0  0
   65.9820   32.3780   49.6180 H   0  0  0  0  0  0  0  0  0  0  0  0
   63.5330   31.7790   51.3030 H   0  0  0  0  0  0  0  0  0  0  0  0
   63.5840   30.4320   50.1310 H   0  0  0  0  0  0  0  0  0  0  0  0
   61.1907   31.8453   49.7482 H   0  0  0  0  0  0  0  0  0  0  0  0
   56.1638   28.4229   45.3168 H   0  0  0  0  0  0  0  0  0  0  0  0
  1  2  1  0
  2  3  2  0
  2  4  2  0
  2  5  1  0
  5  6  2  0
  6  7  1  0
  7  8  2  0
  8  9  1  0
  9 10  1  0
 10 11  2  0
 10 12  1  0
 12 13  1  0
 13 14  2  0
 13 15  1  0
 15 16  1  0
 16 17  1  0
 17 18  2  0
 18 19  1  0
 19 20  2  0
 20 21  1  0
 21 22  1  0
 21 23  2  0
 20 24  1  0
 24 25  2  0
 25 26  1  0
  9 27  2  0
 27  5  1  0
 25 17  1  0
  1 28  1  0
  6 29  1  0
  7 30  1  0
  8 31  1  0
 12 32  1  0
 15 33  1  0
 15 34  1  0
 18 35  1  0
 19 36  1  0
 22 37  1  0
 22 38  1  0
 23 39  1  0
 23 40  1  0
 24 41  1  0
 27 42  1  0
M  CHG  2   1  -1  23   1
M  END
>  <UniqueID>  (41) 
38

>  <SMILES>  (41) 
[NH-]S(=O)(=O)c1cccc(C(=O)NC(=O)COc2ccc(C(N)=[NH2+])cc2Br)c1

>  <Energy>  (41) 
46.36545134455507

>  <Genealogy>  (41) 
[NH-]S(=O)(=O)c1cccc(C(=O)NC(=O)COc2ccc(C(N)=[NH2+])cc2Br)c1 (protonated)
[NH-]S(=O)(=O)c1cccc(C(=O)NC(=O)COc2ccc(C(N)=[NH2+])cc2Br)c1 (3D coordinates assigned)
[NH-]S(=O)(=O)c1cccc(C(=O)NC(=O)COc2ccc(C(N)=[NH2+])cc2Br)c1 (optimized conformer: 46.36545134455507 kcal/mol)

>  <smiles>  (41) 
N=C(N)c1ccc(OCC(=O)NC(=O)c2cccc(S(N)(=O)=O)c2)c(Br)c1

>  <score_type>  (41) 
oracle

>  <origin>  (41) 
adg

>  <m_score__min__energy>  (41) 
-10.289999999999999

>  <m_primary>  (41) 
energy

$$$$
41:0
     RDKit          3D

 51 53  0  0  0  0  0  0  0  0999 V2000
   60.2130   22.1800   45.3250 N   0  0  0  0  0  0  0  0  0  0  0  0
   58.6230   22.8590   45.2940 S   0  0  0  0  0  0  0  0  0  0  0  0
   58.0090   22.6550   43.9370 O   0  0  0  0  0  0  0  0  0  0  0  0
   57.7660   22.1700   46.3200 O   0  0  0  0  0  0  0  0  0  0  0  0
   58.7180   24.5810   45.6480 C   0  0  0  0  0  0  0  0  0  0  0  0
   59.9400   25.1650   46.0120 C   0  0  0  0  0  0  0  0  0  0  0  0
   60.0130   26.5360   46.2630 C   0  0  0  0  0  0  0  0  0  0  0  0
   58.8700   27.3330   46.1550 C   0  0  0  0  0  0  0  0  0  0  0  0
   57.6350   26.7550   45.8090 C   0  0  0  0  0  0  0  0  0  0  0  0
   56.4410   27.5340   45.6460 N   0  0  0  0  0  0  0  0  0  0  0  0
   56.3280   28.8450   45.0800 C   0  0  0  0  0  0  0  0  0  0  0  0
   55.2000   29.3510   44.8370 O   0  0  0  0  0  0  0  0  0  0  0  0
   57.5700   29.5780   44.6660 C   0  0  0  0  0  0  0  0  0  0  0  0
   57.9000   30.6400   45.6420 N   0  0  0  0  0  0  0  0  0  0  0  0
   57.4100   31.9590   45.1630 C   0  0  0  0  0  0  0  0  0  0  0  0
   58.1850   33.0880   45.7990 C   0  0  0  0  0  0  0  0  0  0  0  0
   58.1460   33.2620   47.1940 C   0  0  0  0  0  0  0  0  0  0  0  0
   58.8950   34.2720   47.8030 C   0  0  0  0  0  0  0  0  0  0  0  0
   59.6770   35.1270   47.0260 C   0  0  0  0  0  0  0  0  0  0  0  0
   59.6980   34.9850   45.6360 C   0  0  0  0  0  0  0  0  0  0  0  0
   58.9480   33.9790   45.0190 C   0  0  0  0  0  0  0  0  0  0  0  0
   58.9780   33.8710   43.6660 F   0  0  0  0  0  0  0  0  0  0  0  0
   59.3600   30.6580   45.9020 C   0  0  0  0  0  0  0  0  0  0  0  0
   59.6560   30.4990   47.3780 C   0  0  0  0  0  0  0  0  0  0  0  0
   58.8290   29.6560   48.1420 C   0  0  0  0  0  0  0  0  0  0  0  0
   59.0410   29.5050   49.5140 C   0  0  0  0  0  0  0  0  0  0  0  0
   60.0890   30.1830   50.1380 C   0  0  0  0  0  0  0  0  0  0  0  0
   60.9350   31.0030   49.3890 C   0  0  0  0  0  0  0  0  0  0  0  0
   60.7350   31.1600   48.0120 C   0  0  0  0  0  0  0  0  0  0  0  0
   61.8580   32.1920   47.1310 Cl  0  0  0  0  0  0  0  0  0  0  0  0
   57.5740   25.3810   45.5360 C   0  0  0  0  0  0  0  0  0  0  0  0
   60.7280   22.5750   44.5070 H   0  0  0  0  0  0  0  0  0  0  0  0
   60.1100   21.1550   45.1530 H   0  0  0  0  0  0  0  0  0  0  0  0
   60.8421   24.5417   46.0998 H   0  0  0  0  0  0  0  0  0  0  0  0
   60.9735   26.9908   46.5468 H   0  0  0  0  0  0  0  0  0  0  0  0
   58.9363   28.4151   46.3410 H   0  0  0  0  0  0  0  0  0  0  0  0
   58.4072   28.8667   44.6094 H   0  0  0  0  0  0  0  0  0  0  0  0
   57.3963   30.0417   43.6838 H   0  0  0  0  0  0  0  0  0  0  0  0
   57.5288   32.0118   44.0707 H   0  0  0  0  0  0  0  0  0  0  0  0
   56.3506   32.0611   45.4410 H   0  0  0  0  0  0  0  0  0  0  0  0
   57.5214   32.5983   47.8099 H   0  0  0  0  0  0  0  0  0  0  0  0
   58.8681   34.3931   48.8960 H   0  0  0  0  0  0  0  0  0  0  0  0
   60.2771   35.9130   47.5076 H   0  0  0  0  0  0  0  0  0  0  0  0
   60.3070   35.6673   45.0248 H   0  0  0  0  0  0  0  0  0  0  0  0
   59.8327   29.8320   45.3504 H   0  0  0  0  0  0  0  0  0  0  0  0
   59.7608   31.6268   45.5691 H   0  0  0  0  0  0  0  0  0  0  0  0
   58.0076   29.1106   47.6543 H   0  0  0  0  0  0  0  0  0  0  0  0
   58.3814   28.8511   50.1033 H   0  0  0  0  0  0  0  0  0  0  0  0
   60.2486   30.0713   51.2206 H   0  0  0  0  0  0  0  0  0  0  0  0
   61.7644   31.5294   49.8840 H   0  0  0  0  0  0  0  0  0  0  0  0
   56.6193   24.9275   45.2312 H   0  0  0  0  0  0  0  0  0  0  0  0
  1  2  1  0
  2  3  2  0
  2  4  2  0
  2  5  1  0
  5  6  2  0
  6  7  1  0
  7  8  2  0
  8  9  1  0
  9 10  1  0
 10 11  1  0
 11 12  2  0
 11 13  1  0
 13 14  1  0
 14 15  1  0
 15 16  1  0
 16 17  2  0
 17 18  1  0
 18 19  2  0
 19 20  1  0
 20 21  2  0
 21 22  1  0
 14 23  1  0
 23 24  1  0
 24 25  2  0
 25 26  1  0
 26 27  2  0
 27 28  1  0
 28 29  2  0
 29 30  1  0
  9 31  2  0
 31  5  1  0
 21 16  1  0
 29 24  1  0
  1 32  1  0
  1 33  1  0
  6 34  1  0
  7 35  1  0
  8 36  1  0
 13 37  1  0
 13 38  1  0
 15 39  1  0
 15 40  1  0
 17 41  1  0
 18 42  1  0
 19 43  1  0
 20 44  1  0
 23 45  1  0
 23 46  1  0
 25 47  1  0
 26 48  1  0
 27 49  1  0
 28 50  1  0
 31 51  1  0
M  CHG  1  10  -1
M  END
>  <UniqueID>  (42) 
39

>  <SMILES>  (42) 
NS(=O)(=O)c1cccc([N-]C(=O)CN(Cc2ccccc2F)Cc2ccccc2Cl)c1

>  <Energy>  (42) 
56.06908607214206

>  <Genealogy>  (42) 
NS(=O)(=O)c1cccc([N-]C(=O)CN(Cc2ccccc2F)Cc2ccccc2Cl)c1 (protonated)
NS(=O)(=O)c1cccc([N-]C(=O)CN(Cc2ccccc2F)Cc2ccccc2Cl)c1 (3D coordinates assigned)
NS(=O)(=O)c1cccc([N-]C(=O)CN(Cc2ccccc2F)Cc2ccccc2Cl)c1 (optimized conformer: 56.06908607214206 kcal/mol)

>  <smiles>  (42) 
NS(=O)(=O)c1cccc(NC(=O)CN(Cc2ccccc2F)Cc2ccccc2Cl)c1

>  <score_type>  (42) 
oracle

>  <origin>  (42) 
adg

>  <m_score__min__energy>  (42) 
-11.6

>  <m_primary>  (42) 
energy

$$$$
42:0
     RDKit          3D

 40 42  0  0  0  0  0  0  0  0999 V2000
   58.5350   33.4370   53.1670 C   0  0  0  0  0  0  0  0  0  0  0  0
   58.8990   33.2320   51.7220 C   0  0  0  0  0  0  0  0  0  0  0  0
   60.0420   33.8650   51.2030 C   0  0  0  0  0  0  0  0  0  0  0  0
   60.4020   33.6920   49.8640 C   0  0  0  0  0  0  0  0  0  0  0  0
   59.6330   32.8780   49.0330 C   0  0  0  0  0  0  0  0  0  0  0  0
   58.5010   32.2340   49.5370 C   0  0  0  0  0  0  0  0  0  0  0  0
   58.1160   32.4070   50.8800 C   0  0  0  0  0  0  0  0  0  0  0  0
   56.9680   31.7070   51.3960 N   0  0  0  0  0  0  0  0  0  0  0  0
   57.0230   30.3520   51.8730 C   0  0  0  0  0  0  0  0  0  0  0  0
   57.9820   29.6080   51.5270 O   0  0  0  0  0  0  0  0  0  0  0  0
   55.9460   29.8010   52.7300 C   0  0  0  0  0  0  0  0  0  0  0  0
   56.1690   29.5420   54.0940 C   0  0  0  0  0  0  0  0  0  0  0  0
   55.1520   29.0080   54.8890 C   0  0  0  0  0  0  0  0  0  0  0  0
   53.9030   28.7230   54.3360 C   0  0  0  0  0  0  0  0  0  0  0  0
   53.6580   28.9770   52.9770 C   0  0  0  0  0  0  0  0  0  0  0  0
   52.3260   28.6300   52.3710 C   0  0  0  0  0  0  0  0  0  0  0  0
   51.8520   29.7480   51.4910 C   0  0  0  0  0  0  0  0  0  0  0  0
   51.6420   31.0320   52.0070 C   0  0  0  0  0  0  0  0  0  0  0  0
   51.2380   32.0530   51.1480 C   0  0  0  0  0  0  0  0  0  0  0  0
   51.0190   33.3340   51.6410 O   0  0  0  0  0  0  0  0  0  0  0  0
   51.0610   31.7690   49.7920 C   0  0  0  0  0  0  0  0  0  0  0  0
   50.6960   32.6690   48.9920 O   0  0  0  0  0  0  0  0  0  0  0  0
   51.2890   30.5090   49.3370 N   0  0  0  0  0  0  0  0  0  0  0  0
   51.6760   29.5310   50.1590 N   0  0  0  0  0  0  0  0  0  0  0  0
   54.6860   29.5020   52.1770 C   0  0  0  0  0  0  0  0  0  0  0  0
   59.3144   32.9981   53.8073 H   0  0  0  0  0  0  0  0  0  0  0  0
   58.4530   34.5140   53.3752 H   0  0  0  0  0  0  0  0  0  0  0  0
   57.5715   32.9489   53.3752 H   0  0  0  0  0  0  0  0  0  0  0  0
   60.6575   34.5012   51.8559 H   0  0  0  0  0  0  0  0  0  0  0  0
   61.2931   34.1986   49.4649 H   0  0  0  0  0  0  0  0  0  0  0  0
   59.9184   32.7430   47.9793 H   0  0  0  0  0  0  0  0  0  0  0  0
   57.9046   31.5855   48.8784 H   0  0  0  0  0  0  0  0  0  0  0  0
   56.0340   32.1720   51.3400 H   0  0  0  0  0  0  0  0  0  0  0  0
   57.1511   29.7614   54.5381 H   0  0  0  0  0  0  0  0  0  0  0  0
   55.3366   28.8114   55.9554 H   0  0  0  0  0  0  0  0  0  0  0  0
   53.1081   28.2981   54.9665 H   0  0  0  0  0  0  0  0  0  0  0  0
   52.4270   27.7132   51.7716 H   0  0  0  0  0  0  0  0  0  0  0  0
   51.5944   28.4721   53.1771 H   0  0  0  0  0  0  0  0  0  0  0  0
   51.7939   31.2331   53.0777 H   0  0  0  0  0  0  0  0  0  0  0  0
   54.5049   29.6815   51.1070 H   0  0  0  0  0  0  0  0  0  0  0  0
  1  2  1  0
  2  3  2  0
  3  4  1  0
  4  5  2  0
  5  6  1  0
  6  7  2  0
  7  8  1  0
  8  9  1  0
  9 10  2  0
  9 11  1  0
 11 12  2  0
 12 13  1  0
 13 14  2  0
 14 15  1  0
 15 16  1  0
 16 17  1  0
 17 18  1  0
 18 19  2  0
 19 20  1  0
 19 21  1  0
 21 22  2  0
 21 23  1  0
 23 24  1  0
 15 25  2  0
  7  2  1  0
 25 11  1  0
 24 17  2  0
  1 26  1  0
  1 27  1  0
  1 28  1  0
  3 29  1  0
  4 30  1  0
  5 31  1  0
  6 32  1  0
  8 33  1  0
 12 34  1  0
 13 35  1  0
 14 36  1  0
 16 37  1  0
 16 38  1  0
 18 39  1  0
 25 40  1  0
M  CHG  2  20  -1  23  -1
M  END
>  <UniqueID>  (43) 
40

>  <SMILES>  (43) 
Cc1ccccc1NC(=O)c1cccc(Cc2cc([O-])c(=O)[n-]n2)c1

>  <Energy>  (43) 
49.09514767423635

>  <Genealogy>  (43) 
Cc1ccccc1NC(=O)c1cccc(Cc2cc([O-])c(=O)[n-]n2)c1 (protonated)
Cc1ccccc1NC(=O)c1cccc(Cc2cc([O-])c(=O)[n-]n2)c1 (3D coordinates assigned)
Cc1ccccc1NC(=O)c1cccc(Cc2cc([O-])c(=O)[n-]n2)c1 (optimized conformer: 49.09514767423635 kcal/mol)

>  <smiles>  (43) 
Cc1ccccc1NC(=O)c1cccc(Cc2cc(O)c(=O)[nH]n2)c1

>  <score_type>  (43) 
oracle

>  <origin>  (43) 
adg

>  <m_score__min__energy>  (43) 
-14.83

>  <m_primary>  (43) 
energy

$$$$
43:0
     RDKit          3D

 41 43  0  0  0  0  0  0  0  0999 V2000
   58.6940   26.5460   47.8910 O   0  0  0  0  0  0  0  0  0  0  0  0
   57.8220   27.0050   47.1020 C   0  0  0  0  0  0  0  0  0  0  0  0
   56.6990   26.2300   46.8100 C   0  0  0  0  0  0  0  0  0  0  0  0
   55.7460   26.7390   45.9360 C   0  0  0  0  0  0  0  0  0  0  0  0
   54.6180   25.9930   45.6200 O   0  0  0  0  0  0  0  0  0  0  0  0
   55.9190   27.9680   45.3900 N   0  0  0  0  0  0  0  0  0  0  0  0
   57.0120   28.7230   45.6750 C   0  0  0  0  0  0  0  0  0  0  0  0
   57.1200   30.2130   44.9880 S   0  0  0  0  0  0  0  0  0  0  0  0
   57.9740   28.2450   46.5350 N   0  0  0  0  0  0  0  0  0  0  0  0
   59.1460   29.0230   46.8490 C   0  0  0  0  0  0  0  0  0  0  0  0
   60.0720   29.3370   45.8460 C   0  0  0  0  0  0  0  0  0  0  0  0
   61.2050   30.0990   46.1490 C   0  0  0  0  0  0  0  0  0  0  0  0
   61.4250   30.5630   47.4510 C   0  0  0  0  0  0  0  0  0  0  0  0
   62.5790   31.3240   47.6960 O   0  0  0  0  0  0  0  0  0  0  0  0
   62.6790   32.7440   47.5810 C   0  0  0  0  0  0  0  0  0  0  0  0
   61.6260   33.2840   46.6090 C   0  0  0  0  0  0  0  0  0  0  0  0
   60.7640   34.2740   47.2950 N   0  0  0  0  0  0  0  0  0  0  0  0
   59.8380   33.6390   48.2530 C   0  0  0  0  0  0  0  0  0  0  0  0
   58.7280   32.8400   47.5300 C   0  0  0  0  0  0  0  0  0  0  0  0
   58.6050   33.1730   46.1580 O   0  0  0  0  0  0  0  0  0  0  0  0
   58.6310   34.5750   45.9950 C   0  0  0  0  0  0  0  0  0  0  0  0
   60.0250   35.1380   46.3420 C   0  0  0  0  0  0  0  0  0  0  0  0
   60.4920   30.2440   48.4590 C   0  0  0  0  0  0  0  0  0  0  0  0
   59.3600   29.4830   48.1550 C   0  0  0  0  0  0  0  0  0  0  0  0
   56.5706   25.2357   47.2627 H   0  0  0  0  0  0  0  0  0  0  0  0
   59.9077   28.9834   44.8174 H   0  0  0  0  0  0  0  0  0  0  0  0
   61.9301   30.3359   45.3565 H   0  0  0  0  0  0  0  0  0  0  0  0
   62.5235   33.1982   48.5707 H   0  0  0  0  0  0  0  0  0  0  0  0
   63.6780   32.9982   47.1970 H   0  0  0  0  0  0  0  0  0  0  0  0
   62.1291   33.7666   45.7581 H   0  0  0  0  0  0  0  0  0  0  0  0
   61.0041   32.4505   46.2507 H   0  0  0  0  0  0  0  0  0  0  0  0
   60.4072   32.9544   48.8990 H   0  0  0  0  0  0  0  0  0  0  0  0
   59.3594   34.4326   48.8456 H   0  0  0  0  0  0  0  0  0  0  0  0
   58.9601   31.7678   47.6102 H   0  0  0  0  0  0  0  0  0  0  0  0
   57.7737   33.0932   48.0150 H   0  0  0  0  0  0  0  0  0  0  0  0
   58.3917   34.8216   44.9501 H   0  0  0  0  0  0  0  0  0  0  0  0
   57.8894   35.0238   46.6722 H   0  0  0  0  0  0  0  0  0  0  0  0
   60.6117   35.2240   45.4155 H   0  0  0  0  0  0  0  0  0  0  0  0
   59.8807   36.1177   46.8209 H   0  0  0  0  0  0  0  0  0  0  0  0
   60.6558   30.5954   49.4884 H   0  0  0  0  0  0  0  0  0  0  0  0
   58.6331   29.2439   48.9452 H   0  0  0  0  0  0  0  0  0  0  0  0
  1  2  2  0
  2  3  1  0
  3  4  2  0
  4  5  1  0
  4  6  1  0
  6  7  1  0
  7  8  2  0
  7  9  1  0
  9 10  1  0
 10 11  2  0
 11 12  1  0
 12 13  2  0
 13 14  1  0
 14 15  1  0
 15 16  1  0
 16 17  1  0
 17 18  1  0
 18 19  1  0
 19 20  1  0
 20 21  1  0
 21 22  1  0
 13 23  1  0
 23 24  2  0
  9  2  1  0
 24 10  1  0
 22 17  1  0
  3 25  1  0
 11 26  1  0
 12 27  1  0
 15 28  1  0
 15 29  1  0
 16 30  1  0
 16 31  1  0
 18 32  1  0
 18 33  1  0
 19 34  1  0
 19 35  1  0
 21 36  1  0
 21 37  1  0
 22 38  1  0
 22 39  1  0
 23 40  1  0
 24 41  1  0
M  CHG  2   5  -1   6  -1
M  END
>  <UniqueID>  (44) 
41

>  <SMILES>  (44) 
O=c1cc([O-])[n-]c(=S)n1-c1ccc(OCCN2CCOCC2)cc1

>  <Energy>  (44) 
66.35004821236576

>  <Genealogy>  (44) 
O=c1cc([O-])[n-]c(=S)n1-c1ccc(OCCN2CCOCC2)cc1 (protonated)
O=c1cc([O-])[n-]c(=S)n1-c1ccc(OCCN2CCOCC2)cc1 (3D coordinates assigned)
O=c1cc([O-])[n-]c(=S)n1-c1ccc(OCCN2CCOCC2)cc1 (nonaromatic ring conformer: 66.35004821236576 kcal/mol)

>  <smiles>  (44) 
O=c1cc(O)[nH]c(=S)n1-c1ccc(OCCN2CCOCC2)cc1

>  <score_type>  (44) 
oracle

>  <origin>  (44) 
adg

>  <m_score__min__energy>  (44) 
-10.539999999999999

>  <m_primary>  (44) 
energy

$$$$
44:0
     RDKit          3D

 50 52  0  0  0  0  0  0  0  0999 V2000
   60.7735   30.6445   49.1482 H   0  0  0  0  0  0  0  0  0  0  0  0
   60.1630   30.3270   48.2900 C   0  0  0  0  0  0  0  0  0  0  0  0
   60.3800   28.9210   47.3960 S   0  0  0  0  0  0  0  0  0  0  0  0
   59.1290   29.1900   46.3020 C   0  0  0  0  0  0  0  0  0  0  0  0
   58.6960   28.2440   45.2190 C   0  0  0  0  0  0  0  0  0  0  0  0
   57.8213   28.6662   44.7026 H   0  0  0  0  0  0  0  0  0  0  0  0
   59.5334   28.1104   44.5183 H   0  0  0  0  0  0  0  0  0  0  0  0
   58.3400   26.9370   45.7690 N   0  0  0  0  0  0  0  0  0  0  0  0
   57.1350   26.4440   45.7990 C   0  0  0  0  0  0  0  0  0  0  0  0
   56.8330   25.1110   45.6670 C   0  0  0  0  0  0  0  0  0  0  0  0
   57.5254   24.2701   45.5140 H   0  0  0  0  0  0  0  0  0  0  0  0
   55.4480   25.0730   45.7720 C   0  0  0  0  0  0  0  0  0  0  0  0
   54.5480   23.8530   45.6720 C   0  0  0  0  0  0  0  0  0  0  0  0
   53.1470   24.3050   45.2200 C   0  0  0  0  0  0  0  0  0  0  0  0
   52.5237   24.5061   46.1038 H   0  0  0  0  0  0  0  0  0  0  0  0
   53.2340   25.2207   44.6167 H   0  0  0  0  0  0  0  0  0  0  0  0
   52.6825   23.5111   44.6167 H   0  0  0  0  0  0  0  0  0  0  0  0
   55.0950   22.8220   44.6610 C   0  0  0  0  0  0  0  0  0  0  0  0
   55.5431   21.9773   45.2048 H   0  0  0  0  0  0  0  0  0  0  0  0
   54.2724   22.4562   44.0290 H   0  0  0  0  0  0  0  0  0  0  0  0
   55.8592   23.2980   44.0290 H   0  0  0  0  0  0  0  0  0  0  0  0
   54.4510   23.1870   47.0570 C   0  0  0  0  0  0  0  0  0  0  0  0
   54.5623   23.9515   47.8401 H   0  0  0  0  0  0  0  0  0  0  0  0
   53.4719   22.6963   47.1602 H   0  0  0  0  0  0  0  0  0  0  0  0
   55.2495   22.4374   47.1602 H   0  0  0  0  0  0  0  0  0  0  0  0
   54.9750   26.3290   45.9480 N   0  0  0  0  0  0  0  0  0  0  0  0
   56.0060   27.1570   45.9680 N   0  0  0  0  0  0  0  0  0  0  0  0
   55.9180   28.1880   46.1060 H   0  0  0  0  0  0  0  0  0  0  0  0
   58.5060   30.3880   46.6350 C   0  0  0  0  0  0  0  0  0  0  0  0
   57.3940   30.8620   45.9250 O   0  0  0  0  0  0  0  0  0  0  0  0
   57.4130   31.2350   44.5750 C   0  0  0  0  0  0  0  0  0  0  0  0
   56.7100   30.4450   43.6560 C   0  0  0  0  0  0  0  0  0  0  0  0
   56.1787   29.5470   44.0043 H   0  0  0  0  0  0  0  0  0  0  0  0
   56.6770   30.7860   42.3030 C   0  0  0  0  0  0  0  0  0  0  0  0
   56.1134   30.1645   41.5916 H   0  0  0  0  0  0  0  0  0  0  0  0
   57.3610   31.9180   41.8540 C   0  0  0  0  0  0  0  0  0  0  0  0
   57.3236   32.1962   40.7904 H   0  0  0  0  0  0  0  0  0  0  0  0
   58.0930   32.6980   42.7540 C   0  0  0  0  0  0  0  0  0  0  0  0
   58.6394   33.5818   42.3930 H   0  0  0  0  0  0  0  0  0  0  0  0
   58.1350   32.3580   44.1230 C   0  0  0  0  0  0  0  0  0  0  0  0
   58.8920   33.0980   45.0450 O   0  0  0  0  0  0  0  0  0  0  0  0
   58.5560   34.4020   45.5090 C   0  0  0  0  0  0  0  0  0  0  0  0
   58.5538   34.4105   46.6090 H   0  0  0  0  0  0  0  0  0  0  0  0
   59.2971   35.1254   45.1382 H   0  0  0  0  0  0  0  0  0  0  0  0
   57.5576   34.6772   45.1382 H   0  0  0  0  0  0  0  0  0  0  0  0
   59.0790   31.0220   47.7600 C   0  0  0  0  0  0  0  0  0  0  0  0
   58.5770   32.2950   48.3740 C   0  0  0  0  0  0  0  0  0  0  0  0
   58.6100   32.2112   49.4703 H   0  0  0  0  0  0  0  0  0  0  0  0
   59.2119   33.1332   48.0510 H   0  0  0  0  0  0  0  0  0  0  0  0
   57.5409   32.4742   48.0510 H   0  0  0  0  0  0  0  0  0  0  0  0
  1  2  1  0
  2  3  1  0
  3  4  1  0
  4  5  1  0
  5  6  1  0
  5  7  1  0
  5  8  1  0
  8  9  2  0
  9 10  1  0
 10 11  1  0
 10 12  2  0
 12 13  1  0
 13 14  1  0
 14 15  1  0
 14 16  1  0
 14 17  1  0
 13 18  1  0
 18 19  1  0
 18 20  1  0
 18 21  1  0
 13 22  1  0
 22 23  1  0
 22 24  1  0
 22 25  1  0
 12 26  1  0
 26 27  1  0
 27 28  1  0
  4 29  2  0
 29 30  1  0
 30 31  1  0
 31 32  2  0
 32 33  1  0
 32 34  1  0
 34 35  1  0
 34 36  2  0
 36 37  1  0
 36 38  1  0
 38 39  1  0
 38 40  2  0
 40 41  1  0
 41 42  1  0
 42 43  1  0
 42 44  1  0
 42 45  1  0
 29 46  1  0
 46 47  1  0
 47 48  1  0
 47 49  1  0
 47 50  1  0
 46  2  2  0
 27  9  1  0
 40 31  1  0
M  CHG  1  26  -1
M  END
>  <UniqueID>  (45) 
42

>  <SMILES>  (45) 
COc1ccccc1Oc1c(C)csc1C/N=c1/cc(C(C)(C)C)[n-][nH]1

>  <Energy>  (45) 
109.21080854945406

>  <Genealogy>  (45) 
COc1ccccc1Oc1c(C)csc1CN=c1cc(C(C)(C)C)[n-][nH]1 (protonated)
COc1ccccc1Oc1c(C)csc1C/N=c1/cc(C(C)(C)C)[n-][nH]1 (cis-trans isomerization)
COc1ccccc1Oc1c(C)csc1C/N=c1/cc(C(C)(C)C)[n-][nH]1 (3D coordinates assigned)
COc1ccccc1Oc1c(C)csc1C/N=c1/cc(C(C)(C)C)[n-][nH]1 (optimized conformer: 109.21080854945406 kcal/mol)

>  <smiles>  (45) 
COc1ccccc1Oc1c(C)csc1CN=c1cc(C(C)(C)C)[nH][nH]1

>  <score_type>  (45) 
oracle

>  <origin>  (45) 
adg

>  <m_score__min__energy>  (45) 
-10.15

>  <m_primary>  (45) 
energy

$$$$
45:0
     RDKit          3D

 54 57  0  0  0  0  0  0  0  0999 V2000
   55.1510   30.0040   44.6650 O   0  0  0  0  0  0  0  0  0  0  0  0
   56.3840   29.7970   44.8120 C   0  0  0  0  0  0  0  0  0  0  0  0
   56.8970   28.4910   44.5190 N   0  0  0  0  0  0  0  0  0  0  0  0
   57.3740   27.5310   45.4750 C   0  0  0  0  0  0  0  0  0  0  0  0
   58.7580   27.4020   45.6610 C   0  0  0  0  0  0  0  0  0  0  0  0
   59.2650   26.4820   46.5840 C   0  0  0  0  0  0  0  0  0  0  0  0
   58.3940   25.6730   47.3160 C   0  0  0  0  0  0  0  0  0  0  0  0
   57.0140   25.7710   47.1160 C   0  0  0  0  0  0  0  0  0  0  0  0
   56.4990   26.6850   46.1890 C   0  0  0  0  0  0  0  0  0  0  0  0
   55.1270   26.7220   45.9690 O   0  0  0  0  0  0  0  0  0  0  0  0
   57.2650   30.9150   45.2310 C   0  0  0  0  0  0  0  0  0  0  0  0
   57.0320   32.2280   44.7850 C   0  0  0  0  0  0  0  0  0  0  0  0
   57.8650   33.2740   45.1930 C   0  0  0  0  0  0  0  0  0  0  0  0
   58.9380   33.0250   46.0560 C   0  0  0  0  0  0  0  0  0  0  0  0
   59.9580   34.3560   46.5960 S   0  0  0  0  0  0  0  0  0  0  0  0
   59.6660   35.5730   45.7640 O   0  0  0  0  0  0  0  0  0  0  0  0
   61.4120   34.0080   46.4330 O   0  0  0  0  0  0  0  0  0  0  0  0
   59.6190   34.7090   48.2590 N   0  0  0  0  0  0  0  0  0  0  0  0
   59.8810   33.8980   49.2400 C   0  0  0  0  0  0  0  0  0  0  0  0
   61.1870   33.4290   49.4180 C   0  0  0  0  0  0  0  0  0  0  0  0
   61.4720   32.5370   50.4640 C   0  0  0  0  0  0  0  0  0  0  0  0
   62.8760   32.0020   50.6730 C   0  0  0  0  0  0  0  0  0  0  0  0
   63.6780   31.9100   49.4310 N   0  0  0  0  0  0  0  0  0  0  0  0
   64.4760   33.1160   49.1200 C   0  0  0  0  0  0  0  0  0  0  0  0
   63.9500   33.8350   47.8650 C   0  0  0  0  0  0  0  0  0  0  0  0
   63.9460   33.0110   46.7050 O   0  0  0  0  0  0  0  0  0  0  0  0
   63.7090   31.6340   46.9710 C   0  0  0  0  0  0  0  0  0  0  0  0
   62.9320   31.3750   48.2720 C   0  0  0  0  0  0  0  0  0  0  0  0
   60.4390   32.1650   51.3370 C   0  0  0  0  0  0  0  0  0  0  0  0
   59.1500   32.6580   51.1320 C   0  0  0  0  0  0  0  0  0  0  0  0
   58.8990   33.5000   50.0970 N   0  0  0  0  0  0  0  0  0  0  0  0
   59.1650   31.7230   46.5200 C   0  0  0  0  0  0  0  0  0  0  0  0
   58.3320   30.6760   46.1140 C   0  0  0  0  0  0  0  0  0  0  0  0
   59.4488   28.0282   45.0774 H   0  0  0  0  0  0  0  0  0  0  0  0
   60.3514   26.3956   46.7335 H   0  0  0  0  0  0  0  0  0  0  0  0
   58.7938   24.9582   48.0504 H   0  0  0  0  0  0  0  0  0  0  0  0
   56.3302   25.1276   47.6891 H   0  0  0  0  0  0  0  0  0  0  0  0
   56.1881   32.4337   44.1101 H   0  0  0  0  0  0  0  0  0  0  0  0
   57.6762   34.2966   44.8343 H   0  0  0  0  0  0  0  0  0  0  0  0
   61.9884   33.7583   48.7402 H   0  0  0  0  0  0  0  0  0  0  0  0
   63.3993   32.6691   51.3738 H   0  0  0  0  0  0  0  0  0  0  0  0
   62.7714   30.9777   51.0602 H   0  0  0  0  0  0  0  0  0  0  0  0
   64.4265   33.8070   49.9744 H   0  0  0  0  0  0  0  0  0  0  0  0
   65.5128   32.8026   48.9279 H   0  0  0  0  0  0  0  0  0  0  0  0
   62.9202   34.1690   48.0597 H   0  0  0  0  0  0  0  0  0  0  0  0
   64.6278   34.6777   47.6639 H   0  0  0  0  0  0  0  0  0  0  0  0
   63.1323   31.2139   46.1338 H   0  0  0  0  0  0  0  0  0  0  0  0
   64.6936   31.1575   47.0872 H   0  0  0  0  0  0  0  0  0  0  0  0
   61.9508   31.8686   48.2129 H   0  0  0  0  0  0  0  0  0  0  0  0
   62.8013   30.2904   48.4006 H   0  0  0  0  0  0  0  0  0  0  0  0
   60.6442   31.4878   52.1792 H   0  0  0  0  0  0  0  0  0  0  0  0
   58.3355   32.3639   51.8103 H   0  0  0  0  0  0  0  0  0  0  0  0
   60.0014   31.5236   47.2061 H   0  0  0  0  0  0  0  0  0  0  0  0
   58.5131   29.6577   46.4885 H   0  0  0  0  0  0  0  0  0  0  0  0
  1  2  2  0
  2  3  1  0
  3  4  1  0
  4  5  2  0
  5  6  1  0
  6  7  2  0
  7  8  1  0
  8  9  2  0
  9 10  1  0
  2 11  1  0
 11 12  2  0
 12 13  1  0
 13 14  2  0
 14 15  1  0
 15 16  2  0
 15 17  2  0
 15 18  1  0
 18 19  2  3
 19 20  1  0
 20 21  2  0
 21 22  1  0
 22 23  1  0
 23 24  1  0
 24 25  1  0
 25 26  1  0
 26 27  1  0
 27 28  1  0
 21 29  1  0
 29 30  2  0
 30 31  1  0
 14 32  1  0
 32 33  2  0
  9  4  1  0
 33 11  1  0
 31 19  1  0
 28 23  1  0
  5 34  1  0
  6 35  1  0
  7 36  1  0
  8 37  1  0
 12 38  1  0
 13 39  1  0
 20 40  1  0
 22 41  1  0
 22 42  1  0
 24 43  1  0
 24 44  1  0
 25 45  1  0
 25 46  1  0
 27 47  1  0
 27 48  1  0
 28 49  1  0
 28 50  1  0
 29 51  1  0
 30 52  1  0
 32 53  1  0
 33 54  1  0
M  CHG  3   3  -1  10  -1  31  -1
M  END
>  <UniqueID>  (46) 
43

>  <SMILES>  (46) 
O=C([N-]c1ccccc1[O-])c1ccc(S(=O)(=O)N=c2cc(CN3CCOCC3)cc[n-]2)cc1

>  <Energy>  (46) 
87.0420671104345

>  <Genealogy>  (46) 
O=C([N-]c1ccccc1[O-])c1ccc(S(=O)(=O)N=c2cc(CN3CCOCC3)cc[n-]2)cc1 (protonated)
O=C([N-]c1ccccc1[O-])c1ccc(S(=O)(=O)N=c2cc(CN3CCOCC3)cc[n-]2)cc1 (3D coordinates assigned)
O=C([N-]c1ccccc1[O-])c1ccc(S(=O)(=O)N=c2cc(CN3CCOCC3)cc[n-]2)cc1 (nonaromatic ring conformer: 87.0420671104345 kcal/mol)

>  <smiles>  (46) 
O=C(Nc1ccccc1O)c1ccc(S(=O)(=O)N=c2cc(CN3CCOCC3)cc[nH]2)cc1

>  <score_type>  (46) 
oracle

>  <origin>  (46) 
adg

>  <m_score__min__energy>  (46) 
-16.75

>  <m_primary>  (46) 
energy

$$$$
46:0
     RDKit          3D

 45 47  0  0  0  0  0  0  0  0999 V2000
   57.0480   31.2490   43.4970 C   0  0  0  0  0  0  0  0  0  0  0  0
   57.2050   30.8350   44.8510 O   0  0  0  0  0  0  0  0  0  0  0  0
   57.4690   29.5170   45.2540 C   0  0  0  0  0  0  0  0  0  0  0  0
   58.7550   29.0960   45.6520 C   0  0  0  0  0  0  0  0  0  0  0  0
   58.9770   27.7700   46.0590 C   0  0  0  0  0  0  0  0  0  0  0  0
   60.3470   27.3420   46.5010 C   0  0  0  0  0  0  0  0  0  0  0  0
   60.2490   26.6120   47.7580 N   0  0  0  0  0  0  0  0  0  0  0  0
   60.3870   27.2390   49.0360 C   0  0  0  0  0  0  0  0  0  0  0  0
   60.6890   26.5450   50.0450 O   0  0  0  0  0  0  0  0  0  0  0  0
   60.1670   28.6980   49.1770 C   0  0  0  0  0  0  0  0  0  0  0  0
   58.8650   29.2300   49.1560 C   0  0  0  0  0  0  0  0  0  0  0  0
   58.6600   30.6060   49.2850 C   0  0  0  0  0  0  0  0  0  0  0  0
   59.7440   31.4770   49.4240 C   0  0  0  0  0  0  0  0  0  0  0  0
   59.4920   32.8830   49.5710 N   0  0  0  0  0  0  0  0  0  0  0  0
   59.7760   33.9030   48.6040 C   0  0  0  0  0  0  0  0  0  0  0  0
   60.6280   34.7860   48.8930 O   0  0  0  0  0  0  0  0  0  0  0  0
   59.0570   33.9850   47.3100 C   0  0  0  0  0  0  0  0  0  0  0  0
   57.7520   33.4760   47.1760 C   0  0  0  0  0  0  0  0  0  0  0  0
   57.0830   33.5590   45.9500 C   0  0  0  0  0  0  0  0  0  0  0  0
   57.7080   34.1550   44.8510 C   0  0  0  0  0  0  0  0  0  0  0  0
   58.9970   34.6780   44.9780 C   0  0  0  0  0  0  0  0  0  0  0  0
   59.6680   34.6010   46.2040 C   0  0  0  0  0  0  0  0  0  0  0  0
   61.0460   30.9500   49.4710 C   0  0  0  0  0  0  0  0  0  0  0  0
   61.2550   29.5740   49.3380 C   0  0  0  0  0  0  0  0  0  0  0  0
   57.9060   26.8620   46.0700 C   0  0  0  0  0  0  0  0  0  0  0  0
   56.6330   27.2730   45.6680 C   0  0  0  0  0  0  0  0  0  0  0  0
   56.4150   28.5930   45.2590 C   0  0  0  0  0  0  0  0  0  0  0  0
   55.1440   28.9870   44.8610 O   0  0  0  0  0  0  0  0  0  0  0  0
   56.6581   32.2772   43.4708 H   0  0  0  0  0  0  0  0  0  0  0  0
   58.0221   31.2132   42.9873 H   0  0  0  0  0  0  0  0  0  0  0  0
   56.3426   30.5763   42.9873 H   0  0  0  0  0  0  0  0  0  0  0  0
   59.5905   29.8115   45.6436 H   0  0  0  0  0  0  0  0  0  0  0  0
   60.7927   26.6918   45.7338 H   0  0  0  0  0  0  0  0  0  0  0  0
   60.9794   28.2308   46.6430 H   0  0  0  0  0  0  0  0  0  0  0  0
   58.0023   28.5580   49.0372 H   0  0  0  0  0  0  0  0  0  0  0  0
   57.6359   31.0075   49.2771 H   0  0  0  0  0  0  0  0  0  0  0  0
   57.2551   33.0103   48.0399 H   0  0  0  0  0  0  0  0  0  0  0  0
   56.0647   33.1550   45.8510 H   0  0  0  0  0  0  0  0  0  0  0  0
   57.1844   34.2122   43.8853 H   0  0  0  0  0  0  0  0  0  0  0  0
   59.4854   35.1510   44.1133 H   0  0  0  0  0  0  0  0  0  0  0  0
   60.6784   35.0246   46.3025 H   0  0  0  0  0  0  0  0  0  0  0  0
   61.9044   31.6231   49.6130 H   0  0  0  0  0  0  0  0  0  0  0  0
   62.2792   29.1733   49.3595 H   0  0  0  0  0  0  0  0  0  0  0  0
   58.0699   25.8243   46.3961 H   0  0  0  0  0  0  0  0  0  0  0  0
   55.7987   26.5561   45.6730 H   0  0  0  0  0  0  0  0  0  0  0  0
  1  2  1  0
  2  3  1  0
  3  4  2  0
  4  5  1  0
  5  6  1  0
  6  7  1  0
  7  8  1  0
  8  9  2  0
  8 10  1  0
 10 11  2  0
 11 12  1  0
 12 13  2  0
 13 14  1  0
 14 15  1  0
 15 16  2  0
 15 17  1  0
 17 18  2  0
 18 19  1  0
 19 20  2  0
 20 21  1  0
 21 22  2  0
 13 23  1  0
 23 24  2  0
  5 25  2  0
 25 26  1  0
 26 27  2  0
 27 28  1  0
 27  3  1  0
 24 10  1  0
 22 17  1  0
  1 29  1  0
  1 30  1  0
  1 31  1  0
  4 32  1  0
  6 33  1  0
  6 34  1  0
 11 35  1  0
 12 36  1  0
 18 37  1  0
 19 38  1  0
 20 39  1  0
 21 40  1  0
 22 41  1  0
 23 42  1  0
 24 43  1  0
 25 44  1  0
 26 45  1  0
M  CHG  3   7  -1  14  -1  28  -1
M  END
>  <UniqueID>  (47) 
44

>  <SMILES>  (47) 
COc1cc(C[N-]C(=O)c2ccc([N-]C(=O)c3ccccc3)cc2)ccc1[O-]

>  <Energy>  (47) 
52.4720798250963

>  <Genealogy>  (47) 
COc1cc(C[N-]C(=O)c2ccc([N-]C(=O)c3ccccc3)cc2)ccc1[O-] (protonated)
COc1cc(C[N-]C(=O)c2ccc([N-]C(=O)c3ccccc3)cc2)ccc1[O-] (3D coordinates assigned)
COc1cc(C[N-]C(=O)c2ccc([N-]C(=O)c3ccccc3)cc2)ccc1[O-] (optimized conformer: 52.4720798250963 kcal/mol)

>  <smiles>  (47) 
COc1cc(CNC(=O)c2ccc(NC(=O)c3ccccc3)cc2)ccc1O

>  <score_type>  (47) 
oracle

>  <origin>  (47) 
adg

>  <m_score__min__energy>  (47) 
-14.300000000000001

>  <m_primary>  (47) 
energy

$$$$
47:0
     RDKit          3D

 55 58  0  0  0  0  0  0  0  0999 V2000
   53.9810   26.7170   46.3670 H   0  0  0  0  0  0  0  0  0  0  0  0
   54.7060   26.2560   45.7740 N   0  0  0  0  0  0  0  0  0  0  0  0
   55.9880   25.9200   46.3030 C   0  0  0  0  0  0  0  0  0  0  0  0
   56.1550   24.7720   46.7970 O   0  0  0  0  0  0  0  0  0  0  0  0
   57.1030   26.9110   46.2650 C   0  0  0  0  0  0  0  0  0  0  0  0
   58.3310   26.5800   46.8700 C   0  0  0  0  0  0  0  0  0  0  0  0
   58.4485   25.6003   47.3563 H   0  0  0  0  0  0  0  0  0  0  0  0
   59.4000   27.4750   46.8620 C   0  0  0  0  0  0  0  0  0  0  0  0
   60.3510   27.1951   47.3388 H   0  0  0  0  0  0  0  0  0  0  0  0
   59.2710   28.7210   46.2540 C   0  0  0  0  0  0  0  0  0  0  0  0
   60.1206   29.4197   46.2550 H   0  0  0  0  0  0  0  0  0  0  0  0
   58.0610   29.0930   45.6380 C   0  0  0  0  0  0  0  0  0  0  0  0
   57.9060   30.3560   45.0140 C   0  0  0  0  0  0  0  0  0  0  0  0
   58.8950   31.2110   45.0350 N   0  0  0  0  0  0  0  0  0  0  0  0
   58.9070   32.5060   45.6560 C   0  0  0  0  0  0  0  0  0  0  0  0
   58.8950   33.6680   44.8670 C   0  0  0  0  0  0  0  0  0  0  0  0
   58.8404   33.5844   43.7715 H   0  0  0  0  0  0  0  0  0  0  0  0
   58.9520   34.9290   45.4650 C   0  0  0  0  0  0  0  0  0  0  0  0
   58.9252   35.8351   44.8419 H   0  0  0  0  0  0  0  0  0  0  0  0
   59.0430   35.0390   46.8540 C   0  0  0  0  0  0  0  0  0  0  0  0
   59.0919   36.0319   47.3249 H   0  0  0  0  0  0  0  0  0  0  0  0
   59.0720   33.8880   47.6460 C   0  0  0  0  0  0  0  0  0  0  0  0
   59.1456   33.9790   48.7398 H   0  0  0  0  0  0  0  0  0  0  0  0
   59.0080   32.6190   47.0560 C   0  0  0  0  0  0  0  0  0  0  0  0
   59.0900   31.1630   48.1110 S   0  0  0  0  0  0  0  0  0  0  0  0
   59.1750   32.1060   49.6440 C   0  0  0  0  0  0  0  0  0  0  0  0
   58.0340   32.1700   50.4570 C   0  0  0  0  0  0  0  0  0  0  0  0
   57.1157   31.6463   50.1529 H   0  0  0  0  0  0  0  0  0  0  0  0
   58.0570   32.8940   51.6490 C   0  0  0  0  0  0  0  0  0  0  0  0
   57.1497   32.9654   52.2669 H   0  0  0  0  0  0  0  0  0  0  0  0
   59.2300   33.5270   52.0570 C   0  0  0  0  0  0  0  0  0  0  0  0
   59.2484   34.0927   53.0002 H   0  0  0  0  0  0  0  0  0  0  0  0
   60.3830   33.4450   51.2710 C   0  0  0  0  0  0  0  0  0  0  0  0
   61.3133   33.9213   51.6140 H   0  0  0  0  0  0  0  0  0  0  0  0
   60.3610   32.7560   50.0420 C   0  0  0  0  0  0  0  0  0  0  0  0
   61.5340   32.6480   49.2170 N   0  0  0  0  0  0  0  0  0  0  0  0
   62.6820   33.5090   49.2280 C   0  0  0  0  0  0  0  0  0  0  0  0
   62.6340   34.6480   49.7680 O   0  0  0  0  0  0  0  0  0  0  0  0
   63.9560   33.0410   48.5830 C   0  0  0  0  0  0  0  0  0  0  0  0
   64.7067   33.8404   48.6692 H   0  0  0  0  0  0  0  0  0  0  0  0
   64.2705   32.1242   49.1032 H   0  0  0  0  0  0  0  0  0  0  0  0
   63.7830   32.6890   47.0940 C   0  0  0  0  0  0  0  0  0  0  0  0
   64.7691   32.4359   46.6773 H   0  0  0  0  0  0  0  0  0  0  0  0
   63.0819   31.8433   47.0364 H   0  0  0  0  0  0  0  0  0  0  0  0
   63.1840   33.8370   46.2690 C   0  0  0  0  0  0  0  0  0  0  0  0
   63.5690   34.7936   46.6521 H   0  0  0  0  0  0  0  0  0  0  0  0
   63.4718   33.6979   45.2165 H   0  0  0  0  0  0  0  0  0  0  0  0
   61.7840   33.8410   46.3510 O   0  0  0  0  0  0  0  0  0  0  0  0
   61.5480   33.4430   47.2310 H   0  0  0  0  0  0  0  0  0  0  0  0
   56.6610   30.6780   44.4390 C   0  0  0  0  0  0  0  0  0  0  0  0
   56.5113   31.6592   43.9648 H   0  0  0  0  0  0  0  0  0  0  0  0
   55.6200   29.7540   44.4710 C   0  0  0  0  0  0  0  0  0  0  0  0
   54.6511   30.0048   44.0145 H   0  0  0  0  0  0  0  0  0  0  0  0
   55.7950   28.5470   45.0620 N   0  0  0  0  0  0  0  0  0  0  0  0
   56.9710   28.1830   45.6460 C   0  0  0  0  0  0  0  0  0  0  0  0
  1  2  1  0
  2  3  1  0
  3  4  2  0
  3  5  1  0
  5  6  2  0
  6  7  1  0
  6  8  1  0
  8  9  1  0
  8 10  2  0
 10 11  1  0
 10 12  1  0
 12 13  1  0
 13 14  2  0
 14 15  1  0
 15 16  2  0
 16 17  1  0
 16 18  1  0
 18 19  1  0
 18 20  2  0
 20 21  1  0
 20 22  1  0
 22 23  1  0
 22 24  2  0
 24 25  1  0
 25 26  1  0
 26 27  2  0
 27 28  1  0
 27 29  1  0
 29 30  1  0
 29 31  2  0
 31 32  1  0
 31 33  1  0
 33 34  1  0
 33 35  2  0
 35 36  1  0
 36 37  1  0
 37 38  2  0
 37 39  1  0
 39 40  1  0
 39 41  1  0
 39 42  1  0
 42 43  1  0
 42 44  1  0
 42 45  1  0
 45 46  1  0
 45 47  1  0
 45 48  1  0
 48 49  1  0
 13 50  1  0
 50 51  1  0
 50 52  2  0
 52 53  1  0
 52 54  1  0
 54 55  1  0
 55  5  1  0
 55 12  2  0
 24 15  1  0
 35 26  1  0
M  CHG  3   2  -1  36  -1  54  -1
M  END
>  <UniqueID>  (48) 
45

>  <SMILES>  (48) 
[NH-]C(=O)c1cccc2/c(=N/c3ccccc3Sc3ccccc3[N-]C(=O)CCCO)cc[n-]c12

>  <Energy>  (48) 
69.79773226075105

>  <Genealogy>  (48) 
[NH-]C(=O)c1cccc2c(=Nc3ccccc3Sc3ccccc3[N-]C(=O)CCCO)cc[n-]c12 (protonated)
[NH-]C(=O)c1cccc2/c(=N/c3ccccc3Sc3ccccc3[N-]C(=O)CCCO)cc[n-]c12 (cis-trans isomerization)
[NH-]C(=O)c1cccc2/c(=N/c3ccccc3Sc3ccccc3[N-]C(=O)CCCO)cc[n-]c12 (3D coordinates assigned)
[NH-]C(=O)c1cccc2/c(=N/c3ccccc3Sc3ccccc3[N-]C(=O)CCCO)cc[n-]c12 (optimized conformer: 69.79773226075105 kcal/mol)

>  <smiles>  (48) 
NC(=O)c1cccc2c(=Nc3ccccc3Sc3ccccc3NC(=O)CCCO)cc[nH]c12

>  <score_type>  (48) 
oracle

>  <origin>  (48) 
adg

>  <m_score__min__energy>  (48) 
-16.66

>  <m_primary>  (48) 
energy

$$$$
48:0
     RDKit          3D

 31 32  0  0  0  0  0  0  0  0999 V2000
   55.5290   29.3180   45.2050 N   0  0  0  0  0  0  0  0  0  0  0  0
   56.6370   29.8410   43.9840 S   0  0  0  0  0  0  0  0  0  0  0  0
   55.8720   30.1110   42.7200 O   0  0  0  0  0  0  0  0  0  0  0  0
   57.6390   28.7450   43.7430 O   0  0  0  0  0  0  0  0  0  0  0  0
   57.4810   31.3130   44.4840 C   0  0  0  0  0  0  0  0  0  0  0  0
   57.6540   31.5840   45.8500 C   0  0  0  0  0  0  0  0  0  0  0  0
   58.3330   32.7330   46.2750 C   0  0  0  0  0  0  0  0  0  0  0  0
   58.4850   32.9580   47.6820 N   0  0  0  0  0  0  0  0  0  0  0  0
   59.7420   33.1590   48.3360 C   0  0  0  0  0  0  0  0  0  0  0  0
   59.9480   34.2110   49.0010 O   0  0  0  0  0  0  0  0  0  0  0  0
   60.7550   32.1490   48.2330 N   0  0  0  0  0  0  0  0  0  0  0  0
   62.1070   32.3100   48.6910 C   0  0  0  0  0  0  0  0  0  0  0  0
   62.9830   33.2300   48.0880 C   0  0  0  0  0  0  0  0  0  0  0  0
   64.3000   33.3500   48.5380 C   0  0  0  0  0  0  0  0  0  0  0  0
   64.7650   32.5460   49.5850 C   0  0  0  0  0  0  0  0  0  0  0  0
   66.4300   32.7270   50.1230 Cl  0  0  0  0  0  0  0  0  0  0  0  0
   63.9040   31.6080   50.1780 C   0  0  0  0  0  0  0  0  0  0  0  0
   64.4510   30.5700   51.4870 Cl  0  0  0  0  0  0  0  0  0  0  0  0
   62.5850   31.4900   49.7240 C   0  0  0  0  0  0  0  0  0  0  0  0
   58.7990   33.6570   45.3180 C   0  0  0  0  0  0  0  0  0  0  0  0
   59.5190   35.1930   45.7850 Cl  0  0  0  0  0  0  0  0  0  0  0  0
   58.6220   33.3930   43.9570 C   0  0  0  0  0  0  0  0  0  0  0  0
   57.9740   32.2280   43.5330 C   0  0  0  0  0  0  0  0  0  0  0  0
   57.7770   31.9680   41.8030 Cl  0  0  0  0  0  0  0  0  0  0  0  0
   54.5740   29.3430   44.7820 H   0  0  0  0  0  0  0  0  0  0  0  0
   57.2509   30.8845   46.5971 H   0  0  0  0  0  0  0  0  0  0  0  0
   60.4590   31.2080   47.8890 H   0  0  0  0  0  0  0  0  0  0  0  0
   62.6293   33.8586   47.2575 H   0  0  0  0  0  0  0  0  0  0  0  0
   64.9749   34.0799   48.0672 H   0  0  0  0  0  0  0  0  0  0  0  0
   61.9163   30.7464   50.1821 H   0  0  0  0  0  0  0  0  0  0  0  0
   58.9964   34.1093   43.2109 H   0  0  0  0  0  0  0  0  0  0  0  0
  1  2  1  0
  2  3  2  0
  2  4  2  0
  2  5  1  0
  5  6  2  0
  6  7  1  0
  7  8  1  0
  8  9  1  0
  9 10  2  0
  9 11  1  0
 11 12  1  0
 12 13  2  0
 13 14  1  0
 14 15  2  0
 15 16  1  0
 15 17  1  0
 17 18  1  0
 17 19  2  0
  7 20  2  0
 20 21  1  0
 20 22  1  0
 22 23  2  0
 23 24  1  0
 23  5  1  0
 19 12  1  0
  1 25  1  0
  6 26  1  0
 11 27  1  0
 13 28  1  0
 14 29  1  0
 19 30  1  0
 22 31  1  0
M  CHG  2   1  -1   8  -1
M  END
>  <UniqueID>  (49) 
46

>  <SMILES>  (49) 
[NH-]S(=O)(=O)c1cc([N-]C(=O)Nc2ccc(Cl)c(Cl)c2)c(Cl)cc1Cl

>  <Energy>  (49) 
44.363813964299965

>  <Genealogy>  (49) 
[NH-]S(=O)(=O)c1cc([N-]C(=O)Nc2ccc(Cl)c(Cl)c2)c(Cl)cc1Cl (protonated)
[NH-]S(=O)(=O)c1cc([N-]C(=O)Nc2ccc(Cl)c(Cl)c2)c(Cl)cc1Cl (3D coordinates assigned)
[NH-]S(=O)(=O)c1cc([N-]C(=O)Nc2ccc(Cl)c(Cl)c2)c(Cl)cc1Cl (optimized conformer: 44.363813964299965 kcal/mol)

>  <smiles>  (49) 
NS(=O)(=O)c1cc(NC(=O)Nc2ccc(Cl)c(Cl)c2)c(Cl)cc1Cl

>  <score_type>  (49) 
oracle

>  <origin>  (49) 
adg

>  <m_score__min__energy>  (49) 
-12.1

>  <m_primary>  (49) 
energy

$$$$
49:0
     RDKit          3D

 27 28  0  0  0  0  0  0  0  0999 V2000
   61.1110   30.4640   46.7200 C   0  0  0  0  0  0  0  0  0  0  0  0
   60.6200   29.6260   45.6810 O   0  0  0  0  0  0  0  0  0  0  0  0
   59.4300   28.8990   45.7930 C   0  0  0  0  0  0  0  0  0  0  0  0
   58.2170   29.5050   45.4080 C   0  0  0  0  0  0  0  0  0  0  0  0
   57.0160   28.7730   45.5210 C   0  0  0  0  0  0  0  0  0  0  0  0
   55.7670   29.2980   45.1610 O   0  0  0  0  0  0  0  0  0  0  0  0
   55.5370   30.0940   44.0040 C   0  0  0  0  0  0  0  0  0  0  0  0
   57.1060   27.5070   46.0020 N   0  0  0  0  0  0  0  0  0  0  0  0
   56.1730   26.5660   46.2270 C   0  0  0  0  0  0  0  0  0  0  0  0
   54.8120   26.7150   45.9900 O   0  0  0  0  0  0  0  0  0  0  0  0
   56.8050   25.4400   46.7250 C   0  0  0  0  0  0  0  0  0  0  0  0
   56.0190   23.8990   47.1900 S   0  0  0  0  0  0  0  0  0  0  0  0
   55.1920   23.7050   45.5820 C   0  0  0  0  0  0  0  0  0  0  0  0
   58.1330   25.6800   46.8140 N   0  0  0  0  0  0  0  0  0  0  0  0
   58.2690   26.9430   46.3650 C   0  0  0  0  0  0  0  0  0  0  0  0
   59.4400   27.6170   46.2690 N   0  0  0  0  0  0  0  0  0  0  0  0
   60.8546   30.0264   47.6961 H   0  0  0  0  0  0  0  0  0  0  0  0
   62.2040   30.5528   46.6338 H   0  0  0  0  0  0  0  0  0  0  0  0
   60.6542   31.4609   46.6338 H   0  0  0  0  0  0  0  0  0  0  0  0
   58.2068   30.5358   45.0242 H   0  0  0  0  0  0  0  0  0  0  0  0
   55.2437   31.1091   44.3097 H   0  0  0  0  0  0  0  0  0  0  0  0
   56.4576   30.1434   43.4040 H   0  0  0  0  0  0  0  0  0  0  0  0
   54.7319   29.6448   43.4040 H   0  0  0  0  0  0  0  0  0  0  0  0
   54.1325   23.4565   45.7422 H   0  0  0  0  0  0  0  0  0  0  0  0
   55.2665   24.6450   45.0156 H   0  0  0  0  0  0  0  0  0  0  0  0
   55.6768   22.8962   45.0156 H   0  0  0  0  0  0  0  0  0  0  0  0
   58.8800   25.0330   47.1500 H   0  0  0  0  0  0  0  0  0  0  0  0
  1  2  1  0
  2  3  1  0
  3  4  1  0
  4  5  2  0
  5  6  1  0
  6  7  1  0
  5  8  1  0
  8  9  1  0
  9 10  1  0
  9 11  2  0
 11 12  1  0
 12 13  1  0
 11 14  1  0
 14 15  2  0
 15 16  1  0
 16  3  2  0
 15  8  1  0
  1 17  1  0
  1 18  1  0
  1 19  1  0
  4 20  1  0
  7 21  1  0
  7 22  1  0
  7 23  1  0
 13 24  1  0
 13 25  1  0
 13 26  1  0
 14 27  1  0
M  CHG  2  10  -1  14   1
M  END
>  <UniqueID>  (50) 
47

>  <SMILES>  (50) 
COc1cc(OC)n2c([O-])c(SC)[nH+]c2n1

>  <Energy>  (50) 
59.768441941653045

>  <Genealogy>  (50) 
COc1cc(OC)n2c([O-])c(SC)[nH+]c2n1 (protonated)
COc1cc(OC)n2c([O-])c(SC)[nH+]c2n1 (3D coordinates assigned)
COc1cc(OC)n2c([O-])c(SC)[nH+]c2n1 (optimized conformer: 59.768441941653045 kcal/mol)

>  <smiles>  (50) 
COc1cc(OC)n2c(O)c(SC)nc2n1

>  <score_type>  (50) 
oracle

>  <origin>  (50) 
adg

>  <m_score__min__energy>  (50) 
-7.3200000000000003

>  <m_primary>  (50) 
energy

$$$$
50:0
     RDKit          3D

 45 47  0  0  0  0  0  0  0  0999 V2000
   60.8489   28.2789   48.4747 H   0  0  0  0  0  0  0  0  0  0  0  0
   60.2810   29.1890   48.7180 C   0  0  0  0  0  0  0  0  0  0  0  0
   60.2500   30.6010   47.8070 S   0  0  0  0  0  0  0  0  0  0  0  0
   59.2130   31.4530   48.8260 C   0  0  0  0  0  0  0  0  0  0  0  0
   58.6960   32.7710   48.5990 N   0  0  0  0  0  0  0  0  0  0  0  0
   58.9800   33.6150   47.4780 C   0  0  0  0  0  0  0  0  0  0  0  0
   60.1420   34.0610   47.2800 O   0  0  0  0  0  0  0  0  0  0  0  0
   57.8930   33.9290   46.5020 C   0  0  0  0  0  0  0  0  0  0  0  0
   57.6820   35.0083   46.5239 H   0  0  0  0  0  0  0  0  0  0  0  0
   56.9852   33.3706   46.7743 H   0  0  0  0  0  0  0  0  0  0  0  0
   58.4200   33.4470   44.8220 S   0  0  0  0  0  0  0  0  0  0  0  0
   57.6100   31.8480   44.8470 C   0  0  0  0  0  0  0  0  0  0  0  0
   56.2680   31.6960   44.8690 N   0  0  0  0  0  0  0  0  0  0  0  0
   55.8860   30.4200   44.8470 N   0  0  0  0  0  0  0  0  0  0  0  0
   56.9290   29.5590   44.8180 C   0  0  0  0  0  0  0  0  0  0  0  0
   56.8110   28.2670   44.7600 N   0  0  0  0  0  0  0  0  0  0  0  0
   57.3290   27.3270   45.7160 C   0  0  0  0  0  0  0  0  0  0  0  0
   58.6720   27.4510   46.0980 C   0  0  0  0  0  0  0  0  0  0  0  0
   59.2914   28.2492   45.6629 H   0  0  0  0  0  0  0  0  0  0  0  0
   59.2300   26.5700   47.0260 C   0  0  0  0  0  0  0  0  0  0  0  0
   60.2889   26.6664   47.3077 H   0  0  0  0  0  0  0  0  0  0  0  0
   58.4460   25.5680   47.5960 C   0  0  0  0  0  0  0  0  0  0  0  0
   58.8910   24.8665   48.3170 H   0  0  0  0  0  0  0  0  0  0  0  0
   57.0980   25.4530   47.2540 C   0  0  0  0  0  0  0  0  0  0  0  0
   56.4836   24.6646   47.7132 H   0  0  0  0  0  0  0  0  0  0  0  0
   56.5170   26.3410   46.3230 C   0  0  0  0  0  0  0  0  0  0  0  0
   55.1470   26.2970   46.0120 O   0  0  0  0  0  0  0  0  0  0  0  0
   54.4150   25.1370   45.6210 C   0  0  0  0  0  0  0  0  0  0  0  0
   53.5776   25.4394   44.9750 H   0  0  0  0  0  0  0  0  0  0  0  0
   54.0387   24.6356   46.5248 H   0  0  0  0  0  0  0  0  0  0  0  0
   55.3090   24.1660   44.8590 C   0  0  0  0  0  0  0  0  0  0  0  0
   55.8753   23.5509   45.5738 H   0  0  0  0  0  0  0  0  0  0  0  0
   54.6877   23.5148   44.2266 H   0  0  0  0  0  0  0  0  0  0  0  0
   56.0092   24.7315   44.2266 H   0  0  0  0  0  0  0  0  0  0  0  0
   58.4060   30.3620   44.7850 S   0  0  0  0  0  0  0  0  0  0  0  0
   58.8610   30.6340   49.8980 C   0  0  0  0  0  0  0  0  0  0  0  0
   57.9450   31.0330   50.9840 C   0  0  0  0  0  0  0  0  0  0  0  0
   57.9110   32.2340   51.3630 O   0  0  0  0  0  0  0  0  0  0  0  0
   57.1140   30.0810   51.5830 O   0  0  0  0  0  0  0  0  0  0  0  0
   56.0200   30.4320   52.4190 C   0  0  0  0  0  0  0  0  0  0  0  0
   56.3187   30.3362   53.4733 H   0  0  0  0  0  0  0  0  0  0  0  0
   55.7216   31.4710   52.2154 H   0  0  0  0  0  0  0  0  0  0  0  0
   55.1728   29.7606   52.2154 H   0  0  0  0  0  0  0  0  0  0  0  0
   59.4680   29.3660   49.8300 C   0  0  0  0  0  0  0  0  0  0  0  0
   59.3125   28.5854   50.5893 H   0  0  0  0  0  0  0  0  0  0  0  0
  1  2  1  0
  2  3  1  0
  3  4  1  0
  4  5  1  0
  5  6  1  0
  6  7  2  0
  6  8  1  0
  8  9  1  0
  8 10  1  0
  8 11  1  0
 11 12  1  0
 12 13  2  0
 13 14  1  0
 14 15  1  0
 15 16  2  0
 16 17  1  0
 17 18  2  0
 18 19  1  0
 18 20  1  0
 20 21  1  0
 20 22  2  0
 22 23  1  0
 22 24  1  0
 24 25  1  0
 24 26  2  0
 26 27  1  0
 27 28  1  0
 28 29  1  0
 28 30  1  0
 28 31  1  0
 31 32  1  0
 31 33  1  0
 31 34  1  0
 15 35  1  0
  4 36  2  0
 36 37  1  0
 37 38  2  0
 37 39  1  0
 39 40  1  0
 40 41  1  0
 40 42  1  0
 40 43  1  0
 36 44  1  0
 44 45  1  0
 44  2  2  0
 35 12  1  0
 26 17  1  0
M  CHG  2   5  -1  14  -1
M  END
>  <UniqueID>  (51) 
48

>  <SMILES>  (51) 
CCOc1ccccc1/N=c1\[n-]nc(SCC(=O)[N-]c2sccc2C(=O)OC)s1

>  <Energy>  (51) 
104.51112963079385

>  <Genealogy>  (51) 
CCOc1ccccc1N=c1[n-]nc(SCC(=O)[N-]c2sccc2C(=O)OC)s1 (protonated)
CCOc1ccccc1/N=c1\[n-]nc(SCC(=O)[N-]c2sccc2C(=O)OC)s1 (cis-trans isomerization)
CCOc1ccccc1/N=c1\[n-]nc(SCC(=O)[N-]c2sccc2C(=O)OC)s1 (3D coordinates assigned)
CCOc1ccccc1/N=c1\[n-]nc(SCC(=O)[N-]c2sccc2C(=O)OC)s1 (optimized conformer: 104.51112963079385 kcal/mol)

>  <smiles>  (51) 
CCOc1ccccc1N=c1[nH]nc(SCC(=O)Nc2sccc2C(=O)OC)s1

>  <score_type>  (51) 
oracle

>  <origin>  (51) 
adg

>  <m_score__min__energy>  (51) 
-11.449999999999999

>  <m_primary>  (51) 
energy

$$$$
51:0
     RDKit          3D

 58 62  0  0  0  0  0  0  0  0999 V2000
   59.1820   24.2840   46.3340 O   0  0  0  0  0  0  0  0  0  0  0  0
   58.5870   25.3920   46.2430 C   0  0  0  0  0  0  0  0  0  0  0  0
   57.3190   25.6140   47.0170 C   0  0  0  0  0  0  0  0  0  0  0  0
   56.2680   24.6980   46.5670 N   0  0  0  0  0  0  0  0  0  0  0  0
   55.0790   25.0370   46.0350 C   0  0  0  0  0  0  0  0  0  0  0  0
   54.7070   26.3400   45.7300 O   0  0  0  0  0  0  0  0  0  0  0  0
   54.2670   23.9310   45.8860 C   0  0  0  0  0  0  0  0  0  0  0  0
   54.9890   22.8570   46.3750 C   0  0  0  0  0  0  0  0  0  0  0  0
   56.2020   23.3710   46.7990 C   0  0  0  0  0  0  0  0  0  0  0  0
   57.2130   22.6380   47.4180 O   0  0  0  0  0  0  0  0  0  0  0  0
   59.1120   26.4480   45.4260 N   0  0  0  0  0  0  0  0  0  0  0  0
   58.8580   27.8580   45.5100 C   0  0  0  0  0  0  0  0  0  0  0  0
   58.1030   28.4500   44.5000 C   0  0  0  0  0  0  0  0  0  0  0  0
   57.8430   29.8220   44.5190 C   0  0  0  0  0  0  0  0  0  0  0  0
   58.3740   30.6440   45.5320 C   0  0  0  0  0  0  0  0  0  0  0  0
   59.1630   30.0590   46.5430 C   0  0  0  0  0  0  0  0  0  0  0  0
   59.4030   28.6700   46.5240 C   0  0  0  0  0  0  0  0  0  0  0  0
   59.7740   30.8780   47.6090 C   0  0  0  0  0  0  0  0  0  0  0  0
   59.5730   30.5950   48.8210 O   0  0  0  0  0  0  0  0  0  0  0  0
   60.6900   31.9800   47.2620 C   0  0  0  0  0  0  0  0  0  0  0  0
   61.9930   32.0030   47.8270 C   0  0  0  0  0  0  0  0  0  0  0  0
   62.3840   30.9590   48.7340 N   0  0  0  0  0  0  0  0  0  0  0  0
   62.4550   31.0480   50.1620 C   0  0  0  0  0  0  0  0  0  0  0  0
   61.6730   30.3670   50.8860 O   0  0  0  0  0  0  0  0  0  0  0  0
   63.4450   31.9940   50.7780 C   0  0  0  0  0  0  0  0  0  0  0  0
   62.9320   33.7480   50.6560 S   0  0  0  0  0  0  0  0  0  0  0  0
   61.2220   33.4480   51.1170 C   0  0  0  0  0  0  0  0  0  0  0  0
   60.8790   33.2240   52.4590 C   0  0  0  0  0  0  0  0  0  0  0  0
   59.5470   32.9890   52.8130 C   0  0  0  0  0  0  0  0  0  0  0  0
   58.5570   32.9480   51.8250 C   0  0  0  0  0  0  0  0  0  0  0  0
   58.8980   33.1630   50.4850 C   0  0  0  0  0  0  0  0  0  0  0  0
   60.2280   33.4170   50.1320 C   0  0  0  0  0  0  0  0  0  0  0  0
   62.8500   33.0830   47.5580 C   0  0  0  0  0  0  0  0  0  0  0  0
   62.4390   34.1180   46.7220 C   0  0  0  0  0  0  0  0  0  0  0  0
   61.1610   34.1010   46.1650 C   0  0  0  0  0  0  0  0  0  0  0  0
   60.2660   33.0450   46.4290 C   0  0  0  0  0  0  0  0  0  0  0  0
   58.8600   33.1900   45.9500 C   0  0  0  0  0  0  0  0  0  0  0  0
   58.3980   34.3560   45.8230 O   0  0  0  0  0  0  0  0  0  0  0  0
   57.9660   32.0700   45.5720 C   0  0  0  0  0  0  0  0  0  0  0  0
   56.7860   32.3590   45.2300 O   0  0  0  0  0  0  0  0  0  0  0  0
   57.5140   25.4420   48.0858 H   0  0  0  0  0  0  0  0  0  0  0  0
   56.9809   26.6475   46.8511 H   0  0  0  0  0  0  0  0  0  0  0  0
   53.2515   23.9081   45.4639 H   0  0  0  0  0  0  0  0  0  0  0  0
   54.6646   21.8068   46.4181 H   0  0  0  0  0  0  0  0  0  0  0  0
   58.1470   23.0210   47.5110 H   0  0  0  0  0  0  0  0  0  0  0  0
   57.7082   27.8315   43.6805 H   0  0  0  0  0  0  0  0  0  0  0  0
   57.2153   30.2665   43.7326 H   0  0  0  0  0  0  0  0  0  0  0  0
   60.0232   28.2148   47.3102 H   0  0  0  0  0  0  0  0  0  0  0  0
   63.5613   31.7361   51.8410 H   0  0  0  0  0  0  0  0  0  0  0  0
   64.3892   31.8885   50.2236 H   0  0  0  0  0  0  0  0  0  0  0  0
   61.6596   33.2333   53.2340 H   0  0  0  0  0  0  0  0  0  0  0  0
   59.2772   32.8363   53.8684 H   0  0  0  0  0  0  0  0  0  0  0  0
   57.5115   32.7469   52.1015 H   0  0  0  0  0  0  0  0  0  0  0  0
   58.1197   33.1323   49.7083 H   0  0  0  0  0  0  0  0  0  0  0  0
   60.4928   33.5926   49.0789 H   0  0  0  0  0  0  0  0  0  0  0  0
   63.8522   33.1113   48.0106 H   0  0  0  0  0  0  0  0  0  0  0  0
   63.1236   34.9501   46.5008 H   0  0  0  0  0  0  0  0  0  0  0  0
   60.8461   34.9256   45.5086 H   0  0  0  0  0  0  0  0  0  0  0  0
  1  2  2  0
  2  3  1  0
  3  4  1  0
  4  5  1  0
  5  6  1  0
  5  7  2  0
  7  8  1  0
  8  9  2  0
  9 10  1  0
  2 11  1  0
 11 12  1  0
 12 13  2  0
 13 14  1  0
 14 15  2  0
 15 16  1  0
 16 17  2  0
 16 18  1  0
 18 19  2  0
 18 20  1  0
 20 21  2  0
 21 22  1  0
 22 23  1  0
 23 24  2  0
 23 25  1  0
 25 26  1  0
 26 27  1  0
 27 28  2  0
 28 29  1  0
 29 30  2  0
 30 31  1  0
 31 32  2  0
 21 33  1  0
 33 34  2  0
 34 35  1  0
 35 36  2  0
 36 37  1  0
 37 38  2  0
 37 39  1  0
 39 40  2  0
  9  4  1  0
 17 12  1  0
 36 20  1  0
 39 15  1  0
 32 27  1  0
  3 41  1  0
  3 42  1  0
  7 43  1  0
  8 44  1  0
 10 45  1  0
 13 46  1  0
 14 47  1  0
 17 48  1  0
 25 49  1  0
 25 50  1  0
 28 51  1  0
 29 52  1  0
 30 53  1  0
 31 54  1  0
 32 55  1  0
 33 56  1  0
 34 57  1  0
 35 58  1  0
M  CHG  3   6  -1  11  -1  22  -1
M  END
>  <UniqueID>  (52) 
49

>  <SMILES>  (52) 
O=C(Cn1c([O-])ccc1O)[N-]c1ccc2c(c1)C(=O)c1c([N-]C(=O)CSc3ccccc3)cccc1C(=O)C2=O

>  <Energy>  (52) 
122.65277363408504

>  <Genealogy>  (52) 
O=C(Cn1c([O-])ccc1O)[N-]c1ccc2c(c1)C(=O)c1c([N-]C(=O)CSc3ccccc3)cccc1C(=O)C2=O (protonated)
O=C(Cn1c([O-])ccc1O)[N-]c1ccc2c(c1)C(=O)c1c([N-]C(=O)CSc3ccccc3)cccc1C(=O)C2=O (3D coordinates assigned)
O=C(Cn1c([O-])ccc1O)[N-]c1ccc2c(c1)C(=O)c1c([N-]C(=O)CSc3ccccc3)cccc1C(=O)C2=O (nonaromatic ring conformer: 122.65277363408504 kcal/mol)

>  <smiles>  (52) 
O=C(Cn1c(O)ccc1O)Nc1ccc2c(c1)C(=O)c1c(NC(=O)CSc3ccccc3)cccc1C(=O)C2=O

>  <score_type>  (52) 
oracle

>  <origin>  (52) 
adg

>  <m_score__min__energy>  (52) 
-15.539999999999999

>  <m_primary>  (52) 
energy

$$$$
52:0
     RDKit          3D

 52 55  0  0  0  0  0  0  0  0999 V2000
   55.2590   29.1320   45.6300 H   0  0  0  0  0  0  0  0  0  0  0  0
   56.2930   29.2420   45.5230 N   0  0  0  0  0  0  0  0  0  0  0  0
   56.9950   27.6820   45.7620 S   0  0  0  0  0  0  0  0  0  0  0  0
   55.9190   26.6920   46.1030 O   0  0  0  0  0  0  0  0  0  0  0  0
   57.6710   27.2420   44.4940 O   0  0  0  0  0  0  0  0  0  0  0  0
   58.1660   27.7580   47.0760 C   0  0  0  0  0  0  0  0  0  0  0  0
   59.0250   26.6800   47.3260 C   0  0  0  0  0  0  0  0  0  0  0  0
   58.9550   25.7686   46.7141 H   0  0  0  0  0  0  0  0  0  0  0  0
   59.9710   26.7610   48.3520 C   0  0  0  0  0  0  0  0  0  0  0  0
   60.6483   25.9153   48.5421 H   0  0  0  0  0  0  0  0  0  0  0  0
   60.0580   27.9130   49.1360 C   0  0  0  0  0  0  0  0  0  0  0  0
   60.8136   27.9761   49.9329 H   0  0  0  0  0  0  0  0  0  0  0  0
   59.1890   28.9890   48.9140 C   0  0  0  0  0  0  0  0  0  0  0  0
   59.3340   30.1750   49.7140 N   0  0  0  0  0  0  0  0  0  0  0  0
   58.6160   30.5030   50.7490 C   0  0  0  0  0  0  0  0  0  0  0  0
   59.1140   31.3870   51.6480 N   0  0  0  0  0  0  0  0  0  0  0  0
   58.3890   31.7450   52.7410 C   0  0  0  0  0  0  0  0  0  0  0  0
   58.9120   32.7080   53.6800 N   0  0  0  0  0  0  0  0  0  0  0  0
   58.8980   32.4420   55.1240 C   0  0  0  0  0  0  0  0  0  0  0  0
   59.8773   32.0500   55.4358 H   0  0  0  0  0  0  0  0  0  0  0  0
   58.1200   31.6999   55.3565 H   0  0  0  0  0  0  0  0  0  0  0  0
   58.6060   33.7480   55.8720 C   0  0  0  0  0  0  0  0  0  0  0  0
   58.6336   33.5472   56.9532 H   0  0  0  0  0  0  0  0  0  0  0  0
   57.6162   34.1009   55.5469 H   0  0  0  0  0  0  0  0  0  0  0  0
   59.5850   34.8200   55.5640 N   0  0  0  0  0  0  0  0  0  0  0  0
   58.9530   36.1450   55.6460 C   0  0  0  0  0  0  0  0  0  0  0  0
   58.8203   36.4232   56.7019 H   0  0  0  0  0  0  0  0  0  0  0  0
   59.5936   36.8882   55.1487 H   0  0  0  0  0  0  0  0  0  0  0  0
   57.9723   36.1149   55.1487 H   0  0  0  0  0  0  0  0  0  0  0  0
   60.3250   34.6490   54.2910 C   0  0  0  0  0  0  0  0  0  0  0  0
   61.2165   34.0343   54.4841 H   0  0  0  0  0  0  0  0  0  0  0  0
   60.5881   35.6532   53.9271 H   0  0  0  0  0  0  0  0  0  0  0  0
   59.4890   33.9680   53.1940 C   0  0  0  0  0  0  0  0  0  0  0  0
   60.1339   33.7582   52.3280 H   0  0  0  0  0  0  0  0  0  0  0  0
   58.6686   34.6427   52.9081 H   0  0  0  0  0  0  0  0  0  0  0  0
   57.1630   31.1930   52.9350 N   0  0  0  0  0  0  0  0  0  0  0  0
   56.6660   30.2830   52.0580 C   0  0  0  0  0  0  0  0  0  0  0  0
   55.4910   29.7530   52.2240 N   0  0  0  0  0  0  0  0  0  0  0  0
   54.2110   30.3860   52.0460 C   0  0  0  0  0  0  0  0  0  0  0  0
   53.5120   30.8110   53.1830 C   0  0  0  0  0  0  0  0  0  0  0  0
   53.9366   30.6343   54.1822 H   0  0  0  0  0  0  0  0  0  0  0  0
   52.2790   31.4580   53.0580 C   0  0  0  0  0  0  0  0  0  0  0  0
   51.7332   31.7778   53.9579 H   0  0  0  0  0  0  0  0  0  0  0  0
   51.7390   31.6990   51.7930 C   0  0  0  0  0  0  0  0  0  0  0  0
   50.5100   32.3370   51.6710 O   0  0  0  0  0  0  0  0  0  0  0  0
   52.4390   31.3050   50.6500 C   0  0  0  0  0  0  0  0  0  0  0  0
   52.0169   31.4995   49.6530 H   0  0  0  0  0  0  0  0  0  0  0  0
   53.6770   30.6630   50.7720 C   0  0  0  0  0  0  0  0  0  0  0  0
   54.2352   30.3736   49.8694 H   0  0  0  0  0  0  0  0  0  0  0  0
   57.3920   29.9490   50.9640 N   0  0  0  0  0  0  0  0  0  0  0  0
   58.2590   28.9160   47.8590 C   0  0  0  0  0  0  0  0  0  0  0  0
   57.6021   29.7728   47.6486 H   0  0  0  0  0  0  0  0  0  0  0  0
  1  2  1  0
  2  3  1  0
  3  4  2  0
  3  5  2  0
  3  6  1  0
  6  7  2  0
  7  8  1  0
  7  9  1  0
  9 10  1  0
  9 11  2  0
 11 12  1  0
 11 13  1  0
 13 14  1  0
 14 15  2  0
 15 16  1  0
 16 17  2  0
 17 18  1  0
 18 19  1  0
 19 20  1  0
 19 21  1  0
 19 22  1  0
 22 23  1  0
 22 24  1  0
 22 25  1  0
 25 26  1  0
 26 27  1  0
 26 28  1  0
 26 29  1  0
 25 30  1  0
 30 31  1  0
 30 32  1  0
 30 33  1  0
 33 34  1  0
 33 35  1  0
 17 36  1  0
 36 37  1  0
 37 38  2  3
 38 39  1  0
 39 40  2  0
 40 41  1  0
 40 42  1  0
 42 43  1  0
 42 44  2  0
 44 45  1  0
 44 46  1  0
 46 47  1  0
 46 48  2  0
 48 49  1  0
 37 50  1  0
 13 51  2  0
 51 52  1  0
 51  6  1  0
 50 15  1  0
 33 18  1  0
 48 39  1  0
M  CHG  4   2  -1  36  -1  45  -1  50  -1
M  END
>  <UniqueID>  (53) 
50

>  <SMILES>  (53) 
CN1CCN(c2n/c(=N/c3cccc(S([NH-])(=O)=O)c3)[n-]c(=Nc3ccc([O-])cc3)[n-]2)CC1

>  <Energy>  (53) 
74.59322078636866

>  <Genealogy>  (53) 
CN1CCN(c2nc(=Nc3cccc(S([NH-])(=O)=O)c3)[n-]c(=Nc3ccc([O-])cc3)[n-]2)CC1 (protonated)
CN1CCN(c2n/c(=N/c3cccc(S([NH-])(=O)=O)c3)[n-]c(=Nc3ccc([O-])cc3)[n-]2)CC1 (cis-trans isomerization)
CN1CCN(c2n/c(=N/c3cccc(S([NH-])(=O)=O)c3)[n-]c(=Nc3ccc([O-])cc3)[n-]2)CC1 (3D coordinates assigned)
CN1CCN(c2n/c(=N/c3cccc(S([NH-])(=O)=O)c3)[n-]c(=Nc3ccc([O-])cc3)[n-]2)CC1 (nonaromatic ring conformer: 74.59322078636866 kcal/mol)

>  <smiles>  (53) 
CN1CCN(c2nc(=Nc3cccc(S(N)(=O)=O)c3)[nH]c(=Nc3ccc(O)cc3)[nH]2)CC1

>  <score_type>  (53) 
oracle

>  <origin>  (53) 
adg

>  <m_score__min__energy>  (53) 
-15.75

>  <m_primary>  (53) 
energy

$$$$
53:0
     RDKit          3D

 51 53  0  0  0  0  0  0  0  0999 V2000
   56.2680   22.9520   41.9390 H   0  0  0  0  0  0  0  0  0  0  0  0
   55.8890   22.5590   42.8300 N   0  0  0  0  0  0  0  0  0  0  0  0
   56.6490   22.3260   43.8530 C   0  0  0  0  0  0  0  0  0  0  0  0
   56.7550   23.3380   44.9340 C   0  0  0  0  0  0  0  0  0  0  0  0
   57.4710   23.0630   46.1140 C   0  0  0  0  0  0  0  0  0  0  0  0
   57.9452   22.0796   46.2480 H   0  0  0  0  0  0  0  0  0  0  0  0
   57.5840   24.0290   47.1160 C   0  0  0  0  0  0  0  0  0  0  0  0
   58.1425   23.8015   48.0359 H   0  0  0  0  0  0  0  0  0  0  0  0
   56.9920   25.2800   46.9550 C   0  0  0  0  0  0  0  0  0  0  0  0
   57.1023   26.0440   47.7387 H   0  0  0  0  0  0  0  0  0  0  0  0
   56.2550   25.5680   45.7950 C   0  0  0  0  0  0  0  0  0  0  0  0
   55.6020   26.8320   45.6290 N   0  0  0  0  0  0  0  0  0  0  0  0
   56.2710   28.0410   45.2490 C   0  0  0  0  0  0  0  0  0  0  0  0
   55.5930   29.0770   45.0310 O   0  0  0  0  0  0  0  0  0  0  0  0
   57.6970   28.0930   45.1090 N   0  0  0  0  0  0  0  0  0  0  0  0
   58.5850   28.8130   45.9770 C   0  0  0  0  0  0  0  0  0  0  0  0
   58.5250   28.5850   47.3570 C   0  0  0  0  0  0  0  0  0  0  0  0
   57.8107   27.8518   47.7598 H   0  0  0  0  0  0  0  0  0  0  0  0
   59.3690   29.2850   48.2270 C   0  0  0  0  0  0  0  0  0  0  0  0
   59.3116   29.1039   49.3105 H   0  0  0  0  0  0  0  0  0  0  0  0
   60.2890   30.2180   47.7210 C   0  0  0  0  0  0  0  0  0  0  0  0
   61.1720   30.9530   48.5740 N   0  0  0  0  0  0  0  0  0  0  0  0
   62.5200   31.9110   48.0460 S   0  0  0  0  0  0  0  0  0  0  0  0
   63.2820   31.2300   46.9450 O   0  0  0  0  0  0  0  0  0  0  0  0
   63.4470   32.1190   49.2100 O   0  0  0  0  0  0  0  0  0  0  0  0
   61.9270   33.5030   47.4830 C   0  0  0  0  0  0  0  0  0  0  0  0
   62.6538   34.2741   47.7781 H   0  0  0  0  0  0  0  0  0  0  0  0
   61.8140   33.4490   46.3902 H   0  0  0  0  0  0  0  0  0  0  0  0
   60.5570   33.8660   48.0750 C   0  0  0  0  0  0  0  0  0  0  0  0
   60.3030   33.1345   48.8563 H   0  0  0  0  0  0  0  0  0  0  0  0
   60.6249   34.8833   48.4880 H   0  0  0  0  0  0  0  0  0  0  0  0
   59.4690   33.8600   47.0310 C   0  0  0  0  0  0  0  0  0  0  0  0
   58.2780   33.1460   47.2450 C   0  0  0  0  0  0  0  0  0  0  0  0
   58.1229   32.6115   48.1938 H   0  0  0  0  0  0  0  0  0  0  0  0
   57.2890   33.1120   46.2570 C   0  0  0  0  0  0  0  0  0  0  0  0
   56.3642   32.5404   46.4243 H   0  0  0  0  0  0  0  0  0  0  0  0
   57.4750   33.8040   45.0570 C   0  0  0  0  0  0  0  0  0  0  0  0
   56.6946   33.7804   44.2822 H   0  0  0  0  0  0  0  0  0  0  0  0
   58.6520   34.5260   44.8410 C   0  0  0  0  0  0  0  0  0  0  0  0
   58.7954   35.0736   43.8978 H   0  0  0  0  0  0  0  0  0  0  0  0
   59.6470   34.5530   45.8220 C   0  0  0  0  0  0  0  0  0  0  0  0
   60.5736   35.1193   45.6467 H   0  0  0  0  0  0  0  0  0  0  0  0
   60.3090   30.4840   46.3480 C   0  0  0  0  0  0  0  0  0  0  0  0
   60.9946   31.2462   45.9493 H   0  0  0  0  0  0  0  0  0  0  0  0
   59.4650   29.7890   45.4800 C   0  0  0  0  0  0  0  0  0  0  0  0
   59.4890   30.0065   44.4020 H   0  0  0  0  0  0  0  0  0  0  0  0
   56.1240   24.5900   44.8010 C   0  0  0  0  0  0  0  0  0  0  0  0
   55.5211   24.8023   43.9058 H   0  0  0  0  0  0  0  0  0  0  0  0
   57.3930   21.1020   43.9140 N   0  0  0  0  0  0  0  0  0  0  0  0
   57.2760   20.3720   43.1760 H   0  0  0  0  0  0  0  0  0  0  0  0
   58.1200   20.9390   44.6440 H   0  0  0  0  0  0  0  0  0  0  0  0
  1  2  1  0
  2  3  2  0
  3  4  1  0
  4  5  2  0
  5  6  1  0
  5  7  1  0
  7  8  1  0
  7  9  2  0
  9 10  1  0
  9 11  1  0
 11 12  1  0
 12 13  1  0
 13 14  2  0
 13 15  1  0
 15 16  1  0
 16 17  2  0
 17 18  1  0
 17 19  1  0
 19 20  1  0
 19 21  2  0
 21 22  1  0
 22 23  1  0
 23 24  2  0
 23 25  2  0
 23 26  1  0
 26 27  1  0
 26 28  1  0
 26 29  1  0
 29 30  1  0
 29 31  1  0
 29 32  1  0
 32 33  2  0
 33 34  1  0
 33 35  1  0
 35 36  1  0
 35 37  2  0
 37 38  1  0
 37 39  1  0
 39 40  1  0
 39 41  2  0
 41 42  1  0
 21 43  1  0
 43 44  1  0
 43 45  2  0
 45 46  1  0
 11 47  2  0
 47 48  1  0
  3 49  1  0
 49 50  1  0
 49 51  1  0
 47  4  1  0
 45 16  1  0
 41 32  1  0
M  CHG  3  12  -1  15  -1  22  -1
M  END
>  <UniqueID>  (54) 
51

>  <SMILES>  (54) 
[H]/N=C(\N)c1cccc([N-]C(=O)[N-]c2ccc([N-]S(=O)(=O)CCc3ccccc3)cc2)c1

>  <Energy>  (54) 
57.62528811584586

>  <Genealogy>  (54) 
N=C(N)c1cccc([N-]C(=O)[N-]c2ccc([N-]S(=O)(=O)CCc3ccccc3)cc2)c1 (protonated)
[H]/N=C(\N)c1cccc([N-]C(=O)[N-]c2ccc([N-]S(=O)(=O)CCc3ccccc3)cc2)c1 (cis-trans isomerization)
[H]/N=C(\N)c1cccc([N-]C(=O)[N-]c2ccc([N-]S(=O)(=O)CCc3ccccc3)cc2)c1 (3D coordinates assigned)
[H]/N=C(\N)c1cccc([N-]C(=O)[N-]c2ccc([N-]S(=O)(=O)CCc3ccccc3)cc2)c1 (optimized conformer: 57.62528811584586 kcal/mol)

>  <smiles>  (54) 
N=C(N)c1cccc(NC(=O)Nc2ccc(NS(=O)(=O)CCc3ccccc3)cc2)c1

>  <score_type>  (54) 
oracle

>  <origin>  (54) 
adg

>  <m_score__min__energy>  (54) 
-15.01

>  <m_primary>  (54) 
energy

$$$$
54:0
     RDKit          3D

 70 74  0  0  0  0  0  0  0  0999 V2000
   58.4840   32.7180   47.1160 C   0  0  0  0  0  0  0  0  0  0  0  0
   57.8230   31.6760   46.4080 O   0  0  0  0  0  0  0  0  0  0  0  0
   57.6770   31.6280   45.0100 C   0  0  0  0  0  0  0  0  0  0  0  0
   58.2230   32.6150   44.1630 C   0  0  0  0  0  0  0  0  0  0  0  0
   58.0530   32.5310   42.7760 C   0  0  0  0  0  0  0  0  0  0  0  0
   57.3470   31.4630   42.2220 C   0  0  0  0  0  0  0  0  0  0  0  0
   56.8130   30.4710   43.0510 C   0  0  0  0  0  0  0  0  0  0  0  0
   56.9730   30.5520   44.4460 C   0  0  0  0  0  0  0  0  0  0  0  0
   56.4030   29.5630   45.3080 N   0  0  0  0  0  0  0  0  0  0  0  0
   56.9170   27.9110   45.3000 S   0  0  0  0  0  0  0  0  0  0  0  0
   55.7420   27.0300   45.6150 O   0  0  0  0  0  0  0  0  0  0  0  0
   57.4330   27.5280   43.9400 O   0  0  0  0  0  0  0  0  0  0  0  0
   58.1860   27.7190   46.5140 C   0  0  0  0  0  0  0  0  0  0  0  0
   58.8450   28.8710   46.9720 C   0  0  0  0  0  0  0  0  0  0  0  0
   59.8190   28.7900   47.9810 C   0  0  0  0  0  0  0  0  0  0  0  0
   60.5080   29.9630   48.4450 N   0  0  0  0  0  0  0  0  0  0  0  0
   61.5470   30.6210   47.6920 C   0  0  0  0  0  0  0  0  0  0  0  0
   61.5990   30.4700   46.4390 O   0  0  0  0  0  0  0  0  0  0  0  0
   62.5440   31.4890   48.3690 C   0  0  0  0  0  0  0  0  0  0  0  0
   63.0730   32.6090   47.7130 C   0  0  0  0  0  0  0  0  0  0  0  0
   64.0160   33.4090   48.3480 C   0  0  0  0  0  0  0  0  0  0  0  0
   64.4400   33.0910   49.6400 C   0  0  0  0  0  0  0  0  0  0  0  0
   65.2960   33.8290   50.1990 O   0  0  0  0  0  0  0  0  0  0  0  0
   63.9400   31.9850   50.2810 N   0  0  0  0  0  0  0  0  0  0  0  0
   64.3640   31.6370   51.6470 C   0  0  0  0  0  0  0  0  0  0  0  0
   65.2610   30.4270   51.6200 C   0  0  0  0  0  0  0  0  0  0  0  0
   64.7480   29.1600   51.9360 C   0  0  0  0  0  0  0  0  0  0  0  0
   65.5680   28.0300   51.8620 C   0  0  0  0  0  0  0  0  0  0  0  0
   66.9020   28.1570   51.4640 C   0  0  0  0  0  0  0  0  0  0  0  0
   67.4190   29.4140   51.1380 C   0  0  0  0  0  0  0  0  0  0  0  0
   66.6030   30.5460   51.2140 C   0  0  0  0  0  0  0  0  0  0  0  0
   63.0070   31.1960   49.6660 C   0  0  0  0  0  0  0  0  0  0  0  0
   60.1550   27.5370   48.5110 C   0  0  0  0  0  0  0  0  0  0  0  0
   59.5010   26.3860   48.0710 C   0  0  0  0  0  0  0  0  0  0  0  0
   58.5080   26.4650   47.0840 C   0  0  0  0  0  0  0  0  0  0  0  0
   57.8460   25.2560   46.6830 N   0  0  0  0  0  0  0  0  0  0  0  0
   58.2930   24.5600   45.4660 C   0  0  0  0  0  0  0  0  0  0  0  0
   58.2010   23.0170   45.6060 C   0  0  0  0  0  0  0  0  0  0  0  0
   57.5860   22.5650   46.8000 O   0  0  0  0  0  0  0  0  0  0  0  0
   56.4140   23.3050   47.0640 C   0  0  0  0  0  0  0  0  0  0  0  0
   56.8070   24.6920   47.5510 C   0  0  0  0  0  0  0  0  0  0  0  0
   58.3779   32.5507   48.1980 H   0  0  0  0  0  0  0  0  0  0  0  0
   59.5510   32.7234   46.8487 H   0  0  0  0  0  0  0  0  0  0  0  0
   58.0342   33.6856   46.8487 H   0  0  0  0  0  0  0  0  0  0  0  0
   58.7857   33.4557   44.5949 H   0  0  0  0  0  0  0  0  0  0  0  0
   58.4765   33.3078   42.1224 H   0  0  0  0  0  0  0  0  0  0  0  0
   57.2101   31.4009   41.1323 H   0  0  0  0  0  0  0  0  0  0  0  0
   56.2660   29.6245   42.6103 H   0  0  0  0  0  0  0  0  0  0  0  0
   58.5955   29.8493   46.5353 H   0  0  0  0  0  0  0  0  0  0  0  0
   60.1360   30.4480   49.2950 H   0  0  0  0  0  0  0  0  0  0  0  0
   62.7413   32.8555   46.6936 H   0  0  0  0  0  0  0  0  0  0  0  0
   64.4272   34.2903   47.8340 H   0  0  0  0  0  0  0  0  0  0  0  0
   64.9107   32.4851   52.0851 H   0  0  0  0  0  0  0  0  0  0  0  0
   63.4741   31.4111   52.2529 H   0  0  0  0  0  0  0  0  0  0  0  0
   63.6969   29.0553   52.2431 H   0  0  0  0  0  0  0  0  0  0  0  0
   65.1629   27.0397   52.1173 H   0  0  0  0  0  0  0  0  0  0  0  0
   67.5456   27.2667   51.4073 H   0  0  0  0  0  0  0  0  0  0  0  0
   68.4679   29.5122   50.8217 H   0  0  0  0  0  0  0  0  0  0  0  0
   67.0115   31.5341   50.9554 H   0  0  0  0  0  0  0  0  0  0  0  0
   62.6111   30.3163   50.1946 H   0  0  0  0  0  0  0  0  0  0  0  0
   60.9392   27.4606   49.2786 H   0  0  0  0  0  0  0  0  0  0  0  0
   59.7662   25.4091   48.5015 H   0  0  0  0  0  0  0  0  0  0  0  0
   57.6608   24.8776   44.6238 H   0  0  0  0  0  0  0  0  0  0  0  0
   59.3478   24.8214   45.2955 H   0  0  0  0  0  0  0  0  0  0  0  0
   57.6217   22.6299   44.7548 H   0  0  0  0  0  0  0  0  0  0  0  0
   59.2361   22.6457   45.6307 H   0  0  0  0  0  0  0  0  0  0  0  0
   55.8170   23.3919   46.1442 H   0  0  0  0  0  0  0  0  0  0  0  0
   55.8162   22.7949   47.8337 H   0  0  0  0  0  0  0  0  0  0  0  0
   55.9236   25.3473   47.5339 H   0  0  0  0  0  0  0  0  0  0  0  0
   57.1973   24.6160   48.5766 H   0  0  0  0  0  0  0  0  0  0  0  0
  1  2  1  0
  2  3  1  0
  3  4  2  0
  4  5  1  0
  5  6  2  0
  6  7  1  0
  7  8  2  0
  8  9  1  0
  9 10  1  0
 10 11  2  0
 10 12  2  0
 10 13  1  0
 13 14  2  0
 14 15  1  0
 15 16  1  0
 16 17  1  0
 17 18  2  0
 17 19  1  0
 19 20  1  0
 20 21  2  0
 21 22  1  0
 22 23  2  0
 22 24  1  0
 24 25  1  0
 25 26  1  0
 26 27  2  0
 27 28  1  0
 28 29  2  0
 29 30  1  0
 30 31  2  0
 24 32  1  0
 15 33  2  0
 33 34  1  0
 34 35  2  0
 35 36  1  0
 36 37  1  0
 37 38  1  0
 38 39  1  0
 39 40  1  0
 40 41  1  0
  8  3  1  0
 35 13  1  0
 41 36  1  0
 32 19  2  0
 31 26  1  0
  1 42  1  0
  1 43  1  0
  1 44  1  0
  4 45  1  0
  5 46  1  0
  6 47  1  0
  7 48  1  0
 14 49  1  0
 16 50  1  0
 20 51  1  0
 21 52  1  0
 25 53  1  0
 25 54  1  0
 27 55  1  0
 28 56  1  0
 29 57  1  0
 30 58  1  0
 31 59  1  0
 32 60  1  0
 33 61  1  0
 34 62  1  0
 37 63  1  0
 37 64  1  0
 38 65  1  0
 38 66  1  0
 40 67  1  0
 40 68  1  0
 41 69  1  0
 41 70  1  0
M  CHG  1   9  -1
M  END
>  <UniqueID>  (55) 
52

>  <SMILES>  (55) 
COc1ccccc1[N-]S(=O)(=O)c1cc(NC(=O)c2ccc(=O)n(Cc3ccccc3)c2)ccc1N1CCOCC1

>  <Energy>  (55) 
100.9600573410564

>  <Genealogy>  (55) 
COc1ccccc1[N-]S(=O)(=O)c1cc(NC(=O)c2ccc(=O)n(Cc3ccccc3)c2)ccc1N1CCOCC1 (protonated)
COc1ccccc1[N-]S(=O)(=O)c1cc(NC(=O)c2ccc(=O)n(Cc3ccccc3)c2)ccc1N1CCOCC1 (3D coordinates assigned)
COc1ccccc1[N-]S(=O)(=O)c1cc(NC(=O)c2ccc(=O)n(Cc3ccccc3)c2)ccc1N1CCOCC1 (nonaromatic ring conformer: 100.9600573410564 kcal/mol)

>  <smiles>  (55) 
COc1ccccc1NS(=O)(=O)c1cc(NC(=O)c2ccc(=O)n(Cc3ccccc3)c2)ccc1N1CCOCC1

>  <score_type>  (55) 
oracle

>  <origin>  (55) 
adg

>  <m_score__min__energy>  (55) 
-12.890000000000001

>  <m_primary>  (55) 
energy

$$$$
55:0
     RDKit          3D

 41 42  0  0  0  0  0  0  0  0999 V2000
   57.6570   23.1480   44.4790 C   0  0  0  0  0  0  0  0  0  0  0  0
   56.9890   24.4770   44.1350 C   0  0  0  0  0  0  0  0  0  0  0  0
   55.6700   24.6460   44.8990 C   0  0  0  0  0  0  0  0  0  0  0  0
   55.8210   25.5680   46.1140 C   0  0  0  0  0  0  0  0  0  0  0  0
   56.0110   26.9570   45.6940 N   0  0  0  0  0  0  0  0  0  0  0  0
   57.3090   27.5430   45.5070 C   0  0  0  0  0  0  0  0  0  0  0  0
   58.3420   26.8260   45.6020 O   0  0  0  0  0  0  0  0  0  0  0  0
   57.4540   28.9770   45.1610 C   0  0  0  0  0  0  0  0  0  0  0  0
   58.7260   29.5710   45.1970 C   0  0  0  0  0  0  0  0  0  0  0  0
   58.8860   30.9170   44.8680 C   0  0  0  0  0  0  0  0  0  0  0  0
   57.7640   31.6740   44.5220 C   0  0  0  0  0  0  0  0  0  0  0  0
   57.9380   33.4100   44.1120 S   0  0  0  0  0  0  0  0  0  0  0  0
   57.3010   34.0150   45.7160 C   0  0  0  0  0  0  0  0  0  0  0  0
   58.3230   33.8360   46.8050 C   0  0  0  0  0  0  0  0  0  0  0  0
   59.4200   34.7080   46.9040 C   0  0  0  0  0  0  0  0  0  0  0  0
   60.3460   34.5600   47.9410 C   0  0  0  0  0  0  0  0  0  0  0  0
   60.1850   33.5410   48.8840 C   0  0  0  0  0  0  0  0  0  0  0  0
   59.0960   32.6710   48.7930 C   0  0  0  0  0  0  0  0  0  0  0  0
   58.1650   32.8160   47.7590 C   0  0  0  0  0  0  0  0  0  0  0  0
   56.5360   31.0950   44.5020 N   0  0  0  0  0  0  0  0  0  0  0  0
   56.3490   29.7840   44.8140 C   0  0  0  0  0  0  0  0  0  0  0  0
   55.1790   29.3170   44.8160 O   0  0  0  0  0  0  0  0  0  0  0  0
   57.7125   23.0376   45.5720 H   0  0  0  0  0  0  0  0  0  0  0  0
   57.0674   22.3211   44.0564 H   0  0  0  0  0  0  0  0  0  0  0  0
   58.6724   23.1278   44.0564 H   0  0  0  0  0  0  0  0  0  0  0  0
   57.6675   25.3002   44.4032 H   0  0  0  0  0  0  0  0  0  0  0  0
   56.7723   24.4903   43.0566 H   0  0  0  0  0  0  0  0  0  0  0  0
   54.9190   25.0751   44.2194 H   0  0  0  0  0  0  0  0  0  0  0  0
   55.3599   23.6551   45.2624 H   0  0  0  0  0  0  0  0  0  0  0  0
   54.9144   25.4996   46.7331 H   0  0  0  0  0  0  0  0  0  0  0  0
   56.7033   25.2505   46.6891 H   0  0  0  0  0  0  0  0  0  0  0  0
   55.1630   27.4910   45.3990 H   0  0  0  0  0  0  0  0  0  0  0  0
   59.6015   28.9712   45.4864 H   0  0  0  0  0  0  0  0  0  0  0  0
   59.8849   31.3775   44.8808 H   0  0  0  0  0  0  0  0  0  0  0  0
   57.0554   35.0834   45.6254 H   0  0  0  0  0  0  0  0  0  0  0  0
   56.4046   33.4340   45.9783 H   0  0  0  0  0  0  0  0  0  0  0  0
   59.5509   35.5102   46.1629 H   0  0  0  0  0  0  0  0  0  0  0  0
   61.2024   35.2464   48.0148 H   0  0  0  0  0  0  0  0  0  0  0  0
   60.9158   33.4242   49.6978 H   0  0  0  0  0  0  0  0  0  0  0  0
   58.9702   31.8699   49.5362 H   0  0  0  0  0  0  0  0  0  0  0  0
   57.3075   32.1303   47.6924 H   0  0  0  0  0  0  0  0  0  0  0  0
  1  2  1  0
  2  3  1  0
  3  4  1  0
  4  5  1  0
  5  6  1  0
  6  7  2  0
  6  8  1  0
  8  9  2  0
  9 10  1  0
 10 11  2  0
 11 12  1  0
 12 13  1  0
 13 14  1  0
 14 15  2  0
 15 16  1  0
 16 17  2  0
 17 18  1  0
 18 19  2  0
 11 20  1  0
 20 21  1  0
 21 22  2  0
 21  8  1  0
 19 14  1  0
  1 23  1  0
  1 24  1  0
  1 25  1  0
  2 26  1  0
  2 27  1  0
  3 28  1  0
  3 29  1  0
  4 30  1  0
  4 31  1  0
  5 32  1  0
  9 33  1  0
 10 34  1  0
 13 35  1  0
 13 36  1  0
 15 37  1  0
 16 38  1  0
 17 39  1  0
 18 40  1  0
 19 41  1  0
M  CHG  1  20  -1
M  END
>  <UniqueID>  (56) 
53

>  <SMILES>  (56) 
CCCCNC(=O)c1ccc(SCc2ccccc2)[n-]c1=O

>  <Energy>  (56) 
33.0032671903889

>  <Genealogy>  (56) 
CCCCNC(=O)c1ccc(SCc2ccccc2)[n-]c1=O (protonated)
CCCCNC(=O)c1ccc(SCc2ccccc2)[n-]c1=O (3D coordinates assigned)
CCCCNC(=O)c1ccc(SCc2ccccc2)[n-]c1=O (optimized conformer: 33.0032671903889 kcal/mol)

>  <smiles>  (56) 
CCCCNC(=O)c1ccc(SCc2ccccc2)[nH]c1=O

>  <score_type>  (56) 
oracle

>  <origin>  (56) 
adg

>  <m_score__min__energy>  (56) 
-9.8699999999999992

>  <m_primary>  (56) 
energy

$$$$
56:0
     RDKit          3D

 53 56  0  0  0  0  0  0  0  0999 V2000
   60.8070   29.1980   45.6550 C   0  0  0  0  0  0  0  0  0  0  0  0
   60.3790   27.9130   46.0940 O   0  0  0  0  0  0  0  0  0  0  0  0
   59.0470   27.4700   46.0660 C   0  0  0  0  0  0  0  0  0  0  0  0
   58.6820   26.1580   46.4120 C   0  0  0  0  0  0  0  0  0  0  0  0
   57.3430   25.7700   46.3830 C   0  0  0  0  0  0  0  0  0  0  0  0
   56.3430   26.6820   45.9970 C   0  0  0  0  0  0  0  0  0  0  0  0
   54.9830   26.3290   45.9740 O   0  0  0  0  0  0  0  0  0  0  0  0
   54.4880   25.0420   45.6170 C   0  0  0  0  0  0  0  0  0  0  0  0
   56.7030   27.9870   45.6210 C   0  0  0  0  0  0  0  0  0  0  0  0
   55.6620   28.9030   45.2420 N   0  0  0  0  0  0  0  0  0  0  0  0
   55.6170   29.7460   44.0850 C   0  0  0  0  0  0  0  0  0  0  0  0
   54.7210   29.5980   43.2110 O   0  0  0  0  0  0  0  0  0  0  0  0
   56.6010   30.8290   43.9400 C   0  0  0  0  0  0  0  0  0  0  0  0
   57.1030   31.6020   44.9730 C   0  0  0  0  0  0  0  0  0  0  0  0
   57.9820   32.4840   44.3800 C   0  0  0  0  0  0  0  0  0  0  0  0
   58.9010   33.7350   45.1960 S   0  0  0  0  0  0  0  0  0  0  0  0
   59.5900   34.5780   44.1580 O   0  0  0  0  0  0  0  0  0  0  0  0
   57.9640   34.5990   45.9980 O   0  0  0  0  0  0  0  0  0  0  0  0
   60.0820   33.0100   46.2610 N   0  0  0  0  0  0  0  0  0  0  0  0
   59.4140   32.1910   47.3160 C   0  0  0  0  0  0  0  0  0  0  0  0
   60.0050   32.3450   48.7370 C   0  0  0  0  0  0  0  0  0  0  0  0
   61.4880   32.5650   48.6870 C   0  0  0  0  0  0  0  0  0  0  0  0
   62.3590   31.9720   49.6140 C   0  0  0  0  0  0  0  0  0  0  0  0
   63.7310   32.2340   49.5440 C   0  0  0  0  0  0  0  0  0  0  0  0
   64.2330   33.1010   48.5670 C   0  0  0  0  0  0  0  0  0  0  0  0
   63.3620   33.7120   47.6560 C   0  0  0  0  0  0  0  0  0  0  0  0
   61.9880   33.4340   47.7110 C   0  0  0  0  0  0  0  0  0  0  0  0
   61.0040   34.0490   46.7600 C   0  0  0  0  0  0  0  0  0  0  0  0
   57.9820   32.2230   43.0260 C   0  0  0  0  0  0  0  0  0  0  0  0
   57.1360   31.2100   42.7630 N   0  0  0  0  0  0  0  0  0  0  0  0
   58.0540   28.3780   45.6810 C   0  0  0  0  0  0  0  0  0  0  0  0
   61.0183   29.8323   46.5285 H   0  0  0  0  0  0  0  0  0  0  0  0
   61.7188   29.0934   45.0487 H   0  0  0  0  0  0  0  0  0  0  0  0
   60.0146   29.6611   45.0487 H   0  0  0  0  0  0  0  0  0  0  0  0
   59.4558   25.4340   46.7070 H   0  0  0  0  0  0  0  0  0  0  0  0
   57.0661   24.7432   46.6640 H   0  0  0  0  0  0  0  0  0  0  0  0
   54.2673   24.4681   46.5291 H   0  0  0  0  0  0  0  0  0  0  0  0
   53.5689   25.1544   45.0231 H   0  0  0  0  0  0  0  0  0  0  0  0
   55.2455   24.5096   45.0231 H   0  0  0  0  0  0  0  0  0  0  0  0
   56.8534   31.5283   46.0418 H   0  0  0  0  0  0  0  0  0  0  0  0
   58.3541   32.4828   47.3541 H   0  0  0  0  0  0  0  0  0  0  0  0
   59.5684   31.1396   47.0318 H   0  0  0  0  0  0  0  0  0  0  0  0
   59.5311   33.2058   49.2313 H   0  0  0  0  0  0  0  0  0  0  0  0
   59.8090   31.4193   49.2979 H   0  0  0  0  0  0  0  0  0  0  0  0
   61.9639   31.3034   50.3930 H   0  0  0  0  0  0  0  0  0  0  0  0
   64.4175   31.7571   50.2590 H   0  0  0  0  0  0  0  0  0  0  0  0
   65.3130   33.3029   48.5144 H   0  0  0  0  0  0  0  0  0  0  0  0
   63.7542   34.4078   46.8996 H   0  0  0  0  0  0  0  0  0  0  0  0
   60.4293   34.8287   47.2813 H   0  0  0  0  0  0  0  0  0  0  0  0
   61.5450   34.4950   45.9124 H   0  0  0  0  0  0  0  0  0  0  0  0
   58.5813   32.7602   42.2762 H   0  0  0  0  0  0  0  0  0  0  0  0
   56.9390   30.8030   41.8200 H   0  0  0  0  0  0  0  0  0  0  0  0
   58.3327   29.4101   45.4220 H   0  0  0  0  0  0  0  0  0  0  0  0
  1  2  1  0
  2  3  1  0
  3  4  2  0
  4  5  1  0
  5  6  2  0
  6  7  1  0
  7  8  1  0
  6  9  1  0
  9 10  1  0
 10 11  1  0
 11 12  2  0
 11 13  1  0
 13 14  2  0
 14 15  1  0
 15 16  1  0
 16 17  2  0
 16 18  2  0
 16 19  1  0
 19 20  1  0
 20 21  1  0
 21 22  1  0
 22 23  2  0
 23 24  1  0
 24 25  2  0
 25 26  1  0
 26 27  2  0
 27 28  1  0
 15 29  2  0
 29 30  1  0
  9 31  2  0
 31  3  1  0
 30 13  1  0
 28 19  1  0
 27 22  1  0
  1 32  1  0
  1 33  1  0
  1 34  1  0
  4 35  1  0
  5 36  1  0
  8 37  1  0
  8 38  1  0
  8 39  1  0
 14 40  1  0
 20 41  1  0
 20 42  1  0
 21 43  1  0
 21 44  1  0
 23 45  1  0
 24 46  1  0
 25 47  1  0
 26 48  1  0
 28 49  1  0
 28 50  1  0
 29 51  1  0
 30 52  1  0
 31 53  1  0
M  CHG  1  10  -1
M  END
>  <UniqueID>  (57) 
54

>  <SMILES>  (57) 
COc1ccc(OC)c([N-]C(=O)c2cc(S(=O)(=O)N3CCc4ccccc4C3)c[nH]2)c1

>  <Energy>  (57) 
92.52971773095078

>  <Genealogy>  (57) 
COc1ccc(OC)c([N-]C(=O)c2cc(S(=O)(=O)N3CCc4ccccc4C3)c[nH]2)c1 (protonated)
COc1ccc(OC)c([N-]C(=O)c2cc(S(=O)(=O)N3CCc4ccccc4C3)c[nH]2)c1 (3D coordinates assigned)
COc1ccc(OC)c([N-]C(=O)c2cc(S(=O)(=O)N3CCc4ccccc4C3)c[nH]2)c1 (nonaromatic ring conformer: 92.52971773095078 kcal/mol)

>  <smiles>  (57) 
COc1ccc(OC)c(NC(=O)c2cc(S(=O)(=O)N3CCc4ccccc4C3)c[nH]2)c1

>  <score_type>  (57) 
oracle

>  <origin>  (57) 
adg

>  <m_score__min__energy>  (57) 
-12.09

>  <m_primary>  (57) 
energy

$$$$
57:0
     RDKit          3D

 29 31  0  0  0  0  0  0  0  0999 V2000
   55.5200   31.1180   44.5870 O   0  0  0  0  0  0  0  0  0  0  0  0
   56.1510   30.0400   44.4230 C   0  0  0  0  0  0  0  0  0  0  0  0
   57.4700   30.0520   43.7200 C   0  0  0  0  0  0  0  0  0  0  0  0
   57.7200   31.6370   42.8480 S   0  0  0  0  0  0  0  0  0  0  0  0
   58.2190   32.5350   44.3160 C   0  0  0  0  0  0  0  0  0  0  0  0
   58.7080   33.8130   44.1990 N   0  0  0  0  0  0  0  0  0  0  0  0
   59.0920   34.5250   45.2980 C   0  0  0  0  0  0  0  0  0  0  0  0
   59.5360   35.6980   45.1820 O   0  0  0  0  0  0  0  0  0  0  0  0
   58.9760   33.9140   46.5370 C   0  0  0  0  0  0  0  0  0  0  0  0
   59.2490   34.2940   47.8290 C   0  0  0  0  0  0  0  0  0  0  0  0
   58.9270   33.2570   48.6420 N   0  0  0  0  0  0  0  0  0  0  0  0
   58.4640   32.2450   47.9100 N   0  0  0  0  0  0  0  0  0  0  0  0
   58.4960   32.6510   46.6310 C   0  0  0  0  0  0  0  0  0  0  0  0
   58.1150   31.9410   45.5430 N   0  0  0  0  0  0  0  0  0  0  0  0
   55.6580   28.8140   44.9770 N   0  0  0  0  0  0  0  0  0  0  0  0
   56.4590   27.8090   45.6110 C   0  0  0  0  0  0  0  0  0  0  0  0
   57.8450   28.0010   45.6790 C   0  0  0  0  0  0  0  0  0  0  0  0
   58.6650   27.0440   46.2840 C   0  0  0  0  0  0  0  0  0  0  0  0
   58.1060   25.8770   46.8110 C   0  0  0  0  0  0  0  0  0  0  0  0
   56.7290   25.6590   46.7200 C   0  0  0  0  0  0  0  0  0  0  0  0
   55.9030   26.6110   46.1100 C   0  0  0  0  0  0  0  0  0  0  0  0
   54.5460   26.3400   45.9750 O   0  0  0  0  0  0  0  0  0  0  0  0
   58.2741   29.9148   44.4580 H   0  0  0  0  0  0  0  0  0  0  0  0
   57.4862   29.2356   42.9829 H   0  0  0  0  0  0  0  0  0  0  0  0
   59.6558   35.2653   48.1470 H   0  0  0  0  0  0  0  0  0  0  0  0
   58.2915   28.9117   45.2531 H   0  0  0  0  0  0  0  0  0  0  0  0
   59.7507   27.2098   46.3452 H   0  0  0  0  0  0  0  0  0  0  0  0
   58.7501   25.1298   47.2976 H   0  0  0  0  0  0  0  0  0  0  0  0
   56.2921   24.7361   47.1291 H   0  0  0  0  0  0  0  0  0  0  0  0
  1  2  2  0
  2  3  1  0
  3  4  1  0
  4  5  1  0
  5  6  2  0
  6  7  1  0
  7  8  2  0
  7  9  1  0
  9 10  2  0
 10 11  1  0
 11 12  1  0
 12 13  2  0
 13 14  1  0
  2 15  1  0
 15 16  1  0
 16 17  2  0
 17 18  1  0
 18 19  2  0
 19 20  1  0
 20 21  2  0
 21 22  1  0
 14  5  1  0
 21 16  1  0
 13  9  1  0
  3 23  1  0
  3 24  1  0
 10 25  1  0
 17 26  1  0
 18 27  1  0
 19 28  1  0
 20 29  1  0
M  CHG  4  11  -1  14  -1  15  -1  22  -1
M  END
>  <UniqueID>  (58) 
55

>  <SMILES>  (58) 
O=C(CSc1nc(=O)c2c[n-]nc2[n-]1)[N-]c1ccccc1[O-]

>  <Energy>  (58) 
74.16528079142402

>  <Genealogy>  (58) 
O=C(CSc1nc(=O)c2c[n-]nc2[n-]1)[N-]c1ccccc1[O-] (protonated)
O=C(CSc1nc(=O)c2c[n-]nc2[n-]1)[N-]c1ccccc1[O-] (3D coordinates assigned)
O=C(CSc1nc(=O)c2c[n-]nc2[n-]1)[N-]c1ccccc1[O-] (optimized conformer: 74.16528079142402 kcal/mol)

>  <smiles>  (58) 
O=C(CSc1nc(=O)c2c[nH]nc2[nH]1)Nc1ccccc1O

>  <score_type>  (58) 
oracle

>  <origin>  (58) 
adg

>  <m_score__min__energy>  (58) 
-16.09

>  <m_primary>  (58) 
energy

$$$$
58:0
     RDKit          3D

 43 45  0  0  0  0  0  0  0  0999 V2000
   64.3300   31.1904   48.8672 H   0  0  0  0  0  0  0  0  0  0  0  0
   63.7460   32.0240   48.4500 C   0  0  0  0  0  0  0  0  0  0  0  0
   62.8930   32.7670   49.2050 N   0  0  0  0  0  0  0  0  0  0  0  0
   62.2910   33.7290   48.4690 C   0  0  0  0  0  0  0  0  0  0  0  0
   61.4390   34.5910   48.9380 N   0  0  0  0  0  0  0  0  0  0  0  0
   60.0210   34.6060   48.7150 C   0  0  0  0  0  0  0  0  0  0  0  0
   59.2510   34.0490   49.6050 N   0  0  0  0  0  0  0  0  0  0  0  0
   58.9840   32.6430   49.7420 C   0  0  0  0  0  0  0  0  0  0  0  0
   59.4710   35.1870   47.5240 N   0  0  0  0  0  0  0  0  0  0  0  0
   59.5590   36.2220   47.3990 H   0  0  0  0  0  0  0  0  0  0  0  0
   58.8550   34.4050   46.4880 C   0  0  0  0  0  0  0  0  0  0  0  0
   57.8630   33.4500   46.7830 C   0  0  0  0  0  0  0  0  0  0  0  0
   57.5480   33.2912   47.8249 H   0  0  0  0  0  0  0  0  0  0  0  0
   60.3460   30.0400   46.0090 C   0  0  0  0  0  0  0  0  0  0  0  0
   60.8739   30.2004   45.0574 H   0  0  0  0  0  0  0  0  0  0  0  0
   59.5160   28.9270   46.1670 C   0  0  0  0  0  0  0  0  0  0  0  0
   59.3881   28.2134   45.3397 H   0  0  0  0  0  0  0  0  0  0  0  0
   58.8490   28.7220   47.3770 C   0  0  0  0  0  0  0  0  0  0  0  0
   58.1960   27.8456   47.5018 H   0  0  0  0  0  0  0  0  0  0  0  0
   59.2610   34.5790   45.1560 C   0  0  0  0  0  0  0  0  0  0  0  0
   60.0500   35.3069   44.9158 H   0  0  0  0  0  0  0  0  0  0  0  0
   57.9480   32.2330   50.4280 N   0  0  0  0  0  0  0  0  0  0  0  0
   57.0050   32.6340   50.2260 H   0  0  0  0  0  0  0  0  0  0  0  0
   58.0430   31.3370   51.5810 C   0  0  0  0  0  0  0  0  0  0  0  0
   57.9806   31.9251   52.5085 H   0  0  0  0  0  0  0  0  0  0  0  0
   57.2167   30.6115   51.5506 H   0  0  0  0  0  0  0  0  0  0  0  0
   59.0030   30.8009   51.5506 H   0  0  0  0  0  0  0  0  0  0  0  0
   60.0070   31.7220   49.3350 N   0  0  0  0  0  0  0  0  0  0  0  0
   60.9710   31.9050   49.6920 H   0  0  0  0  0  0  0  0  0  0  0  0
   59.8430   30.7530   48.2820 C   0  0  0  0  0  0  0  0  0  0  0  0
   60.5070   30.9510   47.0590 C   0  0  0  0  0  0  0  0  0  0  0  0
   61.1576   31.8280   46.9264 H   0  0  0  0  0  0  0  0  0  0  0  0
   57.2770   32.7030   45.7570 C   0  0  0  0  0  0  0  0  0  0  0  0
   56.5001   31.9609   45.9932 H   0  0  0  0  0  0  0  0  0  0  0  0
   57.6760   32.8970   44.4320 C   0  0  0  0  0  0  0  0  0  0  0  0
   57.1000   32.1760   43.4390 F   0  0  0  0  0  0  0  0  0  0  0  0
   58.6690   33.8330   44.1320 C   0  0  0  0  0  0  0  0  0  0  0  0
   58.9854   33.9833   43.0893 H   0  0  0  0  0  0  0  0  0  0  0  0
   59.0090   29.6270   48.4290 C   0  0  0  0  0  0  0  0  0  0  0  0
   58.4801   29.4594   49.3788 H   0  0  0  0  0  0  0  0  0  0  0  0
   62.7910   33.7010   46.8680 S   0  0  0  0  0  0  0  0  0  0  0  0
   63.8260   32.3950   47.1120 C   0  0  0  0  0  0  0  0  0  0  0  0
   64.4557   31.9184   46.3463 H   0  0  0  0  0  0  0  0  0  0  0  0
  1  2  1  0
  2  3  1  0
  3  4  1  0
  4  5  2  0
  5  6  1  0
  6  7  2  0
  7  8  1  0
  8  9  1  0
  9 10  1  0
  9 11  1  0
 11 12  2  0
 12 13  1  0
 12 14  1  0
 14 15  1  0
 14 16  2  0
 16 17  1  0
 16 18  1  0
 18 19  1  0
 18 20  2  0
 20 21  1  0
  8 22  2  0
 22 23  1  0
 22 24  1  0
 24 25  1  0
 24 26  1  0
 24 27  1  0
  6 28  1  0
 28 29  1  0
 28 30  1  0
 30 31  2  0
 31 32  1  0
 31 33  1  0
 33 34  1  0
 33 35  2  0
 35 36  1  0
 35 37  1  0
 37 38  1  0
 37 39  2  0
 39 40  1  0
  4 41  1  0
 41 42  1  0
 42 43  1  0
 42  2  2  0
 20 11  1  0
 39 30  1  0
M  CHG  2   3  -1  22   1
M  END
>  <UniqueID>  (59) 
56

>  <SMILES>  (59) 
C[NH+]=C(/N=C(/N=c1\[n-]ccs1)Nc1ccc(F)cc1)Nc1ccccc1

>  <Energy>  (59) 
92.96766613295553

>  <Genealogy>  (59) 
C[NH+]=C(N=C(N=c1[n-]ccs1)Nc1ccc(F)cc1)Nc1ccccc1 (protonated)
C[NH+]=C(/N=C(/N=c1\[n-]ccs1)Nc1ccc(F)cc1)Nc1ccccc1 (cis-trans isomerization)
C[NH+]=C(/N=C(/N=c1\[n-]ccs1)Nc1ccc(F)cc1)Nc1ccccc1 (3D coordinates assigned)
C[NH+]=C(/N=C(/N=c1\[n-]ccs1)Nc1ccc(F)cc1)Nc1ccccc1 (optimized conformer: 92.96766613295553 kcal/mol)

>  <smiles>  (59) 
CN=C(N=C(N=c1[nH]ccs1)Nc1ccc(F)cc1)Nc1ccccc1

>  <score_type>  (59) 
oracle

>  <origin>  (59) 
adg

>  <m_score__min__energy>  (59) 
-6.1200000000000001

>  <m_primary>  (59) 
energy

$$$$
59:0
     RDKit          3D

 33 35  0  0  0  0  0  0  0  0999 V2000
   56.3190   29.3780   42.5890 C   0  0  0  0  0  0  0  0  0  0  0  0
   56.3740   30.3590   43.6890 C   0  0  0  0  0  0  0  0  0  0  0  0
   55.4300   30.4070   44.4940 O   0  0  0  0  0  0  0  0  0  0  0  0
   57.4960   31.1830   43.7630 O   0  0  0  0  0  0  0  0  0  0  0  0
   57.8460   31.8030   44.9400 C   0  0  0  0  0  0  0  0  0  0  0  0
   57.6380   33.1850   44.9990 C   0  0  0  0  0  0  0  0  0  0  0  0
   57.9700   33.8710   46.1550 C   0  0  0  0  0  0  0  0  0  0  0  0
   58.5020   33.2120   47.2440 C   0  0  0  0  0  0  0  0  0  0  0  0
   58.6940   31.8480   47.1490 C   0  0  0  0  0  0  0  0  0  0  0  0
   58.3790   31.1240   46.0180 C   0  0  0  0  0  0  0  0  0  0  0  0
   58.5890   29.7040   45.9470 C   0  0  0  0  0  0  0  0  0  0  0  0
   59.8620   29.1410   45.8240 C   0  0  0  0  0  0  0  0  0  0  0  0
   60.0250   27.7640   45.7570 C   0  0  0  0  0  0  0  0  0  0  0  0
   58.9570   26.8920   45.8080 C   0  0  0  0  0  0  0  0  0  0  0  0
   58.8010   25.5510   45.7680 N   0  0  0  0  0  0  0  0  0  0  0  0
   57.5030   25.2470   45.8590 N   0  0  0  0  0  0  0  0  0  0  0  0
   56.7980   26.3880   45.9600 C   0  0  0  0  0  0  0  0  0  0  0  0
   55.5120   26.4350   46.0630 N   0  0  0  0  0  0  0  0  0  0  0  0
   57.6990   27.4510   45.9290 C   0  0  0  0  0  0  0  0  0  0  0  0
   57.5190   28.8230   45.9970 C   0  0  0  0  0  0  0  0  0  0  0  0
   56.2620   28.3619   43.0064 H   0  0  0  0  0  0  0  0  0  0  0  0
   55.4302   29.5705   41.9701 H   0  0  0  0  0  0  0  0  0  0  0  0
   57.2237   29.4700   41.9701 H   0  0  0  0  0  0  0  0  0  0  0  0
   57.2153   33.7210   44.1364 H   0  0  0  0  0  0  0  0  0  0  0  0
   57.8071   34.9577   46.2058 H   0  0  0  0  0  0  0  0  0  0  0  0
   58.7657   33.7577   48.1619 H   0  0  0  0  0  0  0  0  0  0  0  0
   59.1169   31.3152   48.0135 H   0  0  0  0  0  0  0  0  0  0  0  0
   60.7446   29.7961   45.7798 H   0  0  0  0  0  0  0  0  0  0  0  0
   61.0410   27.3538   45.6599 H   0  0  0  0  0  0  0  0  0  0  0  0
   59.5780   24.8830   45.6810 H   0  0  0  0  0  0  0  0  0  0  0  0
   57.1550   24.2500   45.8480 H   0  0  0  0  0  0  0  0  0  0  0  0
   55.1260   26.3360   47.0230 H   0  0  0  0  0  0  0  0  0  0  0  0
   56.4995   29.2246   46.0933 H   0  0  0  0  0  0  0  0  0  0  0  0
  1  2  1  0
  2  3  2  0
  2  4  1  0
  4  5  1  0
  5  6  2  0
  6  7  1  0
  7  8  2  0
  8  9  1  0
  9 10  2  0
 10 11  1  0
 11 12  2  0
 12 13  1  0
 13 14  2  0
 14 15  1  0
 15 16  1  0
 16 17  1  0
 17 18  2  3
 17 19  1  0
 19 20  2  0
 10  5  1  0
 20 11  1  0
 19 14  1  0
  1 21  1  0
  1 22  1  0
  1 23  1  0
  6 24  1  0
  7 25  1  0
  8 26  1  0
  9 27  1  0
 12 28  1  0
 13 29  1  0
 15 30  1  0
 16 31  1  0
 18 32  1  0
 20 33  1  0
M  END
>  <smiles>  (60) 
CC(=O)Oc1ccccc1-c1ccc2[nH][nH]c(=N)c2c1

>  <score_type>  (60) 
oracle

>  <origin>  (60) 
adg

>  <m_score__min__energy>  (60) 
-7.6299999999999999

>  <m_primary>  (60) 
energy

$$$$
60:0
     RDKit          3D

 28 29  0  0  0  0  0  0  0  0999 V2000
   54.5690   23.9830   46.3910 C   0  0  0  0  0  0  0  0  0  0  0  0
   55.9620   24.5530   46.4580 C   0  0  0  0  0  0  0  0  0  0  0  0
   56.2000   25.9010   46.1380 C   0  0  0  0  0  0  0  0  0  0  0  0
   55.1430   26.7170   45.7430 O   0  0  0  0  0  0  0  0  0  0  0  0
   57.5110   26.4060   46.1860 C   0  0  0  0  0  0  0  0  0  0  0  0
   57.8220   27.8200   45.8860 C   0  0  0  0  0  0  0  0  0  0  0  0
   58.8080   28.3630   46.4540 O   0  0  0  0  0  0  0  0  0  0  0  0
   57.0100   28.5750   44.9690 N   0  0  0  0  0  0  0  0  0  0  0  0
   57.2680   29.9480   44.6360 C   0  0  0  0  0  0  0  0  0  0  0  0
   57.7730   30.8080   45.6220 C   0  0  0  0  0  0  0  0  0  0  0  0
   58.0490   32.1450   45.3210 C   0  0  0  0  0  0  0  0  0  0  0  0
   57.8380   32.6280   44.0270 C   0  0  0  0  0  0  0  0  0  0  0  0
   57.3600   31.7720   43.0310 C   0  0  0  0  0  0  0  0  0  0  0  0
   57.0820   30.4330   43.3270 C   0  0  0  0  0  0  0  0  0  0  0  0
   56.6830   29.6060   42.3290 F   0  0  0  0  0  0  0  0  0  0  0  0
   58.5500   25.5190   46.4950 C   0  0  0  0  0  0  0  0  0  0  0  0
   58.2960   24.2430   46.7630 O   0  0  0  0  0  0  0  0  0  0  0  0
   57.0690   23.7360   46.7540 C   0  0  0  0  0  0  0  0  0  0  0  0
   56.9110   22.5120   47.0100 O   0  0  0  0  0  0  0  0  0  0  0  0
   54.1873   23.8268   47.4108 H   0  0  0  0  0  0  0  0  0  0  0  0
   53.9112   24.6843   45.8567 H   0  0  0  0  0  0  0  0  0  0  0  0
   54.5915   23.0218   45.8567 H   0  0  0  0  0  0  0  0  0  0  0  0
   56.2450   28.0920   44.4500 H   0  0  0  0  0  0  0  0  0  0  0  0
   57.9530   30.4282   46.6385 H   0  0  0  0  0  0  0  0  0  0  0  0
   58.4324   32.8169   46.1030 H   0  0  0  0  0  0  0  0  0  0  0  0
   58.0481   33.6819   43.7922 H   0  0  0  0  0  0  0  0  0  0  0  0
   57.2018   32.1522   42.0110 H   0  0  0  0  0  0  0  0  0  0  0  0
   59.5878   25.8831   46.5160 H   0  0  0  0  0  0  0  0  0  0  0  0
  1  2  1  0
  2  3  2  0
  3  4  1  0
  3  5  1  0
  5  6  1  0
  6  7  2  0
  6  8  1  0
  8  9  1  0
  9 10  2  0
 10 11  1  0
 11 12  2  0
 12 13  1  0
 13 14  2  0
 14 15  1  0
  5 16  2  0
 16 17  1  0
 17 18  1  0
 18 19  2  0
 18  2  1  0
 14  9  1  0
  1 20  1  0
  1 21  1  0
  1 22  1  0
  8 23  1  0
 10 24  1  0
 11 25  1  0
 12 26  1  0
 13 27  1  0
 16 28  1  0
M  CHG  1   4  -1
M  END
>  <UniqueID>  (61) 
57

>  <SMILES>  (61) 
Cc1c([O-])c(C(=O)Nc2ccccc2F)coc1=O

>  <Energy>  (61) 
41.42832507830264

>  <Genealogy>  (61) 
Cc1c([O-])c(C(=O)Nc2ccccc2F)coc1=O (protonated)
Cc1c([O-])c(C(=O)Nc2ccccc2F)coc1=O (3D coordinates assigned)
Cc1c([O-])c(C(=O)Nc2ccccc2F)coc1=O (optimized conformer: 41.42832507830264 kcal/mol)

>  <smiles>  (61) 
Cc1c(O)c(C(=O)Nc2ccccc2F)coc1=O

>  <score_type>  (61) 
oracle

>  <origin>  (61) 
adg

>  <m_score__min__energy>  (61) 
-10.390000000000001

>  <m_primary>  (61) 
energy

$$$$
61:0
     RDKit          3D

 59 62  0  0  0  0  0  0  0  0999 V2000
   65.7470   32.9790   50.3810 C   0  0  0  0  0  0  0  0  0  0  0  0
   64.5580   32.6980   49.5050 C   0  0  0  0  0  0  0  0  0  0  0  0
   63.6940   31.6300   49.7970 C   0  0  0  0  0  0  0  0  0  0  0  0
   62.6110   31.3490   48.9580 C   0  0  0  0  0  0  0  0  0  0  0  0
   62.3970   32.1070   47.8010 C   0  0  0  0  0  0  0  0  0  0  0  0
   61.2610   31.8170   46.9780 N   0  0  0  0  0  0  0  0  0  0  0  0
   60.2340   30.8660   47.2980 C   0  0  0  0  0  0  0  0  0  0  0  0
   60.1740   30.3380   48.4460 O   0  0  0  0  0  0  0  0  0  0  0  0
   59.2000   30.5550   46.3030 C   0  0  0  0  0  0  0  0  0  0  0  0
   59.0040   29.2130   45.9310 C   0  0  0  0  0  0  0  0  0  0  0  0
   57.9690   28.8600   45.0480 C   0  0  0  0  0  0  0  0  0  0  0  0
   57.7120   27.4380   44.7120 C   0  0  0  0  0  0  0  0  0  0  0  0
   58.1320   26.9730   43.6180 O   0  0  0  0  0  0  0  0  0  0  0  0
   56.9220   26.6110   45.5850 N   0  0  0  0  0  0  0  0  0  0  0  0
   56.7310   25.2000   45.3840 C   0  0  0  0  0  0  0  0  0  0  0  0
   57.7960   24.3680   44.9940 C   0  0  0  0  0  0  0  0  0  0  0  0
   57.5950   22.9900   44.8340 C   0  0  0  0  0  0  0  0  0  0  0  0
   56.3310   22.4290   45.0690 C   0  0  0  0  0  0  0  0  0  0  0  0
   56.0850   20.6930   44.8500 S   0  0  0  0  0  0  0  0  0  0  0  0
   54.5380   20.2400   45.4840 N   0  0  0  0  0  0  0  0  0  0  0  0
   57.1580   19.9250   45.5730 O   0  0  0  0  0  0  0  0  0  0  0  0
   56.1560   20.3550   43.3820 O   0  0  0  0  0  0  0  0  0  0  0  0
   55.2680   23.2570   45.4630 C   0  0  0  0  0  0  0  0  0  0  0  0
   55.4710   24.6300   45.6330 C   0  0  0  0  0  0  0  0  0  0  0  0
   57.1580   29.8740   44.5020 C   0  0  0  0  0  0  0  0  0  0  0  0
   57.3580   31.2120   44.8560 C   0  0  0  0  0  0  0  0  0  0  0  0
   58.3710   31.5660   45.7590 C   0  0  0  0  0  0  0  0  0  0  0  0
   58.5650   32.9570   46.0850 N   0  0  0  0  0  0  0  0  0  0  0  0
   58.1810   33.4810   47.3990 C   0  0  0  0  0  0  0  0  0  0  0  0
   59.1600   34.5810   47.8140 C   0  0  0  0  0  0  0  0  0  0  0  0
   59.2700   35.5600   46.7950 O   0  0  0  0  0  0  0  0  0  0  0  0
   59.8590   34.9890   45.6380 C   0  0  0  0  0  0  0  0  0  0  0  0
   58.9520   33.9110   45.0390 C   0  0  0  0  0  0  0  0  0  0  0  0
   63.2610   33.1750   47.5060 C   0  0  0  0  0  0  0  0  0  0  0  0
   64.3360   33.4660   48.3520 C   0  0  0  0  0  0  0  0  0  0  0  0
   65.4489   32.9085   51.4375 H   0  0  0  0  0  0  0  0  0  0  0  0
   66.5376   32.2430   50.1732 H   0  0  0  0  0  0  0  0  0  0  0  0
   66.1245   33.9911   50.1732 H   0  0  0  0  0  0  0  0  0  0  0  0
   63.8699   31.0117   50.6896 H   0  0  0  0  0  0  0  0  0  0  0  0
   61.9235   30.5277   49.2088 H   0  0  0  0  0  0  0  0  0  0  0  0
   59.6663   28.4329   46.3345 H   0  0  0  0  0  0  0  0  0  0  0  0
   56.3100   27.0830   46.2860 H   0  0  0  0  0  0  0  0  0  0  0  0
   58.7911   24.8007   44.8137 H   0  0  0  0  0  0  0  0  0  0  0  0
   58.4312   22.3465   44.5231 H   0  0  0  0  0  0  0  0  0  0  0  0
   53.8880   21.0310   45.2780 H   0  0  0  0  0  0  0  0  0  0  0  0
   54.2721   22.8242   45.6386 H   0  0  0  0  0  0  0  0  0  0  0  0
   54.6385   25.2683   45.9640 H   0  0  0  0  0  0  0  0  0  0  0  0
   56.3607   29.6112   43.7912 H   0  0  0  0  0  0  0  0  0  0  0  0
   56.7158   31.9929   44.4228 H   0  0  0  0  0  0  0  0  0  0  0  0
   57.1638   33.8962   47.3454 H   0  0  0  0  0  0  0  0  0  0  0  0
   58.2061   32.6684   48.1400 H   0  0  0  0  0  0  0  0  0  0  0  0
   58.7979   35.0583   48.7366 H   0  0  0  0  0  0  0  0  0  0  0  0
   60.1495   34.1308   47.9822 H   0  0  0  0  0  0  0  0  0  0  0  0
   60.0224   35.7787   44.8899 H   0  0  0  0  0  0  0  0  0  0  0  0
   60.8152   34.5256   45.9225 H   0  0  0  0  0  0  0  0  0  0  0  0
   58.0501   34.3820   44.6211 H   0  0  0  0  0  0  0  0  0  0  0  0
   59.4927   33.3799   44.2418 H   0  0  0  0  0  0  0  0  0  0  0  0
   63.0913   33.7846   46.6062 H   0  0  0  0  0  0  0  0  0  0  0  0
   65.0107   34.3010   48.1123 H   0  0  0  0  0  0  0  0  0  0  0  0
  1  2  1  0
  2  3  2  0
  3  4  1  0
  4  5  2  0
  5  6  1  0
  6  7  1  0
  7  8  2  0
  7  9  1  0
  9 10  2  0
 10 11  1  0
 11 12  1  0
 12 13  2  0
 12 14  1  0
 14 15  1  0
 15 16  2  0
 16 17  1  0
 17 18  2  0
 18 19  1  0
 19 20  1  0
 19 21  2  0
 19 22  2  0
 18 23  1  0
 23 24  2  0
 11 25  2  0
 25 26  1  0
 26 27  2  0
 27 28  1  0
 28 29  1  0
 29 30  1  0
 30 31  1  0
 31 32  1  0
 32 33  1  0
  5 34  1  0
 34 35  2  0
 35  2  1  0
 27  9  1  0
 33 28  1  0
 24 15  1  0
  1 36  1  0
  1 37  1  0
  1 38  1  0
  3 39  1  0
  4 40  1  0
 10 41  1  0
 14 42  1  0
 16 43  1  0
 17 44  1  0
 20 45  1  0
 23 46  1  0
 24 47  1  0
 25 48  1  0
 26 49  1  0
 29 50  1  0
 29 51  1  0
 30 52  1  0
 30 53  1  0
 32 54  1  0
 32 55  1  0
 33 56  1  0
 33 57  1  0
 34 58  1  0
 35 59  1  0
M  CHG  2   6  -1  20  -1
M  END
>  <UniqueID>  (62) 
58

>  <SMILES>  (62) 
Cc1ccc([N-]C(=O)c2cc(C(=O)Nc3ccc(S([NH-])(=O)=O)cc3)ccc2N2CCOCC2)cc1

>  <Energy>  (62) 
84.03312354783252

>  <Genealogy>  (62) 
Cc1ccc([N-]C(=O)c2cc(C(=O)Nc3ccc(S([NH-])(=O)=O)cc3)ccc2N2CCOCC2)cc1 (protonated)
Cc1ccc([N-]C(=O)c2cc(C(=O)Nc3ccc(S([NH-])(=O)=O)cc3)ccc2N2CCOCC2)cc1 (3D coordinates assigned)
Cc1ccc([N-]C(=O)c2cc(C(=O)Nc3ccc(S([NH-])(=O)=O)cc3)ccc2N2CCOCC2)cc1 (nonaromatic ring conformer: 84.03312354783252 kcal/mol)

>  <smiles>  (62) 
Cc1ccc(NC(=O)c2cc(C(=O)Nc3ccc(S(N)(=O)=O)cc3)ccc2N2CCOCC2)cc1

>  <score_type>  (62) 
oracle

>  <origin>  (62) 
adg

>  <m_score__min__energy>  (62) 
-12.24

>  <m_primary>  (62) 
energy

$$$$
62:0
     RDKit          3D

 69 74  0  0  0  0  0  0  0  0999 V2000
   67.3730   31.9770   50.8650 C   0  0  0  0  0  0  0  0  0  0  0  0
   66.1630   31.3430   50.4600 O   0  0  0  0  0  0  0  0  0  0  0  0
   64.9410   32.0090   50.2950 C   0  0  0  0  0  0  0  0  0  0  0  0
   64.1780   32.3040   51.4480 C   0  0  0  0  0  0  0  0  0  0  0  0
   62.9440   32.9680   51.3460 C   0  0  0  0  0  0  0  0  0  0  0  0
   62.4890   33.3350   50.0810 C   0  0  0  0  0  0  0  0  0  0  0  0
   63.2300   33.0510   48.9560 C   0  0  0  0  0  0  0  0  0  0  0  0
   64.4560   32.3910   49.0220 C   0  0  0  0  0  0  0  0  0  0  0  0
   62.5080   33.5700   47.8220 C   0  0  0  0  0  0  0  0  0  0  0  0
   62.8510   33.4590   46.6160 O   0  0  0  0  0  0  0  0  0  0  0  0
   61.3130   34.2060   48.2700 N   0  0  0  0  0  0  0  0  0  0  0  0
   60.2950   34.8310   47.4240 C   0  0  0  0  0  0  0  0  0  0  0  0
   59.1290   33.8660   47.1340 C   0  0  1  0  0  0  0  0  0  0  0  0
   58.7620   33.0840   48.3240 C   0  0  0  0  0  0  0  0  0  0  0  0
   58.4630   32.4510   49.3060 C   0  0  0  0  0  0  0  0  0  0  0  0
   58.1190   31.6890   50.4740 C   0  0  0  0  0  0  0  0  0  0  0  0
   57.7570   32.3320   51.6600 C   0  0  0  0  0  0  0  0  0  0  0  0
   57.4150   31.5770   52.7850 C   0  0  0  0  0  0  0  0  0  0  0  0
   57.4400   30.1710   52.7130 C   0  0  0  0  0  0  0  0  0  0  0  0
   57.0790   29.3480   53.8450 N   0  0  0  0  0  0  0  0  0  0  0  0
   55.6880   29.2820   54.3190 C   0  0  0  0  0  0  0  0  0  0  0  0
   55.6460   28.9020   55.8020 C   0  0  0  0  0  0  0  0  0  0  0  0
   56.4310   27.7510   56.0550 O   0  0  0  0  0  0  0  0  0  0  0  0
   57.7920   28.0440   55.8050 C   0  0  0  0  0  0  0  0  0  0  0  0
   58.0190   28.3230   54.3180 C   0  0  0  0  0  0  0  0  0  0  0  0
   57.7990   29.5760   51.5400 N   0  0  0  0  0  0  0  0  0  0  0  0
   58.1370   30.2920   50.4350 C   0  0  0  0  0  0  0  0  0  0  0  0
   57.9580   34.5920   46.6370 N   0  0  0  0  0  0  0  0  0  0  0  0
   57.6800   34.1040   45.3300 C   0  0  0  0  0  0  0  0  0  0  0  0
   56.7010   34.5010   44.6460 O   0  0  0  0  0  0  0  0  0  0  0  0
   58.5910   33.1120   44.8900 N   0  0  0  0  0  0  0  0  0  0  0  0
   58.3840   32.1670   43.7940 C   0  0  0  0  0  0  0  0  0  0  0  0
   57.8010   30.8810   44.3180 C   0  0  0  0  0  0  0  0  0  0  0  0
   58.6150   29.9490   44.9850 C   0  0  0  0  0  0  0  0  0  0  0  0
   58.0760   28.7450   45.4480 C   0  0  0  0  0  0  0  0  0  0  0  0
   56.7250   28.4550   45.2380 C   0  0  0  0  0  0  0  0  0  0  0  0
   55.9110   29.3710   44.5640 C   0  0  0  0  0  0  0  0  0  0  0  0
   56.4450   30.5790   44.1020 C   0  0  0  0  0  0  0  0  0  0  0  0
   59.4640   32.9400   45.9990 C   0  0  0  0  0  0  0  0  0  0  0  0
   60.4020   32.0980   46.0140 O   0  0  0  0  0  0  0  0  0  0  0  0
   61.2210   34.0580   49.7270 C   0  0  0  0  0  0  0  0  0  0  0  0
   67.4233   32.0033   51.9635 H   0  0  0  0  0  0  0  0  0  0  0  0
   68.2318   31.4130   50.4721 H   0  0  0  0  0  0  0  0  0  0  0  0
   67.3981   33.0041   50.4721 H   0  0  0  0  0  0  0  0  0  0  0  0
   64.5555   32.0097   52.4384 H   0  0  0  0  0  0  0  0  0  0  0  0
   62.3505   33.1931   52.2444 H   0  0  0  0  0  0  0  0  0  0  0  0
   65.0305   32.1732   48.1096 H   0  0  0  0  0  0  0  0  0  0  0  0
   59.9024   35.7217   47.9365 H   0  0  0  0  0  0  0  0  0  0  0  0
   60.7628   35.1035   46.4665 H   0  0  0  0  0  0  0  0  0  0  0  0
   57.7412   33.4308   51.7083 H   0  0  0  0  0  0  0  0  0  0  0  0
   57.1280   32.0781   53.7212 H   0  0  0  0  0  0  0  0  0  0  0  0
   55.2119   30.2643   54.1831 H   0  0  0  0  0  0  0  0  0  0  0  0
   55.1499   28.5173   53.7397 H   0  0  0  0  0  0  0  0  0  0  0  0
   56.0345   29.7403   56.3990 H   0  0  0  0  0  0  0  0  0  0  0  0
   54.6040   28.6820   56.0773 H   0  0  0  0  0  0  0  0  0  0  0  0
   58.0838   28.9302   56.3877 H   0  0  0  0  0  0  0  0  0  0  0  0
   58.4012   27.1768   56.0999 H   0  0  0  0  0  0  0  0  0  0  0  0
   59.0493   28.6779   54.1680 H   0  0  0  0  0  0  0  0  0  0  0  0
   57.8548   27.3957   53.7496 H   0  0  0  0  0  0  0  0  0  0  0  0
   58.4248   29.7716   49.5096 H   0  0  0  0  0  0  0  0  0  0  0  0
   57.6922   32.6072   43.0607 H   0  0  0  0  0  0  0  0  0  0  0  0
   59.3519   31.9537   43.3169 H   0  0  0  0  0  0  0  0  0  0  0  0
   59.6813   30.1681   45.1434 H   0  0  0  0  0  0  0  0  0  0  0  0
   58.7162   28.0248   45.9784 H   0  0  0  0  0  0  0  0  0  0  0  0
   56.3023   27.5071   45.6025 H   0  0  0  0  0  0  0  0  0  0  0  0
   54.8484   29.1412   44.3967 H   0  0  0  0  0  0  0  0  0  0  0  0
   55.8020   31.2944   43.5683 H   0  0  0  0  0  0  0  0  0  0  0  0
   61.1761   35.0399   50.2209 H   0  0  0  0  0  0  0  0  0  0  0  0
   60.3157   33.5227   50.0492 H   0  0  0  0  0  0  0  0  0  0  0  0
  1  2  1  0
  2  3  1  0
  3  4  2  0
  4  5  1  0
  5  6  2  0
  6  7  1  0
  7  8  2  0
  7  9  1  0
  9 10  2  0
  9 11  1  0
 11 12  1  0
 12 13  1  0
 13 14  1  1
 14 15  3  0
 15 16  1  0
 16 17  2  0
 17 18  1  0
 18 19  2  0
 19 20  1  0
 20 21  1  0
 21 22  1  0
 22 23  1  0
 23 24  1  0
 24 25  1  0
 19 26  1  0
 26 27  2  0
 13 28  1  0
 28 29  1  0
 29 30  2  0
 29 31  1  0
 31 32  1  0
 32 33  1  0
 33 34  2  0
 34 35  1  0
 35 36  2  0
 36 37  1  0
 37 38  2  0
 31 39  1  0
 39 40  2  0
 11 41  1  0
  8  3  1  0
 39 13  1  0
 41  6  1  0
 27 16  1  0
 38 33  1  0
 25 20  1  0
  1 42  1  0
  1 43  1  0
  1 44  1  0
  4 45  1  0
  5 46  1  0
  8 47  1  0
 12 48  1  0
 12 49  1  0
 17 50  1  0
 18 51  1  0
 21 52  1  0
 21 53  1  0
 22 54  1  0
 22 55  1  0
 24 56  1  0
 24 57  1  0
 25 58  1  0
 25 59  1  0
 27 60  1  0
 32 61  1  0
 32 62  1  0
 34 63  1  0
 35 64  1  0
 36 65  1  0
 37 66  1  0
 38 67  1  0
 41 68  1  0
 41 69  1  0
M  CHG  1  28  -1
M  END
>  <UniqueID>  (63) 
59

>  <SMILES>  (63) 
COc1ccc2c(c1)C(=O)N(C[C@@]1(C#Cc3ccc(N4CCOCC4)nc3)[N-]C(=O)N(Cc3ccccc3)C1=O)C2

>  <Energy>  (63) 
111.17097207330217

>  <Genealogy>  (63) 
COc1ccc2c(c1)C(=O)N(CC1(C#Cc3ccc(N4CCOCC4)nc3)[N-]C(=O)N(Cc3ccccc3)C1=O)C2 (protonated)
COc1ccc2c(c1)C(=O)N(C[C@@]1(C#Cc3ccc(N4CCOCC4)nc3)[N-]C(=O)N(Cc3ccccc3)C1=O)C2 (chirality)
COc1ccc2c(c1)C(=O)N(C[C@@]1(C#Cc3ccc(N4CCOCC4)nc3)[N-]C(=O)N(Cc3ccccc3)C1=O)C2 (3D coordinates assigned)
COc1ccc2c(c1)C(=O)N(C[C@@]1(C#Cc3ccc(N4CCOCC4)nc3)[N-]C(=O)N(Cc3ccccc3)C1=O)C2 (nonaromatic ring conformer: 111.17097207330217 kcal/mol)

>  <smiles>  (63) 
COc1ccc2c(c1)C(=O)N(CC1(C#Cc3ccc(N4CCOCC4)nc3)NC(=O)N(Cc3ccccc3)C1=O)C2

>  <score_type>  (63) 
oracle

>  <origin>  (63) 
adg

>  <m_score__min__energy>  (63) 
-10.57

>  <m_primary>  (63) 
energy

$$$$
63:0
     RDKit          3D

 42 43  0  0  0  0  0  0  0  0999 V2000
   56.1760   20.9900   43.3620 N   0  0  0  0  0  0  0  0  0  0  0  0
   56.0590   22.4110   43.4190 C   0  0  0  0  0  0  0  0  0  0  0  0
   55.2290   22.9790   42.6600 O   0  0  0  0  0  0  0  0  0  0  0  0
   56.8900   23.2180   44.3550 C   0  0  0  0  0  0  0  0  0  0  0  0
   56.3460   24.3890   44.9210 C   0  0  0  0  0  0  0  0  0  0  0  0
   57.0830   25.1740   45.8230 C   0  0  0  0  0  0  0  0  0  0  0  0
   56.4910   26.4600   46.3710 C   0  0  2  0  0  0  0  0  0  0  0  0
   55.1780   26.6310   45.8960 O   0  0  0  0  0  0  0  0  0  0  0  0
   57.3520   27.7000   46.0520 C   0  0  0  0  0  0  0  0  0  0  0  0
   57.0770   28.2270   44.7180 N   0  0  0  0  0  0  0  0  0  0  0  0
   56.2640   29.3800   44.4710 C   0  0  0  0  0  0  0  0  0  0  0  0
   55.0790   29.4300   44.8990 O   0  0  0  0  0  0  0  0  0  0  0  0
   56.8100   30.5220   43.6690 C   0  0  0  0  0  0  0  0  0  0  0  0
   58.2470   30.8840   44.0690 C   0  0  0  0  0  0  0  0  0  0  0  0
   58.3030   32.0930   44.9710 C   0  0  0  0  0  0  0  0  0  0  0  0
   58.4300   33.3800   44.4220 C   0  0  0  0  0  0  0  0  0  0  0  0
   58.4980   34.5000   45.2550 C   0  0  0  0  0  0  0  0  0  0  0  0
   58.4250   34.3490   46.6410 C   0  0  0  0  0  0  0  0  0  0  0  0
   58.3000   33.0740   47.1990 C   0  0  0  0  0  0  0  0  0  0  0  0
   58.2470   31.9480   46.3710 C   0  0  0  0  0  0  0  0  0  0  0  0
   58.1510   30.7180   46.9370 F   0  0  0  0  0  0  0  0  0  0  0  0
   58.3900   24.7820   46.1550 C   0  0  0  0  0  0  0  0  0  0  0  0
   58.9430   23.6290   45.6030 C   0  0  0  0  0  0  0  0  0  0  0  0
   58.2090   22.8450   44.7030 C   0  0  0  0  0  0  0  0  0  0  0  0
   58.7970   21.6990   44.1660 O   0  0  0  0  0  0  0  0  0  0  0  0
   57.0980   20.5200   43.5000 H   0  0  0  0  0  0  0  0  0  0  0  0
   55.3242   24.6939   44.6509 H   0  0  0  0  0  0  0  0  0  0  0  0
   56.4733   26.3655   47.4668 H   0  0  0  0  0  0  0  0  0  0  0  0
   55.1500   27.4710   45.3660 H   0  0  0  0  0  0  0  0  0  0  0  0
   57.1369   28.4825   46.7945 H   0  0  0  0  0  0  0  0  0  0  0  0
   58.4093   27.3985   46.0875 H   0  0  0  0  0  0  0  0  0  0  0  0
   56.7991   30.2434   42.6049 H   0  0  0  0  0  0  0  0  0  0  0  0
   56.1768   31.4004   43.8623 H   0  0  0  0  0  0  0  0  0  0  0  0
   58.6937   30.0282   44.5963 H   0  0  0  0  0  0  0  0  0  0  0  0
   58.8020   31.1237   43.1500 H   0  0  0  0  0  0  0  0  0  0  0  0
   58.4762   33.5068   43.3303 H   0  0  0  0  0  0  0  0  0  0  0  0
   58.6093   35.5031   44.8175 H   0  0  0  0  0  0  0  0  0  0  0  0
   58.4659   35.2335   47.2936 H   0  0  0  0  0  0  0  0  0  0  0  0
   58.2432   32.9557   48.2911 H   0  0  0  0  0  0  0  0  0  0  0  0
   58.9811   25.3898   46.8559 H   0  0  0  0  0  0  0  0  0  0  0  0
   59.9660   23.3309   45.8763 H   0  0  0  0  0  0  0  0  0  0  0  0
   58.2660   20.8510   44.0090 H   0  0  0  0  0  0  0  0  0  0  0  0
  1  2  1  0
  2  3  2  0
  2  4  1  0
  4  5  2  0
  5  6  1  0
  6  7  1  0
  7  8  1  0
  7  9  1  0
  9 10  1  0
 10 11  1  0
 11 12  2  0
 11 13  1  0
 13 14  1  0
 14 15  1  0
 15 16  2  0
 16 17  1  0
 17 18  2  0
 18 19  1  0
 19 20  2  0
 20 21  1  0
  6 22  2  0
 22 23  1  0
 23 24  2  0
 24 25  1  0
 24  4  1  0
 20 15  1  0
  1 26  1  0
  5 27  1  0
  7 28  1  1
  8 29  1  0
  9 30  1  0
  9 31  1  0
 13 32  1  0
 13 33  1  0
 14 34  1  0
 14 35  1  0
 16 36  1  0
 17 37  1  0
 18 38  1  0
 19 39  1  0
 22 40  1  0
 23 41  1  0
 25 42  1  0
M  CHG  2   1  -1  10  -1
M  END
>  <UniqueID>  (64) 
60

>  <SMILES>  (64) 
[NH-]C(=O)c1cc([C@H](O)C[N-]C(=O)CCc2ccccc2F)ccc1O

>  <Energy>  (64) 
37.34515785849193

>  <Genealogy>  (64) 
[NH-]C(=O)c1cc(C(O)C[N-]C(=O)CCc2ccccc2F)ccc1O (protonated)
[NH-]C(=O)c1cc([C@H](O)C[N-]C(=O)CCc2ccccc2F)ccc1O (chirality)
[NH-]C(=O)c1cc([C@H](O)C[N-]C(=O)CCc2ccccc2F)ccc1O (3D coordinates assigned)
[NH-]C(=O)c1cc([C@H](O)C[N-]C(=O)CCc2ccccc2F)ccc1O (optimized conformer: 37.34515785849193 kcal/mol)

>  <smiles>  (64) 
NC(=O)c1cc(C(O)CNC(=O)CCc2ccccc2F)ccc1O

>  <score_type>  (64) 
oracle

>  <origin>  (64) 
adg

>  <m_score__min__energy>  (64) 
-12.5

>  <m_primary>  (64) 
energy

$$$$
64:0
     RDKit          3D

 34 34  0  0  0  0  0  0  0  0999 V2000
   56.9800   21.8920   43.3640 C   0  0  0  0  0  0  0  0  0  0  0  0
   56.2670   23.1870   42.9870 C   0  0  0  0  0  0  0  0  0  0  0  0
   56.9320   24.3970   43.6560 C   0  0  0  0  0  0  0  0  0  0  0  0
   56.8120   24.3700   45.1860 C   0  0  0  0  0  0  0  0  0  0  0  0
   56.6010   26.0020   45.9000 S   0  0  0  0  0  0  0  0  0  0  0  0
   57.2020   26.0080   47.2780 O   0  0  0  0  0  0  0  0  0  0  0  0
   55.1390   26.3290   46.0160 O   0  0  0  0  0  0  0  0  0  0  0  0
   57.3990   27.2070   44.9420 N   0  0  0  0  0  0  0  0  0  0  0  0
   58.3090   28.2050   45.4280 C   0  0  0  0  0  0  0  0  0  0  0  0
   59.4580   27.8570   46.1580 C   0  0  0  0  0  0  0  0  0  0  0  0
   60.3290   28.8440   46.6240 C   0  0  0  0  0  0  0  0  0  0  0  0
   60.0720   30.2000   46.3700 C   0  0  0  0  0  0  0  0  0  0  0  0
   60.9750   31.2130   46.8510 N   0  0  0  0  0  0  0  0  0  0  0  0
   60.6270   32.4120   46.8890 O   0  0  0  0  0  0  0  0  0  0  0  0
   62.2400   30.8780   47.2760 O   0  0  0  0  0  0  0  0  0  0  0  0
   58.9210   30.5500   45.6430 C   0  0  0  0  0  0  0  0  0  0  0  0
   58.0400   29.5630   45.1740 C   0  0  0  0  0  0  0  0  0  0  0  0
   56.5870   30.0340   44.2840 S   0  0  0  0  0  0  0  0  0  0  0  0
   55.2390   29.1240   44.8680 N   0  0  0  0  0  0  0  0  0  0  0  0
   56.3340   31.5030   44.4840 O   0  0  0  0  0  0  0  0  0  0  0  0
   56.7590   29.7660   42.8150 O   0  0  0  0  0  0  0  0  0  0  0  0
   57.0278   21.8053   44.4595 H   0  0  0  0  0  0  0  0  0  0  0  0
   56.4264   21.0353   42.9521 H   0  0  0  0  0  0  0  0  0  0  0  0
   57.9999   21.9017   42.9521 H   0  0  0  0  0  0  0  0  0  0  0  0
   56.3054   23.3138   41.8950 H   0  0  0  0  0  0  0  0  0  0  0  0
   55.2243   23.1256   43.3320 H   0  0  0  0  0  0  0  0  0  0  0  0
   57.9986   24.4054   43.3870 H   0  0  0  0  0  0  0  0  0  0  0  0
   56.4145   25.2995   43.2987 H   0  0  0  0  0  0  0  0  0  0  0  0
   55.9433   23.7528   45.4589 H   0  0  0  0  0  0  0  0  0  0  0  0
   57.7504   23.9555   45.5829 H   0  0  0  0  0  0  0  0  0  0  0  0
   59.6732   26.7981   46.3642 H   0  0  0  0  0  0  0  0  0  0  0  0
   61.2241   28.5562   47.1950 H   0  0  0  0  0  0  0  0  0  0  0  0
   58.7082   31.6098   45.4392 H   0  0  0  0  0  0  0  0  0  0  0  0
   55.5290   28.1200   44.8780 H   0  0  0  0  0  0  0  0  0  0  0  0
  1  2  1  0
  2  3  1  0
  3  4  1  0
  4  5  1  0
  5  6  2  0
  5  7  2  0
  5  8  1  0
  8  9  1  0
  9 10  2  0
 10 11  1  0
 11 12  2  0
 12 13  1  0
 13 14  2  0
 13 15  1  0
 12 16  1  0
 16 17  2  0
 17 18  1  0
 18 19  1  0
 18 20  2  0
 18 21  2  0
 17  9  1  0
  1 22  1  0
  1 23  1  0
  1 24  1  0
  2 25  1  0
  2 26  1  0
  3 27  1  0
  3 28  1  0
  4 29  1  0
  4 30  1  0
 10 31  1  0
 11 32  1  0
 16 33  1  0
 19 34  1  0
M  CHG  4   8  -1  13   1  15  -1  19  -1
M  END
>  <UniqueID>  (65) 
61

>  <SMILES>  (65) 
CCCCS(=O)(=O)[N-]c1ccc([N+](=O)[O-])cc1S([NH-])(=O)=O

>  <Energy>  (65) 
26.306006377017816

>  <Genealogy>  (65) 
CCCCS(=O)(=O)[N-]c1ccc([N+](=O)[O-])cc1S([NH-])(=O)=O (protonated)
CCCCS(=O)(=O)[N-]c1ccc([N+](=O)[O-])cc1S([NH-])(=O)=O (3D coordinates assigned)
CCCCS(=O)(=O)[N-]c1ccc([N+](=O)[O-])cc1S([NH-])(=O)=O (optimized conformer: 26.306006377017816 kcal/mol)

>  <smiles>  (65) 
CCCCS(=O)(=O)Nc1ccc([N+](=O)[O-])cc1S(N)(=O)=O

>  <score_type>  (65) 
oracle

>  <origin>  (65) 
adg

>  <m_score__min__energy>  (65) 
-11.93

>  <m_primary>  (65) 
energy

$$$$
65:0
     RDKit          3D

 42 45  0  0  0  0  0  0  0  0999 V2000
   60.8236   34.7713   48.2525 H   0  0  0  0  0  0  0  0  0  0  0  0
   61.3500   33.8250   48.0590 C   0  0  0  0  0  0  0  0  0  0  0  0
   60.6950   32.6430   48.1940 N   0  0  0  0  0  0  0  0  0  0  0  0
   61.3060   31.4510   47.9470 C   0  0  0  0  0  0  0  0  0  0  0  0
   60.6170   30.2060   48.1280 N   0  0  0  0  0  0  0  0  0  0  0  0
   60.2100   29.4010   47.1940 C   0  0  0  0  0  0  0  0  0  0  0  0
   59.2710   28.4430   47.3640 N   0  0  0  0  0  0  0  0  0  0  0  0
   59.0420   27.7630   46.2060 C   0  0  0  0  0  0  0  0  0  0  0  0
   58.0380   26.6760   46.1250 C   0  0  0  0  0  0  0  0  0  0  0  0
   58.4520   25.3400   46.2690 C   0  0  0  0  0  0  0  0  0  0  0  0
   59.5101   25.1148   46.4681 H   0  0  0  0  0  0  0  0  0  0  0  0
   57.5290   24.2960   46.1610 C   0  0  0  0  0  0  0  0  0  0  0  0
   57.8636   23.2544   46.2750 H   0  0  0  0  0  0  0  0  0  0  0  0
   56.1840   24.5710   45.9090 C   0  0  0  0  0  0  0  0  0  0  0  0
   55.4604   23.7464   45.8285 H   0  0  0  0  0  0  0  0  0  0  0  0
   55.7560   25.8910   45.7590 C   0  0  0  0  0  0  0  0  0  0  0  0
   54.6939   26.1037   45.5672 H   0  0  0  0  0  0  0  0  0  0  0  0
   56.6770   26.9510   45.8520 C   0  0  0  0  0  0  0  0  0  0  0  0
   56.2480   28.3030   45.6170 N   0  0  0  0  0  0  0  0  0  0  0  0
   56.5910   29.1510   44.1320 S   0  0  0  0  0  0  0  0  0  0  0  0
   57.4750   28.3080   43.2540 O   0  0  0  0  0  0  0  0  0  0  0  0
   55.2900   29.4280   43.4130 O   0  0  0  0  0  0  0  0  0  0  0  0
   57.3550   30.6940   44.4950 C   0  0  0  0  0  0  0  0  0  0  0  0
   57.7640   31.0070   45.7980 C   0  0  0  0  0  0  0  0  0  0  0  0
   57.6214   30.2775   46.6089 H   0  0  0  0  0  0  0  0  0  0  0  0
   58.3520   32.2430   46.0680 C   0  0  0  0  0  0  0  0  0  0  0  0
   58.6756   32.4864   47.0908 H   0  0  0  0  0  0  0  0  0  0  0  0
   58.5300   33.1720   45.0390 C   0  0  0  0  0  0  0  0  0  0  0  0
   59.2580   34.7280   45.3790 Cl  0  0  0  0  0  0  0  0  0  0  0  0
   58.1190   32.8630   43.7400 C   0  0  0  0  0  0  0  0  0  0  0  0
   58.2564   33.5958   42.9312 H   0  0  0  0  0  0  0  0  0  0  0  0
   57.5350   31.6270   43.4680 C   0  0  0  0  0  0  0  0  0  0  0  0
   57.2150   31.3846   42.4439 H   0  0  0  0  0  0  0  0  0  0  0  0
   59.8090   28.1860   45.1110 C   0  0  0  0  0  0  0  0  0  0  0  0
   59.7732   27.7623   44.0965 H   0  0  0  0  0  0  0  0  0  0  0  0
   60.7910   29.4500   45.6150 S   0  0  0  0  0  0  0  0  0  0  0  0
   62.6390   31.4330   47.5170 C   0  0  0  0  0  0  0  0  0  0  0  0
   63.1352   30.4778   47.2902 H   0  0  0  0  0  0  0  0  0  0  0  0
   63.3300   32.6310   47.3790 C   0  0  0  0  0  0  0  0  0  0  0  0
   64.3759   32.6294   47.0384 H   0  0  0  0  0  0  0  0  0  0  0  0
   62.6900   33.8380   47.6750 C   0  0  0  0  0  0  0  0  0  0  0  0
   63.2385   34.7890   47.6056 H   0  0  0  0  0  0  0  0  0  0  0  0
  1  2  1  0
  2  3  2  0
  3  4  1  0
  4  5  1  0
  5  6  2  0
  6  7  1  0
  7  8  1  0
  8  9  1  0
  9 10  2  0
 10 11  1  0
 10 12  1  0
 12 13  1  0
 12 14  2  0
 14 15  1  0
 14 16  1  0
 16 17  1  0
 16 18  2  0
 18 19  1  0
 19 20  1  0
 20 21  2  0
 20 22  2  0
 20 23  1  0
 23 24  2  0
 24 25  1  0
 24 26  1  0
 26 27  1  0
 26 28  2  0
 28 29  1  0
 28 30  1  0
 30 31  1  0
 30 32  2  0
 32 33  1  0
  8 34  2  0
 34 35  1  0
 34 36  1  0
  4 37  2  0
 37 38  1  0
 37 39  1  0
 39 40  1  0
 39 41  2  0
 41 42  1  0
 41  2  1  0
 36  6  1  0
 18  9  1  0
 32 23  1  0
M  CHG  2   7  -1  19  -1
M  END
>  <UniqueID>  (66) 
62

>  <SMILES>  (66) 
O=S(=O)([N-]c1ccccc1-c1cs/c(=N/c2ccccn2)[n-]1)c1ccc(Cl)cc1

>  <Energy>  (66) 
89.38418042270287

>  <Genealogy>  (66) 
O=S(=O)([N-]c1ccccc1-c1csc(=Nc2ccccn2)[n-]1)c1ccc(Cl)cc1 (protonated)
O=S(=O)([N-]c1ccccc1-c1cs/c(=N/c2ccccn2)[n-]1)c1ccc(Cl)cc1 (cis-trans isomerization)
O=S(=O)([N-]c1ccccc1-c1cs/c(=N/c2ccccn2)[n-]1)c1ccc(Cl)cc1 (3D coordinates assigned)
O=S(=O)([N-]c1ccccc1-c1cs/c(=N/c2ccccn2)[n-]1)c1ccc(Cl)cc1 (optimized conformer: 89.38418042270287 kcal/mol)

>  <smiles>  (66) 
O=S(=O)(Nc1ccccc1-c1csc(=Nc2ccccn2)[nH]1)c1ccc(Cl)cc1

>  <score_type>  (66) 
oracle

>  <origin>  (66) 
adg

>  <m_score__min__energy>  (66) 
-12.74

>  <m_primary>  (66) 
energy

$$$$
66:0
     RDKit          3D

 38 40  0  0  0  0  0  0  0  0999 V2000
   57.6370   27.3030   45.5360 O   0  0  0  0  0  0  0  0  0  0  0  0
   56.3970   27.5160   45.6090 C   0  0  0  0  0  0  0  0  0  0  0  0
   55.5480   26.4780   46.1130 N   0  0  0  0  0  0  0  0  0  0  0  0
   55.5440   25.1120   45.6780 C   0  0  0  0  0  0  0  0  0  0  0  0
   54.4660   24.2530   45.9610 C   0  0  0  0  0  0  0  0  0  0  0  0
   54.4780   22.9350   45.4950 C   0  0  0  0  0  0  0  0  0  0  0  0
   55.5530   22.4710   44.7320 C   0  0  0  0  0  0  0  0  0  0  0  0
   56.6130   23.3280   44.4250 C   0  0  0  0  0  0  0  0  0  0  0  0
   56.6030   24.6480   44.8890 C   0  0  0  0  0  0  0  0  0  0  0  0
   55.8620   28.7960   45.2390 N   0  0  0  0  0  0  0  0  0  0  0  0
   56.6760   29.8420   44.6980 C   0  0  0  0  0  0  0  0  0  0  0  0
   56.3500   30.3750   43.4440 C   0  0  0  0  0  0  0  0  0  0  0  0
   57.1150   31.4070   42.8940 C   0  0  0  0  0  0  0  0  0  0  0  0
   58.2030   31.9240   43.6010 C   0  0  0  0  0  0  0  0  0  0  0  0
   58.5210   31.4180   44.8640 C   0  0  0  0  0  0  0  0  0  0  0  0
   57.7570   30.3860   45.4250 C   0  0  0  0  0  0  0  0  0  0  0  0
   58.1530   29.8250   47.0880 S   0  0  0  0  0  0  0  0  0  0  0  0
   59.5700   30.9160   47.2270 C   0  0  0  0  0  0  0  0  0  0  0  0
   59.3880   32.2640   47.5610 C   0  0  0  0  0  0  0  0  0  0  0  0
   60.4920   33.1170   47.6630 C   0  0  0  0  0  0  0  0  0  0  0  0
   61.7810   32.6230   47.4380 C   0  0  0  0  0  0  0  0  0  0  0  0
   63.2880   33.7880   47.5760 Br  0  0  0  0  0  0  0  0  0  0  0  0
   61.9660   31.2750   47.1120 C   0  0  0  0  0  0  0  0  0  0  0  0
   60.8620   30.4220   47.0100 C   0  0  0  0  0  0  0  0  0  0  0  0
   53.6122   24.6192   46.5500 H   0  0  0  0  0  0  0  0  0  0  0  0
   53.6400   22.2621   45.7293 H   0  0  0  0  0  0  0  0  0  0  0  0
   55.5646   21.4312   44.3732 H   0  0  0  0  0  0  0  0  0  0  0  0
   57.4556   22.9648   43.8183 H   0  0  0  0  0  0  0  0  0  0  0  0
   57.4316   25.3245   44.6324 H   0  0  0  0  0  0  0  0  0  0  0  0
   54.8310   28.9570   45.2780 H   0  0  0  0  0  0  0  0  0  0  0  0
   55.4868   29.9788   42.8891 H   0  0  0  0  0  0  0  0  0  0  0  0
   56.8602   31.8124   41.9037 H   0  0  0  0  0  0  0  0  0  0  0  0
   58.8100   32.7301   43.1632 H   0  0  0  0  0  0  0  0  0  0  0  0
   59.3750   31.8317   45.4204 H   0  0  0  0  0  0  0  0  0  0  0  0
   58.3752   32.6526   47.7434 H   0  0  0  0  0  0  0  0  0  0  0  0
   60.3463   34.1765   47.9202 H   0  0  0  0  0  0  0  0  0  0  0  0
   62.9797   30.8859   46.9359 H   0  0  0  0  0  0  0  0  0  0  0  0
   61.0092   29.3612   46.7588 H   0  0  0  0  0  0  0  0  0  0  0  0
  1  2  2  0
  2  3  1  0
  3  4  1  0
  4  5  2  0
  5  6  1  0
  6  7  2  0
  7  8  1  0
  8  9  2  0
  2 10  1  0
 10 11  1  0
 11 12  2  0
 12 13  1  0
 13 14  2  0
 14 15  1  0
 15 16  2  0
 16 17  1  0
 17 18  1  0
 18 19  2  0
 19 20  1  0
 20 21  2  0
 21 22  1  0
 21 23  1  0
 23 24  2  0
  9  4  1  0
 16 11  1  0
 24 18  1  0
  5 25  1  0
  6 26  1  0
  7 27  1  0
  8 28  1  0
  9 29  1  0
 10 30  1  0
 12 31  1  0
 13 32  1  0
 14 33  1  0
 15 34  1  0
 19 35  1  0
 20 36  1  0
 23 37  1  0
 24 38  1  0
M  CHG  1   3  -1
M  END
>  <UniqueID>  (67) 
63

>  <SMILES>  (67) 
O=C([N-]c1ccccc1)Nc1ccccc1Sc1ccc(Br)cc1

>  <Energy>  (67) 
46.093996275001714

>  <Genealogy>  (67) 
O=C([N-]c1ccccc1)Nc1ccccc1Sc1ccc(Br)cc1 (protonated)
O=C([N-]c1ccccc1)Nc1ccccc1Sc1ccc(Br)cc1 (3D coordinates assigned)
O=C([N-]c1ccccc1)Nc1ccccc1Sc1ccc(Br)cc1 (optimized conformer: 46.093996275001714 kcal/mol)

>  <smiles>  (67) 
O=C(Nc1ccccc1)Nc1ccccc1Sc1ccc(Br)cc1

>  <score_type>  (67) 
oracle

>  <origin>  (67) 
adg

>  <m_score__min__energy>  (67) 
-10.02

>  <m_primary>  (67) 
energy

$$$$
67:0
     RDKit          3D

 44 46  0  0  0  0  0  0  0  0999 V2000
   56.1833   22.8711   47.7351 H   0  0  0  0  0  0  0  0  0  0  0  0
   56.5630   23.5730   46.9780 C   0  0  0  0  0  0  0  0  0  0  0  0
   55.9360   24.7640   46.7800 N   0  0  0  0  0  0  0  0  0  0  0  0
   56.3590   25.6530   45.8380 C   0  0  0  0  0  0  0  0  0  0  0  0
   55.7270   26.9340   45.6910 N   0  0  0  0  0  0  0  0  0  0  0  0
   56.2740   28.0910   45.4360 C   0  0  0  0  0  0  0  0  0  0  0  0
   55.5200   29.0270   44.8050 N   0  0  0  0  0  0  0  0  0  0  0  0
   55.9950   30.2590   44.4930 C   0  0  0  0  0  0  0  0  0  0  0  0
   55.3437   30.9790   43.9759 H   0  0  0  0  0  0  0  0  0  0  0  0
   57.3070   30.6230   44.8230 C   0  0  0  0  0  0  0  0  0  0  0  0
   57.7940   31.9590   44.4040 C   0  0  0  0  0  0  0  0  0  0  0  0
   58.3080   32.1110   43.2630 O   0  0  0  0  0  0  0  0  0  0  0  0
   57.6610   33.0860   45.2820 N   0  0  0  0  0  0  0  0  0  0  0  0
   57.2770   32.9320   46.2420 H   0  0  0  0  0  0  0  0  0  0  0  0
   58.0790   34.4260   44.8690 C   0  0  0  0  0  0  0  0  0  0  0  0
   57.7742   34.5886   43.8247 H   0  0  0  0  0  0  0  0  0  0  0  0
   57.5996   35.1563   45.5374 H   0  0  0  0  0  0  0  0  0  0  0  0
   59.6000   34.6040   44.9770 C   0  0  0  0  0  0  0  0  0  0  0  0
   60.0901   33.9272   44.2617 H   0  0  0  0  0  0  0  0  0  0  0  0
   59.8398   35.6539   44.7529 H   0  0  0  0  0  0  0  0  0  0  0  0
   60.0990   34.2930   46.3650 C   0  0  0  0  0  0  0  0  0  0  0  0
   61.3960   33.7880   46.5620 C   0  0  0  0  0  0  0  0  0  0  0  0
   62.0483   33.6006   45.6964 H   0  0  0  0  0  0  0  0  0  0  0  0
   61.8600   33.5230   47.8540 C   0  0  0  0  0  0  0  0  0  0  0  0
   62.8753   33.1265   48.0024 H   0  0  0  0  0  0  0  0  0  0  0  0
   61.0360   33.7610   48.9570 C   0  0  0  0  0  0  0  0  0  0  0  0
   61.4026   33.5505   49.9725 H   0  0  0  0  0  0  0  0  0  0  0  0
   59.7470   34.2660   48.7710 C   0  0  0  0  0  0  0  0  0  0  0  0
   59.1000   34.4547   49.6404 H   0  0  0  0  0  0  0  0  0  0  0  0
   59.2780   34.5320   47.4800 C   0  0  0  0  0  0  0  0  0  0  0  0
   58.2624   34.9298   47.3373 H   0  0  0  0  0  0  0  0  0  0  0  0
   58.1150   29.6960   45.5340 C   0  0  0  0  0  0  0  0  0  0  0  0
   59.5250   30.0380   45.9810 C   0  0  0  0  0  0  0  0  0  0  0  0
   59.6330   31.3930   46.2450 F   0  0  0  0  0  0  0  0  0  0  0  0
   59.8720   29.3610   47.1380 F   0  0  0  0  0  0  0  0  0  0  0  0
   60.4210   29.6910   44.9880 F   0  0  0  0  0  0  0  0  0  0  0  0
   57.5880   28.4220   45.8200 C   0  0  0  0  0  0  0  0  0  0  0  0
   58.2066   27.6804   46.3468 H   0  0  0  0  0  0  0  0  0  0  0  0
   57.5020   25.3650   45.0840 C   0  0  0  0  0  0  0  0  0  0  0  0
   57.8790   26.0919   44.3495 H   0  0  0  0  0  0  0  0  0  0  0  0
   58.1610   24.1470   45.2710 C   0  0  0  0  0  0  0  0  0  0  0  0
   59.0501   23.9031   44.6710 H   0  0  0  0  0  0  0  0  0  0  0  0
   57.6880   23.2410   46.2210 C   0  0  0  0  0  0  0  0  0  0  0  0
   58.1955   22.2767   46.3716 H   0  0  0  0  0  0  0  0  0  0  0  0
  1  2  1  0
  2  3  2  0
  3  4  1  0
  4  5  1  0
  5  6  2  0
  6  7  1  0
  7  8  1  0
  8  9  1  0
  8 10  2  0
 10 11  1  0
 11 12  2  0
 11 13  1  0
 13 14  1  0
 13 15  1  0
 15 16  1  0
 15 17  1  0
 15 18  1  0
 18 19  1  0
 18 20  1  0
 18 21  1  0
 21 22  2  0
 22 23  1  0
 22 24  1  0
 24 25  1  0
 24 26  2  0
 26 27  1  0
 26 28  1  0
 28 29  1  0
 28 30  2  0
 30 31  1  0
 10 32  1  0
 32 33  1  0
 33 34  1  0
 33 35  1  0
 33 36  1  0
 32 37  2  0
 37 38  1  0
  4 39  2  0
 39 40  1  0
 39 41  1  0
 41 42  1  0
 41 43  2  0
 43 44  1  0
 43  2  1  0
 37  6  1  0
 30 21  1  0
M  CHG  1   7  -1
M  END
>  <UniqueID>  (68) 
64

>  <SMILES>  (68) 
O=C(NCCc1ccccc1)c1c[n-]/c(=N/c2ccccn2)cc1C(F)(F)F

>  <Energy>  (68) 
59.36689182826531

>  <Genealogy>  (68) 
O=C(NCCc1ccccc1)c1c[n-]c(=Nc2ccccn2)cc1C(F)(F)F (protonated)
O=C(NCCc1ccccc1)c1c[n-]/c(=N/c2ccccn2)cc1C(F)(F)F (cis-trans isomerization)
O=C(NCCc1ccccc1)c1c[n-]/c(=N/c2ccccn2)cc1C(F)(F)F (3D coordinates assigned)
O=C(NCCc1ccccc1)c1c[n-]/c(=N/c2ccccn2)cc1C(F)(F)F (optimized conformer: 59.36689182826531 kcal/mol)

>  <smiles>  (68) 
O=C(NCCc1ccccc1)c1c[nH]c(=Nc2ccccn2)cc1C(F)(F)F

>  <score_type>  (68) 
oracle

>  <origin>  (68) 
adg

>  <m_score__min__energy>  (68) 
-9.9000000000000004

>  <m_primary>  (68) 
energy

$$$$
68:0
     RDKit          3D

 22 23  0  0  0  0  0  0  0  0999 V2000
   55.1440   27.4910   45.3940 H   0  0  0  0  0  0  0  0  0  0  0  0
   54.9640   26.6840   45.9790 O   0  0  0  0  0  0  0  0  0  0  0  0
   56.0050   25.8570   46.3840 C   0  0  0  0  0  0  0  0  0  0  0  0
   55.8340   24.7120   47.0660 N   0  0  0  0  0  0  0  0  0  0  0  0
   57.1000   24.2800   47.2420 C   0  0  0  0  0  0  0  0  0  0  0  0
   57.3750   23.2140   47.8530 O   0  0  0  0  0  0  0  0  0  0  0  0
   58.0510   25.0830   46.7170 N   0  0  0  0  0  0  0  0  0  0  0  0
   57.3420   26.0810   46.1570 C   0  0  0  0  0  0  0  0  0  0  0  0
   57.9160   27.2740   45.5000 C   0  0  0  0  0  0  0  0  0  0  0  0
   59.0118   27.3557   45.4498 H   0  0  0  0  0  0  0  0  0  0  0  0
   57.2090   28.2360   44.9760 N   0  0  0  0  0  0  0  0  0  0  0  0
   57.5220   29.6370   44.9670 C   0  0  0  0  0  0  0  0  0  0  0  0
   58.1400   30.2060   46.0870 C   0  0  0  0  0  0  0  0  0  0  0  0
   58.4167   29.5713   46.9418 H   0  0  0  0  0  0  0  0  0  0  0  0
   58.4070   31.5790   46.1230 C   0  0  0  0  0  0  0  0  0  0  0  0
   58.9111   32.0178   46.9967 H   0  0  0  0  0  0  0  0  0  0  0  0
   58.0340   32.3940   45.0500 C   0  0  0  0  0  0  0  0  0  0  0  0
   58.3680   34.1150   45.0980 Cl  0  0  0  0  0  0  0  0  0  0  0  0
   57.3840   31.8370   43.9440 C   0  0  0  0  0  0  0  0  0  0  0  0
   57.0842   32.4786   43.1023 H   0  0  0  0  0  0  0  0  0  0  0  0
   57.1150   30.4660   43.9070 C   0  0  0  0  0  0  0  0  0  0  0  0
   56.5834   30.0344   43.0461 H   0  0  0  0  0  0  0  0  0  0  0  0
  1  2  1  0
  2  3  1  0
  3  4  1  0
  4  5  1  0
  5  6  2  0
  5  7  1  0
  7  8  1  0
  8  9  1  0
  9 10  1  0
  9 11  2  0
 11 12  1  0
 12 13  2  0
 13 14  1  0
 13 15  1  0
 15 16  1  0
 15 17  2  0
 17 18  1  0
 17 19  1  0
 19 20  1  0
 19 21  2  0
 21 22  1  0
  8  3  2  0
 21 12  1  0
M  CHG  2   4  -1   7  -1
M  END
>  <UniqueID>  (69) 
65

>  <SMILES>  (69) 
O=c1[n-]c(O)c(/C=N\c2ccc(Cl)cc2)[n-]1

>  <Energy>  (69) 
60.107494011036934

>  <Genealogy>  (69) 
O=c1[n-]c(O)c(C=Nc2ccc(Cl)cc2)[n-]1 (protonated)
O=c1[n-]c(O)c(/C=N\c2ccc(Cl)cc2)[n-]1 (cis-trans isomerization)
O=c1[n-]c(O)c(/C=N\c2ccc(Cl)cc2)[n-]1 (3D coordinates assigned)
O=c1[n-]c(O)c(/C=N\c2ccc(Cl)cc2)[n-]1 (optimized conformer: 60.107494011036934 kcal/mol)

>  <smiles>  (69) 
O=c1[nH]c(O)c(C=Nc2ccc(Cl)cc2)[nH]1

>  <score_type>  (69) 
oracle

>  <origin>  (69) 
adg

>  <m_score__min__energy>  (69) 
-10.890000000000001

>  <m_primary>  (69) 
energy

$$$$
69:0
     RDKit          3D

 29 30  0  0  0  0  0  0  0  0999 V2000
   57.6480   32.5260   43.2820 O   0  0  0  0  0  0  0  0  0  0  0  0
   57.5210   32.5320   44.5370 C   0  0  0  0  0  0  0  0  0  0  0  0
   57.4350   33.8360   45.2620 C   0  0  0  0  0  0  0  0  0  0  0  0
   58.9260   34.8510   44.9650 S   0  0  0  0  0  0  0  0  0  0  0  0
   59.7790   34.3170   46.4530 C   0  0  0  0  0  0  0  0  0  0  0  0
   60.9750   33.5930   46.3560 C   0  0  0  0  0  0  0  0  0  0  0  0
   61.6350   33.1750   47.5160 C   0  0  0  0  0  0  0  0  0  0  0  0
   61.1040   33.4820   48.7730 C   0  0  0  0  0  0  0  0  0  0  0  0
   59.9150   34.2110   48.8710 C   0  0  0  0  0  0  0  0  0  0  0  0
   59.2560   34.6330   47.7130 C   0  0  0  0  0  0  0  0  0  0  0  0
   57.3810   31.3360   45.2520 O   0  0  0  0  0  0  0  0  0  0  0  0
   57.8380   30.0790   44.8280 C   0  0  0  0  0  0  0  0  0  0  0  0
   59.0910   29.5610   45.1990 C   0  0  0  0  0  0  0  0  0  0  0  0
   59.4810   28.2960   44.7570 C   0  0  0  0  0  0  0  0  0  0  0  0
   58.6130   27.5540   43.9560 C   0  0  0  0  0  0  0  0  0  0  0  0
   57.3950   28.0580   43.6170 N   0  0  0  0  0  0  0  0  0  0  0  0
   56.9960   29.2900   44.0370 C   0  0  0  0  0  0  0  0  0  0  0  0
   56.5497   34.3857   44.9096 H   0  0  0  0  0  0  0  0  0  0  0  0
   57.3588   33.6328   46.3404 H   0  0  0  0  0  0  0  0  0  0  0  0
   61.3945   33.3536   45.3677 H   0  0  0  0  0  0  0  0  0  0  0  0
   62.5723   32.6044   47.4397 H   0  0  0  0  0  0  0  0  0  0  0  0
   61.6220   33.1498   49.6848 H   0  0  0  0  0  0  0  0  0  0  0  0
   59.4981   34.4525   49.8599 H   0  0  0  0  0  0  0  0  0  0  0  0
   58.3253   35.2141   47.7914 H   0  0  0  0  0  0  0  0  0  0  0  0
   59.7638   30.1524   45.8374 H   0  0  0  0  0  0  0  0  0  0  0  0
   60.4633   27.8881   45.0376 H   0  0  0  0  0  0  0  0  0  0  0  0
   58.9137   26.5586   43.5972 H   0  0  0  0  0  0  0  0  0  0  0  0
   56.7540   27.4880   43.0220 H   0  0  0  0  0  0  0  0  0  0  0  0
   56.0032   29.6683   43.7520 H   0  0  0  0  0  0  0  0  0  0  0  0
  1  2  2  0
  2  3  1  0
  3  4  1  0
  4  5  1  0
  5  6  2  0
  6  7  1  0
  7  8  2  0
  8  9  1  0
  9 10  2  0
  2 11  1  0
 11 12  1  0
 12 13  2  0
 13 14  1  0
 14 15  2  0
 15 16  1  0
 16 17  2  0
 10  5  1  0
 17 12  1  0
  3 18  1  0
  3 19  1  0
  6 20  1  0
  7 21  1  0
  8 22  1  0
  9 23  1  0
 10 24  1  0
 13 25  1  0
 14 26  1  0
 15 27  1  0
 16 28  1  0
 17 29  1  0
M  CHG  1  16   1
M  END
>  <UniqueID>  (70) 
66

>  <SMILES>  (70) 
O=C(CSc1ccccc1)Oc1ccc[nH+]c1

>  <Energy>  (70) 
27.930005753536335

>  <Genealogy>  (70) 
O=C(CSc1ccccc1)Oc1ccc[nH+]c1 (protonated)
O=C(CSc1ccccc1)Oc1ccc[nH+]c1 (3D coordinates assigned)
O=C(CSc1ccccc1)Oc1ccc[nH+]c1 (optimized conformer: 27.930005753536335 kcal/mol)

>  <smiles>  (70) 
O=C(CSc1ccccc1)Oc1cccnc1

>  <score_type>  (70) 
oracle

>  <origin>  (70) 
adg

>  <m_score__min__energy>  (70) 
-5.2400000000000002

>  <m_primary>  (70) 
energy

$$$$
70:0
     RDKit          3D

 40 42  0  0  0  0  0  0  0  0999 V2000
   55.4140   26.3930   45.9940 N   0  0  0  0  0  0  0  0  0  0  0  0
   56.7380   26.7820   45.6340 C   0  0  0  0  0  0  0  0  0  0  0  0
   57.5990   25.8910   45.4060 O   0  0  0  0  0  0  0  0  0  0  0  0
   57.0990   28.2160   45.5270 C   0  0  0  0  0  0  0  0  0  0  0  0
   56.4990   29.0360   44.5550 C   0  0  0  0  0  0  0  0  0  0  0  0
   56.8410   30.3870   44.4570 C   0  0  0  0  0  0  0  0  0  0  0  0
   57.7910   30.9480   45.3260 C   0  0  0  0  0  0  0  0  0  0  0  0
   58.1560   32.3770   45.2170 C   0  0  0  0  0  0  0  0  0  0  0  0
   58.8910   33.0260   46.1470 N   0  0  0  0  0  0  0  0  0  0  0  0
   58.9710   34.2800   45.6740 C   0  0  0  0  0  0  0  0  0  0  0  0
   59.6400   35.4090   46.3950 C   0  0  0  0  0  0  0  0  0  0  0  0
   59.5570   35.2070   47.8420 N   0  0  0  0  0  0  0  0  0  0  0  0
   60.3760   34.2830   48.5860 C   0  0  0  0  0  0  0  0  0  0  0  0
   59.9330   33.8360   49.8400 C   0  0  0  0  0  0  0  0  0  0  0  0
   60.6930   32.9260   50.5770 C   0  0  0  0  0  0  0  0  0  0  0  0
   61.9080   32.4550   50.0750 C   0  0  0  0  0  0  0  0  0  0  0  0
   62.3850   32.9020   48.8300 C   0  0  0  0  0  0  0  0  0  0  0  0
   63.6680   32.4040   48.2770 C   0  0  0  0  0  0  0  0  0  0  0  0
   63.9400   32.4360   46.8740 N   0  0  0  0  0  0  0  0  0  0  0  0
   64.5400   31.9300   49.0560 O   0  0  0  0  0  0  0  0  0  0  0  0
   61.6110   33.8170   48.0920 C   0  0  0  0  0  0  0  0  0  0  0  0
   58.2860   34.3720   44.4870 C   0  0  0  0  0  0  0  0  0  0  0  0
   57.7690   33.1680   44.1890 N   0  0  0  0  0  0  0  0  0  0  0  0
   58.3920   30.1310   46.2970 C   0  0  0  0  0  0  0  0  0  0  0  0
   58.0500   28.7800   46.3970 C   0  0  0  0  0  0  0  0  0  0  0  0
   54.7570   27.0720   46.4390 H   0  0  0  0  0  0  0  0  0  0  0  0
   55.7544   28.6103   43.8663 H   0  0  0  0  0  0  0  0  0  0  0  0
   56.3621   31.0167   43.6927 H   0  0  0  0  0  0  0  0  0  0  0  0
   60.6973   35.4554   46.0950 H   0  0  0  0  0  0  0  0  0  0  0  0
   59.1332   36.3501   46.1352 H   0  0  0  0  0  0  0  0  0  0  0  0
   58.8100   35.7320   48.3530 H   0  0  0  0  0  0  0  0  0  0  0  0
   58.9795   34.2054   50.2455 H   0  0  0  0  0  0  0  0  0  0  0  0
   60.3334   32.5787   51.5568 H   0  0  0  0  0  0  0  0  0  0  0  0
   62.4956   31.7298   50.6571 H   0  0  0  0  0  0  0  0  0  0  0  0
   64.8750   32.1340   46.5180 H   0  0  0  0  0  0  0  0  0  0  0  0
   63.2020   32.6740   46.1760 H   0  0  0  0  0  0  0  0  0  0  0  0
   61.9747   34.1731   47.1169 H   0  0  0  0  0  0  0  0  0  0  0  0
   58.1782   35.2827   43.8795 H   0  0  0  0  0  0  0  0  0  0  0  0
   59.1376   30.5577   46.9840 H   0  0  0  0  0  0  0  0  0  0  0  0
   58.5285   28.1518   47.1627 H   0  0  0  0  0  0  0  0  0  0  0  0
  1  2  1  0
  2  3  2  0
  2  4  1  0
  4  5  2  0
  5  6  1  0
  6  7  2  0
  7  8  1  0
  8  9  2  0
  9 10  1  0
 10 11  1  0
 11 12  1  0
 12 13  1  0
 13 14  2  0
 14 15  1  0
 15 16  2  0
 16 17  1  0
 17 18  1  0
 18 19  1  0
 18 20  2  0
 17 21  2  0
 10 22  2  0
 22 23  1  0
  7 24  1  0
 24 25  2  0
 25  4  1  0
 23  8  1  0
 21 13  1  0
  1 26  1  0
  5 27  1  0
  6 28  1  0
 11 29  1  0
 11 30  1  0
 12 31  1  0
 14 32  1  0
 15 33  1  0
 16 34  1  0
 19 35  1  0
 19 36  1  0
 21 37  1  0
 22 38  1  0
 24 39  1  0
 25 40  1  0
M  CHG  2   1  -1  23  -1
M  END
>  <UniqueID>  (71) 
67

>  <SMILES>  (71) 
[NH-]C(=O)c1ccc(-c2nc(CNc3cccc(C(N)=O)c3)c[n-]2)cc1

>  <Energy>  (71) 
70.3722520296481

>  <Genealogy>  (71) 
[NH-]C(=O)c1ccc(-c2nc(CNc3cccc(C(N)=O)c3)c[n-]2)cc1 (protonated)
[NH-]C(=O)c1ccc(-c2nc(CNc3cccc(C(N)=O)c3)c[n-]2)cc1 (3D coordinates assigned)
[NH-]C(=O)c1ccc(-c2nc(CNc3cccc(C(N)=O)c3)c[n-]2)cc1 (optimized conformer: 70.3722520296481 kcal/mol)

>  <smiles>  (71) 
NC(=O)c1ccc(-c2nc(CNc3cccc(C(N)=O)c3)c[nH]2)cc1

>  <score_type>  (71) 
oracle

>  <origin>  (71) 
adg

>  <m_score__min__energy>  (71) 
-11.619999999999999

>  <m_primary>  (71) 
energy

$$$$
71:0
     RDKit          3D

 35 37  0  0  0  0  0  0  0  0999 V2000
   60.2960   33.1180   46.5090 O   0  0  0  0  0  0  0  0  0  0  0  0
   59.1890   32.5510   46.7190 C   0  0  0  0  0  0  0  0  0  0  0  0
   58.0460   32.8720   45.9140 N   0  0  0  0  0  0  0  0  0  0  0  0
   57.6960   32.2840   44.6520 C   0  0  0  0  0  0  0  0  0  0  0  0
   58.2180   32.8480   43.4810 C   0  0  0  0  0  0  0  0  0  0  0  0
   57.8860   32.3190   42.2290 C   0  0  0  0  0  0  0  0  0  0  0  0
   57.0140   31.2300   42.1400 C   0  0  0  0  0  0  0  0  0  0  0  0
   56.4680   30.6760   43.3020 C   0  0  0  0  0  0  0  0  0  0  0  0
   56.7990   31.2030   44.5550 C   0  0  0  0  0  0  0  0  0  0  0  0
   59.0610   31.5480   47.8010 C   0  0  0  0  0  0  0  0  0  0  0  0
   58.8820   32.0140   49.1160 C   0  0  0  0  0  0  0  0  0  0  0  0
   58.6530   31.1240   50.1660 C   0  0  0  0  0  0  0  0  0  0  0  0
   58.6000   29.7530   49.9190 C   0  0  0  0  0  0  0  0  0  0  0  0
   58.7950   29.2670   48.6260 C   0  0  0  0  0  0  0  0  0  0  0  0
   59.0460   30.1460   47.5560 C   0  0  0  0  0  0  0  0  0  0  0  0
   59.3530   29.5590   46.2310 C   0  0  0  0  0  0  0  0  0  0  0  0
   60.5430   29.5240   45.8190 O   0  0  0  0  0  0  0  0  0  0  0  0
   58.2900   29.0140   45.4370 N   0  0  0  0  0  0  0  0  0  0  0  0
   57.4560   27.8920   45.7580 C   0  0  0  0  0  0  0  0  0  0  0  0
   57.8630   26.6940   46.3270 C   0  0  0  0  0  0  0  0  0  0  0  0
   56.7210   25.9390   46.4750 C   0  0  0  0  0  0  0  0  0  0  0  0
   55.6920   26.7190   45.9960 C   0  0  0  0  0  0  0  0  0  0  0  0
   54.3590   26.3320   45.9660 O   0  0  0  0  0  0  0  0  0  0  0  0
   56.1240   27.9160   45.5590 N   0  0  0  0  0  0  0  0  0  0  0  0
   58.8940   33.7133   43.5462 H   0  0  0  0  0  0  0  0  0  0  0  0
   58.3109   32.7598   41.3151 H   0  0  0  0  0  0  0  0  0  0  0  0
   56.7575   30.8092   41.1566 H   0  0  0  0  0  0  0  0  0  0  0  0
   55.7764   29.8236   43.2307 H   0  0  0  0  0  0  0  0  0  0  0  0
   56.3578   30.7721   45.4659 H   0  0  0  0  0  0  0  0  0  0  0  0
   58.9231   33.0943   49.3193 H   0  0  0  0  0  0  0  0  0  0  0  0
   58.5143   31.5042   51.1888 H   0  0  0  0  0  0  0  0  0  0  0  0
   58.4041   29.0534   50.7449 H   0  0  0  0  0  0  0  0  0  0  0  0
   58.7520   28.1836   48.4405 H   0  0  0  0  0  0  0  0  0  0  0  0
   58.8881   26.4062   46.6033 H   0  0  0  0  0  0  0  0  0  0  0  0
   56.6461   24.9230   46.8900 H   0  0  0  0  0  0  0  0  0  0  0  0
  1  2  2  0
  2  3  1  0
  3  4  1  0
  4  5  2  0
  5  6  1  0
  6  7  2  0
  7  8  1  0
  8  9  2  0
  2 10  1  0
 10 11  2  0
 11 12  1  0
 12 13  2  0
 13 14  1  0
 14 15  2  0
 15 16  1  0
 16 17  2  0
 16 18  1  0
 18 19  1  0
 19 20  2  0
 20 21  1  0
 21 22  2  0
 22 23  1  0
 22 24  1  0
  9  4  1  0
 15 10  1  0
 24 19  1  0
  5 25  1  0
  6 26  1  0
  7 27  1  0
  8 28  1  0
  9 29  1  0
 11 30  1  0
 12 31  1  0
 13 32  1  0
 14 33  1  0
 20 34  1  0
 21 35  1  0
M  CHG  4   3  -1  18  -1  23  -1  24  -1
M  END
>  <UniqueID>  (72) 
68

>  <SMILES>  (72) 
O=C([N-]c1ccccc1)c1ccccc1C(=O)[N-]c1ccc([O-])[n-]1

>  <Energy>  (72) 
78.14195325096792

>  <Genealogy>  (72) 
O=C([N-]c1ccccc1)c1ccccc1C(=O)[N-]c1ccc([O-])[n-]1 (protonated)
O=C([N-]c1ccccc1)c1ccccc1C(=O)[N-]c1ccc([O-])[n-]1 (3D coordinates assigned)
O=C([N-]c1ccccc1)c1ccccc1C(=O)[N-]c1ccc([O-])[n-]1 (optimized conformer: 78.14195325096792 kcal/mol)

>  <smiles>  (72) 
O=C(Nc1ccccc1)c1ccccc1C(=O)Nc1ccc(O)[nH]1

>  <score_type>  (72) 
oracle

>  <origin>  (72) 
adg

>  <m_score__min__energy>  (72) 
-15.43

>  <m_primary>  (72) 
energy

$$$$
72:0
     RDKit          3D

 53 55  0  0  0  0  0  0  0  0999 V2000
   61.8490   33.7500   50.6660 C   0  0  0  0  0  0  0  0  0  0  0  0
   60.7450   33.8470   51.5600 O   0  0  0  0  0  0  0  0  0  0  0  0
   59.6440   32.9770   51.5590 C   0  0  0  0  0  0  0  0  0  0  0  0
   58.5510   33.2900   52.3710 C   0  0  0  0  0  0  0  0  0  0  0  0
   57.4260   32.4650   52.3980 C   0  0  0  0  0  0  0  0  0  0  0  0
   57.3780   31.2980   51.6140 C   0  0  0  0  0  0  0  0  0  0  0  0
   56.2610   30.4460   51.6220 O   0  0  0  0  0  0  0  0  0  0  0  0
   54.9460   30.8410   51.9990 C   0  0  0  0  0  0  0  0  0  0  0  0
   58.4810   30.9620   50.8050 C   0  0  0  0  0  0  0  0  0  0  0  0
   58.4320   29.7830   49.9800 N   0  0  0  0  0  0  0  0  0  0  0  0
   59.6010   29.1050   49.4940 C   0  0  0  0  0  0  0  0  0  0  0  0
   60.6940   29.2150   50.1100 O   0  0  0  0  0  0  0  0  0  0  0  0
   59.5260   28.2090   48.3760 N   0  0  0  0  0  0  0  0  0  0  0  0
   59.4490   28.5410   47.1210 C   0  0  0  0  0  0  0  0  0  0  0  0
   58.3130   28.3910   46.4100 N   0  0  0  0  0  0  0  0  0  0  0  0
   58.4790   28.7560   45.1090 C   0  0  0  0  0  0  0  0  0  0  0  0
   57.3420   28.7220   44.1310 C   0  0  0  0  0  0  0  0  0  0  0  0
   56.2670   29.7160   44.4940 C   0  0  0  0  0  0  0  0  0  0  0  0
   55.1370   29.3080   44.8720 O   0  0  0  0  0  0  0  0  0  0  0  0
   56.5230   31.1250   44.5020 N   0  0  0  0  0  0  0  0  0  0  0  0
   57.6690   31.7610   43.8610 C   0  0  0  0  0  0  0  0  0  0  0  0
   57.6950   33.2550   44.1840 C   0  0  0  0  0  0  0  0  0  0  0  0
   58.3290   33.5160   45.5260 C   0  0  0  0  0  0  0  0  0  0  0  0
   58.0230   32.6930   46.6240 C   0  0  0  0  0  0  0  0  0  0  0  0
   58.5860   32.9540   47.8770 C   0  0  0  0  0  0  0  0  0  0  0  0
   59.4510   34.0390   48.0450 C   0  0  0  0  0  0  0  0  0  0  0  0
   59.7510   34.8680   46.9610 C   0  0  0  0  0  0  0  0  0  0  0  0
   59.1900   34.6110   45.7050 C   0  0  0  0  0  0  0  0  0  0  0  0
   59.7560   29.2030   44.7770 C   0  0  0  0  0  0  0  0  0  0  0  0
   60.7100   29.1210   46.1590 S   0  0  0  0  0  0  0  0  0  0  0  0
   59.6030   31.8120   50.7720 C   0  0  0  0  0  0  0  0  0  0  0  0
   62.7819   33.6680   51.2430 H   0  0  0  0  0  0  0  0  0  0  0  0
   61.7304   32.8588   50.0322 H   0  0  0  0  0  0  0  0  0  0  0  0
   61.8876   34.6482   50.0322 H   0  0  0  0  0  0  0  0  0  0  0  0
   58.5776   34.1955   52.9950 H   0  0  0  0  0  0  0  0  0  0  0  0
   56.5704   32.7291   53.0370 H   0  0  0  0  0  0  0  0  0  0  0  0
   54.8704   30.8637   53.0962 H   0  0  0  0  0  0  0  0  0  0  0  0
   54.7343   31.8424   51.5960 H   0  0  0  0  0  0  0  0  0  0  0  0
   54.2175   30.1220   51.5960 H   0  0  0  0  0  0  0  0  0  0  0  0
   57.5040   29.3370   49.7990 H   0  0  0  0  0  0  0  0  0  0  0  0
   57.7262   28.9619   43.1286 H   0  0  0  0  0  0  0  0  0  0  0  0
   56.9003   27.7148   44.1520 H   0  0  0  0  0  0  0  0  0  0  0  0
   58.5952   31.2942   44.2274 H   0  0  0  0  0  0  0  0  0  0  0  0
   57.5876   31.6314   42.7717 H   0  0  0  0  0  0  0  0  0  0  0  0
   58.2717   33.7791   43.4076 H   0  0  0  0  0  0  0  0  0  0  0  0
   56.6581   33.6211   44.2137 H   0  0  0  0  0  0  0  0  0  0  0  0
   57.3386   31.8412   46.4970 H   0  0  0  0  0  0  0  0  0  0  0  0
   58.3477   32.3043   48.7320 H   0  0  0  0  0  0  0  0  0  0  0  0
   59.8956   34.2403   49.0308 H   0  0  0  0  0  0  0  0  0  0  0  0
   60.4290   35.7238   47.0951 H   0  0  0  0  0  0  0  0  0  0  0  0
   59.4242   35.2688   44.8551 H   0  0  0  0  0  0  0  0  0  0  0  0
   60.0827   29.5488   43.7852 H   0  0  0  0  0  0  0  0  0  0  0  0
   60.4562   31.5624   50.1241 H   0  0  0  0  0  0  0  0  0  0  0  0
  1  2  1  0
  2  3  1  0
  3  4  2  0
  4  5  1  0
  5  6  2  0
  6  7  1  0
  7  8  1  0
  6  9  1  0
  9 10  1  0
 10 11  1  0
 11 12  2  0
 11 13  1  0
 13 14  2  3
 14 15  1  0
 15 16  1  0
 16 17  1  0
 17 18  1  0
 18 19  2  0
 18 20  1  0
 20 21  1  0
 21 22  1  0
 22 23  1  0
 23 24  2  0
 24 25  1  0
 25 26  2  0
 26 27  1  0
 27 28  2  0
 16 29  2  0
 29 30  1  0
  9 31  2  0
 31  3  1  0
 30 14  1  0
 28 23  1  0
  1 32  1  0
  1 33  1  0
  1 34  1  0
  4 35  1  0
  5 36  1  0
  8 37  1  0
  8 38  1  0
  8 39  1  0
 10 40  1  0
 17 41  1  0
 17 42  1  0
 21 43  1  0
 21 44  1  0
 22 45  1  0
 22 46  1  0
 24 47  1  0
 25 48  1  0
 26 49  1  0
 27 50  1  0
 28 51  1  0
 29 52  1  0
 31 53  1  0
M  CHG  2  15  -1  20  -1
M  END
>  <UniqueID>  (73) 
69

>  <SMILES>  (73) 
COc1ccc(OC)c(NC(=O)N=c2[n-]c(CC(=O)[N-]CCc3ccccc3)cs2)c1

>  <Energy>  (73) 
87.14091473333643

>  <Genealogy>  (73) 
COc1ccc(OC)c(NC(=O)N=c2[n-]c(CC(=O)[N-]CCc3ccccc3)cs2)c1 (protonated)
COc1ccc(OC)c(NC(=O)N=c2[n-]c(CC(=O)[N-]CCc3ccccc3)cs2)c1 (3D coordinates assigned)
COc1ccc(OC)c(NC(=O)N=c2[n-]c(CC(=O)[N-]CCc3ccccc3)cs2)c1 (optimized conformer: 87.14091473333643 kcal/mol)

>  <smiles>  (73) 
COc1ccc(OC)c(NC(=O)N=c2[nH]c(CC(=O)NCCc3ccccc3)cs2)c1

>  <score_type>  (73) 
oracle

>  <origin>  (73) 
adg

>  <m_score__min__energy>  (73) 
-11.81

>  <m_primary>  (73) 
energy

$$$$
73:0
     RDKit          3D

 48 50  0  0  0  0  0  0  0  0999 V2000
   66.6740   32.7140   50.1400 C   0  0  0  0  0  0  0  0  0  0  0  0
   65.3630   32.5830   50.6810 O   0  0  0  0  0  0  0  0  0  0  0  0
   64.2150   32.3100   49.9210 C   0  0  0  0  0  0  0  0  0  0  0  0
   63.9590   33.1040   48.7980 C   0  0  0  0  0  0  0  0  0  0  0  0
   62.8210   32.8830   48.0010 C   0  0  0  0  0  0  0  0  0  0  0  0
   62.5580   33.7320   46.8140 C   0  0  0  0  0  0  0  0  0  0  0  0
   63.4460   33.8630   45.9270 O   0  0  0  0  0  0  0  0  0  0  0  0
   61.3190   34.4460   46.7010 N   0  0  0  0  0  0  0  0  0  0  0  0
   60.0390   33.8950   46.3620 C   0  0  0  0  0  0  0  0  0  0  0  0
   59.2120   33.2780   47.3200 C   0  0  0  0  0  0  0  0  0  0  0  0
   57.9610   32.7740   46.9490 C   0  0  0  0  0  0  0  0  0  0  0  0
   57.5160   32.8920   45.6290 C   0  0  0  0  0  0  0  0  0  0  0  0
   56.2680   32.3840   45.2750 O   0  0  0  0  0  0  0  0  0  0  0  0
   58.3270   33.5250   44.6780 C   0  0  0  0  0  0  0  0  0  0  0  0
   59.5770   34.0310   45.0470 C   0  0  0  0  0  0  0  0  0  0  0  0
   61.9360   31.8480   48.3490 C   0  0  0  0  0  0  0  0  0  0  0  0
   62.1820   31.0490   49.4730 C   0  0  0  0  0  0  0  0  0  0  0  0
   61.0540   29.7690   49.9140 S   0  0  0  0  0  0  0  0  0  0  0  0
   59.7350   30.3890   50.2740 O   0  0  0  0  0  0  0  0  0  0  0  0
   61.5710   28.9910   51.0910 O   0  0  0  0  0  0  0  0  0  0  0  0
   60.8260   28.6880   48.5780 N   0  0  0  0  0  0  0  0  0  0  0  0
   59.8980   28.8870   47.5040 C   0  0  0  0  0  0  0  0  0  0  0  0
   60.1360   29.8110   46.4690 C   0  0  0  0  0  0  0  0  0  0  0  0
   59.1940   29.9870   45.4510 C   0  0  0  0  0  0  0  0  0  0  0  0
   58.0060   29.2440   45.4510 C   0  0  0  0  0  0  0  0  0  0  0  0
   56.8220   29.4570   44.1670 S   0  0  0  0  0  0  0  0  0  0  0  0
   55.2240   29.3930   44.8250 N   0  0  0  0  0  0  0  0  0  0  0  0
   56.9880   28.3650   43.1490 O   0  0  0  0  0  0  0  0  0  0  0  0
   57.0170   30.7920   43.5040 O   0  0  0  0  0  0  0  0  0  0  0  0
   57.7740   28.3140   46.4720 C   0  0  0  0  0  0  0  0  0  0  0  0
   58.7140   28.1390   47.4910 C   0  0  0  0  0  0  0  0  0  0  0  0
   63.3230   31.2750   50.2510 C   0  0  0  0  0  0  0  0  0  0  0  0
   67.4035   32.7869   50.9601 H   0  0  0  0  0  0  0  0  0  0  0  0
   66.9048   31.8344   49.5210 H   0  0  0  0  0  0  0  0  0  0  0  0
   66.7262   33.6218   49.5210 H   0  0  0  0  0  0  0  0  0  0  0  0
   64.6571   33.9122   48.5346 H   0  0  0  0  0  0  0  0  0  0  0  0
   59.5506   33.1921   48.3631 H   0  0  0  0  0  0  0  0  0  0  0  0
   57.3244   32.2825   47.6994 H   0  0  0  0  0  0  0  0  0  0  0  0
   56.0940   31.3870   45.2380 H   0  0  0  0  0  0  0  0  0  0  0  0
   57.9796   33.6241   43.6390 H   0  0  0  0  0  0  0  0  0  0  0  0
   60.2024   34.5398   44.2987 H   0  0  0  0  0  0  0  0  0  0  0  0
   61.0430   31.6639   47.7337 H   0  0  0  0  0  0  0  0  0  0  0  0
   61.0669   30.3969   46.4612 H   0  0  0  0  0  0  0  0  0  0  0  0
   59.3863   30.7120   44.6464 H   0  0  0  0  0  0  0  0  0  0  0  0
   55.2530   28.7280   45.6310 H   0  0  0  0  0  0  0  0  0  0  0  0
   56.8487   27.7192   46.4718 H   0  0  0  0  0  0  0  0  0  0  0  0
   58.5224   27.4075   48.2898 H   0  0  0  0  0  0  0  0  0  0  0  0
   63.5230   30.6390   51.1259 H   0  0  0  0  0  0  0  0  0  0  0  0
  1  2  1  0
  2  3  1  0
  3  4  2  0
  4  5  1  0
  5  6  1  0
  6  7  2  0
  6  8  1  0
  8  9  1  0
  9 10  2  0
 10 11  1  0
 11 12  2  0
 12 13  1  0
 12 14  1  0
 14 15  2  0
  5 16  2  0
 16 17  1  0
 17 18  1  0
 18 19  2  0
 18 20  2  0
 18 21  1  0
 21 22  1  0
 22 23  2  0
 23 24  1  0
 24 25  2  0
 25 26  1  0
 26 27  1  0
 26 28  2  0
 26 29  2  0
 25 30  1  0
 30 31  2  0
 17 32  2  0
 32  3  1  0
 15  9  1  0
 31 22  1  0
  1 33  1  0
  1 34  1  0
  1 35  1  0
  4 36  1  0
 10 37  1  0
 11 38  1  0
 13 39  1  0
 14 40  1  0
 15 41  1  0
 16 42  1  0
 23 43  1  0
 24 44  1  0
 27 45  1  0
 30 46  1  0
 31 47  1  0
 32 48  1  0
M  CHG  3   8  -1  21  -1  27  -1
M  END
>  <UniqueID>  (74) 
70

>  <SMILES>  (74) 
COc1cc(C(=O)[N-]c2ccc(O)cc2)cc(S(=O)(=O)[N-]c2ccc(S([NH-])(=O)=O)cc2)c1

>  <Energy>  (74) 
56.339893205334796

>  <Genealogy>  (74) 
COc1cc(C(=O)[N-]c2ccc(O)cc2)cc(S(=O)(=O)[N-]c2ccc(S([NH-])(=O)=O)cc2)c1 (protonated)
COc1cc(C(=O)[N-]c2ccc(O)cc2)cc(S(=O)(=O)[N-]c2ccc(S([NH-])(=O)=O)cc2)c1 (3D coordinates assigned)
COc1cc(C(=O)[N-]c2ccc(O)cc2)cc(S(=O)(=O)[N-]c2ccc(S([NH-])(=O)=O)cc2)c1 (optimized conformer: 56.339893205334796 kcal/mol)

>  <smiles>  (74) 
COc1cc(C(=O)Nc2ccc(O)cc2)cc(S(=O)(=O)Nc2ccc(S(N)(=O)=O)cc2)c1

>  <score_type>  (74) 
oracle

>  <origin>  (74) 
adg

>  <m_score__min__energy>  (74) 
-12.73

>  <m_primary>  (74) 
energy

$$$$
74:0
     RDKit          3D

 57 59  0  0  0  0  0  0  0  0999 V2000
   57.6782   32.6966   43.9550 H   0  0  0  0  0  0  0  0  0  0  0  0
   58.2340   33.0740   44.8260 C   0  0  0  0  0  0  0  0  0  0  0  0
   58.5330   32.2170   45.9000 C   0  0  0  0  0  0  0  0  0  0  0  0
   58.1400   30.7810   45.8940 C   0  0  0  0  0  0  0  0  0  0  0  0
   58.6140   29.9280   46.9050 C   0  0  0  0  0  0  0  0  0  0  0  0
   59.2479   30.3357   47.7062 H   0  0  0  0  0  0  0  0  0  0  0  0
   58.2910   28.5700   46.9060 C   0  0  0  0  0  0  0  0  0  0  0  0
   58.6831   27.9151   47.6981 H   0  0  0  0  0  0  0  0  0  0  0  0
   57.4680   28.0350   45.9010 C   0  0  0  0  0  0  0  0  0  0  0  0
   57.1630   26.6350   45.8340 N   0  0  0  0  0  0  0  0  0  0  0  0
   55.9430   26.0220   46.2640 C   0  0  0  0  0  0  0  0  0  0  0  0
   54.8910   26.7130   46.3120 O   0  0  0  0  0  0  0  0  0  0  0  0
   55.9270   24.6610   46.7110 N   0  0  0  0  0  0  0  0  0  0  0  0
   54.8020   23.7800   46.6040 C   0  0  0  0  0  0  0  0  0  0  0  0
   54.8060   22.5790   47.3200 C   0  0  0  0  0  0  0  0  0  0  0  0
   55.6555   22.3357   47.9752 H   0  0  0  0  0  0  0  0  0  0  0  0
   53.7370   21.6860   47.2080 C   0  0  0  0  0  0  0  0  0  0  0  0
   53.7367   20.7546   47.7932 H   0  0  0  0  0  0  0  0  0  0  0  0
   52.6690   21.9730   46.3550 C   0  0  0  0  0  0  0  0  0  0  0  0
   51.8263   21.2702   46.2782 H   0  0  0  0  0  0  0  0  0  0  0  0
   52.6650   23.1550   45.5940 C   0  0  0  0  0  0  0  0  0  0  0  0
   51.5470   23.4310   44.6600 C   0  0  0  0  0  0  0  0  0  0  0  0
   50.9280   22.4650   44.1340 O   0  0  0  0  0  0  0  0  0  0  0  0
   51.1740   24.7770   44.3240 N   0  0  0  0  0  0  0  0  0  0  0  0
   51.7600   25.5790   44.6430 H   0  0  0  0  0  0  0  0  0  0  0  0
   50.0470   25.0610   43.4470 C   0  0  0  0  0  0  0  0  0  0  0  0
   49.1574   25.2852   44.0540 H   0  0  0  0  0  0  0  0  0  0  0  0
   50.2855   25.9271   42.8122 H   0  0  0  0  0  0  0  0  0  0  0  0
   49.8466   24.1853   42.8122 H   0  0  0  0  0  0  0  0  0  0  0  0
   53.7300   24.0630   45.7360 C   0  0  0  0  0  0  0  0  0  0  0  0
   53.7253   25.0025   45.1638 H   0  0  0  0  0  0  0  0  0  0  0  0
   57.0110   28.8730   44.8780 C   0  0  0  0  0  0  0  0  0  0  0  0
   56.3884   28.4584   44.0715 H   0  0  0  0  0  0  0  0  0  0  0  0
   57.3380   30.2320   44.8710 C   0  0  0  0  0  0  0  0  0  0  0  0
   56.9673   30.8784   44.0618 H   0  0  0  0  0  0  0  0  0  0  0  0
   59.1970   32.7230   46.9800 N   0  0  0  0  0  0  0  0  0  0  0  0
   59.6020   34.0230   47.0500 C   0  0  0  0  0  0  0  0  0  0  0  0
   60.2430   34.4740   48.0890 N   0  0  0  0  0  0  0  0  0  0  0  0
   61.6420   34.1990   48.4140 C   0  0  0  0  0  0  0  0  0  0  0  0
   62.0906   35.0975   48.8628 H   0  0  0  0  0  0  0  0  0  0  0  0
   61.6791   33.3565   49.1203 H   0  0  0  0  0  0  0  0  0  0  0  0
   62.4330   33.8180   47.1560 C   0  0  0  0  0  0  0  0  0  0  0  0
   61.7310   33.6509   46.3258 H   0  0  0  0  0  0  0  0  0  0  0  0
   63.1254   34.6378   46.9140 H   0  0  0  0  0  0  0  0  0  0  0  0
   63.2190   32.5860   47.3810 N   0  0  0  0  0  0  0  0  0  0  0  0
   62.3350   31.4130   47.4770 C   0  0  0  0  0  0  0  0  0  0  0  0
   62.1555   31.1748   48.5358 H   0  0  0  0  0  0  0  0  0  0  0  0
   61.3772   31.6343   46.9835 H   0  0  0  0  0  0  0  0  0  0  0  0
   62.8117   30.5532   46.9835 H   0  0  0  0  0  0  0  0  0  0  0  0
   64.0260   32.6980   48.6090 C   0  0  0  0  0  0  0  0  0  0  0  0
   63.3708   32.6071   49.4879 H   0  0  0  0  0  0  0  0  0  0  0  0
   64.7783   31.8957   48.6279 H   0  0  0  0  0  0  0  0  0  0  0  0
   64.5313   33.6749   48.6279 H   0  0  0  0  0  0  0  0  0  0  0  0
   59.3390   34.8850   45.9830 C   0  0  0  0  0  0  0  0  0  0  0  0
   59.6751   35.9318   46.0194 H   0  0  0  0  0  0  0  0  0  0  0  0
   58.6470   34.4070   44.8720 C   0  0  0  0  0  0  0  0  0  0  0  0
   58.4259   35.0803   44.0307 H   0  0  0  0  0  0  0  0  0  0  0  0
  1  2  1  0
  2  3  2  0
  3  4  1  0
  4  5  2  0
  5  6  1  0
  5  7  1  0
  7  8  1  0
  7  9  2  0
  9 10  1  0
 10 11  1  0
 11 12  2  0
 11 13  1  0
 13 14  1  0
 14 15  2  0
 15 16  1  0
 15 17  1  0
 17 18  1  0
 17 19  2  0
 19 20  1  0
 19 21  1  0
 21 22  1  0
 22 23  2  0
 22 24  1  0
 24 25  1  0
 24 26  1  0
 26 27  1  0
 26 28  1  0
 26 29  1  0
 21 30  2  0
 30 31  1  0
  9 32  1  0
 32 33  1  0
 32 34  2  0
 34 35  1  0
  3 36  1  0
 36 37  1  0
 37 38  2  0
 38 39  1  0
 39 40  1  0
 39 41  1  0
 39 42  1  0
 42 43  1  0
 42 44  1  0
 42 45  1  0
 45 46  1  0
 46 47  1  0
 46 48  1  0
 46 49  1  0
 45 50  1  0
 50 51  1  0
 50 52  1  0
 50 53  1  0
 37 54  1  0
 54 55  1  0
 54 56  2  0
 56 57  1  0
 56  2  1  0
 34  4  1  0
 30 14  1  0
M  CHG  3  10  -1  13  -1  36  -1
M  END
>  <UniqueID>  (75) 
71

>  <SMILES>  (75) 
CNC(=O)c1cccc([N-]C(=O)[N-]c2ccc(-c3ccc/c(=N/CCN(C)C)[n-]3)cc2)c1

>  <Energy>  (75) 
69.70101255216457

>  <Genealogy>  (75) 
CNC(=O)c1cccc([N-]C(=O)[N-]c2ccc(-c3cccc(=NCCN(C)C)[n-]3)cc2)c1 (protonated)
CNC(=O)c1cccc([N-]C(=O)[N-]c2ccc(-c3ccc/c(=N/CCN(C)C)[n-]3)cc2)c1 (cis-trans isomerization)
CNC(=O)c1cccc([N-]C(=O)[N-]c2ccc(-c3ccc/c(=N/CCN(C)C)[n-]3)cc2)c1 (3D coordinates assigned)
CNC(=O)c1cccc([N-]C(=O)[N-]c2ccc(-c3ccc/c(=N/CCN(C)C)[n-]3)cc2)c1 (optimized conformer: 69.70101255216457 kcal/mol)

>  <smiles>  (75) 
CNC(=O)c1cccc(NC(=O)Nc2ccc(-c3cccc(=NCCN(C)C)[nH]3)cc2)c1

>  <score_type>  (75) 
oracle

>  <origin>  (75) 
adg

>  <m_score__min__energy>  (75) 
-12.630000000000001

>  <m_primary>  (75) 
energy

$$$$
75:0
     RDKit          3D

 64 67  0  0  0  0  0  0  0  0999 V2000
   58.1720   26.0880   46.4670 C   0  0  0  0  0  0  0  0  0  0  0  0
   59.3090   26.4750   47.2330 O   0  0  0  0  0  0  0  0  0  0  0  0
   59.8650   27.7650   47.2320 C   0  0  0  0  0  0  0  0  0  0  0  0
   60.0640   28.4910   46.0420 C   0  0  0  0  0  0  0  0  0  0  0  0
   60.6190   29.7700   46.0820 C   0  0  0  0  0  0  0  0  0  0  0  0
   60.9880   30.3480   47.3010 C   0  0  0  0  0  0  0  0  0  0  0  0
   61.5870   31.6560   47.3250 N   0  0  0  0  0  0  0  0  0  0  0  0
   63.0380   31.8280   47.1630 C   0  0  0  0  0  0  0  0  0  0  0  0
   63.5880   32.9030   48.1090 C   0  0  0  0  0  0  0  0  0  0  0  0
   63.3470   32.5550   49.5510 C   0  0  0  0  0  0  0  0  0  0  0  0
   64.0600   31.6720   50.1000 O   0  0  0  0  0  0  0  0  0  0  0  0
   62.3230   33.2290   50.2970 N   0  0  0  0  0  0  0  0  0  0  0  0
   61.9620   32.8510   51.6630 C   0  0  0  0  0  0  0  0  0  0  0  0
   60.5230   32.4300   51.7070 C   0  0  0  0  0  0  0  0  0  0  0  0
   60.1730   31.0830   51.5090 C   0  0  0  0  0  0  0  0  0  0  0  0
   58.8390   30.6780   51.6250 C   0  0  0  0  0  0  0  0  0  0  0  0
   57.8480   31.6110   51.9490 C   0  0  0  0  0  0  0  0  0  0  0  0
   56.1780   31.1000   52.1180 Cl  0  0  0  0  0  0  0  0  0  0  0  0
   58.1900   32.9530   52.1520 C   0  0  0  0  0  0  0  0  0  0  0  0
   59.5230   33.3610   52.0320 C   0  0  0  0  0  0  0  0  0  0  0  0
   60.6140   33.0520   47.6860 S   0  0  0  0  0  0  0  0  0  0  0  0
   60.0020   32.8990   49.0500 O   0  0  0  0  0  0  0  0  0  0  0  0
   61.4480   34.3030   47.6760 O   0  0  0  0  0  0  0  0  0  0  0  0
   59.3610   33.1960   46.4600 C   0  0  0  0  0  0  0  0  0  0  0  0
   59.0460   34.4560   45.9400 C   0  0  0  0  0  0  0  0  0  0  0  0
   58.0640   34.5840   44.9570 C   0  0  0  0  0  0  0  0  0  0  0  0
   57.3950   33.4540   44.4810 C   0  0  0  0  0  0  0  0  0  0  0  0
   57.7070   32.1760   44.9820 C   0  0  0  0  0  0  0  0  0  0  0  0
   56.9900   30.9850   44.4640 C   0  0  0  0  0  0  0  0  0  0  0  0
   56.9090   30.5650   43.1480 C   0  0  0  0  0  0  0  0  0  0  0  0
   56.1380   29.4250   43.2010 C   0  0  0  0  0  0  0  0  0  0  0  0
   55.7790   29.1840   44.4750 N   0  0  0  0  0  0  0  0  0  0  0  0
   56.2950   30.1320   45.2430 N   0  0  0  0  0  0  0  0  0  0  0  0
   58.6980   32.0570   45.9760 C   0  0  0  0  0  0  0  0  0  0  0  0
   60.7920   29.6270   48.4900 C   0  0  0  0  0  0  0  0  0  0  0  0
   60.2290   28.3360   48.4610 C   0  0  0  0  0  0  0  0  0  0  0  0
   60.0180   27.5900   49.6310 O   0  0  0  0  0  0  0  0  0  0  0  0
   60.8500   27.6470   50.7870 C   0  0  0  0  0  0  0  0  0  0  0  0
   57.3514   25.8087   47.1442 H   0  0  0  0  0  0  0  0  0  0  0  0
   57.8539   26.9285   45.8326 H   0  0  0  0  0  0  0  0  0  0  0  0
   58.4327   25.2280   45.8326 H   0  0  0  0  0  0  0  0  0  0  0  0
   59.7804   28.0473   45.0762 H   0  0  0  0  0  0  0  0  0  0  0  0
   60.7678   30.3291   45.1464 H   0  0  0  0  0  0  0  0  0  0  0  0
   63.5373   30.8721   47.3800 H   0  0  0  0  0  0  0  0  0  0  0  0
   63.2334   32.1472   46.1286 H   0  0  0  0  0  0  0  0  0  0  0  0
   64.6708   33.0028   47.9431 H   0  0  0  0  0  0  0  0  0  0  0  0
   63.0659   33.8470   47.8936 H   0  0  0  0  0  0  0  0  0  0  0  0
   61.7290   33.9410   49.8150 H   0  0  0  0  0  0  0  0  0  0  0  0
   62.5977   32.0155   51.9914 H   0  0  0  0  0  0  0  0  0  0  0  0
   62.1103   33.7124   52.3308 H   0  0  0  0  0  0  0  0  0  0  0  0
   60.9505   30.3451   51.2621 H   0  0  0  0  0  0  0  0  0  0  0  0
   58.5688   29.6244   51.4612 H   0  0  0  0  0  0  0  0  0  0  0  0
   57.4109   33.6868   52.4059 H   0  0  0  0  0  0  0  0  0  0  0  0
   59.7890   34.4161   52.1930 H   0  0  0  0  0  0  0  0  0  0  0  0
   59.5740   35.3484   46.3071 H   0  0  0  0  0  0  0  0  0  0  0  0
   57.8160   35.5777   44.5558 H   0  0  0  0  0  0  0  0  0  0  0  0
   56.6189   33.5635   43.7092 H   0  0  0  0  0  0  0  0  0  0  0  0
   57.3584   31.0350   42.2608 H   0  0  0  0  0  0  0  0  0  0  0  0
   55.8588   28.8068   42.3351 H   0  0  0  0  0  0  0  0  0  0  0  0
   58.9542   31.0648   46.3758 H   0  0  0  0  0  0  0  0  0  0  0  0
   61.0807   30.0743   49.4526 H   0  0  0  0  0  0  0  0  0  0  0  0
   60.2249   27.6042   51.6911 H   0  0  0  0  0  0  0  0  0  0  0  0
   61.5450   26.7944   50.7810 H   0  0  0  0  0  0  0  0  0  0  0  0
   61.4222   28.5864   50.7810 H   0  0  0  0  0  0  0  0  0  0  0  0
  1  2  1  0
  2  3  1  0
  3  4  2  0
  4  5  1  0
  5  6  2  0
  6  7  1  0
  7  8  1  0
  8  9  1  0
  9 10  1  0
 10 11  2  0
 10 12  1  0
 12 13  1  0
 13 14  1  0
 14 15  2  0
 15 16  1  0
 16 17  2  0
 17 18  1  0
 17 19  1  0
 19 20  2  0
  7 21  1  0
 21 22  2  0
 21 23  2  0
 21 24  1  0
 24 25  2  0
 25 26  1  0
 26 27  2  0
 27 28  1  0
 28 29  1  0
 29 30  1  0
 30 31  2  0
 31 32  1  0
 32 33  1  0
 28 34  2  0
  6 35  1  0
 35 36  2  0
 36 37  1  0
 37 38  1  0
 36  3  1  0
 20 14  1  0
 34 24  1  0
 33 29  2  0
  1 39  1  0
  1 40  1  0
  1 41  1  0
  4 42  1  0
  5 43  1  0
  8 44  1  0
  8 45  1  0
  9 46  1  0
  9 47  1  0
 12 48  1  0
 13 49  1  0
 13 50  1  0
 15 51  1  0
 16 52  1  0
 19 53  1  0
 20 54  1  0
 25 55  1  0
 26 56  1  0
 27 57  1  0
 30 58  1  0
 31 59  1  0
 34 60  1  0
 35 61  1  0
 38 62  1  0
 38 63  1  0
 38 64  1  0
M  CHG  1  32  -1
M  END
>  <UniqueID>  (76) 
72

>  <SMILES>  (76) 
COc1ccc(N(CCC(=O)NCc2ccc(Cl)cc2)S(=O)(=O)c2cccc(-c3cc[n-]n3)c2)cc1OC

>  <Energy>  (76) 
91.62566185470173

>  <Genealogy>  (76) 
COc1ccc(N(CCC(=O)NCc2ccc(Cl)cc2)S(=O)(=O)c2cccc(-c3cc[n-]n3)c2)cc1OC (protonated)
COc1ccc(N(CCC(=O)NCc2ccc(Cl)cc2)S(=O)(=O)c2cccc(-c3cc[n-]n3)c2)cc1OC (3D coordinates assigned)
COc1ccc(N(CCC(=O)NCc2ccc(Cl)cc2)S(=O)(=O)c2cccc(-c3cc[n-]n3)c2)cc1OC (optimized conformer: 91.62566185470173 kcal/mol)

>  <smiles>  (76) 
COc1ccc(N(CCC(=O)NCc2ccc(Cl)cc2)S(=O)(=O)c2cccc(-c3cc[nH]n3)c2)cc1OC

>  <score_type>  (76) 
oracle

>  <origin>  (76) 
adg

>  <m_score__min__energy>  (76) 
-11.48

>  <m_primary>  (76) 
energy

$$$$
76:0
     RDKit          3D

 42 44  0  0  0  0  0  0  0  0999 V2000
   61.2583   28.2665   47.4119 H   0  0  0  0  0  0  0  0  0  0  0  0
   60.6590   28.0350   46.5190 C   0  0  0  0  0  0  0  0  0  0  0  0
   60.6310   29.0430   45.4370 C   0  0  0  0  0  0  0  0  0  0  0  0
   61.4920   28.9580   44.5200 O   0  0  0  0  0  0  0  0  0  0  0  0
   59.6630   30.1660   45.4180 C   0  0  0  0  0  0  0  0  0  0  0  0
   58.8850   30.4040   44.2740 C   0  0  0  0  0  0  0  0  0  0  0  0
   59.0190   29.7773   43.3799 H   0  0  0  0  0  0  0  0  0  0  0  0
   57.9420   31.4330   44.2670 C   0  0  0  0  0  0  0  0  0  0  0  0
   57.3298   31.6083   43.3701 H   0  0  0  0  0  0  0  0  0  0  0  0
   57.7720   32.2410   45.3930 C   0  0  0  0  0  0  0  0  0  0  0  0
   57.0196   33.0433   45.3837 H   0  0  0  0  0  0  0  0  0  0  0  0
   58.5600   32.0320   46.5390 C   0  0  0  0  0  0  0  0  0  0  0  0
   58.4320   32.8450   47.7130 N   0  0  0  0  0  0  0  0  0  0  0  0
   59.5690   34.0530   48.2170 S   0  0  0  0  0  0  0  0  0  0  0  0
   59.2660   35.3430   47.5090 O   0  0  0  0  0  0  0  0  0  0  0  0
   59.4360   34.2680   49.6980 O   0  0  0  0  0  0  0  0  0  0  0  0
   61.1990   33.5410   47.7970 C   0  0  0  0  0  0  0  0  0  0  0  0
   61.8270   32.5340   48.5460 C   0  0  0  0  0  0  0  0  0  0  0  0
   61.2961   32.0632   49.3865 H   0  0  0  0  0  0  0  0  0  0  0  0
   63.1260   32.1280   48.2260 C   0  0  0  0  0  0  0  0  0  0  0  0
   63.6140   31.3356   48.8125 H   0  0  0  0  0  0  0  0  0  0  0  0
   63.8060   32.7280   47.1610 C   0  0  0  0  0  0  0  0  0  0  0  0
   64.8298   32.4111   46.9130 H   0  0  0  0  0  0  0  0  0  0  0  0
   63.1830   33.7310   46.4120 C   0  0  0  0  0  0  0  0  0  0  0  0
   63.7174   34.2019   45.5738 H   0  0  0  0  0  0  0  0  0  0  0  0
   61.8820   34.1370   46.7260 C   0  0  0  0  0  0  0  0  0  0  0  0
   61.3938   34.9243   46.1328 H   0  0  0  0  0  0  0  0  0  0  0  0
   59.5060   30.9990   46.5400 C   0  0  0  0  0  0  0  0  0  0  0  0
   60.1335   30.8375   47.4289 H   0  0  0  0  0  0  0  0  0  0  0  0
   60.0100   26.8590   46.4970 C   0  0  0  0  0  0  0  0  0  0  0  0
   60.6146   25.9439   46.5806 H   0  0  0  0  0  0  0  0  0  0  0  0
   58.5450   26.7000   46.3690 C   0  0  0  0  0  0  0  0  0  0  0  0
   57.8770   25.5840   46.9050 C   0  0  0  0  0  0  0  0  0  0  0  0
   58.4474   24.8064   47.4342 H   0  0  0  0  0  0  0  0  0  0  0  0
   56.4920   25.4590   46.7680 C   0  0  0  0  0  0  0  0  0  0  0  0
   55.9788   24.5724   47.1687 H   0  0  0  0  0  0  0  0  0  0  0  0
   55.7570   26.4580   46.1230 C   0  0  0  0  0  0  0  0  0  0  0  0
   54.3810   26.3340   45.9910 O   0  0  0  0  0  0  0  0  0  0  0  0
   56.4100   27.5860   45.6180 C   0  0  0  0  0  0  0  0  0  0  0  0
   55.8315   28.3767   45.1178 H   0  0  0  0  0  0  0  0  0  0  0  0
   57.7970   27.7120   45.7470 C   0  0  0  0  0  0  0  0  0  0  0  0
   58.3039   28.6080   45.3594 H   0  0  0  0  0  0  0  0  0  0  0  0
  1  2  1  0
  2  3  1  0
  3  4  2  0
  3  5  1  0
  5  6  2  0
  6  7  1  0
  6  8  1  0
  8  9  1  0
  8 10  2  0
 10 11  1  0
 10 12  1  0
 12 13  1  0
 13 14  1  0
 14 15  2  0
 14 16  2  0
 14 17  1  0
 17 18  2  0
 18 19  1  0
 18 20  1  0
 20 21  1  0
 20 22  2  0
 22 23  1  0
 22 24  1  0
 24 25  1  0
 24 26  2  0
 26 27  1  0
 12 28  2  0
 28 29  1  0
  2 30  2  0
 30 31  1  0
 30 32  1  0
 32 33  2  0
 33 34  1  0
 33 35  1  0
 35 36  1  0
 35 37  2  0
 37 38  1  0
 37 39  1  0
 39 40  1  0
 39 41  2  0
 41 42  1  0
 28  5  1  0
 41 32  1  0
 26 17  1  0
M  CHG  2  13  -1  38  -1
M  END
>  <UniqueID>  (77) 
73

>  <SMILES>  (77) 
O=C(/C=C\c1ccc([O-])cc1)c1cccc([N-]S(=O)(=O)c2ccccc2)c1

>  <Energy>  (77) 
55.76956087561237

>  <Genealogy>  (77) 
O=C(C=Cc1ccc([O-])cc1)c1cccc([N-]S(=O)(=O)c2ccccc2)c1 (protonated)
O=C(/C=C\c1ccc([O-])cc1)c1cccc([N-]S(=O)(=O)c2ccccc2)c1 (cis-trans isomerization)
O=C(/C=C\c1ccc([O-])cc1)c1cccc([N-]S(=O)(=O)c2ccccc2)c1 (3D coordinates assigned)
O=C(/C=C\c1ccc([O-])cc1)c1cccc([N-]S(=O)(=O)c2ccccc2)c1 (optimized conformer: 55.76956087561237 kcal/mol)

>  <smiles>  (77) 
O=C(C=Cc1ccc(O)cc1)c1cccc(NS(=O)(=O)c2ccccc2)c1

>  <score_type>  (77) 
oracle

>  <origin>  (77) 
adg

>  <m_score__min__energy>  (77) 
-13.140000000000001

>  <m_primary>  (77) 
energy

$$$$
77:0
     RDKit          3D

 43 45  0  0  0  0  0  0  0  0999 V2000
   65.4570   32.0850   50.2250 C   0  0  0  0  0  0  0  0  0  0  0  0
   64.5000   32.6640   49.3430 O   0  0  0  0  0  0  0  0  0  0  0  0
   63.3650   31.9980   48.8590 C   0  0  0  0  0  0  0  0  0  0  0  0
   62.9750   32.0550   47.5080 C   0  0  0  0  0  0  0  0  0  0  0  0
   61.8280   31.3830   47.0770 C   0  0  0  0  0  0  0  0  0  0  0  0
   61.0470   30.6500   47.9870 C   0  0  0  0  0  0  0  0  0  0  0  0
   59.8500   29.9800   47.5410 N   0  0  0  0  0  0  0  0  0  0  0  0
   60.1920   28.8160   46.7540 C   0  0  0  0  0  0  0  0  0  0  0  0
   60.3920   27.5340   47.3810 S   0  0  0  0  0  0  0  0  0  0  0  0
   60.1720   28.8990   44.9550 S   0  0  0  0  0  0  0  0  0  0  0  0
   58.6200   29.7900   44.8870 C   0  0  0  0  0  0  0  0  0  0  0  0
   57.4510   29.1160   44.7480 N   0  0  0  0  0  0  0  0  0  0  0  0
   56.2780   29.7940   44.6870 C   0  0  0  0  0  0  0  0  0  0  0  0
   55.1950   29.1660   44.5620 O   0  0  0  0  0  0  0  0  0  0  0  0
   56.2740   31.1490   44.7550 N   0  0  0  0  0  0  0  0  0  0  0  0
   57.4430   31.8250   44.8860 C   0  0  0  0  0  0  0  0  0  0  0  0
   57.4440   33.6130   44.9500 S   0  0  0  0  0  0  0  0  0  0  0  0
   59.1960   33.7450   45.4540 C   0  0  0  0  0  0  0  0  0  0  0  0
   59.3330   33.6680   46.9500 C   0  0  0  0  0  0  0  0  0  0  0  0
   58.4770   32.8380   47.6940 C   0  0  0  0  0  0  0  0  0  0  0  0
   58.6310   32.7300   49.0800 C   0  0  0  0  0  0  0  0  0  0  0  0
   59.6380   33.4460   49.7310 C   0  0  0  0  0  0  0  0  0  0  0  0
   60.4960   34.2710   48.9980 C   0  0  0  0  0  0  0  0  0  0  0  0
   60.3440   34.3850   47.6130 C   0  0  0  0  0  0  0  0  0  0  0  0
   58.6150   31.1450   44.9520 N   0  0  0  0  0  0  0  0  0  0  0  0
   61.4420   30.5900   49.3340 C   0  0  0  0  0  0  0  0  0  0  0  0
   62.5940   31.2570   49.7620 C   0  0  0  0  0  0  0  0  0  0  0  0
   65.1539   32.2684   51.2664 H   0  0  0  0  0  0  0  0  0  0  0  0
   65.5131   31.0013   50.0449 H   0  0  0  0  0  0  0  0  0  0  0  0
   66.4430   32.5382   50.0449 H   0  0  0  0  0  0  0  0  0  0  0  0
   63.5754   32.6308   46.7884 H   0  0  0  0  0  0  0  0  0  0  0  0
   61.5343   31.4281   46.0179 H   0  0  0  0  0  0  0  0  0  0  0  0
   59.2750   29.7310   48.3830 H   0  0  0  0  0  0  0  0  0  0  0  0
   59.2670   30.6170   46.9490 H   0  0  0  0  0  0  0  0  0  0  0  0
   59.7648   32.9214   44.9977 H   0  0  0  0  0  0  0  0  0  0  0  0
   59.5862   34.7162   45.1155 H   0  0  0  0  0  0  0  0  0  0  0  0
   57.6834   32.2715   47.1847 H   0  0  0  0  0  0  0  0  0  0  0  0
   57.9578   32.0800   49.6582 H   0  0  0  0  0  0  0  0  0  0  0  0
   59.7561   33.3607   50.8213 H   0  0  0  0  0  0  0  0  0  0  0  0
   61.2915   34.8310   49.5115 H   0  0  0  0  0  0  0  0  0  0  0  0
   61.0182   35.0384   47.0398 H   0  0  0  0  0  0  0  0  0  0  0  0
   60.8422   30.0156   50.0553 H   0  0  0  0  0  0  0  0  0  0  0  0
   62.8970   31.1988   50.8178 H   0  0  0  0  0  0  0  0  0  0  0  0
  1  2  1  0
  2  3  1  0
  3  4  2  0
  4  5  1  0
  5  6  2  0
  6  7  1  0
  7  8  1  0
  8  9  2  0
  8 10  1  0
 10 11  1  0
 11 12  2  0
 12 13  1  0
 13 14  2  0
 13 15  1  0
 15 16  2  0
 16 17  1  0
 17 18  1  0
 18 19  1  0
 19 20  2  0
 20 21  1  0
 21 22  2  0
 22 23  1  0
 23 24  2  0
 16 25  1  0
  6 26  1  0
 26 27  2  0
 27  3  1  0
 25 11  1  0
 24 19  1  0
  1 28  1  0
  1 29  1  0
  1 30  1  0
  4 31  1  0
  5 32  1  0
  7 33  1  0
  7 34  1  0
 18 35  1  0
 18 36  1  0
 20 37  1  0
 21 38  1  0
 22 39  1  0
 23 40  1  0
 24 41  1  0
 26 42  1  0
 27 43  1  0
M  CHG  2   7   1  25  -1
M  END
>  <UniqueID>  (78) 
74

>  <SMILES>  (78) 
COc1ccc([NH2+]C(=S)Sc2nc(=O)nc(SCc3ccccc3)[n-]2)cc1

>  <Energy>  (78) 
36.83754580671528

>  <Genealogy>  (78) 
COc1ccc([NH2+]C(=S)Sc2nc(=O)nc(SCc3ccccc3)[n-]2)cc1 (protonated)
COc1ccc([NH2+]C(=S)Sc2nc(=O)nc(SCc3ccccc3)[n-]2)cc1 (3D coordinates assigned)
COc1ccc([NH2+]C(=S)Sc2nc(=O)nc(SCc3ccccc3)[n-]2)cc1 (optimized conformer: 36.83754580671528 kcal/mol)

>  <smiles>  (78) 
COc1ccc(NC(=S)Sc2nc(=O)nc(SCc3ccccc3)[nH]2)cc1

>  <score_type>  (78) 
oracle

>  <origin>  (78) 
adg

>  <m_score__min__energy>  (78) 
-8.3300000000000001

>  <m_primary>  (78) 
energy

$$$$
78:0
     RDKit          3D

 29 30  0  0  0  0  0  0  0  0999 V2000
   55.4790   29.2880   44.8840 N   0  0  0  0  0  0  0  0  0  0  0  0
   57.1970   29.3860   45.0310 S   0  0  0  0  0  0  0  0  0  0  0  0
   57.6030   28.8820   46.3880 O   0  0  0  0  0  0  0  0  0  0  0  0
   57.8450   28.5460   43.9660 O   0  0  0  0  0  0  0  0  0  0  0  0
   57.7070   31.0530   44.8520 C   0  0  0  0  0  0  0  0  0  0  0  0
   58.3170   31.8220   45.8300 C   0  0  0  0  0  0  0  0  0  0  0  0
   58.6350   33.1110   45.3840 C   0  0  0  0  0  0  0  0  0  0  0  0
   59.4170   34.3020   46.4100 S   0  0  0  0  0  0  0  0  0  0  0  0
   58.4540   34.6390   47.5140 O   0  0  0  0  0  0  0  0  0  0  0  0
   59.7020   35.5600   45.6390 O   0  0  0  0  0  0  0  0  0  0  0  0
   60.9330   33.6660   47.0900 C   0  0  0  0  0  0  0  0  0  0  0  0
   62.1020   33.8250   46.3220 C   0  0  0  0  0  0  0  0  0  0  0  0
   63.3360   33.3850   46.7940 C   0  0  0  0  0  0  0  0  0  0  0  0
   63.4290   32.7830   48.0440 C   0  0  0  0  0  0  0  0  0  0  0  0
   62.2860   32.6070   48.8230 C   0  0  0  0  0  0  0  0  0  0  0  0
   61.0170   33.0140   48.3590 C   0  0  0  0  0  0  0  0  0  0  0  0
   59.8220   32.8160   49.2750 C   0  0  0  0  0  0  0  0  0  0  0  0
   60.1310   31.9810   50.3310 F   0  0  0  0  0  0  0  0  0  0  0  0
   59.4020   34.0170   49.8190 F   0  0  0  0  0  0  0  0  0  0  0  0
   58.7720   32.2790   48.5550 F   0  0  0  0  0  0  0  0  0  0  0  0
   58.2710   33.3580   44.0640 C   0  0  0  0  0  0  0  0  0  0  0  0
   57.5630   31.9630   43.4460 S   0  0  0  0  0  0  0  0  0  0  0  0
   55.1460   28.6290   45.6250 H   0  0  0  0  0  0  0  0  0  0  0  0
   58.5286   31.4593   46.8467 H   0  0  0  0  0  0  0  0  0  0  0  0
   62.0397   34.3042   45.3338 H   0  0  0  0  0  0  0  0  0  0  0  0
   64.2379   33.5137   46.1775 H   0  0  0  0  0  0  0  0  0  0  0  0
   64.4063   32.4449   48.4191 H   0  0  0  0  0  0  0  0  0  0  0  0
   62.3750   32.1429   49.8163 H   0  0  0  0  0  0  0  0  0  0  0  0
   58.4203   34.3018   43.5191 H   0  0  0  0  0  0  0  0  0  0  0  0
  1  2  1  0
  2  3  2  0
  2  4  2  0
  2  5  1  0
  5  6  2  0
  6  7  1  0
  7  8  1  0
  8  9  2  0
  8 10  2  0
  8 11  1  0
 11 12  2  0
 12 13  1  0
 13 14  2  0
 14 15  1  0
 15 16  2  0
 16 17  1  0
 17 18  1  0
 17 19  1  0
 17 20  1  0
  7 21  2  0
 21 22  1  0
 22  5  1  0
 16 11  1  0
  1 23  1  0
  6 24  1  0
 12 25  1  0
 13 26  1  0
 14 27  1  0
 15 28  1  0
 21 29  1  0
M  CHG  1   1  -1
M  END
>  <UniqueID>  (79) 
75

>  <SMILES>  (79) 
[NH-]S(=O)(=O)c1cc(S(=O)(=O)c2ccccc2C(F)(F)F)cs1

>  <Energy>  (79) 
62.04834556891395

>  <Genealogy>  (79) 
[NH-]S(=O)(=O)c1cc(S(=O)(=O)c2ccccc2C(F)(F)F)cs1 (protonated)
[NH-]S(=O)(=O)c1cc(S(=O)(=O)c2ccccc2C(F)(F)F)cs1 (3D coordinates assigned)
[NH-]S(=O)(=O)c1cc(S(=O)(=O)c2ccccc2C(F)(F)F)cs1 (optimized conformer: 62.04834556891395 kcal/mol)

>  <smiles>  (79) 
NS(=O)(=O)c1cc(S(=O)(=O)c2ccccc2C(F)(F)F)cs1

>  <score_type>  (79) 
oracle

>  <origin>  (79) 
adg

>  <m_score__min__energy>  (79) 
-10.82

>  <m_primary>  (79) 
energy

$$$$
79:0
     RDKit          3D

 37 38  0  0  0  0  0  0  0  0999 V2000
   61.9920   32.8570   47.2910 C   0  0  0  0  0  0  0  0  0  0  0  0
   60.5780   32.2430   47.2780 C   0  0  2  0  0  0  0  0  0  0  0  0
   60.5790   30.7940   46.7440 C   0  0  0  0  0  0  0  0  0  0  0  0
   59.2360   30.3070   46.4120 N   0  0  0  0  0  0  0  0  0  0  0  0
   58.9620   28.9240   46.1040 C   0  0  0  0  0  0  0  0  0  0  0  0
   59.7620   27.9010   46.6540 C   0  0  0  0  0  0  0  0  0  0  0  0
   59.5270   26.5630   46.3410 C   0  0  0  0  0  0  0  0  0  0  0  0
   58.4900   26.2190   45.4760 C   0  0  0  0  0  0  0  0  0  0  0  0
   57.6800   27.2130   44.9270 C   0  0  0  0  0  0  0  0  0  0  0  0
   57.8990   28.5660   45.2340 C   0  0  0  0  0  0  0  0  0  0  0  0
   56.8040   29.7800   44.5510 S   0  0  0  0  0  0  0  0  0  0  0  0
   55.1630   29.3260   44.8510 N   0  0  0  0  0  0  0  0  0  0  0  0
   57.0560   31.1240   45.1770 O   0  0  0  0  0  0  0  0  0  0  0  0
   57.0380   29.8910   43.0710 O   0  0  0  0  0  0  0  0  0  0  0  0
   59.5630   33.0770   46.5780 N   0  0  0  0  0  0  0  0  0  0  0  0
   59.8930   33.8280   45.4750 C   0  0  0  0  0  0  0  0  0  0  0  0
   58.9300   34.5810   44.8010 C   0  0  0  0  0  0  0  0  0  0  0  0
   57.6130   34.5660   45.2450 C   0  0  0  0  0  0  0  0  0  0  0  0
   57.2710   33.8000   46.3540 C   0  0  0  0  0  0  0  0  0  0  0  0
   58.2540   33.0530   47.0110 C   0  0  0  0  0  0  0  0  0  0  0  0
   57.9160   32.3560   48.0080 O   0  0  0  0  0  0  0  0  0  0  0  0
   62.3203   32.9996   48.3311 H   0  0  0  0  0  0  0  0  0  0  0  0
   62.6901   32.1809   46.7756 H   0  0  0  0  0  0  0  0  0  0  0  0
   61.9746   33.8286   46.7756 H   0  0  0  0  0  0  0  0  0  0  0  0
   60.2696   32.2165   48.3335 H   0  0  0  0  0  0  0  0  0  0  0  0
   61.2007   30.7545   45.8374 H   0  0  0  0  0  0  0  0  0  0  0  0
   60.9763   30.1487   47.5413 H   0  0  0  0  0  0  0  0  0  0  0  0
   58.4450   30.9820   46.4150 H   0  0  0  0  0  0  0  0  0  0  0  0
   60.5821   28.1623   47.3389 H   0  0  0  0  0  0  0  0  0  0  0  0
   60.1612   25.7774   46.7776 H   0  0  0  0  0  0  0  0  0  0  0  0
   58.3101   25.1630   45.2260 H   0  0  0  0  0  0  0  0  0  0  0  0
   56.8616   26.9345   44.2468 H   0  0  0  0  0  0  0  0  0  0  0  0
   55.1770   28.6340   45.6350 H   0  0  0  0  0  0  0  0  0  0  0  0
   60.9333   33.8357   45.1175 H   0  0  0  0  0  0  0  0  0  0  0  0
   59.2117   35.1824   43.9241 H   0  0  0  0  0  0  0  0  0  0  0  0
   56.8460   35.1564   44.7224 H   0  0  0  0  0  0  0  0  0  0  0  0
   56.2314   33.7817   46.7131 H   0  0  0  0  0  0  0  0  0  0  0  0
  1  2  1  0
  2  3  1  0
  3  4  1  0
  4  5  1  0
  5  6  2  0
  6  7  1  0
  7  8  2  0
  8  9  1  0
  9 10  2  0
 10 11  1  0
 11 12  1  0
 11 13  2  0
 11 14  2  0
  2 15  1  0
 15 16  1  0
 16 17  2  0
 17 18  1  0
 18 19  2  0
 19 20  1  0
 20 21  2  0
 10  5  1  0
 20 15  1  0
  1 22  1  0
  1 23  1  0
  1 24  1  0
  2 25  1  1
  3 26  1  0
  3 27  1  0
  4 28  1  0
  6 29  1  0
  7 30  1  0
  8 31  1  0
  9 32  1  0
 12 33  1  0
 16 34  1  0
 17 35  1  0
 18 36  1  0
 19 37  1  0
M  CHG  1  12  -1
M  END
>  <UniqueID>  (80) 
76

>  <SMILES>  (80) 
C[C@H](CNc1ccccc1S([NH-])(=O)=O)n1ccccc1=O

>  <Energy>  (80) 
42.68341503921339

>  <Genealogy>  (80) 
CC(CNc1ccccc1S([NH-])(=O)=O)n1ccccc1=O (protonated)
C[C@H](CNc1ccccc1S([NH-])(=O)=O)n1ccccc1=O (chirality)
C[C@H](CNc1ccccc1S([NH-])(=O)=O)n1ccccc1=O (3D coordinates assigned)
C[C@H](CNc1ccccc1S([NH-])(=O)=O)n1ccccc1=O (optimized conformer: 42.68341503921339 kcal/mol)

>  <smiles>  (80) 
CC(CNc1ccccc1S(N)(=O)=O)n1ccccc1=O

>  <score_type>  (80) 
oracle

>  <origin>  (80) 
adg

>  <m_score__min__energy>  (80) 
-10.19

>  <m_primary>  (80) 
energy

$$$$
80:0
     RDKit          3D

 54 57  0  0  0  0  0  0  0  0999 V2000
   54.0730   24.7060   45.6240 C   0  0  0  0  0  0  0  0  0  0  0  0
   54.6600   25.9910   45.9790 N   0  0  0  0  0  0  0  0  0  0  0  0
   56.0420   26.2320   46.2820 C   0  0  0  0  0  0  0  0  0  0  0  0
   56.7010   25.3090   46.8280 O   0  0  0  0  0  0  0  0  0  0  0  0
   56.7240   27.5110   45.9900 C   0  0  0  0  0  0  0  0  0  0  0  0
   56.1950   28.5140   45.2460 N   0  0  0  0  0  0  0  0  0  0  0  0
   57.0510   29.5630   45.1330 C   0  0  0  0  0  0  0  0  0  0  0  0
   58.2440   29.4210   45.8160 C   0  0  0  0  0  0  0  0  0  0  0  0
   58.2730   27.9050   46.5400 S   0  0  0  0  0  0  0  0  0  0  0  0
   59.3530   30.4260   45.7680 C   0  0  0  0  0  0  0  0  0  0  0  0
   58.8660   31.7590   45.3290 N   0  0  0  0  0  0  0  0  0  0  0  0
   58.2230   32.5150   46.4240 C   0  0  0  0  0  0  0  0  0  0  0  0
   58.6100   33.9600   46.3700 C   0  0  0  0  0  0  0  0  0  0  0  0
   58.1580   34.6960   45.4530 O   0  0  0  0  0  0  0  0  0  0  0  0
   59.4990   34.4910   47.3610 N   0  0  0  0  0  0  0  0  0  0  0  0
   60.8640   34.0990   47.5640 C   0  0  0  0  0  0  0  0  0  0  0  0
   61.6630   33.8740   46.4360 C   0  0  0  0  0  0  0  0  0  0  0  0
   62.9960   33.4800   46.5780 C   0  0  0  0  0  0  0  0  0  0  0  0
   63.5390   33.2970   47.8520 C   0  0  0  0  0  0  0  0  0  0  0  0
   62.7450   33.4840   48.9840 C   0  0  0  0  0  0  0  0  0  0  0  0
   61.3920   33.8550   48.8540 C   0  0  0  0  0  0  0  0  0  0  0  0
   60.5720   34.0030   49.9830 O   0  0  0  0  0  0  0  0  0  0  0  0
   59.6140   33.0780   50.4210 C   0  0  0  0  0  0  0  0  0  0  0  0
   59.4620   31.8810   49.7150 C   0  0  0  0  0  0  0  0  0  0  0  0
   58.5250   30.9290   50.1300 C   0  0  0  0  0  0  0  0  0  0  0  0
   57.7400   31.1530   51.2670 C   0  0  0  0  0  0  0  0  0  0  0  0
   56.8140   30.1680   51.6440 O   0  0  0  0  0  0  0  0  0  0  0  0
   55.6240   30.4240   52.3840 C   0  0  0  0  0  0  0  0  0  0  0  0
   57.9070   32.3480   51.9930 C   0  0  0  0  0  0  0  0  0  0  0  0
   58.8390   33.3020   51.5720 C   0  0  0  0  0  0  0  0  0  0  0  0
   57.9900   31.6570   44.1350 C   0  0  0  0  0  0  0  0  0  0  0  0
   56.7160   30.8240   44.3980 C   0  0  0  0  0  0  0  0  0  0  0  0
   53.8202   24.1526   46.5405 H   0  0  0  0  0  0  0  0  0  0  0  0
   53.1608   24.8707   45.0317 H   0  0  0  0  0  0  0  0  0  0  0  0
   54.7947   24.1243   45.0317 H   0  0  0  0  0  0  0  0  0  0  0  0
   59.7931   30.5198   46.7717 H   0  0  0  0  0  0  0  0  0  0  0  0
   60.1014   30.0772   45.0412 H   0  0  0  0  0  0  0  0  0  0  0  0
   57.1305   32.4303   46.3279 H   0  0  0  0  0  0  0  0  0  0  0  0
   58.5560   32.0961   47.3851 H   0  0  0  0  0  0  0  0  0  0  0  0
   61.2378   34.0085   45.4304 H   0  0  0  0  0  0  0  0  0  0  0  0
   63.6181   33.3138   45.6862 H   0  0  0  0  0  0  0  0  0  0  0  0
   64.5938   33.0051   47.9629 H   0  0  0  0  0  0  0  0  0  0  0  0
   63.1783   33.3408   49.9849 H   0  0  0  0  0  0  0  0  0  0  0  0
   60.0829   31.6867   48.8280 H   0  0  0  0  0  0  0  0  0  0  0  0
   58.4041   29.9970   49.5584 H   0  0  0  0  0  0  0  0  0  0  0  0
   55.8444   30.3766   53.4607 H   0  0  0  0  0  0  0  0  0  0  0  0
   55.2432   31.4246   52.1314 H   0  0  0  0  0  0  0  0  0  0  0  0
   54.8655   29.6685   52.1314 H   0  0  0  0  0  0  0  0  0  0  0  0
   57.3028   32.5316   52.8937 H   0  0  0  0  0  0  0  0  0  0  0  0
   58.9662   34.2325   52.1447 H   0  0  0  0  0  0  0  0  0  0  0  0
   57.6907   32.6708   43.8308 H   0  0  0  0  0  0  0  0  0  0  0  0
   58.5626   31.1472   43.3462 H   0  0  0  0  0  0  0  0  0  0  0  0
   56.0141   31.4182   45.0015 H   0  0  0  0  0  0  0  0  0  0  0  0
   56.2601   30.5602   43.4323 H   0  0  0  0  0  0  0  0  0  0  0  0
  1  2  1  0
  2  3  1  0
  3  4  2  0
  3  5  1  0
  5  6  2  0
  6  7  1  0
  7  8  2  0
  8  9  1  0
  8 10  1  0
 10 11  1  0
 11 12  1  0
 12 13  1  0
 13 14  2  0
 13 15  1  0
 15 16  1  0
 16 17  2  0
 17 18  1  0
 18 19  2  0
 19 20  1  0
 20 21  2  0
 21 22  1  0
 22 23  1  0
 23 24  2  0
 24 25  1  0
 25 26  2  0
 26 27  1  0
 27 28  1  0
 26 29  1  0
 29 30  2  0
 11 31  1  0
 31 32  1  0
  9  5  1  0
 21 16  1  0
 30 23  1  0
 32  7  1  0
  1 33  1  0
  1 34  1  0
  1 35  1  0
 10 36  1  0
 10 37  1  0
 12 38  1  0
 12 39  1  0
 17 40  1  0
 18 41  1  0
 19 42  1  0
 20 43  1  0
 24 44  1  0
 25 45  1  0
 28 46  1  0
 28 47  1  0
 28 48  1  0
 29 49  1  0
 30 50  1  0
 31 51  1  0
 31 52  1  0
 32 53  1  0
 32 54  1  0
M  CHG  2   2  -1  15  -1
M  END
>  <UniqueID>  (81) 
77

>  <SMILES>  (81) 
C[N-]C(=O)c1nc2c(s1)CN(CC(=O)[N-]c1ccccc1Oc1ccc(OC)cc1)CC2

>  <Energy>  (81) 
101.9543307986248

>  <Genealogy>  (81) 
C[N-]C(=O)c1nc2c(s1)CN(CC(=O)[N-]c1ccccc1Oc1ccc(OC)cc1)CC2 (protonated)
C[N-]C(=O)c1nc2c(s1)CN(CC(=O)[N-]c1ccccc1Oc1ccc(OC)cc1)CC2 (3D coordinates assigned)
C[N-]C(=O)c1nc2c(s1)CN(CC(=O)[N-]c1ccccc1Oc1ccc(OC)cc1)CC2 (nonaromatic ring conformer: 101.9543307986248 kcal/mol)

>  <smiles>  (81) 
CNC(=O)c1nc2c(s1)CN(CC(=O)Nc1ccccc1Oc1ccc(OC)cc1)CC2

>  <score_type>  (81) 
oracle

>  <origin>  (81) 
adg

>  <m_score__min__energy>  (81) 
-12.49

>  <m_primary>  (81) 
energy

$$$$
81:0
     RDKit          3D

 35 37  0  0  0  0  0  0  0  0999 V2000
   57.0280   22.7980   47.6300 O   0  0  0  0  0  0  0  0  0  0  0  0
   56.9590   23.8680   46.9730 C   0  0  0  0  0  0  0  0  0  0  0  0
   55.8690   24.6650   46.9640 N   0  0  0  0  0  0  0  0  0  0  0  0
   56.0490   25.7550   46.1730 C   0  0  0  0  0  0  0  0  0  0  0  0
   55.0540   26.7080   45.9960 O   0  0  0  0  0  0  0  0  0  0  0  0
   57.2990   25.8340   45.5590 C   0  0  0  0  0  0  0  0  0  0  0  0
   57.7460   26.8790   44.5860 C   0  0  0  0  0  0  0  0  0  0  0  0
   58.5120   27.9590   45.2990 C   0  0  0  0  0  0  0  0  0  0  0  0
   59.8440   28.2340   44.9530 C   0  0  0  0  0  0  0  0  0  0  0  0
   60.5630   29.2160   45.6380 C   0  0  0  0  0  0  0  0  0  0  0  0
   59.9650   29.9400   46.6760 C   0  0  0  0  0  0  0  0  0  0  0  0
   60.7280   30.9050   47.3490 O   0  0  0  0  0  0  0  0  0  0  0  0
   60.3920   32.2610   47.4850 C   0  0  0  0  0  0  0  0  0  0  0  0
   60.6260   32.9680   48.6770 C   0  0  0  0  0  0  0  0  0  0  0  0
   60.2650   34.3120   48.7770 C   0  0  0  0  0  0  0  0  0  0  0  0
   59.6570   34.9610   47.7000 C   0  0  0  0  0  0  0  0  0  0  0  0
   59.3950   34.2620   46.5060 C   0  0  0  0  0  0  0  0  0  0  0  0
   58.7560   34.9210   45.3970 N   0  0  0  0  0  0  0  0  0  0  0  0
   59.3100   35.8790   44.8190 O   0  0  0  0  0  0  0  0  0  0  0  0
   57.5150   34.5130   44.9620 O   0  0  0  0  0  0  0  0  0  0  0  0
   59.7630   32.9070   46.4140 C   0  0  0  0  0  0  0  0  0  0  0  0
   58.6410   29.6440   47.0450 C   0  0  0  0  0  0  0  0  0  0  0  0
   57.9190   28.6630   46.3590 C   0  0  0  0  0  0  0  0  0  0  0  0
   58.1950   24.4730   46.0050 S   0  0  0  0  0  0  0  0  0  0  0  0
   54.9910   24.4650   47.4940 H   0  0  0  0  0  0  0  0  0  0  0  0
   58.3930   26.4155   43.8267 H   0  0  0  0  0  0  0  0  0  0  0  0
   56.8620   27.3235   44.1055 H   0  0  0  0  0  0  0  0  0  0  0  0
   60.3244   27.6730   44.1378 H   0  0  0  0  0  0  0  0  0  0  0  0
   61.6071   29.4220   45.3597 H   0  0  0  0  0  0  0  0  0  0  0  0
   61.0948   32.4606   49.5330 H   0  0  0  0  0  0  0  0  0  0  0  0
   60.4602   34.8632   49.7087 H   0  0  0  0  0  0  0  0  0  0  0  0
   59.3817   36.0226   47.7849 H   0  0  0  0  0  0  0  0  0  0  0  0
   59.5540   32.3487   45.4896 H   0  0  0  0  0  0  0  0  0  0  0  0
   58.1707   30.1872   47.8779 H   0  0  0  0  0  0  0  0  0  0  0  0
   56.8818   28.4417   46.6510 H   0  0  0  0  0  0  0  0  0  0  0  0
  1  2  2  0
  2  3  1  0
  3  4  1  0
  4  5  1  0
  4  6  2  0
  6  7  1  0
  7  8  1  0
  8  9  2  0
  9 10  1  0
 10 11  2  0
 11 12  1  0
 12 13  1  0
 13 14  2  0
 14 15  1  0
 15 16  2  0
 16 17  1  0
 17 18  1  0
 18 19  2  0
 18 20  1  0
 17 21  2  0
 11 22  1  0
 22 23  2  0
  6 24  1  0
 24  2  1  0
 23  8  1  0
 21 13  1  0
  3 25  1  0
  7 26  1  0
  7 27  1  0
  9 28  1  0
 10 29  1  0
 14 30  1  0
 15 31  1  0
 16 32  1  0
 21 33  1  0
 22 34  1  0
 23 35  1  0
M  CHG  3   5  -1  18   1  20  -1
M  END
>  <UniqueID>  (82) 
78

>  <SMILES>  (82) 
O=c1[nH]c([O-])c(Cc2ccc(Oc3cccc([N+](=O)[O-])c3)cc2)s1

>  <Energy>  (82) 
74.36056567079967

>  <Genealogy>  (82) 
O=c1[nH]c([O-])c(Cc2ccc(Oc3cccc([N+](=O)[O-])c3)cc2)s1 (protonated)
O=c1[nH]c([O-])c(Cc2ccc(Oc3cccc([N+](=O)[O-])c3)cc2)s1 (3D coordinates assigned)
O=c1[nH]c([O-])c(Cc2ccc(Oc3cccc([N+](=O)[O-])c3)cc2)s1 (optimized conformer: 74.36056567079967 kcal/mol)

>  <smiles>  (82) 
O=c1[nH]c(O)c(Cc2ccc(Oc3cccc([N+](=O)[O-])c3)cc2)s1

>  <score_type>  (82) 
oracle

>  <origin>  (82) 
adg

>  <m_score__min__energy>  (82) 
-11.460000000000001

>  <m_primary>  (82) 
energy

$$$$
82:0
     RDKit          3D

 50 51  0  0  0  0  0  0  0  0999 V2000
   65.2360   31.9050   50.5030 C   0  0  0  0  0  0  0  0  0  0  0  0
   64.9370   32.8840   49.3680 C   0  0  0  0  0  0  0  0  0  0  0  0
   63.6010   32.7090   48.7630 N   0  0  0  0  0  0  0  0  0  0  0  0
   63.5190   32.5380   47.3000 C   0  0  0  0  0  0  0  0  0  0  0  0
   63.4000   33.8520   46.5180 C   0  0  0  0  0  0  0  0  0  0  0  0
   62.2860   33.5640   49.5440 S   0  0  0  0  0  0  0  0  0  0  0  0
   62.5100   35.0430   49.3910 O   0  0  0  0  0  0  0  0  0  0  0  0
   62.3000   33.2490   51.0150 O   0  0  0  0  0  0  0  0  0  0  0  0
   60.6970   33.1710   48.8750 C   0  0  0  0  0  0  0  0  0  0  0  0
   59.8050   32.3600   49.5950 C   0  0  0  0  0  0  0  0  0  0  0  0
   58.5230   32.1120   49.0980 C   0  0  0  0  0  0  0  0  0  0  0  0
   58.1180   32.6770   47.8880 C   0  0  0  0  0  0  0  0  0  0  0  0
   59.0030   33.4780   47.1520 C   0  0  0  0  0  0  0  0  0  0  0  0
   58.5110   34.1730   45.6080 S   0  0  0  0  0  0  0  0  0  0  0  0
   59.2620   35.4590   45.4020 O   0  0  0  0  0  0  0  0  0  0  0  0
   57.0390   34.4880   45.6290 O   0  0  0  0  0  0  0  0  0  0  0  0
   58.8910   33.0850   44.3000 N   0  0  0  0  0  0  0  0  0  0  0  0
   57.6870   32.4850   43.7170 C   0  0  0  0  0  0  0  0  0  0  0  0
   57.4970   31.0740   44.2060 C   0  0  0  0  0  0  0  0  0  0  0  0
   58.5790   30.3700   44.7570 C   0  0  0  0  0  0  0  0  0  0  0  0
   58.3930   29.0860   45.2780 C   0  0  0  0  0  0  0  0  0  0  0  0
   57.1260   28.4900   45.2500 C   0  0  0  0  0  0  0  0  0  0  0  0
   56.8570   26.9100   45.9760 S   0  0  0  0  0  0  0  0  0  0  0  0
   55.1630   26.5590   45.9760 N   0  0  0  0  0  0  0  0  0  0  0  0
   57.5800   25.8430   45.1950 O   0  0  0  0  0  0  0  0  0  0  0  0
   57.3750   26.9180   47.3890 O   0  0  0  0  0  0  0  0  0  0  0  0
   56.0540   29.1710   44.6580 C   0  0  0  0  0  0  0  0  0  0  0  0
   56.2410   30.4530   44.1300 C   0  0  0  0  0  0  0  0  0  0  0  0
   60.2850   33.7360   47.6580 C   0  0  0  0  0  0  0  0  0  0  0  0
   65.0828   32.4067   51.4699 H   0  0  0  0  0  0  0  0  0  0  0  0
   64.5612   31.0395   50.4280 H   0  0  0  0  0  0  0  0  0  0  0  0
   66.2792   31.5642   50.4280 H   0  0  0  0  0  0  0  0  0  0  0  0
   65.0056   33.9071   49.7661 H   0  0  0  0  0  0  0  0  0  0  0  0
   65.6744   32.6888   48.5755 H   0  0  0  0  0  0  0  0  0  0  0  0
   64.4270   32.0169   46.9624 H   0  0  0  0  0  0  0  0  0  0  0  0
   62.6001   31.9674   47.1000 H   0  0  0  0  0  0  0  0  0  0  0  0
   63.3239   34.6928   47.2232 H   0  0  0  0  0  0  0  0  0  0  0  0
   64.2899   33.9838   45.8850 H   0  0  0  0  0  0  0  0  0  0  0  0
   62.5009   33.8218   45.8850 H   0  0  0  0  0  0  0  0  0  0  0  0
   60.1165   31.9186   50.5532 H   0  0  0  0  0  0  0  0  0  0  0  0
   57.8309   31.4695   49.6621 H   0  0  0  0  0  0  0  0  0  0  0  0
   57.1013   32.4935   47.5103 H   0  0  0  0  0  0  0  0  0  0  0  0
   56.8110   33.0859   44.0028 H   0  0  0  0  0  0  0  0  0  0  0  0
   57.7998   32.4648   42.6230 H   0  0  0  0  0  0  0  0  0  0  0  0
   59.5777   30.8305   44.7790 H   0  0  0  0  0  0  0  0  0  0  0  0
   59.2450   28.5419   45.7115 H   0  0  0  0  0  0  0  0  0  0  0  0
   54.7500   27.0780   46.7860 H   0  0  0  0  0  0  0  0  0  0  0  0
   55.0629   28.6964   44.6083 H   0  0  0  0  0  0  0  0  0  0  0  0
   55.3994   30.9767   43.6530 H   0  0  0  0  0  0  0  0  0  0  0  0
   60.9728   34.3859   47.0971 H   0  0  0  0  0  0  0  0  0  0  0  0
  1  2  1  0
  2  3  1  0
  3  4  1  0
  4  5  1  0
  3  6  1  0
  6  7  2  0
  6  8  2  0
  6  9  1  0
  9 10  2  0
 10 11  1  0
 11 12  2  0
 12 13  1  0
 13 14  1  0
 14 15  2  0
 14 16  2  0
 14 17  1  0
 17 18  1  0
 18 19  1  0
 19 20  2  0
 20 21  1  0
 21 22  2  0
 22 23  1  0
 23 24  1  0
 23 25  2  0
 23 26  2  0
 22 27  1  0
 27 28  2  0
 13 29  2  0
 29  9  1  0
 28 19  1  0
  1 30  1  0
  1 31  1  0
  1 32  1  0
  2 33  1  0
  2 34  1  0
  4 35  1  0
  4 36  1  0
  5 37  1  0
  5 38  1  0
  5 39  1  0
 10 40  1  0
 11 41  1  0
 12 42  1  0
 18 43  1  0
 18 44  1  0
 20 45  1  0
 21 46  1  0
 24 47  1  0
 27 48  1  0
 28 49  1  0
 29 50  1  0
M  CHG  2  17  -1  24  -1
M  END
>  <UniqueID>  (83) 
79

>  <SMILES>  (83) 
CCN(CC)S(=O)(=O)c1cccc(S(=O)(=O)[N-]Cc2ccc(S([NH-])(=O)=O)cc2)c1

>  <Energy>  (83) 
49.612795596492404

>  <Genealogy>  (83) 
CCN(CC)S(=O)(=O)c1cccc(S(=O)(=O)[N-]Cc2ccc(S([NH-])(=O)=O)cc2)c1 (protonated)
CCN(CC)S(=O)(=O)c1cccc(S(=O)(=O)[N-]Cc2ccc(S([NH-])(=O)=O)cc2)c1 (3D coordinates assigned)
CCN(CC)S(=O)(=O)c1cccc(S(=O)(=O)[N-]Cc2ccc(S([NH-])(=O)=O)cc2)c1 (optimized conformer: 49.612795596492404 kcal/mol)

>  <smiles>  (83) 
CCN(CC)S(=O)(=O)c1cccc(S(=O)(=O)NCc2ccc(S(N)(=O)=O)cc2)c1

>  <score_type>  (83) 
oracle

>  <origin>  (83) 
adg

>  <m_score__min__energy>  (83) 
-12.859999999999999

>  <m_primary>  (83) 
energy

$$$$
83:0
     RDKit          3D

 44 46  0  0  1  0  0  0  0  0999 V2000
   55.1550   30.8520   52.2950 C   0  0  0  0  0  0  0  0  0  0  0  0
   56.3080   31.4160   51.5940 N   0  0  0  0  0  0  0  0  0  0  0  0
   57.4490   30.6220   51.3440 C   0  0  0  0  0  0  0  0  0  0  0  0
   57.3960   29.4170   51.7640 O   0  0  0  0  0  0  0  0  0  0  0  0
   58.6290   31.1290   50.6500 C   0  0  0  0  0  0  0  0  0  0  0  0
   59.8550   30.4990   50.6870 C   0  0  0  0  0  0  0  0  0  0  0  0
   60.9640   31.0100   50.0120 C   0  0  0  0  0  0  0  0  0  0  0  0
   60.8090   32.1840   49.2900 C   0  0  0  0  0  0  0  0  0  0  0  0
   61.9790   32.7570   48.5550 C   0  0  0  0  0  0  0  0  0  0  0  0
   59.5910   32.8350   49.2360 C   0  0  0  0  0  0  0  0  0  0  0  0
   59.3910   34.0410   48.5050 N   0  0  0  0  0  0  0  0  0  0  0  0
   59.2220   34.0960   47.2450 C   0  0  0  0  0  0  0  0  0  0  0  0
   58.8200   32.9560   46.5870 C   0  0  0  0  0  0  0  0  0  0  0  0
   58.6290   33.0010   45.1900 C   0  0  0  0  0  0  0  0  0  0  0  0
   58.2200   31.8430   44.5170 N   0  0  0  0  0  0  0  0  0  0  0  0
   58.3700   30.5130   44.9370 C   0  0  0  0  0  0  0  0  0  0  0  0
   59.4490   30.0040   45.6190 C   0  0  0  0  0  0  0  0  0  0  0  0
   59.5420   28.6730   46.0100 C   0  0  0  0  0  0  0  0  0  0  0  0
   58.5240   27.7990   45.7160 C   0  0  0  0  0  0  0  0  0  0  0  0
   58.6890   25.9820   46.2680 Br  0  0  0  0  0  0  0  0  0  0  0  0
   57.4280   28.2730   45.0330 C   0  0  0  0  0  0  0  0  0  0  0  0
   57.3520   29.5890   44.6560 C   0  0  0  0  0  0  0  0  0  0  0  0
   55.9040   30.0880   43.7860 Cl  0  0  0  0  0  0  0  0  0  0  0  0
   58.8700   34.1970   44.6400 N   0  0  0  0  0  0  0  0  0  0  0  0
   59.2580   35.2900   45.2920 C   0  0  0  0  0  0  0  0  0  0  0  0
   59.4440   35.2600   46.6230 N   0  0  0  0  0  0  0  0  0  0  0  0
   58.5110   32.2940   49.9210 C   0  0  0  0  0  0  0  0  0  0  0  0
   55.3125   30.9290   53.3809 H   0  0  0  0  0  0  0  0  0  0  0  0
   54.2480   31.4082   52.0156 H   0  0  0  0  0  0  0  0  0  0  0  0
   55.0373   29.7946   52.0156 H   0  0  0  0  0  0  0  0  0  0  0  0
   56.2680   32.4000   51.2890 H   0  0  0  0  0  0  0  0  0  0  0  0
   59.9615   29.5686   51.2641 H   0  0  0  0  0  0  0  0  0  0  0  0
   61.9354   30.4954   50.0514 H   0  0  0  0  0  0  0  0  0  0  0  0
   62.7235   33.1216   49.2781 H   0  0  0  0  0  0  0  0  0  0  0  0
   62.4320   31.9788   47.9232 H   0  0  0  0  0  0  0  0  0  0  0  0
   61.6419   33.5920   47.9232 H   0  0  0  0  0  0  0  0  0  0  0  0
   58.6499   32.0222   47.1430 H   0  0  0  0  0  0  0  0  0  0  0  0
   57.7430   31.9870   43.5850 H   0  0  0  0  0  0  0  0  0  0  0  0
   60.2788   30.6820   45.8674 H   0  0  0  0  0  0  0  0  0  0  0  0
   60.4303   28.3201   46.5545 H   0  0  0  0  0  0  0  0  0  0  0  0
   56.6031   27.5883   44.7865 H   0  0  0  0  0  0  0  0  0  0  0  0
   59.4278   36.2249   44.7379 H   0  0  0  0  0  0  0  0  0  0  0  0
   59.7470   36.1320   47.0930 H   0  0  0  0  0  0  0  0  0  0  0  0
   57.5385   32.8066   49.8813 H   0  0  0  0  0  0  0  0  0  0  0  0
  1  2  1  0
  2  3  1  0
  3  4  2  0
  3  5  1  0
  5  6  2  0
  6  7  1  0
  7  8  2  0
  8  9  1  0
  8 10  1  0
 10 11  1  0
 11 12  2  0
 12 13  1  0
 13 14  2  0
 14 15  1  0
 15 16  1  0
 16 17  2  0
 17 18  1  0
 18 19  2  0
 19 20  1  0
 19 21  1  0
 21 22  2  0
 22 23  1  0
 14 24  1  0
 24 25  2  0
 25 26  1  0
 10 27  2  0
 27  5  1  0
 26 12  1  0
 22 16  1  0
  1 28  1  0
  1 29  1  0
  1 30  1  0
  2 31  1  0
  6 32  1  0
  7 33  1  0
  9 34  1  0
  9 35  1  0
  9 36  1  0
 13 37  1  0
 15 38  1  0
 17 39  1  0
 18 40  1  0
 21 41  1  0
 25 42  1  0
 26 43  1  0
 27 44  1  0
M  END
>  <smiles>  (84) 
CNC(=O)c1ccc(C)c(N=c2cc(Nc3ccc(Br)cc3Cl)nc[nH]2)c1

>  <score_type>  (84) 
oracle

>  <origin>  (84) 
adg

>  <m_score__min__energy>  (84) 
-8.9100000000000001

>  <m_primary>  (84) 
energy

$$$$
84:0
     RDKit          3D

 83 87  0  0  0  0  0  0  0  0999 V2000
   55.2398   30.9973   44.3807 H   0  0  0  0  0  0  0  0  0  0  0  0
   55.9560   30.1780   44.5410 C   0  0  0  0  0  0  0  0  0  0  0  0
   55.5190   28.9760   45.0000 N   0  0  0  0  0  0  0  0  0  0  0  0
   56.3630   27.9330   45.2270 C   0  0  0  0  0  0  0  0  0  0  0  0
   55.8530   26.8150   45.6640 N   0  0  0  0  0  0  0  0  0  0  0  0
   56.2140   25.4520   45.2740 C   0  0  0  0  0  0  0  0  0  0  0  0
   56.7462   25.4815   44.3118 H   0  0  0  0  0  0  0  0  0  0  0  0
   55.2938   24.8559   45.1853 H   0  0  0  0  0  0  0  0  0  0  0  0
   57.1240   24.8000   46.3350 C   0  0  0  0  0  0  0  0  0  0  0  0
   57.2876   23.7474   46.0606 H   0  0  0  0  0  0  0  0  0  0  0  0
   56.6201   24.8907   47.3086 H   0  0  0  0  0  0  0  0  0  0  0  0
   58.4900   25.4980   46.4490 C   0  0  0  0  0  0  0  0  0  0  0  0
   58.5633   26.2685   45.6674 H   0  0  0  0  0  0  0  0  0  0  0  0
   59.2756   24.7378   46.3269 H   0  0  0  0  0  0  0  0  0  0  0  0
   58.6740   26.1620   47.8220 C   0  0  0  0  0  0  0  0  0  0  0  0
   59.7345   26.1083   48.1093 H   0  0  0  0  0  0  0  0  0  0  0  0
   58.0508   25.6311   48.5567 H   0  0  0  0  0  0  0  0  0  0  0  0
   58.2690   27.5290   47.7820 O   0  0  0  0  0  0  0  0  0  0  0  0
   59.1030   28.6410   47.9810 C   0  0  0  0  0  0  0  0  0  0  0  0
   59.0330   29.4640   49.1240 C   0  0  0  0  0  0  0  0  0  0  0  0
   58.2876   29.2545   49.9053 H   0  0  0  0  0  0  0  0  0  0  0  0
   59.9090   30.5470   49.2680 C   0  0  0  0  0  0  0  0  0  0  0  0
   59.8427   31.1884   50.1592 H   0  0  0  0  0  0  0  0  0  0  0  0
   60.8720   30.8200   48.2820 C   0  0  0  0  0  0  0  0  0  0  0  0
   61.7940   31.9170   48.4400 N   0  0  0  0  0  0  0  0  0  0  0  0
   61.5100   32.9950   49.4020 C   0  0  0  0  0  0  0  0  0  0  0  0
   60.6605   32.7016   50.0362 H   0  0  0  0  0  0  0  0  0  0  0  0
   61.2661   33.9143   48.8493 H   0  0  0  0  0  0  0  0  0  0  0  0
   62.7370   33.2530   50.2860 C   0  0  0  0  0  0  0  0  0  0  0  0
   62.7261   32.5453   51.1280 H   0  0  0  0  0  0  0  0  0  0  0  0
   62.6905   34.2912   50.6464 H   0  0  0  0  0  0  0  0  0  0  0  0
   63.9920   33.0810   49.5320 N   0  0  0  0  0  0  0  0  0  0  0  0
   65.1790   32.6490   50.2290 C   0  0  0  0  0  0  0  0  0  0  0  0
   66.3250   33.4620   50.2250 C   0  0  0  0  0  0  0  0  0  0  0  0
   66.2875   34.4558   49.7550 H   0  0  0  0  0  0  0  0  0  0  0  0
   67.5110   33.0180   50.8130 C   0  0  0  0  0  0  0  0  0  0  0  0
   68.4024   33.6625   50.8060 H   0  0  0  0  0  0  0  0  0  0  0  0
   67.5670   31.7590   51.4090 C   0  0  0  0  0  0  0  0  0  0  0  0
   68.5048   31.4074   51.8638 H   0  0  0  0  0  0  0  0  0  0  0  0
   66.4320   30.9430   51.4290 C   0  0  0  0  0  0  0  0  0  0  0  0
   66.4812   29.9505   51.9007 H   0  0  0  0  0  0  0  0  0  0  0  0
   65.2250   31.3830   50.8490 C   0  0  0  0  0  0  0  0  0  0  0  0
   64.0560   30.6020   50.8830 O   0  0  0  0  0  0  0  0  0  0  0  0
   63.9020   29.4140   51.6530 C   0  0  0  0  0  0  0  0  0  0  0  0
   63.9344   29.6642   52.7237 H   0  0  0  0  0  0  0  0  0  0  0  0
   62.9356   28.9455   51.4151 H   0  0  0  0  0  0  0  0  0  0  0  0
   64.7170   28.7146   51.4151 H   0  0  0  0  0  0  0  0  0  0  0  0
   63.9490   33.0950   48.0650 C   0  0  0  0  0  0  0  0  0  0  0  0
   64.9545   32.8948   47.6663 H   0  0  0  0  0  0  0  0  0  0  0  0
   63.6073   34.0808   47.7166 H   0  0  0  0  0  0  0  0  0  0  0  0
   62.9770   32.0110   47.5730 C   0  0  0  0  0  0  0  0  0  0  0  0
   63.4954   31.0408   47.5688 H   0  0  0  0  0  0  0  0  0  0  0  0
   62.6430   32.2799   46.5600 H   0  0  0  0  0  0  0  0  0  0  0  0
   60.9390   29.9910   47.1500 C   0  0  0  0  0  0  0  0  0  0  0  0
   61.6942   30.1878   46.3748 H   0  0  0  0  0  0  0  0  0  0  0  0
   60.0560   28.9190   46.9990 C   0  0  0  0  0  0  0  0  0  0  0  0
   60.1119   28.2888   46.0992 H   0  0  0  0  0  0  0  0  0  0  0  0
   57.7460   28.1030   44.9960 C   0  0  0  0  0  0  0  0  0  0  0  0
   58.4477   27.2789   45.1924 H   0  0  0  0  0  0  0  0  0  0  0  0
   58.2140   29.3300   44.5150 C   0  0  0  0  0  0  0  0  0  0  0  0
   59.2883   29.4741   44.3275 H   0  0  0  0  0  0  0  0  0  0  0  0
   57.3130   30.3760   44.2720 C   0  0  0  0  0  0  0  0  0  0  0  0
   57.7820   31.6770   43.7760 C   0  0  0  0  0  0  0  0  0  0  0  0
   57.7070   31.8970   42.5390 O   0  0  0  0  0  0  0  0  0  0  0  0
   58.3370   32.6790   44.6610 N   0  0  0  0  0  0  0  0  0  0  0  0
   58.5160   32.4100   46.0940 C   0  0  0  0  0  0  0  0  0  0  0  0
   57.7670   31.6737   46.4208 H   0  0  0  0  0  0  0  0  0  0  0  0
   59.5300   32.0168   46.2592 H   0  0  0  0  0  0  0  0  0  0  0  0
   58.3440   33.7030   46.9080 C   0  0  0  0  0  0  0  0  0  0  0  0
   57.2855   34.0005   46.8754 H   0  0  0  0  0  0  0  0  0  0  0  0
   58.6781   33.4944   47.9351 H   0  0  0  0  0  0  0  0  0  0  0  0
   59.1650   34.8200   46.3910 N   0  0  0  0  0  0  0  0  0  0  0  0
   58.8630   35.6860   46.9040 H   0  0  0  0  0  0  0  0  0  0  0  0
   60.6030   34.6400   46.6860 C   0  0  0  0  0  0  0  0  0  0  0  0
   60.7542   34.6211   47.7754 H   0  0  0  0  0  0  0  0  0  0  0  0
   60.9506   33.6913   46.2510 H   0  0  0  0  0  0  0  0  0  0  0  0
   61.1737   35.4737   46.2510 H   0  0  0  0  0  0  0  0  0  0  0  0
   58.9100   35.0650   44.9520 C   0  0  0  0  0  0  0  0  0  0  0  0
   57.8773   35.4251   44.8347 H   0  0  0  0  0  0  0  0  0  0  0  0
   59.6439   35.8088   44.6083 H   0  0  0  0  0  0  0  0  0  0  0  0
   59.0910   33.8060   44.0910 C   0  0  0  0  0  0  0  0  0  0  0  0
   58.7258   34.0080   43.0732 H   0  0  0  0  0  0  0  0  0  0  0  0
   60.1588   33.5430   44.0657 H   0  0  0  0  0  0  0  0  0  0  0  0
  1  2  1  0
  2  3  1  0
  3  4  1  0
  4  5  2  0
  5  6  1  0
  6  7  1  0
  6  8  1  0
  6  9  1  0
  9 10  1  0
  9 11  1  0
  9 12  1  0
 12 13  1  0
 12 14  1  0
 12 15  1  0
 15 16  1  0
 15 17  1  0
 15 18  1  0
 18 19  1  0
 19 20  2  0
 20 21  1  0
 20 22  1  0
 22 23  1  0
 22 24  2  0
 24 25  1  0
 25 26  1  0
 26 27  1  0
 26 28  1  0
 26 29  1  0
 29 30  1  0
 29 31  1  0
 29 32  1  0
 32 33  1  0
 33 34  2  0
 34 35  1  0
 34 36  1  0
 36 37  1  0
 36 38  2  0
 38 39  1  0
 38 40  1  0
 40 41  1  0
 40 42  2  0
 42 43  1  0
 43 44  1  0
 44 45  1  0
 44 46  1  0
 44 47  1  0
 32 48  1  0
 48 49  1  0
 48 50  1  0
 48 51  1  0
 51 52  1  0
 51 53  1  0
 24 54  1  0
 54 55  1  0
 54 56  2  0
 56 57  1  0
  4 58  1  0
 58 59  1  0
 58 60  2  0
 60 61  1  0
 60 62  1  0
 62 63  1  0
 63 64  2  0
 63 65  1  0
 65 66  1  0
 66 67  1  0
 66 68  1  0
 66 69  1  0
 69 70  1  0
 69 71  1  0
 69 72  1  0
 72 73  1  0
 72 74  1  0
 74 75  1  0
 74 76  1  0
 74 77  1  0
 72 78  1  0
 78 79  1  0
 78 80  1  0
 78 81  1  0
 81 82  1  0
 81 83  1  0
 62  2  2  0
 81 65  1  0
 56 19  1  0
 51 25  1  0
 42 33  1  0
M  CHG  2   3  -1  72   1
M  END
>  <UniqueID>  (85) 
80

>  <SMILES>  (85) 
COc1ccccc1N1CCN(c2ccc(OCCCC/N=c3\ccc(C(=O)N4CC[NH+](C)CC4)c[n-]3)cc2)CC1

>  <Energy>  (85) 
109.91045065014339

>  <Genealogy>  (85) 
COc1ccccc1N1CCN(c2ccc(OCCCCN=c3ccc(C(=O)N4CC[NH+](C)CC4)c[n-]3)cc2)CC1 (protonated)
COc1ccccc1N1CCN(c2ccc(OCCCC/N=c3\ccc(C(=O)N4CC[NH+](C)CC4)c[n-]3)cc2)CC1 (cis-trans isomerization)
COc1ccccc1N1CCN(c2ccc(OCCCC/N=c3\ccc(C(=O)N4CC[NH+](C)CC4)c[n-]3)cc2)CC1 (3D coordinates assigned)
COc1ccccc1N1CCN(c2ccc(OCCCC/N=c3\ccc(C(=O)N4CC[NH+](C)CC4)c[n-]3)cc2)CC1 (nonaromatic ring conformer: 109.91045065014339 kcal/mol)

>  <smiles>  (85) 
COc1ccccc1N1CCN(c2ccc(OCCCCN=c3ccc(C(=O)N4CCN(C)CC4)c[nH]3)cc2)CC1

>  <score_type>  (85) 
oracle

>  <origin>  (85) 
adg

>  <m_score__min__energy>  (85) 
-9.8300000000000001

>  <m_primary>  (85) 
energy

$$$$
85:0
     RDKit          3D

 47 49  0  0  1  0  0  0  0  0999 V2000
   63.3720   33.8880   46.8450 C   0  0  0  0  0  0  0  0  0  0  0  0
   62.4670   33.7310   47.9460 O   0  0  0  0  0  0  0  0  0  0  0  0
   61.6980   32.5910   48.0550 C   0  0  0  0  0  0  0  0  0  0  0  0
   61.9900   31.4490   47.2910 C   0  0  0  0  0  0  0  0  0  0  0  0
   61.1830   30.3190   47.4430 C   0  0  0  0  0  0  0  0  0  0  0  0
   60.1520   30.4020   48.3390 C   0  0  0  0  0  0  0  0  0  0  0  0
   59.1590   28.9660   48.5560 Cl  0  0  0  0  0  0  0  0  0  0  0  0
   59.8310   31.4910   49.1000 C   0  0  0  0  0  0  0  0  0  0  0  0
   60.6490   32.6250   48.9390 C   0  0  0  0  0  0  0  0  0  0  0  0
   60.2810   33.7710   49.7590 C   0  0  0  0  0  0  0  0  0  0  0  0
   60.5270   33.8940   50.9670 O   0  0  0  0  0  0  0  0  0  0  0  0
   59.5740   34.8460   49.0800 N   0  0  0  0  0  0  0  0  0  0  0  0
   59.2800   34.6770   47.8410 C   0  0  0  0  0  0  0  0  0  0  0  0
   58.5410   33.6040   47.3610 C   0  0  0  0  0  0  0  0  0  0  0  0
   58.4050   33.7700   45.9590 C   0  0  0  0  0  0  0  0  0  0  0  0
   57.6640   32.7980   45.1830 C   0  0  0  0  0  0  0  0  0  0  0  0
   56.4360   32.6820   45.1790 O   0  0  0  0  0  0  0  0  0  0  0  0
   58.3940   31.8710   44.3290 N   0  0  0  0  0  0  0  0  0  0  0  0
   57.5190   30.9720   43.6020 C   0  0  0  0  0  0  0  0  0  0  0  0
   57.3490   29.6400   44.2070 C   0  0  0  0  0  0  0  0  0  0  0  0
   58.5620   28.8960   44.3420 C   0  0  0  0  0  0  0  0  0  0  0  0
   58.3670   27.6770   44.9480 C   0  0  0  0  0  0  0  0  0  0  0  0
   57.2210   27.1510   45.3960 C   0  0  0  0  0  0  0  0  0  0  0  0
   57.1400   25.7930   46.0460 C   0  0  0  0  0  0  0  0  0  0  0  0
   56.0700   27.8810   45.2550 N   0  0  0  0  0  0  0  0  0  0  0  0
   56.1760   29.1110   44.6620 C   0  0  0  0  0  0  0  0  0  0  0  0
   55.1200   29.8210   44.5150 O   0  0  0  0  0  0  0  0  0  0  0  0
   59.0400   34.8780   45.6960 N   0  0  0  0  0  0  0  0  0  0  0  0
   59.5740   35.4470   46.7660 N   0  0  0  0  0  0  0  0  0  0  0  0
   64.3881   34.0643   47.2278 H   0  0  0  0  0  0  0  0  0  0  0  0
   63.3646   32.9752   46.2313 H   0  0  0  0  0  0  0  0  0  0  0  0
   63.0576   34.7450   46.2313 H   0  0  0  0  0  0  0  0  0  0  0  0
   62.8361   31.4446   46.5880 H   0  0  0  0  0  0  0  0  0  0  0  0
   61.3685   29.4007   46.8665 H   0  0  0  0  0  0  0  0  0  0  0  0
   58.9815   31.4817   49.7987 H   0  0  0  0  0  0  0  0  0  0  0  0
   58.1347   32.7754   47.9596 H   0  0  0  0  0  0  0  0  0  0  0  0
   59.4280   31.8790   44.2580 H   0  0  0  0  0  0  0  0  0  0  0  0
   56.5277   31.4436   43.5324 H   0  0  0  0  0  0  0  0  0  0  0  0
   57.9948   30.8057   42.6243 H   0  0  0  0  0  0  0  0  0  0  0  0
   59.5425   29.2582   43.9993 H   0  0  0  0  0  0  0  0  0  0  0  0
   59.2656   27.0567   45.0811 H   0  0  0  0  0  0  0  0  0  0  0  0
   57.1469   25.9091   47.1398 H   0  0  0  0  0  0  0  0  0  0  0  0
   56.2104   25.2931   45.7362 H   0  0  0  0  0  0  0  0  0  0  0  0
   58.0035   25.1861   45.7362 H   0  0  0  0  0  0  0  0  0  0  0  0
   55.1460   27.5400   45.5710 H   0  0  0  0  0  0  0  0  0  0  0  0
   59.1470   35.3020   44.7450 H   0  0  0  0  0  0  0  0  0  0  0  0
   60.1360   36.3460   46.7970 H   0  0  0  0  0  0  0  0  0  0  0  0
  1  2  1  0
  2  3  1  0
  3  4  2  0
  4  5  1  0
  5  6  2  0
  6  7  1  0
  6  8  1  0
  8  9  2  0
  9 10  1  0
 10 11  2  0
 10 12  1  0
 12 13  2  0
 13 14  1  0
 14 15  2  0
 15 16  1  0
 16 17  2  0
 16 18  1  0
 18 19  1  0
 19 20  1  0
 20 21  2  0
 21 22  1  0
 22 23  2  0
 23 24  1  0
 23 25  1  0
 25 26  1  0
 26 27  2  0
 15 28  1  0
 28 29  1  0
  9  3  1  0
 29 13  1  0
 26 20  1  0
  1 30  1  0
  1 31  1  0
  1 32  1  0
  4 33  1  0
  5 34  1  0
  8 35  1  0
 14 36  1  0
 18 37  1  0
 19 38  1  0
 19 39  1  0
 21 40  1  0
 22 41  1  0
 24 42  1  0
 24 43  1  0
 24 44  1  0
 25 45  1  0
 28 46  1  0
 29 47  1  0
M  END
>  <smiles>  (86) 
COc1ccc(Cl)cc1C(=O)N=c1cc(C(=O)NCc2ccc(C)[nH]c2=O)[nH][nH]1

>  <score_type>  (86) 
oracle

>  <origin>  (86) 
adg

>  <m_score__min__energy>  (86) 
-8.9399999999999995

>  <m_primary>  (86) 
energy

$$$$
86:0
     RDKit          3D

 71 73  0  0  0  0  0  0  0  0999 V2000
   57.0270   31.2510   51.8900 C   0  0  0  0  0  0  0  0  0  0  0  0
   58.2110   31.3130   50.9630 C   0  0  0  0  0  0  0  0  0  0  0  0
   58.4860   30.2190   50.1290 C   0  0  0  0  0  0  0  0  0  0  0  0
   59.6160   30.2150   49.3090 C   0  0  0  0  0  0  0  0  0  0  0  0
   60.4850   31.3090   49.2870 C   0  0  0  0  0  0  0  0  0  0  0  0
   61.6250   31.2310   48.4710 O   0  0  0  0  0  0  0  0  0  0  0  0
   61.7130   31.7250   47.1360 C   0  0  0  0  0  0  0  0  0  0  0  0
   62.0830   33.2130   47.1530 C   0  0  0  0  0  0  0  0  0  0  0  0
   60.8530   34.1290   47.2840 C   0  0  0  0  0  0  0  0  0  0  0  0
   59.7470   33.6660   46.4210 N   0  0  0  0  0  0  0  0  0  0  0  0
   58.6200   33.1410   47.2190 C   0  0  0  0  0  0  0  0  0  0  0  0
   57.3660   32.9030   46.3460 C   0  0  0  0  0  0  0  0  0  0  0  0
   57.6830   32.8390   44.9030 N   0  0  0  0  0  0  0  0  0  0  0  0
   58.4900   31.6510   44.5170 C   0  0  0  0  0  0  0  0  0  0  0  0
   57.8400   30.3030   44.9220 C   0  0  2  0  0  0  0  0  0  0  0  0
   56.4380   30.3870   44.9130 O   0  0  0  0  0  0  0  0  0  0  0  0
   58.3290   29.8090   46.2900 C   0  0  0  0  0  0  0  0  0  0  0  0
   57.5290   28.7070   46.7130 O   0  0  0  0  0  0  0  0  0  0  0  0
   57.7520   27.3760   46.3300 C   0  0  0  0  0  0  0  0  0  0  0  0
   59.0350   26.8770   46.0440 C   0  0  0  0  0  0  0  0  0  0  0  0
   59.1980   25.5470   45.6410 C   0  0  0  0  0  0  0  0  0  0  0  0
   58.0970   24.6900   45.5430 C   0  0  0  0  0  0  0  0  0  0  0  0
   58.3210   23.3580   45.1510 O   0  0  0  0  0  0  0  0  0  0  0  0
   57.3030   22.4080   44.8340 C   0  0  0  0  0  0  0  0  0  0  0  0
   56.7380   22.6650   43.4690 C   0  0  0  0  0  0  0  0  0  0  0  0
   56.9580   23.9180   42.8210 N   0  0  0  0  0  0  0  0  0  0  0  0
   56.0890   21.7620   42.8780 O   0  0  0  0  0  0  0  0  0  0  0  0
   56.8140   25.1870   45.8400 C   0  0  0  0  0  0  0  0  0  0  0  0
   56.6490   26.5220   46.2240 C   0  0  0  0  0  0  0  0  0  0  0  0
   58.3050   34.1120   44.4560 C   0  0  0  0  0  0  0  0  0  0  0  0
   59.2860   34.7110   45.4910 C   0  0  0  0  0  0  0  0  0  0  0  0
   60.2010   32.4270   50.0940 C   0  0  0  0  0  0  0  0  0  0  0  0
   59.0810   32.4320   50.9460 C   0  0  0  0  0  0  0  0  0  0  0  0
   58.8350   33.6210   51.8380 C   0  0  0  0  0  0  0  0  0  0  0  0
   57.3765   31.2693   52.9329 H   0  0  0  0  0  0  0  0  0  0  0  0
   56.3726   32.1161   51.7073 H   0  0  0  0  0  0  0  0  0  0  0  0
   56.4665   30.3223   51.7073 H   0  0  0  0  0  0  0  0  0  0  0  0
   57.8045   29.3556   50.1210 H   0  0  0  0  0  0  0  0  0  0  0  0
   59.8244   29.3415   48.6737 H   0  0  0  0  0  0  0  0  0  0  0  0
   62.4851   31.1635   46.5896 H   0  0  0  0  0  0  0  0  0  0  0  0
   60.7398   31.5996   46.6388 H   0  0  0  0  0  0  0  0  0  0  0  0
   62.7531   33.3994   48.0052 H   0  0  0  0  0  0  0  0  0  0  0  0
   62.5700   33.4454   46.1945 H   0  0  0  0  0  0  0  0  0  0  0  0
   60.5154   34.1286   48.3309 H   0  0  0  0  0  0  0  0  0  0  0  0
   61.1392   35.1433   46.9688 H   0  0  0  0  0  0  0  0  0  0  0  0
   58.9213   32.1879   47.6782 H   0  0  0  0  0  0  0  0  0  0  0  0
   58.3672   33.8854   47.9884 H   0  0  0  0  0  0  0  0  0  0  0  0
   56.9018   31.9524   46.6475 H   0  0  0  0  0  0  0  0  0  0  0  0
   56.6854   33.7532   46.5008 H   0  0  0  0  0  0  0  0  0  0  0  0
   58.6218   31.6597   43.4250 H   0  0  0  0  0  0  0  0  0  0  0  0
   59.4475   31.7224   45.0537 H   0  0  0  0  0  0  0  0  0  0  0  0
   58.1550   29.5678   44.1668 H   0  0  0  0  0  0  0  0  0  0  0  0
   56.1310   30.0880   45.8060 H   0  0  0  0  0  0  0  0  0  0  0  0
   59.3789   29.4904   46.2106 H   0  0  0  0  0  0  0  0  0  0  0  0
   58.2468   30.6240   47.0242 H   0  0  0  0  0  0  0  0  0  0  0  0
   59.9126   27.5336   46.1373 H   0  0  0  0  0  0  0  0  0  0  0  0
   60.2030   25.1713   45.3986 H   0  0  0  0  0  0  0  0  0  0  0  0
   57.7336   21.3961   44.8609 H   0  0  0  0  0  0  0  0  0  0  0  0
   56.4933   22.5006   45.5728 H   0  0  0  0  0  0  0  0  0  0  0  0
   56.5730   24.0920   41.8660 H   0  0  0  0  0  0  0  0  0  0  0  0
   57.5390   24.6560   43.2730 H   0  0  0  0  0  0  0  0  0  0  0  0
   55.9390   24.5241   45.7700 H   0  0  0  0  0  0  0  0  0  0  0  0
   55.6415   26.9043   46.4449 H   0  0  0  0  0  0  0  0  0  0  0  0
   58.8552   33.9227   43.5225 H   0  0  0  0  0  0  0  0  0  0  0  0
   57.4924   34.8405   44.3182 H   0  0  0  0  0  0  0  0  0  0  0  0
   60.1530   35.1373   44.9651 H   0  0  0  0  0  0  0  0  0  0  0  0
   58.7690   35.4962   46.0621 H   0  0  0  0  0  0  0  0  0  0  0  0
   60.8615   33.3059   50.0582 H   0  0  0  0  0  0  0  0  0  0  0  0
   58.8995   33.3091   52.8909 H   0  0  0  0  0  0  0  0  0  0  0  0
   59.5924   34.3930   51.6372 H   0  0  0  0  0  0  0  0  0  0  0  0
   57.8334   34.0290   51.6372 H   0  0  0  0  0  0  0  0  0  0  0  0
  1  2  1  0
  2  3  2  0
  3  4  1  0
  4  5  2  0
  5  6  1  0
  6  7  1  0
  7  8  1  0
  8  9  1  0
  9 10  1  0
 10 11  1  0
 11 12  1  0
 12 13  1  0
 13 14  1  0
 14 15  1  0
 15 16  1  0
 15 17  1  0
 17 18  1  0
 18 19  1  0
 19 20  2  0
 20 21  1  0
 21 22  2  0
 22 23  1  0
 23 24  1  0
 24 25  1  0
 25 26  1  0
 25 27  2  0
 22 28  1  0
 28 29  2  0
 13 30  1  0
 30 31  1  0
  5 32  1  0
 32 33  2  0
 33 34  1  0
 33  2  1  0
 31 10  1  0
 29 19  1  0
  1 35  1  0
  1 36  1  0
  1 37  1  0
  3 38  1  0
  4 39  1  0
  7 40  1  0
  7 41  1  0
  8 42  1  0
  8 43  1  0
  9 44  1  0
  9 45  1  0
 11 46  1  0
 11 47  1  0
 12 48  1  0
 12 49  1  0
 14 50  1  0
 14 51  1  0
 15 52  1  6
 16 53  1  0
 17 54  1  0
 17 55  1  0
 20 56  1  0
 21 57  1  0
 24 58  1  0
 24 59  1  0
 26 60  1  0
 26 61  1  0
 28 62  1  0
 29 63  1  0
 30 64  1  0
 30 65  1  0
 31 66  1  0
 31 67  1  0
 32 68  1  0
 34 69  1  0
 34 70  1  0
 34 71  1  0
M  END
>  <UniqueID>  (87) 
81

>  <SMILES>  (87) 
Cc1ccc(OCCCN2CCN(C[C@H](O)COc3ccc(OCC(N)=O)cc3)CC2)cc1C

>  <Energy>  (87) 
72.24609182068968

>  <Genealogy>  (87) 
Cc1ccc(OCCCN2CCN(C[C@H](O)COc3ccc(OCC(N)=O)cc3)CC2)cc1C (chirality)
Cc1ccc(OCCCN2CCN(C[C@H](O)COc3ccc(OCC(N)=O)cc3)CC2)cc1C (3D coordinates assigned)
Cc1ccc(OCCCN2CCN(C[C@H](O)COc3ccc(OCC(N)=O)cc3)CC2)cc1C (nonaromatic ring conformer: 72.24609182068968 kcal/mol)

>  <smiles>  (87) 
Cc1ccc(OCCCN2CCN(CC(O)COc3ccc(OCC(N)=O)cc3)CC2)cc1C

>  <score_type>  (87) 
oracle

>  <origin>  (87) 
adg

>  <m_score__min__energy>  (87) 
-8.6999999999999993

>  <m_primary>  (87) 
energy

$$$$
87:0
     RDKit          3D

 38 40  0  0  0  0  0  0  0  0999 V2000
   55.1500   26.7080   45.9860 O   0  0  0  0  0  0  0  0  0  0  0  0
   56.4030   26.5710   46.0000 C   0  0  0  0  0  0  0  0  0  0  0  0
   56.9840   25.3840   46.5590 N   0  0  0  0  0  0  0  0  0  0  0  0
   56.4030   24.0720   46.5790 C   0  0  0  0  0  0  0  0  0  0  0  0
   55.8590   23.5220   47.7560 C   0  0  0  0  0  0  0  0  0  0  0  0
   55.2800   22.2500   47.7400 C   0  0  0  0  0  0  0  0  0  0  0  0
   55.2230   21.5220   46.5510 C   0  0  0  0  0  0  0  0  0  0  0  0
   55.7370   22.0670   45.3730 C   0  0  0  0  0  0  0  0  0  0  0  0
   56.3190   23.3410   45.3810 C   0  0  0  0  0  0  0  0  0  0  0  0
   57.0060   24.0560   43.7420 Br  0  0  0  0  0  0  0  0  0  0  0  0
   57.2860   27.6600   45.4940 C   0  0  0  0  0  0  0  0  0  0  0  0
   58.6730   27.4530   45.4300 C   0  0  0  0  0  0  0  0  0  0  0  0
   59.5130   28.4530   44.9570 C   0  0  0  0  0  0  0  0  0  0  0  0
   58.9720   29.6670   44.5440 C   0  0  0  0  0  0  0  0  0  0  0  0
   57.6240   29.8880   44.6050 N   0  0  0  0  0  0  0  0  0  0  0  0
   57.1000   31.1790   44.1250 C   0  0  0  0  0  0  0  0  0  0  0  0
   57.7490   32.3160   44.8690 C   0  0  0  0  0  0  0  0  0  0  0  0
   58.2500   33.4250   44.1650 C   0  0  0  0  0  0  0  0  0  0  0  0
   58.8240   34.4970   44.8560 C   0  0  0  0  0  0  0  0  0  0  0  0
   58.8970   34.4730   46.2510 C   0  0  0  0  0  0  0  0  0  0  0  0
   58.3950   33.3770   46.9580 C   0  0  0  0  0  0  0  0  0  0  0  0
   57.8200   32.3030   46.2720 C   0  0  0  0  0  0  0  0  0  0  0  0
   56.7750   28.9080   45.0620 C   0  0  0  0  0  0  0  0  0  0  0  0
   55.5320   29.1240   45.0950 O   0  0  0  0  0  0  0  0  0  0  0  0
   55.8900   24.0969   48.6933 H   0  0  0  0  0  0  0  0  0  0  0  0
   54.8686   21.8222   48.6661 H   0  0  0  0  0  0  0  0  0  0  0  0
   54.7729   20.5183   46.5419 H   0  0  0  0  0  0  0  0  0  0  0  0
   55.6848   21.4940   44.4355 H   0  0  0  0  0  0  0  0  0  0  0  0
   59.0975   26.4922   45.7567 H   0  0  0  0  0  0  0  0  0  0  0  0
   60.5993   28.2864   44.9091 H   0  0  0  0  0  0  0  0  0  0  0  0
   59.6362   30.4574   44.1643 H   0  0  0  0  0  0  0  0  0  0  0  0
   57.3129   31.2801   43.0505 H   0  0  0  0  0  0  0  0  0  0  0  0
   56.0143   31.2112   44.2989 H   0  0  0  0  0  0  0  0  0  0  0  0
   58.1903   33.4497   43.0669 H   0  0  0  0  0  0  0  0  0  0  0  0
   59.2186   35.3604   44.3002 H   0  0  0  0  0  0  0  0  0  0  0  0
   59.3495   35.3166   46.7928 H   0  0  0  0  0  0  0  0  0  0  0  0
   58.4524   33.3593   48.0564 H   0  0  0  0  0  0  0  0  0  0  0  0
   57.4217   31.4446   46.8329 H   0  0  0  0  0  0  0  0  0  0  0  0
  1  2  2  0
  2  3  1  0
  3  4  1  0
  4  5  2  0
  5  6  1  0
  6  7  2  0
  7  8  1  0
  8  9  2  0
  9 10  1  0
  2 11  1  0
 11 12  2  0
 12 13  1  0
 13 14  2  0
 14 15  1  0
 15 16  1  0
 16 17  1  0
 17 18  2  0
 18 19  1  0
 19 20  2  0
 20 21  1  0
 21 22  2  0
 15 23  1  0
 23 24  2  0
  9  4  1  0
 23 11  1  0
 22 17  1  0
  5 25  1  0
  6 26  1  0
  7 27  1  0
  8 28  1  0
 12 29  1  0
 13 30  1  0
 14 31  1  0
 16 32  1  0
 16 33  1  0
 18 34  1  0
 19 35  1  0
 20 36  1  0
 21 37  1  0
 22 38  1  0
M  CHG  1   3  -1
M  END
>  <UniqueID>  (88) 
82

>  <SMILES>  (88) 
O=C([N-]c1ccccc1Br)c1cccn(Cc2ccccc2)c1=O

>  <Energy>  (88) 
49.23747580490652

>  <Genealogy>  (88) 
O=C([N-]c1ccccc1Br)c1cccn(Cc2ccccc2)c1=O (protonated)
O=C([N-]c1ccccc1Br)c1cccn(Cc2ccccc2)c1=O (3D coordinates assigned)
O=C([N-]c1ccccc1Br)c1cccn(Cc2ccccc2)c1=O (optimized conformer: 49.23747580490652 kcal/mol)

>  <smiles>  (88) 
O=C(Nc1ccccc1Br)c1cccn(Cc2ccccc2)c1=O

>  <score_type>  (88) 
oracle

>  <origin>  (88) 
adg

>  <m_score__min__energy>  (88) 
-10.77

>  <m_primary>  (88) 
energy

$$$$
88:0
     RDKit          3D

 42 44  0  0  0  0  0  0  0  0999 V2000
   63.1104   34.7320   49.0194 H   0  0  0  0  0  0  0  0  0  0  0  0
   62.6220   33.8100   48.6710 C   0  0  0  0  0  0  0  0  0  0  0  0
   63.1840   33.0740   47.6260 C   0  0  0  0  0  0  0  0  0  0  0  0
   64.1143   33.4184   47.1507 H   0  0  0  0  0  0  0  0  0  0  0  0
   62.5670   31.9000   47.1820 C   0  0  0  0  0  0  0  0  0  0  0  0
   63.0111   31.3270   46.3547 H   0  0  0  0  0  0  0  0  0  0  0  0
   61.3810   31.4490   47.7890 C   0  0  0  0  0  0  0  0  0  0  0  0
   60.7360   30.2460   47.3270 N   0  0  0  0  0  0  0  0  0  0  0  0
   59.9000   29.4430   48.2310 C   0  0  0  0  0  0  0  0  0  0  0  0
   59.7305   30.0065   49.1604 H   0  0  0  0  0  0  0  0  0  0  0  0
   60.4207   28.4978   48.4442 H   0  0  0  0  0  0  0  0  0  0  0  0
   58.5390   29.1200   47.5810 C   0  0  0  0  0  0  0  0  0  0  0  0
   57.7917   29.8378   47.9503 H   0  0  0  0  0  0  0  0  0  0  0  0
   58.2738   28.0875   47.8523 H   0  0  0  0  0  0  0  0  0  0  0  0
   58.5870   29.2010   46.1040 N   0  0  0  0  0  0  0  0  0  0  0  0
   57.4010   28.6280   45.4300 C   0  0  0  0  0  0  0  0  0  0  0  0
   56.8809   27.9774   46.1485 H   0  0  0  0  0  0  0  0  0  0  0  0
   57.7780   28.0895   44.5480 H   0  0  0  0  0  0  0  0  0  0  0  0
   56.4060   29.6470   44.9120 C   0  0  0  0  0  0  0  0  0  0  0  0
   55.1790   29.3710   44.8750 O   0  0  0  0  0  0  0  0  0  0  0  0
   56.8610   30.8320   44.2440 N   0  0  0  0  0  0  0  0  0  0  0  0
   57.4760   31.8580   44.7650 C   0  0  0  0  0  0  0  0  0  0  0  0
   57.8780   32.9690   43.9950 C   0  0  0  0  0  0  0  0  0  0  0  0
   57.6696   32.9977   42.9153 H   0  0  0  0  0  0  0  0  0  0  0  0
   58.5410   34.0310   44.6090 C   0  0  0  0  0  0  0  0  0  0  0  0
   58.8499   34.9039   44.0152 H   0  0  0  0  0  0  0  0  0  0  0  0
   58.8120   33.9860   45.9750 C   0  0  0  0  0  0  0  0  0  0  0  0
   59.6470   35.3130   46.7610 Cl  0  0  0  0  0  0  0  0  0  0  0  0
   58.4200   32.8650   46.7100 C   0  0  0  0  0  0  0  0  0  0  0  0
   58.6339   32.8140   47.7878 H   0  0  0  0  0  0  0  0  0  0  0  0
   57.7740   31.8350   46.0970 N   0  0  0  0  0  0  0  0  0  0  0  0
   57.4960   31.0100   46.6750 H   0  0  0  0  0  0  0  0  0  0  0  0
   59.8770   28.7620   45.5450 C   0  0  0  0  0  0  0  0  0  0  0  0
   59.8085   28.7115   44.4483 H   0  0  0  0  0  0  0  0  0  0  0  0
   60.1354   27.7646   45.9304 H   0  0  0  0  0  0  0  0  0  0  0  0
   60.9520   29.7770   45.9500 C   0  0  0  0  0  0  0  0  0  0  0  0
   60.9117   30.6373   45.2657 H   0  0  0  0  0  0  0  0  0  0  0  0
   61.9362   29.2889   45.8944 H   0  0  0  0  0  0  0  0  0  0  0  0
   60.8190   32.2010   48.8350 C   0  0  0  0  0  0  0  0  0  0  0  0
   59.8863   31.8642   49.3109 H   0  0  0  0  0  0  0  0  0  0  0  0
   61.4390   33.3750   49.2740 C   0  0  0  0  0  0  0  0  0  0  0  0
   60.9948   33.9568   50.0951 H   0  0  0  0  0  0  0  0  0  0  0  0
  1  2  1  0
  2  3  2  0
  3  4  1  0
  3  5  1  0
  5  6  1  0
  5  7  2  0
  7  8  1  0
  8  9  1  0
  9 10  1  0
  9 11  1  0
  9 12  1  0
 12 13  1  0
 12 14  1  0
 12 15  1  0
 15 16  1  0
 16 17  1  0
 16 18  1  0
 16 19  1  0
 19 20  2  0
 19 21  1  0
 21 22  2  0
 22 23  1  0
 23 24  1  0
 23 25  2  0
 25 26  1  0
 25 27  1  0
 27 28  1  0
 27 29  2  0
 29 30  1  0
 29 31  1  0
 31 32  1  0
 15 33  1  0
 33 34  1  0
 33 35  1  0
 33 36  1  0
 36 37  1  0
 36 38  1  0
  7 39  1  0
 39 40  1  0
 39 41  2  0
 41 42  1  0
 41  2  1  0
 36  8  1  0
 31 22  1  0
M  END
>  <UniqueID>  (89) 
83

>  <SMILES>  (89) 
O=C(CN1CCN(c2ccccc2)CC1)/N=c1\ccc(Cl)c[nH]1

>  <Energy>  (89) 
67.63644834381542

>  <Genealogy>  (89) 
O=C(CN1CCN(c2ccccc2)CC1)/N=c1\ccc(Cl)c[nH]1 (cis-trans isomerization)
O=C(CN1CCN(c2ccccc2)CC1)/N=c1\ccc(Cl)c[nH]1 (3D coordinates assigned)
O=C(CN1CCN(c2ccccc2)CC1)/N=c1\ccc(Cl)c[nH]1 (nonaromatic ring conformer: 67.63644834381542 kcal/mol)

>  <smiles>  (89) 
O=C(CN1CCN(c2ccccc2)CC1)N=c1ccc(Cl)c[nH]1

>  <score_type>  (89) 
oracle

>  <origin>  (89) 
adg

>  <m_score__min__energy>  (89) 
-8.0899999999999999

>  <m_primary>  (89) 
energy

$$$$
89:0
     RDKit          3D

 44 46  0  0  0  0  0  0  0  0999 V2000
   55.0290   26.3390   45.9870 N   0  0  0  0  0  0  0  0  0  0  0  0
   56.7560   26.4250   45.9590 S   0  0  0  0  0  0  0  0  0  0  0  0
   57.2760   26.0120   47.3080 O   0  0  0  0  0  0  0  0  0  0  0  0
   57.2830   25.4860   44.9100 O   0  0  0  0  0  0  0  0  0  0  0  0
   57.2950   28.0630   45.6060 C   0  0  0  0  0  0  0  0  0  0  0  0
   58.2530   28.6680   46.4300 C   0  0  0  0  0  0  0  0  0  0  0  0
   58.6870   29.9700   46.1650 C   0  0  0  0  0  0  0  0  0  0  0  0
   58.1780   30.6820   45.0720 C   0  0  0  0  0  0  0  0  0  0  0  0
   58.6420   32.0190   44.8490 N   0  0  0  0  0  0  0  0  0  0  0  0
   58.0460   33.4410   45.6430 S   0  0  0  0  0  0  0  0  0  0  0  0
   56.5460   33.3830   45.6910 O   0  0  0  0  0  0  0  0  0  0  0  0
   58.4480   34.6650   44.8700 O   0  0  0  0  0  0  0  0  0  0  0  0
   58.6650   33.4970   47.2900 C   0  0  0  0  0  0  0  0  0  0  0  0
   58.3720   32.4510   48.1730 C   0  0  0  0  0  0  0  0  0  0  0  0
   58.8830   32.4630   49.4750 C   0  0  0  0  0  0  0  0  0  0  0  0
   59.7120   33.5080   49.8970 C   0  0  0  0  0  0  0  0  0  0  0  0
   60.2540   33.4720   51.2230 N   0  0  0  0  0  0  0  0  0  0  0  0
   61.2710   32.5710   51.6820 C   0  0  0  0  0  0  0  0  0  0  0  0
   61.0490   31.8660   52.6990 O   0  0  0  0  0  0  0  0  0  0  0  0
   62.5370   32.4520   51.0160 N   0  0  0  0  0  0  0  0  0  0  0  0
   62.7650   32.5700   49.6050 C   0  0  0  0  0  0  0  0  0  0  0  0
   63.4300   33.7030   49.1190 C   0  0  0  0  0  0  0  0  0  0  0  0
   63.6730   33.8460   47.7490 C   0  0  0  0  0  0  0  0  0  0  0  0
   63.2570   32.8550   46.8570 C   0  0  0  0  0  0  0  0  0  0  0  0
   62.6130   31.7110   47.3350 C   0  0  0  0  0  0  0  0  0  0  0  0
   62.3770   31.5600   48.7050 C   0  0  0  0  0  0  0  0  0  0  0  0
   59.9820   34.5720   49.0190 C   0  0  0  0  0  0  0  0  0  0  0  0
   59.4640   34.5640   47.7220 C   0  0  0  0  0  0  0  0  0  0  0  0
   57.2260   30.0670   44.2380 C   0  0  0  0  0  0  0  0  0  0  0  0
   56.7830   28.7700   44.5090 C   0  0  0  0  0  0  0  0  0  0  0  0
   54.6930   27.0890   46.6320 H   0  0  0  0  0  0  0  0  0  0  0  0
   58.6649   28.1167   47.2881 H   0  0  0  0  0  0  0  0  0  0  0  0
   59.4350   30.4394   46.8209 H   0  0  0  0  0  0  0  0  0  0  0  0
   57.7372   31.6161   47.8415 H   0  0  0  0  0  0  0  0  0  0  0  0
   58.6321   31.6478   50.1697 H   0  0  0  0  0  0  0  0  0  0  0  0
   63.7628   34.4842   49.8183 H   0  0  0  0  0  0  0  0  0  0  0  0
   64.1924   34.7401   47.3736 H   0  0  0  0  0  0  0  0  0  0  0  0
   63.4364   32.9752   45.7784 H   0  0  0  0  0  0  0  0  0  0  0  0
   62.2911   30.9280   46.6327 H   0  0  0  0  0  0  0  0  0  0  0  0
   61.8869   30.6495   49.0802 H   0  0  0  0  0  0  0  0  0  0  0  0
   60.6041   35.4147   49.3550 H   0  0  0  0  0  0  0  0  0  0  0  0
   59.6837   35.3971   47.0381 H   0  0  0  0  0  0  0  0  0  0  0  0
   56.8285   30.6103   43.3681 H   0  0  0  0  0  0  0  0  0  0  0  0
   56.0293   28.3016   43.8589 H   0  0  0  0  0  0  0  0  0  0  0  0
  1  2  1  0
  2  3  2  0
  2  4  2  0
  2  5  1  0
  5  6  2  0
  6  7  1  0
  7  8  2  0
  8  9  1  0
  9 10  1  0
 10 11  2  0
 10 12  2  0
 10 13  1  0
 13 14  2  0
 14 15  1  0
 15 16  2  0
 16 17  1  0
 17 18  1  0
 18 19  2  0
 18 20  1  0
 20 21  1  0
 21 22  2  0
 22 23  1  0
 23 24  2  0
 24 25  1  0
 25 26  2  0
 16 27  1  0
 27 28  2  0
  8 29  1  0
 29 30  2  0
 30  5  1  0
 28 13  1  0
 26 21  1  0
  1 31  1  0
  6 32  1  0
  7 33  1  0
 14 34  1  0
 15 35  1  0
 22 36  1  0
 23 37  1  0
 24 38  1  0
 25 39  1  0
 26 40  1  0
 27 41  1  0
 28 42  1  0
 29 43  1  0
 30 44  1  0
M  CHG  4   1  -1   9  -1  17  -1  20  -1
M  END
>  <UniqueID>  (90) 
84

>  <SMILES>  (90) 
[NH-]S(=O)(=O)c1ccc([N-]S(=O)(=O)c2ccc([N-]C(=O)[N-]c3ccccc3)cc2)cc1

>  <Energy>  (90) 
53.6742899258129

>  <Genealogy>  (90) 
[NH-]S(=O)(=O)c1ccc([N-]S(=O)(=O)c2ccc([N-]C(=O)[N-]c3ccccc3)cc2)cc1 (protonated)
[NH-]S(=O)(=O)c1ccc([N-]S(=O)(=O)c2ccc([N-]C(=O)[N-]c3ccccc3)cc2)cc1 (3D coordinates assigned)
[NH-]S(=O)(=O)c1ccc([N-]S(=O)(=O)c2ccc([N-]C(=O)[N-]c3ccccc3)cc2)cc1 (optimized conformer: 53.6742899258129 kcal/mol)

>  <smiles>  (90) 
NS(=O)(=O)c1ccc(NS(=O)(=O)c2ccc(NC(=O)Nc3ccccc3)cc2)cc1

>  <score_type>  (90) 
oracle

>  <origin>  (90) 
adg

>  <m_score__min__energy>  (90) 
-13.880000000000001

>  <m_primary>  (90) 
energy

$$$$
90:0
     RDKit          3D

 61 64  0  0  0  0  0  0  0  0999 V2000
   55.6150   26.9750   45.9320 O   0  0  0  0  0  0  0  0  0  0  0  0
   56.3200   27.9400   45.5330 C   0  0  0  0  0  0  0  0  0  0  0  0
   55.6720   29.0380   44.8760 N   0  0  0  0  0  0  0  0  0  0  0  0
   56.3240   30.0890   44.1470 C   0  0  0  0  0  0  0  0  0  0  0  0
   56.3990   30.0760   42.7430 C   0  0  0  0  0  0  0  0  0  0  0  0
   57.0200   31.1250   42.0650 C   0  0  0  0  0  0  0  0  0  0  0  0
   57.5470   32.2070   42.7740 C   0  0  0  0  0  0  0  0  0  0  0  0
   57.4450   32.2550   44.1750 C   0  0  0  0  0  0  0  0  0  0  0  0
   57.9960   33.4440   44.9380 C   0  0  0  0  0  0  0  0  0  0  0  0
   58.6030   33.0890   46.2410 N   0  0  0  0  0  0  0  0  0  0  0  0
   59.7070   32.1060   46.1400 C   0  0  0  0  0  0  0  0  0  0  0  0
   60.4490   31.9820   47.4750 C   0  0  0  0  0  0  0  0  0  0  0  0
   61.1420   33.3220   47.8370 C   0  0  0  0  0  0  0  0  0  0  0  0
   61.4190   33.4570   49.3190 C   0  0  0  0  0  0  0  0  0  0  0  0
   61.9720   34.5080   49.7450 O   0  0  0  0  0  0  0  0  0  0  0  0
   61.0940   32.3950   50.2310 N   0  0  0  0  0  0  0  0  0  0  0  0
   59.9260   32.3370   51.1120 C   0  0  0  0  0  0  0  0  0  0  0  0
   59.7960   33.6210   51.9710 C   0  0  0  0  0  0  0  0  0  0  0  0
   58.3380   33.9450   52.3570 C   0  0  0  0  0  0  0  0  0  0  0  0
   57.5090   32.6690   52.5490 C   0  0  0  0  0  0  0  0  0  0  0  0
   57.4360   31.8270   51.2560 C   0  0  0  0  0  0  0  0  0  0  0  0
   58.6430   32.0330   50.3180 C   0  0  0  0  0  0  0  0  0  0  0  0
   60.3560   34.5460   47.2950 C   0  0  0  0  0  0  0  0  0  0  0  0
   58.8600   34.2420   47.1400 C   0  0  0  0  0  0  0  0  0  0  0  0
   56.8430   31.1810   44.8540 C   0  0  0  0  0  0  0  0  0  0  0  0
   57.7750   27.9210   45.7910 C   0  0  0  0  0  0  0  0  0  0  0  0
   58.2970   27.5240   47.0340 C   0  0  0  0  0  0  0  0  0  0  0  0
   59.6810   27.5030   47.2230 C   0  0  0  0  0  0  0  0  0  0  0  0
   60.5310   27.8640   46.1760 C   0  0  0  0  0  0  0  0  0  0  0  0
   59.9810   28.2410   44.9510 C   0  0  0  0  0  0  0  0  0  0  0  0
   58.6310   28.2560   44.7860 N   0  0  0  0  0  0  0  0  0  0  0  0
   55.9670   29.2368   42.1781 H   0  0  0  0  0  0  0  0  0  0  0  0
   57.0950   31.1001   40.9678 H   0  0  0  0  0  0  0  0  0  0  0  0
   58.0443   33.0256   42.2332 H   0  0  0  0  0  0  0  0  0  0  0  0
   58.7647   33.9280   44.3177 H   0  0  0  0  0  0  0  0  0  0  0  0
   57.1464   34.1094   45.1512 H   0  0  0  0  0  0  0  0  0  0  0  0
   59.2923   31.1249   45.8654 H   0  0  0  0  0  0  0  0  0  0  0  0
   60.4164   32.4501   45.3730 H   0  0  0  0  0  0  0  0  0  0  0  0
   59.7304   31.7207   48.2658 H   0  0  0  0  0  0  0  0  0  0  0  0
   61.2151   31.1978   47.3851 H   0  0  0  0  0  0  0  0  0  0  0  0
   62.1198   33.3043   47.3334 H   0  0  0  0  0  0  0  0  0  0  0  0
   60.0750   31.5027   51.8133 H   0  0  0  0  0  0  0  0  0  0  0  0
   60.3807   33.4862   52.8930 H   0  0  0  0  0  0  0  0  0  0  0  0
   60.1696   34.4601   51.3657 H   0  0  0  0  0  0  0  0  0  0  0  0
   58.3360   34.5170   53.2966 H   0  0  0  0  0  0  0  0  0  0  0  0
   57.8873   34.5291   51.5411 H   0  0  0  0  0  0  0  0  0  0  0  0
   57.9695   32.0622   53.3425 H   0  0  0  0  0  0  0  0  0  0  0  0
   56.4850   32.9663   52.8194 H   0  0  0  0  0  0  0  0  0  0  0  0
   57.3895   30.7640   51.5350 H   0  0  0  0  0  0  0  0  0  0  0  0
   56.5406   32.1542   50.7073 H   0  0  0  0  0  0  0  0  0  0  0  0
   58.7966   31.1185   49.7263 H   0  0  0  0  0  0  0  0  0  0  0  0
   58.4299   32.8906   49.6630 H   0  0  0  0  0  0  0  0  0  0  0  0
   60.4777   35.3854   47.9955 H   0  0  0  0  0  0  0  0  0  0  0  0
   60.7577   34.7968   46.3022 H   0  0  0  0  0  0  0  0  0  0  0  0
   58.4417   34.0157   48.1319 H   0  0  0  0  0  0  0  0  0  0  0  0
   58.3844   35.1269   46.6919 H   0  0  0  0  0  0  0  0  0  0  0  0
   56.7790   31.1986   45.9520 H   0  0  0  0  0  0  0  0  0  0  0  0
   57.6213   27.2322   47.8515 H   0  0  0  0  0  0  0  0  0  0  0  0
   60.1001   27.2027   48.1947 H   0  0  0  0  0  0  0  0  0  0  0  0
   61.6220   27.8513   46.3156 H   0  0  0  0  0  0  0  0  0  0  0  0
   60.6396   28.5265   44.1175 H   0  0  0  0  0  0  0  0  0  0  0  0
  1  2  2  0
  2  3  1  0
  3  4  1  0
  4  5  2  0
  5  6  1  0
  6  7  2  0
  7  8  1  0
  8  9  1  0
  9 10  1  0
 10 11  1  0
 11 12  1  0
 12 13  1  0
 13 14  1  0
 14 15  2  0
 14 16  1  0
 16 17  1  0
 17 18  1  0
 18 19  1  0
 19 20  1  0
 20 21  1  0
 21 22  1  0
 13 23  1  0
 23 24  1  0
  8 25  2  0
  2 26  1  0
 26 27  2  0
 27 28  1  0
 28 29  2  0
 29 30  1  0
 30 31  2  0
 25  4  1  0
 31 26  1  0
 24 10  1  0
 22 17  1  0
  5 32  1  0
  6 33  1  0
  7 34  1  0
  9 35  1  0
  9 36  1  0
 11 37  1  0
 11 38  1  0
 12 39  1  0
 12 40  1  0
 13 41  1  0
 17 42  1  0
 18 43  1  0
 18 44  1  0
 19 45  1  0
 19 46  1  0
 20 47  1  0
 20 48  1  0
 21 49  1  0
 21 50  1  0
 22 51  1  0
 22 52  1  0
 23 53  1  0
 23 54  1  0
 24 55  1  0
 24 56  1  0
 25 57  1  0
 27 58  1  0
 28 59  1  0
 29 60  1  0
 30 61  1  0
M  CHG  2   3  -1  16  -1
M  END
>  <UniqueID>  (91) 
85

>  <SMILES>  (91) 
O=C([N-]c1cccc(CN2CCC(C(=O)[N-]C3CCCCC3)CC2)c1)c1ccccn1

>  <Energy>  (91) 
83.77631392526071

>  <Genealogy>  (91) 
O=C([N-]c1cccc(CN2CCC(C(=O)[N-]C3CCCCC3)CC2)c1)c1ccccn1 (protonated)
O=C([N-]c1cccc(CN2CCC(C(=O)[N-]C3CCCCC3)CC2)c1)c1ccccn1 (3D coordinates assigned)
O=C([N-]c1cccc(CN2CCC(C(=O)[N-]C3CCCCC3)CC2)c1)c1ccccn1 (nonaromatic ring conformer: 83.77631392526071 kcal/mol)

>  <smiles>  (91) 
O=C(Nc1cccc(CN2CCC(C(=O)NC3CCCCC3)CC2)c1)c1ccccn1

>  <score_type>  (91) 
oracle

>  <origin>  (91) 
adg

>  <m_score__min__energy>  (91) 
-13.380000000000001

>  <m_primary>  (91) 
energy

$$$$
91:0
     RDKit          3D

 64 67  0  0  0  0  0  0  0  0999 V2000
   55.1390   29.6070   44.8630 O   0  0  0  0  0  0  0  0  0  0  0  0
   56.3570   29.9080   44.7710 C   0  0  0  0  0  0  0  0  0  0  0  0
   56.7140   31.2520   44.4330 N   0  0  0  0  0  0  0  0  0  0  0  0
   57.1580   32.2790   45.3790 C   0  0  0  0  0  0  0  0  0  0  0  0
   58.6370   32.0320   45.8200 C   0  0  2  0  0  0  0  0  0  0  0  0
   59.1970   31.0150   45.0140 O   0  0  0  0  0  0  0  0  0  0  0  0
   58.6710   31.5250   47.2900 C   0  0  0  0  0  0  0  0  0  0  0  0
   60.0240   31.7920   47.9510 C   0  0  0  0  0  0  0  0  0  0  0  0
   60.2330   33.3170   48.1420 C   0  0  1  0  0  0  0  0  0  0  0  0
   61.6370   33.6380   48.5490 N   0  0  2  0  0  0  0  0  0  0  0  0
   62.5980   33.4140   47.4360 C   0  0  0  0  0  0  0  0  0  0  0  0
   64.0430   33.6340   47.9040 C   0  0  0  0  0  0  0  0  0  0  0  0
   64.4450   32.5970   48.9820 C   0  0  1  0  0  0  0  0  0  0  0  0
   65.5760   33.1030   49.9210 C   0  0  0  0  0  0  0  0  0  0  0  0
   65.1420   33.3910   51.3470 C   0  0  0  0  0  0  0  0  0  0  0  0
   64.5870   34.6360   51.6910 C   0  0  0  0  0  0  0  0  0  0  0  0
   64.1550   34.8830   52.9970 C   0  0  0  0  0  0  0  0  0  0  0  0
   64.3080   33.9020   53.9830 C   0  0  0  0  0  0  0  0  0  0  0  0
   63.9010   34.1530   55.2560 F   0  0  0  0  0  0  0  0  0  0  0  0
   64.8980   32.6780   53.6640 C   0  0  0  0  0  0  0  0  0  0  0  0
   65.3150   32.4230   52.3490 C   0  0  0  0  0  0  0  0  0  0  0  0
   63.2140   32.0270   49.7410 C   0  0  0  0  0  0  0  0  0  0  0  0
   62.0570   33.0410   49.8580 C   0  0  0  0  0  0  0  0  0  0  0  0
   59.6990   34.1460   46.9300 C   0  0  0  0  0  0  0  0  0  0  0  0
   59.4940   33.3310   45.6390 C   0  0  0  0  0  0  0  0  0  0  0  0
   57.3770   28.8830   45.0640 C   0  0  0  0  0  0  0  0  0  0  0  0
   57.7970   28.6520   46.3870 C   0  0  0  0  0  0  0  0  0  0  0  0
   58.7380   27.6570   46.6670 C   0  0  0  0  0  0  0  0  0  0  0  0
   59.2610   26.8790   45.6320 C   0  0  0  0  0  0  0  0  0  0  0  0
   60.1730   25.9070   45.8990 F   0  0  0  0  0  0  0  0  0  0  0  0
   58.8440   27.1010   44.3150 C   0  0  0  0  0  0  0  0  0  0  0  0
   57.8980   28.0940   44.0300 C   0  0  0  0  0  0  0  0  0  0  0  0
   57.0858   33.2659   44.8987 H   0  0  0  0  0  0  0  0  0  0  0  0
   56.5146   32.2364   46.2702 H   0  0  0  0  0  0  0  0  0  0  0  0
   58.5800   30.8530   44.2540 H   0  0  0  0  0  0  0  0  0  0  0  0
   58.4783   30.4420   47.2978 H   0  0  0  0  0  0  0  0  0  0  0  0
   57.9001   32.0675   47.8570 H   0  0  0  0  0  0  0  0  0  0  0  0
   60.8258   31.3921   47.3128 H   0  0  0  0  0  0  0  0  0  0  0  0
   60.0473   31.2998   48.9344 H   0  0  0  0  0  0  0  0  0  0  0  0
   59.6093   33.6388   48.9890 H   0  0  0  0  0  0  0  0  0  0  0  0
   61.6470   34.6770   48.6940 H   0  0  0  0  0  0  0  0  0  0  0  0
   62.4914   32.3818   47.0710 H   0  0  0  0  0  0  0  0  0  0  0  0
   62.3769   34.1319   46.6324 H   0  0  0  0  0  0  0  0  0  0  0  0
   64.7187   33.5357   47.0416 H   0  0  0  0  0  0  0  0  0  0  0  0
   64.1185   34.6401   48.3422 H   0  0  0  0  0  0  0  0  0  0  0  0
   64.8847   31.7442   48.4441 H   0  0  0  0  0  0  0  0  0  0  0  0
   66.3634   32.3355   49.9519 H   0  0  0  0  0  0  0  0  0  0  0  0
   65.9181   34.0613   49.5032 H   0  0  0  0  0  0  0  0  0  0  0  0
   64.4921   35.4214   50.9267 H   0  0  0  0  0  0  0  0  0  0  0  0
   63.6944   35.8493   53.2500 H   0  0  0  0  0  0  0  0  0  0  0  0
   65.0359   31.9138   54.4431 H   0  0  0  0  0  0  0  0  0  0  0  0
   65.7808   31.4578   52.1013 H   0  0  0  0  0  0  0  0  0  0  0  0
   62.8497   31.1398   49.2023 H   0  0  0  0  0  0  0  0  0  0  0  0
   63.5412   31.7810   50.7620 H   0  0  0  0  0  0  0  0  0  0  0  0
   61.1897   32.5273   50.2984 H   0  0  0  0  0  0  0  0  0  0  0  0
   62.4207   33.8690   50.4842 H   0  0  0  0  0  0  0  0  0  0  0  0
   60.4205   34.9489   46.7184 H   0  0  0  0  0  0  0  0  0  0  0  0
   58.7081   34.5239   47.2219 H   0  0  0  0  0  0  0  0  0  0  0  0
   60.4831   33.0395   45.2560 H   0  0  0  0  0  0  0  0  0  0  0  0
   58.9379   33.9786   44.9452 H   0  0  0  0  0  0  0  0  0  0  0  0
   57.3823   29.2581   47.2059 H   0  0  0  0  0  0  0  0  0  0  0  0
   59.0666   27.4868   47.7029 H   0  0  0  0  0  0  0  0  0  0  0  0
   59.2612   26.4925   43.4991 H   0  0  0  0  0  0  0  0  0  0  0  0
   57.5641   28.2544   42.9942 H   0  0  0  0  0  0  0  0  0  0  0  0
  1  2  2  0
  2  3  1  0
  3  4  1  0
  4  5  1  0
  5  6  1  6
  5  7  1  0
  7  8  1  0
  8  9  1  0
  9 10  1  0
 10 11  1  0
 11 12  1  0
 12 13  1  0
 13 14  1  0
 14 15  1  0
 15 16  2  0
 16 17  1  0
 17 18  2  0
 18 19  1  0
 18 20  1  0
 20 21  2  0
 13 22  1  0
 22 23  1  0
  9 24  1  0
 24 25  1  0
  2 26  1  0
 26 27  2  0
 27 28  1  0
 28 29  2  0
 29 30  1  0
 29 31  1  0
 31 32  2  0
 25  5  1  0
 32 26  1  0
 23 10  1  0
 21 15  1  0
  4 33  1  0
  4 34  1  0
  6 35  1  0
  7 36  1  0
  7 37  1  0
  8 38  1  0
  8 39  1  0
  9 40  1  1
 10 41  1  1
 11 42  1  0
 11 43  1  0
 12 44  1  0
 12 45  1  0
 13 46  1  6
 14 47  1  0
 14 48  1  0
 16 49  1  0
 17 50  1  0
 20 51  1  0
 21 52  1  0
 22 53  1  0
 22 54  1  0
 23 55  1  0
 23 56  1  0
 24 57  1  0
 24 58  1  0
 25 59  1  0
 25 60  1  0
 27 61  1  0
 28 62  1  0
 31 63  1  0
 32 64  1  0
M  CHG  2   3  -1  10   1
M  END
>  <UniqueID>  (92) 
86

>  <SMILES>  (92) 
O=C([N-]CC1(O)CCC([NH+]2CCC(Cc3ccc(F)cc3)CC2)CC1)c1ccc(F)cc1

>  <Energy>  (92) 
93.05973245037414

>  <Genealogy>  (92) 
O=C([N-]CC1(O)CCC([NH+]2CCC(Cc3ccc(F)cc3)CC2)CC1)c1ccc(F)cc1 (protonated)
O=C([N-]CC1(O)CCC([NH+]2CCC(Cc3ccc(F)cc3)CC2)CC1)c1ccc(F)cc1 (3D coordinates assigned)
O=C([N-]CC1(O)CCC([NH+]2CCC(Cc3ccc(F)cc3)CC2)CC1)c1ccc(F)cc1 (nonaromatic ring conformer: 93.05973245037414 kcal/mol)

>  <smiles>  (92) 
O=C(NCC1(O)CCC(N2CCC(Cc3ccc(F)cc3)CC2)CC1)c1ccc(F)cc1

>  <score_type>  (92) 
oracle

>  <origin>  (92) 
adg

>  <m_score__min__energy>  (92) 
-8.9600000000000009

>  <m_primary>  (92) 
energy

$$$$
92:0
     RDKit          3D

 40 42  0  0  0  0  0  0  0  0999 V2000
   60.2320   34.9580   46.4000 C   0  0  0  0  0  0  0  0  0  0  0  0
   59.2090   33.9260   46.0270 C   0  0  0  0  0  0  0  0  0  0  0  0
   57.9720   34.3200   45.4910 C   0  0  0  0  0  0  0  0  0  0  0  0
   57.0300   33.3620   45.1080 C   0  0  0  0  0  0  0  0  0  0  0  0
   57.3180   32.0000   45.2460 C   0  0  0  0  0  0  0  0  0  0  0  0
   56.4030   31.0680   44.8730 N   0  0  0  0  0  0  0  0  0  0  0  0
   56.6430   29.7350   44.9880 C   0  0  0  0  0  0  0  0  0  0  0  0
   55.7590   28.9160   44.6220 O   0  0  0  0  0  0  0  0  0  0  0  0
   57.8700   29.2790   45.5130 C   0  0  0  0  0  0  0  0  0  0  0  0
   58.1540   27.8030   45.6620 C   0  0  0  0  0  0  0  0  0  0  0  0
   57.5080   27.0410   44.5910 N   0  0  0  0  0  0  0  0  0  0  0  0
   57.2490   25.6250   44.6410 C   0  0  0  0  0  0  0  0  0  0  0  0
   57.1910   24.8980   43.4410 C   0  0  0  0  0  0  0  0  0  0  0  0
   56.9330   23.5240   43.4540 C   0  0  0  0  0  0  0  0  0  0  0  0
   56.7410   22.8540   44.6680 C   0  0  0  0  0  0  0  0  0  0  0  0
   56.3960   21.1280   44.6840 S   0  0  0  0  0  0  0  0  0  0  0  0
   57.6720   20.2890   45.4940 N   0  0  0  0  0  0  0  0  0  0  0  0
   56.2770   20.6190   43.2750 O   0  0  0  0  0  0  0  0  0  0  0  0
   55.0980   20.8740   45.3990 O   0  0  0  0  0  0  0  0  0  0  0  0
   56.8010   23.5720   45.8690 C   0  0  0  0  0  0  0  0  0  0  0  0
   57.0590   24.9450   45.8590 C   0  0  0  0  0  0  0  0  0  0  0  0
   58.8340   30.2260   45.8920 C   0  0  0  0  0  0  0  0  0  0  0  0
   58.5640   31.5940   45.7680 C   0  0  0  0  0  0  0  0  0  0  0  0
   59.5070   32.5600   46.1500 C   0  0  0  0  0  0  0  0  0  0  0  0
   60.3005   35.0271   47.4957 H   0  0  0  0  0  0  0  0  0  0  0  0
   61.2107   34.6695   45.9889 H   0  0  0  0  0  0  0  0  0  0  0  0
   59.9349   35.9341   45.9889 H   0  0  0  0  0  0  0  0  0  0  0  0
   57.7435   35.3894   45.3720 H   0  0  0  0  0  0  0  0  0  0  0  0
   56.0601   33.6792   44.6972 H   0  0  0  0  0  0  0  0  0  0  0  0
   59.2407   27.6381   45.6177 H   0  0  0  0  0  0  0  0  0  0  0  0
   57.7554   27.4619   46.6288 H   0  0  0  0  0  0  0  0  0  0  0  0
   57.1560   27.5830   43.7680 H   0  0  0  0  0  0  0  0  0  0  0  0
   57.3499   25.4140   42.4826 H   0  0  0  0  0  0  0  0  0  0  0  0
   56.8807   22.9673   42.5067 H   0  0  0  0  0  0  0  0  0  0  0  0
   58.5710   20.7110   45.1670 H   0  0  0  0  0  0  0  0  0  0  0  0
   57.6580   19.3030   45.1460 H   0  0  0  0  0  0  0  0  0  0  0  0
   56.6441   23.0520   46.8255 H   0  0  0  0  0  0  0  0  0  0  0  0
   57.1140   25.4980   46.8083 H   0  0  0  0  0  0  0  0  0  0  0  0
   59.8046   29.8923   46.2877 H   0  0  0  0  0  0  0  0  0  0  0  0
   60.4834   32.2457   46.5473 H   0  0  0  0  0  0  0  0  0  0  0  0
  1  2  1  0
  2  3  2  0
  3  4  1  0
  4  5  2  0
  5  6  1  0
  6  7  1  0
  7  8  2  0
  7  9  1  0
  9 10  1  0
 10 11  1  0
 11 12  1  0
 12 13  2  0
 13 14  1  0
 14 15  2  0
 15 16  1  0
 16 17  1  0
 16 18  2  0
 16 19  2  0
 15 20  1  0
 20 21  2  0
  9 22  2  0
 22 23  1  0
 23 24  2  0
 24  2  1  0
 23  5  1  0
 21 12  1  0
  1 25  1  0
  1 26  1  0
  1 27  1  0
  3 28  1  0
  4 29  1  0
 10 30  1  0
 10 31  1  0
 11 32  1  0
 13 33  1  0
 14 34  1  0
 17 35  1  0
 17 36  1  0
 20 37  1  0
 21 38  1  0
 22 39  1  0
 24 40  1  0
M  CHG  1   6  -1
M  END
>  <UniqueID>  (93) 
87

>  <SMILES>  (93) 
Cc1ccc2[n-]c(=O)c(CNc3ccc(S(N)(=O)=O)cc3)cc2c1

>  <Energy>  (93) 
43.491662671979235

>  <Genealogy>  (93) 
Cc1ccc2[n-]c(=O)c(CNc3ccc(S(N)(=O)=O)cc3)cc2c1 (protonated)
Cc1ccc2[n-]c(=O)c(CNc3ccc(S(N)(=O)=O)cc3)cc2c1 (3D coordinates assigned)
Cc1ccc2[n-]c(=O)c(CNc3ccc(S(N)(=O)=O)cc3)cc2c1 (optimized conformer: 43.491662671979235 kcal/mol)

>  <smiles>  (93) 
Cc1ccc2[nH]c(=O)c(CNc3ccc(S(N)(=O)=O)cc3)cc2c1

>  <score_type>  (93) 
oracle

>  <origin>  (93) 
adg

>  <m_score__min__energy>  (93) 
-10.960000000000001

>  <m_primary>  (93) 
energy

$$$$
