0:0
     RDKit          3D

 57 60  0  0  0  0  0  0  0  0999 V2000
   57.4230   28.7630   43.4970 C   0  0  0  0  0  0  0  0  0  0  0  0
   56.6390   29.0550   45.0700 S   0  0  0  0  0  0  0  0  0  0  0  0
   56.4970   27.7500   45.8020 O   0  0  0  0  0  0  0  0  0  0  0  0
   55.2670   29.6430   44.8650 O   0  0  0  0  0  0  0  0  0  0  0  0
   57.6040   30.1390   46.0220 N   0  0  0  0  0  0  0  0  0  0  0  0
   57.9510   31.4680   45.5890 C   0  0  0  0  0  0  0  0  0  0  0  0
   57.8790   31.8030   44.2250 C   0  0  0  0  0  0  0  0  0  0  0  0
   58.2720   33.0640   43.7790 C   0  0  0  0  0  0  0  0  0  0  0  0
   58.7550   34.0050   44.6820 C   0  0  0  0  0  0  0  0  0  0  0  0
   58.8510   33.7000   46.0440 C   0  0  0  0  0  0  0  0  0  0  0  0
   59.4530   34.9920   47.1470 S   0  0  0  0  0  0  0  0  0  0  0  0
   60.9800   34.1220   47.5030 C   0  0  0  0  0  0  0  0  0  0  0  0
   61.3050   33.7840   48.8220 C   0  0  0  0  0  0  0  0  0  0  0  0
   62.5050   33.1190   49.0800 C   0  0  0  0  0  0  0  0  0  0  0  0
   63.3640   32.8000   48.0240 C   0  0  0  0  0  0  0  0  0  0  0  0
   63.0010   33.1470   46.7200 C   0  0  0  0  0  0  0  0  0  0  0  0
   61.8260   33.7910   46.4900 N   0  0  0  0  0  0  0  0  0  0  0  0
   58.4300   32.4280   46.5180 C   0  0  0  0  0  0  0  0  0  0  0  0
   58.3960   32.1310   47.9710 C   0  0  0  0  0  0  0  0  0  0  0  0
   58.2250   33.0720   48.7950 O   0  0  0  0  0  0  0  0  0  0  0  0
   58.5450   30.7880   48.4440 N   0  0  0  0  0  0  0  0  0  0  0  0
   58.5140   30.4150   49.8550 C   0  0  0  0  0  0  0  0  0  0  0  0
   59.8930   30.5230   50.4600 C   0  0  0  0  0  0  0  0  0  0  0  0
   60.2080   31.6440   51.2490 C   0  0  0  0  0  0  0  0  0  0  0  0
   61.4720   31.7670   51.8330 C   0  0  0  0  0  0  0  0  0  0  0  0
   62.4350   30.7760   51.6310 C   0  0  0  0  0  0  0  0  0  0  0  0
   62.1400   29.6640   50.8390 C   0  0  0  0  0  0  0  0  0  0  0  0
   60.8780   29.5360   50.2310 C   0  0  0  0  0  0  0  0  0  0  0  0
   60.5820   28.4260   49.4200 O   0  0  0  0  0  0  0  0  0  0  0  0
   60.4480   28.4590   48.0220 C   0  0  0  0  0  0  0  0  0  0  0  0
   60.8590   29.6080   47.3320 C   0  0  0  0  0  0  0  0  0  0  0  0
   60.7630   29.6700   45.9350 C   0  0  0  0  0  0  0  0  0  0  0  0
   60.2600   28.5780   45.2180 C   0  0  0  0  0  0  0  0  0  0  0  0
   59.8590   27.4220   45.8970 C   0  0  0  0  0  0  0  0  0  0  0  0
   59.9580   27.3560   47.2940 C   0  0  0  0  0  0  0  0  0  0  0  0
   58.4424   28.3833   43.6603 H   0  0  0  0  0  0  0  0  0  0  0  0
   56.8418   28.0210   42.9298 H   0  0  0  0  0  0  0  0  0  0  0  0
   57.4688   29.7044   42.9298 H   0  0  0  0  0  0  0  0  0  0  0  0
   57.8410   29.8300   46.9910 H   0  0  0  0  0  0  0  0  0  0  0  0
   57.5084   31.0616   43.5018 H   0  0  0  0  0  0  0  0  0  0  0  0
   58.1999   33.3153   42.7105 H   0  0  0  0  0  0  0  0  0  0  0  0
   59.0642   34.9975   44.3223 H   0  0  0  0  0  0  0  0  0  0  0  0
   60.6225   34.0395   49.6459 H   0  0  0  0  0  0  0  0  0  0  0  0
   62.7740   32.8467   50.1113 H   0  0  0  0  0  0  0  0  0  0  0  0
   64.3148   32.2818   48.2175 H   0  0  0  0  0  0  0  0  0  0  0  0
   63.6660   32.8991   45.8796 H   0  0  0  0  0  0  0  0  0  0  0  0
   57.8291   31.0874   50.3924 H   0  0  0  0  0  0  0  0  0  0  0  0
   58.1680   29.3744   49.9407 H   0  0  0  0  0  0  0  0  0  0  0  0
   59.4544   32.4294   51.4076 H   0  0  0  0  0  0  0  0  0  0  0  0
   61.7083   32.6450   52.4521 H   0  0  0  0  0  0  0  0  0  0  0  0
   63.4272   30.8713   52.0963 H   0  0  0  0  0  0  0  0  0  0  0  0
   62.8999   28.8828   50.6897 H   0  0  0  0  0  0  0  0  0  0  0  0
   61.2595   30.4667   47.8907 H   0  0  0  0  0  0  0  0  0  0  0  0
   61.0831   30.5773   45.4018 H   0  0  0  0  0  0  0  0  0  0  0  0
   60.1800   28.6286   44.1221 H   0  0  0  0  0  0  0  0  0  0  0  0
   59.4653   26.5632   45.3335 H   0  0  0  0  0  0  0  0  0  0  0  0
   59.6525   26.4413   47.8231 H   0  0  0  0  0  0  0  0  0  0  0  0
  1  2  1  0
  2  3  2  0
  2  4  2  0
  2  5  1  0
  5  6  1  0
  6  7  2  0
  7  8  1  0
  8  9  2  0
  9 10  1  0
 10 11  1  0
 11 12  1  0
 12 13  2  0
 13 14  1  0
 14 15  2  0
 15 16  1  0
 16 17  2  0
 10 18  2  0
 18 19  1  0
 19 20  2  0
 19 21  1  0
 21 22  1  0
 22 23  1  0
 23 24  2  0
 24 25  1  0
 25 26  2  0
 26 27  1  0
 27 28  2  0
 28 29  1  0
 29 30  1  0
 30 31  2  0
 31 32  1  0
 32 33  2  0
 33 34  1  0
 34 35  2  0
 18  6  1  0
 28 23  1  0
 35 30  1  0
 17 12  1  0
  1 36  1  0
  1 37  1  0
  1 38  1  0
  5 39  1  0
  7 40  1  0
  8 41  1  0
  9 42  1  0
 13 43  1  0
 14 44  1  0
 15 45  1  0
 16 46  1  0
 22 47  1  0
 22 48  1  0
 24 49  1  0
 25 50  1  0
 26 51  1  0
 27 52  1  0
 31 53  1  0
 32 54  1  0
 33 55  1  0
 34 56  1  0
 35 57  1  0
M  CHG  1  21  -1
M  END
>  <UniqueID>  (1) 
1

>  <SMILES>  (1) 
CS(=O)(=O)Nc1cccc(Sc2ccccn2)c1C(=O)[N-]Cc1ccccc1Oc1ccccc1

>  <Energy>  (1) 
70.31239297813738

>  <Genealogy>  (1) 
CS(=O)(=O)Nc1cccc(Sc2ccccn2)c1C(=O)[N-]Cc1ccccc1Oc1ccccc1 (protonated)
CS(=O)(=O)Nc1cccc(Sc2ccccn2)c1C(=O)[N-]Cc1ccccc1Oc1ccccc1 (3D coordinates assigned)
CS(=O)(=O)Nc1cccc(Sc2ccccn2)c1C(=O)[N-]Cc1ccccc1Oc1ccccc1 (optimized conformer: 70.31239297813738 kcal/mol)

>  <smiles>  (1) 
CS(=O)(=O)Nc1cccc(Sc2ccccn2)c1C(=O)NCc1ccccc1Oc1ccccc1

>  <score_type>  (1) 
oracle

>  <origin>  (1) 
adg

>  <m_score__min__energy>  (1) 
-11.15

>  <m_primary>  (1) 
energy

$$$$
1:0
     RDKit          3D

 50 53  0  0  0  0  0  0  0  0999 V2000
   62.5460   31.2770   48.8020 C   0  0  0  0  0  0  0  0  0  0  0  0
   63.2590   32.2260   49.7620 C   0  0  0  0  0  0  0  0  0  0  0  0
   63.4610   33.5480   49.1240 N   0  0  0  0  0  0  0  0  0  0  0  0
   62.4250   34.5220   49.5240 C   0  0  0  0  0  0  0  0  0  0  0  0
   61.0410   34.1070   49.0000 C   0  0  0  0  0  0  0  0  0  0  0  0
   61.1400   33.6160   47.6260 N   0  0  0  0  0  0  0  0  0  0  0  0
   59.9930   33.0160   47.0100 C   0  0  0  0  0  0  0  0  0  0  0  0
   59.6190   31.7150   47.3690 C   0  0  0  0  0  0  0  0  0  0  0  0
   58.5150   31.1060   46.7660 C   0  0  0  0  0  0  0  0  0  0  0  0
   57.7760   31.7860   45.7930 C   0  0  0  0  0  0  0  0  0  0  0  0
   56.6450   31.1320   45.1980 N   0  0  0  0  0  0  0  0  0  0  0  0
   56.6000   29.7780   44.7250 C   0  0  0  0  0  0  0  0  0  0  0  0
   55.5570   29.3810   44.1390 O   0  0  0  0  0  0  0  0  0  0  0  0
   57.7070   28.8210   44.9750 C   0  0  0  0  0  0  0  0  0  0  0  0
   59.0270   29.1870   44.6580 C   0  0  0  0  0  0  0  0  0  0  0  0
   60.0880   28.3080   44.8870 C   0  0  0  0  0  0  0  0  0  0  0  0
   59.8520   27.0500   45.4440 C   0  0  0  0  0  0  0  0  0  0  0  0
   58.5470   26.6640   45.7750 C   0  0  0  0  0  0  0  0  0  0  0  0
   58.2880   25.4030   46.3310 C   0  0  0  0  0  0  0  0  0  0  0  0
   56.9780   25.0360   46.6410 C   0  0  0  0  0  0  0  0  0  0  0  0
   55.9360   25.9320   46.3920 C   0  0  0  0  0  0  0  0  0  0  0  0
   56.2000   27.1520   45.8550 N   0  0  0  0  0  0  0  0  0  0  0  0
   57.4660   27.5490   45.5450 C   0  0  0  0  0  0  0  0  0  0  0  0
   58.1260   33.1080   45.4600 C   0  0  0  0  0  0  0  0  0  0  0  0
   59.2340   33.7190   46.0550 C   0  0  0  0  0  0  0  0  0  0  0  0
   59.6310   35.3750   45.6180 Cl  0  0  0  0  0  0  0  0  0  0  0  0
   62.3580   33.8510   46.8460 C   0  0  0  0  0  0  0  0  0  0  0  0
   63.6160   33.4530   47.6470 C   0  0  0  0  0  0  0  0  0  0  0  0
   61.9830   30.5277   49.3778 H   0  0  0  0  0  0  0  0  0  0  0  0
   61.8526   31.8493   48.1682 H   0  0  0  0  0  0  0  0  0  0  0  0
   63.2887   30.7703   48.1682 H   0  0  0  0  0  0  0  0  0  0  0  0
   62.6491   32.3503   50.6689 H   0  0  0  0  0  0  0  0  0  0  0  0
   64.2397   31.8011   50.0223 H   0  0  0  0  0  0  0  0  0  0  0  0
   62.3908   34.5790   50.6220 H   0  0  0  0  0  0  0  0  0  0  0  0
   62.6818   35.5009   49.0929 H   0  0  0  0  0  0  0  0  0  0  0  0
   60.6352   33.3103   49.6408 H   0  0  0  0  0  0  0  0  0  0  0  0
   60.3763   34.9833   49.0178 H   0  0  0  0  0  0  0  0  0  0  0  0
   60.1971   31.1696   48.1295 H   0  0  0  0  0  0  0  0  0  0  0  0
   58.2258   30.0858   47.0585 H   0  0  0  0  0  0  0  0  0  0  0  0
   59.2266   30.1780   44.2242 H   0  0  0  0  0  0  0  0  0  0  0  0
   61.1139   28.6083   44.6273 H   0  0  0  0  0  0  0  0  0  0  0  0
   60.6911   26.3617   45.6230 H   0  0  0  0  0  0  0  0  0  0  0  0
   59.1159   24.7045   46.5224 H   0  0  0  0  0  0  0  0  0  0  0  0
   56.7676   24.0487   47.0781 H   0  0  0  0  0  0  0  0  0  0  0  0
   54.9000   25.6497   46.6309 H   0  0  0  0  0  0  0  0  0  0  0  0
   57.5237   33.6643   44.7266 H   0  0  0  0  0  0  0  0  0  0  0  0
   62.3151   33.2529   45.9238 H   0  0  0  0  0  0  0  0  0  0  0  0
   62.4196   34.9233   46.6087 H   0  0  0  0  0  0  0  0  0  0  0  0
   63.8699   32.4130   47.3941 H   0  0  0  0  0  0  0  0  0  0  0  0
   64.4044   34.1675   47.3679 H   0  0  0  0  0  0  0  0  0  0  0  0
  1  2  1  0
  2  3  1  0
  3  4  1  0
  4  5  1  0
  5  6  1  0
  6  7  1  0
  7  8  2  0
  8  9  1  0
  9 10  2  0
 10 11  1  0
 11 12  1  0
 12 13  2  0
 12 14  1  0
 14 15  2  0
 15 16  1  0
 16 17  2  0
 17 18  1  0
 18 19  2  0
 19 20  1  0
 20 21  2  0
 21 22  1  0
 22 23  2  0
 10 24  1  0
 24 25  2  0
 25 26  1  0
  6 27  1  0
 27 28  1  0
 28  3  1  0
 25  7  1  0
 23 14  1  0
 23 18  1  0
  1 29  1  0
  1 30  1  0
  1 31  1  0
  2 32  1  0
  2 33  1  0
  4 34  1  0
  4 35  1  0
  5 36  1  0
  5 37  1  0
  8 38  1  0
  9 39  1  0
 15 40  1  0
 16 41  1  0
 17 42  1  0
 19 43  1  0
 20 44  1  0
 21 45  1  0
 24 46  1  0
 27 47  1  0
 27 48  1  0
 28 49  1  0
 28 50  1  0
M  CHG  1  11  -1
M  END
>  <UniqueID>  (2) 
2

>  <SMILES>  (2) 
CCN1CCN(c2ccc([N-]C(=O)c3cccc4cccnc34)cc2Cl)CC1

>  <Energy>  (2) 
76.39114804928771

>  <Genealogy>  (2) 
CCN1CCN(c2ccc([N-]C(=O)c3cccc4cccnc34)cc2Cl)CC1 (protonated)
CCN1CCN(c2ccc([N-]C(=O)c3cccc4cccnc34)cc2Cl)CC1 (3D coordinates assigned)
CCN1CCN(c2ccc([N-]C(=O)c3cccc4cccnc34)cc2Cl)CC1 (nonaromatic ring conformer: 76.39114804928771 kcal/mol)

>  <smiles>  (2) 
CCN1CCN(c2ccc(NC(=O)c3cccc4cccnc34)cc2Cl)CC1

>  <score_type>  (2) 
oracle

>  <origin>  (2) 
adg

>  <m_score__min__energy>  (2) 
-10.699999999999999

>  <m_primary>  (2) 
energy

$$$$
2:0
     RDKit          3D

 57 60  0  0  0  0  0  0  0  0999 V2000
   60.7660   29.3090   45.5380 C   0  0  0  0  0  0  0  0  0  0  0  0
   60.4460   27.9220   45.5520 O   0  0  0  0  0  0  0  0  0  0  0  0
   59.1420   27.4090   45.6350 C   0  0  0  0  0  0  0  0  0  0  0  0
   58.8780   26.0720   45.9790 C   0  0  0  0  0  0  0  0  0  0  0  0
   57.5590   25.6200   46.0890 C   0  0  0  0  0  0  0  0  0  0  0  0
   56.4790   26.4970   45.8580 C   0  0  0  0  0  0  0  0  0  0  0  0
   55.1500   26.0940   46.0550 O   0  0  0  0  0  0  0  0  0  0  0  0
   54.6140   24.8470   45.6230 C   0  0  0  0  0  0  0  0  0  0  0  0
   56.7460   27.8270   45.4620 C   0  0  0  0  0  0  0  0  0  0  0  0
   55.6980   28.7790   45.2280 N   0  0  0  0  0  0  0  0  0  0  0  0
   55.5880   29.6590   44.1000 C   0  0  0  0  0  0  0  0  0  0  0  0
   54.6700   29.4840   43.2540 O   0  0  0  0  0  0  0  0  0  0  0  0
   56.6010   30.7180   43.8900 C   0  0  0  0  0  0  0  0  0  0  0  0
   56.8280   31.2410   42.6040 C   0  0  0  0  0  0  0  0  0  0  0  0
   57.7760   32.2470   42.4040 C   0  0  0  0  0  0  0  0  0  0  0  0
   58.5160   32.7380   43.4810 C   0  0  0  0  0  0  0  0  0  0  0  0
   58.3170   32.2220   44.7710 C   0  0  0  0  0  0  0  0  0  0  0  0
   59.0990   32.7090   45.8780 N   0  0  0  0  0  0  0  0  0  0  0  0
   60.0130   33.8450   45.6770 C   0  0  0  0  0  0  0  0  0  0  0  0
   60.5910   34.3480   47.0070 C   0  0  0  0  0  0  0  0  0  0  0  0
   61.0780   33.2260   47.8270 N   0  0  0  0  0  0  0  0  0  0  0  0
   62.2000   33.4150   48.7220 C   0  0  0  0  0  0  0  0  0  0  0  0
   62.0470   34.1480   49.9150 C   0  0  0  0  0  0  0  0  0  0  0  0
   63.1350   34.3370   50.7750 C   0  0  0  0  0  0  0  0  0  0  0  0
   64.3880   33.8030   50.4530 C   0  0  0  0  0  0  0  0  0  0  0  0
   65.7540   34.0500   51.5280 Cl  0  0  0  0  0  0  0  0  0  0  0  0
   64.5530   33.0780   49.2680 C   0  0  0  0  0  0  0  0  0  0  0  0
   63.4680   32.8860   48.4070 C   0  0  0  0  0  0  0  0  0  0  0  0
   60.3030   31.9740   47.8920 C   0  0  0  0  0  0  0  0  0  0  0  0
   58.9360   32.1190   47.2120 C   0  0  0  0  0  0  0  0  0  0  0  0
   57.3530   31.2170   44.9720 C   0  0  0  0  0  0  0  0  0  0  0  0
   58.0710   28.2700   45.3740 C   0  0  0  0  0  0  0  0  0  0  0  0
   60.8507   29.6762   46.5714 H   0  0  0  0  0  0  0  0  0  0  0  0
   61.7224   29.4594   45.0159 H   0  0  0  0  0  0  0  0  0  0  0  0
   59.9721   29.8632   45.0159 H   0  0  0  0  0  0  0  0  0  0  0  0
   59.7119   25.3785   46.1624 H   0  0  0  0  0  0  0  0  0  0  0  0
   57.3624   24.5717   46.3579 H   0  0  0  0  0  0  0  0  0  0  0  0
   54.3518   24.2370   46.5000 H   0  0  0  0  0  0  0  0  0  0  0  0
   53.7130   25.0252   45.0177 H   0  0  0  0  0  0  0  0  0  0  0  0
   55.3633   24.3158   45.0177 H   0  0  0  0  0  0  0  0  0  0  0  0
   56.2541   30.8545   41.7488 H   0  0  0  0  0  0  0  0  0  0  0  0
   57.9399   32.6535   41.3951 H   0  0  0  0  0  0  0  0  0  0  0  0
   59.2585   33.5330   43.3179 H   0  0  0  0  0  0  0  0  0  0  0  0
   60.8405   33.5264   45.0260 H   0  0  0  0  0  0  0  0  0  0  0  0
   59.4445   34.6665   45.2166 H   0  0  0  0  0  0  0  0  0  0  0  0
   61.4271   35.0323   46.8003 H   0  0  0  0  0  0  0  0  0  0  0  0
   59.7959   34.8685   47.5609 H   0  0  0  0  0  0  0  0  0  0  0  0
   61.0663   34.5746   50.1724 H   0  0  0  0  0  0  0  0  0  0  0  0
   63.0049   34.9070   51.7068 H   0  0  0  0  0  0  0  0  0  0  0  0
   65.5374   32.6585   49.0132 H   0  0  0  0  0  0  0  0  0  0  0  0
   63.6052   32.3171   47.4756 H   0  0  0  0  0  0  0  0  0  0  0  0
   60.8695   31.1772   47.3879 H   0  0  0  0  0  0  0  0  0  0  0  0
   60.1356   31.7281   48.9510 H   0  0  0  0  0  0  0  0  0  0  0  0
   58.4693   31.1274   47.1172 H   0  0  0  0  0  0  0  0  0  0  0  0
   58.2973   32.7752   47.8215 H   0  0  0  0  0  0  0  0  0  0  0  0
   57.1849   30.8173   45.9829 H   0  0  0  0  0  0  0  0  0  0  0  0
   58.2736   29.3144   45.0945 H   0  0  0  0  0  0  0  0  0  0  0  0
  1  2  1  0
  2  3  1  0
  3  4  2  0
  4  5  1  0
  5  6  2  0
  6  7  1  0
  7  8  1  0
  6  9  1  0
  9 10  1  0
 10 11  1  0
 11 12  2  0
 11 13  1  0
 13 14  2  0
 14 15  1  0
 15 16  2  0
 16 17  1  0
 17 18  1  0
 18 19  1  0
 19 20  1  0
 20 21  1  0
 21 22  1  0
 22 23  2  0
 23 24  1  0
 24 25  2  0
 25 26  1  0
 25 27  1  0
 27 28  2  0
 21 29  1  0
 29 30  1  0
 17 31  2  0
  9 32  2  0
 32  3  1  0
 31 13  1  0
 30 18  1  0
 28 22  1  0
  1 33  1  0
  1 34  1  0
  1 35  1  0
  4 36  1  0
  5 37  1  0
  8 38  1  0
  8 39  1  0
  8 40  1  0
 14 41  1  0
 15 42  1  0
 16 43  1  0
 19 44  1  0
 19 45  1  0
 20 46  1  0
 20 47  1  0
 23 48  1  0
 24 49  1  0
 27 50  1  0
 28 51  1  0
 29 52  1  0
 29 53  1  0
 30 54  1  0
 30 55  1  0
 31 56  1  0
 32 57  1  0
M  CHG  1  10  -1
M  END
>  <UniqueID>  (3) 
3

>  <SMILES>  (3) 
COc1ccc(OC)c([N-]C(=O)c2cccc(N3CCN(c4ccc(Cl)cc4)CC3)c2)c1

>  <Energy>  (3) 
74.38489816967578

>  <Genealogy>  (3) 
COc1ccc(OC)c([N-]C(=O)c2cccc(N3CCN(c4ccc(Cl)cc4)CC3)c2)c1 (protonated)
COc1ccc(OC)c([N-]C(=O)c2cccc(N3CCN(c4ccc(Cl)cc4)CC3)c2)c1 (3D coordinates assigned)
COc1ccc(OC)c([N-]C(=O)c2cccc(N3CCN(c4ccc(Cl)cc4)CC3)c2)c1 (nonaromatic ring conformer: 74.38489816967578 kcal/mol)

>  <smiles>  (3) 
COc1ccc(OC)c(NC(=O)c2cccc(N3CCN(c4ccc(Cl)cc4)CC3)c2)c1

>  <score_type>  (3) 
oracle

>  <origin>  (3) 
adg

>  <m_score__min__energy>  (3) 
-11.73

>  <m_primary>  (3) 
energy

$$$$
3:0
     RDKit          3D

 39 40  0  0  0  0  0  0  0  0999 V2000
   55.1460   29.3200   44.8570 N   0  0  0  0  0  0  0  0  0  0  0  0
   56.7960   29.5910   44.4240 S   0  0  0  0  0  0  0  0  0  0  0  0
   56.9420   29.5180   42.9290 O   0  0  0  0  0  0  0  0  0  0  0  0
   57.2150   30.9600   44.8820 O   0  0  0  0  0  0  0  0  0  0  0  0
   57.8110   28.3710   45.1840 C   0  0  0  0  0  0  0  0  0  0  0  0
   58.9610   28.7490   45.8870 C   0  0  0  0  0  0  0  0  0  0  0  0
   59.7590   27.7790   46.4980 C   0  0  0  0  0  0  0  0  0  0  0  0
   59.4180   26.4260   46.4040 C   0  0  0  0  0  0  0  0  0  0  0  0
   58.2790   26.0310   45.6810 C   0  0  0  0  0  0  0  0  0  0  0  0
   57.9010   24.6480   45.5640 N   0  0  0  0  0  0  0  0  0  0  0  0
   58.8370   23.5600   45.5040 C   0  0  0  0  0  0  0  0  0  0  0  0
   60.0760   23.7690   45.5970 O   0  0  0  0  0  0  0  0  0  0  0  0
   58.3580   22.1740   45.1990 C   0  0  0  0  0  0  0  0  0  0  0  0
   56.9400   22.1840   45.0700 O   0  0  0  0  0  0  0  0  0  0  0  0
   56.2870   21.9980   43.8460 C   0  0  0  0  0  0  0  0  0  0  0  0
   56.2770   20.8690   43.2850 O   0  0  0  0  0  0  0  0  0  0  0  0
   55.5230   23.1340   43.2510 C   0  0  0  0  0  0  0  0  0  0  0  0
   55.5970   24.2830   44.1460 N   0  0  0  0  0  0  0  0  0  0  0  0
   54.7230   24.4640   45.2650 C   0  0  0  0  0  0  0  0  0  0  0  0
   55.0730   25.1910   46.2340 O   0  0  0  0  0  0  0  0  0  0  0  0
   53.4080   23.8170   45.2840 C   0  0  0  0  0  0  0  0  0  0  0  0
   52.2150   24.3900   44.8890 C   0  0  0  0  0  0  0  0  0  0  0  0
   51.2530   23.4300   45.1100 C   0  0  0  0  0  0  0  0  0  0  0  0
   51.9160   22.3320   45.6200 C   0  0  0  0  0  0  0  0  0  0  0  0
   53.1980   22.5940   45.7110 O   0  0  0  0  0  0  0  0  0  0  0  0
   57.4660   27.0150   45.0950 C   0  0  0  0  0  0  0  0  0  0  0  0
   55.1450   28.6150   45.6290 H   0  0  0  0  0  0  0  0  0  0  0  0
   59.2366   29.8115   45.9584 H   0  0  0  0  0  0  0  0  0  0  0  0
   60.6585   28.0803   47.0549 H   0  0  0  0  0  0  0  0  0  0  0  0
   60.0436   25.6678   46.8978 H   0  0  0  0  0  0  0  0  0  0  0  0
   56.9010   24.4390   45.3490 H   0  0  0  0  0  0  0  0  0  0  0  0
   58.8102   21.8277   44.2579 H   0  0  0  0  0  0  0  0  0  0  0  0
   58.6491   21.4957   46.0146 H   0  0  0  0  0  0  0  0  0  0  0  0
   55.9575   23.3988   42.2758 H   0  0  0  0  0  0  0  0  0  0  0  0
   54.4720   22.8403   43.1130 H   0  0  0  0  0  0  0  0  0  0  0  0
   52.0649   25.4012   44.4830 H   0  0  0  0  0  0  0  0  0  0  0  0
   50.1735   23.5200   44.9187 H   0  0  0  0  0  0  0  0  0  0  0  0
   51.4415   21.3819   45.9065 H   0  0  0  0  0  0  0  0  0  0  0  0
   56.5506   26.7192   44.5616 H   0  0  0  0  0  0  0  0  0  0  0  0
  1  2  1  0
  2  3  2  0
  2  4  2  0
  2  5  1  0
  5  6  2  0
  6  7  1  0
  7  8  2  0
  8  9  1  0
  9 10  1  0
 10 11  1  0
 11 12  2  0
 11 13  1  0
 13 14  1  0
 14 15  1  0
 15 16  2  0
 15 17  1  0
 17 18  1  0
 18 19  1  0
 19 20  2  0
 19 21  1  0
 21 22  2  0
 22 23  1  0
 23 24  2  0
 24 25  1  0
  9 26  2  0
 26  5  1  0
 25 21  1  0
  1 27  1  0
  6 28  1  0
  7 29  1  0
  8 30  1  0
 10 31  1  0
 13 32  1  0
 13 33  1  0
 17 34  1  0
 17 35  1  0
 22 36  1  0
 23 37  1  0
 24 38  1  0
 26 39  1  0
M  CHG  2   1  -1  18  -1
M  END
>  <UniqueID>  (4) 
4

>  <SMILES>  (4) 
[NH-]S(=O)(=O)c1cccc(NC(=O)COC(=O)C[N-]C(=O)c2ccco2)c1

>  <Energy>  (4) 
57.94422714994505

>  <Genealogy>  (4) 
[NH-]S(=O)(=O)c1cccc(NC(=O)COC(=O)C[N-]C(=O)c2ccco2)c1 (protonated)
[NH-]S(=O)(=O)c1cccc(NC(=O)COC(=O)C[N-]C(=O)c2ccco2)c1 (3D coordinates assigned)
[NH-]S(=O)(=O)c1cccc(NC(=O)COC(=O)C[N-]C(=O)c2ccco2)c1 (optimized conformer: 57.94422714994505 kcal/mol)

>  <smiles>  (4) 
NS(=O)(=O)c1cccc(NC(=O)COC(=O)CNC(=O)c2ccco2)c1

>  <score_type>  (4) 
oracle

>  <origin>  (4) 
adg

>  <m_score__min__energy>  (4) 
-11.98

>  <m_primary>  (4) 
energy

$$$$
4:0
     RDKit          3D

 46 48  0  0  0  0  0  0  0  0999 V2000
   57.5950   31.2030   43.1260 O   0  0  0  0  0  0  0  0  0  0  0  0
   57.2060   31.4650   44.2960 C   0  0  0  0  0  0  0  0  0  0  0  0
   56.0720   30.7800   44.8430 N   0  0  0  0  0  0  0  0  0  0  0  0
   55.8360   29.3510   44.6730 C   0  0  0  0  0  0  0  0  0  0  0  0
   57.1620   28.5980   44.5250 C   0  0  0  0  0  0  0  0  0  0  0  0
   57.1400   27.0140   45.3610 S   0  0  0  0  0  0  0  0  0  0  0  0
   57.4150   25.9260   44.3630 O   0  0  0  0  0  0  0  0  0  0  0  0
   55.7890   26.8020   45.9880 O   0  0  0  0  0  0  0  0  0  0  0  0
   58.3730   27.0130   46.5810 N   0  0  0  0  0  0  0  0  0  0  0  0
   59.0490   28.1690   47.0870 C   0  0  0  0  0  0  0  0  0  0  0  0
   59.8700   28.9720   46.2780 C   0  0  0  0  0  0  0  0  0  0  0  0
   60.5490   30.0650   46.8300 C   0  0  0  0  0  0  0  0  0  0  0  0
   60.4300   30.3630   48.1950 C   0  0  0  0  0  0  0  0  0  0  0  0
   61.1400   31.4890   48.7410 N   0  0  0  0  0  0  0  0  0  0  0  0
   62.5300   31.7480   48.4890 C   0  0  0  0  0  0  0  0  0  0  0  0
   63.0940   31.2400   47.4820 O   0  0  0  0  0  0  0  0  0  0  0  0
   63.3030   32.6340   49.3770 C   0  0  0  0  0  0  0  0  0  0  0  0
   62.8150   33.7300   50.0830 C   0  0  0  0  0  0  0  0  0  0  0  0
   63.7880   34.3540   50.8720 C   0  0  0  0  0  0  0  0  0  0  0  0
   65.0370   33.7540   50.7990 C   0  0  0  0  0  0  0  0  0  0  0  0
   64.9320   32.4410   49.7530 S   0  0  0  0  0  0  0  0  0  0  0  0
   59.5740   29.5830   48.9920 C   0  0  0  0  0  0  0  0  0  0  0  0
   58.8900   28.4960   48.4390 C   0  0  0  0  0  0  0  0  0  0  0  0
   57.9220   32.4760   45.1090 C   0  0  0  0  0  0  0  0  0  0  0  0
   58.5050   33.6010   44.4930 C   0  0  0  0  0  0  0  0  0  0  0  0
   59.1630   34.5690   45.2560 C   0  0  0  0  0  0  0  0  0  0  0  0
   59.2530   34.4220   46.6420 C   0  0  0  0  0  0  0  0  0  0  0  0
   58.6920   33.3020   47.2660 C   0  0  0  0  0  0  0  0  0  0  0  0
   58.7750   33.1650   48.6140 F   0  0  0  0  0  0  0  0  0  0  0  0
   58.0290   32.3310   46.5050 C   0  0  0  0  0  0  0  0  0  0  0  0
   55.2984   28.9665   45.5523 H   0  0  0  0  0  0  0  0  0  0  0  0
   55.2377   29.1967   43.7629 H   0  0  0  0  0  0  0  0  0  0  0  0
   57.3567   28.4310   43.4553 H   0  0  0  0  0  0  0  0  0  0  0  0
   57.9508   29.2110   44.9854 H   0  0  0  0  0  0  0  0  0  0  0  0
   59.9797   28.7415   45.2080 H   0  0  0  0  0  0  0  0  0  0  0  0
   61.1812   30.6953   46.1874 H   0  0  0  0  0  0  0  0  0  0  0  0
   60.5920   32.2020   49.2710 H   0  0  0  0  0  0  0  0  0  0  0  0
   61.7707   34.0710   50.0265 H   0  0  0  0  0  0  0  0  0  0  0  0
   63.5817   35.2384   51.4927 H   0  0  0  0  0  0  0  0  0  0  0  0
   65.9410   34.0810   51.3336 H   0  0  0  0  0  0  0  0  0  0  0  0
   59.4416   29.8290   50.0559 H   0  0  0  0  0  0  0  0  0  0  0  0
   58.2217   27.8930   49.0713 H   0  0  0  0  0  0  0  0  0  0  0  0
   58.4416   33.7184   43.4011 H   0  0  0  0  0  0  0  0  0  0  0  0
   59.6099   35.4463   44.7654 H   0  0  0  0  0  0  0  0  0  0  0  0
   59.7653   35.1872   47.2436 H   0  0  0  0  0  0  0  0  0  0  0  0
   57.5904   31.4520   47.0000 H   0  0  0  0  0  0  0  0  0  0  0  0
  1  2  2  0
  2  3  1  0
  3  4  1  0
  4  5  1  0
  5  6  1  0
  6  7  2  0
  6  8  2  0
  6  9  1  0
  9 10  1  0
 10 11  2  0
 11 12  1  0
 12 13  2  0
 13 14  1  0
 14 15  1  0
 15 16  2  0
 15 17  1  0
 17 18  2  0
 18 19  1  0
 19 20  2  0
 20 21  1  0
 13 22  1  0
 22 23  2  0
  2 24  1  0
 24 25  2  0
 25 26  1  0
 26 27  2  0
 27 28  1  0
 28 29  1  0
 28 30  2  0
 23 10  1  0
 30 24  1  0
 21 17  1  0
  4 31  1  0
  4 32  1  0
  5 33  1  0
  5 34  1  0
 11 35  1  0
 12 36  1  0
 14 37  1  0
 18 38  1  0
 19 39  1  0
 20 40  1  0
 22 41  1  0
 23 42  1  0
 25 43  1  0
 26 44  1  0
 27 45  1  0
 30 46  1  0
M  CHG  2   3  -1   9  -1
M  END
>  <UniqueID>  (5) 
5

>  <SMILES>  (5) 
O=C([N-]CCS(=O)(=O)[N-]c1ccc(NC(=O)c2cccs2)cc1)c1cccc(F)c1

>  <Energy>  (5) 
73.28107135709801

>  <Genealogy>  (5) 
O=C([N-]CCS(=O)(=O)[N-]c1ccc(NC(=O)c2cccs2)cc1)c1cccc(F)c1 (protonated)
O=C([N-]CCS(=O)(=O)[N-]c1ccc(NC(=O)c2cccs2)cc1)c1cccc(F)c1 (3D coordinates assigned)
O=C([N-]CCS(=O)(=O)[N-]c1ccc(NC(=O)c2cccs2)cc1)c1cccc(F)c1 (optimized conformer: 73.28107135709801 kcal/mol)

>  <smiles>  (5) 
O=C(NCCS(=O)(=O)Nc1ccc(NC(=O)c2cccs2)cc1)c1cccc(F)c1

>  <score_type>  (5) 
oracle

>  <origin>  (5) 
adg

>  <m_score__min__energy>  (5) 
-12.460000000000001

>  <m_primary>  (5) 
energy

$$$$
5:0
     RDKit          3D

 43 44  0  0  0  0  0  0  0  0999 V2000
   52.8440   23.3480   45.4510 C   0  0  0  0  0  0  0  0  0  0  0  0
   54.3010   23.7040   45.4980 C   0  0  0  0  0  0  0  0  0  0  0  0
   55.2750   22.7080   45.3350 C   0  0  0  0  0  0  0  0  0  0  0  0
   56.6370   23.0410   45.3300 C   0  0  0  0  0  0  0  0  0  0  0  0
   57.6720   21.9790   45.1140 C   0  0  0  0  0  0  0  0  0  0  0  0
   57.0200   24.3850   45.4540 C   0  0  0  0  0  0  0  0  0  0  0  0
   56.0570   25.3900   45.6240 C   0  0  0  0  0  0  0  0  0  0  0  0
   56.4810   26.7600   45.7240 N   0  0  0  0  0  0  0  0  0  0  0  0
   57.6330   27.2970   45.0550 C   0  0  0  0  0  0  0  0  0  0  0  0
   58.1650   26.6690   44.0990 O   0  0  0  0  0  0  0  0  0  0  0  0
   58.1740   28.6170   45.4540 C   0  0  0  0  0  0  0  0  0  0  0  0
   59.4130   28.6910   46.1310 C   0  0  0  0  0  0  0  0  0  0  0  0
   60.3720   27.2100   46.5450 S   0  0  0  0  0  0  0  0  0  0  0  0
   59.9630   29.9320   46.4510 C   0  0  0  0  0  0  0  0  0  0  0  0
   59.2960   31.1070   46.1200 C   0  0  0  0  0  0  0  0  0  0  0  0
   58.0550   31.0640   45.4780 C   0  0  0  0  0  0  0  0  0  0  0  0
   57.2220   32.6330   45.1580 S   0  0  0  0  0  0  0  0  0  0  0  0
   57.7870   33.4570   46.6950 C   0  0  0  0  0  0  0  0  0  0  0  0
   58.8590   34.5160   46.4270 C   0  0  0  0  0  0  0  0  0  0  0  0
   59.9920   34.4110   47.4030 C   0  0  0  0  0  0  0  0  0  0  0  0
   61.1590   34.1670   46.9980 O   0  0  0  0  0  0  0  0  0  0  0  0
   59.7520   34.5560   48.7630 O   0  0  0  0  0  0  0  0  0  0  0  0
   57.4870   29.8170   45.1180 C   0  0  0  0  0  0  0  0  0  0  0  0
   56.1850   29.7740   44.4110 C   0  0  0  0  0  0  0  0  0  0  0  0
   56.0060   30.4500   43.3640 O   0  0  0  0  0  0  0  0  0  0  0  0
   55.1430   28.9950   44.9020 O   0  0  0  0  0  0  0  0  0  0  0  0
   54.6940   25.0440   45.6230 C   0  0  0  0  0  0  0  0  0  0  0  0
   52.4564   23.2533   46.4761 H   0  0  0  0  0  0  0  0  0  0  0  0
   52.2906   24.1373   44.9212 H   0  0  0  0  0  0  0  0  0  0  0  0
   52.7169   22.3924   44.9212 H   0  0  0  0  0  0  0  0  0  0  0  0
   54.9684   21.6590   45.2103 H   0  0  0  0  0  0  0  0  0  0  0  0
   58.0296   21.6121   46.0874 H   0  0  0  0  0  0  0  0  0  0  0  0
   57.2299   21.1458   44.5480 H   0  0  0  0  0  0  0  0  0  0  0  0
   58.5163   22.3995   44.5480 H   0  0  0  0  0  0  0  0  0  0  0  0
   58.0862   24.6530   45.4175 H   0  0  0  0  0  0  0  0  0  0  0  0
   55.8780   27.4250   46.2600 H   0  0  0  0  0  0  0  0  0  0  0  0
   60.9320   29.9821   46.9693 H   0  0  0  0  0  0  0  0  0  0  0  0
   59.7492   32.0787   46.3657 H   0  0  0  0  0  0  0  0  0  0  0  0
   56.9236   33.9414   47.1744 H   0  0  0  0  0  0  0  0  0  0  0  0
   58.2293   32.6881   47.3455 H   0  0  0  0  0  0  0  0  0  0  0  0
   59.2508   34.3780   45.4085 H   0  0  0  0  0  0  0  0  0  0  0  0
   58.3986   35.5087   46.5386 H   0  0  0  0  0  0  0  0  0  0  0  0
   53.9309   25.8301   45.7210 H   0  0  0  0  0  0  0  0  0  0  0  0
  1  2  1  0
  2  3  2  0
  3  4  1  0
  4  5  1  0
  4  6  2  0
  6  7  1  0
  7  8  1  0
  8  9  1  0
  9 10  2  0
  9 11  1  0
 11 12  2  0
 12 13  1  0
 12 14  1  0
 14 15  2  0
 15 16  1  0
 16 17  1  0
 17 18  1  0
 18 19  1  0
 19 20  1  0
 20 21  2  0
 20 22  1  0
 16 23  2  0
 23 24  1  0
 24 25  2  0
 24 26  1  0
  7 27  2  0
 27  2  1  0
 23 11  1  0
  1 28  1  0
  1 29  1  0
  1 30  1  0
  3 31  1  0
  5 32  1  0
  5 33  1  0
  5 34  1  0
  6 35  1  0
  8 36  1  0
 14 37  1  0
 15 38  1  0
 18 39  1  0
 18 40  1  0
 19 41  1  0
 19 42  1  0
 27 43  1  0
M  CHG  3  13  -1  22  -1  26  -1
M  END
>  <UniqueID>  (6) 
6

>  <SMILES>  (6) 
Cc1cc(C)cc(NC(=O)c2c([S-])ccc(SCCC(=O)[O-])c2C(=O)[O-])c1

>  <Energy>  (6) 
53.184068498036304

>  <Genealogy>  (6) 
Cc1cc(C)cc(NC(=O)c2c([S-])ccc(SCCC(=O)[O-])c2C(=O)[O-])c1 (protonated)
Cc1cc(C)cc(NC(=O)c2c([S-])ccc(SCCC(=O)[O-])c2C(=O)[O-])c1 (3D coordinates assigned)
Cc1cc(C)cc(NC(=O)c2c([S-])ccc(SCCC(=O)[O-])c2C(=O)[O-])c1 (optimized conformer: 53.184068498036304 kcal/mol)

>  <smiles>  (6) 
Cc1cc(C)cc(NC(=O)c2c(S)ccc(SCCC(=O)O)c2C(=O)O)c1

>  <score_type>  (6) 
oracle

>  <origin>  (6) 
adg

>  <m_score__min__energy>  (6) 
-12.869999999999999

>  <m_primary>  (6) 
energy

$$$$
6:0
     RDKit          3D

 67 69  0  0  0  0  0  0  0  0999 V2000
   56.8090   30.7610   43.8720 C   0  0  0  0  0  0  0  0  0  0  0  0
   57.1030   30.6810   45.2640 O   0  0  0  0  0  0  0  0  0  0  0  0
   58.2610   30.0930   45.7990 C   0  0  0  0  0  0  0  0  0  0  0  0
   59.2930   30.8710   46.3590 C   0  0  0  0  0  0  0  0  0  0  0  0
   60.4220   30.2590   46.9210 C   0  0  0  0  0  0  0  0  0  0  0  0
   61.4920   31.0890   47.4970 C   0  0  0  0  0  0  0  0  0  0  0  0
   62.3130   31.6730   46.7430 O   0  0  0  0  0  0  0  0  0  0  0  0
   61.6050   31.2470   48.9160 N   0  0  0  0  0  0  0  0  0  0  0  0
   62.8250   31.6080   49.5850 C   0  0  0  0  0  0  0  0  0  0  0  0
   63.4220   30.7000   50.4790 C   0  0  0  0  0  0  0  0  0  0  0  0
   64.5150   31.0850   51.2560 C   0  0  0  0  0  0  0  0  0  0  0  0
   65.0170   32.3810   51.1620 C   0  0  0  0  0  0  0  0  0  0  0  0
   64.4510   33.2860   50.2650 C   0  0  0  0  0  0  0  0  0  0  0  0
   63.3530   32.9160   49.4630 C   0  0  0  0  0  0  0  0  0  0  0  0
   62.8180   33.8930   48.4790 C   0  0  0  0  0  0  0  0  0  0  0  0
   63.5140   34.2050   47.4750 O   0  0  0  0  0  0  0  0  0  0  0  0
   61.4940   34.4300   48.6470 N   0  0  0  0  0  0  0  0  0  0  0  0
   60.4940   34.3210   47.8210 C   0  0  0  0  0  0  0  0  0  0  0  0
   60.6990   34.5820   46.4600 C   0  0  0  0  0  0  0  0  0  0  0  0
   59.6310   34.4640   45.5680 C   0  0  0  0  0  0  0  0  0  0  0  0
   58.3710   34.0910   46.0390 C   0  0  0  0  0  0  0  0  0  0  0  0
   57.0180   33.9400   44.9320 Cl  0  0  0  0  0  0  0  0  0  0  0  0
   58.1980   33.8450   47.4030 C   0  0  0  0  0  0  0  0  0  0  0  0
   59.2510   33.9650   48.2550 N   0  0  0  0  0  0  0  0  0  0  0  0
   60.5290   28.8630   46.9210 C   0  0  0  0  0  0  0  0  0  0  0  0
   59.5310   28.0860   46.3310 C   0  0  0  0  0  0  0  0  0  0  0  0
   58.3900   28.6880   45.7770 C   0  0  0  0  0  0  0  0  0  0  0  0
   57.3520   27.8240   45.1110 C   0  0  0  0  0  0  0  0  0  0  0  0
   56.8000   26.8820   46.0830 N   0  0  0  0  0  0  0  0  0  0  0  0
   57.4790   25.6870   46.4990 C   0  0  0  0  0  0  0  0  0  0  0  0
   58.5950   25.3800   45.9950 O   0  0  0  0  0  0  0  0  0  0  0  0
   56.8200   24.7660   47.4860 C   0  0  0  0  0  0  0  0  0  0  0  0
   55.5210   24.3060   47.0050 N   0  0  0  0  0  0  0  0  0  0  0  0
   54.9750   24.6920   45.7430 C   0  0  0  0  0  0  0  0  0  0  0  0
   54.4000   25.8090   45.6420 O   0  0  0  0  0  0  0  0  0  0  0  0
   55.0910   23.8330   44.6400 O   0  0  0  0  0  0  0  0  0  0  0  0
   56.3080   23.4830   43.9640 C   0  0  0  0  0  0  0  0  0  0  0  0
   57.0270   24.7460   43.4540 C   0  0  0  0  0  0  0  0  0  0  0  0
   55.9250   22.6090   42.7620 C   0  0  0  0  0  0  0  0  0  0  0  0
   57.2310   22.6730   44.8960 C   0  0  0  0  0  0  0  0  0  0  0  0
   55.7558   31.0476   43.7356 H   0  0  0  0  0  0  0  0  0  0  0  0
   57.4579   31.5152   43.4029 H   0  0  0  0  0  0  0  0  0  0  0  0
   56.9863   29.7820   43.4029 H   0  0  0  0  0  0  0  0  0  0  0  0
   59.2123   31.9680   46.3553 H   0  0  0  0  0  0  0  0  0  0  0  0
   63.0237   29.6783   50.5660 H   0  0  0  0  0  0  0  0  0  0  0  0
   64.9810   30.3641   51.9438 H   0  0  0  0  0  0  0  0  0  0  0  0
   65.8608   32.6907   51.7961 H   0  0  0  0  0  0  0  0  0  0  0  0
   64.8666   34.3011   50.1824 H   0  0  0  0  0  0  0  0  0  0  0  0
   61.6942   34.8778   46.0965 H   0  0  0  0  0  0  0  0  0  0  0  0
   59.7823   34.6645   44.4970 H   0  0  0  0  0  0  0  0  0  0  0  0
   57.2096   33.5541   47.7881 H   0  0  0  0  0  0  0  0  0  0  0  0
   61.4000   28.3784   47.3862 H   0  0  0  0  0  0  0  0  0  0  0  0
   59.6394   26.9918   46.2997 H   0  0  0  0  0  0  0  0  0  0  0  0
   56.5446   28.4593   44.7178 H   0  0  0  0  0  0  0  0  0  0  0  0
   57.8171   27.2657   44.2852 H   0  0  0  0  0  0  0  0  0  0  0  0
   55.8740   27.1090   46.5130 H   0  0  0  0  0  0  0  0  0  0  0  0
   57.4698   23.8936   47.6496 H   0  0  0  0  0  0  0  0  0  0  0  0
   56.6640   25.3200   48.4234 H   0  0  0  0  0  0  0  0  0  0  0  0
   57.3681   25.3451   44.3112 H   0  0  0  0  0  0  0  0  0  0  0  0
   57.8938   24.4531   42.8433 H   0  0  0  0  0  0  0  0  0  0  0  0
   56.3327   25.3418   42.8433 H   0  0  0  0  0  0  0  0  0  0  0  0
   55.5075   21.6562   43.1197 H   0  0  0  0  0  0  0  0  0  0  0  0
   55.1739   23.1327   42.1524 H   0  0  0  0  0  0  0  0  0  0  0  0
   56.8191   22.4117   42.1524 H   0  0  0  0  0  0  0  0  0  0  0  0
   56.9793   22.8939   45.9438 H   0  0  0  0  0  0  0  0  0  0  0  0
   57.0937   21.5985   44.7046 H   0  0  0  0  0  0  0  0  0  0  0  0
   58.2786   22.9486   44.7046 H   0  0  0  0  0  0  0  0  0  0  0  0
  1  2  1  0
  2  3  1  0
  3  4  2  0
  4  5  1  0
  5  6  1  0
  6  7  2  0
  6  8  1  0
  8  9  1  0
  9 10  2  0
 10 11  1  0
 11 12  2  0
 12 13  1  0
 13 14  2  0
 14 15  1  0
 15 16  2  0
 15 17  1  0
 17 18  2  3
 18 19  1  0
 19 20  2  0
 20 21  1  0
 21 22  1  0
 21 23  2  0
 23 24  1  0
  5 25  2  0
 25 26  1  0
 26 27  2  0
 27 28  1  0
 28 29  1  0
 29 30  1  0
 30 31  2  0
 30 32  1  0
 32 33  1  0
 33 34  1  0
 34 35  2  0
 34 36  1  0
 36 37  1  0
 37 38  1  0
 37 39  1  0
 37 40  1  0
 27  3  1  0
 14  9  1  0
 24 18  1  0
  1 41  1  0
  1 42  1  0
  1 43  1  0
  4 44  1  0
 10 45  1  0
 11 46  1  0
 12 47  1  0
 13 48  1  0
 19 49  1  0
 20 50  1  0
 23 51  1  0
 25 52  1  0
 26 53  1  0
 28 54  1  0
 28 55  1  0
 29 56  1  0
 32 57  1  0
 32 58  1  0
 38 59  1  0
 38 60  1  0
 38 61  1  0
 39 62  1  0
 39 63  1  0
 39 64  1  0
 40 65  1  0
 40 66  1  0
 40 67  1  0
M  CHG  3   8  -1  24  -1  33  -1
M  END
>  <UniqueID>  (7) 
7

>  <SMILES>  (7) 
COc1cc(C(=O)[N-]c2ccccc2C(=O)N=c2ccc(Cl)c[n-]2)ccc1CNC(=O)C[N-]C(=O)OC(C)(C)C

>  <Energy>  (7) 
69.15935142531875

>  <Genealogy>  (7) 
COc1cc(C(=O)[N-]c2ccccc2C(=O)N=c2ccc(Cl)c[n-]2)ccc1CNC(=O)C[N-]C(=O)OC(C)(C)C (protonated)
COc1cc(C(=O)[N-]c2ccccc2C(=O)N=c2ccc(Cl)c[n-]2)ccc1CNC(=O)C[N-]C(=O)OC(C)(C)C (3D coordinates assigned)
COc1cc(C(=O)[N-]c2ccccc2C(=O)N=c2ccc(Cl)c[n-]2)ccc1CNC(=O)C[N-]C(=O)OC(C)(C)C (optimized conformer: 69.15935142531875 kcal/mol)

>  <smiles>  (7) 
COc1cc(C(=O)Nc2ccccc2C(=O)N=c2ccc(Cl)c[nH]2)ccc1CNC(=O)CNC(=O)OC(C)(C)C

>  <score_type>  (7) 
oracle

>  <origin>  (7) 
adg

>  <m_score__min__energy>  (7) 
-13.19

>  <m_primary>  (7) 
energy

$$$$
7:0
     RDKit          3D

 35 36  0  0  0  0  0  0  0  0999 V2000
   55.1560   29.3250   44.8520 N   0  0  0  0  0  0  0  0  0  0  0  0
   56.7910   29.7510   44.4850 S   0  0  0  0  0  0  0  0  0  0  0  0
   56.9360   31.2440   44.5910 O   0  0  0  0  0  0  0  0  0  0  0  0
   57.1150   29.3140   43.0860 O   0  0  0  0  0  0  0  0  0  0  0  0
   57.8970   28.9710   45.6130 C   0  0  0  0  0  0  0  0  0  0  0  0
   58.1820   27.6060   45.4820 C   0  0  0  0  0  0  0  0  0  0  0  0
   59.0270   26.9750   46.3970 C   0  0  0  0  0  0  0  0  0  0  0  0
   59.5940   27.7030   47.4470 C   0  0  0  0  0  0  0  0  0  0  0  0
   59.3320   29.0710   47.5810 C   0  0  0  0  0  0  0  0  0  0  0  0
   59.8950   29.7750   48.6970 N   0  0  0  0  0  0  0  0  0  0  0  0
   61.1580   30.4510   48.7090 C   0  0  0  0  0  0  0  0  0  0  0  0
   61.8870   30.4290   49.7370 O   0  0  0  0  0  0  0  0  0  0  0  0
   61.5860   31.2610   47.5240 C   0  0  0  0  0  0  0  0  0  0  0  0
   61.7830   32.6670   47.8780 N   0  0  0  0  0  0  0  0  0  0  0  0
   60.7640   33.6720   48.0130 C   0  0  0  0  0  0  0  0  0  0  0  0
   60.7970   34.4300   49.0180 O   0  0  0  0  0  0  0  0  0  0  0  0
   59.6530   33.8130   47.0500 C   0  0  0  0  0  0  0  0  0  0  0  0
   59.8440   34.4730   45.8240 C   0  0  0  0  0  0  0  0  0  0  0  0
   58.7880   34.5930   44.9150 C   0  0  0  0  0  0  0  0  0  0  0  0
   57.5310   34.0720   45.2280 C   0  0  0  0  0  0  0  0  0  0  0  0
   57.3240   33.4390   46.4560 C   0  0  0  0  0  0  0  0  0  0  0  0
   58.3770   33.3120   47.3680 C   0  0  0  0  0  0  0  0  0  0  0  0
   58.1600   32.6720   48.5440 F   0  0  0  0  0  0  0  0  0  0  0  0
   58.4660   29.6990   46.6660 C   0  0  0  0  0  0  0  0  0  0  0  0
   55.1880   28.6230   45.6260 H   0  0  0  0  0  0  0  0  0  0  0  0
   57.7391   27.0297   44.6563 H   0  0  0  0  0  0  0  0  0  0  0  0
   59.2471   25.9024   46.2914 H   0  0  0  0  0  0  0  0  0  0  0  0
   60.2495   27.1979   48.1717 H   0  0  0  0  0  0  0  0  0  0  0  0
   62.5315   30.8543   47.1358 H   0  0  0  0  0  0  0  0  0  0  0  0
   60.7936   31.2046   46.7632 H   0  0  0  0  0  0  0  0  0  0  0  0
   60.8287   34.8972   45.5782 H   0  0  0  0  0  0  0  0  0  0  0  0
   58.9480   35.0989   43.9514 H   0  0  0  0  0  0  0  0  0  0  0  0
   56.7041   34.1599   44.5080 H   0  0  0  0  0  0  0  0  0  0  0  0
   56.3302   33.0393   46.7065 H   0  0  0  0  0  0  0  0  0  0  0  0
   58.2345   30.7685   46.7786 H   0  0  0  0  0  0  0  0  0  0  0  0
  1  2  1  0
  2  3  2  0
  2  4  2  0
  2  5  1  0
  5  6  2  0
  6  7  1  0
  7  8  2  0
  8  9  1  0
  9 10  1  0
 10 11  1  0
 11 12  2  0
 11 13  1  0
 13 14  1  0
 14 15  1  0
 15 16  2  0
 15 17  1  0
 17 18  2  0
 18 19  1  0
 19 20  2  0
 20 21  1  0
 21 22  2  0
 22 23  1  0
  9 24  2  0
 24  5  1  0
 22 17  1  0
  1 25  1  0
  6 26  1  0
  7 27  1  0
  8 28  1  0
 13 29  1  0
 13 30  1  0
 18 31  1  0
 19 32  1  0
 20 33  1  0
 21 34  1  0
 24 35  1  0
M  CHG  3   1  -1  10  -1  14  -1
M  END
>  <UniqueID>  (8) 
8

>  <SMILES>  (8) 
[NH-]S(=O)(=O)c1cccc([N-]C(=O)C[N-]C(=O)c2ccccc2F)c1

>  <Energy>  (8) 
38.99235176587559

>  <Genealogy>  (8) 
[NH-]S(=O)(=O)c1cccc([N-]C(=O)C[N-]C(=O)c2ccccc2F)c1 (protonated)
[NH-]S(=O)(=O)c1cccc([N-]C(=O)C[N-]C(=O)c2ccccc2F)c1 (3D coordinates assigned)
[NH-]S(=O)(=O)c1cccc([N-]C(=O)C[N-]C(=O)c2ccccc2F)c1 (optimized conformer: 38.99235176587559 kcal/mol)

>  <smiles>  (8) 
NS(=O)(=O)c1cccc(NC(=O)CNC(=O)c2ccccc2F)c1

>  <score_type>  (8) 
oracle

>  <origin>  (8) 
adg

>  <m_score__min__energy>  (8) 
-12.91

>  <m_primary>  (8) 
energy

$$$$
8:0
     RDKit          3D

 42 43  0  0  0  0  0  0  0  0999 V2000
   58.1290   27.2310   43.4260 C   0  0  0  0  0  0  0  0  0  0  0  0
   57.7640   26.3980   44.6480 C   0  0  0  0  0  0  0  0  0  0  0  0
   56.7070   27.3210   45.7560 S   0  0  0  0  0  0  0  0  0  0  0  0
   57.4970   27.8160   46.9340 O   0  0  0  0  0  0  0  0  0  0  0  0
   55.6170   26.4160   46.2540 O   0  0  0  0  0  0  0  0  0  0  0  0
   55.9810   28.6630   44.9290 N   0  0  0  0  0  0  0  0  0  0  0  0
   56.6550   29.8560   44.5050 C   0  0  0  0  0  0  0  0  0  0  0  0
   56.6200   30.1920   43.1470 C   0  0  0  0  0  0  0  0  0  0  0  0
   57.2740   31.3350   42.6860 C   0  0  0  0  0  0  0  0  0  0  0  0
   57.9620   32.1590   43.5780 C   0  0  0  0  0  0  0  0  0  0  0  0
   57.9960   31.8510   44.9490 C   0  0  0  0  0  0  0  0  0  0  0  0
   58.7320   32.7350   45.8850 C   0  0  0  0  0  0  0  0  0  0  0  0
   58.8440   32.3950   47.0940 O   0  0  0  0  0  0  0  0  0  0  0  0
   59.3340   33.9600   45.4340 N   0  0  0  0  0  0  0  0  0  0  0  0
   59.9910   34.8910   46.3490 C   0  0  0  0  0  0  0  0  0  0  0  0
   61.1260   34.2080   47.0620 C   0  0  0  0  0  0  0  0  0  0  0  0
   61.0440   33.9670   48.4420 C   0  0  0  0  0  0  0  0  0  0  0  0
   62.1030   33.3520   49.1160 C   0  0  0  0  0  0  0  0  0  0  0  0
   63.2550   32.9610   48.4170 C   0  0  0  0  0  0  0  0  0  0  0  0
   64.4080   32.3380   49.1460 C   0  0  0  0  0  0  0  0  0  0  0  0
   63.3470   33.2210   47.0410 C   0  0  0  0  0  0  0  0  0  0  0  0
   62.2880   33.8370   46.3670 C   0  0  0  0  0  0  0  0  0  0  0  0
   57.3450   30.6890   45.4050 C   0  0  0  0  0  0  0  0  0  0  0  0
   58.5508   28.1935   43.7510 H   0  0  0  0  0  0  0  0  0  0  0  0
   58.8725   26.6900   42.8223 H   0  0  0  0  0  0  0  0  0  0  0  0
   57.2273   27.4110   42.8223 H   0  0  0  0  0  0  0  0  0  0  0  0
   57.2369   25.4897   44.3205 H   0  0  0  0  0  0  0  0  0  0  0  0
   58.6884   26.1338   45.1824 H   0  0  0  0  0  0  0  0  0  0  0  0
   56.0738   29.5514   42.4390 H   0  0  0  0  0  0  0  0  0  0  0  0
   57.2473   31.5876   41.6157 H   0  0  0  0  0  0  0  0  0  0  0  0
   58.4807   33.0548   43.2059 H   0  0  0  0  0  0  0  0  0  0  0  0
   59.3740   34.1790   44.4130 H   0  0  0  0  0  0  0  0  0  0  0  0
   60.3829   35.7455   45.7779 H   0  0  0  0  0  0  0  0  0  0  0  0
   59.2588   35.2390   47.0925 H   0  0  0  0  0  0  0  0  0  0  0  0
   60.1414   34.2637   48.9964 H   0  0  0  0  0  0  0  0  0  0  0  0
   62.0329   33.1738   50.1992 H   0  0  0  0  0  0  0  0  0  0  0  0
   64.2464   32.4253   50.2305 H   0  0  0  0  0  0  0  0  0  0  0  0
   64.4847   31.2757   48.8711 H   0  0  0  0  0  0  0  0  0  0  0  0
   65.3386   32.8560   48.8711 H   0  0  0  0  0  0  0  0  0  0  0  0
   64.2564   32.9389   46.4901 H   0  0  0  0  0  0  0  0  0  0  0  0
   62.3657   34.0318   45.2872 H   0  0  0  0  0  0  0  0  0  0  0  0
   57.3760   30.4301   46.4737 H   0  0  0  0  0  0  0  0  0  0  0  0
  1  2  1  0
  2  3  1  0
  3  4  2  0
  3  5  2  0
  3  6  1  0
  6  7  1  0
  7  8  2  0
  8  9  1  0
  9 10  2  0
 10 11  1  0
 11 12  1  0
 12 13  2  0
 12 14  1  0
 14 15  1  0
 15 16  1  0
 16 17  2  0
 17 18  1  0
 18 19  2  0
 19 20  1  0
 19 21  1  0
 21 22  2  0
 11 23  2  0
 23  7  1  0
 22 16  1  0
  1 24  1  0
  1 25  1  0
  1 26  1  0
  2 27  1  0
  2 28  1  0
  8 29  1  0
  9 30  1  0
 10 31  1  0
 14 32  1  0
 15 33  1  0
 15 34  1  0
 17 35  1  0
 18 36  1  0
 20 37  1  0
 20 38  1  0
 20 39  1  0
 21 40  1  0
 22 41  1  0
 23 42  1  0
M  CHG  1   6  -1
M  END
>  <UniqueID>  (9) 
9

>  <SMILES>  (9) 
CCS(=O)(=O)[N-]c1cccc(C(=O)NCc2ccc(C)cc2)c1

>  <Energy>  (9) 
37.33052774138898

>  <Genealogy>  (9) 
CCS(=O)(=O)[N-]c1cccc(C(=O)NCc2ccc(C)cc2)c1 (protonated)
CCS(=O)(=O)[N-]c1cccc(C(=O)NCc2ccc(C)cc2)c1 (3D coordinates assigned)
CCS(=O)(=O)[N-]c1cccc(C(=O)NCc2ccc(C)cc2)c1 (optimized conformer: 37.33052774138898 kcal/mol)

>  <smiles>  (9) 
CCS(=O)(=O)Nc1cccc(C(=O)NCc2ccc(C)cc2)c1

>  <score_type>  (9) 
oracle

>  <origin>  (9) 
adg

>  <m_score__min__energy>  (9) 
-10.56

>  <m_primary>  (9) 
energy

$$$$
9:0
     RDKit          3D

 54 58  0  0  1  0  0  0  0  0999 V2000
   54.1300   24.8390   45.6020 C   0  0  0  0  0  0  0  0  0  0  0  0
   55.4030   25.2090   46.0960 O   0  0  0  0  0  0  0  0  0  0  0  0
   56.4820   24.3750   45.7860 C   0  0  0  0  0  0  0  0  0  0  0  0
   56.2830   23.0780   45.3430 C   0  0  0  0  0  0  0  0  0  0  0  0
   57.3450   22.2520   45.0370 C   0  0  0  0  0  0  0  0  0  0  0  0
   58.6070   22.7810   45.1930 C   0  0  0  0  0  0  0  0  0  0  0  0
   58.8070   24.0680   45.6310 C   0  0  0  0  0  0  0  0  0  0  0  0
   57.7370   24.9280   45.9500 C   0  0  0  0  0  0  0  0  0  0  0  0
   58.0610   26.1440   46.4890 N   0  0  0  0  0  0  0  0  0  0  0  0
   57.8500   27.2850   46.0460 C   0  0  0  0  0  0  0  0  0  0  0  0
   56.7700   27.5440   45.2370 N   0  0  0  0  0  0  0  0  0  0  0  0
   56.8140   28.8120   44.9070 C   0  0  0  0  0  0  0  0  0  0  0  0
   55.9680   29.5600   44.0960 C   0  0  0  0  0  0  0  0  0  0  0  0
   56.2480   30.8610   43.8960 N   0  0  0  0  0  0  0  0  0  0  0  0
   57.3400   31.3470   44.5030 C   0  0  0  0  0  0  0  0  0  0  0  0
   57.6080   32.6020   44.3080 N   0  0  0  0  0  0  0  0  0  0  0  0
   58.2240   33.4390   45.2660 C   0  0  0  0  0  0  0  0  0  0  0  0
   57.8690   33.3530   46.6010 C   0  0  0  0  0  0  0  0  0  0  0  0
   58.5090   34.2010   47.5030 C   0  0  0  0  0  0  0  0  0  0  0  0
   59.4660   35.1040   47.0960 C   0  0  0  0  0  0  0  0  0  0  0  0
   59.7930   35.1590   45.7550 C   0  0  0  0  0  0  0  0  0  0  0  0
   59.1810   34.3350   44.8330 C   0  0  0  0  0  0  0  0  0  0  0  0
   58.1590   30.6500   45.2810 N   0  0  0  0  0  0  0  0  0  0  0  0
   57.9160   29.3490   45.5080 C   0  0  0  0  0  0  0  0  0  0  0  0
   58.5830   28.3790   46.2400 N   0  0  0  0  0  0  0  0  0  0  0  0
   59.7570   28.6720   46.9700 C   0  0  0  0  0  0  0  0  0  0  0  0
   59.8400   29.9040   47.7690 C   0  0  0  0  0  0  0  0  0  0  0  0
   58.9110   30.1040   48.7770 C   0  0  0  0  0  0  0  0  0  0  0  0
   58.9280   31.1750   49.6340 C   0  0  0  0  0  0  0  0  0  0  0  0
   59.8990   32.1290   49.5300 C   0  0  0  0  0  0  0  0  0  0  0  0
   60.8470   31.9690   48.5410 C   0  0  0  0  0  0  0  0  0  0  0  0
   60.8170   30.8680   47.6700 C   0  0  0  0  0  0  0  0  0  0  0  0
   61.7990   30.8310   46.7550 F   0  0  0  0  0  0  0  0  0  0  0  0
   53.4523   24.6420   46.4458 H   0  0  0  0  0  0  0  0  0  0  0  0
   53.7233   25.6561   44.9881 H   0  0  0  0  0  0  0  0  0  0  0  0
   54.2246   23.9312   44.9881 H   0  0  0  0  0  0  0  0  0  0  0  0
   55.2565   22.6983   45.2328 H   0  0  0  0  0  0  0  0  0  0  0  0
   57.1912   21.2211   44.6855 H   0  0  0  0  0  0  0  0  0  0  0  0
   59.4808   22.1547   44.9601 H   0  0  0  0  0  0  0  0  0  0  0  0
   59.8370   24.4396   45.7362 H   0  0  0  0  0  0  0  0  0  0  0  0
   56.0330   26.8720   44.9260 H   0  0  0  0  0  0  0  0  0  0  0  0
   55.0870   29.0974   43.6270 H   0  0  0  0  0  0  0  0  0  0  0  0
   55.6580   31.4700   43.3050 H   0  0  0  0  0  0  0  0  0  0  0  0
   57.1053   32.6374   46.9396 H   0  0  0  0  0  0  0  0  0  0  0  0
   58.2426   34.1477   48.5689 H   0  0  0  0  0  0  0  0  0  0  0  0
   59.9590   35.7666   47.8226 H   0  0  0  0  0  0  0  0  0  0  0  0
   60.5567   35.8741   45.4154 H   0  0  0  0  0  0  0  0  0  0  0  0
   59.4516   34.3911   43.7683 H   0  0  0  0  0  0  0  0  0  0  0  0
   59.9171   27.8330   47.6632 H   0  0  0  0  0  0  0  0  0  0  0  0
   60.5097   28.8305   46.1837 H   0  0  0  0  0  0  0  0  0  0  0  0
   58.1110   29.3587   48.8975 H   0  0  0  0  0  0  0  0  0  0  0  0
   58.1540   31.2658   50.4103 H   0  0  0  0  0  0  0  0  0  0  0  0
   59.9244   32.9934   50.2099 H   0  0  0  0  0  0  0  0  0  0  0  0
   61.6435   32.7199   48.4323 H   0  0  0  0  0  0  0  0  0  0  0  0
  1  2  1  0
  2  3  1  0
  3  4  2  0
  4  5  1  0
  5  6  2  0
  6  7  1  0
  7  8  2  0
  8  9  1  0
  9 10  2  0
 10 11  1  0
 11 12  1  0
 12 13  2  0
 13 14  1  0
 14 15  1  0
 15 16  2  0
 16 17  1  0
 17 18  2  0
 18 19  1  0
 19 20  2  0
 20 21  1  0
 21 22  2  0
 15 23  1  0
 23 24  2  0
 24 25  1  0
 25 26  1  0
 26 27  1  0
 27 28  2  0
 28 29  1  0
 29 30  2  0
 30 31  1  0
 31 32  2  0
 32 33  1  0
  8  3  1  0
 25 10  1  0
 32 27  1  0
 24 12  1  0
 22 17  1  0
  1 34  1  0
  1 35  1  0
  1 36  1  0
  4 37  1  0
  5 38  1  0
  6 39  1  0
  7 40  1  0
 11 41  1  0
 13 42  1  0
 14 43  1  0
 18 44  1  0
 19 45  1  0
 20 46  1  0
 21 47  1  0
 22 48  1  0
 26 49  1  0
 26 50  1  0
 28 51  1  0
 29 52  1  0
 30 53  1  0
 31 54  1  0
M  END
>  <smiles>  (10) 
COc1ccccc1N=c1[nH]c2c[nH]c(=Nc3ccccc3)nc2n1Cc1ccccc1F

>  <score_type>  (10) 
oracle

>  <origin>  (10) 
adg

>  <m_score__min__energy>  (10) 
-9.0199999999999996

>  <m_primary>  (10) 
energy

$$$$
10:0
     RDKit          3D

 28 30  0  0  0  0  0  0  0  0999 V2000
   54.6830   26.1490   45.9700 O   0  0  0  0  0  0  0  0  0  0  0  0
   55.9410   26.0920   45.9890 C   0  0  0  0  0  0  0  0  0  0  0  0
   56.6210   24.8870   46.3660 N   0  0  0  0  0  0  0  0  0  0  0  0
   58.0600   24.7250   46.1040 C   0  0  0  0  0  0  0  0  0  0  0  0
   58.8540   26.0310   46.3660 C   0  0  0  0  0  0  0  0  0  0  0  0
   58.1240   27.2100   45.7940 C   0  0  0  0  0  0  0  0  0  0  0  0
   58.6010   28.4660   45.4650 C   0  0  0  0  0  0  0  0  0  0  0  0
   57.5630   29.2660   45.1200 N   0  0  0  0  0  0  0  0  0  0  0  0
   57.6580   30.6460   44.7170 C   0  0  0  0  0  0  0  0  0  0  0  0
   57.6490   30.9870   43.3530 C   0  0  0  0  0  0  0  0  0  0  0  0
   57.7480   32.3240   42.9560 C   0  0  0  0  0  0  0  0  0  0  0  0
   57.8640   33.3320   43.9150 C   0  0  0  0  0  0  0  0  0  0  0  0
   57.8850   33.0050   45.2740 C   0  0  0  0  0  0  0  0  0  0  0  0
   57.7850   31.6690   45.6740 C   0  0  0  0  0  0  0  0  0  0  0  0
   56.4390   28.5200   45.2410 C   0  0  0  0  0  0  0  0  0  0  0  0
   55.1550   28.9660   44.9540 O   0  0  0  0  0  0  0  0  0  0  0  0
   56.7640   27.2510   45.6660 C   0  0  0  0  0  0  0  0  0  0  0  0
   56.0700   24.0720   46.7180 H   0  0  0  0  0  0  0  0  0  0  0  0
   58.4526   23.9341   46.7600 H   0  0  0  0  0  0  0  0  0  0  0  0
   58.1825   24.4626   45.0428 H   0  0  0  0  0  0  0  0  0  0  0  0
   58.9746   26.1706   47.4504 H   0  0  0  0  0  0  0  0  0  0  0  0
   59.8393   25.9527   45.8833 H   0  0  0  0  0  0  0  0  0  0  0  0
   59.6585   28.7684   45.4809 H   0  0  0  0  0  0  0  0  0  0  0  0
   57.5635   30.1965   42.5929 H   0  0  0  0  0  0  0  0  0  0  0  0
   57.7345   32.5820   41.8868 H   0  0  0  0  0  0  0  0  0  0  0  0
   57.9389   34.3836   43.6012 H   0  0  0  0  0  0  0  0  0  0  0  0
   57.9802   33.7992   46.0291 H   0  0  0  0  0  0  0  0  0  0  0  0
   57.8058   31.4162   46.7444 H   0  0  0  0  0  0  0  0  0  0  0  0
  1  2  2  0
  2  3  1  0
  3  4  1  0
  4  5  1  0
  5  6  1  0
  6  7  2  0
  7  8  1  0
  8  9  1  0
  9 10  2  0
 10 11  1  0
 11 12  2  0
 12 13  1  0
 13 14  2  0
  8 15  1  0
 15 16  1  0
 15 17  2  0
 17  2  1  0
 17  6  1  0
 14  9  1  0
  3 18  1  0
  4 19  1  0
  4 20  1  0
  5 21  1  0
  5 22  1  0
  7 23  1  0
 10 24  1  0
 11 25  1  0
 12 26  1  0
 13 27  1  0
 14 28  1  0
M  CHG  1  16  -1
M  END
>  <UniqueID>  (11) 
10

>  <SMILES>  (11) 
O=C1NCCc2cn(-c3ccccc3)c([O-])c21

>  <Energy>  (11) 
65.64687279868126

>  <Genealogy>  (11) 
O=C1NCCc2cn(-c3ccccc3)c([O-])c21 (protonated)
O=C1NCCc2cn(-c3ccccc3)c([O-])c21 (3D coordinates assigned)
O=C1NCCc2cn(-c3ccccc3)c([O-])c21 (nonaromatic ring conformer: 65.64687279868126 kcal/mol)

>  <smiles>  (11) 
O=C1NCCc2cn(-c3ccccc3)c(O)c21

>  <score_type>  (11) 
oracle

>  <origin>  (11) 
adg

>  <m_score__min__energy>  (11) 
-10.640000000000001

>  <m_primary>  (11) 
energy

$$$$
11:0
     RDKit          3D

 75 79  0  0  0  0  0  0  0  0999 V2000
   63.6535   32.9970   46.2582 H   0  0  0  0  0  0  0  0  0  0  0  0
   62.8710   33.4310   46.8980 C   0  0  0  0  0  0  0  0  0  0  0  0
   63.0940   33.5790   48.2680 C   0  0  0  0  0  0  0  0  0  0  0  0
   64.0572   33.2716   48.7012 H   0  0  0  0  0  0  0  0  0  0  0  0
   62.1000   34.1160   49.0940 C   0  0  0  0  0  0  0  0  0  0  0  0
   62.3820   34.2770   50.4610 O   0  0  0  0  0  0  0  0  0  0  0  0
   63.0850   33.3320   51.2600 C   0  0  0  0  0  0  0  0  0  0  0  0
   62.9186   33.5557   52.3241 H   0  0  0  0  0  0  0  0  0  0  0  0
   62.7192   32.3189   51.0367 H   0  0  0  0  0  0  0  0  0  0  0  0
   64.1605   33.3911   51.0367 H   0  0  0  0  0  0  0  0  0  0  0  0
   60.8650   34.4900   48.5340 C   0  0  0  0  0  0  0  0  0  0  0  0
   60.0707   34.8896   49.1816 H   0  0  0  0  0  0  0  0  0  0  0  0
   60.6380   34.3570   47.1530 C   0  0  0  0  0  0  0  0  0  0  0  0
   59.3220   34.7760   46.5510 C   0  0  0  0  0  0  0  0  0  0  0  0
   58.8457   35.5167   47.2101 H   0  0  0  0  0  0  0  0  0  0  0  0
   59.5152   35.2076   45.5578 H   0  0  0  0  0  0  0  0  0  0  0  0
   58.4190   33.6250   46.3910 N   0  0  0  0  0  0  0  0  0  0  0  0
   58.2470   32.9920   45.1090 C   0  0  0  0  0  0  0  0  0  0  0  0
   57.5620   33.5490   44.2100 O   0  0  0  0  0  0  0  0  0  0  0  0
   58.8280   31.7110   44.8530 N   0  0  0  0  0  0  0  0  0  0  0  0
   58.4730   30.4750   45.4910 C   0  0  0  0  0  0  0  0  0  0  0  0
   59.3440   29.8050   46.4090 C   0  0  0  0  0  0  0  0  0  0  0  0
   60.5560   30.4050   46.7670 O   0  0  0  0  0  0  0  0  0  0  0  0
   60.8180   31.1060   47.9820 C   0  0  0  0  0  0  0  0  0  0  0  0
   61.8878   31.3565   48.0351 H   0  0  0  0  0  0  0  0  0  0  0  0
   60.2185   32.0280   48.0045 H   0  0  0  0  0  0  0  0  0  0  0  0
   60.4430   30.2340   49.1760 C   0  0  0  0  0  0  0  0  0  0  0  0
   59.9966   29.2974   48.8106 H   0  0  0  0  0  0  0  0  0  0  0  0
   61.3538   30.0276   49.7572 H   0  0  0  0  0  0  0  0  0  0  0  0
   59.4540   30.9340   50.0700 C   0  0  0  0  0  0  0  0  0  0  0  0
   58.3300   30.2430   50.5440 C   0  0  0  0  0  0  0  0  0  0  0  0
   58.1635   29.1977   50.2447 H   0  0  0  0  0  0  0  0  0  0  0  0
   57.4190   30.8770   51.3960 C   0  0  0  0  0  0  0  0  0  0  0  0
   56.5334   30.3329   51.7562 H   0  0  0  0  0  0  0  0  0  0  0  0
   57.6330   32.2010   51.7900 C   0  0  0  0  0  0  0  0  0  0  0  0
   56.9161   32.6980   52.4601 H   0  0  0  0  0  0  0  0  0  0  0  0
   58.7570   32.8930   51.3330 C   0  0  0  0  0  0  0  0  0  0  0  0
   58.9630   34.1730   51.7260 F   0  0  0  0  0  0  0  0  0  0  0  0
   59.6680   32.2610   50.4790 C   0  0  0  0  0  0  0  0  0  0  0  0
   60.5560   32.8059   50.1262 H   0  0  0  0  0  0  0  0  0  0  0  0
   58.9900   28.5250   46.9030 C   0  0  0  0  0  0  0  0  0  0  0  0
   59.6427   27.9911   47.6094 H   0  0  0  0  0  0  0  0  0  0  0  0
   57.7950   27.9630   46.4700 C   0  0  0  0  0  0  0  0  0  0  0  0
   57.3210   26.7380   46.7380 N   0  0  0  0  0  0  0  0  0  0  0  0
   56.1630   26.7120   46.0240 C   0  0  0  0  0  0  0  0  0  0  0  0
   55.3750   25.6820   45.9700 N   0  0  0  0  0  0  0  0  0  0  0  0
   55.7370   24.3790   45.4140 C   0  0  0  0  0  0  0  0  0  0  0  0
   55.8107   23.6444   46.2295 H   0  0  0  0  0  0  0  0  0  0  0  0
   54.6540   23.8610   44.4350 C   0  0  0  0  0  0  0  0  0  0  0  0
   53.9632   23.2099   44.9907 H   0  0  0  0  0  0  0  0  0  0  0  0
   54.1452   24.7413   44.0153 H   0  0  0  0  0  0  0  0  0  0  0  0
   55.2370   23.0600   43.2500 C   0  0  0  0  0  0  0  0  0  0  0  0
   54.4754   22.3491   42.8971 H   0  0  0  0  0  0  0  0  0  0  0  0
   55.5149   23.7804   42.4666 H   0  0  0  0  0  0  0  0  0  0  0  0
   56.4560   22.3050   43.6160 N   0  0  0  0  0  0  0  0  0  0  0  0
   56.1540   21.1410   44.4610 C   0  0  0  0  0  0  0  0  0  0  0  0
   56.2284   21.4278   45.5204 H   0  0  0  0  0  0  0  0  0  0  0  0
   55.1344   20.7876   44.2475 H   0  0  0  0  0  0  0  0  0  0  0  0
   56.8731   20.3365   44.2475 H   0  0  0  0  0  0  0  0  0  0  0  0
   57.5510   23.1560   44.1520 C   0  0  0  0  0  0  0  0  0  0  0  0
   58.0501   22.6052   44.9629 H   0  0  0  0  0  0  0  0  0  0  0  0
   58.2219   23.3749   43.3082 H   0  0  0  0  0  0  0  0  0  0  0  0
   57.0840   24.5120   44.7070 C   0  0  0  0  0  0  0  0  0  0  0  0
   57.8312   24.8841   45.4234 H   0  0  0  0  0  0  0  0  0  0  0  0
   56.9717   25.2143   43.8679 H   0  0  0  0  0  0  0  0  0  0  0  0
   55.9000   27.8450   45.3260 N   0  0  0  0  0  0  0  0  0  0  0  0
   56.9580   28.6170   45.6220 C   0  0  0  0  0  0  0  0  0  0  0  0
   57.2610   29.8720   45.1080 C   0  0  0  0  0  0  0  0  0  0  0  0
   56.5708   30.3810   44.4192 H   0  0  0  0  0  0  0  0  0  0  0  0
   57.7590   33.0520   47.5710 C   0  0  0  0  0  0  0  0  0  0  0  0
   58.2235   33.4553   48.4829 H   0  0  0  0  0  0  0  0  0  0  0  0
   56.6907   33.3140   47.5570 H   0  0  0  0  0  0  0  0  0  0  0  0
   57.8684   31.9575   47.5570 H   0  0  0  0  0  0  0  0  0  0  0  0
   61.6560   33.8330   46.3380 C   0  0  0  0  0  0  0  0  0  0  0  0
   61.4953   33.7390   45.2539 H   0  0  0  0  0  0  0  0  0  0  0  0
  1  2  1  0
  2  3  2  0
  3  4  1  0
  3  5  1  0
  5  6  1  0
  6  7  1  0
  7  8  1  0
  7  9  1  0
  7 10  1  0
  5 11  2  0
 11 12  1  0
 11 13  1  0
 13 14  1  0
 14 15  1  0
 14 16  1  0
 14 17  1  0
 17 18  1  0
 18 19  2  0
 18 20  1  0
 20 21  1  0
 21 22  1  0
 22 23  1  0
 23 24  1  0
 24 25  1  0
 24 26  1  0
 24 27  1  0
 27 28  1  0
 27 29  1  0
 27 30  1  0
 30 31  2  0
 31 32  1  0
 31 33  1  0
 33 34  1  0
 33 35  2  0
 35 36  1  0
 35 37  1  0
 37 38  1  0
 37 39  2  0
 39 40  1  0
 22 41  2  0
 41 42  1  0
 41 43  1  0
 43 44  1  0
 44 45  1  0
 45 46  2  0
 46 47  1  0
 47 48  1  0
 47 49  1  0
 49 50  1  0
 49 51  1  0
 49 52  1  0
 52 53  1  0
 52 54  1  0
 52 55  1  0
 55 56  1  0
 56 57  1  0
 56 58  1  0
 56 59  1  0
 55 60  1  0
 60 61  1  0
 60 62  1  0
 60 63  1  0
 63 64  1  0
 63 65  1  0
 45 66  1  0
 66 67  1  0
 67 68  1  0
 68 69  1  0
 17 70  1  0
 70 71  1  0
 70 72  1  0
 70 73  1  0
 13 74  2  0
 74 75  1  0
 74  2  1  0
 68 21  2  0
 39 30  1  0
 67 43  2  0
 63 47  1  0
M  CHG  3  20  -1  44  -1  66  -1
M  END
>  <UniqueID>  (12) 
11

>  <SMILES>  (12) 
COc1cccc(CN(C)C(=O)[N-]c2cc3[n-]/c(=N/C4CCN(C)CC4)[n-]c3cc2OCCc2cccc(F)c2)c1

>  <Energy>  (12) 
123.72623439719843

>  <Genealogy>  (12) 
COc1cccc(CN(C)C(=O)[N-]c2cc3[n-]c(=NC4CCN(C)CC4)[n-]c3cc2OCCc2cccc(F)c2)c1 (protonated)
COc1cccc(CN(C)C(=O)[N-]c2cc3[n-]/c(=N/C4CCN(C)CC4)[n-]c3cc2OCCc2cccc(F)c2)c1 (cis-trans isomerization)
COc1cccc(CN(C)C(=O)[N-]c2cc3[n-]/c(=N/C4CCN(C)CC4)[n-]c3cc2OCCc2cccc(F)c2)c1 (3D coordinates assigned)
COc1cccc(CN(C)C(=O)[N-]c2cc3[n-]/c(=N/C4CCN(C)CC4)[n-]c3cc2OCCc2cccc(F)c2)c1 (nonaromatic ring conformer: 123.72623439719843 kcal/mol)

>  <smiles>  (12) 
COc1cccc(CN(C)C(=O)Nc2cc3[nH]c(=NC4CCN(C)CC4)[nH]c3cc2OCCc2cccc(F)c2)c1

>  <score_type>  (12) 
oracle

>  <origin>  (12) 
adg

>  <m_score__min__energy>  (12) 
-14.800000000000001

>  <m_primary>  (12) 
energy

$$$$
12:0
     RDKit          3D

 58 62  0  0  0  0  0  0  0  0999 V2000
   57.6160   29.1720   51.6590 O   0  0  0  0  0  0  0  0  0  0  0  0
   57.7940   30.4090   51.8400 C   0  0  0  0  0  0  0  0  0  0  0  0
   58.3670   31.2020   50.8150 C   0  0  0  0  0  0  0  0  0  0  0  0
   58.5420   32.5700   51.0800 C   0  0  0  0  0  0  0  0  0  0  0  0
   59.0930   33.3960   50.1080 C   0  0  0  0  0  0  0  0  0  0  0  0
   59.4690   32.8720   48.8730 C   0  0  0  0  0  0  0  0  0  0  0  0
   59.9790   33.7400   47.9010 O   0  0  0  0  0  0  0  0  0  0  0  0
   59.1600   34.6590   47.1740 C   0  0  0  0  0  0  0  0  0  0  0  0
   59.8790   35.1540   45.9030 C   0  0  0  0  0  0  0  0  0  0  0  0
   59.6590   34.1630   44.7460 C   0  0  0  0  0  0  0  0  0  0  0  0
   58.2960   33.9330   44.3980 O   0  0  0  0  0  0  0  0  0  0  0  0
   57.3640   34.3210   45.3990 C   0  0  0  0  0  0  0  0  0  0  0  0
   57.8250   33.9690   46.8230 C   0  0  0  0  0  0  0  0  0  0  0  0
   59.3470   31.4850   48.6460 C   0  0  0  0  0  0  0  0  0  0  0  0
   59.9850   30.7670   47.1460 S   0  0  0  0  0  0  0  0  0  0  0  0
   60.8780   29.6120   47.5050 O   0  0  0  0  0  0  0  0  0  0  0  0
   60.7830   31.7760   46.3710 O   0  0  0  0  0  0  0  0  0  0  0  0
   58.6790   30.2290   46.0910 C   0  0  0  0  0  0  0  0  0  0  0  0
   58.2410   28.8980   46.1240 C   0  0  0  0  0  0  0  0  0  0  0  0
   57.2050   28.4790   45.2840 C   0  0  0  0  0  0  0  0  0  0  0  0
   56.6100   29.3830   44.4000 C   0  0  0  0  0  0  0  0  0  0  0  0
   57.0540   30.7090   44.3490 C   0  0  0  0  0  0  0  0  0  0  0  0
   58.0920   31.1280   45.1860 C   0  0  0  0  0  0  0  0  0  0  0  0
   58.7600   30.6890   49.5990 N   0  0  0  0  0  0  0  0  0  0  0  0
   58.5410   29.3620   49.3100 O   0  0  0  0  0  0  0  0  0  0  0  0
   58.1650   33.0910   52.2720 N   0  0  0  0  0  0  0  0  0  0  0  0
   57.6180   32.3170   53.2390 C   0  0  0  0  0  0  0  0  0  0  0  0
   57.4390   30.9780   53.0380 N   0  0  0  0  0  0  0  0  0  0  0  0
   56.8320   30.1810   54.1160 C   0  0  0  0  0  0  0  0  0  0  0  0
   55.4680   29.6970   53.7060 C   0  0  0  0  0  0  0  0  0  0  0  0
   54.6860   30.4530   52.8210 C   0  0  0  0  0  0  0  0  0  0  0  0
   53.4140   30.0100   52.4530 C   0  0  0  0  0  0  0  0  0  0  0  0
   52.9080   28.8120   52.9690 C   0  0  0  0  0  0  0  0  0  0  0  0
   51.3050   28.2680   52.5050 Cl  0  0  0  0  0  0  0  0  0  0  0  0
   53.6800   28.0560   53.8570 C   0  0  0  0  0  0  0  0  0  0  0  0
   54.9530   28.4970   54.2300 C   0  0  0  0  0  0  0  0  0  0  0  0
   59.2328   34.4674   50.3143 H   0  0  0  0  0  0  0  0  0  0  0  0
   58.9600   35.5424   47.7981 H   0  0  0  0  0  0  0  0  0  0  0  0
   59.4783   36.1383   45.6192 H   0  0  0  0  0  0  0  0  0  0  0  0
   60.9569   35.2316   46.1083 H   0  0  0  0  0  0  0  0  0  0  0  0
   60.1759   34.5557   43.8580 H   0  0  0  0  0  0  0  0  0  0  0  0
   60.0544   33.1963   45.0912 H   0  0  0  0  0  0  0  0  0  0  0  0
   57.2176   35.4095   45.3377 H   0  0  0  0  0  0  0  0  0  0  0  0
   56.4319   33.7682   45.2105 H   0  0  0  0  0  0  0  0  0  0  0  0
   57.0556   34.2951   47.5383 H   0  0  0  0  0  0  0  0  0  0  0  0
   57.9752   32.8807   46.8772 H   0  0  0  0  0  0  0  0  0  0  0  0
   58.7134   28.1816   46.8122 H   0  0  0  0  0  0  0  0  0  0  0  0
   56.8576   27.4359   45.3190 H   0  0  0  0  0  0  0  0  0  0  0  0
   55.7918   29.0519   43.7436 H   0  0  0  0  0  0  0  0  0  0  0  0
   56.5871   31.4201   43.6516 H   0  0  0  0  0  0  0  0  0  0  0  0
   58.4507   32.1667   45.1356 H   0  0  0  0  0  0  0  0  0  0  0  0
   57.3153   32.7704   54.1944 H   0  0  0  0  0  0  0  0  0  0  0  0
   57.4743   29.3145   54.3318 H   0  0  0  0  0  0  0  0  0  0  0  0
   56.7326   30.8105   55.0126 H   0  0  0  0  0  0  0  0  0  0  0  0
   55.0759   31.3982   52.4153 H   0  0  0  0  0  0  0  0  0  0  0  0
   52.8074   30.6052   51.7547 H   0  0  0  0  0  0  0  0  0  0  0  0
   53.2849   27.1129   54.2625 H   0  0  0  0  0  0  0  0  0  0  0  0
   55.5539   27.9041   54.9353 H   0  0  0  0  0  0  0  0  0  0  0  0
  1  2  2  0
  2  3  1  0
  3  4  2  0
  4  5  1  0
  5  6  2  0
  6  7  1  0
  7  8  1  0
  8  9  1  0
  9 10  1  0
 10 11  1  0
 11 12  1  0
 12 13  1  0
  6 14  1  0
 14 15  1  0
 15 16  2  0
 15 17  2  0
 15 18  1  0
 18 19  2  0
 19 20  1  0
 20 21  2  0
 21 22  1  0
 22 23  2  0
 14 24  2  0
 24 25  1  0
  4 26  1  0
 26 27  2  0
 27 28  1  0
 28 29  1  0
 29 30  1  0
 30 31  2  0
 31 32  1  0
 32 33  2  0
 33 34  1  0
 33 35  1  0
 35 36  2  0
 28  2  1  0
 36 30  1  0
 24  3  1  0
 13  8  1  0
 23 18  1  0
  5 37  1  0
  8 38  1  0
  9 39  1  0
  9 40  1  0
 10 41  1  0
 10 42  1  0
 12 43  1  0
 12 44  1  0
 13 45  1  0
 13 46  1  0
 19 47  1  0
 20 48  1  0
 21 49  1  0
 22 50  1  0
 23 51  1  0
 27 52  1  0
 29 53  1  0
 29 54  1  0
 31 55  1  0
 32 56  1  0
 35 57  1  0
 36 58  1  0
M  CHG  2  24   1  25  -1
M  END
>  <UniqueID>  (13) 
12

>  <SMILES>  (13) 
O=c1c2c(cc(OC3CCOCC3)c(S(=O)(=O)c3ccccc3)[n+]2[O-])ncn1Cc1ccc(Cl)cc1

>  <Energy>  (13) 
91.89056013564199

>  <Genealogy>  (13) 
O=c1c2c(cc(OC3CCOCC3)c(S(=O)(=O)c3ccccc3)[n+]2[O-])ncn1Cc1ccc(Cl)cc1 (3D coordinates assigned)
O=c1c2c(cc(OC3CCOCC3)c(S(=O)(=O)c3ccccc3)[n+]2[O-])ncn1Cc1ccc(Cl)cc1 (nonaromatic ring conformer: 91.89056013564199 kcal/mol)

>  <smiles>  (13) 
O=c1c2c(cc(OC3CCOCC3)c(S(=O)(=O)c3ccccc3)[n+]2[O-])ncn1Cc1ccc(Cl)cc1

>  <score_type>  (13) 
oracle

>  <origin>  (13) 
adg

>  <m_score__min__energy>  (13) 
-10.539999999999999

>  <m_primary>  (13) 
energy

$$$$
13:0
     RDKit          3D

 45 47  0  0  0  0  0  0  0  0999 V2000
   56.1420   30.1180   43.0870 O   0  0  0  0  0  0  0  0  0  0  0  0
   56.5060   30.0780   44.2940 C   0  0  0  0  0  0  0  0  0  0  0  0
   56.0710   29.0050   45.1420 N   0  0  0  0  0  0  0  0  0  0  0  0
   56.8410   27.8600   45.5380 C   0  0  0  0  0  0  0  0  0  0  0  0
   58.2480   27.8780   45.5480 C   0  0  0  0  0  0  0  0  0  0  0  0
   58.9640   26.7510   45.9630 C   0  0  0  0  0  0  0  0  0  0  0  0
   58.2850   25.6060   46.3850 C   0  0  0  0  0  0  0  0  0  0  0  0
   56.8900   25.5880   46.4010 C   0  0  0  0  0  0  0  0  0  0  0  0
   56.1670   26.7120   45.9860 C   0  0  0  0  0  0  0  0  0  0  0  0
   54.7770   26.6830   46.0150 O   0  0  0  0  0  0  0  0  0  0  0  0
   57.3390   31.1710   44.8500 C   0  0  0  0  0  0  0  0  0  0  0  0
   57.0530   32.5140   44.5420 C   0  0  0  0  0  0  0  0  0  0  0  0
   57.8390   33.5450   45.0650 C   0  0  0  0  0  0  0  0  0  0  0  0
   58.9240   33.2500   45.9010 C   0  0  0  0  0  0  0  0  0  0  0  0
   59.9100   34.5410   46.5850 S   0  0  0  0  0  0  0  0  0  0  0  0
   59.6230   35.8410   45.8840 O   0  0  0  0  0  0  0  0  0  0  0  0
   61.3600   34.2030   46.3880 O   0  0  0  0  0  0  0  0  0  0  0  0
   59.5860   34.6980   48.2870 N   0  0  0  0  0  0  0  0  0  0  0  0
   60.6400   34.0710   49.0870 C   0  0  0  0  0  0  0  0  0  0  0  0
   60.0330   33.0840   50.0850 C   0  0  0  0  0  0  0  0  0  0  0  0
   59.9680   31.7000   49.4910 C   0  0  0  0  0  0  0  0  0  0  0  0
   61.0480   31.2200   48.7290 C   0  0  0  0  0  0  0  0  0  0  0  0
   61.0190   29.9270   48.1990 C   0  0  0  0  0  0  0  0  0  0  0  0
   59.9190   29.0980   48.4330 C   0  0  0  0  0  0  0  0  0  0  0  0
   58.8480   29.5600   49.2020 C   0  0  0  0  0  0  0  0  0  0  0  0
   58.8690   30.8530   49.7370 C   0  0  0  0  0  0  0  0  0  0  0  0
   57.7990   31.2860   50.5130 O   0  0  0  0  0  0  0  0  0  0  0  0
   59.2110   31.9180   46.2150 C   0  0  0  0  0  0  0  0  0  0  0  0
   58.4280   30.8850   45.6930 C   0  0  0  0  0  0  0  0  0  0  0  0
   58.7867   28.7822   45.2281 H   0  0  0  0  0  0  0  0  0  0  0  0
   60.0639   26.7663   45.9571 H   0  0  0  0  0  0  0  0  0  0  0  0
   58.8501   24.7181   46.7049 H   0  0  0  0  0  0  0  0  0  0  0  0
   56.3570   24.6878   46.7408 H   0  0  0  0  0  0  0  0  0  0  0  0
   56.2044   32.7544   43.8846 H   0  0  0  0  0  0  0  0  0  0  0  0
   57.6049   34.5914   44.8194 H   0  0  0  0  0  0  0  0  0  0  0  0
   61.3308   33.5341   48.4202 H   0  0  0  0  0  0  0  0  0  0  0  0
   61.1814   34.8522   49.6407 H   0  0  0  0  0  0  0  0  0  0  0  0
   60.6547   33.0591   50.9921 H   0  0  0  0  0  0  0  0  0  0  0  0
   59.0124   33.4120   50.3315 H   0  0  0  0  0  0  0  0  0  0  0  0
   61.9203   31.8656   48.5491 H   0  0  0  0  0  0  0  0  0  0  0  0
   61.8637   29.5615   47.5966 H   0  0  0  0  0  0  0  0  0  0  0  0
   59.8962   28.0820   48.0120 H   0  0  0  0  0  0  0  0  0  0  0  0
   57.9844   28.9045   49.3878 H   0  0  0  0  0  0  0  0  0  0  0  0
   60.0576   31.6821   46.8764 H   0  0  0  0  0  0  0  0  0  0  0  0
   58.6651   29.8404   45.9432 H   0  0  0  0  0  0  0  0  0  0  0  0
  1  2  2  0
  2  3  1  0
  3  4  1  0
  4  5  2  0
  5  6  1  0
  6  7  2  0
  7  8  1  0
  8  9  2  0
  9 10  1  0
  2 11  1  0
 11 12  2  0
 12 13  1  0
 13 14  2  0
 14 15  1  0
 15 16  2  0
 15 17  2  0
 15 18  1  0
 18 19  1  0
 19 20  1  0
 20 21  1  0
 21 22  2  0
 22 23  1  0
 23 24  2  0
 24 25  1  0
 25 26  2  0
 26 27  1  0
 14 28  1  0
 28 29  2  0
  9  4  1  0
 29 11  1  0
 26 21  1  0
  5 30  1  0
  6 31  1  0
  7 32  1  0
  8 33  1  0
 12 34  1  0
 13 35  1  0
 19 36  1  0
 19 37  1  0
 20 38  1  0
 20 39  1  0
 22 40  1  0
 23 41  1  0
 24 42  1  0
 25 43  1  0
 28 44  1  0
 29 45  1  0
M  CHG  4   3  -1  10  -1  18  -1  27  -1
M  END
>  <UniqueID>  (14) 
13

>  <SMILES>  (14) 
O=C([N-]c1ccccc1[O-])c1ccc(S(=O)(=O)[N-]CCc2ccccc2[O-])cc1

>  <Energy>  (14) 
50.381687995305484

>  <Genealogy>  (14) 
O=C([N-]c1ccccc1[O-])c1ccc(S(=O)(=O)[N-]CCc2ccccc2[O-])cc1 (protonated)
O=C([N-]c1ccccc1[O-])c1ccc(S(=O)(=O)[N-]CCc2ccccc2[O-])cc1 (3D coordinates assigned)
O=C([N-]c1ccccc1[O-])c1ccc(S(=O)(=O)[N-]CCc2ccccc2[O-])cc1 (optimized conformer: 50.381687995305484 kcal/mol)

>  <smiles>  (14) 
O=C(Nc1ccccc1O)c1ccc(S(=O)(=O)NCCc2ccccc2O)cc1

>  <score_type>  (14) 
oracle

>  <origin>  (14) 
adg

>  <m_score__min__energy>  (14) 
-16.620000000000001

>  <m_primary>  (14) 
energy

$$$$
14:0
     RDKit          3D

 44 45  0  0  0  0  0  0  0  0999 V2000
   52.8417   23.6763   44.8194 H   0  0  0  0  0  0  0  0  0  0  0  0
   53.9170   23.9080   44.8260 C   0  0  0  0  0  0  0  0  0  0  0  0
   54.4320   24.7170   45.7890 N   0  0  0  0  0  0  0  0  0  0  0  0
   55.7580   25.0350   45.8350 C   0  0  0  0  0  0  0  0  0  0  0  0
   56.2340   25.8240   46.7560 N   0  0  0  0  0  0  0  0  0  0  0  0
   57.1150   26.9410   46.5540 C   0  0  0  0  0  0  0  0  0  0  0  0
   58.1360   27.1000   47.2780 O   0  0  0  0  0  0  0  0  0  0  0  0
   56.8270   27.8810   45.5090 N   0  0  0  0  0  0  0  0  0  0  0  0
   56.0500   27.6510   44.8480 H   0  0  0  0  0  0  0  0  0  0  0  0
   57.5910   29.1250   45.3530 C   0  0  2  0  0  0  0  0  0  0  0  0
   57.9234   29.4702   46.3432 H   0  0  0  0  0  0  0  0  0  0  0  0
   56.7050   30.1980   44.7720 C   0  0  0  0  0  0  0  0  0  0  0  0
   55.4910   29.9560   44.5320 O   0  0  0  0  0  0  0  0  0  0  0  0
   57.2330   31.5120   44.5630 N   0  0  0  0  0  0  0  0  0  0  0  0
   56.7190   32.6940   45.2450 C   0  0  0  0  0  0  0  0  0  0  0  0
   56.2890   33.3848   44.5048 H   0  0  0  0  0  0  0  0  0  0  0  0
   55.9428   32.3908   45.9630 H   0  0  0  0  0  0  0  0  0  0  0  0
   57.8370   33.3830   45.9820 C   0  0  0  0  0  0  0  0  0  0  0  0
   58.5960   34.3760   45.3390 C   0  0  0  0  0  0  0  0  0  0  0  0
   58.3350   34.6887   44.3172 H   0  0  0  0  0  0  0  0  0  0  0  0
   59.6810   34.9680   45.9920 C   0  0  0  0  0  0  0  0  0  0  0  0
   60.2695   35.7465   45.4844 H   0  0  0  0  0  0  0  0  0  0  0  0
   60.0190   34.5720   47.2890 C   0  0  0  0  0  0  0  0  0  0  0  0
   60.8734   35.0384   47.8013 H   0  0  0  0  0  0  0  0  0  0  0  0
   59.2720   33.5840   47.9350 C   0  0  0  0  0  0  0  0  0  0  0  0
   59.5390   33.2733   48.9559 H   0  0  0  0  0  0  0  0  0  0  0  0
   58.1850   32.9890   47.2860 C   0  0  0  0  0  0  0  0  0  0  0  0
   57.6005   32.2102   47.7976 H   0  0  0  0  0  0  0  0  0  0  0  0
   58.8940   28.8990   44.5330 C   0  0  0  0  0  0  0  0  0  0  0  0
   58.9481   29.7441   43.8309 H   0  0  0  0  0  0  0  0  0  0  0  0
   60.1770   28.9480   45.3800 C   0  0  0  0  0  0  0  0  0  0  0  0
   59.9122   28.9379   46.4476 H   0  0  0  0  0  0  0  0  0  0  0  0
   60.8025   28.0731   45.1491 H   0  0  0  0  0  0  0  0  0  0  0  0
   60.7339   29.8681   45.1491 H   0  0  0  0  0  0  0  0  0  0  0  0
   58.8320   27.5810   43.7470 C   0  0  0  0  0  0  0  0  0  0  0  0
   58.7923   26.7362   44.4503 H   0  0  0  0  0  0  0  0  0  0  0  0
   57.9325   27.5736   43.1139 H   0  0  0  0  0  0  0  0  0  0  0  0
   59.7268   27.4892   43.1139 H   0  0  0  0  0  0  0  0  0  0  0  0
   56.6230   24.5170   44.8630 C   0  0  0  0  0  0  0  0  0  0  0  0
   57.6940   24.7670   44.8836 H   0  0  0  0  0  0  0  0  0  0  0  0
   56.1140   23.6800   43.8670 C   0  0  0  0  0  0  0  0  0  0  0  0
   56.7852   23.2648   43.1008 H   0  0  0  0  0  0  0  0  0  0  0  0
   54.7530   23.3710   43.8450 C   0  0  0  0  0  0  0  0  0  0  0  0
   54.3441   22.7126   43.0645 H   0  0  0  0  0  0  0  0  0  0  0  0
  1  2  1  0
  2  3  1  0
  3  4  1  0
  4  5  2  0
  5  6  1  0
  6  7  2  0
  6  8  1  0
  8  9  1  0
  8 10  1  0
 10 11  1  1
 10 12  1  0
 12 13  2  0
 12 14  1  0
 14 15  1  0
 15 16  1  0
 15 17  1  0
 15 18  1  0
 18 19  2  0
 19 20  1  0
 19 21  1  0
 21 22  1  0
 21 23  2  0
 23 24  1  0
 23 25  1  0
 25 26  1  0
 25 27  2  0
 27 28  1  0
 10 29  1  0
 29 30  1  0
 29 31  1  0
 31 32  1  0
 31 33  1  0
 31 34  1  0
 29 35  1  0
 35 36  1  0
 35 37  1  0
 35 38  1  0
  4 39  1  0
 39 40  1  0
 39 41  2  0
 41 42  1  0
 41 43  1  0
 43 44  1  0
 43  2  2  0
 27 18  1  0
M  CHG  2   3  -1  14  -1
M  END
>  <UniqueID>  (15) 
14

>  <SMILES>  (15) 
CC(C)[C@H](NC(=O)/N=c1/cccc[n-]1)C(=O)[N-]Cc1ccccc1

>  <Energy>  (15) 
38.02908994648625

>  <Genealogy>  (15) 
CC(C)C(NC(=O)N=c1cccc[n-]1)C(=O)[N-]Cc1ccccc1 (protonated)
CC(C)[C@H](NC(=O)N=c1cccc[n-]1)C(=O)[N-]Cc1ccccc1 (chirality)
CC(C)[C@H](NC(=O)/N=c1/cccc[n-]1)C(=O)[N-]Cc1ccccc1 (cis-trans isomerization)
CC(C)[C@H](NC(=O)/N=c1/cccc[n-]1)C(=O)[N-]Cc1ccccc1 (3D coordinates assigned)
CC(C)[C@H](NC(=O)/N=c1/cccc[n-]1)C(=O)[N-]Cc1ccccc1 (optimized conformer: 38.02908994648625 kcal/mol)

>  <smiles>  (15) 
CC(C)C(NC(=O)N=c1cccc[nH]1)C(=O)NCc1ccccc1

>  <score_type>  (15) 
oracle

>  <origin>  (15) 
adg

>  <m_score__min__energy>  (15) 
-11.82

>  <m_primary>  (15) 
energy

$$$$
15:0
     RDKit          3D

 36 38  0  0  0  0  0  0  0  0999 V2000
   55.7040   26.9010   45.9950 O   0  0  0  0  0  0  0  0  0  0  0  0
   56.8160   27.2420   45.5170 C   0  0  0  0  0  0  0  0  0  0  0  0
   57.8700   26.3110   45.5490 N   0  0  0  0  0  0  0  0  0  0  0  0
   57.5810   25.0040   46.1460 C   0  0  0  0  0  0  0  0  0  0  0  0
   57.3610   23.9660   45.1280 C   0  0  0  0  0  0  0  0  0  0  0  0
   58.1730   22.8380   45.1530 C   0  0  0  0  0  0  0  0  0  0  0  0
   58.0250   21.8150   44.2230 C   0  0  0  0  0  0  0  0  0  0  0  0
   57.0410   21.9430   43.2630 C   0  0  0  0  0  0  0  0  0  0  0  0
   56.2140   23.0640   43.2150 C   0  0  0  0  0  0  0  0  0  0  0  0
   56.3870   24.0650   44.1540 C   0  0  0  0  0  0  0  0  0  0  0  0
   56.9340   28.5840   44.9590 C   0  0  0  0  0  0  0  0  0  0  0  0
   57.3780   29.6300   45.6800 N   0  0  0  0  0  0  0  0  0  0  0  0
   57.3810   30.7420   44.9070 C   0  0  0  0  0  0  0  0  0  0  0  0
   57.7930   32.0940   45.3060 C   0  0  0  0  0  0  0  0  0  0  0  0
   57.8500   33.1450   44.4130 C   0  0  0  0  0  0  0  0  0  0  0  0
   58.2530   34.3840   44.8940 C   0  0  0  0  0  0  0  0  0  0  0  0
   58.5900   34.5780   46.2210 C   0  0  0  0  0  0  0  0  0  0  0  0
   58.5360   33.5420   47.1090 C   0  0  0  0  0  0  0  0  0  0  0  0
   58.1340   32.3100   46.6250 C   0  0  0  0  0  0  0  0  0  0  0  0
   56.9190   30.3430   43.6710 C   0  0  0  0  0  0  0  0  0  0  0  0
   56.6530   29.0250   43.7230 N   0  0  0  0  0  0  0  0  0  0  0  0
   58.7970   26.5630   45.1620 H   0  0  0  0  0  0  0  0  0  0  0  0
   58.4314   24.7068   46.7772 H   0  0  0  0  0  0  0  0  0  0  0  0
   56.6582   25.0988   46.7372 H   0  0  0  0  0  0  0  0  0  0  0  0
   58.9506   22.7527   45.9264 H   0  0  0  0  0  0  0  0  0  0  0  0
   58.6744   20.9276   44.2513 H   0  0  0  0  0  0  0  0  0  0  0  0
   56.9068   21.1431   42.5200 H   0  0  0  0  0  0  0  0  0  0  0  0
   55.4359   23.1513   42.4424 H   0  0  0  0  0  0  0  0  0  0  0  0
   55.7389   24.9533   44.1244 H   0  0  0  0  0  0  0  0  0  0  0  0
   57.5848   33.0057   43.3546 H   0  0  0  0  0  0  0  0  0  0  0  0
   58.3056   35.2354   44.1995 H   0  0  0  0  0  0  0  0  0  0  0  0
   58.9041   35.5748   46.5640 H   0  0  0  0  0  0  0  0  0  0  0  0
   58.8016   33.6816   48.1673 H   0  0  0  0  0  0  0  0  0  0  0  0
   58.0839   31.4628   47.3248 H   0  0  0  0  0  0  0  0  0  0  0  0
   56.7898   30.9916   42.7920 H   0  0  0  0  0  0  0  0  0  0  0  0
   56.2860   28.4270   42.9420 H   0  0  0  0  0  0  0  0  0  0  0  0
  1  2  2  0
  2  3  1  0
  3  4  1  0
  4  5  1  0
  5  6  2  0
  6  7  1  0
  7  8  2  0
  8  9  1  0
  9 10  2  0
  2 11  1  0
 11 12  2  0
 12 13  1  0
 13 14  1  0
 14 15  2  0
 15 16  1  0
 16 17  2  0
 17 18  1  0
 18 19  2  0
 13 20  2  0
 20 21  1  0
 10  5  1  0
 21 11  1  0
 19 14  1  0
  3 22  1  0
  4 23  1  0
  4 24  1  0
  6 25  1  0
  7 26  1  0
  8 27  1  0
  9 28  1  0
 10 29  1  0
 15 30  1  0
 16 31  1  0
 17 32  1  0
 18 33  1  0
 19 34  1  0
 20 35  1  0
 21 36  1  0
M  END
>  <smiles>  (16) 
O=C(NCc1ccccc1)c1nc(-c2ccccc2)c[nH]1

>  <score_type>  (16) 
oracle

>  <origin>  (16) 
adg

>  <m_score__min__energy>  (16) 
-7.6900000000000004

>  <m_primary>  (16) 
energy

$$$$
16:0
     RDKit          3D

 33 34  0  0  0  0  0  0  0  0999 V2000
   56.7043   24.6577   46.3561 H   0  0  0  0  0  0  0  0  0  0  0  0
   57.2190   25.6200   46.4940 C   0  0  0  0  0  0  0  0  0  0  0  0
   58.1110   25.7710   47.5000 N   0  0  0  0  0  0  0  0  0  0  0  0
   58.7460   26.9500   47.7200 C   0  0  0  0  0  0  0  0  0  0  0  0
   59.4552   27.0352   48.5565 H   0  0  0  0  0  0  0  0  0  0  0  0
   58.5110   28.0660   46.8940 C   0  0  0  0  0  0  0  0  0  0  0  0
   59.0700   29.6400   47.5200 S   0  0  0  0  0  0  0  0  0  0  0  0
   58.5540   29.8290   48.9180 O   0  0  0  0  0  0  0  0  0  0  0  0
   60.5720   29.6550   47.5950 O   0  0  0  0  0  0  0  0  0  0  0  0
   58.5510   30.9680   46.5290 N   0  0  0  0  0  0  0  0  0  0  0  0
   58.0640   30.7330   45.6350 H   0  0  0  0  0  0  0  0  0  0  0  0
   58.9250   32.3320   46.7740 C   0  0  0  0  0  0  0  0  0  0  0  0
   58.8310   33.2700   45.7340 C   0  0  0  0  0  0  0  0  0  0  0  0
   58.4732   32.9532   44.7432 H   0  0  0  0  0  0  0  0  0  0  0  0
   59.1890   34.6040   45.9490 C   0  0  0  0  0  0  0  0  0  0  0  0
   59.1234   35.3301   45.1253 H   0  0  0  0  0  0  0  0  0  0  0  0
   59.6300   35.0160   47.2090 C   0  0  0  0  0  0  0  0  0  0  0  0
   59.9181   36.0645   47.3752 H   0  0  0  0  0  0  0  0  0  0  0  0
   59.7050   34.0960   48.2580 C   0  0  0  0  0  0  0  0  0  0  0  0
   60.0449   34.4223   49.2520 H   0  0  0  0  0  0  0  0  0  0  0  0
   59.3480   32.7600   48.0450 C   0  0  0  0  0  0  0  0  0  0  0  0
   59.3985   32.0409   48.8759 H   0  0  0  0  0  0  0  0  0  0  0  0
   57.6340   27.8980   45.7750 C   0  0  0  0  0  0  0  0  0  0  0  0
   57.4080   28.7900   44.8480 N   0  0  0  0  0  0  0  0  0  0  0  0
   56.3290   29.7190   44.7190 C   0  0  0  0  0  0  0  0  0  0  0  0
   55.1480   29.3400   44.9290 O   0  0  0  0  0  0  0  0  0  0  0  0
   56.5890   31.1070   44.5020 N   0  0  0  0  0  0  0  0  0  0  0  0
   57.3920   31.5880   43.3870 C   0  0  0  0  0  0  0  0  0  0  0  0
   58.2757   32.1173   43.7730 H   0  0  0  0  0  0  0  0  0  0  0  0
   57.7151   30.7346   42.7728 H   0  0  0  0  0  0  0  0  0  0  0  0
   56.7920   32.2756   42.7728 H   0  0  0  0  0  0  0  0  0  0  0  0
   56.9520   26.6800   45.6340 C   0  0  0  0  0  0  0  0  0  0  0  0
   56.2015   26.5627   44.8384 H   0  0  0  0  0  0  0  0  0  0  0  0
  1  2  1  0
  2  3  1  0
  3  4  1  0
  4  5  1  0
  4  6  2  0
  6  7  1  0
  7  8  2  0
  7  9  2  0
  7 10  1  0
 10 11  1  0
 10 12  1  0
 12 13  2  0
 13 14  1  0
 13 15  1  0
 15 16  1  0
 15 17  2  0
 17 18  1  0
 17 19  1  0
 19 20  1  0
 19 21  2  0
 21 22  1  0
  6 23  1  0
 23 24  2  0
 24 25  1  0
 25 26  2  0
 25 27  1  0
 27 28  1  0
 28 29  1  0
 28 30  1  0
 28 31  1  0
 23 32  1  0
 32 33  1  0
 32  2  2  0
 21 12  1  0
M  CHG  2   3  -1  27  -1
M  END
>  <UniqueID>  (17) 
15

>  <SMILES>  (17) 
C[N-]C(=O)/N=c1/cc[n-]cc1S(=O)(=O)Nc1ccccc1

>  <Energy>  (17) 
56.29830329630637

>  <Genealogy>  (17) 
C[N-]C(=O)N=c1cc[n-]cc1S(=O)(=O)Nc1ccccc1 (protonated)
C[N-]C(=O)/N=c1/cc[n-]cc1S(=O)(=O)Nc1ccccc1 (cis-trans isomerization)
C[N-]C(=O)/N=c1/cc[n-]cc1S(=O)(=O)Nc1ccccc1 (3D coordinates assigned)
C[N-]C(=O)/N=c1/cc[n-]cc1S(=O)(=O)Nc1ccccc1 (optimized conformer: 56.29830329630637 kcal/mol)

>  <smiles>  (17) 
CNC(=O)N=c1cc[nH]cc1S(=O)(=O)Nc1ccccc1

>  <score_type>  (17) 
oracle

>  <origin>  (17) 
adg

>  <m_score__min__energy>  (17) 
-10.59

>  <m_primary>  (17) 
energy

$$$$
17:0
     RDKit          3D

 69 74  0  0  0  0  0  0  0  0999 V2000
   60.4490   28.1930   50.9400 C   0  0  0  0  0  0  0  0  0  0  0  0
   60.8590   29.5900   50.7410 N   0  0  0  0  0  0  0  0  0  0  0  0
   61.2720   30.3930   51.7830 C   0  0  0  0  0  0  0  0  0  0  0  0
   61.3030   29.9520   52.9630 O   0  0  0  0  0  0  0  0  0  0  0  0
   61.6560   31.6870   51.5510 N   0  0  0  0  0  0  0  0  0  0  0  0
   61.6540   32.2270   50.3000 C   0  0  0  0  0  0  0  0  0  0  0  0
   62.0200   33.4180   50.1300 O   0  0  0  0  0  0  0  0  0  0  0  0
   61.2450   31.4170   49.2420 C   0  0  0  0  0  0  0  0  0  0  0  0
   60.8610   30.1330   49.4900 C   0  0  0  0  0  0  0  0  0  0  0  0
   60.4970   29.5330   48.3450 N   0  0  0  0  0  0  0  0  0  0  0  0
   60.6770   30.4910   47.4040 C   0  0  0  0  0  0  0  0  0  0  0  0
   60.4140   30.2690   46.0110 N   0  0  0  0  0  0  0  0  0  0  0  0
   61.1140   29.1750   45.3210 C   0  0  0  0  0  0  0  0  0  0  0  0
   60.1500   28.3930   44.4140 C   0  0  0  0  0  0  0  0  0  0  0  0
   58.8030   28.3990   45.0000 N   0  0  0  0  0  0  0  0  0  0  0  0
   58.2280   27.1960   45.5460 C   0  0  0  0  0  0  0  0  0  0  0  0
   58.0530   27.0610   46.9350 C   0  0  0  0  0  0  0  0  0  0  0  0
   57.4350   25.9260   47.4630 C   0  0  0  0  0  0  0  0  0  0  0  0
   56.9710   24.9140   46.6130 C   0  0  0  0  0  0  0  0  0  0  0  0
   56.2930   23.7260   47.1670 C   0  0  0  0  0  0  0  0  0  0  0  0
   56.9660   22.9610   48.1330 C   0  0  0  0  0  0  0  0  0  0  0  0
   56.3540   21.8440   48.7050 C   0  0  0  0  0  0  0  0  0  0  0  0
   55.0660   21.4790   48.3180 C   0  0  0  0  0  0  0  0  0  0  0  0
   54.3880   22.2230   47.3490 C   0  0  0  0  0  0  0  0  0  0  0  0
   54.9910   23.3430   46.7550 C   0  0  0  0  0  0  0  0  0  0  0  0
   54.1080   24.2190   45.4940 S   0  0  0  0  0  0  0  0  0  0  0  0
   54.3650   25.9210   45.6580 N   0  0  0  0  0  0  0  0  0  0  0  0
   54.5910   23.7780   44.1400 O   0  0  0  0  0  0  0  0  0  0  0  0
   52.6330   23.9510   45.6130 O   0  0  0  0  0  0  0  0  0  0  0  0
   57.1660   25.0310   45.2290 C   0  0  0  0  0  0  0  0  0  0  0  0
   57.7840   26.1670   44.6970 C   0  0  0  0  0  0  0  0  0  0  0  0
   57.9570   26.2580   43.3540 F   0  0  0  0  0  0  0  0  0  0  0  0
   58.1490   29.6930   45.2570 C   0  0  0  0  0  0  0  0  0  0  0  0
   59.1880   30.8120   45.4160 C   0  0  0  0  0  0  0  0  0  0  0  0
   61.1470   31.6630   47.9130 N   0  0  0  0  0  0  0  0  0  0  0  0
   61.3220   32.9260   47.1890 C   0  0  0  0  0  0  0  0  0  0  0  0
   59.9950   33.4140   46.6730 C   0  0  0  0  0  0  0  0  0  0  0  0
   58.8200   33.1700   47.4020 C   0  0  0  0  0  0  0  0  0  0  0  0
   57.5820   33.5850   46.9030 C   0  0  0  0  0  0  0  0  0  0  0  0
   57.5070   34.2400   45.6700 C   0  0  0  0  0  0  0  0  0  0  0  0
   56.3050   34.6410   45.1880 F   0  0  0  0  0  0  0  0  0  0  0  0
   58.6700   34.4800   44.9340 C   0  0  0  0  0  0  0  0  0  0  0  0
   59.9110   34.0680   45.4310 C   0  0  0  0  0  0  0  0  0  0  0  0
   60.3862   27.9792   52.0172 H   0  0  0  0  0  0  0  0  0  0  0  0
   59.4651   28.0300   50.4759 H   0  0  0  0  0  0  0  0  0  0  0  0
   61.1887   27.5241   50.4759 H   0  0  0  0  0  0  0  0  0  0  0  0
   60.1650   28.5530   48.2030 H   0  0  0  0  0  0  0  0  0  0  0  0
   61.9241   29.5961   44.7074 H   0  0  0  0  0  0  0  0  0  0  0  0
   61.5220   28.4871   46.0762 H   0  0  0  0  0  0  0  0  0  0  0  0
   60.1187   28.8649   43.4209 H   0  0  0  0  0  0  0  0  0  0  0  0
   60.5010   27.3548   44.3191 H   0  0  0  0  0  0  0  0  0  0  0  0
   58.4054   27.8550   47.6098 H   0  0  0  0  0  0  0  0  0  0  0  0
   57.3119   25.8260   48.5515 H   0  0  0  0  0  0  0  0  0  0  0  0
   57.9832   23.2439   48.4415 H   0  0  0  0  0  0  0  0  0  0  0  0
   56.8890   21.2516   49.4618 H   0  0  0  0  0  0  0  0  0  0  0  0
   54.5823   20.6037   48.7761 H   0  0  0  0  0  0  0  0  0  0  0  0
   53.3717   21.9283   47.0486 H   0  0  0  0  0  0  0  0  0  0  0  0
   53.4670   26.3350   45.9950 H   0  0  0  0  0  0  0  0  0  0  0  0
   56.8312   24.2254   44.5589 H   0  0  0  0  0  0  0  0  0  0  0  0
   57.4859   29.9349   44.4133 H   0  0  0  0  0  0  0  0  0  0  0  0
   57.5720   29.6151   46.1902 H   0  0  0  0  0  0  0  0  0  0  0  0
   59.4190   31.2392   44.4290 H   0  0  0  0  0  0  0  0  0  0  0  0
   58.7813   31.5955   46.0722 H   0  0  0  0  0  0  0  0  0  0  0  0
   61.7474   33.6791   47.8686 H   0  0  0  0  0  0  0  0  0  0  0  0
   62.0011   32.7629   46.3391 H   0  0  0  0  0  0  0  0  0  0  0  0
   58.8740   32.6501   48.3699 H   0  0  0  0  0  0  0  0  0  0  0  0
   56.6655   33.3960   47.4812 H   0  0  0  0  0  0  0  0  0  0  0  0
   58.6098   34.9933   43.9630 H   0  0  0  0  0  0  0  0  0  0  0  0
   60.8246   34.2563   44.8480 H   0  0  0  0  0  0  0  0  0  0  0  0
  1  2  1  0
  2  3  1  0
  3  4  2  0
  3  5  1  0
  5  6  1  0
  6  7  2  0
  6  8  1  0
  8  9  2  0
  9 10  1  0
 10 11  2  0
 11 12  1  0
 12 13  1  0
 13 14  1  0
 14 15  1  0
 15 16  1  0
 16 17  2  0
 17 18  1  0
 18 19  2  0
 19 20  1  0
 20 21  2  0
 21 22  1  0
 22 23  2  0
 23 24  1  0
 24 25  2  0
 25 26  1  0
 26 27  1  0
 26 28  2  0
 26 29  2  0
 19 30  1  0
 30 31  2  0
 31 32  1  0
 15 33  1  0
 33 34  1  0
 11 35  1  0
 35 36  1  0
 36 37  1  0
 37 38  2  0
 38 39  1  0
 39 40  2  0
 40 41  1  0
 40 42  1  0
 42 43  2  0
  9  2  1  0
 34 12  1  0
 43 37  1  0
 35  8  1  0
 31 16  1  0
 25 20  1  0
  1 44  1  0
  1 45  1  0
  1 46  1  0
 10 47  1  0
 13 48  1  0
 13 49  1  0
 14 50  1  0
 14 51  1  0
 17 52  1  0
 18 53  1  0
 21 54  1  0
 22 55  1  0
 23 56  1  0
 24 57  1  0
 27 58  1  0
 30 59  1  0
 33 60  1  0
 33 61  1  0
 34 62  1  0
 34 63  1  0
 36 64  1  0
 36 65  1  0
 38 66  1  0
 39 67  1  0
 42 68  1  0
 43 69  1  0
M  CHG  3   5  -1  10   1  27  -1
M  END
>  <UniqueID>  (18) 
16

>  <SMILES>  (18) 
Cn1c(=O)[n-]c(=O)c2c1[nH+]c(N1CCN(c3ccc(-c4ccccc4S([NH-])(=O)=O)cc3F)CC1)n2Cc1ccc(F)cc1

>  <Energy>  (18) 
139.88801513614698

>  <Genealogy>  (18) 
Cn1c(=O)[n-]c(=O)c2c1[nH+]c(N1CCN(c3ccc(-c4ccccc4S([NH-])(=O)=O)cc3F)CC1)n2Cc1ccc(F)cc1 (protonated)
Cn1c(=O)[n-]c(=O)c2c1[nH+]c(N1CCN(c3ccc(-c4ccccc4S([NH-])(=O)=O)cc3F)CC1)n2Cc1ccc(F)cc1 (3D coordinates assigned)
Cn1c(=O)[n-]c(=O)c2c1[nH+]c(N1CCN(c3ccc(-c4ccccc4S([NH-])(=O)=O)cc3F)CC1)n2Cc1ccc(F)cc1 (nonaromatic ring conformer: 139.88801513614698 kcal/mol)

>  <smiles>  (18) 
Cn1c(=O)[nH]c(=O)c2c1nc(N1CCN(c3ccc(-c4ccccc4S(N)(=O)=O)cc3F)CC1)n2Cc1ccc(F)cc1

>  <score_type>  (18) 
oracle

>  <origin>  (18) 
adg

>  <m_score__min__energy>  (18) 
-12.23

>  <m_primary>  (18) 
energy

$$$$
18:0
     RDKit          3D

 50 52  0  0  0  0  0  0  0  0999 V2000
   59.5280   22.2380   44.8670 C   0  0  0  0  0  0  0  0  0  0  0  0
   58.1370   22.0690   45.3900 C   0  0  0  0  0  0  0  0  0  0  0  0
   57.9700   21.5190   46.5110 O   0  0  0  0  0  0  0  0  0  0  0  0
   56.9640   22.5930   44.6660 C   0  0  0  0  0  0  0  0  0  0  0  0
   56.8400   22.5610   43.2890 C   0  0  0  0  0  0  0  0  0  0  0  0
   55.6200   23.1320   42.9900 C   0  0  0  0  0  0  0  0  0  0  0  0
   55.0520   23.5040   44.1910 C   0  0  0  0  0  0  0  0  0  0  0  0
   55.8690   23.1770   45.2140 N   0  0  0  0  0  0  0  0  0  0  0  0
   55.6360   23.5720   46.6070 C   0  0  0  0  0  0  0  0  0  0  0  0
   56.3930   24.8620   46.9590 C   0  0  0  0  0  0  0  0  0  0  0  0
   56.0040   26.0340   46.0920 C   0  0  0  0  0  0  0  0  0  0  0  0
   54.7900   26.3600   46.0040 O   0  0  0  0  0  0  0  0  0  0  0  0
   56.9470   26.6650   45.2140 N   0  0  0  0  0  0  0  0  0  0  0  0
   58.0080   27.5480   45.6030 C   0  0  0  0  0  0  0  0  0  0  0  0
   59.2080   27.0140   46.0990 C   0  0  0  0  0  0  0  0  0  0  0  0
   60.2330   27.8510   46.5380 C   0  0  0  0  0  0  0  0  0  0  0  0
   60.0640   29.2320   46.5090 C   0  0  0  0  0  0  0  0  0  0  0  0
   58.8660   29.7820   46.0500 C   0  0  0  0  0  0  0  0  0  0  0  0
   57.8180   28.9540   45.5980 C   0  0  0  0  0  0  0  0  0  0  0  0
   56.5600   29.5800   45.1110 C   0  0  0  0  0  0  0  0  0  0  0  0
   55.5290   28.8820   44.9060 O   0  0  0  0  0  0  0  0  0  0  0  0
   56.5160   30.9890   44.8590 N   0  0  0  0  0  0  0  0  0  0  0  0
   57.5630   31.7030   44.1410 C   0  0  0  0  0  0  0  0  0  0  0  0
   58.1040   32.7970   45.0130 C   0  0  0  0  0  0  0  0  0  0  0  0
   57.8230   32.8080   46.3890 C   0  0  0  0  0  0  0  0  0  0  0  0
   58.2850   33.8540   47.1950 C   0  0  0  0  0  0  0  0  0  0  0  0
   59.0210   34.9000   46.6300 C   0  0  0  0  0  0  0  0  0  0  0  0
   59.2940   34.9020   45.2590 C   0  0  0  0  0  0  0  0  0  0  0  0
   58.8330   33.8580   44.4510 C   0  0  0  0  0  0  0  0  0  0  0  0
   60.2290   22.3232   45.7104 H   0  0  0  0  0  0  0  0  0  0  0  0
   59.7973   21.3660   44.2530 H   0  0  0  0  0  0  0  0  0  0  0  0
   59.5807   23.1492   44.2530 H   0  0  0  0  0  0  0  0  0  0  0  0
   57.5711   22.1589   42.5722 H   0  0  0  0  0  0  0  0  0  0  0  0
   55.1848   23.2648   41.9885 H   0  0  0  0  0  0  0  0  0  0  0  0
   54.0742   23.9962   44.2991 H   0  0  0  0  0  0  0  0  0  0  0  0
   54.5588   23.7372   46.7566 H   0  0  0  0  0  0  0  0  0  0  0  0
   56.0024   22.7667   47.2607 H   0  0  0  0  0  0  0  0  0  0  0  0
   56.1806   25.1171   48.0077 H   0  0  0  0  0  0  0  0  0  0  0  0
   57.4628   24.6703   46.7893 H   0  0  0  0  0  0  0  0  0  0  0  0
   59.3410   25.9229   46.1417 H   0  0  0  0  0  0  0  0  0  0  0  0
   61.1752   27.4198   46.9072 H   0  0  0  0  0  0  0  0  0  0  0  0
   60.8762   29.8916   46.8485 H   0  0  0  0  0  0  0  0  0  0  0  0
   58.7379   30.8745   46.0408 H   0  0  0  0  0  0  0  0  0  0  0  0
   58.3728   31.0050   43.8821 H   0  0  0  0  0  0  0  0  0  0  0  0
   57.1478   32.1373   43.2196 H   0  0  0  0  0  0  0  0  0  0  0  0
   57.2372   31.9907   46.8349 H   0  0  0  0  0  0  0  0  0  0  0  0
   58.0692   33.8535   48.2736 H   0  0  0  0  0  0  0  0  0  0  0  0
   59.3853   35.7215   47.2644 H   0  0  0  0  0  0  0  0  0  0  0  0
   59.8722   35.7259   44.8152 H   0  0  0  0  0  0  0  0  0  0  0  0
   59.0421   33.8677   43.3711 H   0  0  0  0  0  0  0  0  0  0  0  0
  1  2  1  0
  2  3  2  0
  2  4  1  0
  4  5  2  0
  5  6  1  0
  6  7  2  0
  7  8  1  0
  8  9  1  0
  9 10  1  0
 10 11  1  0
 11 12  2  0
 11 13  1  0
 13 14  1  0
 14 15  2  0
 15 16  1  0
 16 17  2  0
 17 18  1  0
 18 19  2  0
 19 20  1  0
 20 21  2  0
 20 22  1  0
 22 23  1  0
 23 24  1  0
 24 25  2  0
 25 26  1  0
 26 27  2  0
 27 28  1  0
 28 29  2  0
  8  4  1  0
 19 14  1  0
 29 24  1  0
  1 30  1  0
  1 31  1  0
  1 32  1  0
  5 33  1  0
  6 34  1  0
  7 35  1  0
  9 36  1  0
  9 37  1  0
 10 38  1  0
 10 39  1  0
 15 40  1  0
 16 41  1  0
 17 42  1  0
 18 43  1  0
 23 44  1  0
 23 45  1  0
 25 46  1  0
 26 47  1  0
 27 48  1  0
 28 49  1  0
 29 50  1  0
M  CHG  2  13  -1  22  -1
M  END
>  <UniqueID>  (19) 
17

>  <SMILES>  (19) 
CC(=O)c1cccn1CCC(=O)[N-]c1ccccc1C(=O)[N-]Cc1ccccc1

>  <Energy>  (19) 
83.945641723394

>  <Genealogy>  (19) 
CC(=O)c1cccn1CCC(=O)[N-]c1ccccc1C(=O)[N-]Cc1ccccc1 (protonated)
CC(=O)c1cccn1CCC(=O)[N-]c1ccccc1C(=O)[N-]Cc1ccccc1 (3D coordinates assigned)
CC(=O)c1cccn1CCC(=O)[N-]c1ccccc1C(=O)[N-]Cc1ccccc1 (optimized conformer: 83.945641723394 kcal/mol)

>  <smiles>  (19) 
CC(=O)c1cccn1CCC(=O)Nc1ccccc1C(=O)NCc1ccccc1

>  <score_type>  (19) 
oracle

>  <origin>  (19) 
adg

>  <m_score__min__energy>  (19) 
-13.039999999999999

>  <m_primary>  (19) 
energy

$$$$
19:0
     RDKit          3D

 38 40  0  0  0  0  0  0  0  0999 V2000
   61.1582   27.1637   46.0891 H   0  0  0  0  0  0  0  0  0  0  0  0
   60.2150   27.6680   45.8320 C   0  0  0  0  0  0  0  0  0  0  0  0
   59.0270   27.2920   46.4640 C   0  0  0  0  0  0  0  0  0  0  0  0
   59.0359   26.4910   47.2179 H   0  0  0  0  0  0  0  0  0  0  0  0
   57.8270   27.9320   46.1400 C   0  0  0  0  0  0  0  0  0  0  0  0
   56.8953   27.6314   46.6416 H   0  0  0  0  0  0  0  0  0  0  0  0
   57.8020   28.9590   45.1760 C   0  0  0  0  0  0  0  0  0  0  0  0
   56.5310   29.6380   44.8320 C   0  0  0  0  0  0  0  0  0  0  0  0
   55.4480   28.9880   44.8530 O   0  0  0  0  0  0  0  0  0  0  0  0
   56.5360   31.0310   44.4740 N   0  0  0  0  0  0  0  0  0  0  0  0
   57.2830   31.9540   45.0020 C   0  0  0  0  0  0  0  0  0  0  0  0
   57.7740   31.9250   46.2570 N   0  0  0  0  0  0  0  0  0  0  0  0
   58.4860   33.0300   46.4200 N   0  0  0  0  0  0  0  0  0  0  0  0
   59.2280   33.3300   47.6440 C   0  0  0  0  0  0  0  0  0  0  0  0
   59.1970   34.4137   47.8301 H   0  0  0  0  0  0  0  0  0  0  0  0
   58.7659   32.7887   48.4827 H   0  0  0  0  0  0  0  0  0  0  0  0
   60.6670   32.8890   47.5100 C   0  0  0  0  0  0  0  0  0  0  0  0
   61.6240   33.8360   47.1030 C   0  0  0  0  0  0  0  0  0  0  0  0
   61.3113   34.8677   46.8843 H   0  0  0  0  0  0  0  0  0  0  0  0
   62.9680   33.4780   46.9740 C   0  0  0  0  0  0  0  0  0  0  0  0
   63.7082   34.2282   46.6589 H   0  0  0  0  0  0  0  0  0  0  0  0
   63.3730   32.1710   47.2440 C   0  0  0  0  0  0  0  0  0  0  0  0
   64.4324   31.8921   47.1447 H   0  0  0  0  0  0  0  0  0  0  0  0
   62.4350   31.2170   47.6400 C   0  0  0  0  0  0  0  0  0  0  0  0
   62.7591   30.1869   47.8493 H   0  0  0  0  0  0  0  0  0  0  0  0
   61.0840   31.5610   47.7730 C   0  0  0  0  0  0  0  0  0  0  0  0
   59.9600   30.2960   48.2620 Cl  0  0  0  0  0  0  0  0  0  0  0  0
   58.4560   33.7590   45.2810 C   0  0  0  0  0  0  0  0  0  0  0  0
   59.1890   35.0440   45.0530 C   0  0  0  0  0  0  0  0  0  0  0  0
   59.4468   35.4960   46.0221 H   0  0  0  0  0  0  0  0  0  0  0  0
   60.1096   34.8452   44.4847 H   0  0  0  0  0  0  0  0  0  0  0  0
   58.5493   35.7352   44.4847 H   0  0  0  0  0  0  0  0  0  0  0  0
   57.6900   33.0950   44.3430 C   0  0  0  0  0  0  0  0  0  0  0  0
   57.4589   33.4036   43.3128 H   0  0  0  0  0  0  0  0  0  0  0  0
   59.0070   29.3270   44.5460 C   0  0  0  0  0  0  0  0  0  0  0  0
   59.0058   30.1263   43.7902 H   0  0  0  0  0  0  0  0  0  0  0  0
   60.2050   28.6840   44.8740 C   0  0  0  0  0  0  0  0  0  0  0  0
   61.1407   28.9790   44.3766 H   0  0  0  0  0  0  0  0  0  0  0  0
  1  2  1  0
  2  3  2  0
  3  4  1  0
  3  5  1  0
  5  6  1  0
  5  7  2  0
  7  8  1  0
  8  9  2  0
  8 10  1  0
 10 11  2  0
 11 12  1  0
 12 13  1  0
 13 14  1  0
 14 15  1  0
 14 16  1  0
 14 17  1  0
 17 18  2  0
 18 19  1  0
 18 20  1  0
 20 21  1  0
 20 22  2  0
 22 23  1  0
 22 24  1  0
 24 25  1  0
 24 26  2  0
 26 27  1  0
 13 28  1  0
 28 29  1  0
 29 30  1  0
 29 31  1  0
 29 32  1  0
 28 33  2  0
 33 34  1  0
  7 35  1  0
 35 36  1  0
 35 37  2  0
 37 38  1  0
 37  2  1  0
 33 11  1  0
 26 17  1  0
M  CHG  1  12  -1
M  END
>  <UniqueID>  (20) 
18

>  <SMILES>  (20) 
Cc1c/c(=N/C(=O)c2ccccc2)[n-]n1Cc1ccccc1Cl

>  <Energy>  (20) 
73.22298880712788

>  <Genealogy>  (20) 
Cc1cc(=NC(=O)c2ccccc2)[n-]n1Cc1ccccc1Cl (protonated)
Cc1c/c(=N/C(=O)c2ccccc2)[n-]n1Cc1ccccc1Cl (cis-trans isomerization)
Cc1c/c(=N/C(=O)c2ccccc2)[n-]n1Cc1ccccc1Cl (3D coordinates assigned)
Cc1c/c(=N/C(=O)c2ccccc2)[n-]n1Cc1ccccc1Cl (optimized conformer: 73.22298880712788 kcal/mol)

>  <smiles>  (20) 
Cc1cc(=NC(=O)c2ccccc2)[nH]n1Cc1ccccc1Cl

>  <score_type>  (20) 
oracle

>  <origin>  (20) 
adg

>  <m_score__min__energy>  (20) 
-9.9900000000000002

>  <m_primary>  (20) 
energy

$$$$
20:0
     RDKit          3D

 51 54  0  0  0  0  0  0  0  0999 V2000
   67.1810   34.4230   51.8550 C   0  0  0  0  0  0  0  0  0  0  0  0
   66.5690   33.2960   51.1590 N   0  0  0  0  0  0  0  0  0  0  0  0
   65.2640   33.3480   50.5530 C   0  0  0  0  0  0  0  0  0  0  0  0
   64.9400   32.5720   49.4230 C   0  0  0  0  0  0  0  0  0  0  0  0
   63.6650   32.6500   48.8540 C   0  0  0  0  0  0  0  0  0  0  0  0
   62.6990   33.5050   49.4000 C   0  0  0  0  0  0  0  0  0  0  0  0
   61.1000   33.6370   48.6780 S   0  0  0  0  0  0  0  0  0  0  0  0
   60.2120   34.5280   49.4990 O   0  0  0  0  0  0  0  0  0  0  0  0
   61.2330   34.2220   47.3000 O   0  0  0  0  0  0  0  0  0  0  0  0
   60.3880   32.0610   48.5810 N   0  0  0  0  0  0  0  0  0  0  0  0
   60.4190   31.0710   49.6540 C   0  0  0  0  0  0  0  0  0  0  0  0
   59.5250   29.9010   49.1730 C   0  0  0  0  0  0  0  0  0  0  0  0
   59.0190   30.3710   47.8510 C   0  0  0  0  0  0  0  0  0  0  0  0
   58.1460   29.7170   46.9810 C   0  0  0  0  0  0  0  0  0  0  0  0
   57.8000   30.3460   45.7650 C   0  0  0  0  0  0  0  0  0  0  0  0
   56.8820   29.6700   44.8190 C   0  0  0  0  0  0  0  0  0  0  0  0
   56.8790   30.0170   43.6070 O   0  0  0  0  0  0  0  0  0  0  0  0
   56.0260   28.5940   45.2260 N   0  0  0  0  0  0  0  0  0  0  0  0
   56.4470   27.2750   45.6030 C   0  0  0  0  0  0  0  0  0  0  0  0
   57.8080   26.9560   45.5510 C   0  0  0  0  0  0  0  0  0  0  0  0
   58.2520   25.6790   45.9080 C   0  0  0  0  0  0  0  0  0  0  0  0
   57.3330   24.6930   46.3100 C   0  0  0  0  0  0  0  0  0  0  0  0
   57.7980   23.3420   46.6980 C   0  0  0  0  0  0  0  0  0  0  0  0
   58.5690   22.6890   45.9450 O   0  0  0  0  0  0  0  0  0  0  0  0
   57.3930   22.7770   47.9020 O   0  0  0  0  0  0  0  0  0  0  0  0
   55.9640   25.0060   46.3350 C   0  0  0  0  0  0  0  0  0  0  0  0
   55.5220   26.2830   45.9760 C   0  0  0  0  0  0  0  0  0  0  0  0
   58.3230   31.6300   45.4750 C   0  0  0  0  0  0  0  0  0  0  0  0
   59.2000   32.2620   46.3690 C   0  0  0  0  0  0  0  0  0  0  0  0
   59.5320   31.6010   47.5520 C   0  0  0  0  0  0  0  0  0  0  0  0
   63.0170   34.2800   50.5210 C   0  0  0  0  0  0  0  0  0  0  0  0
   64.2880   34.2000   51.0960 C   0  0  0  0  0  0  0  0  0  0  0  0
   67.0987   34.2715   52.9414 H   0  0  0  0  0  0  0  0  0  0  0  0
   68.2421   34.4950   51.5741 H   0  0  0  0  0  0  0  0  0  0  0  0
   66.6635   35.3522   51.5741 H   0  0  0  0  0  0  0  0  0  0  0  0
   67.1120   32.4050   51.1130 H   0  0  0  0  0  0  0  0  0  0  0  0
   65.6940   31.9010   48.9858 H   0  0  0  0  0  0  0  0  0  0  0  0
   63.4196   32.0374   47.9740 H   0  0  0  0  0  0  0  0  0  0  0  0
   61.4483   30.7221   49.8239 H   0  0  0  0  0  0  0  0  0  0  0  0
   60.0591   31.4919   50.6044 H   0  0  0  0  0  0  0  0  0  0  0  0
   60.1117   28.9770   49.0636 H   0  0  0  0  0  0  0  0  0  0  0  0
   58.7175   29.6598   49.8800 H   0  0  0  0  0  0  0  0  0  0  0  0
   57.7348   28.7295   47.2376 H   0  0  0  0  0  0  0  0  0  0  0  0
   58.5346   27.7156   45.2268 H   0  0  0  0  0  0  0  0  0  0  0  0
   59.3261   25.4442   45.8743 H   0  0  0  0  0  0  0  0  0  0  0  0
   55.2344   24.2411   46.6392 H   0  0  0  0  0  0  0  0  0  0  0  0
   54.4463   26.5129   45.9853 H   0  0  0  0  0  0  0  0  0  0  0  0
   58.0390   32.1360   44.5405 H   0  0  0  0  0  0  0  0  0  0  0  0
   59.6160   33.2549   46.1428 H   0  0  0  0  0  0  0  0  0  0  0  0
   62.2629   34.9553   50.9515 H   0  0  0  0  0  0  0  0  0  0  0  0
   64.5261   34.8089   51.9806 H   0  0  0  0  0  0  0  0  0  0  0  0
  1  2  1  0
  2  3  1  0
  3  4  2  0
  4  5  1  0
  5  6  2  0
  6  7  1  0
  7  8  2  0
  7  9  2  0
  7 10  1  0
 10 11  1  0
 11 12  1  0
 12 13  1  0
 13 14  2  0
 14 15  1  0
 15 16  1  0
 16 17  2  0
 16 18  1  0
 18 19  1  0
 19 20  2  0
 20 21  1  0
 21 22  2  0
 22 23  1  0
 23 24  2  0
 23 25  1  0
 22 26  1  0
 26 27  2  0
 15 28  2  0
 28 29  1  0
 29 30  2  0
  6 31  1  0
 31 32  2  0
 32  3  1  0
 30 10  1  0
 30 13  1  0
 27 19  1  0
  1 33  1  0
  1 34  1  0
  1 35  1  0
  2 36  1  0
  4 37  1  0
  5 38  1  0
 11 39  1  0
 11 40  1  0
 12 41  1  0
 12 42  1  0
 14 43  1  0
 20 44  1  0
 21 45  1  0
 26 46  1  0
 27 47  1  0
 28 48  1  0
 29 49  1  0
 31 50  1  0
 32 51  1  0
M  CHG  2  18  -1  25  -1
M  END
>  <UniqueID>  (21) 
19

>  <SMILES>  (21) 
CNc1ccc(S(=O)(=O)N2CCc3cc(C(=O)[N-]c4ccc(C(=O)[O-])cc4)ccc32)cc1

>  <Energy>  (21) 
76.0795462290629

>  <Genealogy>  (21) 
CNc1ccc(S(=O)(=O)N2CCc3cc(C(=O)[N-]c4ccc(C(=O)[O-])cc4)ccc32)cc1 (protonated)
CNc1ccc(S(=O)(=O)N2CCc3cc(C(=O)[N-]c4ccc(C(=O)[O-])cc4)ccc32)cc1 (3D coordinates assigned)
CNc1ccc(S(=O)(=O)N2CCc3cc(C(=O)[N-]c4ccc(C(=O)[O-])cc4)ccc32)cc1 (nonaromatic ring conformer: 76.0795462290629 kcal/mol)

>  <smiles>  (21) 
CNc1ccc(S(=O)(=O)N2CCc3cc(C(=O)Nc4ccc(C(=O)O)cc4)ccc32)cc1

>  <score_type>  (21) 
oracle

>  <origin>  (21) 
adg

>  <m_score__min__energy>  (21) 
-13.390000000000001

>  <m_primary>  (21) 
energy

$$$$
21:0
     RDKit          3D

 32 33  0  0  0  0  0  0  0  0999 V2000
   57.3680   31.0520   52.0600 C   0  0  0  0  0  0  0  0  0  0  0  0
   57.6510   30.0740   51.0650 O   0  0  0  0  0  0  0  0  0  0  0  0
   58.5420   30.2630   49.9990 C   0  0  0  0  0  0  0  0  0  0  0  0
   58.8490   31.5380   49.4890 C   0  0  0  0  0  0  0  0  0  0  0  0
   59.7430   31.6720   48.4230 C   0  0  0  0  0  0  0  0  0  0  0  0
   60.3390   30.5420   47.8580 C   0  0  0  0  0  0  0  0  0  0  0  0
   60.0430   29.2620   48.3600 C   0  0  0  0  0  0  0  0  0  0  0  0
   60.6360   28.0740   47.8180 N   0  0  0  0  0  0  0  0  0  0  0  0
   60.2420   27.3730   46.2820 S   0  0  0  0  0  0  0  0  0  0  0  0
   61.2540   27.8180   45.2640 O   0  0  0  0  0  0  0  0  0  0  0  0
   60.2920   25.8750   46.3990 O   0  0  0  0  0  0  0  0  0  0  0  0
   58.6440   27.9030   45.7660 C   0  0  0  0  0  0  0  0  0  0  0  0
   57.5260   27.1080   46.0340 C   0  0  0  0  0  0  0  0  0  0  0  0
   56.2570   27.5160   45.6190 C   0  0  0  0  0  0  0  0  0  0  0  0
   55.1550   26.7120   45.8870 O   0  0  0  0  0  0  0  0  0  0  0  0
   56.0930   28.7270   44.9350 C   0  0  0  0  0  0  0  0  0  0  0  0
   54.8160   29.0970   44.5280 O   0  0  0  0  0  0  0  0  0  0  0  0
   57.2120   29.5480   44.6640 C   0  0  0  0  0  0  0  0  0  0  0  0
   57.0740   30.8050   43.9670 N   0  0  0  0  0  0  0  0  0  0  0  0
   57.3230   30.8800   42.7460 O   0  0  0  0  0  0  0  0  0  0  0  0
   56.6910   31.9490   44.6280 O   0  0  0  0  0  0  0  0  0  0  0  0
   58.4850   29.1170   45.0880 C   0  0  0  0  0  0  0  0  0  0  0  0
   59.1450   29.1350   49.4270 C   0  0  0  0  0  0  0  0  0  0  0  0
   57.4966   30.6076   53.0580 H   0  0  0  0  0  0  0  0  0  0  0  0
   58.0571   31.9017   51.9454 H   0  0  0  0  0  0  0  0  0  0  0  0
   56.3316   31.4024   51.9454 H   0  0  0  0  0  0  0  0  0  0  0  0
   58.3841   32.4318   49.9305 H   0  0  0  0  0  0  0  0  0  0  0  0
   59.9782   32.6711   48.0274 H   0  0  0  0  0  0  0  0  0  0  0  0
   61.0413   30.6535   47.0187 H   0  0  0  0  0  0  0  0  0  0  0  0
   57.6465   26.1573   46.5740 H   0  0  0  0  0  0  0  0  0  0  0  0
   59.3658   29.7434   44.8833 H   0  0  0  0  0  0  0  0  0  0  0  0
   58.9097   28.1356   49.8216 H   0  0  0  0  0  0  0  0  0  0  0  0
  1  2  1  0
  2  3  1  0
  3  4  2  0
  4  5  1  0
  5  6  2  0
  6  7  1  0
  7  8  1  0
  8  9  1  0
  9 10  2  0
  9 11  2  0
  9 12  1  0
 12 13  2  0
 13 14  1  0
 14 15  1  0
 14 16  2  0
 16 17  1  0
 16 18  1  0
 18 19  1  0
 19 20  2  0
 19 21  1  0
 18 22  2  0
  7 23  2  0
 23  3  1  0
 22 12  1  0
  1 24  1  0
  1 25  1  0
  1 26  1  0
  4 27  1  0
  5 28  1  0
  6 29  1  0
 13 30  1  0
 22 31  1  0
 23 32  1  0
M  CHG  5   8  -1  15  -1  17  -1  19   1  21  -1
M  END
>  <UniqueID>  (22) 
20

>  <SMILES>  (22) 
COc1cccc([N-]S(=O)(=O)c2cc([O-])c([O-])c([N+](=O)[O-])c2)c1

>  <Energy>  (22) 
38.49084702745762

>  <Genealogy>  (22) 
COc1cccc([N-]S(=O)(=O)c2cc([O-])c([O-])c([N+](=O)[O-])c2)c1 (protonated)
COc1cccc([N-]S(=O)(=O)c2cc([O-])c([O-])c([N+](=O)[O-])c2)c1 (3D coordinates assigned)
COc1cccc([N-]S(=O)(=O)c2cc([O-])c([O-])c([N+](=O)[O-])c2)c1 (optimized conformer: 38.49084702745762 kcal/mol)

>  <smiles>  (22) 
COc1cccc(NS(=O)(=O)c2cc(O)c(O)c([N+](=O)[O-])c2)c1

>  <score_type>  (22) 
oracle

>  <origin>  (22) 
adg

>  <m_score__min__energy>  (22) 
-16.399999999999999

>  <m_primary>  (22) 
energy

$$$$
22:0
     RDKit          3D

 32 33  0  0  0  0  0  0  0  0999 V2000
   56.1030   24.8680   46.9270 O   0  0  0  0  0  0  0  0  0  0  0  0
   56.2450   26.0510   46.5180 C   0  0  0  0  0  0  0  0  0  0  0  0
   55.1370   26.7170   46.0060 O   0  0  0  0  0  0  0  0  0  0  0  0
   57.5800   26.7030   46.5740 C   0  0  0  0  0  0  0  0  0  0  0  0
   57.7740   27.9830   46.1870 C   0  0  0  0  0  0  0  0  0  0  0  0
   56.6860   28.7440   45.7290 O   0  0  0  0  0  0  0  0  0  0  0  0
   56.6230   29.5770   44.2350 S   0  0  0  0  0  0  0  0  0  0  0  0
   57.2750   28.7340   43.1730 O   0  0  0  0  0  0  0  0  0  0  0  0
   55.1870   29.8100   43.8610 O   0  0  0  0  0  0  0  0  0  0  0  0
   57.4390   31.1300   44.3750 C   0  0  0  0  0  0  0  0  0  0  0  0
   57.7650   31.8690   43.2290 C   0  0  0  0  0  0  0  0  0  0  0  0
   58.4240   33.0970   43.3490 C   0  0  0  0  0  0  0  0  0  0  0  0
   58.7570   33.5920   44.6130 C   0  0  0  0  0  0  0  0  0  0  0  0
   58.4290   32.8600   45.7590 C   0  0  0  0  0  0  0  0  0  0  0  0
   57.7690   31.6340   45.6410 C   0  0  0  0  0  0  0  0  0  0  0  0
   59.1650   28.5720   46.3180 C   0  0  0  0  0  0  0  0  0  0  0  0
   60.2260   27.5820   45.8170 C   0  0  0  0  0  0  0  0  0  0  0  0
   60.0290   26.1410   46.3420 C   0  0  0  0  0  0  0  0  0  0  0  0
   58.7490   25.9490   47.1740 C   0  0  0  0  0  0  0  0  0  0  0  0
   57.5020   31.4823   42.2334 H   0  0  0  0  0  0  0  0  0  0  0  0
   58.6803   33.6735   42.4479 H   0  0  0  0  0  0  0  0  0  0  0  0
   59.2768   34.5569   44.7066 H   0  0  0  0  0  0  0  0  0  0  0  0
   58.6908   33.2498   46.7538 H   0  0  0  0  0  0  0  0  0  0  0  0
   57.5076   31.0627   46.5439 H   0  0  0  0  0  0  0  0  0  0  0  0
   59.2233   29.4950   45.7224 H   0  0  0  0  0  0  0  0  0  0  0  0
   59.3577   28.7880   47.3792 H   0  0  0  0  0  0  0  0  0  0  0  0
   60.1883   27.5593   44.7179 H   0  0  0  0  0  0  0  0  0  0  0  0
   61.1972   27.9324   46.1966 H   0  0  0  0  0  0  0  0  0  0  0  0
   59.9859   25.4609   45.4785 H   0  0  0  0  0  0  0  0  0  0  0  0
   60.8775   25.9255   47.0080 H   0  0  0  0  0  0  0  0  0  0  0  0
   58.5030   24.8775   47.2097 H   0  0  0  0  0  0  0  0  0  0  0  0
   58.9316   26.3421   48.1850 H   0  0  0  0  0  0  0  0  0  0  0  0
  1  2  2  0
  2  3  1  0
  2  4  1  0
  4  5  2  0
  5  6  1  0
  6  7  1  0
  7  8  2  0
  7  9  2  0
  7 10  1  0
 10 11  2  0
 11 12  1  0
 12 13  2  0
 13 14  1  0
 14 15  2  0
  5 16  1  0
 16 17  1  0
 17 18  1  0
 18 19  1  0
 19  4  1  0
 15 10  1  0
 11 20  1  0
 12 21  1  0
 13 22  1  0
 14 23  1  0
 15 24  1  0
 16 25  1  0
 16 26  1  0
 17 27  1  0
 17 28  1  0
 18 29  1  0
 18 30  1  0
 19 31  1  0
 19 32  1  0
M  CHG  1   3  -1
M  END
>  <UniqueID>  (23) 
21

>  <SMILES>  (23) 
O=C([O-])C1=C(OS(=O)(=O)c2ccccc2)CCCC1

>  <Energy>  (23) 
35.95720016905874

>  <Genealogy>  (23) 
O=C([O-])C1=C(OS(=O)(=O)c2ccccc2)CCCC1 (protonated)
O=C([O-])C1=C(OS(=O)(=O)c2ccccc2)CCCC1 (3D coordinates assigned)
O=C([O-])C1=C(OS(=O)(=O)c2ccccc2)CCCC1 (nonaromatic ring conformer: 35.95720016905874 kcal/mol)

>  <smiles>  (23) 
O=C(O)C1=C(OS(=O)(=O)c2ccccc2)CCCC1

>  <score_type>  (23) 
oracle

>  <origin>  (23) 
adg

>  <m_score__min__energy>  (23) 
-10.77

>  <m_primary>  (23) 
energy

$$$$
23:0
     RDKit          3D

 54 56  0  0  0  0  0  0  0  0999 V2000
   57.8340   27.8070   43.4820 C   0  0  0  0  0  0  0  0  0  0  0  0
   58.2830   28.0370   44.9010 C   0  0  0  0  0  0  0  0  0  0  0  0
   59.2760   27.2070   45.4500 C   0  0  0  0  0  0  0  0  0  0  0  0
   59.7280   27.4100   46.7560 C   0  0  0  0  0  0  0  0  0  0  0  0
   59.1990   28.4470   47.5250 C   0  0  0  0  0  0  0  0  0  0  0  0
   58.2060   29.2740   46.9970 C   0  0  0  0  0  0  0  0  0  0  0  0
   57.7200   29.0590   45.7010 C   0  0  0  0  0  0  0  0  0  0  0  0
   56.6870   29.9180   45.2060 N   0  0  0  0  0  0  0  0  0  0  0  0
   56.8810   30.8470   44.1350 C   0  0  0  0  0  0  0  0  0  0  0  0
   56.2350   30.7160   43.0590 O   0  0  0  0  0  0  0  0  0  0  0  0
   57.8090   32.0080   44.3390 C   0  0  0  0  0  0  0  0  0  0  0  0
   57.2140   33.0310   45.2330 N   0  0  0  0  0  0  0  0  0  0  0  0
   57.7100   34.3730   44.8720 C   0  0  0  0  0  0  0  0  0  0  0  0
   57.5280   32.7550   46.6500 C   0  0  0  0  0  0  0  0  0  0  0  0
   58.9190   33.2070   46.9850 C   0  0  0  0  0  0  0  0  0  0  0  0
   59.0860   34.3140   47.5670 O   0  0  0  0  0  0  0  0  0  0  0  0
   60.0390   32.3510   46.7070 N   0  0  0  0  0  0  0  0  0  0  0  0
   61.3900   32.6690   47.0730 C   0  0  0  0  0  0  0  0  0  0  0  0
   62.0430   33.7630   46.4790 C   0  0  0  0  0  0  0  0  0  0  0  0
   63.3600   34.0740   46.8270 C   0  0  0  0  0  0  0  0  0  0  0  0
   64.0390   33.2950   47.7670 C   0  0  0  0  0  0  0  0  0  0  0  0
   63.4010   32.2040   48.3600 C   0  0  0  0  0  0  0  0  0  0  0  0
   62.0870   31.8700   48.0050 C   0  0  0  0  0  0  0  0  0  0  0  0
   61.2930   30.4820   48.8340 S   0  0  0  0  0  0  0  0  0  0  0  0
   60.2000   31.5170   49.8150 C   0  0  0  0  0  0  0  0  0  0  0  0
   60.6750   32.6970   50.4020 C   0  0  0  0  0  0  0  0  0  0  0  0
   59.8270   33.4820   51.1890 C   0  0  0  0  0  0  0  0  0  0  0  0
   58.5050   33.0830   51.4040 C   0  0  0  0  0  0  0  0  0  0  0  0
   58.0370   31.8900   50.8440 C   0  0  0  0  0  0  0  0  0  0  0  0
   58.8810   31.1070   50.0510 C   0  0  0  0  0  0  0  0  0  0  0  0
   56.8550   27.3055   43.4839 H   0  0  0  0  0  0  0  0  0  0  0  0
   57.7501   28.7731   42.9628 H   0  0  0  0  0  0  0  0  0  0  0  0
   58.5690   27.1744   42.9628 H   0  0  0  0  0  0  0  0  0  0  0  0
   59.7004   26.3912   44.8463 H   0  0  0  0  0  0  0  0  0  0  0  0
   60.5015   26.7518   47.1785 H   0  0  0  0  0  0  0  0  0  0  0  0
   59.5650   28.6132   48.5489 H   0  0  0  0  0  0  0  0  0  0  0  0
   57.8028   30.0993   47.6022 H   0  0  0  0  0  0  0  0  0  0  0  0
   58.7448   31.6427   44.7873 H   0  0  0  0  0  0  0  0  0  0  0  0
   57.9982   32.4737   43.3606 H   0  0  0  0  0  0  0  0  0  0  0  0
   57.9212   34.9445   45.7879 H   0  0  0  0  0  0  0  0  0  0  0  0
   58.6317   34.2761   44.2795 H   0  0  0  0  0  0  0  0  0  0  0  0
   56.9468   34.8988   44.2795 H   0  0  0  0  0  0  0  0  0  0  0  0
   56.8109   33.2907   47.2893 H   0  0  0  0  0  0  0  0  0  0  0  0
   57.4584   31.6708   46.8220 H   0  0  0  0  0  0  0  0  0  0  0  0
   59.8430   31.4050   46.3140 H   0  0  0  0  0  0  0  0  0  0  0  0
   61.5141   34.3778   45.7359 H   0  0  0  0  0  0  0  0  0  0  0  0
   63.8630   34.9336   46.3600 H   0  0  0  0  0  0  0  0  0  0  0  0
   65.0758   33.5411   48.0398 H   0  0  0  0  0  0  0  0  0  0  0  0
   63.9334   31.6022   49.1112 H   0  0  0  0  0  0  0  0  0  0  0  0
   61.7184   33.0069   50.2432 H   0  0  0  0  0  0  0  0  0  0  0  0
   60.2004   34.4137   51.6390 H   0  0  0  0  0  0  0  0  0  0  0  0
   57.8336   33.7064   52.0128 H   0  0  0  0  0  0  0  0  0  0  0  0
   57.0018   31.5668   51.0281 H   0  0  0  0  0  0  0  0  0  0  0  0
   58.5097   30.1691   49.6123 H   0  0  0  0  0  0  0  0  0  0  0  0
  1  2  1  0
  2  3  2  0
  3  4  1  0
  4  5  2  0
  5  6  1  0
  6  7  2  0
  7  8  1  0
  8  9  1  0
  9 10  2  0
  9 11  1  0
 11 12  1  0
 12 13  1  0
 12 14  1  0
 14 15  1  0
 15 16  2  0
 15 17  1  0
 17 18  1  0
 18 19  2  0
 19 20  1  0
 20 21  2  0
 21 22  1  0
 22 23  2  0
 23 24  1  0
 24 25  1  0
 25 26  2  0
 26 27  1  0
 27 28  2  0
 28 29  1  0
 29 30  2  0
  7  2  1  0
 23 18  1  0
 30 25  1  0
  1 31  1  0
  1 32  1  0
  1 33  1  0
  3 34  1  0
  4 35  1  0
  5 36  1  0
  6 37  1  0
 11 38  1  0
 11 39  1  0
 13 40  1  0
 13 41  1  0
 13 42  1  0
 14 43  1  0
 14 44  1  0
 17 45  1  0
 19 46  1  0
 20 47  1  0
 21 48  1  0
 22 49  1  0
 26 50  1  0
 27 51  1  0
 28 52  1  0
 29 53  1  0
 30 54  1  0
M  CHG  1   8  -1
M  END
>  <UniqueID>  (24) 
22

>  <SMILES>  (24) 
Cc1ccccc1[N-]C(=O)CN(C)CC(=O)Nc1ccccc1Sc1ccccc1

>  <Energy>  (24) 
63.380099624392564

>  <Genealogy>  (24) 
Cc1ccccc1[N-]C(=O)CN(C)CC(=O)Nc1ccccc1Sc1ccccc1 (protonated)
Cc1ccccc1[N-]C(=O)CN(C)CC(=O)Nc1ccccc1Sc1ccccc1 (3D coordinates assigned)
Cc1ccccc1[N-]C(=O)CN(C)CC(=O)Nc1ccccc1Sc1ccccc1 (optimized conformer: 63.380099624392564 kcal/mol)

>  <smiles>  (24) 
Cc1ccccc1NC(=O)CN(C)CC(=O)Nc1ccccc1Sc1ccccc1

>  <score_type>  (24) 
oracle

>  <origin>  (24) 
adg

>  <m_score__min__energy>  (24) 
-11.300000000000001

>  <m_primary>  (24) 
energy

$$$$
24:0
     RDKit          3D

 50 52  0  0  0  0  0  0  0  0999 V2000
   54.4150   26.0980   45.9770 N   0  0  0  0  0  0  0  0  0  0  0  0
   55.7040   24.9470   45.9640 S   0  0  0  0  0  0  0  0  0  0  0  0
   55.5720   24.0560   44.7600 O   0  0  0  0  0  0  0  0  0  0  0  0
   55.6280   24.0990   47.2020 O   0  0  0  0  0  0  0  0  0  0  0  0
   57.2470   25.7950   45.9120 C   0  0  0  0  0  0  0  0  0  0  0  0
   58.4480   25.0840   46.0260 C   0  0  0  0  0  0  0  0  0  0  0  0
   59.6680   25.7620   46.0100 C   0  0  0  0  0  0  0  0  0  0  0  0
   59.6980   27.1530   45.8750 C   0  0  0  0  0  0  0  0  0  0  0  0
   58.5000   27.8780   45.7450 C   0  0  0  0  0  0  0  0  0  0  0  0
   58.4990   29.3120   45.6350 N   0  0  0  0  0  0  0  0  0  0  0  0
   57.3430   30.0950   45.3070 C   0  0  0  0  0  0  0  0  0  0  0  0
   56.1970   29.5680   45.2740 O   0  0  0  0  0  0  0  0  0  0  0  0
   57.4970   31.4940   45.0440 N   0  0  0  0  0  0  0  0  0  0  0  0
   57.8200   32.4820   46.0690 C   0  0  1  0  0  0  0  0  0  0  0  0
   59.1380   32.1040   46.7720 C   0  0  0  0  0  0  0  0  0  0  0  0
   58.9000   31.5660   48.1610 C   0  0  0  0  0  0  0  0  0  0  0  0
   58.4650   32.4250   49.1860 C   0  0  0  0  0  0  0  0  0  0  0  0
   58.2680   31.9330   50.4800 C   0  0  0  0  0  0  0  0  0  0  0  0
   58.5020   30.5840   50.7610 C   0  0  0  0  0  0  0  0  0  0  0  0
   58.3110   30.1090   52.0160 F   0  0  0  0  0  0  0  0  0  0  0  0
   58.9350   29.7240   49.7460 C   0  0  0  0  0  0  0  0  0  0  0  0
   59.1440   30.2140   48.4530 C   0  0  0  0  0  0  0  0  0  0  0  0
   57.9200   33.8360   45.4270 C   0  0  0  0  0  0  0  0  0  0  0  0
   56.9140   34.3410   44.8560 O   0  0  0  0  0  0  0  0  0  0  0  0
   59.1690   34.5350   45.4480 N   0  0  0  0  0  0  0  0  0  0  0  0
   59.6410   35.3050   46.5910 C   0  0  0  0  0  0  0  0  0  0  0  0
   60.7410   34.5690   47.2870 C   0  0  0  0  0  0  0  0  0  0  0  0
   61.7570   33.8670   46.6710 C   0  0  0  0  0  0  0  0  0  0  0  0
   62.5410   33.3780   47.6930 C   0  0  0  0  0  0  0  0  0  0  0  0
   61.9620   33.8220   48.8660 C   0  0  0  0  0  0  0  0  0  0  0  0
   60.8920   34.5310   48.5910 O   0  0  0  0  0  0  0  0  0  0  0  0
   57.2770   27.1900   45.7850 C   0  0  0  0  0  0  0  0  0  0  0  0
   54.7980   26.9800   46.3840 H   0  0  0  0  0  0  0  0  0  0  0  0
   58.4300   23.9889   46.1284 H   0  0  0  0  0  0  0  0  0  0  0  0
   60.6089   25.1999   46.1039 H   0  0  0  0  0  0  0  0  0  0  0  0
   60.6622   27.6825   45.8704 H   0  0  0  0  0  0  0  0  0  0  0  0
   59.3680   29.8280   45.8960 H   0  0  0  0  0  0  0  0  0  0  0  0
   57.0271   32.5052   46.8310 H   0  0  0  0  0  0  0  0  0  0  0  0
   59.6513   31.3351   46.1759 H   0  0  0  0  0  0  0  0  0  0  0  0
   59.7512   33.0131   46.8588 H   0  0  0  0  0  0  0  0  0  0  0  0
   58.2791   33.4873   48.9691 H   0  0  0  0  0  0  0  0  0  0  0  0
   57.9282   32.6090   51.2784 H   0  0  0  0  0  0  0  0  0  0  0  0
   59.1113   28.6606   49.9654 H   0  0  0  0  0  0  0  0  0  0  0  0
   59.5008   29.5382   47.6618 H   0  0  0  0  0  0  0  0  0  0  0  0
   60.0175   36.2784   46.2436 H   0  0  0  0  0  0  0  0  0  0  0  0
   58.8076   35.4552   47.2931 H   0  0  0  0  0  0  0  0  0  0  0  0
   61.9090   33.7272   45.5906 H   0  0  0  0  0  0  0  0  0  0  0  0
   63.4451   32.7592   47.5948 H   0  0  0  0  0  0  0  0  0  0  0  0
   62.3404   33.6130   49.8775 H   0  0  0  0  0  0  0  0  0  0  0  0
   56.3335   27.7513   45.7160 H   0  0  0  0  0  0  0  0  0  0  0  0
  1  2  1  0
  2  3  2  0
  2  4  2  0
  2  5  1  0
  5  6  2  0
  6  7  1  0
  7  8  2  0
  8  9  1  0
  9 10  1  0
 10 11  1  0
 11 12  2  0
 11 13  1  0
 13 14  1  0
 14 15  1  0
 15 16  1  0
 16 17  2  0
 17 18  1  0
 18 19  2  0
 19 20  1  0
 19 21  1  0
 21 22  2  0
 14 23  1  0
 23 24  2  0
 23 25  1  0
 25 26  1  0
 26 27  1  0
 27 28  2  0
 28 29  1  0
 29 30  2  0
 30 31  1  0
  9 32  2  0
 32  5  1  0
 22 16  1  0
 31 27  1  0
  1 33  1  0
  6 34  1  0
  7 35  1  0
  8 36  1  0
 10 37  1  0
 14 38  1  1
 15 39  1  0
 15 40  1  0
 17 41  1  0
 18 42  1  0
 21 43  1  0
 22 44  1  0
 26 45  1  0
 26 46  1  0
 28 47  1  0
 29 48  1  0
 30 49  1  0
 32 50  1  0
M  CHG  3   1  -1  13  -1  25  -1
M  END
>  <UniqueID>  (25) 
23

>  <SMILES>  (25) 
[NH-]S(=O)(=O)c1cccc(NC(=O)[N-][C@@H](Cc2ccc(F)cc2)C(=O)[N-]Cc2ccco2)c1

>  <Energy>  (25) 
70.74576593059064

>  <Genealogy>  (25) 
[NH-]S(=O)(=O)c1cccc(NC(=O)[N-]C(Cc2ccc(F)cc2)C(=O)[N-]Cc2ccco2)c1 (protonated)
[NH-]S(=O)(=O)c1cccc(NC(=O)[N-][C@@H](Cc2ccc(F)cc2)C(=O)[N-]Cc2ccco2)c1 (chirality)
[NH-]S(=O)(=O)c1cccc(NC(=O)[N-][C@@H](Cc2ccc(F)cc2)C(=O)[N-]Cc2ccco2)c1 (3D coordinates assigned)
[NH-]S(=O)(=O)c1cccc(NC(=O)[N-][C@@H](Cc2ccc(F)cc2)C(=O)[N-]Cc2ccco2)c1 (optimized conformer: 70.74576593059064 kcal/mol)

>  <smiles>  (25) 
NS(=O)(=O)c1cccc(NC(=O)NC(Cc2ccc(F)cc2)C(=O)NCc2ccco2)c1

>  <score_type>  (25) 
oracle

>  <origin>  (25) 
adg

>  <m_score__min__energy>  (25) 
-14.35

>  <m_primary>  (25) 
energy

$$$$
25:0
     RDKit          3D

 38 40  0  0  0  0  0  0  0  0999 V2000
   54.2239   24.8547   45.2830 H   0  0  0  0  0  0  0  0  0  0  0  0
   55.1560   25.1710   45.7740 C   0  0  0  0  0  0  0  0  0  0  0  0
   55.5450   26.4710   45.7210 N   0  0  0  0  0  0  0  0  0  0  0  0
   56.6930   26.9090   46.3120 C   0  0  0  0  0  0  0  0  0  0  0  0
   57.0360   28.1600   46.2400 N   0  0  0  0  0  0  0  0  0  0  0  0
   56.6540   29.1940   44.9020 S   0  0  0  0  0  0  0  0  0  0  0  0
   55.1690   29.4170   44.8350 O   0  0  0  0  0  0  0  0  0  0  0  0
   57.1160   28.5610   43.6180 O   0  0  0  0  0  0  0  0  0  0  0  0
   57.4730   30.7360   45.1230 C   0  0  0  0  0  0  0  0  0  0  0  0
   57.4030   31.7200   44.1280 C   0  0  0  0  0  0  0  0  0  0  0  0
   56.8442   31.5234   43.2012 H   0  0  0  0  0  0  0  0  0  0  0  0
   58.0410   32.9510   44.3090 C   0  0  0  0  0  0  0  0  0  0  0  0
   57.9859   33.7173   43.5218 H   0  0  0  0  0  0  0  0  0  0  0  0
   58.7540   33.2140   45.4950 C   0  0  0  0  0  0  0  0  0  0  0  0
   59.4100   34.4310   45.7250 O   0  0  0  0  0  0  0  0  0  0  0  0
   59.6040   35.0100   47.0110 C   0  0  0  0  0  0  0  0  0  0  0  0
   59.3563   34.2708   47.7871 H   0  0  0  0  0  0  0  0  0  0  0  0
   60.6544   35.3179   47.1198 H   0  0  0  0  0  0  0  0  0  0  0  0
   58.9512   35.8886   47.1198 H   0  0  0  0  0  0  0  0  0  0  0  0
   58.8120   32.2280   46.4880 C   0  0  0  0  0  0  0  0  0  0  0  0
   59.3649   32.4230   47.4187 H   0  0  0  0  0  0  0  0  0  0  0  0
   58.1730   30.9980   46.3060 C   0  0  0  0  0  0  0  0  0  0  0  0
   58.2206   30.2335   47.0955 H   0  0  0  0  0  0  0  0  0  0  0  0
   57.5130   26.0030   47.0040 C   0  0  0  0  0  0  0  0  0  0  0  0
   58.6940   26.4760   47.6050 O   0  0  0  0  0  0  0  0  0  0  0  0
   59.9740   26.5360   46.9770 C   0  0  0  0  0  0  0  0  0  0  0  0
   60.7355   26.7835   47.7312 H   0  0  0  0  0  0  0  0  0  0  0  0
   60.1923   25.5584   46.5225 H   0  0  0  0  0  0  0  0  0  0  0  0
   59.9860   27.5800   45.9050 C   0  0  0  0  0  0  0  0  0  0  0  0
   60.7460   28.6920   45.9390 N   0  0  0  0  0  0  0  0  0  0  0  0
   60.4800   29.3150   44.8030 N   0  0  0  0  0  0  0  0  0  0  0  0
   59.6040   28.6050   44.1140 N   0  0  0  0  0  0  0  0  0  0  0  0
   59.2270   28.8750   43.1780 H   0  0  0  0  0  0  0  0  0  0  0  0
   59.2700   27.5060   44.7670 N   0  0  0  0  0  0  0  0  0  0  0  0
   57.1200   24.6530   47.0690 C   0  0  0  0  0  0  0  0  0  0  0  0
   57.7444   23.9247   47.6073 H   0  0  0  0  0  0  0  0  0  0  0  0
   55.9400   24.2370   46.4520 C   0  0  0  0  0  0  0  0  0  0  0  0
   55.4450   22.5550   46.5270 Cl  0  0  0  0  0  0  0  0  0  0  0  0
  1  2  1  0
  2  3  1  0
  3  4  1  0
  4  5  2  0
  5  6  1  0
  6  7  2  0
  6  8  2  0
  6  9  1  0
  9 10  2  0
 10 11  1  0
 10 12  1  0
 12 13  1  0
 12 14  2  0
 14 15  1  0
 15 16  1  0
 16 17  1  0
 16 18  1  0
 16 19  1  0
 14 20  1  0
 20 21  1  0
 20 22  2  0
 22 23  1  0
  4 24  1  0
 24 25  1  0
 25 26  1  0
 26 27  1  0
 26 28  1  0
 26 29  1  0
 29 30  2  0
 30 31  1  0
 31 32  1  0
 32 33  1  0
 32 34  2  0
 24 35  2  0
 35 36  1  0
 35 37  1  0
 37 38  1  0
 37  2  2  0
 22  9  1  0
 34 29  1  0
M  CHG  3   3  -1  31  -1  32   1
M  END
>  <UniqueID>  (26) 
24

>  <SMILES>  (26) 
COc1ccc(S(=O)(=O)/N=c2\[n-]cc(Cl)cc2OCc2n[n-][nH+]n2)cc1

>  <Energy>  (26) 
81.93539091882712

>  <Genealogy>  (26) 
COc1ccc(S(=O)(=O)N=c2[n-]cc(Cl)cc2OCc2n[n-][nH+]n2)cc1 (protonated)
COc1ccc(S(=O)(=O)/N=c2\[n-]cc(Cl)cc2OCc2n[n-][nH+]n2)cc1 (cis-trans isomerization)
COc1ccc(S(=O)(=O)/N=c2\[n-]cc(Cl)cc2OCc2n[n-][nH+]n2)cc1 (3D coordinates assigned)
COc1ccc(S(=O)(=O)/N=c2\[n-]cc(Cl)cc2OCc2n[n-][nH+]n2)cc1 (optimized conformer: 81.93539091882712 kcal/mol)

>  <smiles>  (26) 
COc1ccc(S(=O)(=O)N=c2[nH]cc(Cl)cc2OCc2nn[nH]n2)cc1

>  <score_type>  (26) 
oracle

>  <origin>  (26) 
adg

>  <m_score__min__energy>  (26) 
-9.0800000000000001

>  <m_primary>  (26) 
energy

$$$$
26:0
     RDKit          3D

 64 67  0  0  0  0  0  0  0  0999 V2000
   60.6420   27.2830   48.3350 C   0  0  0  0  0  0  0  0  0  0  0  0
   60.1210   26.3890   47.3560 O   0  0  0  0  0  0  0  0  0  0  0  0
   58.7590   26.2590   47.0450 C   0  0  0  0  0  0  0  0  0  0  0  0
   57.9890   25.1620   47.4640 C   0  0  0  0  0  0  0  0  0  0  0  0
   56.6390   25.0780   47.1220 C   0  0  0  0  0  0  0  0  0  0  0  0
   56.0290   26.0890   46.3540 C   0  0  0  0  0  0  0  0  0  0  0  0
   54.6750   26.0170   45.9850 O   0  0  0  0  0  0  0  0  0  0  0  0
   53.9990   24.8170   45.6200 C   0  0  0  0  0  0  0  0  0  0  0  0
   56.7900   27.2040   45.9410 C   0  0  0  0  0  0  0  0  0  0  0  0
   56.1580   28.2560   45.1800 N   0  0  0  0  0  0  0  0  0  0  0  0
   56.9740   29.6830   44.6260 S   0  0  0  0  0  0  0  0  0  0  0  0
   56.0320   30.8510   44.6780 O   0  0  0  0  0  0  0  0  0  0  0  0
   57.4120   29.4810   43.2030 O   0  0  0  0  0  0  0  0  0  0  0  0
   58.3600   30.0300   45.6570 C   0  0  0  0  0  0  0  0  0  0  0  0
   59.6640   29.8020   45.1960 C   0  0  0  0  0  0  0  0  0  0  0  0
   60.7600   30.1010   46.0080 C   0  0  0  0  0  0  0  0  0  0  0  0
   60.5640   30.6300   47.2900 C   0  0  0  0  0  0  0  0  0  0  0  0
   61.6980   30.9440   48.1150 N   0  0  0  0  0  0  0  0  0  0  0  0
   61.7140   30.4150   49.4920 C   0  0  0  0  0  0  0  0  0  0  0  0
   62.8720   30.9890   50.3050 C   0  0  0  0  0  0  0  0  0  0  0  0
   63.1060   32.3280   49.9350 O   0  0  0  0  0  0  0  0  0  0  0  0
   63.7050   32.3450   48.6580 C   0  0  0  0  0  0  0  0  0  0  0  0
   62.7290   31.8490   47.5790 C   0  0  0  0  0  0  0  0  0  0  0  0
   59.2590   30.8280   47.7780 C   0  0  0  0  0  0  0  0  0  0  0  0
   59.0930   31.3630   49.1020 N   0  0  0  0  0  0  0  0  0  0  0  0
   59.0790   32.7380   49.4970 C   0  0  0  0  0  0  0  0  0  0  0  0
   58.5120   33.1040   50.5600 O   0  0  0  0  0  0  0  0  0  0  0  0
   59.8290   33.7340   48.6740 C   0  0  0  0  0  0  0  0  0  0  0  0
   59.1860   33.8780   47.3220 C   0  0  0  0  0  0  0  0  0  0  0  0
   57.7970   33.7060   47.1790 C   0  0  0  0  0  0  0  0  0  0  0  0
   57.1990   33.8240   45.9200 C   0  0  0  0  0  0  0  0  0  0  0  0
   57.9780   34.1120   44.7990 C   0  0  0  0  0  0  0  0  0  0  0  0
   59.3600   34.2710   44.9280 C   0  0  0  0  0  0  0  0  0  0  0  0
   59.9680   34.1490   46.1820 C   0  0  0  0  0  0  0  0  0  0  0  0
   61.3150   34.2870   46.2870 F   0  0  0  0  0  0  0  0  0  0  0  0
   58.1600   30.5460   46.9440 C   0  0  0  0  0  0  0  0  0  0  0  0
   58.1550   27.2690   46.2880 C   0  0  0  0  0  0  0  0  0  0  0  0
   60.4172   26.8973   49.3403 H   0  0  0  0  0  0  0  0  0  0  0  0
   61.7315   27.3688   48.2103 H   0  0  0  0  0  0  0  0  0  0  0  0
   60.1796   28.2733   48.2103 H   0  0  0  0  0  0  0  0  0  0  0  0
   58.4523   24.3653   48.0646 H   0  0  0  0  0  0  0  0  0  0  0  0
   56.0453   24.2140   47.4553 H   0  0  0  0  0  0  0  0  0  0  0  0
   53.6946   24.2767   46.5286 H   0  0  0  0  0  0  0  0  0  0  0  0
   53.1077   25.0647   45.0248 H   0  0  0  0  0  0  0  0  0  0  0  0
   54.6728   24.1831   45.0248 H   0  0  0  0  0  0  0  0  0  0  0  0
   55.1400   28.1930   44.9580 H   0  0  0  0  0  0  0  0  0  0  0  0
   59.8246   29.3859   44.1905 H   0  0  0  0  0  0  0  0  0  0  0  0
   61.7806   29.9205   45.6396 H   0  0  0  0  0  0  0  0  0  0  0  0
   60.7670   30.6782   49.9859 H   0  0  0  0  0  0  0  0  0  0  0  0
   61.8410   29.3237   49.4382 H   0  0  0  0  0  0  0  0  0  0  0  0
   62.6219   30.9456   51.3753 H   0  0  0  0  0  0  0  0  0  0  0  0
   63.7782   30.3974   50.1083 H   0  0  0  0  0  0  0  0  0  0  0  0
   64.0111   33.3742   48.4190 H   0  0  0  0  0  0  0  0  0  0  0  0
   64.5769   31.6745   48.6735 H   0  0  0  0  0  0  0  0  0  0  0  0
   62.2318   32.7202   47.1275 H   0  0  0  0  0  0  0  0  0  0  0  0
   63.3135   31.2837   46.8382 H   0  0  0  0  0  0  0  0  0  0  0  0
   59.8217   34.7077   49.1857 H   0  0  0  0  0  0  0  0  0  0  0  0
   60.8646   33.3864   48.5444 H   0  0  0  0  0  0  0  0  0  0  0  0
   57.1792   33.4780   48.0601 H   0  0  0  0  0  0  0  0  0  0  0  0
   56.1125   33.6895   45.8136 H   0  0  0  0  0  0  0  0  0  0  0  0
   57.5033   34.2140   43.8120 H   0  0  0  0  0  0  0  0  0  0  0  0
   59.9717   34.4927   44.0411 H   0  0  0  0  0  0  0  0  0  0  0  0
   57.1379   30.7321   47.3054 H   0  0  0  0  0  0  0  0  0  0  0  0
   58.7559   28.1291   45.9577 H   0  0  0  0  0  0  0  0  0  0  0  0
  1  2  1  0
  2  3  1  0
  3  4  2  0
  4  5  1  0
  5  6  2  0
  6  7  1  0
  7  8  1  0
  6  9  1  0
  9 10  1  0
 10 11  1  0
 11 12  2  0
 11 13  2  0
 11 14  1  0
 14 15  2  0
 15 16  1  0
 16 17  2  0
 17 18  1  0
 18 19  1  0
 19 20  1  0
 20 21  1  0
 21 22  1  0
 22 23  1  0
 17 24  1  0
 24 25  1  0
 25 26  1  0
 26 27  2  0
 26 28  1  0
 28 29  1  0
 29 30  2  0
 30 31  1  0
 31 32  2  0
 32 33  1  0
 33 34  2  0
 34 35  1  0
 24 36  2  0
  9 37  2  0
 37  3  1  0
 36 14  1  0
 23 18  1  0
 34 29  1  0
  1 38  1  0
  1 39  1  0
  1 40  1  0
  4 41  1  0
  5 42  1  0
  8 43  1  0
  8 44  1  0
  8 45  1  0
 10 46  1  0
 15 47  1  0
 16 48  1  0
 19 49  1  0
 19 50  1  0
 20 51  1  0
 20 52  1  0
 22 53  1  0
 22 54  1  0
 23 55  1  0
 23 56  1  0
 28 57  1  0
 28 58  1  0
 30 59  1  0
 31 60  1  0
 32 61  1  0
 33 62  1  0
 36 63  1  0
 37 64  1  0
M  CHG  1  25  -1
M  END
>  <UniqueID>  (27) 
25

>  <SMILES>  (27) 
COc1ccc(OC)c(NS(=O)(=O)c2ccc(N3CCOCC3)c([N-]C(=O)Cc3ccccc3F)c2)c1

>  <Energy>  (27) 
79.3263561301116

>  <Genealogy>  (27) 
COc1ccc(OC)c(NS(=O)(=O)c2ccc(N3CCOCC3)c([N-]C(=O)Cc3ccccc3F)c2)c1 (protonated)
COc1ccc(OC)c(NS(=O)(=O)c2ccc(N3CCOCC3)c([N-]C(=O)Cc3ccccc3F)c2)c1 (3D coordinates assigned)
COc1ccc(OC)c(NS(=O)(=O)c2ccc(N3CCOCC3)c([N-]C(=O)Cc3ccccc3F)c2)c1 (nonaromatic ring conformer: 79.3263561301116 kcal/mol)

>  <smiles>  (27) 
COc1ccc(OC)c(NS(=O)(=O)c2ccc(N3CCOCC3)c(NC(=O)Cc3ccccc3F)c2)c1

>  <score_type>  (27) 
oracle

>  <origin>  (27) 
adg

>  <m_score__min__energy>  (27) 
-11.039999999999999

>  <m_primary>  (27) 
energy

$$$$
27:0
     RDKit          3D

 59 62  0  0  0  0  0  0  0  0999 V2000
   56.0550   23.0540   47.8480 C   0  0  0  0  0  0  0  0  0  0  0  0
   55.5930   24.0790   46.9760 O   0  0  0  0  0  0  0  0  0  0  0  0
   56.4190   25.0520   46.3910 C   0  0  0  0  0  0  0  0  0  0  0  0
   55.9040   26.3400   46.2190 C   0  0  0  0  0  0  0  0  0  0  0  0
   56.6870   27.3470   45.6450 C   0  0  0  0  0  0  0  0  0  0  0  0
   58.0010   27.0790   45.2200 C   0  0  0  0  0  0  0  0  0  0  0  0
   58.8140   28.1540   44.6000 C   0  0  0  0  0  0  0  0  0  0  0  0
   59.9380   27.8810   44.0940 O   0  0  0  0  0  0  0  0  0  0  0  0
   58.3660   29.5570   44.5850 C   0  0  0  0  0  0  0  0  0  0  0  0
   57.3030   30.0050   43.8100 C   0  0  0  0  0  0  0  0  0  0  0  0
   56.4780   29.1960   42.9750 N   0  0  0  0  0  0  0  0  0  0  0  0
   57.1300   31.6630   43.9980 S   0  0  0  0  0  0  0  0  0  0  0  0
   58.4270   31.8520   45.0530 C   0  0  0  0  0  0  0  0  0  0  0  0
   58.8390   33.1520   45.6140 C   0  0  0  0  0  0  0  0  0  0  0  0
   58.8270   33.3480   47.0030 C   0  0  0  0  0  0  0  0  0  0  0  0
   59.2350   34.5720   47.5460 C   0  0  0  0  0  0  0  0  0  0  0  0
   59.6370   35.6120   46.7040 C   0  0  0  0  0  0  0  0  0  0  0  0
   59.6350   35.4300   45.3170 C   0  0  0  0  0  0  0  0  0  0  0  0
   59.2350   34.2060   44.7710 C   0  0  0  0  0  0  0  0  0  0  0  0
   59.0040   30.5950   45.3010 C   0  0  0  0  0  0  0  0  0  0  0  0
   60.1290   30.3550   46.2900 C   0  0  0  0  0  0  0  0  0  0  0  0
   59.6570   30.3470   47.6990 N   0  0  1  0  0  0  0  0  0  0  0  0
   58.8690   29.1290   47.9810 C   0  0  0  0  0  0  0  0  0  0  0  0
   60.7990   30.4210   48.6390 C   0  0  0  0  0  0  0  0  0  0  0  0
   61.6690   31.6300   48.3800 C   0  0  0  0  0  0  0  0  0  0  0  0
   61.4620   32.8190   49.1030 C   0  0  0  0  0  0  0  0  0  0  0  0
   62.2830   33.9310   48.8820 C   0  0  0  0  0  0  0  0  0  0  0  0
   63.3010   33.8710   47.9230 C   0  0  0  0  0  0  0  0  0  0  0  0
   63.5020   32.6980   47.1880 C   0  0  0  0  0  0  0  0  0  0  0  0
   62.6910   31.5800   47.4140 C   0  0  0  0  0  0  0  0  0  0  0  0
   58.5200   25.7840   45.4000 C   0  0  0  0  0  0  0  0  0  0  0  0
   57.7370   24.7790   45.9800 C   0  0  0  0  0  0  0  0  0  0  0  0
   55.9129   23.3693   48.8922 H   0  0  0  0  0  0  0  0  0  0  0  0
   55.4858   22.1311   47.6630 H   0  0  0  0  0  0  0  0  0  0  0  0
   57.1235   22.8692   47.6630 H   0  0  0  0  0  0  0  0  0  0  0  0
   54.8751   26.5634   46.5375 H   0  0  0  0  0  0  0  0  0  0  0  0
   56.2713   28.3583   45.5248 H   0  0  0  0  0  0  0  0  0  0  0  0
   55.7040   29.6300   42.4220 H   0  0  0  0  0  0  0  0  0  0  0  0
   56.6310   28.1660   42.9010 H   0  0  0  0  0  0  0  0  0  0  0  0
   58.4957   32.5368   47.6680 H   0  0  0  0  0  0  0  0  0  0  0  0
   59.2391   34.7152   48.6366 H   0  0  0  0  0  0  0  0  0  0  0  0
   59.9551   36.5741   47.1319 H   0  0  0  0  0  0  0  0  0  0  0  0
   59.9484   36.2506   44.6549 H   0  0  0  0  0  0  0  0  0  0  0  0
   59.2301   34.0673   43.6798 H   0  0  0  0  0  0  0  0  0  0  0  0
   60.5923   29.3824   46.0678 H   0  0  0  0  0  0  0  0  0  0  0  0
   60.8487   31.1800   46.1837 H   0  0  0  0  0  0  0  0  0  0  0  0
   59.0340   31.1690   47.8720 H   0  0  0  0  0  0  0  0  0  0  0  0
   58.7810   28.9930   49.0690 H   0  0  0  0  0  0  0  0  0  0  0  0
   57.8657   29.2316   47.5419 H   0  0  0  0  0  0  0  0  0  0  0  0
   59.3738   28.2559   47.5419 H   0  0  0  0  0  0  0  0  0  0  0  0
   60.4101   30.4770   49.6664 H   0  0  0  0  0  0  0  0  0  0  0  0
   61.4159   29.5217   48.4952 H   0  0  0  0  0  0  0  0  0  0  0  0
   60.6518   32.8750   49.8449 H   0  0  0  0  0  0  0  0  0  0  0  0
   62.1281   34.8526   49.4623 H   0  0  0  0  0  0  0  0  0  0  0  0
   63.9431   34.7467   47.7474 H   0  0  0  0  0  0  0  0  0  0  0  0
   64.2989   32.6542   46.4310 H   0  0  0  0  0  0  0  0  0  0  0  0
   62.8530   30.6591   46.8346 H   0  0  0  0  0  0  0  0  0  0  0  0
   59.5490   25.5594   45.0826 H   0  0  0  0  0  0  0  0  0  0  0  0
   58.1542   23.7702   46.1153 H   0  0  0  0  0  0  0  0  0  0  0  0
  1  2  1  0
  2  3  1  0
  3  4  2  0
  4  5  1  0
  5  6  2  0
  6  7  1  0
  7  8  2  0
  7  9  1  0
  9 10  2  0
 10 11  1  0
 10 12  1  0
 12 13  1  0
 13 14  1  0
 14 15  2  0
 15 16  1  0
 16 17  2  0
 17 18  1  0
 18 19  2  0
 13 20  2  0
 20 21  1  0
 21 22  1  0
 22 23  1  0
 22 24  1  0
 24 25  1  0
 25 26  2  0
 26 27  1  0
 27 28  2  0
 28 29  1  0
 29 30  2  0
  6 31  1  0
 31 32  2  0
 32  3  1  0
 20  9  1  0
 30 25  1  0
 19 14  1  0
  1 33  1  0
  1 34  1  0
  1 35  1  0
  4 36  1  0
  5 37  1  0
 11 38  1  0
 11 39  1  0
 15 40  1  0
 16 41  1  0
 17 42  1  0
 18 43  1  0
 19 44  1  0
 21 45  1  0
 21 46  1  0
 22 47  1  6
 23 48  1  0
 23 49  1  0
 23 50  1  0
 24 51  1  0
 24 52  1  0
 26 53  1  0
 27 54  1  0
 28 55  1  0
 29 56  1  0
 30 57  1  0
 31 58  1  0
 32 59  1  0
M  CHG  1  22   1
M  END
>  <UniqueID>  (28) 
26

>  <SMILES>  (28) 
COc1ccc(C(=O)c2c(N)sc(-c3ccccc3)c2C[N@@H+](C)Cc2ccccc2)cc1

>  <Energy>  (28) 
100.44097907334094

>  <Genealogy>  (28) 
COc1ccc(C(=O)c2c(N)sc(-c3ccccc3)c2C[NH+](C)Cc2ccccc2)cc1 (protonated)
COc1ccc(C(=O)c2c(N)sc(-c3ccccc3)c2C[N@@H+](C)Cc2ccccc2)cc1 (chirality)
COc1ccc(C(=O)c2c(N)sc(-c3ccccc3)c2C[N@@H+](C)Cc2ccccc2)cc1 (3D coordinates assigned)
COc1ccc(C(=O)c2c(N)sc(-c3ccccc3)c2C[N@@H+](C)Cc2ccccc2)cc1 (optimized conformer: 100.44097907334094 kcal/mol)

>  <smiles>  (28) 
COc1ccc(C(=O)c2c(N)sc(-c3ccccc3)c2CN(C)Cc2ccccc2)cc1

>  <score_type>  (28) 
oracle

>  <origin>  (28) 
adg

>  <m_score__min__energy>  (28) 
-7.71

>  <m_primary>  (28) 
energy

$$$$
28:0
     RDKit          3D

 20 20  0  0  0  0  0  0  0  0999 V2000
   55.5100   30.8340   44.2140 O   0  0  0  0  0  0  0  0  0  0  0  0
   56.6810   31.1980   44.4940 C   0  0  0  0  0  0  0  0  0  0  0  0
   57.3210   30.6980   45.6680 N   0  0  0  0  0  0  0  0  0  0  0  0
   57.9300   29.4280   45.7100 N   0  0  0  0  0  0  0  0  0  0  0  0
   57.1600   28.3200   45.4770 C   0  0  0  0  0  0  0  0  0  0  0  0
   55.7930   28.4460   45.2080 O   0  0  0  0  0  0  0  0  0  0  0  0
   57.7360   27.0370   45.4960 C   0  0  0  0  0  0  0  0  0  0  0  0
   56.8960   25.8060   45.2490 C   0  0  0  0  0  0  0  0  0  0  0  0
   55.7870   25.7280   46.2500 C   0  0  0  0  0  0  0  0  0  0  0  0
   55.9440   25.0860   47.3210 O   0  0  0  0  0  0  0  0  0  0  0  0
   54.5620   26.3260   45.9780 O   0  0  0  0  0  0  0  0  0  0  0  0
   59.0990   26.9330   45.8060 C   0  0  0  0  0  0  0  0  0  0  0  0
   59.6670   25.8100   45.8580 O   0  0  0  0  0  0  0  0  0  0  0  0
   59.8190   28.0500   46.0640 N   0  0  0  0  0  0  0  0  0  0  0  0
   59.2610   29.2860   46.0230 C   0  0  0  0  0  0  0  0  0  0  0  0
   60.1970   30.5690   46.4370 S   0  0  0  0  0  0  0  0  0  0  0  0
   57.2114   31.9010   43.8348 H   0  0  0  0  0  0  0  0  0  0  0  0
   55.1440   27.6730   45.2910 H   0  0  0  0  0  0  0  0  0  0  0  0
   56.4688   25.8547   44.2365 H   0  0  0  0  0  0  0  0  0  0  0  0
   57.5307   24.9129   45.3462 H   0  0  0  0  0  0  0  0  0  0  0  0
  1  2  2  0
  2  3  1  0
  3  4  1  0
  4  5  1  0
  5  6  1  0
  5  7  2  0
  7  8  1  0
  8  9  1  0
  9 10  2  0
  9 11  1  0
  7 12  1  0
 12 13  2  0
 12 14  1  0
 14 15  1  0
 15 16  2  0
 15  4  1  0
  2 17  1  0
  6 18  1  0
  8 19  1  0
  8 20  1  0
M  CHG  3   3  -1  11  -1  14  -1
M  END
>  <UniqueID>  (29) 
27

>  <SMILES>  (29) 
O=C[N-]n1c(O)c(CC(=O)[O-])c(=O)[n-]c1=S

>  <Energy>  (29) 
27.940159994118197

>  <Genealogy>  (29) 
O=C[N-]n1c(O)c(CC(=O)[O-])c(=O)[n-]c1=S (protonated)
O=C[N-]n1c(O)c(CC(=O)[O-])c(=O)[n-]c1=S (3D coordinates assigned)
O=C[N-]n1c(O)c(CC(=O)[O-])c(=O)[n-]c1=S (optimized conformer: 27.940159994118197 kcal/mol)

>  <smiles>  (29) 
O=CNn1c(O)c(CC(=O)O)c(=O)[nH]c1=S

>  <score_type>  (29) 
oracle

>  <origin>  (29) 
adg

>  <m_score__min__energy>  (29) 
-11.58

>  <m_primary>  (29) 
energy

$$$$
29:0
     RDKit          3D

 76 80  0  0  0  0  0  0  0  0999 V2000
   60.0300   34.3940   48.1190 O   0  0  0  0  0  0  0  0  0  0  0  0
   59.4420   33.3240   48.4320 C   0  0  0  0  0  0  0  0  0  0  0  0
   58.9580   32.4360   47.3490 C   0  0  0  0  0  0  0  0  0  0  0  0
   57.9370   32.8480   46.4790 C   0  0  0  0  0  0  0  0  0  0  0  0
   57.4530   31.9810   45.4940 C   0  0  0  0  0  0  0  0  0  0  0  0
   57.9830   30.6880   45.3640 C   0  0  0  0  0  0  0  0  0  0  0  0
   57.4410   29.7590   44.3450 C   0  0  0  0  0  0  0  0  0  0  0  0
   56.8470   30.2300   43.3390 O   0  0  0  0  0  0  0  0  0  0  0  0
   57.5720   28.3310   44.4810 N   0  0  0  0  0  0  0  0  0  0  0  0
   57.4880   27.6790   45.7960 C   0  0  0  0  0  0  0  0  0  0  0  0
   56.5960   26.4300   45.7130 C   0  0  0  0  0  0  0  0  0  0  0  0
   56.8410   25.5920   44.5060 N   0  0  0  0  0  0  0  0  0  0  0  0
   56.8530   24.1240   44.7430 C   0  0  0  0  0  0  0  0  0  0  0  0
   58.0770   23.6900   45.6020 C   0  0  0  0  0  0  0  0  0  0  0  0
   59.0310   22.7440   44.8600 C   0  0  0  0  0  0  0  0  0  0  0  0
   58.3010   21.4980   44.3330 C   0  0  0  0  0  0  0  0  0  0  0  0
   56.9140   21.7990   43.7270 C   0  0  0  0  0  0  0  0  0  0  0  0
   56.6970   23.2900   43.4410 C   0  0  0  0  0  0  0  0  0  0  0  0
   57.9590   26.0420   43.6520 C   0  0  0  0  0  0  0  0  0  0  0  0
   57.7750   27.5150   43.2810 C   0  0  0  0  0  0  0  0  0  0  0  0
   59.0440   30.2990   46.1970 C   0  0  0  0  0  0  0  0  0  0  0  0
   59.5260   31.1630   47.1800 C   0  0  0  0  0  0  0  0  0  0  0  0
   59.2910   32.9760   49.8260 N   0  0  0  0  0  0  0  0  0  0  0  0
   59.3780   31.5720   50.2680 C   0  0  0  0  0  0  0  0  0  0  0  0
   60.4400   31.4260   51.3690 C   0  0  0  0  0  0  0  0  0  0  0  0
   61.4610   32.4750   51.1890 N   0  0  0  0  0  0  0  0  0  0  0  0
   62.6940   32.2040   51.9530 C   0  0  0  0  0  0  0  0  0  0  0  0
   63.9140   32.1750   51.0170 C   0  0  0  0  0  0  0  0  0  0  0  0
   63.5310   32.5280   49.6010 C   0  0  0  0  0  0  0  0  0  0  0  0
   63.0990   31.5290   48.7140 C   0  0  0  0  0  0  0  0  0  0  0  0
   62.8130   31.8470   47.3810 C   0  0  0  0  0  0  0  0  0  0  0  0
   62.9630   33.1600   46.9260 C   0  0  0  0  0  0  0  0  0  0  0  0
   63.3960   34.1580   47.8010 C   0  0  0  0  0  0  0  0  0  0  0  0
   63.6830   33.8450   49.1340 C   0  0  0  0  0  0  0  0  0  0  0  0
   60.9050   33.8120   51.4890 C   0  0  0  0  0  0  0  0  0  0  0  0
   59.5050   33.9960   50.8610 C   0  0  0  0  0  0  0  0  0  0  0  0
   57.5146   33.8594   46.5723 H   0  0  0  0  0  0  0  0  0  0  0  0
   56.6524   32.3145   44.8174 H   0  0  0  0  0  0  0  0  0  0  0  0
   58.4968   27.3841   46.1205 H   0  0  0  0  0  0  0  0  0  0  0  0
   57.0521   28.3841   46.5191 H   0  0  0  0  0  0  0  0  0  0  0  0
   56.7793   25.8137   46.6055 H   0  0  0  0  0  0  0  0  0  0  0  0
   55.5564   26.7839   45.6501 H   0  0  0  0  0  0  0  0  0  0  0  0
   55.9538   23.8960   45.3342 H   0  0  0  0  0  0  0  0  0  0  0  0
   58.6358   24.5911   45.8949 H   0  0  0  0  0  0  0  0  0  0  0  0
   57.6875   23.1440   46.4739 H   0  0  0  0  0  0  0  0  0  0  0  0
   59.4769   23.2818   44.0103 H   0  0  0  0  0  0  0  0  0  0  0  0
   59.8054   22.4137   45.5679 H   0  0  0  0  0  0  0  0  0  0  0  0
   58.9255   21.0328   43.5561 H   0  0  0  0  0  0  0  0  0  0  0  0
   58.1371   20.8341   45.1946 H   0  0  0  0  0  0  0  0  0  0  0  0
   56.8155   21.2428   42.7831 H   0  0  0  0  0  0  0  0  0  0  0  0
   56.1583   21.4916   44.4649 H   0  0  0  0  0  0  0  0  0  0  0  0
   57.4395   23.6286   42.7034 H   0  0  0  0  0  0  0  0  0  0  0  0
   55.6793   23.4318   43.0483 H   0  0  0  0  0  0  0  0  0  0  0  0
   58.9062   25.9195   44.1977 H   0  0  0  0  0  0  0  0  0  0  0  0
   57.9767   25.4379   42.7329 H   0  0  0  0  0  0  0  0  0  0  0  0
   58.6721   27.8686   42.7516 H   0  0  0  0  0  0  0  0  0  0  0  0
   56.8888   27.6087   42.6361 H   0  0  0  0  0  0  0  0  0  0  0  0
   59.4987   29.3050   46.0734 H   0  0  0  0  0  0  0  0  0  0  0  0
   60.3567   30.8451   47.8272 H   0  0  0  0  0  0  0  0  0  0  0  0
   58.4012   31.2539   50.6612 H   0  0  0  0  0  0  0  0  0  0  0  0
   59.6613   30.9433   49.4110 H   0  0  0  0  0  0  0  0  0  0  0  0
   59.9667   31.5367   52.3558 H   0  0  0  0  0  0  0  0  0  0  0  0
   60.9097   30.4334   51.3049 H   0  0  0  0  0  0  0  0  0  0  0  0
   62.8342   32.9939   52.7056 H   0  0  0  0  0  0  0  0  0  0  0  0
   62.5995   31.2241   52.4438 H   0  0  0  0  0  0  0  0  0  0  0  0
   64.6587   32.8999   51.3774 H   0  0  0  0  0  0  0  0  0  0  0  0
   64.3277   31.1558   51.0195 H   0  0  0  0  0  0  0  0  0  0  0  0
   62.9850   30.4936   49.0675 H   0  0  0  0  0  0  0  0  0  0  0  0
   62.4697   31.0624   46.6907 H   0  0  0  0  0  0  0  0  0  0  0  0
   62.7397   33.4072   45.8777 H   0  0  0  0  0  0  0  0  0  0  0  0
   63.5116   35.1913   47.4420 H   0  0  0  0  0  0  0  0  0  0  0  0
   64.0290   34.6327   49.8194 H   0  0  0  0  0  0  0  0  0  0  0  0
   60.8260   33.9299   52.5798 H   0  0  0  0  0  0  0  0  0  0  0  0
   61.5778   34.5699   51.0614 H   0  0  0  0  0  0  0  0  0  0  0  0
   58.7371   33.8920   51.6417 H   0  0  0  0  0  0  0  0  0  0  0  0
   59.4366   34.9960   50.4079 H   0  0  0  0  0  0  0  0  0  0  0  0
  1  2  2  0
  2  3  1  0
  3  4  2  0
  4  5  1  0
  5  6  2  0
  6  7  1  0
  7  8  2  0
  7  9  1  0
  9 10  1  0
 10 11  1  0
 11 12  1  0
 12 13  1  0
 13 14  1  0
 14 15  1  0
 15 16  1  0
 16 17  1  0
 17 18  1  0
 12 19  1  0
 19 20  1  0
  6 21  1  0
 21 22  2  0
  2 23  1  0
 23 24  1  0
 24 25  1  0
 25 26  1  0
 26 27  1  0
 27 28  1  0
 28 29  1  0
 29 30  2  0
 30 31  1  0
 31 32  2  0
 32 33  1  0
 33 34  2  0
 26 35  1  0
 35 36  1  0
 22  3  1  0
 36 23  1  0
 20  9  1  0
 34 29  1  0
 18 13  1  0
  4 37  1  0
  5 38  1  0
 10 39  1  0
 10 40  1  0
 11 41  1  0
 11 42  1  0
 13 43  1  0
 14 44  1  0
 14 45  1  0
 15 46  1  0
 15 47  1  0
 16 48  1  0
 16 49  1  0
 17 50  1  0
 17 51  1  0
 18 52  1  0
 18 53  1  0
 19 54  1  0
 19 55  1  0
 20 56  1  0
 20 57  1  0
 21 58  1  0
 22 59  1  0
 24 60  1  0
 24 61  1  0
 25 62  1  0
 25 63  1  0
 27 64  1  0
 27 65  1  0
 28 66  1  0
 28 67  1  0
 30 68  1  0
 31 69  1  0
 32 70  1  0
 33 71  1  0
 34 72  1  0
 35 73  1  0
 35 74  1  0
 36 75  1  0
 36 76  1  0
M  END
>  <UniqueID>  (30) 
28

>  <SMILES>  (30) 
O=C(c1ccc(C(=O)N2CCN(C3CCCCC3)CC2)cc1)N1CCN(CCc2ccccc2)CC1

>  <Energy>  (30) 
105.61167271031071

>  <Genealogy>  (30) 
O=C(c1ccc(C(=O)N2CCN(C3CCCCC3)CC2)cc1)N1CCN(CCc2ccccc2)CC1 (3D coordinates assigned)
O=C(c1ccc(C(=O)N2CCN(C3CCCCC3)CC2)cc1)N1CCN(CCc2ccccc2)CC1 (nonaromatic ring conformer: 105.61167271031071 kcal/mol)

>  <smiles>  (30) 
O=C(c1ccc(C(=O)N2CCN(C3CCCCC3)CC2)cc1)N1CCN(CCc2ccccc2)CC1

>  <score_type>  (30) 
oracle

>  <origin>  (30) 
adg

>  <m_score__min__energy>  (30) 
-9.8300000000000001

>  <m_primary>  (30) 
energy

$$$$
30:0
     RDKit          3D

 64 66  0  0  0  0  0  0  0  0999 V2000
   56.6690   30.4580   42.7930 C   0  0  0  0  0  0  0  0  0  0  0  0
   55.5060   29.9920   43.6610 C   0  0  0  0  0  0  0  0  0  0  0  0
   55.9420   29.7390   44.9960 O   0  0  0  0  0  0  0  0  0  0  0  0
   57.1010   29.0170   45.3050 C   0  0  0  0  0  0  0  0  0  0  0  0
   57.2310   27.8240   44.9180 O   0  0  0  0  0  0  0  0  0  0  0  0
   58.1250   29.6460   46.0880 N   0  0  0  0  0  0  0  0  0  0  0  0
   59.3970   29.0390   46.3770 C   0  0  0  0  0  0  0  0  0  0  0  0
   59.7700   28.0230   45.7270 O   0  0  0  0  0  0  0  0  0  0  0  0
   60.2960   29.6080   47.4100 C   0  0  0  0  0  0  0  0  0  0  0  0
   60.0850   29.3590   48.7770 C   0  0  0  0  0  0  0  0  0  0  0  0
   60.9370   29.9090   49.7370 C   0  0  0  0  0  0  0  0  0  0  0  0
   62.0270   30.7000   49.3510 C   0  0  0  0  0  0  0  0  0  0  0  0
   62.9010   31.2390   50.3580 N   0  0  0  0  0  0  0  0  0  0  0  0
   64.3350   31.3850   50.0810 C   0  0  0  0  0  0  0  0  0  0  0  0
   64.7820   32.8400   50.2920 C   0  0  0  0  0  0  0  0  0  0  0  0
   64.0940   33.5340   51.4890 C   0  0  0  0  0  0  0  0  0  0  0  0
   63.3650   32.5490   52.4130 C   0  0  0  0  0  0  0  0  0  0  0  0
   62.3340   31.7370   51.6200 C   0  0  0  0  0  0  0  0  0  0  0  0
   62.2700   30.9300   47.9860 C   0  0  0  0  0  0  0  0  0  0  0  0
   63.3470   31.7850   47.5860 N   0  0  0  0  0  0  0  0  0  0  0  0
   63.2270   33.1670   47.2260 C   0  0  0  0  0  0  0  0  0  0  0  0
   63.3430   33.4870   46.0130 O   0  0  0  0  0  0  0  0  0  0  0  0
   62.7920   34.2090   48.2270 C   0  0  0  0  0  0  0  0  0  0  0  0
   61.4290   33.8980   48.7920 C   0  0  0  0  0  0  0  0  0  0  0  0
   61.1710   34.0980   50.1570 C   0  0  0  0  0  0  0  0  0  0  0  0
   59.9180   33.7900   50.6870 C   0  0  0  0  0  0  0  0  0  0  0  0
   58.9130   33.2750   49.8650 C   0  0  0  0  0  0  0  0  0  0  0  0
   59.1540   33.0610   48.4940 C   0  0  0  0  0  0  0  0  0  0  0  0
   58.1480   32.5210   47.6170 N   0  0  0  0  0  0  0  0  0  0  0  0
   58.1390   32.7190   45.8930 S   0  0  0  0  0  0  0  0  0  0  0  0
   58.3690   34.4330   45.4730 C   0  0  0  0  0  0  0  0  0  0  0  0
   59.2770   31.9290   45.3090 O   0  0  0  0  0  0  0  0  0  0  0  0
   56.8500   32.2010   45.3190 O   0  0  0  0  0  0  0  0  0  0  0  0
   60.4190   33.3720   47.9700 C   0  0  0  0  0  0  0  0  0  0  0  0
   61.3930   30.4000   47.0270 C   0  0  0  0  0  0  0  0  0  0  0  0
   57.4970   30.7898   43.4367 H   0  0  0  0  0  0  0  0  0  0  0  0
   57.0087   29.6266   42.1579 H   0  0  0  0  0  0  0  0  0  0  0  0
   56.3406   31.2940   42.1579 H   0  0  0  0  0  0  0  0  0  0  0  0
   54.7313   30.7728   43.6761 H   0  0  0  0  0  0  0  0  0  0  0  0
   55.1011   29.0604   43.2389 H   0  0  0  0  0  0  0  0  0  0  0  0
   57.9360   30.6160   46.4240 H   0  0  0  0  0  0  0  0  0  0  0  0
   59.2425   28.7262   49.0930 H   0  0  0  0  0  0  0  0  0  0  0  0
   60.7509   29.7197   50.8045 H   0  0  0  0  0  0  0  0  0  0  0  0
   64.9025   30.7307   50.7591 H   0  0  0  0  0  0  0  0  0  0  0  0
   64.5240   31.1045   49.0343 H   0  0  0  0  0  0  0  0  0  0  0  0
   65.8685   32.8481   50.4636 H   0  0  0  0  0  0  0  0  0  0  0  0
   64.4955   33.3984   49.3887 H   0  0  0  0  0  0  0  0  0  0  0  0
   64.8596   34.0636   52.0749 H   0  0  0  0  0  0  0  0  0  0  0  0
   63.3401   34.2236   51.0816 H   0  0  0  0  0  0  0  0  0  0  0  0
   64.0982   31.8634   52.8630 H   0  0  0  0  0  0  0  0  0  0  0  0
   62.8452   33.1152   53.1999 H   0  0  0  0  0  0  0  0  0  0  0  0
   62.0076   30.8808   52.2286 H   0  0  0  0  0  0  0  0  0  0  0  0
   61.4836   32.3933   51.3830 H   0  0  0  0  0  0  0  0  0  0  0  0
   63.5213   34.2405   49.0499 H   0  0  0  0  0  0  0  0  0  0  0  0
   62.7390   35.1801   47.7131 H   0  0  0  0  0  0  0  0  0  0  0  0
   61.9594   34.4989   50.8110 H   0  0  0  0  0  0  0  0  0  0  0  0
   59.7206   33.9534   51.7567 H   0  0  0  0  0  0  0  0  0  0  0  0
   57.9276   33.0352   50.2909 H   0  0  0  0  0  0  0  0  0  0  0  0
   57.3970   31.9170   48.0230 H   0  0  0  0  0  0  0  0  0  0  0  0
   58.4489   35.0287   46.3943 H   0  0  0  0  0  0  0  0  0  0  0  0
   59.2903   34.5454   44.8826 H   0  0  0  0  0  0  0  0  0  0  0  0
   57.5099   34.7843   44.8826 H   0  0  0  0  0  0  0  0  0  0  0  0
   60.6215   33.2015   46.9023 H   0  0  0  0  0  0  0  0  0  0  0  0
   61.5662   30.6071   45.9606 H   0  0  0  0  0  0  0  0  0  0  0  0
  1  2  1  0
  2  3  1  0
  3  4  1  0
  4  5  2  0
  4  6  1  0
  6  7  1  0
  7  8  2  0
  7  9  1  0
  9 10  2  0
 10 11  1  0
 11 12  2  0
 12 13  1  0
 13 14  1  0
 14 15  1  0
 15 16  1  0
 16 17  1  0
 17 18  1  0
 12 19  1  0
 19 20  1  0
 20 21  1  0
 21 22  2  0
 21 23  1  0
 23 24  1  0
 24 25  2  0
 25 26  1  0
 26 27  2  0
 27 28  1  0
 28 29  1  0
 29 30  1  0
 30 31  1  0
 30 32  2  0
 30 33  2  0
 28 34  2  0
 19 35  2  0
 35  9  1  0
 18 13  1  0
 34 24  1  0
  1 36  1  0
  1 37  1  0
  1 38  1  0
  2 39  1  0
  2 40  1  0
  6 41  1  0
 10 42  1  0
 11 43  1  0
 14 44  1  0
 14 45  1  0
 15 46  1  0
 15 47  1  0
 16 48  1  0
 16 49  1  0
 17 50  1  0
 17 51  1  0
 18 52  1  0
 18 53  1  0
 23 54  1  0
 23 55  1  0
 25 56  1  0
 26 57  1  0
 27 58  1  0
 29 59  1  0
 31 60  1  0
 31 61  1  0
 31 62  1  0
 34 63  1  0
 35 64  1  0
M  CHG  1  20  -1
M  END
>  <UniqueID>  (31) 
29

>  <SMILES>  (31) 
CCOC(=O)NC(=O)c1ccc(N2CCCCC2)c([N-]C(=O)Cc2cccc(NS(C)(=O)=O)c2)c1

>  <Energy>  (31) 
72.12865143782341

>  <Genealogy>  (31) 
CCOC(=O)NC(=O)c1ccc(N2CCCCC2)c([N-]C(=O)Cc2cccc(NS(C)(=O)=O)c2)c1 (protonated)
CCOC(=O)NC(=O)c1ccc(N2CCCCC2)c([N-]C(=O)Cc2cccc(NS(C)(=O)=O)c2)c1 (3D coordinates assigned)
CCOC(=O)NC(=O)c1ccc(N2CCCCC2)c([N-]C(=O)Cc2cccc(NS(C)(=O)=O)c2)c1 (nonaromatic ring conformer: 72.12865143782341 kcal/mol)

>  <smiles>  (31) 
CCOC(=O)NC(=O)c1ccc(N2CCCCC2)c(NC(=O)Cc2cccc(NS(C)(=O)=O)c2)c1

>  <score_type>  (31) 
oracle

>  <origin>  (31) 
adg

>  <m_score__min__energy>  (31) 
-10.74

>  <m_primary>  (31) 
energy

$$$$
31:0
     RDKit          3D

 65 68  0  0  1  0  0  0  0  0999 V2000
   59.8100   28.5320   49.0470 C   0  0  0  0  0  0  0  0  0  0  0  0
   52.8960   31.6080   51.4120 C   0  0  0  0  0  0  0  0  0  0  0  0
   54.1620   31.1780   51.2650 N   0  0  0  0  0  0  0  0  0  0  0  0
   54.7310   30.3160   52.1230 C   0  0  0  0  0  0  0  0  0  0  0  0
   55.9200   29.8980   52.0190 N   0  0  0  0  0  0  0  0  0  0  0  0
   57.0090   30.5680   52.6520 C   0  0  0  0  0  0  0  0  0  0  0  0
   57.0640   32.0270   52.1570 C   0  0  0  0  0  0  0  0  0  0  0  0
   58.4050   32.2060   51.6340 N   0  0  0  0  0  0  0  0  0  0  0  0
   58.6890   31.7510   50.4640 C   0  0  0  0  0  0  0  0  0  0  0  0
   53.9740   29.8610   53.1970 C   0  0  0  0  0  0  0  0  0  0  0  0
   52.6690   30.2930   53.3630 C   0  0  0  0  0  0  0  0  0  0  0  0
   52.1160   31.1780   52.4630 C   0  0  0  0  0  0  0  0  0  0  0  0
   50.7730   31.6010   52.6680 N   0  0  0  0  0  0  0  0  0  0  0  0
   50.0070   30.9650   53.4330 O   0  0  0  0  0  0  0  0  0  0  0  0
   50.2730   32.7160   52.0390 O   0  0  0  0  0  0  0  0  0  0  0  0
   59.3930   29.9440   49.0950 C   0  0  0  0  0  0  0  0  0  0  0  0
   59.0830   30.4790   50.3130 N   0  0  0  0  0  0  0  0  0  0  0  0
   58.5950   32.5290   49.3830 N   0  0  0  0  0  0  0  0  0  0  0  0
   58.8970   32.0350   48.1420 C   0  0  0  0  0  0  0  0  0  0  0  0
   58.7990   33.0190   47.0650 C   0  0  0  0  0  0  0  0  0  0  0  0
   57.6220   33.0380   46.3060 C   0  0  0  0  0  0  0  0  0  0  0  0
   57.4430   33.8860   45.2450 C   0  0  0  0  0  0  0  0  0  0  0  0
   58.4790   34.7620   44.9120 C   0  0  0  0  0  0  0  0  0  0  0  0
   59.6400   34.7340   45.6720 C   0  0  0  0  0  0  0  0  0  0  0  0
   59.8220   33.8840   46.7390 C   0  0  0  0  0  0  0  0  0  0  0  0
   61.2860   33.8480   47.6990 Cl  0  0  0  0  0  0  0  0  0  0  0  0
   59.2990   30.7470   47.9490 C   0  0  0  0  0  0  0  0  0  0  0  0
   59.6440   30.1450   46.6890 C   0  0  0  0  0  0  0  0  0  0  0  0
   60.8670   30.1510   46.3610 O   0  0  0  0  0  0  0  0  0  0  0  0
   58.7520   29.5380   45.7800 N   0  0  0  0  0  0  0  0  0  0  0  0
   59.1600   28.9460   44.5080 C   0  0  0  0  0  0  0  0  0  0  0  0
   58.0940   28.1020   43.8800 C   0  0  0  0  0  0  0  0  0  0  0  0
   57.1530   27.6810   44.7940 O   0  0  0  0  0  0  0  0  0  0  0  0
   57.1750   26.6780   45.7190 C   0  0  0  0  0  0  0  0  0  0  0  0
   58.0880   26.5270   46.7260 C   0  0  0  0  0  0  0  0  0  0  0  0
   58.0110   25.4550   47.6230 C   0  0  0  0  0  0  0  0  0  0  0  0
   57.0090   24.5230   47.5110 C   0  0  0  0  0  0  0  0  0  0  0  0
   56.0780   24.6550   46.5040 C   0  0  0  0  0  0  0  0  0  0  0  0
   56.1750   25.7180   45.6350 C   0  0  0  0  0  0  0  0  0  0  0  0
   59.9234   28.1481   50.0716 H   0  0  0  0  0  0  0  0  0  0  0  0
   59.0476   27.9424   48.5168 H   0  0  0  0  0  0  0  0  0  0  0  0
   60.7704   28.4511   48.5168 H   0  0  0  0  0  0  0  0  0  0  0  0
   54.7000   31.5310   50.4520 H   0  0  0  0  0  0  0  0  0  0  0  0
   57.9508   30.0584   52.4002 H   0  0  0  0  0  0  0  0  0  0  0  0
   56.8679   30.5532   53.7428 H   0  0  0  0  0  0  0  0  0  0  0  0
   56.8792   32.7228   52.9887 H   0  0  0  0  0  0  0  0  0  0  0  0
   56.2972   32.2296   51.3948 H   0  0  0  0  0  0  0  0  0  0  0  0
   54.4135   29.1553   53.9173 H   0  0  0  0  0  0  0  0  0  0  0  0
   52.0735   29.9297   54.2135 H   0  0  0  0  0  0  0  0  0  0  0  0
   52.4765   32.3147   50.6809 H   0  0  0  0  0  0  0  0  0  0  0  0
   59.1430   29.9030   51.1940 H   0  0  0  0  0  0  0  0  0  0  0  0
   56.8100   32.3453   46.5721 H   0  0  0  0  0  0  0  0  0  0  0  0
   56.5059   33.8773   44.6690 H   0  0  0  0  0  0  0  0  0  0  0  0
   58.3769   35.4582   44.0665 H   0  0  0  0  0  0  0  0  0  0  0  0
   60.4544   35.4249   45.4087 H   0  0  0  0  0  0  0  0  0  0  0  0
   57.7410   29.4720   46.0020 H   0  0  0  0  0  0  0  0  0  0  0  0
   59.4185   29.7575   43.8119 H   0  0  0  0  0  0  0  0  0  0  0  0
   60.0176   28.2887   44.7140 H   0  0  0  0  0  0  0  0  0  0  0  0
   57.5901   28.6915   43.0999 H   0  0  0  0  0  0  0  0  0  0  0  0
   58.5775   27.2080   43.4594 H   0  0  0  0  0  0  0  0  0  0  0  0
   58.8989   27.2625   46.8332 H   0  0  0  0  0  0  0  0  0  0  0  0
   58.7590   25.3586   48.4237 H   0  0  0  0  0  0  0  0  0  0  0  0
   56.9503   23.6812   48.2166 H   0  0  0  0  0  0  0  0  0  0  0  0
   55.2670   23.9198   46.3958 H   0  0  0  0  0  0  0  0  0  0  0  0
   55.4248   25.8116   44.8360 H   0  0  0  0  0  0  0  0  0  0  0  0
  1  2  1  0
  2  3  1  0
  3  4  1  0
  4  5  2  0
  5  6  1  0
  6  7  1  0
  7  8  1  0
  8  9  2  0
  9 10  1  0
 10 11  2  0
 11 12  1  0
 12 13  1  0
 13 14  2  0
 13 15  1  0
 12 16  2  0
 16 17  1  0
  4 18  1  0
 18 19  2  0
 19 20  1  0
 20 21  2  0
 21 22  1  0
 22 23  2  0
 23 24  1  0
 24 25  2  0
 25 26  1  0
 19 27  1  0
 27 28  1  0
 28 29  2  0
 28 30  1  0
 30 31  1  0
 31 32  1  0
 32 33  1  0
 33 34  1  0
 34 35  2  0
 35 36  1  0
 36 37  2  0
 37 38  1  0
 38 39  2  0
 27  2  2  0
 39 34  1  0
 17  9  1  0
 25 20  1  0
  1 40  1  0
  1 41  1  0
  1 42  1  0
  3 43  1  0
  6 44  1  0
  6 45  1  0
  7 46  1  0
  7 47  1  0
 10 48  1  0
 11 49  1  0
 16 50  1  0
 17 51  1  0
 21 52  1  0
 22 53  1  0
 23 54  1  0
 24 55  1  0
 30 56  1  0
 31 57  1  0
 31 58  1  0
 32 59  1  0
 32 60  1  0
 35 61  1  0
 36 62  1  0
 37 63  1  0
 38 64  1  0
 39 65  1  0
M  CHG  2  13   1  15  -1
M  END
>  <smiles>  (32) 
Cc1[nH]c(=NCCN=c2ccc([N+](=O)[O-])c[nH]2)nc(-c2ccccc2Cl)c1C(=O)NCCOc1ccccc1

>  <score_type>  (32) 
oracle

>  <origin>  (32) 
adg

>  <m_score__min__energy>  (32) 
-9.5999999999999996

>  <m_primary>  (32) 
energy

$$$$
32:0
     RDKit          3D

 34 36  0  0  0  0  0  0  0  0999 V2000
   53.9780   23.6830   45.8880 H   0  0  0  0  0  0  0  0  0  0  0  0
   54.7550   23.0210   46.1090 N   0  0  0  0  0  0  0  0  0  0  0  0
   55.9680   23.4420   46.2710 C   0  0  0  0  0  0  0  0  0  0  0  0
   56.4010   24.7410   46.1640 C   0  0  0  0  0  0  0  0  0  0  0  0
   55.7700   25.9460   45.8890 C   0  0  0  0  0  0  0  0  0  0  0  0
   54.5240   25.9810   45.7000 O   0  0  0  0  0  0  0  0  0  0  0  0
   56.5300   27.0930   45.8630 N   0  0  0  0  0  0  0  0  0  0  0  0
   55.9280   28.3430   45.6190 N   0  0  0  0  0  0  0  0  0  0  0  0
   56.3000   29.3220   44.2380 S   0  0  0  0  0  0  0  0  0  0  0  0
   56.9930   30.5710   44.7020 O   0  0  0  0  0  0  0  0  0  0  0  0
   55.0350   29.6960   43.5170 O   0  0  0  0  0  0  0  0  0  0  0  0
   57.3940   28.4450   43.1390 C   0  0  0  0  0  0  0  0  0  0  0  0
   58.1183   27.8643   43.7290 H   0  0  0  0  0  0  0  0  0  0  0  0
   56.8078   27.7638   42.5047 H   0  0  0  0  0  0  0  0  0  0  0  0
   57.9313   29.1653   42.5047 H   0  0  0  0  0  0  0  0  0  0  0  0
   57.8820   27.0600   46.1540 C   0  0  0  0  0  0  0  0  0  0  0  0
   58.6380   28.2820   46.1580 N   0  0  0  0  0  0  0  0  0  0  0  0
   59.6260   28.6140   45.3060 C   0  0  0  0  0  0  0  0  0  0  0  0
   59.9793   27.9902   44.4717 H   0  0  0  0  0  0  0  0  0  0  0  0
   60.1280   29.8550   45.6380 C   0  0  0  0  0  0  0  0  0  0  0  0
   60.9382   30.3945   45.1256 H   0  0  0  0  0  0  0  0  0  0  0  0
   59.4150   30.2890   46.7400 C   0  0  0  0  0  0  0  0  0  0  0  0
   59.5469   31.2408   47.2755 H   0  0  0  0  0  0  0  0  0  0  0  0
   58.5050   29.2940   47.0370 C   0  0  0  0  0  0  0  0  0  0  0  0
   57.7816   29.3232   47.8652 H   0  0  0  0  0  0  0  0  0  0  0  0
   58.5340   25.8230   46.4210 C   0  0  0  0  0  0  0  0  0  0  0  0
   60.0070   25.7370   46.7140 C   0  0  0  0  0  0  0  0  0  0  0  0
   60.1644   25.7278   47.8026 H   0  0  0  0  0  0  0  0  0  0  0  0
   60.4145   24.8135   46.2768 H   0  0  0  0  0  0  0  0  0  0  0  0
   60.5192   26.6068   46.2768 H   0  0  0  0  0  0  0  0  0  0  0  0
   57.7370   24.6780   46.4250 C   0  0  0  0  0  0  0  0  0  0  0  0
   58.1110   23.4050   46.6780 N   0  0  0  0  0  0  0  0  0  0  0  0
   57.0190   22.6540   46.5800 N   0  0  0  0  0  0  0  0  0  0  0  0
   57.0020   21.6200   46.7260 H   0  0  0  0  0  0  0  0  0  0  0  0
  1  2  1  0
  2  3  2  0
  3  4  1  0
  4  5  1  0
  5  6  2  0
  5  7  1  0
  7  8  1  0
  8  9  1  0
  9 10  2  0
  9 11  2  0
  9 12  1  0
 12 13  1  0
 12 14  1  0
 12 15  1  0
  7 16  1  0
 16 17  1  0
 17 18  1  0
 18 19  1  0
 18 20  2  0
 20 21  1  0
 20 22  1  0
 22 23  1  0
 22 24  2  0
 24 25  1  0
 16 26  2  0
 26 27  1  0
 27 28  1  0
 27 29  1  0
 27 30  1  0
 26 31  1  0
 31 32  1  0
 32 33  1  0
 33 34  1  0
 33  3  1  0
 31  4  2  0
 24 17  1  0
M  CHG  2   8  -1  32  -1
M  END
>  <UniqueID>  (33) 
30

>  <SMILES>  (33) 
[H]/N=c1\[nH][n-]c2c(C)c(-n3cccc3)n([N-]S(C)(=O)=O)c(=O)c12

>  <Energy>  (33) 
113.82647167251126

>  <Genealogy>  (33) 
Cc1c(-n2cccc2)n([N-]S(C)(=O)=O)c(=O)c2c(=N)[nH][n-]c12 (protonated)
[H]/N=c1\[nH][n-]c2c(C)c(-n3cccc3)n([N-]S(C)(=O)=O)c(=O)c12 (cis-trans isomerization)
[H]/N=c1\[nH][n-]c2c(C)c(-n3cccc3)n([N-]S(C)(=O)=O)c(=O)c12 (3D coordinates assigned)
[H]/N=c1\[nH][n-]c2c(C)c(-n3cccc3)n([N-]S(C)(=O)=O)c(=O)c12 (optimized conformer: 113.82647167251126 kcal/mol)

>  <smiles>  (33) 
Cc1c(-n2cccc2)n(NS(C)(=O)=O)c(=O)c2c(=N)[nH][nH]c12

>  <score_type>  (33) 
oracle

>  <origin>  (33) 
adg

>  <m_score__min__energy>  (33) 
-9.2100000000000009

>  <m_primary>  (33) 
energy

$$$$
33:0
     RDKit          3D

 47 50  0  0  0  0  0  0  0  0999 V2000
   60.3550   27.6710   48.3210 C   0  0  0  0  0  0  0  0  0  0  0  0
   59.9670   29.0700   47.9430 C   0  0  0  0  0  0  0  0  0  0  0  0
   60.3350   29.5910   46.6950 C   0  0  0  0  0  0  0  0  0  0  0  0
   60.0100   30.9070   46.3560 C   0  0  0  0  0  0  0  0  0  0  0  0
   59.3210   31.7290   47.2640 C   0  0  0  0  0  0  0  0  0  0  0  0
   59.0070   33.0970   46.9150 N   0  0  0  0  0  0  0  0  0  0  0  0
   57.7680   33.4280   46.2010 C   0  0  0  0  0  0  0  0  0  0  0  0
   57.6460   32.5860   44.9700 C   0  0  0  0  0  0  0  0  0  0  0  0
   58.1570   32.9000   43.7250 C   0  0  0  0  0  0  0  0  0  0  0  0
   57.7670   31.8730   42.8910 C   0  0  0  0  0  0  0  0  0  0  0  0
   57.0380   31.0060   43.6820 C   0  0  0  0  0  0  0  0  0  0  0  0
   56.4070   29.7350   43.2250 C   0  0  0  0  0  0  0  0  0  0  0  0
   56.9830   31.4540   44.9150 O   0  0  0  0  0  0  0  0  0  0  0  0
   59.9120   34.1640   47.2700 C   0  0  0  0  0  0  0  0  0  0  0  0
   59.5590   35.3610   47.0930 O   0  0  0  0  0  0  0  0  0  0  0  0
   61.2380   33.8710   47.8690 C   0  0  0  0  0  0  0  0  0  0  0  0
   61.3660   33.7390   49.2590 C   0  0  0  0  0  0  0  0  0  0  0  0
   62.6160   33.4670   49.8200 C   0  0  0  0  0  0  0  0  0  0  0  0
   62.7820   33.3240   51.2050 C   0  0  0  0  0  0  0  0  0  0  0  0
   64.0500   33.0520   51.7300 C   0  0  0  0  0  0  0  0  0  0  0  0
   65.1520   32.9250   50.8760 C   0  0  0  0  0  0  0  0  0  0  0  0
   64.9910   33.0670   49.4940 C   0  0  0  0  0  0  0  0  0  0  0  0
   63.7260   33.3390   48.9610 C   0  0  0  0  0  0  0  0  0  0  0  0
   63.5750   33.4770   47.6480 O   0  0  0  0  0  0  0  0  0  0  0  0
   62.4000   33.7340   47.0790 C   0  0  0  0  0  0  0  0  0  0  0  0
   62.3400   33.8390   45.8260 O   0  0  0  0  0  0  0  0  0  0  0  0
   58.9680   31.2070   48.5220 C   0  0  0  0  0  0  0  0  0  0  0  0
   59.2950   29.8910   48.8590 C   0  0  0  0  0  0  0  0  0  0  0  0
   60.3800   27.5809   49.4170 H   0  0  0  0  0  0  0  0  0  0  0  0
   59.6193   26.9631   47.9116 H   0  0  0  0  0  0  0  0  0  0  0  0
   61.3502   27.4432   47.9116 H   0  0  0  0  0  0  0  0  0  0  0  0
   60.8825   28.9607   45.9788 H   0  0  0  0  0  0  0  0  0  0  0  0
   60.2958   31.3028   45.3703 H   0  0  0  0  0  0  0  0  0  0  0  0
   56.9069   33.2386   46.8587 H   0  0  0  0  0  0  0  0  0  0  0  0
   57.7904   34.4891   45.9119 H   0  0  0  0  0  0  0  0  0  0  0  0
   58.7515   33.7853   43.4551 H   0  0  0  0  0  0  0  0  0  0  0  0
   57.9900   31.7664   41.8191 H   0  0  0  0  0  0  0  0  0  0  0  0
   56.1104   29.1376   44.0998 H   0  0  0  0  0  0  0  0  0  0  0  0
   55.5180   29.9642   42.6190 H   0  0  0  0  0  0  0  0  0  0  0  0
   57.1270   29.1654   42.6190 H   0  0  0  0  0  0  0  0  0  0  0  0
   60.4837   33.8494   49.9065 H   0  0  0  0  0  0  0  0  0  0  0  0
   61.9172   33.4255   51.8772 H   0  0  0  0  0  0  0  0  0  0  0  0
   64.1813   32.9377   52.8161 H   0  0  0  0  0  0  0  0  0  0  0  0
   66.1475   32.7129   51.2932 H   0  0  0  0  0  0  0  0  0  0  0  0
   65.8589   32.9649   48.8259 H   0  0  0  0  0  0  0  0  0  0  0  0
   58.4312   31.8389   49.2448 H   0  0  0  0  0  0  0  0  0  0  0  0
   59.0234   29.4968   49.8494 H   0  0  0  0  0  0  0  0  0  0  0  0
  1  2  1  0
  2  3  2  0
  3  4  1  0
  4  5  2  0
  5  6  1  0
  6  7  1  0
  7  8  1  0
  8  9  2  0
  9 10  1  0
 10 11  2  0
 11 12  1  0
 11 13  1  0
  6 14  1  0
 14 15  2  0
 14 16  1  0
 16 17  2  0
 17 18  1  0
 18 19  2  0
 19 20  1  0
 20 21  2  0
 21 22  1  0
 22 23  2  0
 23 24  1  0
 24 25  1  0
 25 26  2  0
  5 27  1  0
 27 28  2  0
 28  2  1  0
 13  8  1  0
 25 16  1  0
 23 18  1  0
  1 29  1  0
  1 30  1  0
  1 31  1  0
  3 32  1  0
  4 33  1  0
  7 34  1  0
  7 35  1  0
  9 36  1  0
 10 37  1  0
 12 38  1  0
 12 39  1  0
 12 40  1  0
 17 41  1  0
 19 42  1  0
 20 43  1  0
 21 44  1  0
 22 45  1  0
 27 46  1  0
 28 47  1  0
M  END
>  <UniqueID>  (34) 
31

>  <SMILES>  (34) 
Cc1ccc(N(Cc2ccc(C)o2)C(=O)c2cc3ccccc3oc2=O)cc1

>  <Energy>  (34) 
86.56337880062448

>  <Genealogy>  (34) 
Cc1ccc(N(Cc2ccc(C)o2)C(=O)c2cc3ccccc3oc2=O)cc1 (3D coordinates assigned)
Cc1ccc(N(Cc2ccc(C)o2)C(=O)c2cc3ccccc3oc2=O)cc1 (optimized conformer: 86.56337880062448 kcal/mol)

>  <smiles>  (34) 
Cc1ccc(N(Cc2ccc(C)o2)C(=O)c2cc3ccccc3oc2=O)cc1

>  <score_type>  (34) 
oracle

>  <origin>  (34) 
adg

>  <m_score__min__energy>  (34) 
-8.3699999999999992

>  <m_primary>  (34) 
energy

$$$$
34:0
     RDKit          3D

 29 30  0  0  0  0  0  0  0  0999 V2000
   55.5380   27.4750   45.6340 O   0  0  0  0  0  0  0  0  0  0  0  0
   56.3520   26.7260   46.2350 C   0  0  0  0  0  0  0  0  0  0  0  0
   55.9320   25.4610   46.6320 O   0  0  0  0  0  0  0  0  0  0  0  0
   57.7240   27.1890   46.5570 C   0  0  0  0  0  0  0  0  0  0  0  0
   58.6750   26.2400   46.9770 C   0  0  0  0  0  0  0  0  0  0  0  0
   59.9630   26.6330   47.3450 C   0  0  0  0  0  0  0  0  0  0  0  0
   60.3250   27.9780   47.2940 C   0  0  0  0  0  0  0  0  0  0  0  0
   59.4030   28.9330   46.8670 C   0  0  0  0  0  0  0  0  0  0  0  0
   58.1000   28.5570   46.4960 C   0  0  0  0  0  0  0  0  0  0  0  0
   57.2020   29.5530   45.9750 N   0  0  0  0  0  0  0  0  0  0  0  0
   57.6400   30.8290   45.4710 C   0  0  0  0  0  0  0  0  0  0  0  0
   58.3210   31.7300   46.3110 C   0  0  0  0  0  0  0  0  0  0  0  0
   58.7240   32.9910   45.8400 C   0  0  0  0  0  0  0  0  0  0  0  0
   59.5020   33.9240   46.7350 C   0  0  0  0  0  0  0  0  0  0  0  0
   59.1270   33.7540   48.0560 F   0  0  0  0  0  0  0  0  0  0  0  0
   59.2730   35.2450   46.3880 F   0  0  0  0  0  0  0  0  0  0  0  0
   60.8520   33.6530   46.6110 F   0  0  0  0  0  0  0  0  0  0  0  0
   58.4720   33.3330   44.5030 C   0  0  0  0  0  0  0  0  0  0  0  0
   57.7860   32.4510   43.6650 C   0  0  0  0  0  0  0  0  0  0  0  0
   57.3600   31.2080   44.1420 C   0  0  0  0  0  0  0  0  0  0  0  0
   56.5230   30.1280   43.0340 Cl  0  0  0  0  0  0  0  0  0  0  0  0
   58.3999   25.1757   47.0157 H   0  0  0  0  0  0  0  0  0  0  0  0
   60.6934   25.8799   47.6758 H   0  0  0  0  0  0  0  0  0  0  0  0
   61.3384   28.2862   47.5907 H   0  0  0  0  0  0  0  0  0  0  0  0
   59.6982   29.9916   46.8199 H   0  0  0  0  0  0  0  0  0  0  0  0
   56.1870   29.3100   45.9230 H   0  0  0  0  0  0  0  0  0  0  0  0
   58.5406   31.4432   47.3500 H   0  0  0  0  0  0  0  0  0  0  0  0
   58.8168   34.3017   44.1122 H   0  0  0  0  0  0  0  0  0  0  0  0
   57.5796   32.7363   42.6229 H   0  0  0  0  0  0  0  0  0  0  0  0
  1  2  2  0
  2  3  1  0
  2  4  1  0
  4  5  2  0
  5  6  1  0
  6  7  2  0
  7  8  1  0
  8  9  2  0
  9 10  1  0
 10 11  1  0
 11 12  2  0
 12 13  1  0
 13 14  1  0
 14 15  1  0
 14 16  1  0
 14 17  1  0
 13 18  2  0
 18 19  1  0
 19 20  2  0
 20 21  1  0
  9  4  1  0
 20 11  1  0
  5 22  1  0
  6 23  1  0
  7 24  1  0
  8 25  1  0
 10 26  1  0
 12 27  1  0
 18 28  1  0
 19 29  1  0
M  CHG  1   3  -1
M  END
>  <UniqueID>  (35) 
32

>  <SMILES>  (35) 
O=C([O-])c1ccccc1Nc1cc(C(F)(F)F)ccc1Cl

>  <Energy>  (35) 
40.86511829522186

>  <Genealogy>  (35) 
O=C([O-])c1ccccc1Nc1cc(C(F)(F)F)ccc1Cl (protonated)
O=C([O-])c1ccccc1Nc1cc(C(F)(F)F)ccc1Cl (3D coordinates assigned)
O=C([O-])c1ccccc1Nc1cc(C(F)(F)F)ccc1Cl (optimized conformer: 40.86511829522186 kcal/mol)

>  <smiles>  (35) 
O=C(O)c1ccccc1Nc1cc(C(F)(F)F)ccc1Cl

>  <score_type>  (35) 
oracle

>  <origin>  (35) 
adg

>  <m_score__min__energy>  (35) 
-9.5999999999999996

>  <m_primary>  (35) 
energy

$$$$
35:0
     RDKit          3D

 35 37  0  0  0  0  0  0  0  0999 V2000
   59.2600   22.1920   44.8900 C   0  0  0  0  0  0  0  0  0  0  0  0
   58.6930   22.8820   45.9990 O   0  0  0  0  0  0  0  0  0  0  0  0
   57.9910   24.0920   45.9040 C   0  0  0  0  0  0  0  0  0  0  0  0
   58.7060   25.2520   45.5840 C   0  0  0  0  0  0  0  0  0  0  0  0
   58.0550   26.4840   45.4810 C   0  0  0  0  0  0  0  0  0  0  0  0
   56.6680   26.5730   45.6970 C   0  0  0  0  0  0  0  0  0  0  0  0
   55.9580   27.8160   45.6070 N   0  0  0  0  0  0  0  0  0  0  0  0
   56.4880   29.2040   44.7130 S   0  0  0  0  0  0  0  0  0  0  0  0
   57.0160   28.7580   43.3780 O   0  0  0  0  0  0  0  0  0  0  0  0
   55.3200   30.1250   44.4940 O   0  0  0  0  0  0  0  0  0  0  0  0
   57.7270   30.0630   45.6240 C   0  0  0  0  0  0  0  0  0  0  0  0
   58.5160   29.3660   46.5460 C   0  0  0  0  0  0  0  0  0  0  0  0
   59.5080   30.0330   47.2650 C   0  0  0  0  0  0  0  0  0  0  0  0
   59.7190   31.4000   47.0680 C   0  0  0  0  0  0  0  0  0  0  0  0
   58.9350   32.1190   46.1460 C   0  0  0  0  0  0  0  0  0  0  0  0
   59.1660   33.5300   45.9530 N   0  0  0  0  0  0  0  0  0  0  0  0
   59.5840   34.4510   46.8420 C   0  0  0  0  0  0  0  0  0  0  0  0
   59.6630   35.6560   46.2470 N   0  0  0  0  0  0  0  0  0  0  0  0
   59.2860   35.4520   44.9920 N   0  0  0  0  0  0  0  0  0  0  0  0
   58.9860   34.1750   44.8130 N   0  0  0  0  0  0  0  0  0  0  0  0
   57.9340   31.4360   45.4270 C   0  0  0  0  0  0  0  0  0  0  0  0
   55.9500   25.4120   46.0110 C   0  0  0  0  0  0  0  0  0  0  0  0
   56.6030   24.1800   46.1150 C   0  0  0  0  0  0  0  0  0  0  0  0
   59.9188   21.3903   45.2549 H   0  0  0  0  0  0  0  0  0  0  0  0
   58.4557   21.7561   44.2792 H   0  0  0  0  0  0  0  0  0  0  0  0
   59.8435   22.8966   44.2792 H   0  0  0  0  0  0  0  0  0  0  0  0
   59.7909   25.1931   45.4120 H   0  0  0  0  0  0  0  0  0  0  0  0
   58.6295   27.3879   45.2300 H   0  0  0  0  0  0  0  0  0  0  0  0
   58.3535   28.2896   46.7041 H   0  0  0  0  0  0  0  0  0  0  0  0
   60.1257   29.4813   47.9889 H   0  0  0  0  0  0  0  0  0  0  0  0
   60.5040   31.9186   47.6379 H   0  0  0  0  0  0  0  0  0  0  0  0
   59.8248   34.2490   47.8962 H   0  0  0  0  0  0  0  0  0  0  0  0
   57.3101   31.9840   44.7056 H   0  0  0  0  0  0  0  0  0  0  0  0
   54.8641   25.4699   46.1770 H   0  0  0  0  0  0  0  0  0  0  0  0
   56.0286   23.2753   46.3630 H   0  0  0  0  0  0  0  0  0  0  0  0
  1  2  1  0
  2  3  1  0
  3  4  2  0
  4  5  1  0
  5  6  2  0
  6  7  1  0
  7  8  1  0
  8  9  2  0
  8 10  2  0
  8 11  1  0
 11 12  2  0
 12 13  1  0
 13 14  2  0
 14 15  1  0
 15 16  1  0
 16 17  1  0
 17 18  2  0
 18 19  1  0
 19 20  2  0
 15 21  2  0
  6 22  1  0
 22 23  2  0
 23  3  1  0
 21 11  1  0
 20 16  1  0
  1 24  1  0
  1 25  1  0
  1 26  1  0
  4 27  1  0
  5 28  1  0
 12 29  1  0
 13 30  1  0
 14 31  1  0
 17 32  1  0
 21 33  1  0
 22 34  1  0
 23 35  1  0
M  CHG  1   7  -1
M  END
>  <UniqueID>  (36) 
33

>  <SMILES>  (36) 
COc1ccc([N-]S(=O)(=O)c2cccc(-n3cnnn3)c2)cc1

>  <Energy>  (36) 
81.71311578828153

>  <Genealogy>  (36) 
COc1ccc([N-]S(=O)(=O)c2cccc(-n3cnnn3)c2)cc1 (protonated)
COc1ccc([N-]S(=O)(=O)c2cccc(-n3cnnn3)c2)cc1 (3D coordinates assigned)
COc1ccc([N-]S(=O)(=O)c2cccc(-n3cnnn3)c2)cc1 (optimized conformer: 81.71311578828153 kcal/mol)

>  <smiles>  (36) 
COc1ccc(NS(=O)(=O)c2cccc(-n3cnnn3)c2)cc1

>  <score_type>  (36) 
oracle

>  <origin>  (36) 
adg

>  <m_score__min__energy>  (36) 
-9.4100000000000001

>  <m_primary>  (36) 
energy

$$$$
36:0
     RDKit          3D

 51 55  0  0  0  0  0  0  0  0999 V2000
   58.1977   35.4694   45.7587 H   0  0  0  0  0  0  0  0  0  0  0  0
   58.1370   34.3910   45.9670 C   0  0  0  0  0  0  0  0  0  0  0  0
   57.4110   33.5820   45.1530 N   0  0  0  0  0  0  0  0  0  0  0  0
   57.3150   32.2450   45.3950 C   0  0  0  0  0  0  0  0  0  0  0  0
   56.6380   31.4650   44.6030 N   0  0  0  0  0  0  0  0  0  0  0  0
   57.2200   30.4810   43.6840 C   0  0  1  0  0  0  0  0  0  0  0  0
   58.0748   30.9436   43.1688 H   0  0  0  0  0  0  0  0  0  0  0  0
   57.6970   29.2770   44.4600 C   0  0  0  0  0  0  0  0  0  0  0  0
   56.7800   28.4090   44.9720 N   0  0  0  0  0  0  0  0  0  0  0  0
   57.1420   27.3250   45.7140 C   0  0  0  0  0  0  0  0  0  0  0  0
   56.1670   26.4570   46.2240 C   0  0  0  0  0  0  0  0  0  0  0  0
   54.8190   26.6990   45.9810 O   0  0  0  0  0  0  0  0  0  0  0  0
   56.5490   25.3440   46.9850 C   0  0  0  0  0  0  0  0  0  0  0  0
   55.7821   24.6596   47.3767 H   0  0  0  0  0  0  0  0  0  0  0  0
   57.9000   25.0990   47.2490 C   0  0  0  0  0  0  0  0  0  0  0  0
   58.1926   24.2248   47.8491 H   0  0  0  0  0  0  0  0  0  0  0  0
   58.8800   25.9640   46.7510 C   0  0  0  0  0  0  0  0  0  0  0  0
   59.9419   25.7724   46.9644 H   0  0  0  0  0  0  0  0  0  0  0  0
   58.5090   27.0780   45.9780 C   0  0  0  0  0  0  0  0  0  0  0  0
   59.4690   27.9640   45.4690 C   0  0  0  0  0  0  0  0  0  0  0  0
   60.5377   27.7901   45.6630 H   0  0  0  0  0  0  0  0  0  0  0  0
   59.0650   29.0680   44.7150 C   0  0  0  0  0  0  0  0  0  0  0  0
   59.8135   29.7717   44.3219 H   0  0  0  0  0  0  0  0  0  0  0  0
   56.1920   30.0520   42.6270 C   0  0  0  0  0  0  0  0  0  0  0  0
   55.2877   29.6746   43.1269 H   0  0  0  0  0  0  0  0  0  0  0  0
   55.9300   30.9159   41.9985 H   0  0  0  0  0  0  0  0  0  0  0  0
   56.6218   29.2582   41.9985 H   0  0  0  0  0  0  0  0  0  0  0  0
   57.9590   31.7090   46.4650 N   0  0  0  0  0  0  0  0  0  0  0  0
   58.7050   32.4770   47.3090 C   0  0  0  0  0  0  0  0  0  0  0  0
   59.3980   31.8590   48.4110 N   0  0  0  0  0  0  0  0  0  0  0  0
   58.7980   31.5340   49.6570 C   0  0  0  0  0  0  0  0  0  0  0  0
   57.7490   32.0780   50.0990 O   0  0  0  0  0  0  0  0  0  0  0  0
   59.4910   30.5670   50.3480 O   0  0  0  0  0  0  0  0  0  0  0  0
   60.6270   30.1610   49.5940 C   0  0  0  0  0  0  0  0  0  0  0  0
   61.5516   30.3587   50.1562 H   0  0  0  0  0  0  0  0  0  0  0  0
   60.6069   29.0829   49.3765 H   0  0  0  0  0  0  0  0  0  0  0  0
   60.5910   31.0120   48.2910 C   0  0  2  0  0  0  0  0  0  0  0  0
   60.5407   30.3832   47.3898 H   0  0  0  0  0  0  0  0  0  0  0  0
   61.8560   31.8310   48.1390 C   0  0  0  0  0  0  0  0  0  0  0  0
   62.8440   31.7870   49.1430 C   0  0  0  0  0  0  0  0  0  0  0  0
   62.7122   31.1239   50.0107 H   0  0  0  0  0  0  0  0  0  0  0  0
   63.9940   32.5830   49.0430 C   0  0  0  0  0  0  0  0  0  0  0  0
   64.7663   32.5328   49.8247 H   0  0  0  0  0  0  0  0  0  0  0  0
   64.1610   33.4430   47.9480 C   0  0  0  0  0  0  0  0  0  0  0  0
   65.0604   34.0720   47.8738 H   0  0  0  0  0  0  0  0  0  0  0  0
   63.1800   33.5000   46.9480 C   0  0  0  0  0  0  0  0  0  0  0  0
   63.3138   34.1709   46.0866 H   0  0  0  0  0  0  0  0  0  0  0  0
   62.0290   32.7050   47.0420 C   0  0  0  0  0  0  0  0  0  0  0  0
   61.2581   32.7617   46.2594 H   0  0  0  0  0  0  0  0  0  0  0  0
   58.8050   33.8550   47.0660 C   0  0  0  0  0  0  0  0  0  0  0  0
   59.3992   34.4998   47.7302 H   0  0  0  0  0  0  0  0  0  0  0  0
  1  2  1  0
  2  3  1  0
  3  4  1  0
  4  5  2  0
  5  6  1  0
  6  7  1  6
  6  8  1  0
  8  9  2  0
  9 10  1  0
 10 11  2  0
 11 12  1  0
 11 13  1  0
 13 14  1  0
 13 15  2  0
 15 16  1  0
 15 17  1  0
 17 18  1  0
 17 19  2  0
 19 20  1  0
 20 21  1  0
 20 22  2  0
 22 23  1  0
  6 24  1  0
 24 25  1  0
 24 26  1  0
 24 27  1  0
  4 28  1  0
 28 29  2  0
 29 30  1  0
 30 31  1  0
 31 32  2  0
 31 33  1  0
 33 34  1  0
 34 35  1  0
 34 36  1  0
 34 37  1  0
 37 38  1  6
 37 39  1  0
 39 40  2  0
 40 41  1  0
 40 42  1  0
 42 43  1  0
 42 44  2  0
 44 45  1  0
 44 46  1  0
 46 47  1  0
 46 48  2  0
 48 49  1  0
 29 50  1  0
 50 51  1  0
 50  2  2  0
 22  8  1  0
 37 30  1  0
 48 39  1  0
 19 10  1  0
M  CHG  2   3  -1  12  -1
M  END
>  <UniqueID>  (37) 
34

>  <SMILES>  (37) 
C[C@@H](/N=c1/nc(N2C(=O)OC[C@@H]2c2ccccc2)cc[n-]1)c1ccc2cccc([O-])c2n1

>  <Energy>  (37) 
77.7881235965773

>  <Genealogy>  (37) 
CC(N=c1nc(N2C(=O)OCC2c2ccccc2)cc[n-]1)c1ccc2cccc([O-])c2n1 (protonated)
C[C@@H](N=c1nc(N2C(=O)OC[C@@H]2c2ccccc2)cc[n-]1)c1ccc2cccc([O-])c2n1 (chirality)
C[C@@H](/N=c1/nc(N2C(=O)OC[C@@H]2c2ccccc2)cc[n-]1)c1ccc2cccc([O-])c2n1 (cis-trans isomerization)
C[C@@H](/N=c1/nc(N2C(=O)OC[C@@H]2c2ccccc2)cc[n-]1)c1ccc2cccc([O-])c2n1 (3D coordinates assigned)
C[C@@H](/N=c1/nc(N2C(=O)OC[C@@H]2c2ccccc2)cc[n-]1)c1ccc2cccc([O-])c2n1 (nonaromatic ring conformer: 77.7881235965773 kcal/mol)

>  <smiles>  (37) 
CC(N=c1nc(N2C(=O)OCC2c2ccccc2)cc[nH]1)c1ccc2cccc(O)c2n1

>  <score_type>  (37) 
oracle

>  <origin>  (37) 
adg

>  <m_score__min__energy>  (37) 
-15.59

>  <m_primary>  (37) 
energy

$$$$
37:0
     RDKit          3D

 25 26  0  0  0  0  0  0  0  0999 V2000
   59.6321   35.1892   45.4123 H   0  0  0  0  0  0  0  0  0  0  0  0
   59.2330   34.1680   45.3240 C   0  0  0  0  0  0  0  0  0  0  0  0
   59.3040   33.2970   46.4100 C   0  0  0  0  0  0  0  0  0  0  0  0
   59.7623   33.6329   47.3519 H   0  0  0  0  0  0  0  0  0  0  0  0
   58.7950   31.9970   46.3080 C   0  0  0  0  0  0  0  0  0  0  0  0
   58.8670   30.9700   47.7380 Cl  0  0  0  0  0  0  0  0  0  0  0  0
   58.1990   31.5610   45.1020 C   0  0  0  0  0  0  0  0  0  0  0  0
   57.6470   30.1870   44.9950 C   0  0  0  0  0  0  0  0  0  0  0  0
   56.4020   30.0330   44.8960 O   0  0  0  0  0  0  0  0  0  0  0  0
   58.4770   29.0190   45.1050 N   0  0  0  0  0  0  0  0  0  0  0  0
   58.1960   27.8730   45.6660 C   0  0  0  0  0  0  0  0  0  0  0  0
   59.1280   27.1630   46.4520 C   0  0  0  0  0  0  0  0  0  0  0  0
   60.1382   27.5676   46.6128 H   0  0  0  0  0  0  0  0  0  0  0  0
   58.7610   25.9450   47.0240 C   0  0  0  0  0  0  0  0  0  0  0  0
   59.4792   25.3907   47.6461 H   0  0  0  0  0  0  0  0  0  0  0  0
   57.4830   25.4300   46.8070 C   0  0  0  0  0  0  0  0  0  0  0  0
   57.0100   23.8980   47.5190 Cl  0  0  0  0  0  0  0  0  0  0  0  0
   56.5900   26.1430   46.0070 C   0  0  0  0  0  0  0  0  0  0  0  0
   55.5816   25.7442   45.8223 H   0  0  0  0  0  0  0  0  0  0  0  0
   56.9610   27.3300   45.4540 N   0  0  0  0  0  0  0  0  0  0  0  0
   56.2670   27.8390   44.8610 H   0  0  0  0  0  0  0  0  0  0  0  0
   58.1430   32.4520   44.0040 C   0  0  0  0  0  0  0  0  0  0  0  0
   57.4980   31.9700   42.4370 Cl  0  0  0  0  0  0  0  0  0  0  0  0
   58.6570   33.7470   44.1260 C   0  0  0  0  0  0  0  0  0  0  0  0
   58.6065   34.4378   43.2714 H   0  0  0  0  0  0  0  0  0  0  0  0
  1  2  1  0
  2  3  2  0
  3  4  1  0
  3  5  1  0
  5  6  1  0
  5  7  2  0
  7  8  1  0
  8  9  2  0
  8 10  1  0
 10 11  2  0
 11 12  1  0
 12 13  1  0
 12 14  2  0
 14 15  1  0
 14 16  1  0
 16 17  1  0
 16 18  2  0
 18 19  1  0
 18 20  1  0
 20 21  1  0
  7 22  1  0
 22 23  1  0
 22 24  2  0
 24 25  1  0
 24  2  1  0
 20 11  1  0
M  END
>  <UniqueID>  (38) 
35

>  <SMILES>  (38) 
O=C(/N=c1\ccc(Cl)c[nH]1)c1c(Cl)cccc1Cl

>  <Energy>  (38) 
41.69887615031941

>  <Genealogy>  (38) 
O=C(/N=c1\ccc(Cl)c[nH]1)c1c(Cl)cccc1Cl (cis-trans isomerization)
O=C(/N=c1\ccc(Cl)c[nH]1)c1c(Cl)cccc1Cl (3D coordinates assigned)
O=C(/N=c1\ccc(Cl)c[nH]1)c1c(Cl)cccc1Cl (optimized conformer: 41.69887615031941 kcal/mol)

>  <smiles>  (38) 
O=C(N=c1ccc(Cl)c[nH]1)c1c(Cl)cccc1Cl

>  <score_type>  (38) 
oracle

>  <origin>  (38) 
adg

>  <m_score__min__energy>  (38) 
-6.71

>  <m_primary>  (38) 
energy

$$$$
38:0
     RDKit          3D

 51 53  0  0  0  0  0  0  0  0999 V2000
   58.1380   27.0520   43.2290 C   0  0  0  0  0  0  0  0  0  0  0  0
   57.7840   28.4160   43.7540 C   0  0  0  0  0  0  0  0  0  0  0  0
   56.8570   29.2000   43.0460 C   0  0  0  0  0  0  0  0  0  0  0  0
   56.4960   30.4650   43.5010 C   0  0  0  0  0  0  0  0  0  0  0  0
   57.0480   30.9820   44.6770 C   0  0  0  0  0  0  0  0  0  0  0  0
   56.6830   32.3130   45.0750 N   0  0  0  0  0  0  0  0  0  0  0  0
   57.5620   33.3940   45.4150 C   0  0  0  0  0  0  0  0  0  0  0  0
   57.9470   34.2160   44.5380 O   0  0  0  0  0  0  0  0  0  0  0  0
   58.0480   33.4940   46.7560 N   0  0  0  0  0  0  0  0  0  0  0  0
   58.8570   34.6190   47.2240 C   0  0  0  0  0  0  0  0  0  0  0  0
   60.2730   34.1850   47.5090 C   0  0  0  0  0  0  0  0  0  0  0  0
   61.1380   33.8460   46.4570 C   0  0  0  0  0  0  0  0  0  0  0  0
   62.4590   33.4770   46.7230 C   0  0  0  0  0  0  0  0  0  0  0  0
   62.9330   33.4450   48.0430 C   0  0  0  0  0  0  0  0  0  0  0  0
   64.2860   33.0700   48.3140 N   0  0  0  0  0  0  0  0  0  0  0  0
   62.0720   33.7870   49.0940 C   0  0  0  0  0  0  0  0  0  0  0  0
   60.7500   34.1590   48.8290 C   0  0  0  0  0  0  0  0  0  0  0  0
   57.9950   30.2190   45.3830 C   0  0  0  0  0  0  0  0  0  0  0  0
   58.3760   28.9420   44.9280 C   0  0  0  0  0  0  0  0  0  0  0  0
   59.3860   28.1950   45.7100 C   0  0  0  0  0  0  0  0  0  0  0  0
   60.5130   27.9580   45.2070 O   0  0  0  0  0  0  0  0  0  0  0  0
   59.0860   27.8100   47.0570 N   0  0  0  0  0  0  0  0  0  0  0  0
   59.5200   28.4230   48.2830 C   0  0  0  0  0  0  0  0  0  0  0  0
   60.4690   27.8260   49.1380 C   0  0  0  0  0  0  0  0  0  0  0  0
   60.8280   28.4550   50.3310 C   0  0  0  0  0  0  0  0  0  0  0  0
   60.2390   29.6690   50.6960 C   0  0  0  0  0  0  0  0  0  0  0  0
   59.2870   30.2760   49.8610 C   0  0  0  0  0  0  0  0  0  0  0  0
   58.5990   31.5470   50.2960 C   0  0  0  0  0  0  0  0  0  0  0  0
   57.5030   31.2250   51.0760 F   0  0  0  0  0  0  0  0  0  0  0  0
   58.1750   32.2810   49.2000 F   0  0  0  0  0  0  0  0  0  0  0  0
   59.4650   32.3350   51.0350 F   0  0  0  0  0  0  0  0  0  0  0  0
   58.9190   29.6320   48.6650 C   0  0  0  0  0  0  0  0  0  0  0  0
   58.3153   26.3690   44.0728 H   0  0  0  0  0  0  0  0  0  0  0  0
   57.3095   26.6690   42.6151 H   0  0  0  0  0  0  0  0  0  0  0  0
   59.0482   27.1203   42.6151 H   0  0  0  0  0  0  0  0  0  0  0  0
   56.4107   28.8087   42.1199 H   0  0  0  0  0  0  0  0  0  0  0  0
   55.7702   31.0631   42.9305 H   0  0  0  0  0  0  0  0  0  0  0  0
   57.7670   32.7630   47.4430 H   0  0  0  0  0  0  0  0  0  0  0  0
   58.8692   35.4001   46.4495 H   0  0  0  0  0  0  0  0  0  0  0  0
   58.4150   35.0054   48.1542 H   0  0  0  0  0  0  0  0  0  0  0  0
   60.7745   33.8709   45.4191 H   0  0  0  0  0  0  0  0  0  0  0  0
   63.1305   33.2103   45.8936 H   0  0  0  0  0  0  0  0  0  0  0  0
   64.6780   33.1340   49.2840 H   0  0  0  0  0  0  0  0  0  0  0  0
   64.9040   32.7150   47.5500 H   0  0  0  0  0  0  0  0  0  0  0  0
   62.4370   33.7629   50.1314 H   0  0  0  0  0  0  0  0  0  0  0  0
   60.0812   34.4324   49.6585 H   0  0  0  0  0  0  0  0  0  0  0  0
   58.4436   30.6246   46.3018 H   0  0  0  0  0  0  0  0  0  0  0  0
   60.9267   26.8639   48.8646 H   0  0  0  0  0  0  0  0  0  0  0  0
   61.5792   27.9925   50.9882 H   0  0  0  0  0  0  0  0  0  0  0  0
   60.5229   30.1517   51.6428 H   0  0  0  0  0  0  0  0  0  0  0  0
   58.1496   30.0826   48.0208 H   0  0  0  0  0  0  0  0  0  0  0  0
  1  2  1  0
  2  3  2  0
  3  4  1  0
  4  5  2  0
  5  6  1  0
  6  7  1  0
  7  8  2  0
  7  9  1  0
  9 10  1  0
 10 11  1  0
 11 12  2  0
 12 13  1  0
 13 14  2  0
 14 15  1  0
 14 16  1  0
 16 17  2  0
  5 18  1  0
 18 19  2  0
 19 20  1  0
 20 21  2  0
 20 22  1  0
 22 23  1  0
 23 24  2  0
 24 25  1  0
 25 26  2  0
 26 27  1  0
 27 28  1  0
 28 29  1  0
 28 30  1  0
 28 31  1  0
 27 32  2  0
 19  2  1  0
 32 23  1  0
 17 11  1  0
  1 33  1  0
  1 34  1  0
  1 35  1  0
  3 36  1  0
  4 37  1  0
  9 38  1  0
 10 39  1  0
 10 40  1  0
 12 41  1  0
 13 42  1  0
 15 43  1  0
 15 44  1  0
 16 45  1  0
 17 46  1  0
 18 47  1  0
 24 48  1  0
 25 49  1  0
 26 50  1  0
 32 51  1  0
M  CHG  2   6  -1  22  -1
M  END
>  <UniqueID>  (39) 
36

>  <SMILES>  (39) 
Cc1ccc([N-]C(=O)NCc2ccc(N)cc2)cc1C(=O)[N-]c1cccc(C(F)(F)F)c1

>  <Energy>  (39) 
62.67886326874549

>  <Genealogy>  (39) 
Cc1ccc([N-]C(=O)NCc2ccc(N)cc2)cc1C(=O)[N-]c1cccc(C(F)(F)F)c1 (protonated)
Cc1ccc([N-]C(=O)NCc2ccc(N)cc2)cc1C(=O)[N-]c1cccc(C(F)(F)F)c1 (3D coordinates assigned)
Cc1ccc([N-]C(=O)NCc2ccc(N)cc2)cc1C(=O)[N-]c1cccc(C(F)(F)F)c1 (optimized conformer: 62.67886326874549 kcal/mol)

>  <smiles>  (39) 
Cc1ccc(NC(=O)NCc2ccc(N)cc2)cc1C(=O)Nc1cccc(C(F)(F)F)c1

>  <score_type>  (39) 
oracle

>  <origin>  (39) 
adg

>  <m_score__min__energy>  (39) 
-11.380000000000001

>  <m_primary>  (39) 
energy

$$$$
39:0
     RDKit          3D

 66 70  0  0  0  0  0  0  0  0999 V2000
   62.1270   34.5110   49.4430 C   0  0  0  0  0  0  0  0  0  0  0  0
   60.9460   34.9470   48.7740 O   0  0  0  0  0  0  0  0  0  0  0  0
   60.2210   34.1750   47.8520 C   0  0  0  0  0  0  0  0  0  0  0  0
   60.1300   34.5360   46.4930 C   0  0  0  0  0  0  0  0  0  0  0  0
   59.4420   33.7270   45.5880 C   0  0  0  0  0  0  0  0  0  0  0  0
   58.8560   32.5250   46.0130 C   0  0  0  0  0  0  0  0  0  0  0  0
   58.1320   31.6610   45.0550 C   0  0  0  0  0  0  0  0  0  0  0  0
   57.7730   32.1500   43.7880 C   0  0  0  0  0  0  0  0  0  0  0  0
   57.0380   31.3530   42.9070 C   0  0  0  0  0  0  0  0  0  0  0  0
   56.6670   30.0580   43.2740 C   0  0  0  0  0  0  0  0  0  0  0  0
   57.0550   29.5380   44.5200 C   0  0  0  0  0  0  0  0  0  0  0  0
   56.6710   28.2040   44.8850 N   0  0  0  0  0  0  0  0  0  0  0  0
   57.5750   27.2730   45.5020 C   0  0  0  0  0  0  0  0  0  0  0  0
   58.8180   27.4880   45.4640 O   0  0  0  0  0  0  0  0  0  0  0  0
   57.0690   26.0250   46.1160 C   0  0  0  0  0  0  0  0  0  0  0  0
   57.7960   25.3950   47.1410 C   0  0  0  0  0  0  0  0  0  0  0  0
   57.3310   24.2050   47.7110 C   0  0  0  0  0  0  0  0  0  0  0  0
   56.1350   23.6370   47.2690 C   0  0  0  0  0  0  0  0  0  0  0  0
   55.3870   24.2640   46.2620 C   0  0  0  0  0  0  0  0  0  0  0  0
   54.1380   23.7080   45.8270 N   0  0  0  0  0  0  0  0  0  0  0  0
   53.6110   24.0450   44.5040 C   0  0  0  0  0  0  0  0  0  0  0  0
   52.0890   23.8770   44.5000 C   0  0  0  0  0  0  0  0  0  0  0  0
   51.7240   22.5900   44.9670 O   0  0  0  0  0  0  0  0  0  0  0  0
   52.0890   22.4490   46.3270 C   0  0  0  0  0  0  0  0  0  0  0  0
   53.6140   22.5160   46.4980 C   0  0  0  0  0  0  0  0  0  0  0  0
   55.8560   25.4560   45.6890 C   0  0  0  0  0  0  0  0  0  0  0  0
   57.7690   30.3510   45.4140 C   0  0  0  0  0  0  0  0  0  0  0  0
   58.9450   32.1610   47.3680 C   0  0  0  0  0  0  0  0  0  0  0  0
   59.5830   32.9960   48.2920 C   0  0  0  0  0  0  0  0  0  0  0  0
   59.5840   32.6050   49.6740 N   0  0  0  0  0  0  0  0  0  0  0  0
   59.0440   31.3900   50.2140 C   0  0  0  0  0  0  0  0  0  0  0  0
   57.8150   31.3490   50.4970 O   0  0  0  0  0  0  0  0  0  0  0  0
   59.9010   30.2230   50.5370 C   0  0  0  0  0  0  0  0  0  0  0  0
   60.7370   30.2700   51.6690 C   0  0  0  0  0  0  0  0  0  0  0  0
   61.5500   29.1810   51.9950 C   0  0  0  0  0  0  0  0  0  0  0  0
   61.5300   28.0310   51.2020 C   0  0  0  0  0  0  0  0  0  0  0  0
   60.7040   27.9690   50.0790 C   0  0  0  0  0  0  0  0  0  0  0  0
   59.8820   29.0520   49.7430 C   0  0  0  0  0  0  0  0  0  0  0  0
   58.8970   28.9250   48.2860 Cl  0  0  0  0  0  0  0  0  0  0  0  0
   61.9742   34.5674   50.5309 H   0  0  0  0  0  0  0  0  0  0  0  0
   62.3480   33.4720   49.1572 H   0  0  0  0  0  0  0  0  0  0  0  0
   62.9701   35.1572   49.1572 H   0  0  0  0  0  0  0  0  0  0  0  0
   60.6056   35.4639   46.1424 H   0  0  0  0  0  0  0  0  0  0  0  0
   59.3585   34.0334   44.5348 H   0  0  0  0  0  0  0  0  0  0  0  0
   58.0720   33.1652   43.4882 H   0  0  0  0  0  0  0  0  0  0  0  0
   56.7506   31.7470   41.9210 H   0  0  0  0  0  0  0  0  0  0  0  0
   56.0690   29.4430   42.5854 H   0  0  0  0  0  0  0  0  0  0  0  0
   55.7530   27.8440   44.5390 H   0  0  0  0  0  0  0  0  0  0  0  0
   58.7365   25.8405   47.4972 H   0  0  0  0  0  0  0  0  0  0  0  0
   57.9090   23.7160   48.5090 H   0  0  0  0  0  0  0  0  0  0  0  0
   55.7783   22.6953   47.7116 H   0  0  0  0  0  0  0  0  0  0  0  0
   53.8649   25.0879   44.2634 H   0  0  0  0  0  0  0  0  0  0  0  0
   54.0547   23.3755   43.7524 H   0  0  0  0  0  0  0  0  0  0  0  0
   51.6403   24.6388   45.1544 H   0  0  0  0  0  0  0  0  0  0  0  0
   51.7238   23.9949   43.4691 H   0  0  0  0  0  0  0  0  0  0  0  0
   51.6259   23.2591   46.9095 H   0  0  0  0  0  0  0  0  0  0  0  0
   51.7393   21.4689   46.6837 H   0  0  0  0  0  0  0  0  0  0  0  0
   53.8594   22.5627   47.5693 H   0  0  0  0  0  0  0  0  0  0  0  0
   54.0687   21.6193   46.0517 H   0  0  0  0  0  0  0  0  0  0  0  0
   55.2701   25.9493   44.8995 H   0  0  0  0  0  0  0  0  0  0  0  0
   58.0469   29.9599   46.4039 H   0  0  0  0  0  0  0  0  0  0  0  0
   58.5084   31.2095   47.7055 H   0  0  0  0  0  0  0  0  0  0  0  0
   60.7503   31.1701   52.3012 H   0  0  0  0  0  0  0  0  0  0  0  0
   62.2061   29.2294   52.8766 H   0  0  0  0  0  0  0  0  0  0  0  0
   62.1666   27.1728   51.4633 H   0  0  0  0  0  0  0  0  0  0  0  0
   60.6985   27.0640   49.4538 H   0  0  0  0  0  0  0  0  0  0  0  0
  1  2  1  0
  2  3  1  0
  3  4  2  0
  4  5  1  0
  5  6  2  0
  6  7  1  0
  7  8  2  0
  8  9  1  0
  9 10  2  0
 10 11  1  0
 11 12  1  0
 12 13  1  0
 13 14  2  0
 13 15  1  0
 15 16  2  0
 16 17  1  0
 17 18  2  0
 18 19  1  0
 19 20  1  0
 20 21  1  0
 21 22  1  0
 22 23  1  0
 23 24  1  0
 24 25  1  0
 19 26  2  0
 11 27  2  0
  6 28  1  0
 28 29  2  0
 29 30  1  0
 30 31  1  0
 31 32  2  0
 31 33  1  0
 33 34  2  0
 34 35  1  0
 35 36  2  0
 36 37  1  0
 37 38  2  0
 38 39  1  0
 29  3  1  0
 38 33  1  0
 27  7  1  0
 26 15  1  0
 25 20  1  0
  1 40  1  0
  1 41  1  0
  1 42  1  0
  4 43  1  0
  5 44  1  0
  8 45  1  0
  9 46  1  0
 10 47  1  0
 12 48  1  0
 16 49  1  0
 17 50  1  0
 18 51  1  0
 21 52  1  0
 21 53  1  0
 22 54  1  0
 22 55  1  0
 24 56  1  0
 24 57  1  0
 25 58  1  0
 25 59  1  0
 26 60  1  0
 27 61  1  0
 28 62  1  0
 34 63  1  0
 35 64  1  0
 36 65  1  0
 37 66  1  0
M  CHG  1  30  -1
M  END
>  <UniqueID>  (40) 
37

>  <SMILES>  (40) 
COc1ccc(-c2cccc(NC(=O)c3cccc(N4CCOCC4)c3)c2)cc1[N-]C(=O)c1ccccc1Cl

>  <Energy>  (40) 
98.20821495724057

>  <Genealogy>  (40) 
COc1ccc(-c2cccc(NC(=O)c3cccc(N4CCOCC4)c3)c2)cc1[N-]C(=O)c1ccccc1Cl (protonated)
COc1ccc(-c2cccc(NC(=O)c3cccc(N4CCOCC4)c3)c2)cc1[N-]C(=O)c1ccccc1Cl (3D coordinates assigned)
COc1ccc(-c2cccc(NC(=O)c3cccc(N4CCOCC4)c3)c2)cc1[N-]C(=O)c1ccccc1Cl (nonaromatic ring conformer: 98.20821495724057 kcal/mol)

>  <smiles>  (40) 
COc1ccc(-c2cccc(NC(=O)c3cccc(N4CCOCC4)c3)c2)cc1NC(=O)c1ccccc1Cl

>  <score_type>  (40) 
oracle

>  <origin>  (40) 
adg

>  <m_score__min__energy>  (40) 
-11.390000000000001

>  <m_primary>  (40) 
energy

$$$$
40:0
     RDKit          3D

 47 50  0  0  0  0  0  0  0  0999 V2000
   55.8880   26.2950   46.3740 O   0  0  0  0  0  0  0  0  0  0  0  0
   56.6260   26.6030   45.3980 C   0  0  0  0  0  0  0  0  0  0  0  0
   56.9810   25.6040   44.4280 N   0  0  0  0  0  0  0  0  0  0  0  0
   56.9690   24.1900   44.6960 C   0  0  0  0  0  0  0  0  0  0  0  0
   56.6180   23.2590   43.7010 C   0  0  0  0  0  0  0  0  0  0  0  0
   56.5910   21.8910   43.9920 C   0  0  0  0  0  0  0  0  0  0  0  0
   56.9030   21.4420   45.2790 C   0  0  0  0  0  0  0  0  0  0  0  0
   56.8680   19.7270   45.6440 Cl  0  0  0  0  0  0  0  0  0  0  0  0
   57.2340   22.3630   46.2780 C   0  0  0  0  0  0  0  0  0  0  0  0
   57.2600   23.7310   45.9900 C   0  0  0  0  0  0  0  0  0  0  0  0
   57.0600   28.0130   45.2320 C   0  0  0  0  0  0  0  0  0  0  0  0
   56.0990   29.0120   45.0100 C   0  0  0  0  0  0  0  0  0  0  0  0
   56.4730   30.3110   44.8760 N   0  0  0  0  0  0  0  0  0  0  0  0
   57.7730   30.7020   44.9610 C   0  0  0  0  0  0  0  0  0  0  0  0
   58.1200   32.1640   44.8350 C   0  0  0  0  0  0  0  0  0  0  0  0
   58.2030   32.8820   46.1280 N   0  0  0  0  0  0  0  0  0  0  0  0
   58.5240   34.3190   46.0560 C   0  0  0  0  0  0  0  0  0  0  0  0
   60.0270   34.6010   45.9000 C   0  0  0  0  0  0  0  0  0  0  0  0
   60.9080   33.6240   46.6340 C   0  0  0  0  0  0  0  0  0  0  0  0
   62.2940   33.8510   46.6600 C   0  0  0  0  0  0  0  0  0  0  0  0
   63.1480   32.9420   47.2890 C   0  0  0  0  0  0  0  0  0  0  0  0
   62.6280   31.8000   47.8980 C   0  0  0  0  0  0  0  0  0  0  0  0
   61.2510   31.5590   47.8730 C   0  0  0  0  0  0  0  0  0  0  0  0
   60.3860   32.4560   47.2260 C   0  0  0  0  0  0  0  0  0  0  0  0
   58.9050   32.1760   47.2160 C   0  0  0  0  0  0  0  0  0  0  0  0
   58.7700   29.7390   45.1580 C   0  0  0  0  0  0  0  0  0  0  0  0
   58.4150   28.3960   45.3130 C   0  0  0  0  0  0  0  0  0  0  0  0
   59.3180   27.5490   45.5490 O   0  0  0  0  0  0  0  0  0  0  0  0
   57.1520   25.9170   43.4450 H   0  0  0  0  0  0  0  0  0  0  0  0
   56.3636   23.6086   42.6895 H   0  0  0  0  0  0  0  0  0  0  0  0
   56.3240   21.1676   43.2075 H   0  0  0  0  0  0  0  0  0  0  0  0
   57.4743   22.0106   47.2920 H   0  0  0  0  0  0  0  0  0  0  0  0
   57.5100   24.4518   46.7824 H   0  0  0  0  0  0  0  0  0  0  0  0
   55.0350   28.7408   44.9441 H   0  0  0  0  0  0  0  0  0  0  0  0
   59.0950   32.2451   44.3322 H   0  0  0  0  0  0  0  0  0  0  0  0
   57.3057   32.6341   44.2641 H   0  0  0  0  0  0  0  0  0  0  0  0
   57.9966   34.7514   45.1930 H   0  0  0  0  0  0  0  0  0  0  0  0
   58.2054   34.7712   47.0068 H   0  0  0  0  0  0  0  0  0  0  0  0
   60.2786   34.5589   44.8300 H   0  0  0  0  0  0  0  0  0  0  0  0
   60.2141   35.5927   46.3376 H   0  0  0  0  0  0  0  0  0  0  0  0
   62.7095   34.7504   46.1820 H   0  0  0  0  0  0  0  0  0  0  0  0
   64.2322   33.1271   47.3041 H   0  0  0  0  0  0  0  0  0  0  0  0
   63.3016   31.0886   48.3982 H   0  0  0  0  0  0  0  0  0  0  0  0
   60.8433   30.6623   48.3626 H   0  0  0  0  0  0  0  0  0  0  0  0
   58.7516   31.0940   47.0907 H   0  0  0  0  0  0  0  0  0  0  0  0
   58.4908   32.5361   48.1693 H   0  0  0  0  0  0  0  0  0  0  0  0
   59.8281   30.0380   45.1907 H   0  0  0  0  0  0  0  0  0  0  0  0
  1  2  2  0
  2  3  1  0
  3  4  1  0
  4  5  2  0
  5  6  1  0
  6  7  2  0
  7  8  1  0
  7  9  1  0
  9 10  2  0
  2 11  1  0
 11 12  2  0
 12 13  1  0
 13 14  1  0
 14 15  1  0
 15 16  1  0
 16 17  1  0
 17 18  1  0
 18 19  1  0
 19 20  2  0
 20 21  1  0
 21 22  2  0
 22 23  1  0
 23 24  2  0
 24 25  1  0
 14 26  2  0
 26 27  1  0
 27 28  2  0
 10  4  1  0
 27 11  1  0
 25 16  1  0
 24 19  1  0
  3 29  1  0
  5 30  1  0
  6 31  1  0
  9 32  1  0
 10 33  1  0
 12 34  1  0
 15 35  1  0
 15 36  1  0
 17 37  1  0
 17 38  1  0
 18 39  1  0
 18 40  1  0
 20 41  1  0
 21 42  1  0
 22 43  1  0
 23 44  1  0
 25 45  1  0
 25 46  1  0
 26 47  1  0
M  CHG  1  13  -1
M  END
>  <UniqueID>  (41) 
38

>  <SMILES>  (41) 
O=C(Nc1ccc(Cl)cc1)c1c[n-]c(CN2CCc3ccccc3C2)cc1=O

>  <Energy>  (41) 
67.93356645799048

>  <Genealogy>  (41) 
O=C(Nc1ccc(Cl)cc1)c1c[n-]c(CN2CCc3ccccc3C2)cc1=O (protonated)
O=C(Nc1ccc(Cl)cc1)c1c[n-]c(CN2CCc3ccccc3C2)cc1=O (3D coordinates assigned)
O=C(Nc1ccc(Cl)cc1)c1c[n-]c(CN2CCc3ccccc3C2)cc1=O (nonaromatic ring conformer: 67.93356645799048 kcal/mol)

>  <smiles>  (41) 
O=C(Nc1ccc(Cl)cc1)c1c[nH]c(CN2CCc3ccccc3C2)cc1=O

>  <score_type>  (41) 
oracle

>  <origin>  (41) 
adg

>  <m_score__min__energy>  (41) 
-10.42

>  <m_primary>  (41) 
energy

$$$$
41:0
     RDKit          3D

 48 52  0  0  0  0  0  0  0  0999 V2000
   59.9858   32.8175   53.5585 H   0  0  0  0  0  0  0  0  0  0  0  0
   59.4550   32.3610   52.7100 C   0  0  0  0  0  0  0  0  0  0  0  0
   59.5120   32.9640   51.4520 C   0  0  0  0  0  0  0  0  0  0  0  0
   60.0856   33.8930   51.3179 H   0  0  0  0  0  0  0  0  0  0  0  0
   58.8440   32.3950   50.3580 C   0  0  0  0  0  0  0  0  0  0  0  0
   58.8990   33.0300   49.0190 C   0  0  0  0  0  0  0  0  0  0  0  0
   58.2050   32.6080   47.8860 C   0  0  0  0  0  0  0  0  0  0  0  0
   57.5429   31.7333   47.8051 H   0  0  0  0  0  0  0  0  0  0  0  0
   58.5170   33.5130   46.8800 C   0  0  0  0  0  0  0  0  0  0  0  0
   58.1240   33.5940   45.5260 C   0  0  0  0  0  0  0  0  0  0  0  0
   57.2190   32.8320   44.9690 N   0  0  0  0  0  0  0  0  0  0  0  0
   57.3070   31.4320   44.6770 C   0  0  0  0  0  0  0  0  0  0  0  0
   56.3270   30.8270   43.8550 C   0  0  0  0  0  0  0  0  0  0  0  0
   55.4907   31.4288   43.4696 H   0  0  0  0  0  0  0  0  0  0  0  0
   56.4140   29.4620   43.5270 C   0  0  0  0  0  0  0  0  0  0  0  0
   55.6654   28.9857   42.8768 H   0  0  0  0  0  0  0  0  0  0  0  0
   57.4790   28.7320   44.0520 C   0  0  0  0  0  0  0  0  0  0  0  0
   58.4060   29.3050   44.8800 C   0  0  0  0  0  0  0  0  0  0  0  0
   58.3430   30.6510   45.2340 C   0  0  0  0  0  0  0  0  0  0  0  0
   59.0768   31.0911   45.9252 H   0  0  0  0  0  0  0  0  0  0  0  0
   59.3240   28.3320   45.2070 C   0  0  0  0  0  0  0  0  0  0  0  0
   60.2076   28.4368   45.8538 H   0  0  0  0  0  0  0  0  0  0  0  0
   58.8930   27.1880   44.5430 C   0  0  0  0  0  0  0  0  0  0  0  0
   59.4013   26.2133   44.5834 H   0  0  0  0  0  0  0  0  0  0  0  0
   57.7640   27.4370   43.8410 N   0  0  0  0  0  0  0  0  0  0  0  0
   57.2330   26.7600   43.2490 H   0  0  0  0  0  0  0  0  0  0  0  0
   58.7390   34.5460   44.7600 N   0  0  0  0  0  0  0  0  0  0  0  0
   58.4980   34.6320   43.7460 H   0  0  0  0  0  0  0  0  0  0  0  0
   59.6390   35.4230   45.2930 C   0  0  0  0  0  0  0  0  0  0  0  0
   60.1025   36.1903   44.6554 H   0  0  0  0  0  0  0  0  0  0  0  0
   59.9630   35.3490   46.6110 N   0  0  0  0  0  0  0  0  0  0  0  0
   59.3970   34.4060   47.3580 N   0  0  0  0  0  0  0  0  0  0  0  0
   59.6400   34.1470   48.6510 C   0  0  0  0  0  0  0  0  0  0  0  0
   60.3108   34.7202   49.3079 H   0  0  0  0  0  0  0  0  0  0  0  0
   58.1090   31.2110   50.5510 C   0  0  0  0  0  0  0  0  0  0  0  0
   57.5762   30.7588   49.7015 H   0  0  0  0  0  0  0  0  0  0  0  0
   58.0460   30.5970   51.8160 C   0  0  0  0  0  0  0  0  0  0  0  0
   57.3180   29.4160   52.0330 O   0  0  0  0  0  0  0  0  0  0  0  0
   56.0960   29.3420   52.7600 C   0  0  0  0  0  0  0  0  0  0  0  0
   56.3099   29.3550   53.8389 H   0  0  0  0  0  0  0  0  0  0  0  0
   55.4627   30.2034   52.5014 H   0  0  0  0  0  0  0  0  0  0  0  0
   55.5713   28.4104   52.5014 H   0  0  0  0  0  0  0  0  0  0  0  0
   58.7240   31.1740   52.9010 C   0  0  0  0  0  0  0  0  0  0  0  0
   58.6460   30.5380   54.1500 O   0  0  0  0  0  0  0  0  0  0  0  0
   58.4820   31.2170   55.3910 C   0  0  0  0  0  0  0  0  0  0  0  0
   58.6520   30.5133   56.2192 H   0  0  0  0  0  0  0  0  0  0  0  0
   59.2067   32.0419   55.4562 H   0  0  0  0  0  0  0  0  0  0  0  0
   57.4606   31.6202   55.4562 H   0  0  0  0  0  0  0  0  0  0  0  0
  1  2  1  0
  2  3  2  0
  3  4  1  0
  3  5  1  0
  5  6  1  0
  6  7  1  0
  7  8  1  0
  7  9  2  0
  9 10  1  0
 10 11  2  0
 11 12  1  0
 12 13  2  0
 13 14  1  0
 13 15  1  0
 15 16  1  0
 15 17  2  0
 17 18  1  0
 18 19  2  0
 19 20  1  0
 18 21  1  0
 21 22  1  0
 21 23  2  0
 23 24  1  0
 23 25  1  0
 25 26  1  0
 10 27  1  0
 27 28  1  0
 27 29  1  0
 29 30  1  0
 29 31  2  0
 31 32  1  0
 32 33  1  0
 33 34  1  0
  5 35  2  0
 35 36  1  0
 35 37  1  0
 37 38  1  0
 38 39  1  0
 39 40  1  0
 39 41  1  0
 39 42  1  0
 37 43  2  0
 43 44  1  0
 44 45  1  0
 45 46  1  0
 45 47  1  0
 45 48  1  0
 43  2  1  0
 33  6  2  0
 32  9  1  0
 19 12  1  0
 25 17  1  0
M  END
>  <UniqueID>  (42) 
39

>  <SMILES>  (42) 
COc1ccc(-c2cc3/c(=N\c4ccc5[nH]ccc5c4)[nH]cnn3c2)cc1OC

>  <Energy>  (42) 
133.9979841746064

>  <Genealogy>  (42) 
COc1ccc(-c2cc3/c(=N\c4ccc5[nH]ccc5c4)[nH]cnn3c2)cc1OC (cis-trans isomerization)
COc1ccc(-c2cc3/c(=N\c4ccc5[nH]ccc5c4)[nH]cnn3c2)cc1OC (3D coordinates assigned)
COc1ccc(-c2cc3/c(=N\c4ccc5[nH]ccc5c4)[nH]cnn3c2)cc1OC (optimized conformer: 133.9979841746064 kcal/mol)

>  <smiles>  (42) 
COc1ccc(-c2cc3c(=Nc4ccc5[nH]ccc5c4)[nH]cnn3c2)cc1OC

>  <score_type>  (42) 
oracle

>  <origin>  (42) 
adg

>  <m_score__min__energy>  (42) 
-8.2599999999999998

>  <m_primary>  (42) 
energy

$$$$
42:0
     RDKit          3D

 62 65  0  0  0  0  0  0  0  0999 V2000
   59.8410   25.3630   46.0540 C   0  0  0  0  0  0  0  0  0  0  0  0
   59.3570   26.7880   46.0580 C   0  0  0  0  0  0  0  0  0  0  0  0
   60.3150   27.8180   46.0320 C   0  0  0  0  0  0  0  0  0  0  0  0
   59.9280   29.1570   46.0690 C   0  0  0  0  0  0  0  0  0  0  0  0
   58.5730   29.4990   46.1610 C   0  0  0  0  0  0  0  0  0  0  0  0
   58.1450   30.8720   46.1790 N   0  0  0  0  0  0  0  0  0  0  0  0
   57.9970   31.6820   45.0030 C   0  0  0  0  0  0  0  0  0  0  0  0
   58.4330   31.2840   43.8890 O   0  0  0  0  0  0  0  0  0  0  0  0
   57.3260   33.0170   45.0960 C   0  0  0  0  0  0  0  0  0  0  0  0
   58.5630   34.3220   45.4120 S   0  0  0  0  0  0  0  0  0  0  0  0
   59.1970   33.5590   46.9100 C   0  0  0  0  0  0  0  0  0  0  0  0
   58.3330   33.0970   47.8520 N   0  0  0  0  0  0  0  0  0  0  0  0
   58.7760   32.5240   49.0080 C   0  0  0  0  0  0  0  0  0  0  0  0
   57.9270   32.1120   49.8440 O   0  0  0  0  0  0  0  0  0  0  0  0
   60.1260   32.3980   49.2520 N   0  0  0  0  0  0  0  0  0  0  0  0
   60.6220   31.7710   50.4930 C   0  0  0  0  0  0  0  0  0  0  0  0
   60.6680   30.2700   50.3590 C   0  0  0  0  0  0  0  0  0  0  0  0
   61.4000   29.4910   51.2680 C   0  0  0  0  0  0  0  0  0  0  0  0
   61.4330   28.1020   51.1330 C   0  0  0  0  0  0  0  0  0  0  0  0
   60.7400   27.5000   50.0810 C   0  0  0  0  0  0  0  0  0  0  0  0
   60.0450   28.2660   49.1980 N   0  0  0  0  0  0  0  0  0  0  0  0
   59.9990   29.6210   49.3080 C   0  0  0  0  0  0  0  0  0  0  0  0
   61.0020   32.8520   48.2990 C   0  0  0  0  0  0  0  0  0  0  0  0
   60.5630   33.4270   47.1380 C   0  0  0  0  0  0  0  0  0  0  0  0
   61.6760   33.8430   46.2520 C   0  0  0  0  0  0  0  0  0  0  0  0
   62.9430   33.4570   47.0370 C   0  0  0  0  0  0  0  0  0  0  0  0
   62.4890   32.7990   48.3540 C   0  0  0  0  0  0  0  0  0  0  0  0
   57.6120   28.4830   46.1810 C   0  0  0  0  0  0  0  0  0  0  0  0
   57.9780   27.1280   46.1360 C   0  0  0  0  0  0  0  0  0  0  0  0
   56.6660   25.9240   46.1890 S   0  0  0  0  0  0  0  0  0  0  0  0
   56.6040   25.2450   47.5280 O   0  0  0  0  0  0  0  0  0  0  0  0
   55.3590   26.6440   45.9940 O   0  0  0  0  0  0  0  0  0  0  0  0
   56.8350   24.7150   44.9370 N   0  0  0  0  0  0  0  0  0  0  0  0
   57.3910   25.3250   43.7240 C   0  0  0  0  0  0  0  0  0  0  0  0
   55.5330   24.1060   44.6460 C   0  0  0  0  0  0  0  0  0  0  0  0
   59.9598   25.0132   47.0901 H   0  0  0  0  0  0  0  0  0  0  0  0
   59.1080   24.7283   45.5345 H   0  0  0  0  0  0  0  0  0  0  0  0
   60.8089   25.3060   45.5345 H   0  0  0  0  0  0  0  0  0  0  0  0
   61.3840   27.5635   45.9818 H   0  0  0  0  0  0  0  0  0  0  0  0
   60.6906   29.9486   46.0257 H   0  0  0  0  0  0  0  0  0  0  0  0
   58.0170   31.3340   47.1080 H   0  0  0  0  0  0  0  0  0  0  0  0
   56.8068   33.2296   44.1499 H   0  0  0  0  0  0  0  0  0  0  0  0
   56.6029   32.9989   45.9247 H   0  0  0  0  0  0  0  0  0  0  0  0
   61.6348   32.1444   50.7048 H   0  0  0  0  0  0  0  0  0  0  0  0
   59.9367   32.0287   51.3140 H   0  0  0  0  0  0  0  0  0  0  0  0
   61.9490   29.9759   52.0887 H   0  0  0  0  0  0  0  0  0  0  0  0
   61.9994   27.4878   51.8484 H   0  0  0  0  0  0  0  0  0  0  0  0
   60.7562   26.4061   49.9664 H   0  0  0  0  0  0  0  0  0  0  0  0
   59.4353   30.2113   48.5706 H   0  0  0  0  0  0  0  0  0  0  0  0
   61.6326   33.3073   45.2922 H   0  0  0  0  0  0  0  0  0  0  0  0
   61.6418   34.9143   46.0047 H   0  0  0  0  0  0  0  0  0  0  0  0
   63.5463   32.7478   46.4513 H   0  0  0  0  0  0  0  0  0  0  0  0
   63.5589   34.3455   47.2399 H   0  0  0  0  0  0  0  0  0  0  0  0
   62.8399   31.7580   48.4105 H   0  0  0  0  0  0  0  0  0  0  0  0
   62.8950   33.3090   49.2401 H   0  0  0  0  0  0  0  0  0  0  0  0
   56.5465   28.7511   46.2331 H   0  0  0  0  0  0  0  0  0  0  0  0
   58.1075   26.1111   44.0043 H   0  0  0  0  0  0  0  0  0  0  0  0
   57.9049   24.5556   43.1291 H   0  0  0  0  0  0  0  0  0  0  0  0
   56.5774   25.7656   43.1291 H   0  0  0  0  0  0  0  0  0  0  0  0
   55.0211   23.8666   45.5897 H   0  0  0  0  0  0  0  0  0  0  0  0
   54.9201   24.8109   44.0650 H   0  0  0  0  0  0  0  0  0  0  0  0
   55.6812   23.1838   44.0650 H   0  0  0  0  0  0  0  0  0  0  0  0
  1  2  1  0
  2  3  2  0
  3  4  1  0
  4  5  2  0
  5  6  1  0
  6  7  1  0
  7  8  2  0
  7  9  1  0
  9 10  1  0
 10 11  1  0
 11 12  2  0
 12 13  1  0
 13 14  2  0
 13 15  1  0
 15 16  1  0
 16 17  1  0
 17 18  2  0
 18 19  1  0
 19 20  2  0
 20 21  1  0
 21 22  2  0
 15 23  1  0
 23 24  2  0
 24 25  1  0
 25 26  1  0
 26 27  1  0
  5 28  1  0
 28 29  2  0
 29 30  1  0
 30 31  2  0
 30 32  2  0
 30 33  1  0
 33 34  1  0
 33 35  1  0
 29  2  1  0
 24 11  1  0
 22 17  1  0
 27 23  1  0
  1 36  1  0
  1 37  1  0
  1 38  1  0
  3 39  1  0
  4 40  1  0
  6 41  1  0
  9 42  1  0
  9 43  1  0
 16 44  1  0
 16 45  1  0
 18 46  1  0
 19 47  1  0
 20 48  1  0
 22 49  1  0
 25 50  1  0
 25 51  1  0
 26 52  1  0
 26 53  1  0
 27 54  1  0
 27 55  1  0
 28 56  1  0
 34 57  1  0
 34 58  1  0
 34 59  1  0
 35 60  1  0
 35 61  1  0
 35 62  1  0
M  END
>  <UniqueID>  (43) 
40

>  <SMILES>  (43) 
Cc1ccc(NC(=O)CSc2nc(=O)n(Cc3cccnc3)c3c2CCC3)cc1S(=O)(=O)N(C)C

>  <Energy>  (43) 
75.0170027584963

>  <Genealogy>  (43) 
Cc1ccc(NC(=O)CSc2nc(=O)n(Cc3cccnc3)c3c2CCC3)cc1S(=O)(=O)N(C)C (3D coordinates assigned)
Cc1ccc(NC(=O)CSc2nc(=O)n(Cc3cccnc3)c3c2CCC3)cc1S(=O)(=O)N(C)C (nonaromatic ring conformer: 75.0170027584963 kcal/mol)

>  <smiles>  (43) 
Cc1ccc(NC(=O)CSc2nc(=O)n(Cc3cccnc3)c3c2CCC3)cc1S(=O)(=O)N(C)C

>  <score_type>  (43) 
oracle

>  <origin>  (43) 
adg

>  <m_score__min__energy>  (43) 
-10.32

>  <m_primary>  (43) 
energy

$$$$
43:0
     RDKit          3D

 60 63  0  0  0  0  0  0  0  0999 V2000
   59.2760   35.3340   48.1940 O   0  0  0  0  0  0  0  0  0  0  0  0
   59.8150   34.3390   47.6370 C   0  0  0  0  0  0  0  0  0  0  0  0
   59.0880   33.6440   46.5500 C   0  0  0  0  0  0  0  0  0  0  0  0
   57.9160   34.1920   46.0010 C   0  0  0  0  0  0  0  0  0  0  0  0
   57.2300   33.5250   44.9840 C   0  0  0  0  0  0  0  0  0  0  0  0
   57.7120   32.3030   44.4830 C   0  0  0  0  0  0  0  0  0  0  0  0
   57.0210   31.5930   43.4430 N   0  0  0  0  0  0  0  0  0  0  0  0
   56.3020   30.0330   43.6870 S   0  0  0  0  0  0  0  0  0  0  0  0
   55.0520   30.1760   44.5090 O   0  0  0  0  0  0  0  0  0  0  0  0
   55.9360   29.4400   42.3550 O   0  0  0  0  0  0  0  0  0  0  0  0
   57.4660   28.9730   44.4770 C   0  0  0  0  0  0  0  0  0  0  0  0
   57.9640   27.8620   43.7840 C   0  0  0  0  0  0  0  0  0  0  0  0
   58.9020   27.0200   44.3870 C   0  0  0  0  0  0  0  0  0  0  0  0
   59.3450   27.2820   45.6850 C   0  0  0  0  0  0  0  0  0  0  0  0
   58.8570   28.3940   46.3860 C   0  0  0  0  0  0  0  0  0  0  0  0
   59.4300   28.7380   48.0170 S   0  0  0  0  0  0  0  0  0  0  0  0
   60.4950   27.7460   48.3940 O   0  0  0  0  0  0  0  0  0  0  0  0
   58.2780   28.5720   48.9690 O   0  0  0  0  0  0  0  0  0  0  0  0
   60.0390   30.3770   48.1350 N   0  0  0  0  0  0  0  0  0  0  0  0
   61.4300   30.4170   48.6220 C   0  0  0  0  0  0  0  0  0  0  0  0
   61.5320   30.1000   50.1320 C   0  0  0  0  0  0  0  0  0  0  0  0
   60.3070   30.2540   50.8290 O   0  0  0  0  0  0  0  0  0  0  0  0
   59.6390   31.4150   50.3900 C   0  0  0  0  0  0  0  0  0  0  0  0
   59.1460   31.2370   48.9420 C   0  0  0  0  0  0  0  0  0  0  0  0
   57.9190   29.2410   45.7760 C   0  0  0  0  0  0  0  0  0  0  0  0
   58.9040   31.7780   45.0010 C   0  0  0  0  0  0  0  0  0  0  0  0
   59.5850   32.4400   46.0260 C   0  0  0  0  0  0  0  0  0  0  0  0
   61.1190   33.9090   48.0760 N   0  0  0  0  0  0  0  0  0  0  0  0
   61.5120   34.1360   49.4740 C   0  0  0  0  0  0  0  0  0  0  0  0
   62.7920   33.3670   49.8240 C   0  0  0  0  0  0  0  0  0  0  0  0
   63.9410   33.6870   48.8510 C   0  0  0  0  0  0  0  0  0  0  0  0
   63.4810   33.9070   47.3950 C   0  0  0  0  0  0  0  0  0  0  0  0
   62.0870   33.3360   47.1270 C   0  0  0  0  0  0  0  0  0  0  0  0
   57.5361   35.1540   46.3755 H   0  0  0  0  0  0  0  0  0  0  0  0
   56.3066   33.9584   44.5722 H   0  0  0  0  0  0  0  0  0  0  0  0
   57.1030   31.9290   42.4580 H   0  0  0  0  0  0  0  0  0  0  0  0
   57.6155   27.6519   42.7620 H   0  0  0  0  0  0  0  0  0  0  0  0
   59.2919   26.1498   43.8386 H   0  0  0  0  0  0  0  0  0  0  0  0
   60.0791   26.6139   46.1591 H   0  0  0  0  0  0  0  0  0  0  0  0
   62.0216   29.6762   48.0642 H   0  0  0  0  0  0  0  0  0  0  0  0
   61.8124   31.4364   48.4654 H   0  0  0  0  0  0  0  0  0  0  0  0
   61.8687   29.0591   50.2467 H   0  0  0  0  0  0  0  0  0  0  0  0
   62.2420   30.8199   50.5652 H   0  0  0  0  0  0  0  0  0  0  0  0
   58.7765   31.6063   51.0454 H   0  0  0  0  0  0  0  0  0  0  0  0
   60.3379   32.2636   50.4267 H   0  0  0  0  0  0  0  0  0  0  0  0
   58.1452   30.7812   48.9648 H   0  0  0  0  0  0  0  0  0  0  0  0
   59.1302   32.2316   48.4725 H   0  0  0  0  0  0  0  0  0  0  0  0
   57.5379   30.1183   46.3192 H   0  0  0  0  0  0  0  0  0  0  0  0
   59.3066   30.8373   44.5974 H   0  0  0  0  0  0  0  0  0  0  0  0
   60.5175   32.0146   46.4253 H   0  0  0  0  0  0  0  0  0  0  0  0
   61.6865   35.2112   49.6273 H   0  0  0  0  0  0  0  0  0  0  0  0
   60.7017   33.7770   50.1255 H   0  0  0  0  0  0  0  0  0  0  0  0
   63.1031   33.6403   50.8431 H   0  0  0  0  0  0  0  0  0  0  0  0
   62.5734   32.2915   49.7497 H   0  0  0  0  0  0  0  0  0  0  0  0
   64.4444   34.6016   49.1976 H   0  0  0  0  0  0  0  0  0  0  0  0
   64.6100   32.8138   48.8471 H   0  0  0  0  0  0  0  0  0  0  0  0
   63.4647   34.9876   47.1899 H   0  0  0  0  0  0  0  0  0  0  0  0
   64.1892   33.3806   46.7382 H   0  0  0  0  0  0  0  0  0  0  0  0
   61.7821   33.5855   46.1000 H   0  0  0  0  0  0  0  0  0  0  0  0
   62.1133   32.2435   47.2525 H   0  0  0  0  0  0  0  0  0  0  0  0
  1  2  2  0
  2  3  1  0
  3  4  2  0
  4  5  1  0
  5  6  2  0
  6  7  1  0
  7  8  1  0
  8  9  2  0
  8 10  2  0
  8 11  1  0
 11 12  2  0
 12 13  1  0
 13 14  2  0
 14 15  1  0
 15 16  1  0
 16 17  2  0
 16 18  2  0
 16 19  1  0
 19 20  1  0
 20 21  1  0
 21 22  1  0
 22 23  1  0
 23 24  1  0
 15 25  2  0
  6 26  1  0
 26 27  2  0
  2 28  1  0
 28 29  1  0
 29 30  1  0
 30 31  1  0
 31 32  1  0
 32 33  1  0
 27  3  1  0
 33 28  1  0
 25 11  1  0
 24 19  1  0
  4 34  1  0
  5 35  1  0
  7 36  1  0
 12 37  1  0
 13 38  1  0
 14 39  1  0
 20 40  1  0
 20 41  1  0
 21 42  1  0
 21 43  1  0
 23 44  1  0
 23 45  1  0
 24 46  1  0
 24 47  1  0
 25 48  1  0
 26 49  1  0
 27 50  1  0
 29 51  1  0
 29 52  1  0
 30 53  1  0
 30 54  1  0
 31 55  1  0
 31 56  1  0
 32 57  1  0
 32 58  1  0
 33 59  1  0
 33 60  1  0
M  END
>  <UniqueID>  (44) 
41

>  <SMILES>  (44) 
O=C(c1ccc(NS(=O)(=O)c2cccc(S(=O)(=O)N3CCOCC3)c2)cc1)N1CCCCC1

>  <Energy>  (44) 
78.17400992651905

>  <Genealogy>  (44) 
O=C(c1ccc(NS(=O)(=O)c2cccc(S(=O)(=O)N3CCOCC3)c2)cc1)N1CCCCC1 (3D coordinates assigned)
O=C(c1ccc(NS(=O)(=O)c2cccc(S(=O)(=O)N3CCOCC3)c2)cc1)N1CCCCC1 (nonaromatic ring conformer: 78.17400992651905 kcal/mol)

>  <smiles>  (44) 
O=C(c1ccc(NS(=O)(=O)c2cccc(S(=O)(=O)N3CCOCC3)c2)cc1)N1CCCCC1

>  <score_type>  (44) 
oracle

>  <origin>  (44) 
adg

>  <m_score__min__energy>  (44) 
-11.15

>  <m_primary>  (44) 
energy

$$$$
44:0
     RDKit          3D

 58 61  0  0  1  0  0  0  0  0999 V2000
   58.5700   34.2630   52.5530 C   0  0  0  0  0  0  0  0  0  0  0  0
   58.9670   33.9820   51.2430 O   0  0  0  0  0  0  0  0  0  0  0  0
   58.9940   32.6620   50.8160 C   0  0  0  0  0  0  0  0  0  0  0  0
   59.8710   32.3530   49.7920 C   0  0  0  0  0  0  0  0  0  0  0  0
   59.9390   31.0620   49.3320 C   0  0  0  0  0  0  0  0  0  0  0  0
   59.1290   30.0670   49.8900 C   0  0  0  0  0  0  0  0  0  0  0  0
   59.2830   28.7660   49.3350 N   0  0  0  0  0  0  0  0  0  0  0  0
   60.5320   28.0890   49.3330 C   0  0  0  0  0  0  0  0  0  0  0  0
   61.5060   28.6940   49.8450 O   0  0  0  0  0  0  0  0  0  0  0  0
   60.5870   26.7470   48.7360 C   0  0  0  0  0  0  0  0  0  0  0  0
   59.4530   26.3400   48.0510 O   0  0  0  0  0  0  0  0  0  0  0  0
   58.7870   27.0080   47.0420 C   0  0  0  0  0  0  0  0  0  0  0  0
   57.4200   27.0010   46.8750 C   0  0  0  0  0  0  0  0  0  0  0  0
   56.8530   27.7150   45.8130 C   0  0  0  0  0  0  0  0  0  0  0  0
   57.6260   28.4300   44.9230 C   0  0  0  0  0  0  0  0  0  0  0  0
   57.1150   29.1660   43.8380 N   0  0  0  0  0  0  0  0  0  0  0  0
   57.3900   30.4160   43.6310 C   0  0  0  0  0  0  0  0  0  0  0  0
   57.3870   30.9100   42.3790 N   0  0  0  0  0  0  0  0  0  0  0  0
   57.6770   32.2100   42.2120 C   0  0  0  0  0  0  0  0  0  0  0  0
   57.9710   33.0450   43.2240 N   0  0  0  0  0  0  0  0  0  0  0  0
   57.9880   32.6110   44.4830 C   0  0  0  0  0  0  0  0  0  0  0  0
   57.6890   31.2580   44.6810 C   0  0  0  0  0  0  0  0  0  0  0  0
   57.7670   31.0520   46.0050 N   0  0  0  0  0  0  0  0  0  0  0  0
   58.0950   32.2120   46.5790 C   0  0  0  0  0  0  0  0  0  0  0  0
   58.2380   33.1900   45.6680 N   0  0  0  0  0  0  0  0  0  0  0  0
   58.5820   34.5430   45.9350 C   0  0  0  0  0  0  0  0  0  0  0  0
   59.0280   34.9610   47.0880 C   0  0  0  0  0  0  0  0  0  0  0  0
   60.3630   34.5450   47.5520 C   0  0  0  0  0  0  0  0  0  0  0  0
   61.1190   33.9270   46.7830 O   0  0  0  0  0  0  0  0  0  0  0  0
   60.8040   34.8260   48.8310 O   0  0  0  0  0  0  0  0  0  0  0  0
   58.9920   28.4200   45.1160 C   0  0  0  0  0  0  0  0  0  0  0  0
   59.5920   27.7280   46.1520 C   0  0  0  0  0  0  0  0  0  0  0  0
   58.2560   30.3660   50.9070 C   0  0  0  0  0  0  0  0  0  0  0  0
   57.4720   29.3480   51.4320 O   0  0  0  0  0  0  0  0  0  0  0  0
   56.9080   29.5660   52.7230 C   0  0  0  0  0  0  0  0  0  0  0  0
   58.1920   31.6750   51.3700 C   0  0  0  0  0  0  0  0  0  0  0  0
   59.2594   33.7750   53.2577 H   0  0  0  0  0  0  0  0  0  0  0  0
   58.5879   35.3507   52.7163 H   0  0  0  0  0  0  0  0  0  0  0  0
   57.5502   33.8845   52.7163 H   0  0  0  0  0  0  0  0  0  0  0  0
   60.5075   33.1342   49.3509 H   0  0  0  0  0  0  0  0  0  0  0  0
   60.6350   30.8077   48.5191 H   0  0  0  0  0  0  0  0  0  0  0  0
   58.4380   28.3150   48.9250 H   0  0  0  0  0  0  0  0  0  0  0  0
   61.4314   26.7264   48.0313 H   0  0  0  0  0  0  0  0  0  0  0  0
   60.6891   26.0503   49.5811 H   0  0  0  0  0  0  0  0  0  0  0  0
   56.7791   26.4390   47.5703 H   0  0  0  0  0  0  0  0  0  0  0  0
   55.7605   27.7054   45.6849 H   0  0  0  0  0  0  0  0  0  0  0  0
   57.1590   30.2680   41.5740 H   0  0  0  0  0  0  0  0  0  0  0  0
   57.6739   32.6151   41.1893 H   0  0  0  0  0  0  0  0  0  0  0  0
   58.2312   32.3501   47.6618 H   0  0  0  0  0  0  0  0  0  0  0  0
   58.4659   35.2783   45.1251 H   0  0  0  0  0  0  0  0  0  0  0  0
   58.4087   35.6223   47.7119 H   0  0  0  0  0  0  0  0  0  0  0  0
   60.1850   34.7890   49.6340 H   0  0  0  0  0  0  0  0  0  0  0  0
   59.6286   28.9844   44.4187 H   0  0  0  0  0  0  0  0  0  0  0  0
   60.6850   27.7432   46.2747 H   0  0  0  0  0  0  0  0  0  0  0  0
   57.6390   29.2835   53.4949 H   0  0  0  0  0  0  0  0  0  0  0  0
   56.6487   30.6291   52.8351 H   0  0  0  0  0  0  0  0  0  0  0  0
   56.0011   28.9536   52.8351 H   0  0  0  0  0  0  0  0  0  0  0  0
   57.4981   31.9310   52.1843 H   0  0  0  0  0  0  0  0  0  0  0  0
  1  2  1  0
  2  3  1  0
  3  4  2  0
  4  5  1  0
  5  6  2  0
  6  7  1  0
  7  8  1  0
  8  9  2  0
  8 10  1  0
 10 11  1  0
 11 12  1  0
 12 13  2  0
 13 14  1  0
 14 15  2  0
 15 16  1  0
 16 17  2  0
 17 18  1  0
 18 19  1  0
 19 20  2  0
 20 21  1  0
 21 22  2  0
 22 23  1  0
 23 24  2  0
 24 25  1  0
 25 26  1  0
 26 27  2  0
 27 28  1  0
 28 29  2  0
 28 30  1  0
 15 31  1  0
 31 32  2  0
  6 33  1  0
 33 34  1  0
 34 35  1  0
 33 36  2  0
 36  3  1  0
 32 12  1  0
 22 17  1  0
 25 21  1  0
  1 37  1  0
  1 38  1  0
  1 39  1  0
  4 40  1  0
  5 41  1  0
  7 42  1  0
 10 43  1  0
 10 44  1  0
 13 45  1  0
 14 46  1  0
 18 47  1  0
 19 48  1  0
 24 49  1  0
 26 50  1  0
 27 51  1  0
 30 52  1  0
 31 53  1  0
 32 54  1  0
 35 55  1  0
 35 56  1  0
 35 57  1  0
 36 58  1  0
M  END
>  <smiles>  (45) 
COc1ccc(NC(=O)COc2ccc(N=c3[nH]cnc4c3ncn4C=CC(=O)O)cc2)c(OC)c1

>  <score_type>  (45) 
oracle

>  <origin>  (45) 
adg

>  <m_score__min__energy>  (45) 
-8.9399999999999995

>  <m_primary>  (45) 
energy

$$$$
45:0
     RDKit          3D

 46 47  0  0  0  0  0  0  0  0999 V2000
   63.0170   34.5410   50.1170 C   0  0  0  0  0  0  0  0  0  0  0  0
   61.7760   34.5300   49.4170 O   0  0  0  0  0  0  0  0  0  0  0  0
   60.9090   33.4290   49.3320 C   0  0  0  0  0  0  0  0  0  0  0  0
   59.7600   33.3530   50.1460 C   0  0  0  0  0  0  0  0  0  0  0  0
   58.9070   32.2540   50.0710 C   0  0  0  0  0  0  0  0  0  0  0  0
   59.1720   31.2210   49.1770 C   0  0  0  0  0  0  0  0  0  0  0  0
   60.2880   31.2840   48.3350 C   0  0  0  0  0  0  0  0  0  0  0  0
   60.5310   30.1620   47.4070 C   0  0  0  0  0  0  0  0  0  0  0  0
   60.3370   30.2050   46.0790 C   0  0  0  0  0  0  0  0  0  0  0  0
   59.7130   29.1410   45.2680 C   0  0  0  0  0  0  0  0  0  0  0  0
   60.4420   28.4610   44.4980 O   0  0  0  0  0  0  0  0  0  0  0  0
   58.3450   28.8590   45.3740 O   0  0  0  0  0  0  0  0  0  0  0  0
   57.4410   28.9160   44.2740 C   0  0  0  0  0  0  0  0  0  0  0  0
   56.2770   29.7860   44.6220 C   0  0  0  0  0  0  0  0  0  0  0  0
   55.1480   29.2640   44.8330 O   0  0  0  0  0  0  0  0  0  0  0  0
   56.4340   31.2080   44.6350 N   0  0  0  0  0  0  0  0  0  0  0  0
   57.5560   31.8950   44.0080 C   0  0  0  0  0  0  0  0  0  0  0  0
   58.1350   32.9020   44.9630 C   0  0  0  0  0  0  0  0  0  0  0  0
   57.7340   32.9270   46.3090 C   0  0  0  0  0  0  0  0  0  0  0  0
   58.2410   33.8990   47.1770 C   0  0  0  0  0  0  0  0  0  0  0  0
   59.1460   34.8550   46.7070 C   0  0  0  0  0  0  0  0  0  0  0  0
   59.5460   34.8390   45.3690 C   0  0  0  0  0  0  0  0  0  0  0  0
   59.0430   33.8680   44.4980 C   0  0  0  0  0  0  0  0  0  0  0  0
   61.1840   32.3740   48.4220 C   0  0  0  0  0  0  0  0  0  0  0  0
   62.3190   32.3430   47.5880 O   0  0  0  0  0  0  0  0  0  0  0  0
   62.8170   33.4110   46.7900 C   0  0  0  0  0  0  0  0  0  0  0  0
   62.8269   34.5393   51.2004 H   0  0  0  0  0  0  0  0  0  0  0  0
   63.5991   33.6480   49.8455 H   0  0  0  0  0  0  0  0  0  0  0  0
   63.5831   35.4442   49.8455 H   0  0  0  0  0  0  0  0  0  0  0  0
   59.5349   34.1699   50.8474 H   0  0  0  0  0  0  0  0  0  0  0  0
   58.0209   32.2027   50.7208 H   0  0  0  0  0  0  0  0  0  0  0  0
   58.5009   30.3506   49.1319 H   0  0  0  0  0  0  0  0  0  0  0  0
   60.8992   29.2185   47.8362 H   0  0  0  0  0  0  0  0  0  0  0  0
   60.6715   31.1099   45.5505 H   0  0  0  0  0  0  0  0  0  0  0  0
   57.9585   29.3316   43.3968 H   0  0  0  0  0  0  0  0  0  0  0  0
   57.0817   27.9018   44.0454 H   0  0  0  0  0  0  0  0  0  0  0  0
   58.3294   31.1606   43.7385 H   0  0  0  0  0  0  0  0  0  0  0  0
   57.2050   32.4127   43.1031 H   0  0  0  0  0  0  0  0  0  0  0  0
   57.0185   32.1792   46.6816 H   0  0  0  0  0  0  0  0  0  0  0  0
   57.9272   33.9113   48.2312 H   0  0  0  0  0  0  0  0  0  0  0  0
   59.5430   35.6197   47.3908 H   0  0  0  0  0  0  0  0  0  0  0  0
   60.2581   35.5917   44.9998 H   0  0  0  0  0  0  0  0  0  0  0  0
   59.3594   33.8603   43.4445 H   0  0  0  0  0  0  0  0  0  0  0  0
   63.1911   34.2132   47.4431 H   0  0  0  0  0  0  0  0  0  0  0  0
   63.6364   33.0431   46.1550 H   0  0  0  0  0  0  0  0  0  0  0  0
   62.0084   33.8022   46.1550 H   0  0  0  0  0  0  0  0  0  0  0  0
  1  2  1  0
  2  3  1  0
  3  4  2  0
  4  5  1  0
  5  6  2  0
  6  7  1  0
  7  8  1  0
  8  9  2  3
  9 10  1  0
 10 11  2  0
 10 12  1  0
 12 13  1  0
 13 14  1  0
 14 15  2  0
 14 16  1  0
 16 17  1  0
 17 18  1  0
 18 19  2  0
 19 20  1  0
 20 21  2  0
 21 22  1  0
 22 23  2  0
  7 24  2  0
 24 25  1  0
 25 26  1  0
 24  3  1  0
 23 18  1  0
  1 27  1  0
  1 28  1  0
  1 29  1  0
  4 30  1  0
  5 31  1  0
  6 32  1  0
  8 33  1  0
  9 34  1  0
 13 35  1  0
 13 36  1  0
 17 37  1  0
 17 38  1  0
 19 39  1  0
 20 40  1  0
 21 41  1  0
 22 42  1  0
 23 43  1  0
 26 44  1  0
 26 45  1  0
 26 46  1  0
M  CHG  1  16  -1
M  END
>  <UniqueID>  (46) 
42

>  <SMILES>  (46) 
COc1cccc(C=CC(=O)OCC(=O)[N-]Cc2ccccc2)c1OC

>  <Energy>  (46) 
49.00738863810232

>  <Genealogy>  (46) 
COc1cccc(C=CC(=O)OCC(=O)[N-]Cc2ccccc2)c1OC (protonated)
COc1cccc(C=CC(=O)OCC(=O)[N-]Cc2ccccc2)c1OC (3D coordinates assigned)
COc1cccc(C=CC(=O)OCC(=O)[N-]Cc2ccccc2)c1OC (optimized conformer: 49.00738863810232 kcal/mol)

>  <smiles>  (46) 
COc1cccc(C=CC(=O)OCC(=O)NCc2ccccc2)c1OC

>  <score_type>  (46) 
oracle

>  <origin>  (46) 
adg

>  <m_score__min__energy>  (46) 
-9.9299999999999997

>  <m_primary>  (46) 
energy

$$$$
46:0
     RDKit          3D

 35 37  0  0  0  0  0  0  0  0999 V2000
   57.4020   33.4590   47.1960 O   0  0  0  0  0  0  0  0  0  0  0  0
   57.6310   33.1780   45.9880 C   0  0  0  0  0  0  0  0  0  0  0  0
   58.8830   33.6730   45.3370 C   0  0  0  0  0  0  0  0  0  0  0  0
   60.0770   33.2720   46.1580 C   0  0  0  0  0  0  0  0  0  0  0  0
   61.1130   34.1920   46.3970 C   0  0  0  0  0  0  0  0  0  0  0  0
   62.2050   33.8340   47.1950 C   0  0  0  0  0  0  0  0  0  0  0  0
   62.2680   32.5560   47.7630 C   0  0  0  0  0  0  0  0  0  0  0  0
   63.6410   32.1050   48.7590 Cl  0  0  0  0  0  0  0  0  0  0  0  0
   61.2360   31.6390   47.5380 C   0  0  0  0  0  0  0  0  0  0  0  0
   60.1400   31.9960   46.7470 C   0  0  0  0  0  0  0  0  0  0  0  0
   56.7100   32.3830   45.2330 N   0  0  0  0  0  0  0  0  0  0  0  0
   56.9430   31.0470   44.7630 C   0  0  0  0  0  0  0  0  0  0  0  0
   56.7690   30.7700   43.4040 C   0  0  0  0  0  0  0  0  0  0  0  0
   57.0140   29.4870   42.9070 C   0  0  0  0  0  0  0  0  0  0  0  0
   57.4620   28.4710   43.7570 C   0  0  0  0  0  0  0  0  0  0  0  0
   57.6960   27.2060   43.2160 O   0  0  0  0  0  0  0  0  0  0  0  0
   57.6750   28.7490   45.1240 C   0  0  0  0  0  0  0  0  0  0  0  0
   58.3230   27.5060   46.2510 S   0  0  0  0  0  0  0  0  0  0  0  0
   56.9350   26.4120   45.9680 C   0  0  0  0  0  0  0  0  0  0  0  0
   57.0330   25.2370   45.3180 N   0  0  0  0  0  0  0  0  0  0  0  0
   55.7550   24.8050   45.3380 C   0  0  0  0  0  0  0  0  0  0  0  0
   54.9340   25.6680   45.9630 N   0  0  0  0  0  0  0  0  0  0  0  0
   55.6780   26.6850   46.3610 N   0  0  0  0  0  0  0  0  0  0  0  0
   57.4110   30.0340   45.6180 C   0  0  0  0  0  0  0  0  0  0  0  0
   58.9685   33.2367   44.3309 H   0  0  0  0  0  0  0  0  0  0  0  0
   58.8448   34.7699   45.2634 H   0  0  0  0  0  0  0  0  0  0  0  0
   61.0647   35.1979   45.9545 H   0  0  0  0  0  0  0  0  0  0  0  0
   63.0142   34.5568   47.3761 H   0  0  0  0  0  0  0  0  0  0  0  0
   61.2869   30.6349   47.9844 H   0  0  0  0  0  0  0  0  0  0  0  0
   59.3239   31.2766   46.5846 H   0  0  0  0  0  0  0  0  0  0  0  0
   56.4373   31.5665   42.7217 H   0  0  0  0  0  0  0  0  0  0  0  0
   56.8533   29.2749   41.8397 H   0  0  0  0  0  0  0  0  0  0  0  0
   57.1600   26.3900   43.4770 H   0  0  0  0  0  0  0  0  0  0  0  0
   55.4223   23.8553   44.8938 H   0  0  0  0  0  0  0  0  0  0  0  0
   57.5715   30.2517   46.6842 H   0  0  0  0  0  0  0  0  0  0  0  0
  1  2  2  0
  2  3  1  0
  3  4  1  0
  4  5  2  0
  5  6  1  0
  6  7  2  0
  7  8  1  0
  7  9  1  0
  9 10  2  0
  2 11  1  0
 11 12  1  0
 12 13  2  0
 13 14  1  0
 14 15  2  0
 15 16  1  0
 15 17  1  0
 17 18  1  0
 18 19  1  0
 19 20  1  0
 20 21  2  0
 21 22  1  0
 22 23  1  0
 17 24  2  0
 10  4  1  0
 24 12  1  0
 23 19  2  0
  3 25  1  0
  3 26  1  0
  5 27  1  0
  6 28  1  0
  9 29  1  0
 10 30  1  0
 13 31  1  0
 14 32  1  0
 16 33  1  0
 21 34  1  0
 24 35  1  0
M  CHG  2  11  -1  22  -1
M  END
>  <UniqueID>  (47) 
43

>  <SMILES>  (47) 
O=C(Cc1ccc(Cl)cc1)[N-]c1ccc(O)c(Sc2nc[n-]n2)c1

>  <Energy>  (47) 
67.26355606270482

>  <Genealogy>  (47) 
O=C(Cc1ccc(Cl)cc1)[N-]c1ccc(O)c(Sc2nc[n-]n2)c1 (protonated)
O=C(Cc1ccc(Cl)cc1)[N-]c1ccc(O)c(Sc2nc[n-]n2)c1 (3D coordinates assigned)
O=C(Cc1ccc(Cl)cc1)[N-]c1ccc(O)c(Sc2nc[n-]n2)c1 (optimized conformer: 67.26355606270482 kcal/mol)

>  <smiles>  (47) 
O=C(Cc1ccc(Cl)cc1)Nc1ccc(O)c(Sc2nc[nH]n2)c1

>  <score_type>  (47) 
oracle

>  <origin>  (47) 
adg

>  <m_score__min__energy>  (47) 
-11.06

>  <m_primary>  (47) 
energy

$$$$
47:0
     RDKit          3D

 47 49  0  0  1  0  0  0  0  0999 V2000
   56.9430   30.4540   42.9710 C   0  0  0  0  0  0  0  0  0  0  0  0
   56.4030   29.9010   44.2400 C   0  0  0  0  0  0  0  0  0  0  0  0
   55.1860   30.1060   44.5690 O   0  0  0  0  0  0  0  0  0  0  0  0
   57.2560   29.1170   45.1240 C   0  0  0  0  0  0  0  0  0  0  0  0
   57.3730   27.7570   44.9140 C   0  0  0  0  0  0  0  0  0  0  0  0
   58.1730   27.0760   45.7620 N   0  0  0  0  0  0  0  0  0  0  0  0
   58.2740   25.6340   45.5070 C   0  0  2  0  0  0  0  0  0  0  0  0
   57.3240   25.2430   44.6120 O   0  0  0  0  0  0  0  0  0  0  0  0
   56.5380   24.2670   45.1790 C   0  0  2  0  0  0  0  0  0  0  0  0
   55.2430   24.9430   45.6250 C   0  0  0  0  0  0  0  0  0  0  0  0
   55.4910   26.0960   46.3540 O   0  0  0  0  0  0  0  0  0  0  0  0
   57.2970   23.6740   46.3250 C   0  0  1  0  0  0  0  0  0  0  0  0
   58.1160   22.6350   45.8780 O   0  0  0  0  0  0  0  0  0  0  0  0
   58.1650   24.8360   46.7660 C   0  0  2  0  0  0  0  0  0  0  0  0
   57.4590   25.4670   47.7880 O   0  0  0  0  0  0  0  0  0  0  0  0
   58.8350   27.6710   46.7710 C   0  0  0  0  0  0  0  0  0  0  0  0
   59.5770   26.9910   47.5440 O   0  0  0  0  0  0  0  0  0  0  0  0
   58.7140   29.0060   46.9690 N   0  0  0  0  0  0  0  0  0  0  0  0
   57.9310   29.7370   46.1560 C   0  0  0  0  0  0  0  0  0  0  0  0
   57.7730   31.0070   46.2850 N   0  0  0  0  0  0  0  0  0  0  0  0
   58.6780   31.9060   45.6710 C   0  0  0  0  0  0  0  0  0  0  0  0
   58.4680   32.5030   44.5870 O   0  0  0  0  0  0  0  0  0  0  0  0
   59.9470   32.1430   46.3740 C   0  0  0  0  0  0  0  0  0  0  0  0
   60.7500   31.1280   46.8310 C   0  0  0  0  0  0  0  0  0  0  0  0
   61.9240   31.5010   47.4720 C   0  0  0  0  0  0  0  0  0  0  0  0
   62.2770   32.8310   47.6480 C   0  0  0  0  0  0  0  0  0  0  0  0
   63.7630   33.3060   48.4580 Cl  0  0  0  0  0  0  0  0  0  0  0  0
   61.4710   33.8520   47.1880 C   0  0  0  0  0  0  0  0  0  0  0  0
   60.2850   33.4850   46.5410 C   0  0  0  0  0  0  0  0  0  0  0  0
   57.6951   31.2242   43.1973 H   0  0  0  0  0  0  0  0  0  0  0  0
   57.4094   29.6461   42.3881 H   0  0  0  0  0  0  0  0  0  0  0  0
   56.1243   30.9011   42.3881 H   0  0  0  0  0  0  0  0  0  0  0  0
   56.8397   27.2526   44.0947 H   0  0  0  0  0  0  0  0  0  0  0  0
   59.2697   25.4423   45.0807 H   0  0  0  0  0  0  0  0  0  0  0  0
   56.2894   23.4520   44.4834 H   0  0  0  0  0  0  0  0  0  0  0  0
   54.6523   25.2044   44.7346 H   0  0  0  0  0  0  0  0  0  0  0  0
   54.6943   24.2409   46.2700 H   0  0  0  0  0  0  0  0  0  0  0  0
   56.4280   26.3510   46.3070 H   0  0  0  0  0  0  0  0  0  0  0  0
   56.6508   23.2591   47.1126 H   0  0  0  0  0  0  0  0  0  0  0  0
   58.3880   22.8040   44.9430 H   0  0  0  0  0  0  0  0  0  0  0  0
   59.1668   24.6167   47.1639 H   0  0  0  0  0  0  0  0  0  0  0  0
   57.3060   26.4300   47.5620 H   0  0  0  0  0  0  0  0  0  0  0  0
   59.2290   29.4520   47.7540 H   0  0  0  0  0  0  0  0  0  0  0  0
   60.4770   30.0710   46.6961 H   0  0  0  0  0  0  0  0  0  0  0  0
   62.5954   30.7170   47.8523 H   0  0  0  0  0  0  0  0  0  0  0  0
   61.7481   34.9079   47.3237 H   0  0  0  0  0  0  0  0  0  0  0  0
   59.6109   34.2660   46.1594 H   0  0  0  0  0  0  0  0  0  0  0  0
  1  2  1  0
  2  3  2  0
  2  4  1  0
  4  5  2  0
  5  6  1  0
  6  7  1  0
  7  8  1  0
  8  9  1  0
  9 10  1  0
 10 11  1  0
  9 12  1  0
 12 13  1  0
 12 14  1  0
 14 15  1  0
  6 16  1  0
 16 17  2  0
 16 18  1  0
 18 19  1  0
 19 20  2  0
 20 21  1  0
 21 22  2  0
 21 23  1  0
 23 24  2  0
 24 25  1  0
 25 26  2  0
 26 27  1  0
 26 28  1  0
 28 29  2  0
 19  4  1  0
 29 23  1  0
 14  7  1  0
  1 30  1  0
  1 31  1  0
  1 32  1  0
  5 33  1  0
  7 34  1  6
  9 35  1  6
 10 36  1  0
 10 37  1  0
 11 38  1  0
 12 39  1  1
 13 40  1  0
 14 41  1  1
 15 42  1  0
 18 43  1  0
 24 44  1  0
 25 45  1  0
 28 46  1  0
 29 47  1  0
M  END
>  <smiles>  (48) 
CC(=O)c1cn(C2OC(CO)C(O)C2O)c(=O)[nH]c1=NC(=O)c1ccc(Cl)cc1

>  <score_type>  (48) 
oracle

>  <origin>  (48) 
adg

>  <m_score__min__energy>  (48) 
-10.26

>  <m_primary>  (48) 
energy

$$$$
48:0
     RDKit          3D

 56 59  0  0  0  0  0  0  0  0999 V2000
   60.3276   28.8334   47.5644 H   0  0  0  0  0  0  0  0  0  0  0  0
   59.7530   29.6190   47.0520 C   0  0  0  0  0  0  0  0  0  0  0  0
   58.6040   29.2850   46.3310 C   0  0  0  0  0  0  0  0  0  0  0  0
   58.2770   28.2361   46.2773 H   0  0  0  0  0  0  0  0  0  0  0  0
   57.8640   30.2830   45.6740 C   0  0  0  0  0  0  0  0  0  0  0  0
   56.6360   29.9390   44.9220 C   0  0  0  0  0  0  0  0  0  0  0  0
   56.2630   30.6860   43.9800 O   0  0  0  0  0  0  0  0  0  0  0  0
   55.8760   28.7530   45.2020 N   0  0  0  0  0  0  0  0  0  0  0  0
   56.3740   27.5660   45.3840 C   0  0  0  0  0  0  0  0  0  0  0  0
   55.9110   26.6820   46.3050 N   0  0  0  0  0  0  0  0  0  0  0  0
   56.6100   25.5210   46.2470 C   0  0  0  0  0  0  0  0  0  0  0  0
   56.3790   24.4230   47.0720 C   0  0  0  0  0  0  0  0  0  0  0  0
   55.5851   24.4544   47.8328 H   0  0  0  0  0  0  0  0  0  0  0  0
   57.1800   23.2660   46.9180 C   0  0  0  0  0  0  0  0  0  0  0  0
   57.0010   22.1290   47.7200 O   0  0  0  0  0  0  0  0  0  0  0  0
   55.7800   21.7810   48.3660 C   0  0  0  0  0  0  0  0  0  0  0  0
   55.9180   21.8203   49.4566 H   0  0  0  0  0  0  0  0  0  0  0  0
   54.9934   22.4907   48.0701 H   0  0  0  0  0  0  0  0  0  0  0  0
   55.4857   20.7632   48.0701 H   0  0  0  0  0  0  0  0  0  0  0  0
   58.1960   23.2350   45.9330 C   0  0  0  0  0  0  0  0  0  0  0  0
   58.9690   22.0700   45.8110 O   0  0  0  0  0  0  0  0  0  0  0  0
   59.9370   21.8480   44.7900 C   0  0  0  0  0  0  0  0  0  0  0  0
   60.9108   21.6247   45.2503 H   0  0  0  0  0  0  0  0  0  0  0  0
   59.6231   20.9985   44.1656 H   0  0  0  0  0  0  0  0  0  0  0  0
   60.0247   22.7494   44.1656 H   0  0  0  0  0  0  0  0  0  0  0  0
   58.4100   24.3620   45.1050 C   0  0  0  0  0  0  0  0  0  0  0  0
   59.1952   24.3531   44.3347 H   0  0  0  0  0  0  0  0  0  0  0  0
   57.6060   25.4800   45.2870 C   0  0  0  0  0  0  0  0  0  0  0  0
   57.6410   26.9410   44.4570 S   0  0  0  0  0  0  0  0  0  0  0  0
   58.3050   31.6140   45.7290 C   0  0  0  0  0  0  0  0  0  0  0  0
   57.7497   32.3965   45.1911 H   0  0  0  0  0  0  0  0  0  0  0  0
   59.4500   31.9530   46.4660 C   0  0  0  0  0  0  0  0  0  0  0  0
   59.9400   33.6400   46.6160 S   0  0  0  0  0  0  0  0  0  0  0  0
   58.7850   34.4520   47.1340 O   0  0  0  0  0  0  0  0  0  0  0  0
   60.3050   34.1730   45.2580 O   0  0  0  0  0  0  0  0  0  0  0  0
   61.3000   33.8010   47.7080 N   0  0  0  0  0  0  0  0  0  0  0  0
   60.8700   33.6210   49.1200 C   0  0  0  0  0  0  0  0  0  0  0  0
   60.4888   34.5866   49.4837 H   0  0  0  0  0  0  0  0  0  0  0  0
   60.1138   32.8222   49.1055 H   0  0  0  0  0  0  0  0  0  0  0  0
   61.9710   33.1450   50.0970 C   0  0  0  0  0  0  0  0  0  0  0  0
   61.5760   33.2356   51.1196 H   0  0  0  0  0  0  0  0  0  0  0  0
   62.2090   32.1138   49.7970 H   0  0  0  0  0  0  0  0  0  0  0  0
   63.3140   33.9200   50.0360 C   0  0  0  0  0  0  0  0  0  0  0  0
   63.0857   34.9773   49.8362 H   0  0  0  0  0  0  0  0  0  0  0  0
   63.8057   33.7462   51.0045 H   0  0  0  0  0  0  0  0  0  0  0  0
   64.3100   33.4410   48.9670 C   0  0  0  0  0  0  0  0  0  0  0  0
   65.2244   34.0464   49.0527 H   0  0  0  0  0  0  0  0  0  0  0  0
   64.4846   32.3717   49.1570 H   0  0  0  0  0  0  0  0  0  0  0  0
   63.7920   33.5520   47.5190 C   0  0  0  0  0  0  0  0  0  0  0  0
   63.7411   34.6197   47.2594 H   0  0  0  0  0  0  0  0  0  0  0  0
   64.4984   32.9758   46.9033 H   0  0  0  0  0  0  0  0  0  0  0  0
   62.4090   32.9360   47.2560 C   0  0  0  0  0  0  0  0  0  0  0  0
   62.3014   32.7632   46.1750 H   0  0  0  0  0  0  0  0  0  0  0  0
   62.3508   31.9981   47.8278 H   0  0  0  0  0  0  0  0  0  0  0  0
   60.1730   30.9490   47.1230 C   0  0  0  0  0  0  0  0  0  0  0  0
   61.0747   31.2091   47.6968 H   0  0  0  0  0  0  0  0  0  0  0  0
  1  2  1  0
  2  3  2  0
  3  4  1  0
  3  5  1  0
  5  6  1  0
  6  7  2  0
  6  8  1  0
  8  9  2  0
  9 10  1  0
 10 11  1  0
 11 12  2  0
 12 13  1  0
 12 14  1  0
 14 15  1  0
 15 16  1  0
 16 17  1  0
 16 18  1  0
 16 19  1  0
 14 20  2  0
 20 21  1  0
 21 22  1  0
 22 23  1  0
 22 24  1  0
 22 25  1  0
 20 26  1  0
 26 27  1  0
 26 28  2  0
 28 29  1  0
  5 30  2  0
 30 31  1  0
 30 32  1  0
 32 33  1  0
 33 34  2  0
 33 35  2  0
 33 36  1  0
 36 37  1  0
 37 38  1  0
 37 39  1  0
 37 40  1  0
 40 41  1  0
 40 42  1  0
 40 43  1  0
 43 44  1  0
 43 45  1  0
 43 46  1  0
 46 47  1  0
 46 48  1  0
 46 49  1  0
 49 50  1  0
 49 51  1  0
 49 52  1  0
 52 53  1  0
 52 54  1  0
 32 55  2  0
 55 56  1  0
 55  2  1  0
 29  9  1  0
 52 36  1  0
 28 11  1  0
M  CHG  1  10  -1
M  END
>  <UniqueID>  (49) 
44

>  <SMILES>  (49) 
COc1cc2[n-]/c(=N\C(=O)c3cccc(S(=O)(=O)N4CCCCCC4)c3)sc2cc1OC

>  <Energy>  (49) 
108.55948933532304

>  <Genealogy>  (49) 
COc1cc2[n-]c(=NC(=O)c3cccc(S(=O)(=O)N4CCCCCC4)c3)sc2cc1OC (protonated)
COc1cc2[n-]/c(=N\C(=O)c3cccc(S(=O)(=O)N4CCCCCC4)c3)sc2cc1OC (cis-trans isomerization)
COc1cc2[n-]/c(=N\C(=O)c3cccc(S(=O)(=O)N4CCCCCC4)c3)sc2cc1OC (3D coordinates assigned)
COc1cc2[n-]/c(=N\C(=O)c3cccc(S(=O)(=O)N4CCCCCC4)c3)sc2cc1OC (nonaromatic ring conformer: 108.55948933532304 kcal/mol)

>  <smiles>  (49) 
COc1cc2[nH]c(=NC(=O)c3cccc(S(=O)(=O)N4CCCCCC4)c3)sc2cc1OC

>  <score_type>  (49) 
oracle

>  <origin>  (49) 
adg

>  <m_score__min__energy>  (49) 
-10.449999999999999

>  <m_primary>  (49) 
energy

$$$$
49:0
     RDKit          3D

 49 52  0  0  0  0  0  0  0  0999 V2000
   57.3840   23.6180   47.1260 C   0  0  0  0  0  0  0  0  0  0  0  0
   57.0500   23.3570   45.6780 C   0  0  0  0  0  0  0  0  0  0  0  0
   56.5230   22.1040   45.2890 C   0  0  0  0  0  0  0  0  0  0  0  0
   56.1660   20.8390   46.4640 Cl  0  0  0  0  0  0  0  0  0  0  0  0
   56.2680   21.8360   43.9410 C   0  0  0  0  0  0  0  0  0  0  0  0
   56.5240   22.8030   42.9690 C   0  0  0  0  0  0  0  0  0  0  0  0
   57.0110   24.0540   43.3400 C   0  0  0  0  0  0  0  0  0  0  0  0
   57.2470   24.3560   44.6890 C   0  0  0  0  0  0  0  0  0  0  0  0
   57.7070   25.6740   45.0250 N   0  0  0  0  0  0  0  0  0  0  0  0
   56.9240   26.5800   45.8150 C   0  0  0  0  0  0  0  0  0  0  0  0
   55.7090   26.3280   46.0400 O   0  0  0  0  0  0  0  0  0  0  0  0
   57.4960   27.8390   46.3260 C   0  0  0  0  0  0  0  0  0  0  0  0
   58.1400   27.9160   47.5070 N   0  0  0  0  0  0  0  0  0  0  0  0
   58.5410   29.1670   47.6800 N   0  0  0  0  0  0  0  0  0  0  0  0
   59.2190   29.6040   48.8700 C   0  0  0  0  0  0  0  0  0  0  0  0
   58.5840   30.4960   49.7490 C   0  0  0  0  0  0  0  0  0  0  0  0
   59.2380   30.9390   50.9030 C   0  0  0  0  0  0  0  0  0  0  0  0
   60.5360   30.5030   51.1820 C   0  0  0  0  0  0  0  0  0  0  0  0
   61.1690   30.9320   52.3020 F   0  0  0  0  0  0  0  0  0  0  0  0
   61.1840   29.6300   50.3040 C   0  0  0  0  0  0  0  0  0  0  0  0
   60.5340   29.1870   49.1480 C   0  0  0  0  0  0  0  0  0  0  0  0
   58.1730   29.9110   46.6100 C   0  0  0  0  0  0  0  0  0  0  0  0
   58.5310   31.3290   46.3840 C   0  0  0  0  0  0  0  0  0  0  0  0
   59.8200   31.7920   46.6950 C   0  0  0  0  0  0  0  0  0  0  0  0
   60.1600   33.1300   46.4750 C   0  0  0  0  0  0  0  0  0  0  0  0
   59.2160   34.0160   45.9450 C   0  0  0  0  0  0  0  0  0  0  0  0
   59.6440   35.6930   45.6670 Cl  0  0  0  0  0  0  0  0  0  0  0  0
   57.9280   33.5620   45.6370 C   0  0  0  0  0  0  0  0  0  0  0  0
   57.5860   32.2250   45.8570 C   0  0  0  0  0  0  0  0  0  0  0  0
   57.5100   29.0870   45.7120 C   0  0  0  0  0  0  0  0  0  0  0  0
   57.0150   29.4520   44.3430 C   0  0  0  0  0  0  0  0  0  0  0  0
   56.6809   23.0686   47.7693 H   0  0  0  0  0  0  0  0  0  0  0  0
   58.4103   23.2802   47.3322 H   0  0  0  0  0  0  0  0  0  0  0  0
   57.3043   24.6956   47.3322 H   0  0  0  0  0  0  0  0  0  0  0  0
   55.8632   20.8569   43.6451 H   0  0  0  0  0  0  0  0  0  0  0  0
   56.3410   22.5773   41.9081 H   0  0  0  0  0  0  0  0  0  0  0  0
   57.2122   24.8116   42.5683 H   0  0  0  0  0  0  0  0  0  0  0  0
   58.5030   26.0660   44.4730 H   0  0  0  0  0  0  0  0  0  0  0  0
   57.5656   30.8486   49.5285 H   0  0  0  0  0  0  0  0  0  0  0  0
   58.7305   31.6309   51.5913 H   0  0  0  0  0  0  0  0  0  0  0  0
   62.2073   29.2907   50.5227 H   0  0  0  0  0  0  0  0  0  0  0  0
   61.0525   28.5099   48.4532 H   0  0  0  0  0  0  0  0  0  0  0  0
   60.5649   31.0991   47.1133 H   0  0  0  0  0  0  0  0  0  0  0  0
   61.1715   33.4868   46.7190 H   0  0  0  0  0  0  0  0  0  0  0  0
   57.1846   34.2582   45.2215 H   0  0  0  0  0  0  0  0  0  0  0  0
   56.5722   31.8725   45.6164 H   0  0  0  0  0  0  0  0  0  0  0  0
   56.1327   30.1026   44.4335 H   0  0  0  0  0  0  0  0  0  0  0  0
   57.8078   29.9833   43.7960 H   0  0  0  0  0  0  0  0  0  0  0  0
   56.7417   28.5376   43.7960 H   0  0  0  0  0  0  0  0  0  0  0  0
  1  2  1  0
  2  3  2  0
  3  4  1  0
  3  5  1  0
  5  6  2  0
  6  7  1  0
  7  8  2  0
  8  9  1  0
  9 10  1  0
 10 11  2  0
 10 12  1  0
 12 13  2  0
 13 14  1  0
 14 15  1  0
 15 16  2  0
 16 17  1  0
 17 18  2  0
 18 19  1  0
 18 20  1  0
 20 21  2  0
 14 22  1  0
 22 23  1  0
 23 24  2  0
 24 25  1  0
 25 26  2  0
 26 27  1  0
 26 28  1  0
 28 29  2  0
 22 30  2  0
 30 31  1  0
  8  2  1  0
 30 12  1  0
 21 15  1  0
 29 23  1  0
  1 32  1  0
  1 33  1  0
  1 34  1  0
  5 35  1  0
  6 36  1  0
  7 37  1  0
  9 38  1  0
 16 39  1  0
 17 40  1  0
 20 41  1  0
 21 42  1  0
 24 43  1  0
 25 44  1  0
 28 45  1  0
 29 46  1  0
 31 47  1  0
 31 48  1  0
 31 49  1  0
M  END
>  <UniqueID>  (50) 
45

>  <SMILES>  (50) 
Cc1c(Cl)cccc1NC(=O)c1nn(-c2ccc(F)cc2)c(-c2ccc(Cl)cc2)c1C

>  <Energy>  (50) 
101.74594851317592

>  <Genealogy>  (50) 
Cc1c(Cl)cccc1NC(=O)c1nn(-c2ccc(F)cc2)c(-c2ccc(Cl)cc2)c1C (3D coordinates assigned)
Cc1c(Cl)cccc1NC(=O)c1nn(-c2ccc(F)cc2)c(-c2ccc(Cl)cc2)c1C (optimized conformer: 101.74594851317592 kcal/mol)

>  <smiles>  (50) 
Cc1c(Cl)cccc1NC(=O)c1nn(-c2ccc(F)cc2)c(-c2ccc(Cl)cc2)c1C

>  <score_type>  (50) 
oracle

>  <origin>  (50) 
adg

>  <m_score__min__energy>  (50) 
-8.7599999999999998

>  <m_primary>  (50) 
energy

$$$$
50:0
     RDKit          3D

 68 71  0  0  0  0  0  0  0  0999 V2000
   60.5280   29.8250   48.8310 C   0  0  0  0  0  0  0  0  0  0  0  0
   59.2710   29.7350   47.9690 C   0  0  0  0  0  0  0  0  0  0  0  0
   59.6000   29.9460   46.4860 C   0  0  0  0  0  0  0  0  0  0  0  0
   58.3300   30.0790   45.6600 C   0  0  0  0  0  0  0  0  0  0  0  0
   58.0050   31.2840   44.9640 C   0  0  0  0  0  0  0  0  0  0  0  0
   58.8580   32.5390   45.0160 C   0  0  0  0  0  0  0  0  0  0  0  0
   58.2780   33.5820   45.9850 C   0  0  0  0  0  0  0  0  0  0  0  0
   58.8750   33.4040   47.3560 C   0  0  0  0  0  0  0  0  0  0  0  0
   58.1620   32.7390   48.2960 N   0  0  0  0  0  0  0  0  0  0  0  0
   58.5990   32.6270   49.5720 C   0  0  0  0  0  0  0  0  0  0  0  0
   57.8260   31.9220   50.5010 C   0  0  0  0  0  0  0  0  0  0  0  0
   58.2490   31.8110   51.8240 C   0  0  0  0  0  0  0  0  0  0  0  0
   59.4430   32.4060   52.2250 C   0  0  0  0  0  0  0  0  0  0  0  0
   60.2230   33.1170   51.3080 C   0  0  0  0  0  0  0  0  0  0  0  0
   59.8180   33.2390   49.9560 C   0  0  0  0  0  0  0  0  0  0  0  0
   60.5570   33.9290   49.0090 N   0  0  0  0  0  0  0  0  0  0  0  0
   61.8020   34.6460   49.3690 C   0  0  0  0  0  0  0  0  0  0  0  0
   62.9100   33.6710   49.6910 C   0  0  0  0  0  0  0  0  0  0  0  0
   63.7790   33.9140   50.7680 C   0  0  0  0  0  0  0  0  0  0  0  0
   64.8140   33.0210   51.0580 C   0  0  0  0  0  0  0  0  0  0  0  0
   64.9990   31.8770   50.2690 C   0  0  0  0  0  0  0  0  0  0  0  0
   66.0280   30.9810   50.5490 O   0  0  0  0  0  0  0  0  0  0  0  0
   64.1460   31.6350   49.1880 C   0  0  0  0  0  0  0  0  0  0  0  0
   63.1090   32.5280   48.8960 C   0  0  0  0  0  0  0  0  0  0  0  0
   60.0930   34.0060   47.7130 C   0  0  0  0  0  0  0  0  0  0  0  0
   60.7530   34.6280   46.8330 O   0  0  0  0  0  0  0  0  0  0  0  0
   56.8480   31.3210   44.1700 C   0  0  0  0  0  0  0  0  0  0  0  0
   55.9960   30.2240   44.0930 C   0  0  0  0  0  0  0  0  0  0  0  0
   56.2880   29.0610   44.7960 C   0  0  0  0  0  0  0  0  0  0  0  0
   57.4520   28.9690   45.5800 C   0  0  0  0  0  0  0  0  0  0  0  0
   57.7750   27.8000   46.3030 O   0  0  0  0  0  0  0  0  0  0  0  0
   57.5420   26.4320   45.9310 C   0  0  0  0  0  0  0  0  0  0  0  0
   57.8170   26.2380   44.4230 C   0  0  0  0  0  0  0  0  0  0  0  0
   58.5340   25.5710   46.7250 C   0  0  0  0  0  0  0  0  0  0  0  0
   56.1450   26.0000   46.3100 C   0  0  0  0  0  0  0  0  0  0  0  0
   55.1570   26.7150   45.9920 O   0  0  0  0  0  0  0  0  0  0  0  0
   55.9390   24.8650   47.0870 O   0  0  0  0  0  0  0  0  0  0  0  0
   60.2458   29.8048   49.8940 H   0  0  0  0  0  0  0  0  0  0  0  0
   61.1860   28.9717   48.6100 H   0  0  0  0  0  0  0  0  0  0  0  0
   61.0577   30.7634   48.6100 H   0  0  0  0  0  0  0  0  0  0  0  0
   58.8176   28.7411   48.0982 H   0  0  0  0  0  0  0  0  0  0  0  0
   58.5731   30.5236   48.2869 H   0  0  0  0  0  0  0  0  0  0  0  0
   60.1978   30.8629   46.3770 H   0  0  0  0  0  0  0  0  0  0  0  0
   60.1637   29.0734   46.1243 H   0  0  0  0  0  0  0  0  0  0  0  0
   59.8708   32.2679   45.3487 H   0  0  0  0  0  0  0  0  0  0  0  0
   58.8786   32.9812   44.0090 H   0  0  0  0  0  0  0  0  0  0  0  0
   58.5111   34.5914   45.6151 H   0  0  0  0  0  0  0  0  0  0  0  0
   57.1879   33.4483   46.0472 H   0  0  0  0  0  0  0  0  0  0  0  0
   56.8816   31.4540   50.1861 H   0  0  0  0  0  0  0  0  0  0  0  0
   57.6404   31.2538   52.5514 H   0  0  0  0  0  0  0  0  0  0  0  0
   59.7744   32.3159   53.2700 H   0  0  0  0  0  0  0  0  0  0  0  0
   61.1608   33.5865   51.6398 H   0  0  0  0  0  0  0  0  0  0  0  0
   62.1119   35.2772   48.5231 H   0  0  0  0  0  0  0  0  0  0  0  0
   61.6078   35.2643   50.2578 H   0  0  0  0  0  0  0  0  0  0  0  0
   63.6437   34.8132   51.3870 H   0  0  0  0  0  0  0  0  0  0  0  0
   65.4852   33.2161   51.9074 H   0  0  0  0  0  0  0  0  0  0  0  0
   66.8760   31.2800   51.0200 H   0  0  0  0  0  0  0  0  0  0  0  0
   64.2905   30.7399   48.5652 H   0  0  0  0  0  0  0  0  0  0  0  0
   62.4458   32.3350   48.0399 H   0  0  0  0  0  0  0  0  0  0  0  0
   56.6114   32.2315   43.5999 H   0  0  0  0  0  0  0  0  0  0  0  0
   55.0884   30.2771   43.4738 H   0  0  0  0  0  0  0  0  0  0  0  0
   55.6014   28.2035   44.7385 H   0  0  0  0  0  0  0  0  0  0  0  0
   58.7094   25.6085   44.2910 H   0  0  0  0  0  0  0  0  0  0  0  0
   56.9510   25.7498   43.9522 H   0  0  0  0  0  0  0  0  0  0  0  0
   57.9864   27.2176   43.9522 H   0  0  0  0  0  0  0  0  0  0  0  0
   58.3658   25.7170   47.8022 H   0  0  0  0  0  0  0  0  0  0  0  0
   58.3848   24.5112   46.4709 H   0  0  0  0  0  0  0  0  0  0  0  0
   59.5623   25.8678   46.4709 H   0  0  0  0  0  0  0  0  0  0  0  0
  1  2  1  0
  2  3  1  0
  3  4  1  0
  4  5  2  0
  5  6  1  0
  6  7  1  0
  7  8  1  0
  8  9  2  0
  9 10  1  0
 10 11  2  0
 11 12  1  0
 12 13  2  0
 13 14  1  0
 14 15  2  0
 15 16  1  0
 16 17  1  0
 17 18  1  0
 18 19  2  0
 19 20  1  0
 20 21  2  0
 21 22  1  0
 21 23  1  0
 23 24  2  0
 16 25  1  0
 25 26  2  0
  5 27  1  0
 27 28  2  0
 28 29  1  0
 29 30  2  0
 30 31  1  0
 31 32  1  0
 32 33  1  0
 32 34  1  0
 32 35  1  0
 35 36  2  0
 35 37  1  0
 30  4  1  0
 25  8  1  0
 15 10  1  0
 24 18  1  0
  1 38  1  0
  1 39  1  0
  1 40  1  0
  2 41  1  0
  2 42  1  0
  3 43  1  0
  3 44  1  0
  6 45  1  0
  6 46  1  0
  7 47  1  0
  7 48  1  0
 11 49  1  0
 12 50  1  0
 13 51  1  0
 14 52  1  0
 17 53  1  0
 17 54  1  0
 19 55  1  0
 20 56  1  0
 22 57  1  0
 23 58  1  0
 24 59  1  0
 27 60  1  0
 28 61  1  0
 29 62  1  0
 33 63  1  0
 33 64  1  0
 33 65  1  0
 34 66  1  0
 34 67  1  0
 34 68  1  0
M  CHG  1  37  -1
M  END
>  <UniqueID>  (51) 
46

>  <SMILES>  (51) 
CCCc1c(CCc2nc3ccccc3n(Cc3ccc(O)cc3)c2=O)cccc1OC(C)(C)C(=O)[O-]

>  <Energy>  (51) 
78.5700199788558

>  <Genealogy>  (51) 
CCCc1c(CCc2nc3ccccc3n(Cc3ccc(O)cc3)c2=O)cccc1OC(C)(C)C(=O)[O-] (protonated)
CCCc1c(CCc2nc3ccccc3n(Cc3ccc(O)cc3)c2=O)cccc1OC(C)(C)C(=O)[O-] (3D coordinates assigned)
CCCc1c(CCc2nc3ccccc3n(Cc3ccc(O)cc3)c2=O)cccc1OC(C)(C)C(=O)[O-] (optimized conformer: 78.5700199788558 kcal/mol)

>  <smiles>  (51) 
CCCc1c(CCc2nc3ccccc3n(Cc3ccc(O)cc3)c2=O)cccc1OC(C)(C)C(=O)O

>  <score_type>  (51) 
oracle

>  <origin>  (51) 
adg

>  <m_score__min__energy>  (51) 
-13.5

>  <m_primary>  (51) 
energy

$$$$
51:0
     RDKit          3D

 31 33  0  0  1  0  0  0  0  0999 V2000
   62.2320   33.5260   48.5070 C   0  0  0  0  0  0  0  0  0  0  0  0
   62.3000   33.4640   47.1200 C   0  0  0  0  0  0  0  0  0  0  0  0
   61.1930   33.8650   46.3680 C   0  0  0  0  0  0  0  0  0  0  0  0
   60.0360   34.3220   46.9710 C   0  0  0  0  0  0  0  0  0  0  0  0
   58.9170   34.7250   46.0950 C   0  0  0  0  0  0  0  0  0  0  0  0
   57.6910   33.8160   46.3140 C   0  0  0  0  0  0  0  0  0  0  0  0
   57.9720   32.6250   45.6510 N   0  0  0  0  0  0  0  0  0  0  0  0
   57.8260   32.3550   44.4030 C   0  0  0  0  0  0  0  0  0  0  0  0
   58.3710   33.0580   43.4040 N   0  0  0  0  0  0  0  0  0  0  0  0
   58.1440   32.6730   42.1300 C   0  0  0  0  0  0  0  0  0  0  0  0
   57.3740   31.5900   41.8350 N   0  0  0  0  0  0  0  0  0  0  0  0
   56.8020   30.8500   42.7980 C   0  0  0  0  0  0  0  0  0  0  0  0
   56.0140   29.7580   42.8040 N   0  0  0  0  0  0  0  0  0  0  0  0
   55.7540   29.4670   44.1020 C   0  0  0  0  0  0  0  0  0  0  0  0
   56.3790   30.3750   44.8670 N   0  0  0  0  0  0  0  0  0  0  0  0
   57.0370   31.2460   44.1060 C   0  0  0  0  0  0  0  0  0  0  0  0
   59.9720   34.3830   48.3440 C   0  0  0  0  0  0  0  0  0  0  0  0
   61.0700   33.9850   49.0880 C   0  0  0  0  0  0  0  0  0  0  0  0
   63.0863   33.2157   49.1266 H   0  0  0  0  0  0  0  0  0  0  0  0
   63.2123   33.1044   46.6217 H   0  0  0  0  0  0  0  0  0  0  0  0
   61.2432   33.8160   45.2702 H   0  0  0  0  0  0  0  0  0  0  0  0
   58.6391   35.7650   46.3213 H   0  0  0  0  0  0  0  0  0  0  0  0
   59.2401   34.6325   45.0476 H   0  0  0  0  0  0  0  0  0  0  0  0
   57.5407   33.6293   47.3876 H   0  0  0  0  0  0  0  0  0  0  0  0
   56.7709   34.2821   45.9316 H   0  0  0  0  0  0  0  0  0  0  0  0
   58.9590   33.8840   43.6370 H   0  0  0  0  0  0  0  0  0  0  0  0
   58.5934   33.2500   41.3084 H   0  0  0  0  0  0  0  0  0  0  0  0
   55.6880   29.2610   41.9410 H   0  0  0  0  0  0  0  0  0  0  0  0
   55.1376   28.6315   44.4652 H   0  0  0  0  0  0  0  0  0  0  0  0
   59.0608   34.7431   48.8440 H   0  0  0  0  0  0  0  0  0  0  0  0
   61.0123   34.0373   50.1852 H   0  0  0  0  0  0  0  0  0  0  0  0
  1  2  2  0
  2  3  1  0
  3  4  2  0
  4  5  1  0
  5  6  1  0
  6  7  1  0
  7  8  2  0
  8  9  1  0
  9 10  1  0
 10 11  2  0
 11 12  1  0
 12 13  1  0
 13 14  1  0
 14 15  2  0
 15 16  1  0
  4 17  1  0
 17 18  2  0
 18  1  1  0
 16  8  1  0
 16 12  2  0
  1 19  1  0
  2 20  1  0
  3 21  1  0
  5 22  1  0
  5 23  1  0
  6 24  1  0
  6 25  1  0
  9 26  1  0
 10 27  1  0
 13 28  1  0
 14 29  1  0
 17 30  1  0
 18 31  1  0
M  END
>  <smiles>  (52) 
c1ccc(CCN=c2[nH]cnc3[nH]cnc23)cc1

>  <score_type>  (52) 
oracle

>  <origin>  (52) 
adg

>  <m_score__min__energy>  (52) 
-6.6399999999999997

>  <m_primary>  (52) 
energy

$$$$
52:0
     RDKit          3D

 37 40  0  0  0  0  0  0  0  0999 V2000
   56.4650   30.0590   42.6310 C   0  0  0  0  0  0  0  0  0  0  0  0
   57.0260   31.2520   42.1700 C   0  0  0  0  0  0  0  0  0  0  0  0
   57.6740   32.1130   43.0610 C   0  0  0  0  0  0  0  0  0  0  0  0
   57.7640   31.7920   44.4290 C   0  0  0  0  0  0  0  0  0  0  0  0
   58.4590   32.7170   45.3620 C   0  0  0  0  0  0  0  0  0  0  0  0
   57.9940   33.9940   45.6930 C   0  0  0  0  0  0  0  0  0  0  0  0
   59.0910   34.6860   46.7630 S   0  0  0  0  0  0  0  0  0  0  0  0
   60.1080   33.3440   46.7680 C   0  0  0  0  0  0  0  0  0  0  0  0
   61.3390   33.2220   47.5080 N   0  0  0  0  0  0  0  0  0  0  0  0
   62.3440   32.2190   47.1250 C   0  0  0  0  0  0  0  0  0  0  0  0
   63.7530   32.7410   47.3900 C   0  0  0  0  0  0  0  0  0  0  0  0
   63.8820   33.1810   48.8170 C   0  0  0  0  0  0  0  0  0  0  0  0
   65.1090   33.0500   49.4890 C   0  0  0  0  0  0  0  0  0  0  0  0
   65.2380   33.4940   50.8070 C   0  0  0  0  0  0  0  0  0  0  0  0
   64.1520   34.0840   51.4580 C   0  0  0  0  0  0  0  0  0  0  0  0
   62.9340   34.2330   50.7900 C   0  0  0  0  0  0  0  0  0  0  0  0
   62.7870   33.7800   49.4690 C   0  0  0  0  0  0  0  0  0  0  0  0
   61.4720   33.9960   48.7560 C   0  0  0  0  0  0  0  0  0  0  0  0
   59.6330   32.3710   45.9600 N   0  0  0  0  0  0  0  0  0  0  0  0
   57.1990   30.5830   44.8790 C   0  0  0  0  0  0  0  0  0  0  0  0
   56.5540   29.7250   43.9830 C   0  0  0  0  0  0  0  0  0  0  0  0
   55.9537   29.3836   41.9293 H   0  0  0  0  0  0  0  0  0  0  0  0
   56.9580   31.5148   41.1040 H   0  0  0  0  0  0  0  0  0  0  0  0
   58.1172   33.0490   42.6901 H   0  0  0  0  0  0  0  0  0  0  0  0
   57.0722   34.4633   45.3189 H   0  0  0  0  0  0  0  0  0  0  0  0
   62.1818   31.3027   47.7116 H   0  0  0  0  0  0  0  0  0  0  0  0
   62.2411   32.0067   46.0506 H   0  0  0  0  0  0  0  0  0  0  0  0
   64.4807   31.9409   47.1893 H   0  0  0  0  0  0  0  0  0  0  0  0
   63.9476   33.5997   46.7306 H   0  0  0  0  0  0  0  0  0  0  0  0
   65.9700   32.5967   48.9759 H   0  0  0  0  0  0  0  0  0  0  0  0
   66.1969   33.3788   51.3335 H   0  0  0  0  0  0  0  0  0  0  0  0
   64.2558   34.4313   52.4966 H   0  0  0  0  0  0  0  0  0  0  0  0
   62.0845   34.7083   51.3023 H   0  0  0  0  0  0  0  0  0  0  0  0
   60.6572   33.7032   49.4345 H   0  0  0  0  0  0  0  0  0  0  0  0
   61.4275   35.0599   48.4801 H   0  0  0  0  0  0  0  0  0  0  0  0
   57.2656   30.3118   45.9430 H   0  0  0  0  0  0  0  0  0  0  0  0
   56.1152   28.7835   44.3451 H   0  0  0  0  0  0  0  0  0  0  0  0
  1  2  2  0
  2  3  1  0
  3  4  2  0
  4  5  1  0
  5  6  2  0
  6  7  1  0
  7  8  1  0
  8  9  1  0
  9 10  1  0
 10 11  1  0
 11 12  1  0
 12 13  2  0
 13 14  1  0
 14 15  2  0
 15 16  1  0
 16 17  2  0
 17 18  1  0
  8 19  2  0
  4 20  1  0
 20 21  2  0
 21  1  1  0
 19  5  1  0
 18  9  1  0
 17 12  1  0
  1 22  1  0
  2 23  1  0
  3 24  1  0
  6 25  1  0
 10 26  1  0
 10 27  1  0
 11 28  1  0
 11 29  1  0
 13 30  1  0
 14 31  1  0
 15 32  1  0
 16 33  1  0
 18 34  1  0
 18 35  1  0
 20 36  1  0
 21 37  1  0
M  END
>  <UniqueID>  (53) 
47

>  <SMILES>  (53) 
c1ccc(-c2csc(N3CCc4ccccc4C3)n2)cc1

>  <Energy>  (53) 
75.32404180782626

>  <Genealogy>  (53) 
c1ccc(-c2csc(N3CCc4ccccc4C3)n2)cc1 (3D coordinates assigned)
c1ccc(-c2csc(N3CCc4ccccc4C3)n2)cc1 (nonaromatic ring conformer: 75.32404180782626 kcal/mol)

>  <smiles>  (53) 
c1ccc(-c2csc(N3CCc4ccccc4C3)n2)cc1

>  <score_type>  (53) 
oracle

>  <origin>  (53) 
adg

>  <m_score__min__energy>  (53) 
-7.8499999999999996

>  <m_primary>  (53) 
energy

$$$$
53:0
     RDKit          3D

 38 40  0  0  0  0  0  0  0  0999 V2000
   54.5124   29.4609   44.0328 H   0  0  0  0  0  0  0  0  0  0  0  0
   55.5180   29.6490   44.4370 C   0  0  0  0  0  0  0  0  0  0  0  0
   56.1190   28.7130   45.2140 N   0  0  0  0  0  0  0  0  0  0  0  0
   57.3590   28.9050   45.7380 C   0  0  0  0  0  0  0  0  0  0  0  0
   57.9380   27.9060   46.5290 C   0  0  0  0  0  0  0  0  0  0  0  0
   57.3879   26.9739   46.7255 H   0  0  0  0  0  0  0  0  0  0  0  0
   59.2140   28.0900   47.0700 C   0  0  0  0  0  0  0  0  0  0  0  0
   59.9380   26.8340   48.0560 Cl  0  0  0  0  0  0  0  0  0  0  0  0
   59.9130   29.2760   46.8260 C   0  0  0  0  0  0  0  0  0  0  0  0
   60.9168   29.4178   47.2530 H   0  0  0  0  0  0  0  0  0  0  0  0
   59.3420   30.2820   46.0420 C   0  0  0  0  0  0  0  0  0  0  0  0
   59.8959   31.2149   45.8608 H   0  0  0  0  0  0  0  0  0  0  0  0
   58.0600   30.1080   45.4820 C   0  0  0  0  0  0  0  0  0  0  0  0
   57.4570   31.0930   44.6670 C   0  0  0  0  0  0  0  0  0  0  0  0
   58.1060   32.1930   44.4020 N   0  0  0  0  0  0  0  0  0  0  0  0
   57.6530   33.5610   44.6430 C   0  0  0  0  0  0  0  0  0  0  0  0
   56.8049   33.5460   45.3434 H   0  0  0  0  0  0  0  0  0  0  0  0
   57.3408   34.0116   43.6894 H   0  0  0  0  0  0  0  0  0  0  0  0
   58.7960   34.3940   45.2450 C   0  0  0  0  0  0  0  0  0  0  0  0
   58.4225   34.9028   46.1459 H   0  0  0  0  0  0  0  0  0  0  0  0
   59.1230   35.1095   44.4762 H   0  0  0  0  0  0  0  0  0  0  0  0
   59.9680   33.5780   45.6170 N   0  0  0  0  0  0  0  0  0  0  0  0
   59.8440   32.6030   45.2550 H   0  0  0  0  0  0  0  0  0  0  0  0
   60.8130   33.9620   45.1350 H   0  0  0  0  0  0  0  0  0  0  0  0
   60.2000   33.5640   47.0480 C   0  0  0  0  0  0  0  0  0  0  0  0
   59.1080   33.4320   47.9280 C   0  0  0  0  0  0  0  0  0  0  0  0
   58.0922   33.3175   47.5218 H   0  0  0  0  0  0  0  0  0  0  0  0
   59.3020   33.4450   49.3100 C   0  0  0  0  0  0  0  0  0  0  0  0
   58.4399   33.3461   49.9860 H   0  0  0  0  0  0  0  0  0  0  0  0
   60.5860   33.5830   49.8360 C   0  0  0  0  0  0  0  0  0  0  0  0
   60.7343   33.5950   50.9259 H   0  0  0  0  0  0  0  0  0  0  0  0
   61.6840   33.7060   48.9820 C   0  0  0  0  0  0  0  0  0  0  0  0
   62.9260   33.8390   49.5150 F   0  0  0  0  0  0  0  0  0  0  0  0
   61.5030   33.6980   47.5890 C   0  0  0  0  0  0  0  0  0  0  0  0
   62.6590   33.8230   46.7340 C   0  0  0  0  0  0  0  0  0  0  0  0
   63.5860   33.9220   46.0480 N   0  0  0  0  0  0  0  0  0  0  0  0
   56.1690   30.8490   44.1480 C   0  0  0  0  0  0  0  0  0  0  0  0
   55.6779   31.6036   43.5161 H   0  0  0  0  0  0  0  0  0  0  0  0
  1  2  1  0
  2  3  1  0
  3  4  1  0
  4  5  2  0
  5  6  1  0
  5  7  1  0
  7  8  1  0
  7  9  2  0
  9 10  1  0
  9 11  1  0
 11 12  1  0
 11 13  2  0
 13 14  1  0
 14 15  2  0
 15 16  1  0
 16 17  1  0
 16 18  1  0
 16 19  1  0
 19 20  1  0
 19 21  1  0
 19 22  1  0
 22 23  1  0
 22 24  1  0
 22 25  1  0
 25 26  2  0
 26 27  1  0
 26 28  1  0
 28 29  1  0
 28 30  2  0
 30 31  1  0
 30 32  1  0
 32 33  1  0
 32 34  2  0
 34 35  1  0
 35 36  3  0
 14 37  1  0
 37 38  1  0
 37  2  2  0
 13  4  1  0
 34 25  1  0
M  CHG  2   3  -1  22   1
M  END
>  <UniqueID>  (54) 
48

>  <SMILES>  (54) 
N#Cc1c(F)cccc1[NH2+]CC/N=c1\cc[n-]c2cc(Cl)ccc12

>  <Energy>  (54) 
45.2141232728641

>  <Genealogy>  (54) 
N#Cc1c(F)cccc1[NH2+]CCN=c1cc[n-]c2cc(Cl)ccc12 (protonated)
N#Cc1c(F)cccc1[NH2+]CC/N=c1\cc[n-]c2cc(Cl)ccc12 (cis-trans isomerization)
N#Cc1c(F)cccc1[NH2+]CC/N=c1\cc[n-]c2cc(Cl)ccc12 (3D coordinates assigned)
N#Cc1c(F)cccc1[NH2+]CC/N=c1\cc[n-]c2cc(Cl)ccc12 (optimized conformer: 45.2141232728641 kcal/mol)

>  <smiles>  (54) 
N#Cc1c(F)cccc1NCCN=c1cc[nH]c2cc(Cl)ccc12

>  <score_type>  (54) 
oracle

>  <origin>  (54) 
adg

>  <m_score__min__energy>  (54) 
-7.2999999999999998

>  <m_primary>  (54) 
energy

$$$$
54:0
     RDKit          3D

 34 37  0  0  0  0  0  0  0  0999 V2000
   66.2540   31.5830   51.5470 C   0  0  0  0  0  0  0  0  0  0  0  0
   65.0170   30.9480   51.4240 C   0  0  0  0  0  0  0  0  0  0  0  0
   64.0940   31.3830   50.4690 C   0  0  0  0  0  0  0  0  0  0  0  0
   64.4000   32.4660   49.6220 C   0  0  0  0  0  0  0  0  0  0  0  0
   63.4290   32.9370   48.6010 C   0  0  0  0  0  0  0  0  0  0  0  0
   63.6820   33.0130   47.2710 N   0  0  0  0  0  0  0  0  0  0  0  0
   62.6590   33.4670   46.5470 N   0  0  0  0  0  0  0  0  0  0  0  0
   61.5740   33.7590   47.2950 C   0  0  0  0  0  0  0  0  0  0  0  0
   60.0460   34.3970   46.6190 S   0  0  0  0  0  0  0  0  0  0  0  0
   59.3210   32.7540   46.4850 C   0  0  0  0  0  0  0  0  0  0  0  0
   59.4170   31.8940   47.5840 C   0  0  0  0  0  0  0  0  0  0  0  0
   58.8960   30.6420   47.5290 N   0  0  0  0  0  0  0  0  0  0  0  0
   58.2650   30.1750   46.4210 C   0  0  0  0  0  0  0  0  0  0  0  0
   58.1300   30.9920   45.2920 C   0  0  0  0  0  0  0  0  0  0  0  0
   57.4780   30.5190   44.1430 C   0  0  0  0  0  0  0  0  0  0  0  0
   57.3490   31.3410   43.0220 C   0  0  0  0  0  0  0  0  0  0  0  0
   57.8650   32.6380   43.0400 C   0  0  0  0  0  0  0  0  0  0  0  0
   58.5160   33.1220   44.1780 C   0  0  0  0  0  0  0  0  0  0  0  0
   58.6620   32.3060   45.3180 C   0  0  0  0  0  0  0  0  0  0  0  0
   61.8520   33.4500   48.9240 S   0  0  0  0  0  0  0  0  0  0  0  0
   65.6540   33.0930   49.7510 C   0  0  0  0  0  0  0  0  0  0  0  0
   66.5720   32.6540   50.7100 C   0  0  0  0  0  0  0  0  0  0  0  0
   66.9768   31.2401   52.3020 H   0  0  0  0  0  0  0  0  0  0  0  0
   64.7677   30.1019   52.0813 H   0  0  0  0  0  0  0  0  0  0  0  0
   63.1220   30.8762   50.3782 H   0  0  0  0  0  0  0  0  0  0  0  0
   64.5780   32.7290   46.8200 H   0  0  0  0  0  0  0  0  0  0  0  0
   59.9193   32.2355   48.5011 H   0  0  0  0  0  0  0  0  0  0  0  0
   57.8591   29.1527   46.4104 H   0  0  0  0  0  0  0  0  0  0  0  0
   57.0677   29.4985   44.1255 H   0  0  0  0  0  0  0  0  0  0  0  0
   56.8395   30.9657   42.1223 H   0  0  0  0  0  0  0  0  0  0  0  0
   57.7587   33.2819   42.1545 H   0  0  0  0  0  0  0  0  0  0  0  0
   58.9170   34.1463   44.1841 H   0  0  0  0  0  0  0  0  0  0  0  0
   65.9136   33.9348   49.0922 H   0  0  0  0  0  0  0  0  0  0  0  0
   67.5472   33.1538   50.8051 H   0  0  0  0  0  0  0  0  0  0  0  0
  1  2  2  0
  2  3  1  0
  3  4  2  0
  4  5  1  0
  5  6  2  0
  6  7  1  0
  7  8  2  0
  8  9  1  0
  9 10  1  0
 10 11  2  0
 11 12  1  0
 12 13  2  0
 13 14  1  0
 14 15  2  0
 15 16  1  0
 16 17  2  0
 17 18  1  0
 18 19  2  0
  8 20  1  0
  4 21  1  0
 21 22  2  0
 22  1  1  0
 20  5  1  0
 19 10  1  0
 19 14  1  0
  1 23  1  0
  2 24  1  0
  3 25  1  0
  6 26  1  0
 11 27  1  0
 13 28  1  0
 15 29  1  0
 16 30  1  0
 17 31  1  0
 18 32  1  0
 21 33  1  0
 22 34  1  0
M  CHG  1   6   1
M  END
>  <UniqueID>  (55) 
49

>  <SMILES>  (55) 
c1ccc(-c2[nH+]nc(Sc3cncc4ccccc34)s2)cc1

>  <Energy>  (55) 
75.875743595816

>  <Genealogy>  (55) 
c1ccc(-c2[nH+]nc(Sc3cncc4ccccc34)s2)cc1 (protonated)
c1ccc(-c2[nH+]nc(Sc3cncc4ccccc34)s2)cc1 (3D coordinates assigned)
c1ccc(-c2[nH+]nc(Sc3cncc4ccccc34)s2)cc1 (optimized conformer: 75.875743595816 kcal/mol)

>  <smiles>  (55) 
c1ccc(-c2nnc(Sc3cncc4ccccc34)s2)cc1

>  <score_type>  (55) 
oracle

>  <origin>  (55) 
adg

>  <m_score__min__energy>  (55) 
-7.1699999999999999

>  <m_primary>  (55) 
energy

$$$$
55:0
     RDKit          3D

 44 47  0  0  1  0  0  0  0  0999 V2000
   56.1230   24.4940   45.5040 O   0  0  0  0  0  0  0  0  0  0  0  0
   56.0500   25.7220   45.8160 C   0  0  0  0  0  0  0  0  0  0  0  0
   54.7740   26.2670   45.8290 O   0  0  0  0  0  0  0  0  0  0  0  0
   57.2420   26.4990   46.1380 C   0  0  0  0  0  0  0  0  0  0  0  0
   58.4830   25.9060   46.3350 C   0  0  0  0  0  0  0  0  0  0  0  0
   59.6050   26.6490   46.6380 C   0  0  0  0  0  0  0  0  0  0  0  0
   59.5090   28.0350   46.7560 C   0  0  0  0  0  0  0  0  0  0  0  0
   58.2650   28.6470   46.5600 C   0  0  0  0  0  0  0  0  0  0  0  0
   60.0190   34.0390   46.4780 N   0  0  0  0  0  0  0  0  0  0  0  0
   59.3310   33.0980   45.9240 C   0  0  0  0  0  0  0  0  0  0  0  0
   59.0400   31.9790   46.5930 N   0  0  0  0  0  0  0  0  0  0  0  0
   58.3190   30.9470   46.0660 C   0  0  0  0  0  0  0  0  0  0  0  0
   58.1130   29.9700   46.7740 N   0  0  0  0  0  0  0  0  0  0  0  0
   61.3010   33.8130   47.0520 C   0  0  0  0  0  0  0  0  0  0  0  0
   62.4710   33.8210   46.3190 C   0  0  0  0  0  0  0  0  0  0  0  0
   63.6800   33.5880   46.9790 C   0  0  0  0  0  0  0  0  0  0  0  0
   63.7060   33.3530   48.3500 C   0  0  0  0  0  0  0  0  0  0  0  0
   64.8810   33.1180   49.0460 O   0  0  0  0  0  0  0  0  0  0  0  0
   62.5270   33.3440   49.0920 C   0  0  0  0  0  0  0  0  0  0  0  0
   61.3480   33.5750   48.4290 C   0  0  0  0  0  0  0  0  0  0  0  0
   58.8970   33.2270   44.6660 N   0  0  0  0  0  0  0  0  0  0  0  0
   58.1820   32.2260   44.1190 C   0  0  0  0  0  0  0  0  0  0  0  0
   57.7630   32.4170   42.8220 C   0  0  0  0  0  0  0  0  0  0  0  0
   57.0340   31.4090   42.2470 C   0  0  0  0  0  0  0  0  0  0  0  0
   56.6960   30.2400   42.8590 C   0  0  0  0  0  0  0  0  0  0  0  0
   57.1390   30.0760   44.1850 C   0  0  0  0  0  0  0  0  0  0  0  0
   57.8680   31.0570   44.7920 C   0  0  0  0  0  0  0  0  0  0  0  0
   57.1320   27.8560   46.2500 C   0  0  0  0  0  0  0  0  0  0  0  0
   54.0070   25.8790   46.3790 H   0  0  0  0  0  0  0  0  0  0  0  0
   58.5733   24.8133   46.2469 H   0  0  0  0  0  0  0  0  0  0  0  0
   60.5735   26.1491   46.7862 H   0  0  0  0  0  0  0  0  0  0  0  0
   60.3963   28.6379   46.9992 H   0  0  0  0  0  0  0  0  0  0  0  0
   59.4000   31.9200   47.5730 H   0  0  0  0  0  0  0  0  0  0  0  0
   62.4515   34.0074   45.2351 H   0  0  0  0  0  0  0  0  0  0  0  0
   64.6208   33.5904   46.4090 H   0  0  0  0  0  0  0  0  0  0  0  0
   65.7930   33.0620   48.6190 H   0  0  0  0  0  0  0  0  0  0  0  0
   62.5407   33.1575   50.1760 H   0  0  0  0  0  0  0  0  0  0  0  0
   60.4080   33.5729   49.0002 H   0  0  0  0  0  0  0  0  0  0  0  0
   59.1150   34.0810   44.1460 H   0  0  0  0  0  0  0  0  0  0  0  0
   58.0028   33.3384   42.2710 H   0  0  0  0  0  0  0  0  0  0  0  0
   56.6955   31.5554   41.2107 H   0  0  0  0  0  0  0  0  0  0  0  0
   56.1083   29.4655   42.3445 H   0  0  0  0  0  0  0  0  0  0  0  0
   56.8967   29.1540   44.7338 H   0  0  0  0  0  0  0  0  0  0  0  0
   56.1551   28.3384   46.0981 H   0  0  0  0  0  0  0  0  0  0  0  0
  1  2  2  0
  2  3  1  0
  2  4  1  0
  4  5  2  0
  5  6  1  0
  6  7  2  0
  7  8  1  0
  8  9  1  0
  9 10  2  0
 10 11  1  0
 11 12  1  0
 12 13  2  0
 13 14  1  0
 14 15  2  0
 15 16  1  0
 16 17  2  0
 17 18  1  0
 17 19  1  0
 19 20  2  0
 12 21  1  0
 21 22  1  0
 22 23  2  0
 23 24  1  0
 24 25  2  0
 25 26  1  0
 26 27  2  0
  8 28  2  0
 28  4  1  0
 27 10  1  0
 20 14  1  0
 27 22  1  0
  3 29  1  0
  5 30  1  0
  6 31  1  0
  7 32  1  0
 11 33  1  0
 15 34  1  0
 16 35  1  0
 18 36  1  0
 19 37  1  0
 20 38  1  0
 21 39  1  0
 23 40  1  0
 24 41  1  0
 25 42  1  0
 26 43  1  0
 28 44  1  0
M  END
>  <smiles>  (56) 
O=C(O)c1cccc(N=c2[nH]c(=Nc3ccc(O)cc3)[nH]c3ccccc23)c1

>  <score_type>  (56) 
oracle

>  <origin>  (56) 
adg

>  <m_score__min__energy>  (56) 
-9.4000000000000004

>  <m_primary>  (56) 
energy

$$$$
56:0
     RDKit          3D

 44 48  0  0  0  0  0  0  0  0999 V2000
   60.4810   27.7590   49.4530 O   0  0  0  0  0  0  0  0  0  0  0  0
   60.1910   28.6160   48.5760 C   0  0  0  0  0  0  0  0  0  0  0  0
   60.4140   28.2870   47.1980 N   0  0  0  0  0  0  0  0  0  0  0  0
   59.4510   28.4180   46.1450 C   0  0  0  0  0  0  0  0  0  0  0  0
   59.5240   29.5380   45.3070 C   0  0  0  0  0  0  0  0  0  0  0  0
   58.6060   29.7040   44.2670 C   0  0  0  0  0  0  0  0  0  0  0  0
   57.5950   28.7620   44.0680 C   0  0  0  0  0  0  0  0  0  0  0  0
   57.4910   27.6590   44.9180 C   0  0  0  0  0  0  0  0  0  0  0  0
   58.4030   27.4840   45.9680 C   0  0  0  0  0  0  0  0  0  0  0  0
   58.1550   26.1050   47.0950 S   0  0  0  0  0  0  0  0  0  0  0  0
   56.6090   25.6410   46.3260 C   0  0  0  0  0  0  0  0  0  0  0  0
   56.4330   24.5000   45.6350 N   0  0  0  0  0  0  0  0  0  0  0  0
   55.1430   24.6030   45.2600 C   0  0  0  0  0  0  0  0  0  0  0  0
   54.5720   25.7400   45.7000 N   0  0  0  0  0  0  0  0  0  0  0  0
   55.4980   26.3960   46.3760 N   0  0  0  0  0  0  0  0  0  0  0  0
   59.6050   29.9140   48.9820 C   0  0  0  0  0  0  0  0  0  0  0  0
   59.0350   30.0170   50.1030 O   0  0  0  0  0  0  0  0  0  0  0  0
   59.7340   31.1130   48.1220 C   0  0  0  0  0  0  0  0  0  0  0  0
   58.6100   31.5790   47.5250 N   0  0  0  0  0  0  0  0  0  0  0  0
   58.6040   32.6360   46.6800 C   0  0  0  0  0  0  0  0  0  0  0  0
   57.3890   33.0400   46.1120 C   0  0  0  0  0  0  0  0  0  0  0  0
   57.3490   34.1190   45.2320 C   0  0  0  0  0  0  0  0  0  0  0  0
   58.5220   34.7990   44.9110 C   0  0  0  0  0  0  0  0  0  0  0  0
   59.7420   34.4070   45.4700 C   0  0  0  0  0  0  0  0  0  0  0  0
   59.8090   33.3140   46.3680 C   0  0  0  0  0  0  0  0  0  0  0  0
   61.0160   32.8670   46.9820 C   0  0  0  0  0  0  0  0  0  0  0  0
   62.2650   33.4910   46.7440 C   0  0  0  0  0  0  0  0  0  0  0  0
   63.4220   33.0500   47.3850 C   0  0  0  0  0  0  0  0  0  0  0  0
   63.3670   31.9900   48.2800 C   0  0  0  0  0  0  0  0  0  0  0  0
   62.1570   31.3490   48.5320 C   0  0  0  0  0  0  0  0  0  0  0  0
   60.9720   31.7570   47.8790 C   0  0  0  0  0  0  0  0  0  0  0  0
   60.3089   30.2915   45.4687 H   0  0  0  0  0  0  0  0  0  0  0  0
   58.6799   30.5785   43.6038 H   0  0  0  0  0  0  0  0  0  0  0  0
   56.8802   28.8887   43.2415 H   0  0  0  0  0  0  0  0  0  0  0  0
   56.6885   26.9229   44.7626 H   0  0  0  0  0  0  0  0  0  0  0  0
   54.6163   23.8444   44.6624 H   0  0  0  0  0  0  0  0  0  0  0  0
   56.4623   32.5027   46.3620 H   0  0  0  0  0  0  0  0  0  0  0  0
   56.3919   34.4341   44.7907 H   0  0  0  0  0  0  0  0  0  0  0  0
   58.4880   35.6491   44.2138 H   0  0  0  0  0  0  0  0  0  0  0  0
   60.6602   34.9537   45.2094 H   0  0  0  0  0  0  0  0  0  0  0  0
   62.3231   34.3365   46.0427 H   0  0  0  0  0  0  0  0  0  0  0  0
   64.3832   33.5444   47.1806 H   0  0  0  0  0  0  0  0  0  0  0  0
   64.2818   31.6557   48.7913 H   0  0  0  0  0  0  0  0  0  0  0  0
   62.1230   30.5148   49.2482 H   0  0  0  0  0  0  0  0  0  0  0  0
  1  2  2  0
  2  3  1  0
  3  4  1  0
  4  5  2  0
  5  6  1  0
  6  7  2  0
  7  8  1  0
  8  9  2  0
  9 10  1  0
 10 11  1  0
 11 12  1  0
 12 13  2  0
 13 14  1  0
 14 15  1  0
  2 16  1  0
 16 17  2  0
 16 18  1  0
 18 19  2  0
 19 20  1  0
 20 21  2  0
 21 22  1  0
 22 23  2  0
 23 24  1  0
 24 25  2  0
 25 26  1  0
 26 27  2  0
 27 28  1  0
 28 29  2  0
 29 30  1  0
 30 31  2  0
  9  4  1  0
 15 11  2  0
 31 18  1  0
 25 20  1  0
 31 26  1  0
  5 32  1  0
  6 33  1  0
  7 34  1  0
  8 35  1  0
 13 36  1  0
 21 37  1  0
 22 38  1  0
 23 39  1  0
 24 40  1  0
 27 41  1  0
 28 42  1  0
 29 43  1  0
 30 44  1  0
M  CHG  2   3  -1  14  -1
M  END
>  <UniqueID>  (57) 
50

>  <SMILES>  (57) 
O=C([N-]c1ccccc1Sc1nc[n-]n1)C(=O)c1nc2ccccc2c2ccccc12

>  <Energy>  (57) 
104.33870495127955

>  <Genealogy>  (57) 
O=C([N-]c1ccccc1Sc1nc[n-]n1)C(=O)c1nc2ccccc2c2ccccc12 (protonated)
O=C([N-]c1ccccc1Sc1nc[n-]n1)C(=O)c1nc2ccccc2c2ccccc12 (3D coordinates assigned)
O=C([N-]c1ccccc1Sc1nc[n-]n1)C(=O)c1nc2ccccc2c2ccccc12 (optimized conformer: 104.33870495127955 kcal/mol)

>  <smiles>  (57) 
O=C(Nc1ccccc1Sc1nc[nH]n1)C(=O)c1nc2ccccc2c2ccccc12

>  <score_type>  (57) 
oracle

>  <origin>  (57) 
adg

>  <m_score__min__energy>  (57) 
-13.15

>  <m_primary>  (57) 
energy

$$$$
57:0
     RDKit          3D

 57 60  0  0  0  0  0  0  0  0999 V2000
   58.8570   32.8050   47.7110 O   0  0  0  0  0  0  0  0  0  0  0  0
   59.1210   33.6350   46.8030 C   0  0  0  0  0  0  0  0  0  0  0  0
   58.1790   33.8230   45.7380 N   0  0  0  0  0  0  0  0  0  0  0  0
   57.8610   32.8560   44.7270 C   0  0  0  0  0  0  0  0  0  0  0  0
   58.1360   33.0920   43.3680 C   0  0  0  0  0  0  0  0  0  0  0  0
   57.8100   32.1310   42.4070 C   0  0  0  0  0  0  0  0  0  0  0  0
   57.2300   30.9200   42.7940 C   0  0  0  0  0  0  0  0  0  0  0  0
   56.9980   30.6490   44.1520 C   0  0  0  0  0  0  0  0  0  0  0  0
   56.3780   29.3750   44.5660 C   0  0  0  0  0  0  0  0  0  0  0  0
   55.1530   29.3580   44.8630 O   0  0  0  0  0  0  0  0  0  0  0  0
   57.1230   28.1510   44.6440 N   0  0  0  0  0  0  0  0  0  0  0  0
   58.5790   28.0420   44.5770 C   0  0  0  0  0  0  0  0  0  0  0  0
   59.2050   28.7010   45.7770 C   0  0  0  0  0  0  0  0  0  0  0  0
   58.7590   28.3810   47.0690 C   0  0  0  0  0  0  0  0  0  0  0  0
   59.3270   28.9990   48.1880 C   0  0  0  0  0  0  0  0  0  0  0  0
   60.3320   29.9700   48.0310 C   0  0  0  0  0  0  0  0  0  0  0  0
   60.9980   30.5950   49.2310 C   0  0  0  0  0  0  0  0  0  0  0  0
   62.2400   31.0720   48.8590 F   0  0  0  0  0  0  0  0  0  0  0  0
   60.2330   31.6480   49.7100 F   0  0  0  0  0  0  0  0  0  0  0  0
   61.1560   29.6730   50.2520 F   0  0  0  0  0  0  0  0  0  0  0  0
   60.7810   30.2840   46.7350 C   0  0  0  0  0  0  0  0  0  0  0  0
   60.2170   29.6610   45.6170 C   0  0  0  0  0  0  0  0  0  0  0  0
   57.3090   31.6270   45.1130 C   0  0  0  0  0  0  0  0  0  0  0  0
   60.3010   34.4480   46.8900 N   0  0  0  0  0  0  0  0  0  0  0  0
   61.5170   34.0440   47.5460 C   0  0  0  0  0  0  0  0  0  0  0  0
   61.6480   34.2380   48.9290 C   0  0  0  0  0  0  0  0  0  0  0  0
   62.8380   33.9060   49.5840 C   0  0  0  0  0  0  0  0  0  0  0  0
   63.9180   33.3700   48.8620 C   0  0  0  0  0  0  0  0  0  0  0  0
   65.1430   33.0540   49.4690 O   0  0  0  0  0  0  0  0  0  0  0  0
   65.4060   31.9190   50.2530 C   0  0  0  0  0  0  0  0  0  0  0  0
   66.7170   31.4930   50.5380 C   0  0  0  0  0  0  0  0  0  0  0  0
   66.9310   30.3640   51.3380 C   0  0  0  0  0  0  0  0  0  0  0  0
   65.8440   29.6610   51.8660 C   0  0  0  0  0  0  0  0  0  0  0  0
   64.5390   30.0910   51.6030 C   0  0  0  0  0  0  0  0  0  0  0  0
   64.3230   31.2210   50.8040 C   0  0  0  0  0  0  0  0  0  0  0  0
   63.7980   33.2010   47.4790 C   0  0  0  0  0  0  0  0  0  0  0  0
   62.6110   33.5380   46.8210 C   0  0  0  0  0  0  0  0  0  0  0  0
   58.6093   34.0362   43.0605 H   0  0  0  0  0  0  0  0  0  0  0  0
   58.0104   32.3284   41.3436 H   0  0  0  0  0  0  0  0  0  0  0  0
   56.9542   30.1763   42.0319 H   0  0  0  0  0  0  0  0  0  0  0  0
   58.8633   26.9796   44.5562 H   0  0  0  0  0  0  0  0  0  0  0  0
   58.9351   28.5438   43.6652 H   0  0  0  0  0  0  0  0  0  0  0  0
   57.9576   27.6394   47.2023 H   0  0  0  0  0  0  0  0  0  0  0  0
   58.9855   28.7238   49.1968 H   0  0  0  0  0  0  0  0  0  0  0  0
   61.5822   31.0256   46.6000 H   0  0  0  0  0  0  0  0  0  0  0  0
   60.5677   29.9242   44.6082 H   0  0  0  0  0  0  0  0  0  0  0  0
   57.1174   31.4258   46.1773 H   0  0  0  0  0  0  0  0  0  0  0  0
   60.2650   35.4000   46.4600 H   0  0  0  0  0  0  0  0  0  0  0  0
   60.8075   34.6549   49.5032 H   0  0  0  0  0  0  0  0  0  0  0  0
   62.9291   34.0650   50.6686 H   0  0  0  0  0  0  0  0  0  0  0  0
   67.5751   32.0482   50.1314 H   0  0  0  0  0  0  0  0  0  0  0  0
   67.9569   30.0293   51.5516 H   0  0  0  0  0  0  0  0  0  0  0  0
   66.0148   28.7700   52.4881 H   0  0  0  0  0  0  0  0  0  0  0  0
   63.6833   29.5422   52.0233 H   0  0  0  0  0  0  0  0  0  0  0  0
   63.2961   31.5629   50.6077 H   0  0  0  0  0  0  0  0  0  0  0  0
   64.6450   32.7993   46.9035 H   0  0  0  0  0  0  0  0  0  0  0  0
   62.5325   33.4068   45.7317 H   0  0  0  0  0  0  0  0  0  0  0  0
  1  2  2  0
  2  3  1  0
  3  4  1  0
  4  5  2  0
  5  6  1  0
  6  7  2  0
  7  8  1  0
  8  9  1  0
  9 10  2  0
  9 11  1  0
 11 12  1  0
 12 13  1  0
 13 14  2  0
 14 15  1  0
 15 16  2  0
 16 17  1  0
 17 18  1  0
 17 19  1  0
 17 20  1  0
 16 21  1  0
 21 22  2  0
  8 23  2  0
  2 24  1  0
 24 25  1  0
 25 26  2  0
 26 27  1  0
 27 28  2  0
 28 29  1  0
 29 30  1  0
 30 31  2  0
 31 32  1  0
 32 33  2  0
 33 34  1  0
 34 35  2  0
 28 36  1  0
 36 37  2  0
 23  4  1  0
 37 25  1  0
 22 13  1  0
 35 30  1  0
  5 38  1  0
  6 39  1  0
  7 40  1  0
 12 41  1  0
 12 42  1  0
 14 43  1  0
 15 44  1  0
 21 45  1  0
 22 46  1  0
 23 47  1  0
 24 48  1  0
 26 49  1  0
 27 50  1  0
 31 51  1  0
 32 52  1  0
 33 53  1  0
 34 54  1  0
 35 55  1  0
 36 56  1  0
 37 57  1  0
M  CHG  2   3  -1  11  -1
M  END
>  <UniqueID>  (58) 
51

>  <SMILES>  (58) 
O=C([N-]c1cccc(C(=O)[N-]Cc2ccc(C(F)(F)F)cc2)c1)Nc1ccc(Oc2ccccc2)cc1

>  <Energy>  (58) 
78.66157482900371

>  <Genealogy>  (58) 
O=C([N-]c1cccc(C(=O)[N-]Cc2ccc(C(F)(F)F)cc2)c1)Nc1ccc(Oc2ccccc2)cc1 (protonated)
O=C([N-]c1cccc(C(=O)[N-]Cc2ccc(C(F)(F)F)cc2)c1)Nc1ccc(Oc2ccccc2)cc1 (3D coordinates assigned)
O=C([N-]c1cccc(C(=O)[N-]Cc2ccc(C(F)(F)F)cc2)c1)Nc1ccc(Oc2ccccc2)cc1 (optimized conformer: 78.66157482900371 kcal/mol)

>  <smiles>  (58) 
O=C(Nc1ccc(Oc2ccccc2)cc1)Nc1cccc(C(=O)NCc2ccc(C(F)(F)F)cc2)c1

>  <score_type>  (58) 
oracle

>  <origin>  (58) 
adg

>  <m_score__min__energy>  (58) 
-11.94

>  <m_primary>  (58) 
energy

$$$$
58:0
     RDKit          3D

 61 64  0  0  0  0  0  0  0  0999 V2000
   63.4810   33.4900   46.4170 C   0  0  0  0  0  0  0  0  0  0  0  0
   62.7920   33.1360   48.0220 S   0  0  0  0  0  0  0  0  0  0  0  0
   62.9530   34.3330   48.9180 O   0  0  0  0  0  0  0  0  0  0  0  0
   63.5370   31.9800   48.6290 O   0  0  0  0  0  0  0  0  0  0  0  0
   61.1050   32.7390   47.8880 N   0  0  0  0  0  0  0  0  0  0  0  0
   60.0870   33.7280   48.2580 C   0  0  0  0  0  0  0  0  0  0  0  0
   59.1400   33.9620   47.1110 C   0  0  0  0  0  0  0  0  0  0  0  0
   57.8640   33.3690   47.1170 C   0  0  0  0  0  0  0  0  0  0  0  0
   57.0240   33.4950   46.0060 C   0  0  0  0  0  0  0  0  0  0  0  0
   57.4490   34.2110   44.8850 C   0  0  0  0  0  0  0  0  0  0  0  0
   58.7140   34.8060   44.8720 C   0  0  0  0  0  0  0  0  0  0  0  0
   59.5570   34.6830   45.9810 C   0  0  0  0  0  0  0  0  0  0  0  0
   60.7260   31.3760   47.6510 C   0  0  0  0  0  0  0  0  0  0  0  0
   60.3220   30.9950   46.3630 C   0  0  0  0  0  0  0  0  0  0  0  0
   59.9750   29.6700   46.0940 C   0  0  0  0  0  0  0  0  0  0  0  0
   60.0370   28.7120   47.1060 C   0  0  0  0  0  0  0  0  0  0  0  0
   60.4410   29.0760   48.3920 C   0  0  0  0  0  0  0  0  0  0  0  0
   60.7840   30.4080   48.6810 C   0  0  0  0  0  0  0  0  0  0  0  0
   61.2230   30.7620   50.0860 C   0  0  0  0  0  0  0  0  0  0  0  0
   60.2940   31.6960   50.8490 C   0  0  0  0  0  0  0  0  0  0  0  0
   58.9450   31.3430   51.0830 C   0  0  0  0  0  0  0  0  0  0  0  0
   58.0810   32.2100   51.7500 C   0  0  0  0  0  0  0  0  0  0  0  0
   58.5340   33.4520   52.1850 C   0  0  0  0  0  0  0  0  0  0  0  0
   59.8520   33.8340   51.9500 C   0  0  0  0  0  0  0  0  0  0  0  0
   60.7490   32.9770   51.2810 C   0  0  0  0  0  0  0  0  0  0  0  0
   62.1030   33.4450   51.0460 N   0  0  0  0  0  0  0  0  0  0  0  0
   63.0090   33.0790   52.1500 C   0  0  0  0  0  0  0  0  0  0  0  0
   64.3330   32.5690   51.6420 C   0  0  0  0  0  0  0  0  0  0  0  0
   65.2240   33.4340   50.9890 C   0  0  0  0  0  0  0  0  0  0  0  0
   66.4150   32.9380   50.4560 C   0  0  0  0  0  0  0  0  0  0  0  0
   66.7050   31.5780   50.5800 C   0  0  0  0  0  0  0  0  0  0  0  0
   65.8330   30.7500   51.2140 N   0  0  0  0  0  0  0  0  0  0  0  0
   64.6640   31.2090   51.7390 C   0  0  0  0  0  0  0  0  0  0  0  0
   64.4535   33.9897   46.5376 H   0  0  0  0  0  0  0  0  0  0  0  0
   63.6178   32.5505   45.8614 H   0  0  0  0  0  0  0  0  0  0  0  0
   62.7969   34.1483   45.8614 H   0  0  0  0  0  0  0  0  0  0  0  0
   59.5209   33.3580   49.1255 H   0  0  0  0  0  0  0  0  0  0  0  0
   60.5854   34.6762   48.5079 H   0  0  0  0  0  0  0  0  0  0  0  0
   57.5260   32.8044   47.9985 H   0  0  0  0  0  0  0  0  0  0  0  0
   56.0274   33.0296   46.0152 H   0  0  0  0  0  0  0  0  0  0  0  0
   56.7877   34.3070   44.0112 H   0  0  0  0  0  0  0  0  0  0  0  0
   59.0465   35.3713   43.9889 H   0  0  0  0  0  0  0  0  0  0  0  0
   60.5513   35.1533   45.9678 H   0  0  0  0  0  0  0  0  0  0  0  0
   60.2783   31.7452   45.5597 H   0  0  0  0  0  0  0  0  0  0  0  0
   59.6523   29.3810   45.0829 H   0  0  0  0  0  0  0  0  0  0  0  0
   59.7671   27.6676   46.8905 H   0  0  0  0  0  0  0  0  0  0  0  0
   60.4912   28.3149   49.1846 H   0  0  0  0  0  0  0  0  0  0  0  0
   61.3090   29.8273   50.6595 H   0  0  0  0  0  0  0  0  0  0  0  0
   62.1732   31.3054   49.9768 H   0  0  0  0  0  0  0  0  0  0  0  0
   58.5716   30.3692   50.7333 H   0  0  0  0  0  0  0  0  0  0  0  0
   57.0382   31.9117   51.9331 H   0  0  0  0  0  0  0  0  0  0  0  0
   57.8505   34.1320   52.7146 H   0  0  0  0  0  0  0  0  0  0  0  0
   60.1988   34.8203   52.2919 H   0  0  0  0  0  0  0  0  0  0  0  0
   62.0800   34.4900   50.9810 H   0  0  0  0  0  0  0  0  0  0  0  0
   62.4920   33.1160   50.1350 H   0  0  0  0  0  0  0  0  0  0  0  0
   63.1855   33.9669   52.7749 H   0  0  0  0  0  0  0  0  0  0  0  0
   62.5330   32.2751   52.7306 H   0  0  0  0  0  0  0  0  0  0  0  0
   64.9839   34.5035   50.8970 H   0  0  0  0  0  0  0  0  0  0  0  0
   67.1177   33.6116   49.9437 H   0  0  0  0  0  0  0  0  0  0  0  0
   67.6405   31.1758   50.1640 H   0  0  0  0  0  0  0  0  0  0  0  0
   63.9769   30.5117   52.2407 H   0  0  0  0  0  0  0  0  0  0  0  0
  1  2  1  0
  2  3  2  0
  2  4  2  0
  2  5  1  0
  5  6  1  0
  6  7  1  0
  7  8  2  0
  8  9  1  0
  9 10  2  0
 10 11  1  0
 11 12  2  0
  5 13  1  0
 13 14  2  0
 14 15  1  0
 15 16  2  0
 16 17  1  0
 17 18  2  0
 18 19  1  0
 19 20  1  0
 20 21  2  0
 21 22  1  0
 22 23  2  0
 23 24  1  0
 24 25  2  0
 25 26  1  0
 26 27  1  0
 27 28  1  0
 28 29  2  0
 29 30  1  0
 30 31  2  0
 31 32  1  0
 32 33  2  0
 12  7  1  0
 18 13  1  0
 25 20  1  0
 33 28  1  0
  1 34  1  0
  1 35  1  0
  1 36  1  0
  6 37  1  0
  6 38  1  0
  8 39  1  0
  9 40  1  0
 10 41  1  0
 11 42  1  0
 12 43  1  0
 14 44  1  0
 15 45  1  0
 16 46  1  0
 17 47  1  0
 19 48  1  0
 19 49  1  0
 21 50  1  0
 22 51  1  0
 23 52  1  0
 24 53  1  0
 26 54  1  0
 26 55  1  0
 27 56  1  0
 27 57  1  0
 29 58  1  0
 30 59  1  0
 31 60  1  0
 33 61  1  0
M  CHG  1  26   1
M  END
>  <UniqueID>  (59) 
52

>  <SMILES>  (59) 
CS(=O)(=O)N(Cc1ccccc1)c1ccccc1Cc1ccccc1[NH2+]Cc1cccnc1

>  <Energy>  (59) 
66.94150550180171

>  <Genealogy>  (59) 
CS(=O)(=O)N(Cc1ccccc1)c1ccccc1Cc1ccccc1[NH2+]Cc1cccnc1 (protonated)
CS(=O)(=O)N(Cc1ccccc1)c1ccccc1Cc1ccccc1[NH2+]Cc1cccnc1 (3D coordinates assigned)
CS(=O)(=O)N(Cc1ccccc1)c1ccccc1Cc1ccccc1[NH2+]Cc1cccnc1 (optimized conformer: 66.94150550180171 kcal/mol)

>  <smiles>  (59) 
CS(=O)(=O)N(Cc1ccccc1)c1ccccc1Cc1ccccc1NCc1cccnc1

>  <score_type>  (59) 
oracle

>  <origin>  (59) 
adg

>  <m_score__min__energy>  (59) 
-7.0300000000000002

>  <m_primary>  (59) 
energy

$$$$
59:0
     RDKit          3D

 43 45  0  0  0  0  0  0  0  0999 V2000
   59.2620   28.9280   49.8940 H   0  0  0  0  0  0  0  0  0  0  0  0
   58.8280   29.3430   49.0800 O   0  0  0  0  0  0  0  0  0  0  0  0
   59.1650   30.6080   48.5900 C   0  0  0  0  0  0  0  0  0  0  0  0
   58.9320   31.7140   49.4140 C   0  0  0  0  0  0  0  0  0  0  0  0
   58.5180   31.5640   50.4220 H   0  0  0  0  0  0  0  0  0  0  0  0
   59.2190   33.0050   48.9710 C   0  0  0  0  0  0  0  0  0  0  0  0
   59.0169   33.8665   49.6244 H   0  0  0  0  0  0  0  0  0  0  0  0
   59.7640   33.2080   47.6960 C   0  0  0  0  0  0  0  0  0  0  0  0
   60.0490   34.6020   47.2060 C   0  0  0  0  0  0  0  0  0  0  0  0
   59.5009   35.3238   47.8294 H   0  0  0  0  0  0  0  0  0  0  0  0
   61.1312   34.7876   47.2724 H   0  0  0  0  0  0  0  0  0  0  0  0
   58.3650   34.5440   45.3390 C   0  0  0  0  0  0  0  0  0  0  0  0
   57.6147   35.3231   45.5391 H   0  0  0  0  0  0  0  0  0  0  0  0
   59.0800   29.0580   45.6460 C   0  0  0  0  0  0  0  0  0  0  0  0
   58.8752   29.5072   44.6630 H   0  0  0  0  0  0  0  0  0  0  0  0
   58.3140   27.8490   46.0330 C   0  0  0  0  0  0  0  0  0  0  0  0
   57.0490   32.4030   45.1980 C   0  0  0  0  0  0  0  0  0  0  0  0
   56.6610   32.5777   46.2124 H   0  0  0  0  0  0  0  0  0  0  0  0
   56.6710   31.2550   44.4960 C   0  0  0  0  0  0  0  0  0  0  0  0
   55.9770   30.5350   44.9542 H   0  0  0  0  0  0  0  0  0  0  0  0
   57.1730   31.0200   43.2130 C   0  0  0  0  0  0  0  0  0  0  0  0
   56.8663   30.1212   42.6579 H   0  0  0  0  0  0  0  0  0  0  0  0
   58.0650   31.9280   42.6360 C   0  0  0  0  0  0  0  0  0  0  0  0
   58.4667   31.7384   41.6297 H   0  0  0  0  0  0  0  0  0  0  0  0
   58.4480   33.0770   43.3350 C   0  0  0  0  0  0  0  0  0  0  0  0
   59.1625   33.7807   42.8829 H   0  0  0  0  0  0  0  0  0  0  0  0
   59.9960   32.1050   46.8610 C   0  0  0  0  0  0  0  0  0  0  0  0
   60.4111   32.2635   45.8547 H   0  0  0  0  0  0  0  0  0  0  0  0
   59.7040   30.7960   47.2950 C   0  0  0  0  0  0  0  0  0  0  0  0
   59.6160   34.7570   45.7720 C   0  0  0  0  0  0  0  0  0  0  0  0
   60.3724   35.0638   45.0346 H   0  0  0  0  0  0  0  0  0  0  0  0
   60.0080   29.6370   46.4230 C   0  0  0  0  0  0  0  0  0  0  0  0
   61.0325   29.2365   46.4124 H   0  0  0  0  0  0  0  0  0  0  0  0
   57.9240   33.3360   44.6120 C   0  0  0  0  0  0  0  0  0  0  0  0
   58.9080   26.7130   46.6170 C   0  0  0  0  0  0  0  0  0  0  0  0
   59.9927   26.6977   46.7994 H   0  0  0  0  0  0  0  0  0  0  0  0
   58.1680   25.6580   46.9500 O   0  0  0  0  0  0  0  0  0  0  0  0
   56.8520   25.6160   46.7680 C   0  0  0  0  0  0  0  0  0  0  0  0
   56.2100   24.5870   47.1030 O   0  0  0  0  0  0  0  0  0  0  0  0
   56.1850   26.7110   46.2110 C   0  0  0  0  0  0  0  0  0  0  0  0
   54.8080   26.6860   46.0190 O   0  0  0  0  0  0  0  0  0  0  0  0
   56.9250   27.8350   45.8470 C   0  0  0  0  0  0  0  0  0  0  0  0
   56.4189   28.7105   45.4140 H   0  0  0  0  0  0  0  0  0  0  0  0
  1  2  1  0
  2  3  1  0
  3  4  2  0
  4  5  1  0
  4  6  1  0
  6  7  1  0
  6  8  2  0
  8  9  1  0
  9 10  1  0
  9 11  1  0
  9 12  1  0
 12 13  1  0
 12 14  2  0
 14 15  1  0
 14 16  1  0
 16 17  2  0
 17 18  1  0
 17 19  1  0
 19 20  1  0
 19 21  2  0
 21 22  1  0
 21 23  1  0
 23 24  1  0
 23 25  2  0
 25 26  1  0
  8 27  1  0
 27 28  1  0
 27 29  2  0
 29 30  1  0
 30 31  1  0
 30 32  2  0
 32 33  1  0
 32 34  1  0
 34 35  2  0
 35 36  1  0
 35 37  1  0
 37 38  1  0
 38 39  2  0
 38 40  1  0
 40 41  1  0
 40 42  2  0
 42 43  1  0
 29  3  1  0
 42 34  1  0
 25 16  1  0
M  CHG  1  41  -1
M  END
>  <UniqueID>  (60) 
53

>  <SMILES>  (60) 
O=c1occ(/C=C/c2cc(C/C=C\c3ccccc3)ccc2O)cc1[O-]

>  <Energy>  (60) 
59.327180876980165

>  <Genealogy>  (60) 
O=c1occ(C=Cc2cc(CC=Cc3ccccc3)ccc2O)cc1[O-] (protonated)
O=c1occ(/C=C/c2cc(C/C=C\c3ccccc3)ccc2O)cc1[O-] (cis-trans isomerization)
O=c1occ(/C=C/c2cc(C/C=C\c3ccccc3)ccc2O)cc1[O-] (3D coordinates assigned)
O=c1occ(/C=C/c2cc(C/C=C\c3ccccc3)ccc2O)cc1[O-] (optimized conformer: 59.327180876980165 kcal/mol)

>  <smiles>  (60) 
O=c1occ(C=Cc2cc(CC=Cc3ccccc3)ccc2O)cc1O

>  <score_type>  (60) 
oracle

>  <origin>  (60) 
adg

>  <m_score__min__energy>  (60) 
-13.27

>  <m_primary>  (60) 
energy

$$$$
60:0
     RDKit          3D

 42 45  0  0  0  0  0  0  0  0999 V2000
   57.7270   32.7020   48.7440 N   0  0  0  0  0  0  0  0  0  0  0  0
   59.0900   32.3030   48.8970 C   0  0  0  0  0  0  0  0  0  0  0  0
   59.3940   31.4970   49.8160 O   0  0  0  0  0  0  0  0  0  0  0  0
   60.1410   32.8160   47.9910 C   0  0  0  0  0  0  0  0  0  0  0  0
   59.8840   33.3470   46.7250 C   0  0  0  0  0  0  0  0  0  0  0  0
   58.5880   33.4410   46.1210 N   0  0  0  0  0  0  0  0  0  0  0  0
   58.1270   32.6460   45.0230 C   0  0  0  0  0  0  0  0  0  0  0  0
   58.0910   33.1650   43.8750 O   0  0  0  0  0  0  0  0  0  0  0  0
   57.7480   31.2240   45.1890 C   0  0  0  0  0  0  0  0  0  0  0  0
   56.6900   30.6720   44.4500 C   0  0  0  0  0  0  0  0  0  0  0  0
   56.3340   29.3310   44.6150 C   0  0  0  0  0  0  0  0  0  0  0  0
   57.0220   28.5150   45.5300 C   0  0  0  0  0  0  0  0  0  0  0  0
   56.6340   27.0910   45.6890 C   0  0  0  0  0  0  0  0  0  0  0  0
   57.4480   25.9830   45.5490 C   0  0  0  0  0  0  0  0  0  0  0  0
   56.6150   24.9150   45.7960 C   0  0  0  0  0  0  0  0  0  0  0  0
   55.3770   25.3640   46.0680 N   0  0  0  0  0  0  0  0  0  0  0  0
   55.3880   26.6860   46.0040 N   0  0  0  0  0  0  0  0  0  0  0  0
   58.0710   29.0750   46.2820 C   0  0  0  0  0  0  0  0  0  0  0  0
   58.4250   30.4170   46.1170 C   0  0  0  0  0  0  0  0  0  0  0  0
   61.3300   33.8440   46.0110 S   0  0  0  0  0  0  0  0  0  0  0  0
   62.2980   33.4380   47.3200 C   0  0  0  0  0  0  0  0  0  0  0  0
   61.5150   32.8620   48.3190 C   0  0  0  0  0  0  0  0  0  0  0  0
   62.1170   32.4050   49.6250 C   0  0  0  0  0  0  0  0  0  0  0  0
   63.6380   32.2060   49.5140 C   0  0  0  0  0  0  0  0  0  0  0  0
   64.3080   33.3930   48.8020 C   0  0  0  0  0  0  0  0  0  0  0  0
   63.7930   33.5350   47.3630 C   0  0  0  0  0  0  0  0  0  0  0  0
   57.4130   33.2460   47.9110 H   0  0  0  0  0  0  0  0  0  0  0  0
   57.0060   32.3760   49.4260 H   0  0  0  0  0  0  0  0  0  0  0  0
   56.1371   31.2998   43.7357 H   0  0  0  0  0  0  0  0  0  0  0  0
   55.5077   28.9098   44.0235 H   0  0  0  0  0  0  0  0  0  0  0  0
   58.5186   25.9597   45.2973 H   0  0  0  0  0  0  0  0  0  0  0  0
   56.9159   23.8572   45.7742 H   0  0  0  0  0  0  0  0  0  0  0  0
   58.6169   28.4517   47.0055 H   0  0  0  0  0  0  0  0  0  0  0  0
   59.2405   30.8442   46.7190 H   0  0  0  0  0  0  0  0  0  0  0  0
   61.9123   33.1626   50.3958 H   0  0  0  0  0  0  0  0  0  0  0  0
   61.6641   31.4384   49.8906 H   0  0  0  0  0  0  0  0  0  0  0  0
   64.0612   32.1096   50.5248 H   0  0  0  0  0  0  0  0  0  0  0  0
   63.8264   31.2969   48.9240 H   0  0  0  0  0  0  0  0  0  0  0  0
   64.0855   34.3167   49.3562 H   0  0  0  0  0  0  0  0  0  0  0  0
   65.3929   33.2143   48.7693 H   0  0  0  0  0  0  0  0  0  0  0  0
   64.1025   34.5123   46.9641 H   0  0  0  0  0  0  0  0  0  0  0  0
   64.2164   32.7216   46.7554 H   0  0  0  0  0  0  0  0  0  0  0  0
  1  2  1  0
  2  3  2  0
  2  4  1  0
  4  5  2  0
  5  6  1  0
  6  7  1  0
  7  8  2  0
  7  9  1  0
  9 10  2  0
 10 11  1  0
 11 12  2  0
 12 13  1  0
 13 14  1  0
 14 15  2  0
 15 16  1  0
 16 17  1  0
 12 18  1  0
 18 19  2  0
  5 20  1  0
 20 21  1  0
 21 22  2  0
 22 23  1  0
 23 24  1  0
 24 25  1  0
 25 26  1  0
 22  4  1  0
 19  9  1  0
 26 21  1  0
 17 13  2  0
  1 27  1  0
  1 28  1  0
 10 29  1  0
 11 30  1  0
 14 31  1  0
 15 32  1  0
 18 33  1  0
 19 34  1  0
 23 35  1  0
 23 36  1  0
 24 37  1  0
 24 38  1  0
 25 39  1  0
 25 40  1  0
 26 41  1  0
 26 42  1  0
M  CHG  2   6  -1  16  -1
M  END
>  <UniqueID>  (61) 
54

>  <SMILES>  (61) 
NC(=O)c1c([N-]C(=O)c2ccc(-c3cc[n-]n3)cc2)sc2c1CCCC2

>  <Energy>  (61) 
109.90279436007582

>  <Genealogy>  (61) 
NC(=O)c1c([N-]C(=O)c2ccc(-c3cc[n-]n3)cc2)sc2c1CCCC2 (protonated)
NC(=O)c1c([N-]C(=O)c2ccc(-c3cc[n-]n3)cc2)sc2c1CCCC2 (3D coordinates assigned)
NC(=O)c1c([N-]C(=O)c2ccc(-c3cc[n-]n3)cc2)sc2c1CCCC2 (nonaromatic ring conformer: 109.90279436007582 kcal/mol)

>  <smiles>  (61) 
NC(=O)c1c(NC(=O)c2ccc(-c3cc[nH]n3)cc2)sc2c1CCCC2

>  <score_type>  (61) 
oracle

>  <origin>  (61) 
adg

>  <m_score__min__energy>  (61) 
-11.859999999999999

>  <m_primary>  (61) 
energy

$$$$
61:0
     RDKit          3D

 54 56  0  0  0  0  0  0  0  0999 V2000
   57.4610   31.5230   51.6910 C   0  0  0  0  0  0  0  0  0  0  0  0
   57.6170   30.1970   51.6400 C   0  0  0  0  0  0  0  0  0  0  0  0
   58.9570   29.5400   51.8580 C   0  0  0  0  0  0  0  0  0  0  0  0
   59.9570   29.9450   50.8510 N   0  0  0  0  0  0  0  0  0  0  0  0
   60.5350   28.9400   49.9370 C   0  0  0  0  0  0  0  0  0  0  0  0
   59.9600   29.0670   48.5470 C   0  0  0  0  0  0  0  0  0  0  0  0
   58.7000   28.5260   48.2430 C   0  0  0  0  0  0  0  0  0  0  0  0
   58.1530   28.6830   46.9670 C   0  0  0  0  0  0  0  0  0  0  0  0
   58.8580   29.3690   45.9710 C   0  0  0  0  0  0  0  0  0  0  0  0
   58.2580   29.5050   44.6770 N   0  0  0  0  0  0  0  0  0  0  0  0
   56.5820   29.8270   44.3830 S   0  0  0  0  0  0  0  0  0  0  0  0
   56.2680   29.7010   42.6380 C   0  0  0  0  0  0  0  0  0  0  0  0
   55.7330   28.8220   45.1070 O   0  0  0  0  0  0  0  0  0  0  0  0
   56.2410   31.2170   44.8470 O   0  0  0  0  0  0  0  0  0  0  0  0
   60.1250   29.9020   46.2680 C   0  0  0  0  0  0  0  0  0  0  0  0
   60.6690   29.7480   47.5450 C   0  0  0  0  0  0  0  0  0  0  0  0
   60.6590   31.1950   51.0420 C   0  0  0  0  0  0  0  0  0  0  0  0
   60.7030   31.7240   52.1860 O   0  0  0  0  0  0  0  0  0  0  0  0
   61.3230   31.8850   49.9170 C   0  0  0  0  0  0  0  0  0  0  0  0
   60.6940   32.9700   49.2900 C   0  0  0  0  0  0  0  0  0  0  0  0
   61.3180   33.5990   48.1960 C   0  0  0  0  0  0  0  0  0  0  0  0
   60.7200   34.6660   47.5010 O   0  0  0  0  0  0  0  0  0  0  0  0
   60.1470   34.5820   46.1950 C   0  0  0  0  0  0  0  0  0  0  0  0
   58.6450   34.2440   46.1970 C   0  0  0  0  0  0  0  0  0  0  0  0
   58.3320   32.8760   45.5990 C   0  0  0  0  0  0  0  0  0  0  0  0
   58.1050   33.1210   47.0800 C   0  0  0  0  0  0  0  0  0  0  0  0
   62.5670   33.1370   47.7690 C   0  0  0  0  0  0  0  0  0  0  0  0
   63.3870   33.8890   46.4100 Cl  0  0  0  0  0  0  0  0  0  0  0  0
   63.1770   32.0750   48.4400 C   0  0  0  0  0  0  0  0  0  0  0  0
   62.5510   31.4760   49.4890 N   0  0  0  0  0  0  0  0  0  0  0  0
   56.4679   31.9667   51.5268 H   0  0  0  0  0  0  0  0  0  0  0  0
   58.3256   32.1710   51.8972 H   0  0  0  0  0  0  0  0  0  0  0  0
   56.7410   29.5649   51.4326 H   0  0  0  0  0  0  0  0  0  0  0  0
   59.3282   29.8187   52.8553 H   0  0  0  0  0  0  0  0  0  0  0  0
   58.8142   28.4530   51.7680 H   0  0  0  0  0  0  0  0  0  0  0  0
   61.6244   29.0844   49.8886 H   0  0  0  0  0  0  0  0  0  0  0  0
   60.2916   27.9392   50.3231 H   0  0  0  0  0  0  0  0  0  0  0  0
   58.1407   27.9756   49.0139 H   0  0  0  0  0  0  0  0  0  0  0  0
   57.1607   28.2643   46.7433 H   0  0  0  0  0  0  0  0  0  0  0  0
   55.2583   29.2958   42.4754 H   0  0  0  0  0  0  0  0  0  0  0  0
   56.3412   30.6981   42.1793 H   0  0  0  0  0  0  0  0  0  0  0  0
   57.0102   29.0310   42.1793 H   0  0  0  0  0  0  0  0  0  0  0  0
   60.6889   30.4414   45.4927 H   0  0  0  0  0  0  0  0  0  0  0  0
   61.6625   30.1643   47.7677 H   0  0  0  0  0  0  0  0  0  0  0  0
   59.7184   33.3277   49.6509 H   0  0  0  0  0  0  0  0  0  0  0  0
   60.2839   35.5512   45.6930 H   0  0  0  0  0  0  0  0  0  0  0  0
   60.6598   33.7614   45.6719 H   0  0  0  0  0  0  0  0  0  0  0  0
   58.3361   35.2908   46.0600 H   0  0  0  0  0  0  0  0  0  0  0  0
   57.4719   32.7553   44.9240 H   0  0  0  0  0  0  0  0  0  0  0  0
   58.8976   32.1374   45.0119 H   0  0  0  0  0  0  0  0  0  0  0  0
   57.0807   33.1782   47.4770 H   0  0  0  0  0  0  0  0  0  0  0  0
   58.4381   32.6339   48.0083 H   0  0  0  0  0  0  0  0  0  0  0  0
   64.1679   31.7212   48.1190 H   0  0  0  0  0  0  0  0  0  0  0  0
   63.0430   30.7010   49.9840 H   0  0  0  0  0  0  0  0  0  0  0  0
  1  2  2  0
  2  3  1  0
  3  4  1  0
  4  5  1  0
  5  6  1  0
  6  7  2  0
  7  8  1  0
  8  9  2  0
  9 10  1  0
 10 11  1  0
 11 12  1  0
 11 13  2  0
 11 14  2  0
  9 15  1  0
 15 16  2  0
  4 17  1  0
 17 18  2  0
 17 19  1  0
 19 20  2  0
 20 21  1  0
 21 22  1  0
 22 23  1  0
 23 24  1  0
 24 25  1  0
 25 26  1  0
 21 27  2  0
 27 28  1  0
 27 29  1  0
 29 30  2  0
 16  6  1  0
 30 19  1  0
 26 24  1  0
  1 31  1  0
  1 32  1  0
  2 33  1  0
  3 34  1  0
  3 35  1  0
  5 36  1  0
  5 37  1  0
  7 38  1  0
  8 39  1  0
 12 40  1  0
 12 41  1  0
 12 42  1  0
 15 43  1  0
 16 44  1  0
 20 45  1  0
 23 46  1  0
 23 47  1  0
 24 48  1  0
 25 49  1  0
 25 50  1  0
 26 51  1  0
 26 52  1  0
 29 53  1  0
 30 54  1  0
M  CHG  2  10  -1  30   1
M  END
>  <UniqueID>  (62) 
55

>  <SMILES>  (62) 
C=CCN(Cc1ccc([N-]S(C)(=O)=O)cc1)C(=O)c1cc(OCC2CC2)c(Cl)c[nH+]1

>  <Energy>  (62) 
322.8291457878514

>  <Genealogy>  (62) 
C=CCN(Cc1ccc([N-]S(C)(=O)=O)cc1)C(=O)c1cc(OCC2CC2)c(Cl)c[nH+]1 (protonated)
C=CCN(Cc1ccc([N-]S(C)(=O)=O)cc1)C(=O)c1cc(OCC2CC2)c(Cl)c[nH+]1 (3D coordinates assigned)
C=CCN(Cc1ccc([N-]S(C)(=O)=O)cc1)C(=O)c1cc(OCC2CC2)c(Cl)c[nH+]1 (nonaromatic ring conformer: 322.8291457878514 kcal/mol)

>  <smiles>  (62) 
C=CCN(Cc1ccc(NS(C)(=O)=O)cc1)C(=O)c1cc(OCC2CC2)c(Cl)cn1

>  <score_type>  (62) 
oracle

>  <origin>  (62) 
adg

>  <m_score__min__energy>  (62) 
-8.5600000000000005

>  <m_primary>  (62) 
energy

$$$$
62:0
     RDKit          3D

 42 44  0  0  0  0  0  0  0  0999 V2000
   60.2240   29.8500   46.0500 O   0  0  0  0  0  0  0  0  0  0  0  0
   59.0020   29.6790   45.7840 C   0  0  0  0  0  0  0  0  0  0  0  0
   58.2090   30.7920   45.3390 N   0  0  0  0  0  0  0  0  0  0  0  0
   58.5640   32.1660   45.5740 C   0  0  0  0  0  0  0  0  0  0  0  0
   58.1530   33.1510   44.6650 C   0  0  0  0  0  0  0  0  0  0  0  0
   58.4720   34.4920   44.8850 C   0  0  0  0  0  0  0  0  0  0  0  0
   59.2050   34.8620   46.0130 C   0  0  0  0  0  0  0  0  0  0  0  0
   59.6290   33.8910   46.9370 C   0  0  0  0  0  0  0  0  0  0  0  0
   60.4210   34.3010   48.1630 C   0  0  0  0  0  0  0  0  0  0  0  0
   61.8160   33.8020   48.1730 N   0  0  0  0  0  0  0  0  0  0  0  0
   62.0110   32.5190   48.8850 C   0  0  0  0  0  0  0  0  0  0  0  0
   62.3620   31.3820   47.9110 C   0  0  0  0  0  0  0  0  0  0  0  0
   63.5380   31.6310   47.1510 O   0  0  0  0  0  0  0  0  0  0  0  0
   63.7600   33.0080   46.8640 C   0  0  0  0  0  0  0  0  0  0  0  0
   62.4780   33.8550   46.8530 C   0  0  0  0  0  0  0  0  0  0  0  0
   59.2760   32.5480   46.7250 C   0  0  0  0  0  0  0  0  0  0  0  0
   58.4170   28.3200   45.8900 C   0  0  0  0  0  0  0  0  0  0  0  0
   59.2410   27.1810   45.9630 C   0  0  0  0  0  0  0  0  0  0  0  0
   58.6780   25.9050   46.0550 C   0  0  0  0  0  0  0  0  0  0  0  0
   57.2900   25.7490   46.0690 C   0  0  0  0  0  0  0  0  0  0  0  0
   56.4610   26.8700   45.9890 C   0  0  0  0  0  0  0  0  0  0  0  0
   55.0800   26.7140   46.0000 O   0  0  0  0  0  0  0  0  0  0  0  0
   57.0190   28.1500   45.8950 C   0  0  0  0  0  0  0  0  0  0  0  0
   57.4000   30.5990   44.7050 H   0  0  0  0  0  0  0  0  0  0  0  0
   57.5758   32.8654   43.7732 H   0  0  0  0  0  0  0  0  0  0  0  0
   58.1447   35.2588   44.1674 H   0  0  0  0  0  0  0  0  0  0  0  0
   59.4528   35.9206   46.1805 H   0  0  0  0  0  0  0  0  0  0  0  0
   60.4462   35.3998   48.2071 H   0  0  0  0  0  0  0  0  0  0  0  0
   59.9165   33.8540   49.0323 H   0  0  0  0  0  0  0  0  0  0  0  0
   62.8298   32.6337   49.6106 H   0  0  0  0  0  0  0  0  0  0  0  0
   61.0707   32.2600   49.3936 H   0  0  0  0  0  0  0  0  0  0  0  0
   62.5109   30.4595   48.4914 H   0  0  0  0  0  0  0  0  0  0  0  0
   61.5279   31.2958   47.1990 H   0  0  0  0  0  0  0  0  0  0  0  0
   64.4385   33.4162   47.6276 H   0  0  0  0  0  0  0  0  0  0  0  0
   64.1857   33.0590   45.8510 H   0  0  0  0  0  0  0  0  0  0  0  0
   62.7346   34.8984   46.6176 H   0  0  0  0  0  0  0  0  0  0  0  0
   61.7915   33.4545   46.0925 H   0  0  0  0  0  0  0  0  0  0  0  0
   59.5595   31.7871   47.4671 H   0  0  0  0  0  0  0  0  0  0  0  0
   60.3349   27.2959   45.9475 H   0  0  0  0  0  0  0  0  0  0  0  0
   59.3299   25.0211   46.1166 H   0  0  0  0  0  0  0  0  0  0  0  0
   56.8501   24.7435   46.1430 H   0  0  0  0  0  0  0  0  0  0  0  0
   56.3614   29.0290   45.8246 H   0  0  0  0  0  0  0  0  0  0  0  0
  1  2  2  0
  2  3  1  0
  3  4  1  0
  4  5  2  0
  5  6  1  0
  6  7  2  0
  7  8  1  0
  8  9  1  0
  9 10  1  0
 10 11  1  0
 11 12  1  0
 12 13  1  0
 13 14  1  0
 14 15  1  0
  8 16  2  0
  2 17  1  0
 17 18  2  0
 18 19  1  0
 19 20  2  0
 20 21  1  0
 21 22  1  0
 21 23  2  0
 16  4  1  0
 23 17  1  0
 15 10  1  0
  3 24  1  0
  5 25  1  0
  6 26  1  0
  7 27  1  0
  9 28  1  0
  9 29  1  0
 11 30  1  0
 11 31  1  0
 12 32  1  0
 12 33  1  0
 14 34  1  0
 14 35  1  0
 15 36  1  0
 15 37  1  0
 16 38  1  0
 18 39  1  0
 19 40  1  0
 20 41  1  0
 23 42  1  0
M  CHG  1  22  -1
M  END
>  <UniqueID>  (63) 
56

>  <SMILES>  (63) 
O=C(Nc1cccc(CN2CCOCC2)c1)c1cccc([O-])c1

>  <Energy>  (63) 
65.37992230014454

>  <Genealogy>  (63) 
O=C(Nc1cccc(CN2CCOCC2)c1)c1cccc([O-])c1 (protonated)
O=C(Nc1cccc(CN2CCOCC2)c1)c1cccc([O-])c1 (3D coordinates assigned)
O=C(Nc1cccc(CN2CCOCC2)c1)c1cccc([O-])c1 (nonaromatic ring conformer: 65.37992230014454 kcal/mol)

>  <smiles>  (63) 
O=C(Nc1cccc(CN2CCOCC2)c1)c1cccc(O)c1

>  <score_type>  (63) 
oracle

>  <origin>  (63) 
adg

>  <m_score__min__energy>  (63) 
-11.720000000000001

>  <m_primary>  (63) 
energy

$$$$
63:0
     RDKit          3D

 46 48  0  0  0  0  0  0  0  0999 V2000
   55.8952   28.9171   45.3037 H   0  0  0  0  0  0  0  0  0  0  0  0
   56.8930   28.4760   45.1630 C   0  0  0  0  0  0  0  0  0  0  0  0
   57.8240   29.1680   44.5810 N   0  0  0  0  0  0  0  0  0  0  0  0
   57.9760   30.5470   44.8220 N   0  0  0  0  0  0  0  0  0  0  0  0
   57.5920   31.4700   43.8790 C   0  0  0  0  0  0  0  0  0  0  0  0
   56.9990   31.0350   42.5650 C   0  0  0  0  0  0  0  0  0  0  0  0
   56.1249   30.3938   42.7516 H   0  0  0  0  0  0  0  0  0  0  0  0
   56.6882   31.9209   41.9918 H   0  0  0  0  0  0  0  0  0  0  0  0
   57.7507   30.4725   41.9918 H   0  0  0  0  0  0  0  0  0  0  0  0
   57.7160   32.8430   44.1560 C   0  0  0  0  0  0  0  0  0  0  0  0
   57.4106   33.5873   43.4058 H   0  0  0  0  0  0  0  0  0  0  0  0
   58.2270   33.2570   45.3840 C   0  0  0  0  0  0  0  0  0  0  0  0
   58.3312   34.3301   45.6023 H   0  0  0  0  0  0  0  0  0  0  0  0
   58.6070   32.3110   46.3380 C   0  0  0  0  0  0  0  0  0  0  0  0
   59.0490   32.7640   47.6250 N   0  0  0  0  0  0  0  0  0  0  0  0
   59.9300   34.2400   47.8800 S   0  0  0  0  0  0  0  0  0  0  0  0
   59.8370   35.1160   46.6590 O   0  0  0  0  0  0  0  0  0  0  0  0
   59.3270   34.9760   49.0440 O   0  0  0  0  0  0  0  0  0  0  0  0
   61.6160   33.8630   48.2580 C   0  0  0  0  0  0  0  0  0  0  0  0
   62.4260   33.1800   47.3350 C   0  0  0  0  0  0  0  0  0  0  0  0
   62.0401   32.9497   46.3310 H   0  0  0  0  0  0  0  0  0  0  0  0
   63.7200   32.7930   47.6900 C   0  0  0  0  0  0  0  0  0  0  0  0
   64.3410   32.2375   46.9718 H   0  0  0  0  0  0  0  0  0  0  0  0
   64.2350   33.1100   48.9630 C   0  0  0  0  0  0  0  0  0  0  0  0
   65.5270   32.7360   49.3660 O   0  0  0  0  0  0  0  0  0  0  0  0
   65.8120   31.9640   50.5340 C   0  0  0  0  0  0  0  0  0  0  0  0
   65.5915   32.5612   51.4311 H   0  0  0  0  0  0  0  0  0  0  0  0
   65.1894   31.0572   50.5351 H   0  0  0  0  0  0  0  0  0  0  0  0
   66.8745   31.6793   50.5351 H   0  0  0  0  0  0  0  0  0  0  0  0
   63.4330   33.8160   49.8700 C   0  0  0  0  0  0  0  0  0  0  0  0
   63.8334   34.0850   50.8586 H   0  0  0  0  0  0  0  0  0  0  0  0
   62.1270   34.1810   49.5270 C   0  0  0  0  0  0  0  0  0  0  0  0
   61.4988   34.7183   50.2527 H   0  0  0  0  0  0  0  0  0  0  0  0
   58.5270   30.9430   46.0090 C   0  0  0  0  0  0  0  0  0  0  0  0
   58.9820   30.0760   46.8010 O   0  0  0  0  0  0  0  0  0  0  0  0
   57.1580   27.1020   45.6390 C   0  0  0  0  0  0  0  0  0  0  0  0
   58.4790   26.6130   45.7090 C   0  0  0  0  0  0  0  0  0  0  0  0
   59.3140   27.2446   45.3715 H   0  0  0  0  0  0  0  0  0  0  0  0
   58.7340   25.3320   46.2040 C   0  0  0  0  0  0  0  0  0  0  0  0
   59.7676   24.9591   46.2542 H   0  0  0  0  0  0  0  0  0  0  0  0
   57.6810   24.5240   46.6350 C   0  0  0  0  0  0  0  0  0  0  0  0
   57.8861   23.5198   47.0345 H   0  0  0  0  0  0  0  0  0  0  0  0
   56.3650   24.9910   46.5590 C   0  0  0  0  0  0  0  0  0  0  0  0
   55.5359   24.3477   46.8887 H   0  0  0  0  0  0  0  0  0  0  0  0
   56.0980   26.2740   46.0650 C   0  0  0  0  0  0  0  0  0  0  0  0
   54.7760   26.7110   45.9990 O   0  0  0  0  0  0  0  0  0  0  0  0
  1  2  1  0
  2  3  2  0
  3  4  1  0
  4  5  1  0
  5  6  1  0
  6  7  1  0
  6  8  1  0
  6  9  1  0
  5 10  2  0
 10 11  1  0
 10 12  1  0
 12 13  1  0
 12 14  2  0
 14 15  1  0
 15 16  1  0
 16 17  2  0
 16 18  2  0
 16 19  1  0
 19 20  2  0
 20 21  1  0
 20 22  1  0
 22 23  1  0
 22 24  2  0
 24 25  1  0
 25 26  1  0
 26 27  1  0
 26 28  1  0
 26 29  1  0
 24 30  1  0
 30 31  1  0
 30 32  2  0
 32 33  1  0
 14 34  1  0
 34 35  2  0
  2 36  1  0
 36 37  2  0
 37 38  1  0
 37 39  1  0
 39 40  1  0
 39 41  2  0
 41 42  1  0
 41 43  1  0
 43 44  1  0
 43 45  2  0
 45 46  1  0
 34  4  1  0
 45 36  1  0
 32 19  1  0
M  CHG  2  15  -1  46  -1
M  END
>  <UniqueID>  (64) 
57

>  <SMILES>  (64) 
COc1ccc(S(=O)(=O)[N-]c2ccc(C)n(/N=C/c3ccccc3[O-])c2=O)cc1

>  <Energy>  (64) 
64.95255127779858

>  <Genealogy>  (64) 
COc1ccc(S(=O)(=O)[N-]c2ccc(C)n(N=Cc3ccccc3[O-])c2=O)cc1 (protonated)
COc1ccc(S(=O)(=O)[N-]c2ccc(C)n(/N=C/c3ccccc3[O-])c2=O)cc1 (cis-trans isomerization)
COc1ccc(S(=O)(=O)[N-]c2ccc(C)n(/N=C/c3ccccc3[O-])c2=O)cc1 (3D coordinates assigned)
COc1ccc(S(=O)(=O)[N-]c2ccc(C)n(/N=C/c3ccccc3[O-])c2=O)cc1 (optimized conformer: 64.95255127779858 kcal/mol)

>  <smiles>  (64) 
COc1ccc(S(=O)(=O)Nc2ccc(C)n(N=Cc3ccccc3O)c2=O)cc1

>  <score_type>  (64) 
oracle

>  <origin>  (64) 
adg

>  <m_score__min__energy>  (64) 
-14

>  <m_primary>  (64) 
energy

$$$$
64:0
     RDKit          3D

 42 44  0  0  0  0  0  0  0  0999 V2000
   63.8693   33.7339   45.9456 H   0  0  0  0  0  0  0  0  0  0  0  0
   63.1990   33.6970   46.8170 C   0  0  0  0  0  0  0  0  0  0  0  0
   63.7200   33.8340   48.1050 C   0  0  0  0  0  0  0  0  0  0  0  0
   64.8021   33.9706   48.2476 H   0  0  0  0  0  0  0  0  0  0  0  0
   62.8700   33.7980   49.2130 C   0  0  0  0  0  0  0  0  0  0  0  0
   63.2853   33.9143   50.2249 H   0  0  0  0  0  0  0  0  0  0  0  0
   61.4870   33.6140   49.0420 C   0  0  0  0  0  0  0  0  0  0  0  0
   60.5780   33.5860   50.2390 C   0  0  0  0  0  0  0  0  0  0  0  0
   61.1817   33.6046   51.1584 H   0  0  0  0  0  0  0  0  0  0  0  0
   59.9159   34.4642   50.2173 H   0  0  0  0  0  0  0  0  0  0  0  0
   59.9712   32.6687   50.2173 H   0  0  0  0  0  0  0  0  0  0  0  0
   60.9650   33.4420   47.7430 C   0  0  0  0  0  0  0  0  0  0  0  0
   59.5440   33.3090   47.5550 N   0  0  0  0  0  0  0  0  0  0  0  0
   58.9090   33.0500   46.4450 C   0  0  0  0  0  0  0  0  0  0  0  0
   58.2450   34.0510   45.7070 C   0  0  0  0  0  0  0  0  0  0  0  0
   58.2309   35.0891   46.0706 H   0  0  0  0  0  0  0  0  0  0  0  0
   57.6060   33.7170   44.5130 C   0  0  0  0  0  0  0  0  0  0  0  0
   57.0866   34.4926   43.9311 H   0  0  0  0  0  0  0  0  0  0  0  0
   57.6260   32.4010   44.0580 C   0  0  0  0  0  0  0  0  0  0  0  0
   57.1267   32.1334   43.1151 H   0  0  0  0  0  0  0  0  0  0  0  0
   58.2860   31.4210   44.8090 C   0  0  0  0  0  0  0  0  0  0  0  0
   58.3210   30.0670   44.3280 N   0  0  0  0  0  0  0  0  0  0  0  0
   58.5190   29.9130   43.3130 H   0  0  0  0  0  0  0  0  0  0  0  0
   58.0890   28.9130   45.1530 C   0  0  0  0  0  0  0  0  0  0  0  0
   59.1410   28.3940   45.9210 C   0  0  0  0  0  0  0  0  0  0  0  0
   60.1268   28.8816   45.8990 H   0  0  0  0  0  0  0  0  0  0  0  0
   58.9440   27.2610   46.7140 C   0  0  0  0  0  0  0  0  0  0  0  0
   59.7714   26.8656   47.3215 H   0  0  0  0  0  0  0  0  0  0  0  0
   57.6980   26.6290   46.7370 C   0  0  0  0  0  0  0  0  0  0  0  0
   57.5471   25.7418   47.3695 H   0  0  0  0  0  0  0  0  0  0  0  0
   56.6410   27.1170   45.9610 C   0  0  0  0  0  0  0  0  0  0  0  0
   55.4120   26.4430   46.0120 O   0  0  0  0  0  0  0  0  0  0  0  0
   55.2230   25.0840   45.6330 C   0  0  0  0  0  0  0  0  0  0  0  0
   55.1363   24.4604   46.5350 H   0  0  0  0  0  0  0  0  0  0  0  0
   54.3037   24.9944   45.0355 H   0  0  0  0  0  0  0  0  0  0  0  0
   56.0829   24.7470   45.0355 H   0  0  0  0  0  0  0  0  0  0  0  0
   56.8440   28.2570   45.1600 C   0  0  0  0  0  0  0  0  0  0  0  0
   56.0230   28.6379   44.5348 H   0  0  0  0  0  0  0  0  0  0  0  0
   58.9310   31.7740   45.9620 N   0  0  0  0  0  0  0  0  0  0  0  0
   59.4700   31.0490   46.4880 H   0  0  0  0  0  0  0  0  0  0  0  0
   61.8260   33.5130   46.6350 C   0  0  0  0  0  0  0  0  0  0  0  0
   61.4166   33.4232   45.6180 H   0  0  0  0  0  0  0  0  0  0  0  0
  1  2  1  0
  2  3  2  0
  3  4  1  0
  3  5  1  0
  5  6  1  0
  5  7  2  0
  7  8  1  0
  8  9  1  0
  8 10  1  0
  8 11  1  0
  7 12  1  0
 12 13  1  0
 13 14  2  0
 14 15  1  0
 15 16  1  0
 15 17  2  0
 17 18  1  0
 17 19  1  0
 19 20  1  0
 19 21  2  0
 21 22  1  0
 22 23  1  0
 22 24  1  0
 24 25  2  0
 25 26  1  0
 25 27  1  0
 27 28  1  0
 27 29  2  0
 29 30  1  0
 29 31  1  0
 31 32  1  0
 32 33  1  0
 33 34  1  0
 33 35  1  0
 33 36  1  0
 31 37  2  0
 37 38  1  0
 21 39  1  0
 39 40  1  0
 12 41  2  0
 41 42  1  0
 41  2  1  0
 39 14  1  0
 37 24  1  0
M  END
>  <UniqueID>  (65) 
58

>  <SMILES>  (65) 
COc1cccc(Nc2ccc/c(=N\c3ccccc3C)[nH]2)c1

>  <Energy>  (65) 
58.20988986918417

>  <Genealogy>  (65) 
COc1cccc(Nc2ccc/c(=N\c3ccccc3C)[nH]2)c1 (cis-trans isomerization)
COc1cccc(Nc2ccc/c(=N\c3ccccc3C)[nH]2)c1 (3D coordinates assigned)
COc1cccc(Nc2ccc/c(=N\c3ccccc3C)[nH]2)c1 (optimized conformer: 58.20988986918417 kcal/mol)

>  <smiles>  (65) 
COc1cccc(Nc2cccc(=Nc3ccccc3C)[nH]2)c1

>  <score_type>  (65) 
oracle

>  <origin>  (65) 
adg

>  <m_score__min__energy>  (65) 
-8.4800000000000004

>  <m_primary>  (65) 
energy

$$$$
65:0
     RDKit          3D

 60 64  0  0  0  0  0  0  0  0999 V2000
   63.0600   33.7820   49.8510 C   0  0  0  0  0  0  0  0  0  0  0  0
   62.0080   33.8680   48.7800 C   0  0  0  0  0  0  0  0  0  0  0  0
   62.3350   33.5630   47.4500 C   0  0  0  0  0  0  0  0  0  0  0  0
   61.3560   33.6180   46.4520 C   0  0  0  0  0  0  0  0  0  0  0  0
   60.0390   33.9700   46.7770 C   0  0  0  0  0  0  0  0  0  0  0  0
   58.8160   34.1230   45.5160 S   0  0  0  0  0  0  0  0  0  0  0  0
   59.1180   35.3460   44.6990 O   0  0  0  0  0  0  0  0  0  0  0  0
   57.4430   34.2490   46.1160 O   0  0  0  0  0  0  0  0  0  0  0  0
   58.8520   32.7250   44.4910 N   0  0  0  0  0  0  0  0  0  0  0  0
   58.5800   31.3930   44.9350 C   0  0  0  0  0  0  0  0  0  0  0  0
   59.6240   30.4980   45.2880 C   0  0  0  0  0  0  0  0  0  0  0  0
   59.3420   29.1590   45.6070 C   0  0  0  0  0  0  0  0  0  0  0  0
   58.0110   28.7540   45.5910 C   0  0  0  0  0  0  0  0  0  0  0  0
   57.4380   27.5300   45.8150 C   0  0  0  0  0  0  0  0  0  0  0  0
   58.1390   26.2850   45.9510 N   0  0  0  0  0  0  0  0  0  0  0  0
   57.9370   25.4220   46.8710 N   0  0  0  0  0  0  0  0  0  0  0  0
   56.8270   24.5150   46.9300 C   0  0  0  0  0  0  0  0  0  0  0  0
   56.0980   24.2510   45.7670 C   0  0  0  0  0  0  0  0  0  0  0  0
   55.0430   23.3350   45.7880 C   0  0  0  0  0  0  0  0  0  0  0  0
   54.7280   22.6500   46.9690 C   0  0  0  0  0  0  0  0  0  0  0  0
   53.4110   21.4810   46.9830 S   0  0  0  0  0  0  0  0  0  0  0  0
   52.7360   21.4810   48.3270 O   0  0  0  0  0  0  0  0  0  0  0  0
   52.4090   21.8630   45.9330 O   0  0  0  0  0  0  0  0  0  0  0  0
   54.0190   19.8870   46.6440 N   0  0  0  0  0  0  0  0  0  0  0  0
   55.4530   19.9210   46.3550 C   0  0  0  0  0  0  0  0  0  0  0  0
   55.7090   19.6830   44.8660 C   0  0  0  0  0  0  0  0  0  0  0  0
   56.3900   20.8570   44.2350 C   0  0  0  0  0  0  0  0  0  0  0  0
   57.5530   21.4430   44.6710 C   0  0  0  0  0  0  0  0  0  0  0  0
   57.8580   22.4620   43.8480 N   0  0  0  0  0  0  0  0  0  0  0  0
   56.8620   22.4610   42.9380 C   0  0  0  0  0  0  0  0  0  0  0  0
   55.9380   21.4990   43.1440 N   0  0  0  0  0  0  0  0  0  0  0  0
   55.4690   22.8960   48.1310 C   0  0  0  0  0  0  0  0  0  0  0  0
   56.5210   23.8170   48.1110 C   0  0  0  0  0  0  0  0  0  0  0  0
   56.0790   27.7170   45.5960 C   0  0  0  0  0  0  0  0  0  0  0  0
   55.1200   26.7140   45.6200 O   0  0  0  0  0  0  0  0  0  0  0  0
   55.7910   29.0050   45.2910 N   0  0  0  0  0  0  0  0  0  0  0  0
   56.9900   29.6210   45.2940 C   0  0  0  0  0  0  0  0  0  0  0  0
   57.2410   30.9520   44.9680 C   0  0  0  0  0  0  0  0  0  0  0  0
   59.7050   34.2470   48.1090 C   0  0  0  0  0  0  0  0  0  0  0  0
   60.6830   34.1960   49.1060 C   0  0  0  0  0  0  0  0  0  0  0  0
   62.5803   33.8212   50.8401 H   0  0  0  0  0  0  0  0  0  0  0  0
   63.6114   32.8358   49.7482 H   0  0  0  0  0  0  0  0  0  0  0  0
   63.7578   34.6261   49.7482 H   0  0  0  0  0  0  0  0  0  0  0  0
   63.3657   33.2794   47.1908 H   0  0  0  0  0  0  0  0  0  0  0  0
   61.6206   33.3845   45.4101 H   0  0  0  0  0  0  0  0  0  0  0  0
   60.6637   30.8563   45.3120 H   0  0  0  0  0  0  0  0  0  0  0  0
   60.1472   28.4540   45.8611 H   0  0  0  0  0  0  0  0  0  0  0  0
   56.3561   24.7670   44.8304 H   0  0  0  0  0  0  0  0  0  0  0  0
   54.4581   23.1511   44.8747 H   0  0  0  0  0  0  0  0  0  0  0  0
   55.8554   20.9049   46.6380 H   0  0  0  0  0  0  0  0  0  0  0  0
   55.9493   19.1262   46.9311 H   0  0  0  0  0  0  0  0  0  0  0  0
   56.3468   18.7943   44.7500 H   0  0  0  0  0  0  0  0  0  0  0  0
   54.7398   19.5354   44.3671 H   0  0  0  0  0  0  0  0  0  0  0  0
   58.1383   21.1306   45.5484 H   0  0  0  0  0  0  0  0  0  0  0  0
   56.8080   23.1778   42.1053 H   0  0  0  0  0  0  0  0  0  0  0  0
   55.2232   22.3637   49.0617 H   0  0  0  0  0  0  0  0  0  0  0  0
   57.1108   23.9958   49.0222 H   0  0  0  0  0  0  0  0  0  0  0  0
   56.4148   31.6421   44.7418 H   0  0  0  0  0  0  0  0  0  0  0  0
   58.6685   34.5058   48.3713 H   0  0  0  0  0  0  0  0  0  0  0  0
   60.4133   34.4137   50.1500 H   0  0  0  0  0  0  0  0  0  0  0  0
  1  2  1  0
  2  3  2  0
  3  4  1  0
  4  5  2  0
  5  6  1  0
  6  7  2  0
  6  8  2  0
  6  9  1  0
  9 10  1  0
 10 11  2  0
 11 12  1  0
 12 13  2  0
 13 14  1  0
 14 15  1  0
 15 16  2  3
 16 17  1  0
 17 18  2  0
 18 19  1  0
 19 20  2  0
 20 21  1  0
 21 22  2  0
 21 23  2  0
 21 24  1  0
 24 25  1  0
 25 26  1  0
 26 27  1  0
 27 28  2  0
 28 29  1  0
 29 30  1  0
 30 31  2  0
 20 32  1  0
 32 33  2  0
 14 34  2  0
 34 35  1  0
 34 36  1  0
 36 37  1  0
 37 38  2  0
  5 39  1  0
 39 40  2  0
 40  2  1  0
 38 10  1  0
 37 13  1  0
 33 17  1  0
 31 27  1  0
  1 41  1  0
  1 42  1  0
  1 43  1  0
  3 44  1  0
  4 45  1  0
 11 46  1  0
 12 47  1  0
 18 48  1  0
 19 49  1  0
 25 50  1  0
 25 51  1  0
 26 52  1  0
 26 53  1  0
 28 54  1  0
 30 55  1  0
 32 56  1  0
 33 57  1  0
 38 58  1  0
 39 59  1  0
 40 60  1  0
M  CHG  5   9  -1  24  -1  29  -1  35  -1  36  -1
M  END
>  <UniqueID>  (66) 
59

>  <SMILES>  (66) 
Cc1ccc(S(=O)(=O)[N-]c2ccc3c(N=Nc4ccc(S(=O)(=O)[N-]CCc5c[n-]cn5)cc4)c([O-])[n-]c3c2)cc1

>  <Energy>  (66) 
141.789064519794

>  <Genealogy>  (66) 
Cc1ccc(S(=O)(=O)[N-]c2ccc3c(N=Nc4ccc(S(=O)(=O)[N-]CCc5c[n-]cn5)cc4)c([O-])[n-]c3c2)cc1 (protonated)
Cc1ccc(S(=O)(=O)[N-]c2ccc3c(N=Nc4ccc(S(=O)(=O)[N-]CCc5c[n-]cn5)cc4)c([O-])[n-]c3c2)cc1 (3D coordinates assigned)
Cc1ccc(S(=O)(=O)[N-]c2ccc3c(N=Nc4ccc(S(=O)(=O)[N-]CCc5c[n-]cn5)cc4)c([O-])[n-]c3c2)cc1 (optimized conformer: 141.789064519794 kcal/mol)

>  <smiles>  (66) 
Cc1ccc(S(=O)(=O)Nc2ccc3c(N=Nc4ccc(S(=O)(=O)NCCc5c[nH]cn5)cc4)c(O)[nH]c3c2)cc1

>  <score_type>  (66) 
oracle

>  <origin>  (66) 
adg

>  <m_score__min__energy>  (66) 
-17.710000000000001

>  <m_primary>  (66) 
energy

$$$$
66:0
     RDKit          3D

 68 72  0  0  1  0  0  0  0  0999 V2000
   57.4340   32.3730   52.2590 C   0  0  0  0  0  0  0  0  0  0  0  0
   58.4110   33.8610   52.4240 S   0  0  0  0  0  0  0  0  0  0  0  0
   59.8110   33.7800   51.3290 C   0  0  0  0  0  0  0  0  0  0  0  0
   60.9810   33.3520   51.8460 N   0  0  0  0  0  0  0  0  0  0  0  0
   62.0910   33.2840   51.0690 C   0  0  0  0  0  0  0  0  0  0  0  0
   57.0800   28.6900   45.4370 C   0  0  0  0  0  0  0  0  0  0  0  0
   57.1050   29.6640   44.4860 C   0  0  0  0  0  0  0  0  0  0  0  0
   56.7460   30.8760   44.5370 N   0  0  0  0  0  0  0  0  0  0  0  0
   59.9640   33.8080   47.0310 C   0  0  0  0  0  0  0  0  0  0  0  0
   59.6560   34.4170   45.8360 C   0  0  0  0  0  0  0  0  0  0  0  0
   58.8870   33.8080   44.8650 C   0  0  0  0  0  0  0  0  0  0  0  0
   58.4220   32.5560   45.1090 C   0  0  0  0  0  0  0  0  0  0  0  0
   57.5690   31.9260   44.0630 C   0  0  0  0  0  0  0  0  0  0  0  0
   57.6190   32.3320   42.8820 O   0  0  0  0  0  0  0  0  0  0  0  0
   60.7200   34.4250   48.0460 N   0  0  0  0  0  0  0  0  0  0  0  0
   60.8170   34.0780   49.2650 C   0  0  0  0  0  0  0  0  0  0  0  0
   62.0620   33.6450   49.7340 C   0  0  0  0  0  0  0  0  0  0  0  0
   57.6000   27.5590   44.8210 C   0  0  0  0  0  0  0  0  0  0  0  0
   57.7900   26.2130   45.4250 C   0  0  0  0  0  0  0  0  0  0  0  0
   57.7340   25.1480   44.3400 C   0  0  0  0  0  0  0  0  0  0  0  0
   59.0350   26.1110   46.2730 C   0  0  0  0  0  0  0  0  0  0  0  0
   56.5970   25.9050   46.3380 C   0  0  0  0  0  0  0  0  0  0  0  0
   57.9110   27.8520   43.5840 O   0  0  0  0  0  0  0  0  0  0  0  0
   59.7290   34.1430   50.0390 N   0  0  0  0  0  0  0  0  0  0  0  0
   58.6880   31.8800   46.2790 C   0  0  0  0  0  0  0  0  0  0  0  0
   59.4580   32.5280   47.2170 C   0  0  0  0  0  0  0  0  0  0  0  0
   57.6250   29.0950   43.3680 N   0  0  0  0  0  0  0  0  0  0  0  0
   63.0520   33.6970   48.6600 C   0  0  0  0  0  0  0  0  0  0  0  0
   64.1170   32.6630   48.6700 C   0  0  0  0  0  0  0  0  0  0  0  0
   64.5860   32.2400   49.9470 N   0  0  0  0  0  0  0  0  0  0  0  0
   65.9460   32.4210   50.3150 C   0  0  0  0  0  0  0  0  0  0  0  0
   66.9170   33.1400   49.7410 N   0  0  0  0  0  0  0  0  0  0  0  0
   68.0500   33.0130   50.4400 N   0  0  0  0  0  0  0  0  0  0  0  0
   67.7490   32.1830   51.4800 C   0  0  0  0  0  0  0  0  0  0  0  0
   68.6960   31.7360   52.5470 C   0  0  0  0  0  0  0  0  0  0  0  0
   66.4810   31.8560   51.3630 O   0  0  0  0  0  0  0  0  0  0  0  0
   63.8010   31.6080   51.0000 C   0  0  0  0  0  0  0  0  0  0  0  0
   63.2690   32.7850   51.8290 C   0  0  0  0  0  0  0  0  0  0  0  0
   57.1811   31.9878   53.2578 H   0  0  0  0  0  0  0  0  0  0  0  0
   56.5091   32.6008   51.7088 H   0  0  0  0  0  0  0  0  0  0  0  0
   58.0107   31.6149   51.7088 H   0  0  0  0  0  0  0  0  0  0  0  0
   60.0384   35.4309   45.6469 H   0  0  0  0  0  0  0  0  0  0  0  0
   58.6574   34.3225   43.9202 H   0  0  0  0  0  0  0  0  0  0  0  0
   56.7235   28.7798   46.4737 H   0  0  0  0  0  0  0  0  0  0  0  0
   57.6817   24.1527   44.8055 H   0  0  0  0  0  0  0  0  0  0  0  0
   56.8430   25.3078   43.7150 H   0  0  0  0  0  0  0  0  0  0  0  0
   58.6368   25.2135   43.7150 H   0  0  0  0  0  0  0  0  0  0  0  0
   58.7568   26.1338   47.3370 H   0  0  0  0  0  0  0  0  0  0  0  0
   59.5543   25.1673   46.0499 H   0  0  0  0  0  0  0  0  0  0  0  0
   59.7010   26.9576   46.0499 H   0  0  0  0  0  0  0  0  0  0  0  0
   56.9096   25.9857   47.3896 H   0  0  0  0  0  0  0  0  0  0  0  0
   55.7883   26.6238   46.1397 H   0  0  0  0  0  0  0  0  0  0  0  0
   56.2373   24.8846   46.1397 H   0  0  0  0  0  0  0  0  0  0  0  0
   58.8330   34.4750   49.6200 H   0  0  0  0  0  0  0  0  0  0  0  0
   58.3014   30.8655   46.4559 H   0  0  0  0  0  0  0  0  0  0  0  0
   59.6837   32.0075   48.1594 H   0  0  0  0  0  0  0  0  0  0  0  0
   57.7830   29.5760   42.4420 H   0  0  0  0  0  0  0  0  0  0  0  0
   62.5112   33.6062   47.7064 H   0  0  0  0  0  0  0  0  0  0  0  0
   63.5804   34.6505   48.8067 H   0  0  0  0  0  0  0  0  0  0  0  0
   63.7263   31.7770   48.1481 H   0  0  0  0  0  0  0  0  0  0  0  0
   64.9840   33.1362   48.1858 H   0  0  0  0  0  0  0  0  0  0  0  0
   68.2589   31.9423   53.5351 H   0  0  0  0  0  0  0  0  0  0  0  0
   68.8796   30.6562   52.4455 H   0  0  0  0  0  0  0  0  0  0  0  0
   69.6463   32.2806   52.4455 H   0  0  0  0  0  0  0  0  0  0  0  0
   62.9718   31.0253   50.5724 H   0  0  0  0  0  0  0  0  0  0  0  0
   64.3926   30.9018   51.6011 H   0  0  0  0  0  0  0  0  0  0  0  0
   62.9685   32.4479   52.8320 H   0  0  0  0  0  0  0  0  0  0  0  0
   64.0293   33.5662   51.9762 H   0  0  0  0  0  0  0  0  0  0  0  0
  1  2  1  0
  2  3  1  0
  3  4  2  0
  4  5  1  0
  5  6  2  0
  6  7  1  0
  7  8  2  0
  8  9  1  0
  9 10  2  0
 10 11  1  0
 11 12  2  0
 12 13  1  0
 13 14  2  0
 13 15  1  0
 15 16  2  0
 16 17  1  0
 17 18  2  0
 18 19  1  0
 19 20  1  0
 19 21  1  0
 19 22  1  0
 18 23  1  0
 23 24  1  0
 12 25  1  0
 25 26  2  0
  7 27  1  0
  6 28  1  0
 28 29  1  0
 29 30  1  0
 30 31  1  0
 31 32  2  0
 32 33  1  0
 33 34  2  0
 34 35  1  0
 34 36  1  0
 30 37  1  0
 37 38  1  0
 27  3  1  0
 36 31  1  0
 38  5  1  0
 26  9  1  0
 24 16  1  0
  1 39  1  0
  1 40  1  0
  1 41  1  0
 10 42  1  0
 11 43  1  0
 17 44  1  0
 20 45  1  0
 20 46  1  0
 20 47  1  0
 21 48  1  0
 21 49  1  0
 21 50  1  0
 22 51  1  0
 22 52  1  0
 22 53  1  0
 24 54  1  0
 25 55  1  0
 26 56  1  0
 27 57  1  0
 28 58  1  0
 28 59  1  0
 29 60  1  0
 29 61  1  0
 35 62  1  0
 35 63  1  0
 35 64  1  0
 37 65  1  0
 37 66  1  0
 38 67  1  0
 38 68  1  0
M  END
>  <smiles>  (67) 
CSc1nc2c(c(=Nc3ccc(C(=O)N=c4cc(C(C)(C)C)o[nH]4)cc3)[nH]1)CCN(c1nnc(C)o1)CC2

>  <score_type>  (67) 
oracle

>  <origin>  (67) 
adg

>  <m_score__min__energy>  (67) 
-8.8800000000000008

>  <m_primary>  (67) 
energy

$$$$
67:0
     RDKit          3D

 32 33  0  0  0  0  0  0  0  0999 V2000
   55.6370   31.1880   44.5010 O   0  0  0  0  0  0  0  0  0  0  0  0
   57.1380   31.1930   44.4710 S   0  0  0  0  0  0  0  0  0  0  0  0
   57.5840   30.5100   43.2090 O   0  0  0  0  0  0  0  0  0  0  0  0
   57.6870   32.8960   44.4960 C   0  0  0  0  0  0  0  0  0  0  0  0
   58.5400   33.1760   45.7010 C   0  0  0  0  0  0  0  0  0  0  0  0
   59.6430   32.3550   45.9940 C   0  0  0  0  0  0  0  0  0  0  0  0
   60.4780   32.6550   47.0740 C   0  0  0  0  0  0  0  0  0  0  0  0
   60.2180   33.7750   47.8700 C   0  0  0  0  0  0  0  0  0  0  0  0
   61.2810   34.1640   49.2100 Cl  0  0  0  0  0  0  0  0  0  0  0  0
   59.1170   34.5910   47.5900 C   0  0  0  0  0  0  0  0  0  0  0  0
   58.2810   34.2940   46.5100 C   0  0  0  0  0  0  0  0  0  0  0  0
   57.7130   30.3360   45.8700 N   0  0  0  0  0  0  0  0  0  0  0  0
   58.0270   28.9380   45.9580 C   0  0  0  0  0  0  0  0  0  0  0  0
   59.3450   28.4640   46.0950 C   0  0  0  0  0  0  0  0  0  0  0  0
   59.5910   27.0940   46.2140 C   0  0  0  0  0  0  0  0  0  0  0  0
   58.5320   26.1850   46.1920 C   0  0  0  0  0  0  0  0  0  0  0  0
   57.2170   26.6430   46.0470 C   0  0  0  0  0  0  0  0  0  0  0  0
   55.8800   25.4990   46.0080 S   0  0  0  0  0  0  0  0  0  0  0  0
   55.9150   24.6310   47.2350 O   0  0  0  0  0  0  0  0  0  0  0  0
   55.9930   24.6220   44.7930 O   0  0  0  0  0  0  0  0  0  0  0  0
   54.4260   26.3400   45.9570 O   0  0  0  0  0  0  0  0  0  0  0  0
   56.9710   28.0170   45.9200 C   0  0  0  0  0  0  0  0  0  0  0  0
   58.2732   33.0971   43.5872 H   0  0  0  0  0  0  0  0  0  0  0  0
   56.8009   33.5463   44.5387 H   0  0  0  0  0  0  0  0  0  0  0  0
   59.8498   31.4726   45.3706 H   0  0  0  0  0  0  0  0  0  0  0  0
   61.3402   32.0097   47.2980 H   0  0  0  0  0  0  0  0  0  0  0  0
   58.9088   35.4678   48.2207 H   0  0  0  0  0  0  0  0  0  0  0  0
   57.4166   34.9388   46.2929 H   0  0  0  0  0  0  0  0  0  0  0  0
   60.1844   29.1748   46.1084 H   0  0  0  0  0  0  0  0  0  0  0  0
   60.6231   26.7303   46.3255 H   0  0  0  0  0  0  0  0  0  0  0  0
   58.7309   25.1075   46.2887 H   0  0  0  0  0  0  0  0  0  0  0  0
   55.9395   28.3760   45.7893 H   0  0  0  0  0  0  0  0  0  0  0  0
  1  2  2  0
  2  3  2  0
  2  4  1  0
  4  5  1  0
  5  6  2  0
  6  7  1  0
  7  8  2  0
  8  9  1  0
  8 10  1  0
 10 11  2  0
  2 12  1  0
 12 13  1  0
 13 14  2  0
 14 15  1  0
 15 16  2  0
 16 17  1  0
 17 18  1  0
 18 19  2  0
 18 20  2  0
 18 21  1  0
 17 22  2  0
 11  5  1  0
 22 13  1  0
  4 23  1  0
  4 24  1  0
  6 25  1  0
  7 26  1  0
 10 27  1  0
 11 28  1  0
 14 29  1  0
 15 30  1  0
 16 31  1  0
 22 32  1  0
M  CHG  2  12  -1  21  -1
M  END
>  <UniqueID>  (68) 
60

>  <SMILES>  (68) 
O=S(=O)(Cc1ccc(Cl)cc1)[N-]c1cccc(S(=O)(=O)[O-])c1

>  <Energy>  (68) 
30.25862900772475

>  <Genealogy>  (68) 
O=S(=O)(Cc1ccc(Cl)cc1)[N-]c1cccc(S(=O)(=O)[O-])c1 (protonated)
O=S(=O)(Cc1ccc(Cl)cc1)[N-]c1cccc(S(=O)(=O)[O-])c1 (3D coordinates assigned)
O=S(=O)(Cc1ccc(Cl)cc1)[N-]c1cccc(S(=O)(=O)[O-])c1 (optimized conformer: 30.25862900772475 kcal/mol)

>  <smiles>  (68) 
O=S(=O)(Cc1ccc(Cl)cc1)Nc1cccc(S(=O)(=O)O)c1

>  <score_type>  (68) 
oracle

>  <origin>  (68) 
adg

>  <m_score__min__energy>  (68) 
-13.279999999999999

>  <m_primary>  (68) 
energy

$$$$
68:0
     RDKit          3D

 45 48  0  0  0  0  0  0  0  0999 V2000
   65.5273   32.3992   49.6536 H   0  0  0  0  0  0  0  0  0  0  0  0
   64.5070   32.7130   49.3880 C   0  0  0  0  0  0  0  0  0  0  0  0
   63.9490   33.8400   49.9810 C   0  0  0  0  0  0  0  0  0  0  0  0
   64.5341   34.4239   50.7068 H   0  0  0  0  0  0  0  0  0  0  0  0
   62.6500   34.2330   49.6590 C   0  0  0  0  0  0  0  0  0  0  0  0
   62.2181   35.1212   50.1434 H   0  0  0  0  0  0  0  0  0  0  0  0
   61.8810   33.5110   48.7230 C   0  0  0  0  0  0  0  0  0  0  0  0
   60.4810   33.9810   48.4590 C   0  0  0  0  0  0  0  0  0  0  0  0
   59.8930   34.6390   49.3690 O   0  0  0  0  0  0  0  0  0  0  0  0
   59.7760   33.6720   47.2260 N   0  0  0  0  0  0  0  0  0  0  0  0
   60.0510   32.7190   46.8980 H   0  0  0  0  0  0  0  0  0  0  0  0
   58.3170   33.7520   47.3880 C   0  0  0  0  0  0  0  0  0  0  0  0
   57.9335   32.8315   47.8524 H   0  0  0  0  0  0  0  0  0  0  0  0
   58.0306   34.5912   48.0390 H   0  0  0  0  0  0  0  0  0  0  0  0
   57.7440   33.9150   45.9860 C   0  0  0  0  0  0  0  0  0  0  0  0
   57.4689   32.9371   45.5641 H   0  0  0  0  0  0  0  0  0  0  0  0
   56.8302   34.5273   45.9805 H   0  0  0  0  0  0  0  0  0  0  0  0
   58.8650   34.5510   45.1770 C   0  0  0  0  0  0  0  0  0  0  0  0
   59.0907   33.9431   44.2884 H   0  0  0  0  0  0  0  0  0  0  0  0
   58.5911   35.5539   44.8175 H   0  0  0  0  0  0  0  0  0  0  0  0
   60.0690   34.5940   46.1140 C   0  0  0  0  0  0  0  0  0  0  0  0
   60.9751   34.2693   45.5815 H   0  0  0  0  0  0  0  0  0  0  0  0
   60.2454   35.6149   46.4836 H   0  0  0  0  0  0  0  0  0  0  0  0
   62.4650   32.3730   48.1020 C   0  0  0  0  0  0  0  0  0  0  0  0
   61.7620   31.6550   47.0770 N   0  0  0  0  0  0  0  0  0  0  0  0
   60.8970   30.7590   47.3470 N   0  0  0  0  0  0  0  0  0  0  0  0
   60.0500   30.1930   46.3420 C   0  0  0  0  0  0  0  0  0  0  0  0
   60.0170   28.8080   46.0980 C   0  0  0  0  0  0  0  0  0  0  0  0
   60.6863   28.1392   46.6589 H   0  0  0  0  0  0  0  0  0  0  0  0
   59.1410   28.2750   45.1490 C   0  0  0  0  0  0  0  0  0  0  0  0
   59.1070   27.1882   44.9826 H   0  0  0  0  0  0  0  0  0  0  0  0
   58.3070   29.1210   44.4100 C   0  0  0  0  0  0  0  0  0  0  0  0
   57.4360   28.5990   43.4420 C   0  0  0  0  0  0  0  0  0  0  0  0
   57.3859   27.5126   43.2771 H   0  0  0  0  0  0  0  0  0  0  0  0
   56.6320   29.4570   42.6870 C   0  0  0  0  0  0  0  0  0  0  0  0
   55.9508   29.0436   41.9286 H   0  0  0  0  0  0  0  0  0  0  0  0
   56.6900   30.8410   42.8920 C   0  0  0  0  0  0  0  0  0  0  0  0
   56.0591   31.5116   42.2901 H   0  0  0  0  0  0  0  0  0  0  0  0
   57.5480   31.3730   43.8600 C   0  0  0  0  0  0  0  0  0  0  0  0
   57.5878   32.4605   44.0202 H   0  0  0  0  0  0  0  0  0  0  0  0
   58.3590   30.5210   44.6280 C   0  0  0  0  0  0  0  0  0  0  0  0
   59.2190   31.0430   45.6050 C   0  0  0  0  0  0  0  0  0  0  0  0
   59.2401   32.1267   45.7927 H   0  0  0  0  0  0  0  0  0  0  0  0
   63.7710   31.9800   48.4550 C   0  0  0  0  0  0  0  0  0  0  0  0
   64.2152   31.0870   47.9911 H   0  0  0  0  0  0  0  0  0  0  0  0
  1  2  1  0
  2  3  2  0
  3  4  1  0
  3  5  1  0
  5  6  1  0
  5  7  2  0
  7  8  1  0
  8  9  2  0
  8 10  1  0
 10 11  1  0
 10 12  1  0
 12 13  1  0
 12 14  1  0
 12 15  1  0
 15 16  1  0
 15 17  1  0
 15 18  1  0
 18 19  1  0
 18 20  1  0
 18 21  1  0
 21 22  1  0
 21 23  1  0
  7 24  1  0
 24 25  1  0
 25 26  2  0
 26 27  1  0
 27 28  2  0
 28 29  1  0
 28 30  1  0
 30 31  1  0
 30 32  2  0
 32 33  1  0
 33 34  1  0
 33 35  2  0
 35 36  1  0
 35 37  1  0
 37 38  1  0
 37 39  2  0
 39 40  1  0
 39 41  1  0
 41 42  2  0
 42 43  1  0
 24 44  2  0
 44 45  1  0
 44  2  1  0
 21 10  1  0
 42 27  1  0
 41 32  1  0
M  CHG  1  10   1
M  END
>  <UniqueID>  (69) 
61

>  <SMILES>  (69) 
O=C(c1ccccc1/N=N/c1ccc2ccccc2c1)[NH+]1CCCC1

>  <Energy>  (69) 
64.99297236712543

>  <Genealogy>  (69) 
O=C(c1ccccc1N=Nc1ccc2ccccc2c1)[NH+]1CCCC1 (protonated)
O=C(c1ccccc1/N=N/c1ccc2ccccc2c1)[NH+]1CCCC1 (cis-trans isomerization)
O=C(c1ccccc1/N=N/c1ccc2ccccc2c1)[NH+]1CCCC1 (3D coordinates assigned)
O=C(c1ccccc1/N=N/c1ccc2ccccc2c1)[NH+]1CCCC1 (nonaromatic ring conformer: 64.99297236712543 kcal/mol)

>  <smiles>  (69) 
O=C(c1ccccc1N=Nc1ccc2ccccc2c1)N1CCCC1

>  <score_type>  (69) 
oracle

>  <origin>  (69) 
adg

>  <m_score__min__energy>  (69) 
-6.9000000000000004

>  <m_primary>  (69) 
energy

$$$$
69:0
     RDKit          3D

 38 40  0  0  0  0  0  0  0  0999 V2000
   59.8730   30.5910   46.3470 O   0  0  0  0  0  0  0  0  0  0  0  0
   58.6790   30.6830   45.9510 C   0  0  0  0  0  0  0  0  0  0  0  0
   58.1580   31.9600   45.5530 N   0  0  0  0  0  0  0  0  0  0  0  0
   59.0210   33.1120   45.3020 C   0  0  0  0  0  0  0  0  0  0  0  0
   59.7180   33.5200   46.5710 C   0  0  0  0  0  0  0  0  0  0  0  0
   61.1220   33.5140   46.6330 C   0  0  0  0  0  0  0  0  0  0  0  0
   61.7760   33.8670   47.8180 C   0  0  0  0  0  0  0  0  0  0  0  0
   61.0340   34.2210   48.9480 C   0  0  0  0  0  0  0  0  0  0  0  0
   59.6380   34.2220   48.8970 C   0  0  0  0  0  0  0  0  0  0  0  0
   58.9800   33.8710   47.7140 C   0  0  0  0  0  0  0  0  0  0  0  0
   57.8250   29.4720   45.9350 C   0  0  0  0  0  0  0  0  0  0  0  0
   58.2150   28.3310   46.6510 C   0  0  0  0  0  0  0  0  0  0  0  0
   57.4380   27.2190   46.6450 N   0  0  0  0  0  0  0  0  0  0  0  0
   56.2790   27.1720   45.9380 C   0  0  0  0  0  0  0  0  0  0  0  0
   55.5530   26.0930   45.9840 N   0  0  0  0  0  0  0  0  0  0  0  0
   55.8470   24.8270   45.3690 C   0  0  0  0  0  0  0  0  0  0  0  0
   55.0640   23.6810   45.6070 C   0  0  0  0  0  0  0  0  0  0  0  0
   55.3640   22.4780   44.9600 C   0  0  0  0  0  0  0  0  0  0  0  0
   56.4290   22.4120   44.0600 C   0  0  0  0  0  0  0  0  0  0  0  0
   57.1910   23.5540   43.7950 C   0  0  0  0  0  0  0  0  0  0  0  0
   56.8930   24.7590   44.4390 C   0  0  0  0  0  0  0  0  0  0  0  0
   55.8840   28.2630   45.2280 N   0  0  0  0  0  0  0  0  0  0  0  0
   56.6260   29.4000   45.2010 C   0  0  0  0  0  0  0  0  0  0  0  0
   56.2380   30.3680   44.4940 O   0  0  0  0  0  0  0  0  0  0  0  0
   57.1250   32.0930   45.4740 H   0  0  0  0  0  0  0  0  0  0  0  0
   59.7719   32.8460   44.5435 H   0  0  0  0  0  0  0  0  0  0  0  0
   58.4072   33.9508   44.9419 H   0  0  0  0  0  0  0  0  0  0  0  0
   61.7086   33.2307   45.7466 H   0  0  0  0  0  0  0  0  0  0  0  0
   62.8752   33.8659   47.8604 H   0  0  0  0  0  0  0  0  0  0  0  0
   61.5499   34.4992   49.8789 H   0  0  0  0  0  0  0  0  0  0  0  0
   59.0558   34.4991   49.7882 H   0  0  0  0  0  0  0  0  0  0  0  0
   57.8806   33.8697   47.6782 H   0  0  0  0  0  0  0  0  0  0  0  0
   59.1560   28.3377   47.2206 H   0  0  0  0  0  0  0  0  0  0  0  0
   54.2142   23.7322   46.3036 H   0  0  0  0  0  0  0  0  0  0  0  0
   54.7591   21.5814   45.1608 H   0  0  0  0  0  0  0  0  0  0  0  0
   56.6686   21.4622   43.5596 H   0  0  0  0  0  0  0  0  0  0  0  0
   58.0252   23.5045   43.0797 H   0  0  0  0  0  0  0  0  0  0  0  0
   57.4835   25.6594   44.2141 H   0  0  0  0  0  0  0  0  0  0  0  0
  1  2  2  0
  2  3  1  0
  3  4  1  0
  4  5  1  0
  5  6  2  0
  6  7  1  0
  7  8  2  0
  8  9  1  0
  9 10  2  0
  2 11  1  0
 11 12  2  0
 12 13  1  0
 13 14  1  0
 14 15  2  3
 15 16  1  0
 16 17  2  0
 17 18  1  0
 18 19  2  0
 19 20  1  0
 20 21  2  0
 14 22  1  0
 22 23  1  0
 23 24  2  0
 10  5  1  0
 23 11  1  0
 21 16  1  0
  3 25  1  0
  4 26  1  0
  4 27  1  0
  6 28  1  0
  7 29  1  0
  8 30  1  0
  9 31  1  0
 10 32  1  0
 12 33  1  0
 17 34  1  0
 18 35  1  0
 19 36  1  0
 20 37  1  0
 21 38  1  0
M  CHG  2  13  -1  22  -1
M  END
>  <UniqueID>  (70) 
62

>  <SMILES>  (70) 
O=C(NCc1ccccc1)c1c[n-]c(=Nc2ccccc2)[n-]c1=O

>  <Energy>  (70) 
50.09644960464532

>  <Genealogy>  (70) 
O=C(NCc1ccccc1)c1c[n-]c(=Nc2ccccc2)[n-]c1=O (protonated)
O=C(NCc1ccccc1)c1c[n-]c(=Nc2ccccc2)[n-]c1=O (3D coordinates assigned)
O=C(NCc1ccccc1)c1c[n-]c(=Nc2ccccc2)[n-]c1=O (optimized conformer: 50.09644960464532 kcal/mol)

>  <smiles>  (70) 
O=C(NCc1ccccc1)c1c[nH]c(=Nc2ccccc2)[nH]c1=O

>  <score_type>  (70) 
oracle

>  <origin>  (70) 
adg

>  <m_score__min__energy>  (70) 
-10.82

>  <m_primary>  (70) 
energy

$$$$
70:0
     RDKit          3D

 35 36  0  0  0  0  0  0  0  0999 V2000
   63.6970   33.9480   50.7080 C   0  0  0  0  0  0  0  0  0  0  0  0
   63.5440   32.9430   49.2500 S   0  0  0  0  0  0  0  0  0  0  0  0
   63.8150   31.5070   49.5980 O   0  0  0  0  0  0  0  0  0  0  0  0
   64.5470   33.3880   48.2240 O   0  0  0  0  0  0  0  0  0  0  0  0
   61.9150   33.1020   48.6000 C   0  0  0  0  0  0  0  0  0  0  0  0
   61.0580   34.1000   49.0810 C   0  0  0  0  0  0  0  0  0  0  0  0
   59.7710   34.2380   48.5530 C   0  0  0  0  0  0  0  0  0  0  0  0
   59.3260   33.3770   47.5380 C   0  0  0  0  0  0  0  0  0  0  0  0
   57.9560   33.5490   46.9380 C   0  0  0  0  0  0  0  0  0  0  0  0
   57.9020   32.9280   45.6050 N   0  0  0  0  0  0  0  0  0  0  0  0
   57.3910   31.6620   45.4850 C   0  0  0  0  0  0  0  0  0  0  0  0
   57.3550   31.0180   44.2430 C   0  0  0  0  0  0  0  0  0  0  0  0
   56.6840   29.3960   44.1000 S   0  0  0  0  0  0  0  0  0  0  0  0
   55.1340   29.3440   44.8620 N   0  0  0  0  0  0  0  0  0  0  0  0
   56.5430   29.0280   42.6490 O   0  0  0  0  0  0  0  0  0  0  0  0
   57.6010   28.4060   44.7620 O   0  0  0  0  0  0  0  0  0  0  0  0
   57.8410   31.6850   43.1170 C   0  0  0  0  0  0  0  0  0  0  0  0
   58.3660   32.9680   43.2460 C   0  0  0  0  0  0  0  0  0  0  0  0
   58.3960   33.5810   44.5020 C   0  0  0  0  0  0  0  0  0  0  0  0
   58.8830   34.7400   44.6030 O   0  0  0  0  0  0  0  0  0  0  0  0
   60.1930   32.3880   47.0470 C   0  0  0  0  0  0  0  0  0  0  0  0
   61.4800   32.2510   47.5750 C   0  0  0  0  0  0  0  0  0  0  0  0
   63.6005   33.3143   51.6019 H   0  0  0  0  0  0  0  0  0  0  0  0
   64.6805   34.4407   50.7122 H   0  0  0  0  0  0  0  0  0  0  0  0
   62.9047   34.7110   50.7122 H   0  0  0  0  0  0  0  0  0  0  0  0
   61.3990   34.7779   49.8774 H   0  0  0  0  0  0  0  0  0  0  0  0
   59.1041   35.0250   48.9348 H   0  0  0  0  0  0  0  0  0  0  0  0
   57.2109   33.0717   47.5914 H   0  0  0  0  0  0  0  0  0  0  0  0
   57.7391   34.6231   46.8420 H   0  0  0  0  0  0  0  0  0  0  0  0
   57.0043   31.1456   46.3760 H   0  0  0  0  0  0  0  0  0  0  0  0
   55.1880   28.6210   45.6130 H   0  0  0  0  0  0  0  0  0  0  0  0
   57.8092   31.1984   42.1310 H   0  0  0  0  0  0  0  0  0  0  0  0
   58.7554   33.4969   42.3636 H   0  0  0  0  0  0  0  0  0  0  0  0
   59.8577   31.7172   46.2423 H   0  0  0  0  0  0  0  0  0  0  0  0
   62.1531   31.4733   47.1850 H   0  0  0  0  0  0  0  0  0  0  0  0
  1  2  1  0
  2  3  2  0
  2  4  2  0
  2  5  1  0
  5  6  2  0
  6  7  1  0
  7  8  2  0
  8  9  1  0
  9 10  1  0
 10 11  1  0
 11 12  2  0
 12 13  1  0
 13 14  1  0
 13 15  2  0
 13 16  2  0
 12 17  1  0
 17 18  2  0
 18 19  1  0
 19 20  2  0
  8 21  1  0
 21 22  2  0
 22  5  1  0
 19 10  1  0
  1 23  1  0
  1 24  1  0
  1 25  1  0
  6 26  1  0
  7 27  1  0
  9 28  1  0
  9 29  1  0
 11 30  1  0
 14 31  1  0
 17 32  1  0
 18 33  1  0
 21 34  1  0
 22 35  1  0
M  CHG  1  14  -1
M  END
>  <UniqueID>  (71) 
63

>  <SMILES>  (71) 
CS(=O)(=O)c1ccc(Cn2cc(S([NH-])(=O)=O)ccc2=O)cc1

>  <Energy>  (71) 
33.72590104248333

>  <Genealogy>  (71) 
CS(=O)(=O)c1ccc(Cn2cc(S([NH-])(=O)=O)ccc2=O)cc1 (protonated)
CS(=O)(=O)c1ccc(Cn2cc(S([NH-])(=O)=O)ccc2=O)cc1 (3D coordinates assigned)
CS(=O)(=O)c1ccc(Cn2cc(S([NH-])(=O)=O)ccc2=O)cc1 (optimized conformer: 33.72590104248333 kcal/mol)

>  <smiles>  (71) 
CS(=O)(=O)c1ccc(Cn2cc(S(N)(=O)=O)ccc2=O)cc1

>  <score_type>  (71) 
oracle

>  <origin>  (71) 
adg

>  <m_score__min__energy>  (71) 
-10.710000000000001

>  <m_primary>  (71) 
energy

$$$$
71:0
     RDKit          3D

 44 46  0  0  0  0  0  0  0  0999 V2000
   57.7920   26.0430   44.6990 C   0  0  0  0  0  0  0  0  0  0  0  0
   58.6120   27.1700   45.2520 C   0  0  0  0  0  0  0  0  0  0  0  0
   58.6700   27.3900   46.6350 C   0  0  0  0  0  0  0  0  0  0  0  0
   59.4040   28.4630   47.1500 C   0  0  0  0  0  0  0  0  0  0  0  0
   60.0810   29.3430   46.2870 C   0  0  0  0  0  0  0  0  0  0  0  0
   60.8420   30.4860   46.8360 C   0  0  0  0  0  0  0  0  0  0  0  0
   62.1020   30.5020   46.7570 O   0  0  0  0  0  0  0  0  0  0  0  0
   60.1510   31.5500   47.4320 O   0  0  0  0  0  0  0  0  0  0  0  0
   58.8210   31.5070   47.8710 C   0  0  0  0  0  0  0  0  0  0  0  0
   58.5200   30.9790   48.9740 O   0  0  0  0  0  0  0  0  0  0  0  0
   57.7680   31.9660   47.0140 N   0  0  0  0  0  0  0  0  0  0  0  0
   57.6590   31.8800   45.7150 C   0  0  0  0  0  0  0  0  0  0  0  0
   57.1900   30.7070   45.2070 N   0  0  0  0  0  0  0  0  0  0  0  0
   57.0540   30.4810   43.8760 C   0  0  0  0  0  0  0  0  0  0  0  0
   57.4050   31.4710   42.9650 C   0  0  0  0  0  0  0  0  0  0  0  0
   57.8590   32.7000   43.4350 C   0  0  0  0  0  0  0  0  0  0  0  0
   57.9650   32.9430   44.8190 C   0  0  0  0  0  0  0  0  0  0  0  0
   58.3140   34.2130   45.3090 O   0  0  0  0  0  0  0  0  0  0  0  0
   59.6140   34.8020   45.2670 C   0  0  0  0  0  0  0  0  0  0  0  0
   60.4090   34.4320   46.4900 C   0  0  0  0  0  0  0  0  0  0  0  0
   59.8470   34.5860   47.7680 C   0  0  0  0  0  0  0  0  0  0  0  0
   60.5770   34.2310   48.9060 C   0  0  0  0  0  0  0  0  0  0  0  0
   61.8680   33.7130   48.7770 C   0  0  0  0  0  0  0  0  0  0  0  0
   62.4290   33.5430   47.5070 C   0  0  0  0  0  0  0  0  0  0  0  0
   63.6800   33.0350   47.3830 F   0  0  0  0  0  0  0  0  0  0  0  0
   61.7020   33.8970   46.3670 C   0  0  0  0  0  0  0  0  0  0  0  0
   60.0050   29.1300   44.8990 C   0  0  0  0  0  0  0  0  0  0  0  0
   59.2720   28.0560   44.3860 C   0  0  0  0  0  0  0  0  0  0  0  0
   57.3665   25.4581   45.5278 H   0  0  0  0  0  0  0  0  0  0  0  0
   56.9777   26.4505   44.0818 H   0  0  0  0  0  0  0  0  0  0  0  0
   58.4302   25.3936   44.0818 H   0  0  0  0  0  0  0  0  0  0  0  0
   58.1351   26.7148   47.3191 H   0  0  0  0  0  0  0  0  0  0  0  0
   59.4522   28.6198   48.2377 H   0  0  0  0  0  0  0  0  0  0  0  0
   56.6665   29.5157   43.5181 H   0  0  0  0  0  0  0  0  0  0  0  0
   57.3247   31.2849   41.8838 H   0  0  0  0  0  0  0  0  0  0  0  0
   58.1374   33.4882   42.7200 H   0  0  0  0  0  0  0  0  0  0  0  0
   60.1430   34.4443   44.3713 H   0  0  0  0  0  0  0  0  0  0  0  0
   59.5042   35.8961   45.2360 H   0  0  0  0  0  0  0  0  0  0  0  0
   58.8284   34.9875   47.8738 H   0  0  0  0  0  0  0  0  0  0  0  0
   60.1342   34.3597   49.9047 H   0  0  0  0  0  0  0  0  0  0  0  0
   62.4431   33.4390   49.6738 H   0  0  0  0  0  0  0  0  0  0  0  0
   62.1440   33.7561   45.3696 H   0  0  0  0  0  0  0  0  0  0  0  0
   60.5260   29.8133   44.2122 H   0  0  0  0  0  0  0  0  0  0  0  0
   59.2121   27.9043   43.2982 H   0  0  0  0  0  0  0  0  0  0  0  0
  1  2  1  0
  2  3  2  0
  3  4  1  0
  4  5  2  0
  5  6  1  0
  6  7  2  0
  6  8  1  0
  8  9  1  0
  9 10  2  0
  9 11  1  0
 11 12  2  3
 12 13  1  0
 13 14  1  0
 14 15  2  0
 15 16  1  0
 16 17  2  0
 17 18  1  0
 18 19  1  0
 19 20  1  0
 20 21  2  0
 21 22  1  0
 22 23  2  0
 23 24  1  0
 24 25  1  0
 24 26  2  0
  5 27  1  0
 27 28  2  0
 28  2  1  0
 17 12  1  0
 26 20  1  0
  1 29  1  0
  1 30  1  0
  1 31  1  0
  3 32  1  0
  4 33  1  0
 14 34  1  0
 15 35  1  0
 16 36  1  0
 19 37  1  0
 19 38  1  0
 21 39  1  0
 22 40  1  0
 23 41  1  0
 26 42  1  0
 27 43  1  0
 28 44  1  0
M  CHG  1  13  -1
M  END
>  <UniqueID>  (72) 
64

>  <SMILES>  (72) 
Cc1ccc(C(=O)OC(=O)N=c2[n-]cccc2OCc2cccc(F)c2)cc1

>  <Energy>  (72) 
57.77325337100818

>  <Genealogy>  (72) 
Cc1ccc(C(=O)OC(=O)N=c2[n-]cccc2OCc2cccc(F)c2)cc1 (protonated)
Cc1ccc(C(=O)OC(=O)N=c2[n-]cccc2OCc2cccc(F)c2)cc1 (3D coordinates assigned)
Cc1ccc(C(=O)OC(=O)N=c2[n-]cccc2OCc2cccc(F)c2)cc1 (optimized conformer: 57.77325337100818 kcal/mol)

>  <smiles>  (72) 
Cc1ccc(C(=O)OC(=O)N=c2[nH]cccc2OCc2cccc(F)c2)cc1

>  <score_type>  (72) 
oracle

>  <origin>  (72) 
adg

>  <m_score__min__energy>  (72) 
-9.4800000000000004

>  <m_primary>  (72) 
energy

$$$$
72:0
     RDKit          3D

 41 43  0  0  0  0  0  0  0  0999 V2000
   56.6490   30.1700   46.0710 H   0  0  0  0  0  0  0  0  0  0  0  0
   57.4090   30.6940   46.4870 O   0  0  0  0  0  0  0  0  0  0  0  0
   57.8600   31.9140   45.9780 C   0  0  0  0  0  0  0  0  0  0  0  0
   58.1180   32.9570   46.8790 C   0  0  0  0  0  0  0  0  0  0  0  0
   57.9861   32.7908   47.9583 H   0  0  0  0  0  0  0  0  0  0  0  0
   58.5410   34.2050   46.4170 C   0  0  0  0  0  0  0  0  0  0  0  0
   58.7363   35.0183   47.1314 H   0  0  0  0  0  0  0  0  0  0  0  0
   58.7160   34.4210   45.0500 C   0  0  0  0  0  0  0  0  0  0  0  0
   59.0469   35.4052   44.6869 H   0  0  0  0  0  0  0  0  0  0  0  0
   58.4710   33.3870   44.1410 C   0  0  0  0  0  0  0  0  0  0  0  0
   58.6166   33.5608   43.0646 H   0  0  0  0  0  0  0  0  0  0  0  0
   58.0400   32.1270   44.5920 C   0  0  0  0  0  0  0  0  0  0  0  0
   57.8400   31.0560   43.6540 N   0  0  0  0  0  0  0  0  0  0  0  0
   58.6180   30.8010   43.0040 H   0  0  0  0  0  0  0  0  0  0  0  0
   56.6540   30.1940   43.6790 C   0  0  2  0  0  0  0  0  0  0  0  0
   56.3495   29.9711   42.6457 H   0  0  0  0  0  0  0  0  0  0  0  0
   55.5900   30.8510   44.3200 O   0  0  0  0  0  0  0  0  0  0  0  0
   55.5060   30.4760   45.2350 H   0  0  0  0  0  0  0  0  0  0  0  0
   56.9760   28.8960   44.3740 C   0  0  0  0  0  0  0  0  0  0  0  0
   55.9840   28.1860   44.9780 N   0  0  0  0  0  0  0  0  0  0  0  0
   56.2450   27.0310   45.6450 C   0  0  0  0  0  0  0  0  0  0  0  0
   55.2660   26.3790   46.1960 N   0  0  0  0  0  0  0  0  0  0  0  0
   54.6560   25.1650   45.6530 C   0  0  0  0  0  0  0  0  0  0  0  0
   54.0684   24.6722   46.4416 H   0  0  0  0  0  0  0  0  0  0  0  0
   54.0060   25.4422   44.8100 H   0  0  0  0  0  0  0  0  0  0  0  0
   55.7140   24.2140   45.1570 C   0  0  0  0  0  0  0  0  0  0  0  0
   56.6370   23.6570   46.0590 C   0  0  0  0  0  0  0  0  0  0  0  0
   56.5758   23.9045   47.1290 H   0  0  0  0  0  0  0  0  0  0  0  0
   57.6330   22.7890   45.6000 C   0  0  0  0  0  0  0  0  0  0  0  0
   58.3529   22.3551   46.3095 H   0  0  0  0  0  0  0  0  0  0  0  0
   57.7150   22.4720   44.2410 C   0  0  0  0  0  0  0  0  0  0  0  0
   58.4985   21.7883   43.8822 H   0  0  0  0  0  0  0  0  0  0  0  0
   56.8010   23.0240   43.3370 C   0  0  0  0  0  0  0  0  0  0  0  0
   56.8673   22.7752   42.2676 H   0  0  0  0  0  0  0  0  0  0  0  0
   55.8030   23.8920   43.7920 C   0  0  0  0  0  0  0  0  0  0  0  0
   55.0854   24.3240   43.0790 H   0  0  0  0  0  0  0  0  0  0  0  0
   57.5270   26.5740   45.7260 N   0  0  0  0  0  0  0  0  0  0  0  0
   58.5520   27.2580   45.1560 C   0  0  0  0  0  0  0  0  0  0  0  0
   59.7270   26.8180   45.2520 O   0  0  0  0  0  0  0  0  0  0  0  0
   58.2990   28.4450   44.4680 C   0  0  0  0  0  0  0  0  0  0  0  0
   59.1207   29.0145   44.0092 H   0  0  0  0  0  0  0  0  0  0  0  0
  1  2  1  0
  2  3  1  0
  3  4  2  0
  4  5  1  0
  4  6  1  0
  6  7  1  0
  6  8  2  0
  8  9  1  0
  8 10  1  0
 10 11  1  0
 10 12  2  0
 12 13  1  0
 13 14  1  0
 13 15  1  0
 15 16  1  6
 15 17  1  0
 17 18  1  0
 15 19  1  0
 19 20  1  0
 20 21  1  0
 21 22  2  0
 22 23  1  0
 23 24  1  0
 23 25  1  0
 23 26  1  0
 26 27  2  0
 27 28  1  0
 27 29  1  0
 29 30  1  0
 29 31  2  0
 31 32  1  0
 31 33  1  0
 33 34  1  0
 33 35  2  0
 35 36  1  0
 21 37  1  0
 37 38  1  0
 38 39  2  0
 38 40  1  0
 40 41  1  0
 12  3  1  0
 40 19  2  0
 35 26  1  0
M  CHG  2  20  -1  37  -1
M  END
>  <UniqueID>  (73) 
65

>  <SMILES>  (73) 
O=c1cc([C@@H](O)Nc2ccccc2O)[n-]/c(=N/Cc2ccccc2)[n-]1

>  <Energy>  (73) 
48.41957317129804

>  <Genealogy>  (73) 
O=c1cc(C(O)Nc2ccccc2O)[n-]c(=NCc2ccccc2)[n-]1 (protonated)
O=c1cc([C@@H](O)Nc2ccccc2O)[n-]c(=NCc2ccccc2)[n-]1 (chirality)
O=c1cc([C@@H](O)Nc2ccccc2O)[n-]/c(=N/Cc2ccccc2)[n-]1 (cis-trans isomerization)
O=c1cc([C@@H](O)Nc2ccccc2O)[n-]/c(=N/Cc2ccccc2)[n-]1 (3D coordinates assigned)
O=c1cc([C@@H](O)Nc2ccccc2O)[n-]/c(=N/Cc2ccccc2)[n-]1 (optimized conformer: 48.41957317129804 kcal/mol)

>  <smiles>  (73) 
O=c1cc(C(O)Nc2ccccc2O)[nH]c(=NCc2ccccc2)[nH]1

>  <score_type>  (73) 
oracle

>  <origin>  (73) 
adg

>  <m_score__min__energy>  (73) 
-11.93

>  <m_primary>  (73) 
energy

$$$$
73:0
     RDKit          3D

 46 49  0  0  0  0  0  0  0  0999 V2000
   56.2410   28.6940   45.1460 O   0  0  0  0  0  0  0  0  0  0  0  0
   57.0910   28.8360   44.2280 C   0  0  0  0  0  0  0  0  0  0  0  0
   57.0110   30.0210   43.3180 C   0  0  0  0  0  0  0  0  0  0  0  0
   57.3270   31.2390   44.0550 N   0  0  0  0  0  0  0  0  0  0  0  0
   57.6410   31.3180   45.4500 C   0  0  0  0  0  0  0  0  0  0  0  0
   57.4130   30.3990   46.2830 O   0  0  0  0  0  0  0  0  0  0  0  0
   58.3210   32.5750   45.7430 C   0  0  0  0  0  0  0  0  0  0  0  0
   58.8170   33.0840   46.9440 C   0  0  0  0  0  0  0  0  0  0  0  0
   59.4700   34.3290   46.9120 C   0  0  0  0  0  0  0  0  0  0  0  0
   59.6160   35.0290   45.6940 C   0  0  0  0  0  0  0  0  0  0  0  0
   59.1090   34.4920   44.4970 C   0  0  0  0  0  0  0  0  0  0  0  0
   58.4600   33.2600   44.5540 C   0  0  0  0  0  0  0  0  0  0  0  0
   57.8710   32.4410   43.5000 C   0  0  0  0  0  0  0  0  0  0  0  0
   57.8890   32.7090   42.2710 O   0  0  0  0  0  0  0  0  0  0  0  0
   58.1380   27.8780   44.0430 N   0  0  0  0  0  0  0  0  0  0  0  0
   58.1090   26.5010   44.4460 C   0  0  0  0  0  0  0  0  0  0  0  0
   57.3940   25.5450   43.6990 C   0  0  0  0  0  0  0  0  0  0  0  0
   57.3480   24.2120   44.1150 C   0  0  0  0  0  0  0  0  0  0  0  0
   58.0140   23.8180   45.2760 C   0  0  0  0  0  0  0  0  0  0  0  0
   58.7420   24.7520   46.0170 C   0  0  0  0  0  0  0  0  0  0  0  0
   58.8190   26.0900   45.5980 C   0  0  0  0  0  0  0  0  0  0  0  0
   59.6150   27.0460   46.3980 C   0  0  0  0  0  0  0  0  0  0  0  0
   60.6570   26.6390   46.9810 O   0  0  0  0  0  0  0  0  0  0  0  0
   59.2120   28.4240   46.5050 N   0  0  0  0  0  0  0  0  0  0  0  0
   59.9010   29.4080   47.2930 C   0  0  0  0  0  0  0  0  0  0  0  0
   60.9010   30.2290   46.7380 C   0  0  0  0  0  0  0  0  0  0  0  0
   61.5240   31.2070   47.5180 C   0  0  0  0  0  0  0  0  0  0  0  0
   61.1500   31.3800   48.8530 C   0  0  0  0  0  0  0  0  0  0  0  0
   60.1450   30.5810   49.4080 C   0  0  0  0  0  0  0  0  0  0  0  0
   59.5220   29.5990   48.6320 C   0  0  0  0  0  0  0  0  0  0  0  0
   57.7296   29.8969   42.4945 H   0  0  0  0  0  0  0  0  0  0  0  0
   55.9905   30.0979   42.9147 H   0  0  0  0  0  0  0  0  0  0  0  0
   58.7008   32.5286   47.8864 H   0  0  0  0  0  0  0  0  0  0  0  0
   59.8697   34.7605   47.8416 H   0  0  0  0  0  0  0  0  0  0  0  0
   60.1301   36.0014   45.6815 H   0  0  0  0  0  0  0  0  0  0  0  0
   59.2215   35.0289   43.5435 H   0  0  0  0  0  0  0  0  0  0  0  0
   56.8683   25.8497   42.7820 H   0  0  0  0  0  0  0  0  0  0  0  0
   56.7859   23.4721   43.5263 H   0  0  0  0  0  0  0  0  0  0  0  0
   57.9657   22.7705   45.6083 H   0  0  0  0  0  0  0  0  0  0  0  0
   59.2588   24.4370   46.9355 H   0  0  0  0  0  0  0  0  0  0  0  0
   58.3280   28.7240   46.0310 H   0  0  0  0  0  0  0  0  0  0  0  0
   61.1933   30.1001   45.6854 H   0  0  0  0  0  0  0  0  0  0  0  0
   62.3093   31.8410   47.0806 H   0  0  0  0  0  0  0  0  0  0  0  0
   61.6463   32.1451   49.4681 H   0  0  0  0  0  0  0  0  0  0  0  0
   59.8445   30.7254   50.4562 H   0  0  0  0  0  0  0  0  0  0  0  0
   58.7316   28.9732   49.0720 H   0  0  0  0  0  0  0  0  0  0  0  0
  1  2  2  0
  2  3  1  0
  3  4  1  0
  4  5  1  0
  5  6  2  0
  5  7  1  0
  7  8  2  0
  8  9  1  0
  9 10  2  0
 10 11  1  0
 11 12  2  0
 12 13  1  0
 13 14  2  0
  2 15  1  0
 15 16  1  0
 16 17  2  0
 17 18  1  0
 18 19  2  0
 19 20  1  0
 20 21  2  0
 21 22  1  0
 22 23  2  0
 22 24  1  0
 24 25  1  0
 25 26  2  0
 26 27  1  0
 27 28  2  0
 28 29  1  0
 29 30  2  0
 13  4  1  0
 21 16  1  0
 30 25  1  0
 12  7  1  0
  3 31  1  0
  3 32  1  0
  8 33  1  0
  9 34  1  0
 10 35  1  0
 11 36  1  0
 17 37  1  0
 18 38  1  0
 19 39  1  0
 20 40  1  0
 24 41  1  0
 26 42  1  0
 27 43  1  0
 28 44  1  0
 29 45  1  0
 30 46  1  0
M  CHG  1  15  -1
M  END
>  <UniqueID>  (74) 
66

>  <SMILES>  (74) 
O=C(CN1C(=O)c2ccccc2C1=O)[N-]c1ccccc1C(=O)Nc1ccccc1

>  <Energy>  (74) 
93.04057006134853

>  <Genealogy>  (74) 
O=C(CN1C(=O)c2ccccc2C1=O)[N-]c1ccccc1C(=O)Nc1ccccc1 (protonated)
O=C(CN1C(=O)c2ccccc2C1=O)[N-]c1ccccc1C(=O)Nc1ccccc1 (3D coordinates assigned)
O=C(CN1C(=O)c2ccccc2C1=O)[N-]c1ccccc1C(=O)Nc1ccccc1 (nonaromatic ring conformer: 93.04057006134853 kcal/mol)

>  <smiles>  (74) 
O=C(CN1C(=O)c2ccccc2C1=O)Nc1ccccc1C(=O)Nc1ccccc1

>  <score_type>  (74) 
oracle

>  <origin>  (74) 
adg

>  <m_score__min__energy>  (74) 
-10.01

>  <m_primary>  (74) 
energy

$$$$
74:0
     RDKit          3D

 75 77  0  0  0  0  0  0  0  0999 V2000
   60.5890   29.3210   47.7870 C   0  0  0  0  0  0  0  0  0  0  0  0
   59.9940   28.2780   48.7300 C   0  0  0  0  0  0  0  0  0  0  0  0
   60.2760   26.8540   48.2280 C   0  0  0  0  0  0  0  0  0  0  0  0
   58.9890   26.0880   47.8620 C   0  0  0  0  0  0  0  0  0  0  0  0
   58.7640   25.9410   46.3460 C   0  0  0  0  0  0  0  0  0  0  0  0
   58.3040   27.2210   45.6990 C   0  0  0  0  0  0  0  0  0  0  0  0
   59.2350   28.1140   45.1450 C   0  0  0  0  0  0  0  0  0  0  0  0
   58.8040   29.2900   44.5240 C   0  0  0  0  0  0  0  0  0  0  0  0
   57.4300   29.5840   44.4320 C   0  0  0  0  0  0  0  0  0  0  0  0
   56.9430   30.7440   43.8060 O   0  0  0  0  0  0  0  0  0  0  0  0
   56.9060   32.0490   44.3830 C   0  0  0  0  0  0  0  0  0  0  0  0
   58.2000   32.8140   44.0810 C   0  0  0  0  0  0  0  0  0  0  0  0
   58.2060   34.1250   44.7680 N   0  0  0  0  0  0  0  0  0  0  0  0
   57.3030   34.1910   45.9280 C   0  0  0  0  0  0  0  0  0  0  0  0
   57.7590   33.3360   47.1250 C   0  0  0  0  0  0  0  0  0  0  0  0
   59.2260   33.2460   47.3080 N   0  0  0  0  0  0  0  0  0  0  0  0
   59.7570   32.5560   48.4830 C   0  0  0  0  0  0  0  0  0  0  0  0
   58.9020   31.9110   49.4050 C   0  0  0  0  0  0  0  0  0  0  0  0
   59.4090   31.2770   50.5390 C   0  0  0  0  0  0  0  0  0  0  0  0
   60.7810   31.2460   50.7780 C   0  0  0  0  0  0  0  0  0  0  0  0
   61.2600   30.6030   51.9210 O   0  0  0  0  0  0  0  0  0  0  0  0
   61.9440   29.3820   51.8570 C   0  0  0  0  0  0  0  0  0  0  0  0
   63.1750   29.3640   51.5750 O   0  0  0  0  0  0  0  0  0  0  0  0
   61.2390   28.1530   52.1040 N   0  0  0  0  0  0  0  0  0  0  0  0
   61.9190   26.8710   51.9040 C   0  0  0  0  0  0  0  0  0  0  0  0
   59.8480   28.2020   52.5570 C   0  0  0  0  0  0  0  0  0  0  0  0
   61.6670   31.8450   49.8680 C   0  0  0  0  0  0  0  0  0  0  0  0
   63.0800   31.8270   50.1330 N   0  0  0  0  0  0  0  0  0  0  0  0
   64.0830   32.2790   49.2090 C   0  0  0  0  0  0  0  0  0  0  0  0
   63.8580   32.2400   47.7980 N   0  0  0  0  0  0  0  0  0  0  0  0
   65.5640   32.6910   49.7700 S   0  0  0  0  0  0  0  0  0  0  0  0
   61.1490   32.5150   48.7440 C   0  0  0  0  0  0  0  0  0  0  0  0
   60.1610   33.6190   46.2230 C   0  0  0  0  0  0  0  0  0  0  0  0
   59.5500   34.5540   45.1760 C   0  0  0  0  0  0  0  0  0  0  0  0
   56.5040   28.6940   44.9920 C   0  0  0  0  0  0  0  0  0  0  0  0
   55.1440   28.9690   44.9190 O   0  0  0  0  0  0  0  0  0  0  0  0
   56.9360   27.5260   45.6270 C   0  0  0  0  0  0  0  0  0  0  0  0
   61.0493   30.1279   48.3762 H   0  0  0  0  0  0  0  0  0  0  0  0
   61.3533   28.8483   47.1527 H   0  0  0  0  0  0  0  0  0  0  0  0
   59.7931   29.7383   47.1527 H   0  0  0  0  0  0  0  0  0  0  0  0
   60.4383   28.4015   49.7287 H   0  0  0  0  0  0  0  0  0  0  0  0
   58.9046   28.4248   48.7708 H   0  0  0  0  0  0  0  0  0  0  0  0
   60.9153   26.9155   47.3349 H   0  0  0  0  0  0  0  0  0  0  0  0
   60.7696   26.3051   49.0436 H   0  0  0  0  0  0  0  0  0  0  0  0
   59.0466   25.0821   48.3033 H   0  0  0  0  0  0  0  0  0  0  0  0
   58.1448   26.6726   48.2563 H   0  0  0  0  0  0  0  0  0  0  0  0
   59.7101   25.6307   45.8784 H   0  0  0  0  0  0  0  0  0  0  0  0
   57.9722   25.1917   46.1991 H   0  0  0  0  0  0  0  0  0  0  0  0
   60.3099   27.8870   45.1999 H   0  0  0  0  0  0  0  0  0  0  0  0
   59.5423   29.9895   44.1049 H   0  0  0  0  0  0  0  0  0  0  0  0
   56.0530   32.6040   43.9655 H   0  0  0  0  0  0  0  0  0  0  0  0
   56.8010   31.9498   45.4735 H   0  0  0  0  0  0  0  0  0  0  0  0
   59.0592   32.2209   44.4275 H   0  0  0  0  0  0  0  0  0  0  0  0
   58.2654   32.9833   42.9961 H   0  0  0  0  0  0  0  0  0  0  0  0
   57.2373   35.2388   46.2562 H   0  0  0  0  0  0  0  0  0  0  0  0
   56.3331   33.7887   45.6001 H   0  0  0  0  0  0  0  0  0  0  0  0
   57.3273   33.7705   48.0387 H   0  0  0  0  0  0  0  0  0  0  0  0
   57.4115   32.3124   46.9214 H   0  0  0  0  0  0  0  0  0  0  0  0
   57.8168   31.9090   49.2249 H   0  0  0  0  0  0  0  0  0  0  0  0
   58.7202   30.7977   51.2502 H   0  0  0  0  0  0  0  0  0  0  0  0
   62.1556   26.4250   52.8813 H   0  0  0  0  0  0  0  0  0  0  0  0
   61.2626   26.1918   51.3402 H   0  0  0  0  0  0  0  0  0  0  0  0
   62.8495   27.0335   51.3402 H   0  0  0  0  0  0  0  0  0  0  0  0
   59.8203   28.2030   53.6567 H   0  0  0  0  0  0  0  0  0  0  0  0
   59.3708   29.1175   52.1774 H   0  0  0  0  0  0  0  0  0  0  0  0
   59.3075   27.3223   52.1774 H   0  0  0  0  0  0  0  0  0  0  0  0
   63.4060   31.4500   51.0520 H   0  0  0  0  0  0  0  0  0  0  0  0
   62.9900   31.8120   47.4050 H   0  0  0  0  0  0  0  0  0  0  0  0
   64.5790   32.6010   47.1360 H   0  0  0  0  0  0  0  0  0  0  0  0
   61.8406   33.0183   48.0523 H   0  0  0  0  0  0  0  0  0  0  0  0
   61.0305   34.1216   46.6718 H   0  0  0  0  0  0  0  0  0  0  0  0
   60.4349   32.6897   45.7021 H   0  0  0  0  0  0  0  0  0  0  0  0
   59.4853   35.5670   45.6000 H   0  0  0  0  0  0  0  0  0  0  0  0
   60.1963   34.5337   44.2861 H   0  0  0  0  0  0  0  0  0  0  0  0
   56.1992   26.8417   46.0730 H   0  0  0  0  0  0  0  0  0  0  0  0
  1  2  1  0
  2  3  1  0
  3  4  1  0
  4  5  1  0
  5  6  1  0
  6  7  2  0
  7  8  1  0
  8  9  2  0
  9 10  1  0
 10 11  1  0
 11 12  1  0
 12 13  1  0
 13 14  1  0
 14 15  1  0
 15 16  1  0
 16 17  1  0
 17 18  2  0
 18 19  1  0
 19 20  2  0
 20 21  1  0
 21 22  1  0
 22 23  2  0
 22 24  1  0
 24 25  1  0
 24 26  1  0
 20 27  1  0
 27 28  1  0
 28 29  1  0
 29 30  1  0
 29 31  2  0
 27 32  2  0
 16 33  1  0
 33 34  1  0
  9 35  1  0
 35 36  1  0
 35 37  2  0
 37  6  1  0
 34 13  1  0
 32 17  1  0
  1 38  1  0
  1 39  1  0
  1 40  1  0
  2 41  1  0
  2 42  1  0
  3 43  1  0
  3 44  1  0
  4 45  1  0
  4 46  1  0
  5 47  1  0
  5 48  1  0
  7 49  1  0
  8 50  1  0
 11 51  1  0
 11 52  1  0
 12 53  1  0
 12 54  1  0
 14 55  1  0
 14 56  1  0
 15 57  1  0
 15 58  1  0
 18 59  1  0
 19 60  1  0
 25 61  1  0
 25 62  1  0
 25 63  1  0
 26 64  1  0
 26 65  1  0
 26 66  1  0
 28 67  1  0
 30 68  1  0
 30 69  1  0
 32 70  1  0
 33 71  1  0
 33 72  1  0
 34 73  1  0
 34 74  1  0
 37 75  1  0
M  CHG  1  36  -1
M  END
>  <UniqueID>  (75) 
67

>  <SMILES>  (75) 
CCCCCc1ccc(OCCN2CCN(c3ccc(OC(=O)N(C)C)c(NC(N)=S)c3)CC2)c([O-])c1

>  <Energy>  (75) 
84.58727173794883

>  <Genealogy>  (75) 
CCCCCc1ccc(OCCN2CCN(c3ccc(OC(=O)N(C)C)c(NC(N)=S)c3)CC2)c([O-])c1 (protonated)
CCCCCc1ccc(OCCN2CCN(c3ccc(OC(=O)N(C)C)c(NC(N)=S)c3)CC2)c([O-])c1 (3D coordinates assigned)
CCCCCc1ccc(OCCN2CCN(c3ccc(OC(=O)N(C)C)c(NC(N)=S)c3)CC2)c([O-])c1 (nonaromatic ring conformer: 84.58727173794883 kcal/mol)

>  <smiles>  (75) 
CCCCCc1ccc(OCCN2CCN(c3ccc(OC(=O)N(C)C)c(NC(N)=S)c3)CC2)c(O)c1

>  <score_type>  (75) 
oracle

>  <origin>  (75) 
adg

>  <m_score__min__energy>  (75) 
-12.51

>  <m_primary>  (75) 
energy

$$$$
75:0
     RDKit          3D

 35 38  0  0  0  0  0  0  0  0999 V2000
   59.2550   27.9380   44.1350 C   0  0  0  0  0  0  0  0  0  0  0  0
   58.7910   28.6150   45.4610 C   0  0  2  0  0  0  0  0  0  0  0  0
   59.5590   27.9260   46.6450 C   0  0  0  0  0  0  0  0  0  0  0  0
   59.2770   26.4100   46.7540 C   0  0  0  0  0  0  0  0  0  0  0  0
   57.8150   26.1330   46.5700 C   0  0  0  0  0  0  0  0  0  0  0  0
   56.9160   27.0050   46.0050 C   0  0  0  0  0  0  0  0  0  0  0  0
   55.6930   26.3560   46.0000 C   0  0  0  0  0  0  0  0  0  0  0  0
   55.8450   25.1410   46.4870 O   0  0  0  0  0  0  0  0  0  0  0  0
   57.1060   24.9830   46.8260 C   0  0  0  0  0  0  0  0  0  0  0  0
   57.6270   23.8150   47.3680 O   0  0  0  0  0  0  0  0  0  0  0  0
   57.2430   28.4360   45.6660 C   0  0  2  0  0  0  0  0  0  0  0  0
   56.4180   28.9640   44.4600 C   0  0  0  0  0  0  0  0  0  0  0  0
   56.9190   30.3160   43.8880 C   0  0  0  0  0  0  0  0  0  0  0  0
   57.9770   30.9310   44.7600 C   0  0  0  0  0  0  0  0  0  0  0  0
   57.8390   32.0860   45.3820 C   0  0  0  0  0  0  0  0  0  0  0  0
   58.7330   32.1910   46.4270 O   0  0  0  0  0  0  0  0  0  0  0  0
   59.3680   30.9430   46.6580 C   0  0  0  0  0  0  0  0  0  0  0  0
   59.1170   30.1510   45.3540 C   0  0  1  0  0  0  0  0  0  0  0  0
   59.8626   27.0514   44.3691 H   0  0  0  0  0  0  0  0  0  0  0  0
   58.3740   27.6348   43.5503 H   0  0  0  0  0  0  0  0  0  0  0  0
   59.8557   28.6503   43.5503 H   0  0  0  0  0  0  0  0  0  0  0  0
   60.6387   28.0706   46.4924 H   0  0  0  0  0  0  0  0  0  0  0  0
   59.2073   28.3916   47.5775 H   0  0  0  0  0  0  0  0  0  0  0  0
   59.8466   25.8791   45.9770 H   0  0  0  0  0  0  0  0  0  0  0  0
   59.5820   26.0624   47.7521 H   0  0  0  0  0  0  0  0  0  0  0  0
   54.7447   26.7864   45.6457 H   0  0  0  0  0  0  0  0  0  0  0  0
   56.9455   29.0592   46.5222 H   0  0  0  0  0  0  0  0  0  0  0  0
   56.4614   28.2130   43.6575 H   0  0  0  0  0  0  0  0  0  0  0  0
   55.3960   29.1367   44.8284 H   0  0  0  0  0  0  0  0  0  0  0  0
   57.3383   30.1454   42.8855 H   0  0  0  0  0  0  0  0  0  0  0  0
   56.0649   31.0079   43.8458 H   0  0  0  0  0  0  0  0  0  0  0  0
   57.1093   32.8610   45.1047 H   0  0  0  0  0  0  0  0  0  0  0  0
   60.4456   31.0785   46.8323 H   0  0  0  0  0  0  0  0  0  0  0  0
   58.9793   30.4277   47.5488 H   0  0  0  0  0  0  0  0  0  0  0  0
   60.0407   30.0877   44.7601 H   0  0  0  0  0  0  0  0  0  0  0  0
  2  1  1  6
  2  3  1  0
  3  4  1  0
  4  5  1  0
  5  6  1  0
  6  7  2  0
  7  8  1  0
  8  9  1  0
  9 10  1  0
  6 11  1  0
 11 12  1  0
 12 13  1  0
 13 14  1  0
 14 15  2  0
 15 16  1  0
 16 17  1  0
 17 18  1  0
 11  2  1  0
 18 14  1  0
 18  2  1  0
  9  5  2  0
  1 19  1  0
  1 20  1  0
  1 21  1  0
  3 22  1  0
  3 23  1  0
  4 24  1  0
  4 25  1  0
  7 26  1  0
 11 27  1  1
 12 28  1  0
 12 29  1  0
 13 30  1  0
 13 31  1  0
 15 32  1  0
 17 33  1  0
 17 34  1  0
 18 35  1  6
M  CHG  1  10  -1
M  END
>  <UniqueID>  (76) 
68

>  <SMILES>  (76) 
C[C@]12CCc3c(coc3[O-])[C@@H]1CCC1=COCC12

>  <Energy>  (76) 
96.52681303354329

>  <Genealogy>  (76) 
CC12CCc3c(coc3[O-])C1CCC1=COCC12 (protonated)
C[C@]12CCc3c(coc3[O-])[C@@H]1CCC1=COCC12 (chirality)
C[C@]12CCc3c(coc3[O-])[C@@H]1CCC1=COCC12 (3D coordinates assigned)
C[C@]12CCc3c(coc3[O-])[C@@H]1CCC1=COCC12 (nonaromatic ring conformer: 96.52681303354329 kcal/mol)

>  <smiles>  (76) 
CC12CCc3c(coc3O)C1CCC1=COCC12

>  <score_type>  (76) 
oracle

>  <origin>  (76) 
adg

>  <m_score__min__energy>  (76) 
-9.4499999999999993

>  <m_primary>  (76) 
energy

$$$$
76:0
     RDKit          3D

 61 64  0  0  0  0  0  0  0  0999 V2000
   57.7045   32.7963   42.4222 H   0  0  0  0  0  0  0  0  0  0  0  0
   57.3910   31.9150   43.0010 C   0  0  0  0  0  0  0  0  0  0  0  0
   56.7960   30.8640   42.3790 N   0  0  0  0  0  0  0  0  0  0  0  0
   56.4000   29.7620   43.0660 C   0  0  0  0  0  0  0  0  0  0  0  0
   55.9227   28.9221   42.5399 H   0  0  0  0  0  0  0  0  0  0  0  0
   56.6040   29.7040   44.4470 C   0  0  0  0  0  0  0  0  0  0  0  0
   56.2110   28.6590   45.1200 N   0  0  0  0  0  0  0  0  0  0  0  0
   57.0190   27.7900   45.9950 C   0  0  2  0  0  0  0  0  0  0  0  0
   56.5333   27.7092   46.9786 H   0  0  0  0  0  0  0  0  0  0  0  0
   58.3610   28.4120   46.4030 C   0  0  0  0  0  0  0  0  0  0  0  0
   59.4040   28.4900   45.4550 C   0  0  0  0  0  0  0  0  0  0  0  0
   59.2561   28.0660   44.4509 H   0  0  0  0  0  0  0  0  0  0  0  0
   60.6220   29.0980   45.7730 C   0  0  0  0  0  0  0  0  0  0  0  0
   61.4354   29.1190   45.0327 H   0  0  0  0  0  0  0  0  0  0  0  0
   60.8070   29.6780   47.0280 C   0  0  0  0  0  0  0  0  0  0  0  0
   61.7717   30.1403   47.2842 H   0  0  0  0  0  0  0  0  0  0  0  0
   59.7680   29.6710   47.9570 C   0  0  0  0  0  0  0  0  0  0  0  0
   59.9093   30.1410   48.9415 H   0  0  0  0  0  0  0  0  0  0  0  0
   58.5460   29.0680   47.6410 C   0  0  0  0  0  0  0  0  0  0  0  0
   57.7188   29.1049   48.3651 H   0  0  0  0  0  0  0  0  0  0  0  0
   57.0250   26.3260   45.4630 C   0  0  0  0  0  0  0  0  0  0  0  0
   57.1116   26.3747   44.3675 H   0  0  0  0  0  0  0  0  0  0  0  0
   56.0912   25.8874   45.8445 H   0  0  0  0  0  0  0  0  0  0  0  0
   58.1360   25.3830   45.9720 C   0  0  0  0  0  0  0  0  0  0  0  0
   58.0027   25.2444   47.0551 H   0  0  0  0  0  0  0  0  0  0  0  0
   59.0960   25.8576   45.7206 H   0  0  0  0  0  0  0  0  0  0  0  0
   58.1360   24.0090   45.3090 C   0  0  0  0  0  0  0  0  0  0  0  0
   59.1731   23.6788   45.1497 H   0  0  0  0  0  0  0  0  0  0  0  0
   57.6175   23.2884   45.9585 H   0  0  0  0  0  0  0  0  0  0  0  0
   57.6175   24.0691   44.3408 H   0  0  0  0  0  0  0  0  0  0  0  0
   57.1980   30.7580   45.0660 N   0  0  0  0  0  0  0  0  0  0  0  0
   57.6030   31.8680   44.3890 C   0  0  0  0  0  0  0  0  0  0  0  0
   58.2150   32.9890   45.1440 C   0  0  0  0  0  0  0  0  0  0  0  0
   58.6660   34.1540   44.5040 C   0  0  0  0  0  0  0  0  0  0  0  0
   58.5558   34.2637   43.4150 H   0  0  0  0  0  0  0  0  0  0  0  0
   59.2550   35.1730   45.2550 C   0  0  0  0  0  0  0  0  0  0  0  0
   59.6021   36.0889   44.7544 H   0  0  0  0  0  0  0  0  0  0  0  0
   59.4030   35.0420   46.6010 N   0  0  0  0  0  0  0  0  0  0  0  0
   59.8530   35.8310   47.1150 H   0  0  0  0  0  0  0  0  0  0  0  0
   58.9820   33.9150   47.2560 C   0  0  0  0  0  0  0  0  0  0  0  0
   59.1260   33.7700   48.5420 N   0  0  0  0  0  0  0  0  0  0  0  0
   60.2260   33.0860   49.2160 C   0  0  0  0  0  0  0  0  0  0  0  0
   60.2072   33.3323   50.2879 H   0  0  0  0  0  0  0  0  0  0  0  0
   60.1141   31.9998   49.0835 H   0  0  0  0  0  0  0  0  0  0  0  0
   61.5670   33.5360   48.6120 C   0  0  0  0  0  0  0  0  0  0  0  0
   61.4682   34.6052   48.3729 H   0  0  0  0  0  0  0  0  0  0  0  0
   61.8890   32.7820   47.3110 C   0  0  0  0  0  0  0  0  0  0  0  0
   61.9015   31.7011   47.5148 H   0  0  0  0  0  0  0  0  0  0  0  0
   61.1177   33.0234   46.5648 H   0  0  0  0  0  0  0  0  0  0  0  0
   63.2670   33.2080   46.7530 C   0  0  0  0  0  0  0  0  0  0  0  0
   63.8389   32.3016   46.5052 H   0  0  0  0  0  0  0  0  0  0  0  0
   63.0812   33.8349   45.8684 H   0  0  0  0  0  0  0  0  0  0  0  0
   64.0260   33.9840   47.6670 O   0  0  0  0  0  0  0  0  0  0  0  0
   64.0890   33.3340   48.9210 C   0  0  0  0  0  0  0  0  0  0  0  0
   64.4023   32.2905   48.7696 H   0  0  0  0  0  0  0  0  0  0  0  0
   64.8132   33.8666   49.5550 H   0  0  0  0  0  0  0  0  0  0  0  0
   62.7180   33.3510   49.6230 C   0  0  0  0  0  0  0  0  0  0  0  0
   62.5769   32.3985   50.1548 H   0  0  0  0  0  0  0  0  0  0  0  0
   62.7002   34.1978   50.3248 H   0  0  0  0  0  0  0  0  0  0  0  0
   58.3810   32.8810   46.5330 C   0  0  0  0  0  0  0  0  0  0  0  0
   58.0360   31.9769   47.0561 H   0  0  0  0  0  0  0  0  0  0  0  0
  1  2  1  0
  2  3  1  0
  3  4  2  0
  4  5  1  0
  4  6  1  0
  6  7  2  0
  7  8  1  0
  8  9  1  1
  8 10  1  0
 10 11  2  0
 11 12  1  0
 11 13  1  0
 13 14  1  0
 13 15  2  0
 15 16  1  0
 15 17  1  0
 17 18  1  0
 17 19  2  0
 19 20  1  0
  8 21  1  0
 21 22  1  0
 21 23  1  0
 21 24  1  0
 24 25  1  0
 24 26  1  0
 24 27  1  0
 27 28  1  0
 27 29  1  0
 27 30  1  0
  6 31  1  0
 31 32  1  0
 32 33  1  0
 33 34  1  0
 34 35  1  0
 34 36  2  0
 36 37  1  0
 36 38  1  0
 38 39  1  0
 38 40  1  0
 40 41  2  0
 41 42  1  0
 42 43  1  0
 42 44  1  0
 42 45  1  0
 45 46  1  0
 45 47  1  0
 47 48  1  0
 47 49  1  0
 47 50  1  0
 50 51  1  0
 50 52  1  0
 50 53  1  0
 53 54  1  0
 54 55  1  0
 54 56  1  0
 54 57  1  0
 57 58  1  0
 57 59  1  0
 40 60  1  0
 60 61  1  0
 32  2  2  0
 60 33  2  0
 19 10  1  0
 57 45  1  0
M  CHG  1  31  -1
M  END
>  <UniqueID>  (77) 
69

>  <SMILES>  (77) 
CCC[C@H](/N=c1/cncc(-c2cc[nH]/c(=N\CC3CCOCC3)c2)[n-]1)c1ccccc1

>  <Energy>  (77) 
77.69719404436404

>  <Genealogy>  (77) 
CCCC(N=c1cncc(-c2cc[nH]c(=NCC3CCOCC3)c2)[n-]1)c1ccccc1 (protonated)
CCC[C@H](N=c1cncc(-c2cc[nH]c(=NCC3CCOCC3)c2)[n-]1)c1ccccc1 (chirality)
CCC[C@H](/N=c1/cncc(-c2cc[nH]/c(=N\CC3CCOCC3)c2)[n-]1)c1ccccc1 (cis-trans isomerization)
CCC[C@H](/N=c1/cncc(-c2cc[nH]/c(=N\CC3CCOCC3)c2)[n-]1)c1ccccc1 (3D coordinates assigned)
CCC[C@H](/N=c1/cncc(-c2cc[nH]/c(=N\CC3CCOCC3)c2)[n-]1)c1ccccc1 (nonaromatic ring conformer: 77.69719404436404 kcal/mol)

>  <smiles>  (77) 
CCCC(N=c1cncc(-c2cc[nH]c(=NCC3CCOCC3)c2)[nH]1)c1ccccc1

>  <score_type>  (77) 
oracle

>  <origin>  (77) 
adg

>  <m_score__min__energy>  (77) 
-11.109999999999999

>  <m_primary>  (77) 
energy

$$$$
77:0
     RDKit          3D

 22 23  0  0  0  0  0  0  0  0999 V2000
   58.8048   30.9545   47.4997 H   0  0  0  0  0  0  0  0  0  0  0  0
   58.7720   31.2130   46.4310 C   0  0  0  0  0  0  0  0  0  0  0  0
   58.6740   30.2380   45.5730 N   0  0  0  0  0  0  0  0  0  0  0  0
   57.4960   29.4840   45.2560 C   0  0  0  0  0  0  0  0  0  0  0  0
   57.2320   28.1810   45.6330 C   0  0  0  0  0  0  0  0  0  0  0  0
   58.1670   27.2610   46.3450 C   0  0  0  0  0  0  0  0  0  0  0  0
   58.0440   27.3820   47.4314 H   0  0  0  0  0  0  0  0  0  0  0  0
   57.9431   26.2213   46.0642 H   0  0  0  0  0  0  0  0  0  0  0  0
   59.2030   27.5017   46.0642 H   0  0  0  0  0  0  0  0  0  0  0  0
   55.9430   27.8830   45.3560 N   0  0  0  0  0  0  0  0  0  0  0  0
   55.3830   28.9610   44.8230 N   0  0  0  0  0  0  0  0  0  0  0  0
   54.3820   29.0220   44.5330 H   0  0  0  0  0  0  0  0  0  0  0  0
   56.2920   29.9480   44.7760 C   0  0  0  0  0  0  0  0  0  0  0  0
   56.0360   31.1250   44.4050 O   0  0  0  0  0  0  0  0  0  0  0  0
   58.8420   32.6410   46.0660 C   0  0  0  0  0  0  0  0  0  0  0  0
   59.9840   33.7130   46.6760 S   0  0  0  0  0  0  0  0  0  0  0  0
   59.5260   35.0320   45.7410 C   0  0  0  0  0  0  0  0  0  0  0  0
   59.9759   36.0351   45.7767 H   0  0  0  0  0  0  0  0  0  0  0  0
   58.4810   34.6370   44.9150 C   0  0  0  0  0  0  0  0  0  0  0  0
   57.9937   35.3121   44.1961 H   0  0  0  0  0  0  0  0  0  0  0  0
   58.1070   33.2990   45.0840 C   0  0  0  0  0  0  0  0  0  0  0  0
   57.3111   32.8153   44.4988 H   0  0  0  0  0  0  0  0  0  0  0  0
  1  2  1  0
  2  3  2  0
  3  4  1  0
  4  5  2  0
  5  6  1  0
  6  7  1  0
  6  8  1  0
  6  9  1  0
  5 10  1  0
 10 11  1  0
 11 12  1  0
 11 13  1  0
 13 14  2  0
  2 15  1  0
 15 16  1  0
 16 17  1  0
 17 18  1  0
 17 19  2  0
 19 20  1  0
 19 21  1  0
 21 22  1  0
 13  4  1  0
 21 15  2  0
M  CHG  1  10  -1
M  END
>  <UniqueID>  (78) 
70

>  <SMILES>  (78) 
Cc1[n-][nH]c(=O)c1/N=C\c1cccs1

>  <Energy>  (78) 
89.92284159251392

>  <Genealogy>  (78) 
Cc1[n-][nH]c(=O)c1N=Cc1cccs1 (protonated)
Cc1[n-][nH]c(=O)c1/N=C\c1cccs1 (cis-trans isomerization)
Cc1[n-][nH]c(=O)c1/N=C\c1cccs1 (3D coordinates assigned)
Cc1[n-][nH]c(=O)c1/N=C\c1cccs1 (optimized conformer: 89.92284159251392 kcal/mol)

>  <smiles>  (78) 
Cc1[nH][nH]c(=O)c1N=Cc1cccs1

>  <score_type>  (78) 
oracle

>  <origin>  (78) 
adg

>  <m_score__min__energy>  (78) 
-7.9500000000000002

>  <m_primary>  (78) 
energy

$$$$
78:0
     RDKit          3D

 57 60  0  0  0  0  0  0  0  0999 V2000
   61.3520   26.7530   45.7440 O   0  0  0  0  0  0  0  0  0  0  0  0
   60.1760   26.2030   46.4990 S   0  0  0  0  0  0  0  0  0  0  0  0
   60.0490   24.7370   46.1920 O   0  0  0  0  0  0  0  0  0  0  0  0
   60.4230   26.4200   48.2020 N   0  0  0  0  0  0  0  0  0  0  0  0
   59.6660   27.5710   48.6930 C   0  0  0  0  0  0  0  0  0  0  0  0
   60.4000   28.8630   48.3360 C   0  0  0  0  0  0  0  0  0  0  0  0
   60.0310   29.9730   49.2820 C   0  0  0  0  0  0  0  0  0  0  0  0
   60.8680   30.2880   50.3650 C   0  0  0  0  0  0  0  0  0  0  0  0
   60.5350   31.3350   51.2280 C   0  0  0  0  0  0  0  0  0  0  0  0
   59.3780   32.0840   51.0080 C   0  0  0  0  0  0  0  0  0  0  0  0
   58.5490   31.7880   49.9250 C   0  0  0  0  0  0  0  0  0  0  0  0
   58.8720   30.7360   49.0630 C   0  0  0  0  0  0  0  0  0  0  0  0
   58.6950   27.0240   46.0130 C   0  0  0  0  0  0  0  0  0  0  0  0
   57.4560   26.4140   46.2330 C   0  0  0  0  0  0  0  0  0  0  0  0
   56.2760   27.0650   45.8600 C   0  0  0  0  0  0  0  0  0  0  0  0
   56.3280   28.3330   45.2700 C   0  0  0  0  0  0  0  0  0  0  0  0
   55.1460   28.9510   44.8830 O   0  0  0  0  0  0  0  0  0  0  0  0
   57.5680   28.9640   45.0600 C   0  0  0  0  0  0  0  0  0  0  0  0
   57.6590   30.2740   44.3740 C   0  0  0  0  0  0  0  0  0  0  0  0
   58.3100   31.3280   45.0350 C   0  0  0  0  0  0  0  0  0  0  0  0
   58.4410   32.5890   44.4310 C   0  0  0  0  0  0  0  0  0  0  0  0
   59.0900   33.6840   45.0890 N   0  0  0  0  0  0  0  0  0  0  0  0
   59.1090   33.9580   46.8030 S   0  0  0  0  0  0  0  0  0  0  0  0
   58.8820   35.4180   47.0870 O   0  0  0  0  0  0  0  0  0  0  0  0
   57.9860   33.1810   47.4310 O   0  0  0  0  0  0  0  0  0  0  0  0
   60.6360   33.3910   47.4850 C   0  0  0  0  0  0  0  0  0  0  0  0
   61.3300   32.3670   46.8280 C   0  0  0  0  0  0  0  0  0  0  0  0
   62.5320   31.8780   47.3510 C   0  0  0  0  0  0  0  0  0  0  0  0
   63.0530   32.4170   48.5260 C   0  0  0  0  0  0  0  0  0  0  0  0
   62.3720   33.4360   49.1910 C   0  0  0  0  0  0  0  0  0  0  0  0
   61.1620   33.9220   48.6810 C   0  0  0  0  0  0  0  0  0  0  0  0
   60.5130   34.8980   49.3550 F   0  0  0  0  0  0  0  0  0  0  0  0
   57.9300   32.7840   43.1450 C   0  0  0  0  0  0  0  0  0  0  0  0
   57.2730   31.7450   42.4780 C   0  0  0  0  0  0  0  0  0  0  0  0
   57.1180   30.4950   43.0880 C   0  0  0  0  0  0  0  0  0  0  0  0
   56.4040   29.5080   42.4050 O   0  0  0  0  0  0  0  0  0  0  0  0
   58.7470   28.2980   45.4300 C   0  0  0  0  0  0  0  0  0  0  0  0
   58.6687   27.5772   48.2289 H   0  0  0  0  0  0  0  0  0  0  0  0
   59.5653   27.5003   49.7861 H   0  0  0  0  0  0  0  0  0  0  0  0
   61.4845   28.6878   48.3928 H   0  0  0  0  0  0  0  0  0  0  0  0
   60.1099   29.1603   47.3174 H   0  0  0  0  0  0  0  0  0  0  0  0
   61.7879   29.7090   50.5341 H   0  0  0  0  0  0  0  0  0  0  0  0
   61.1862   31.5696   52.0829 H   0  0  0  0  0  0  0  0  0  0  0  0
   59.1193   32.9083   51.6888 H   0  0  0  0  0  0  0  0  0  0  0  0
   57.6406   32.3830   49.7496 H   0  0  0  0  0  0  0  0  0  0  0  0
   58.2165   30.5049   48.2104 H   0  0  0  0  0  0  0  0  0  0  0  0
   57.4095   25.4195   46.7007 H   0  0  0  0  0  0  0  0  0  0  0  0
   55.3041   26.5791   46.0308 H   0  0  0  0  0  0  0  0  0  0  0  0
   58.7235   31.1635   46.0409 H   0  0  0  0  0  0  0  0  0  0  0  0
   60.9276   31.9448   45.8954 H   0  0  0  0  0  0  0  0  0  0  0  0
   63.0665   31.0672   46.8343 H   0  0  0  0  0  0  0  0  0  0  0  0
   64.0034   32.0377   48.9296 H   0  0  0  0  0  0  0  0  0  0  0  0
   62.7862   33.8589   50.1181 H   0  0  0  0  0  0  0  0  0  0  0  0
   58.0453   33.7615   42.6539 H   0  0  0  0  0  0  0  0  0  0  0  0
   56.8750   31.9116   41.4661 H   0  0  0  0  0  0  0  0  0  0  0  0
   55.9300   28.7460   42.8760 H   0  0  0  0  0  0  0  0  0  0  0  0
   59.7211   28.7803   45.2609 H   0  0  0  0  0  0  0  0  0  0  0  0
  1  2  2  0
  2  3  2  0
  2  4  1  0
  4  5  1  0
  5  6  1  0
  6  7  1  0
  7  8  2  0
  8  9  1  0
  9 10  2  0
 10 11  1  0
 11 12  2  0
  2 13  1  0
 13 14  2  0
 14 15  1  0
 15 16  2  0
 16 17  1  0
 16 18  1  0
 18 19  1  0
 19 20  2  0
 20 21  1  0
 21 22  1  0
 22 23  1  0
 23 24  2  0
 23 25  2  0
 23 26  1  0
 26 27  2  0
 27 28  1  0
 28 29  2  0
 29 30  1  0
 30 31  2  0
 31 32  1  0
 21 33  2  0
 33 34  1  0
 34 35  2  0
 35 36  1  0
 18 37  2  0
 12  7  1  0
 37 13  1  0
 35 19  1  0
 31 26  1  0
  5 38  1  0
  5 39  1  0
  6 40  1  0
  6 41  1  0
  8 42  1  0
  9 43  1  0
 10 44  1  0
 11 45  1  0
 12 46  1  0
 14 47  1  0
 15 48  1  0
 20 49  1  0
 27 50  1  0
 28 51  1  0
 29 52  1  0
 30 53  1  0
 33 54  1  0
 34 55  1  0
 36 56  1  0
 37 57  1  0
M  CHG  3   4  -1  17  -1  22  -1
M  END
>  <UniqueID>  (79) 
71

>  <SMILES>  (79) 
O=S(=O)([N-]CCc1ccccc1)c1ccc([O-])c(-c2cc([N-]S(=O)(=O)c3ccccc3F)ccc2O)c1

>  <Energy>  (79) 
65.7183425451788

>  <Genealogy>  (79) 
O=S(=O)([N-]CCc1ccccc1)c1ccc([O-])c(-c2cc([N-]S(=O)(=O)c3ccccc3F)ccc2O)c1 (protonated)
O=S(=O)([N-]CCc1ccccc1)c1ccc([O-])c(-c2cc([N-]S(=O)(=O)c3ccccc3F)ccc2O)c1 (3D coordinates assigned)
O=S(=O)([N-]CCc1ccccc1)c1ccc([O-])c(-c2cc([N-]S(=O)(=O)c3ccccc3F)ccc2O)c1 (optimized conformer: 65.7183425451788 kcal/mol)

>  <smiles>  (79) 
O=S(=O)(NCCc1ccccc1)c1ccc(O)c(-c2cc(NS(=O)(=O)c3ccccc3F)ccc2O)c1

>  <score_type>  (79) 
oracle

>  <origin>  (79) 
adg

>  <m_score__min__energy>  (79) 
-14.42

>  <m_primary>  (79) 
energy

$$$$
79:0
     RDKit          3D

 36 37  0  0  0  0  0  0  0  0999 V2000
   54.7670   26.3470   45.9960 N   0  0  0  0  0  0  0  0  0  0  0  0
   55.9610   25.6020   45.7250 C   0  0  0  0  0  0  0  0  0  0  0  0
   55.8710   24.2290   45.4540 C   0  0  0  0  0  0  0  0  0  0  0  0
   57.0220   23.4830   45.1960 C   0  0  0  0  0  0  0  0  0  0  0  0
   58.2730   24.1030   45.1950 C   0  0  0  0  0  0  0  0  0  0  0  0
   58.3750   25.4700   45.4600 C   0  0  0  0  0  0  0  0  0  0  0  0
   57.2220   26.2330   45.7150 C   0  0  0  0  0  0  0  0  0  0  0  0
   57.3300   27.6160   46.0730 N   0  0  0  0  0  0  0  0  0  0  0  0
   56.8660   28.7220   45.2900 C   0  0  0  0  0  0  0  0  0  0  0  0
   55.6300   28.8440   45.0840 O   0  0  0  0  0  0  0  0  0  0  0  0
   57.8180   29.6570   44.5950 C   0  0  0  0  0  0  0  0  0  0  0  0
   57.0620   30.8470   44.0000 C   0  0  0  0  0  0  0  0  0  0  0  0
   56.6440   31.7680   45.0530 N   0  0  0  0  0  0  0  0  0  0  0  0
   57.2700   33.0200   45.3670 C   0  0  0  0  0  0  0  0  0  0  0  0
   56.6440   34.0840   45.1220 O   0  0  0  0  0  0  0  0  0  0  0  0
   58.6190   33.1040   45.9620 C   0  0  0  0  0  0  0  0  0  0  0  0
   59.2370   31.9670   46.5080 C   0  0  0  0  0  0  0  0  0  0  0  0
   60.5480   32.0400   46.9900 C   0  0  0  0  0  0  0  0  0  0  0  0
   61.2550   33.2450   46.9210 C   0  0  0  0  0  0  0  0  0  0  0  0
   63.0630   33.3320   47.5320 Br  0  0  0  0  0  0  0  0  0  0  0  0
   60.6450   34.3810   46.3830 C   0  0  0  0  0  0  0  0  0  0  0  0
   59.3360   34.3110   45.8970 C   0  0  0  0  0  0  0  0  0  0  0  0
   54.7760   27.3900   45.9750 H   0  0  0  0  0  0  0  0  0  0  0  0
   53.8680   25.8700   46.2320 H   0  0  0  0  0  0  0  0  0  0  0  0
   54.8872   23.7370   45.4447 H   0  0  0  0  0  0  0  0  0  0  0  0
   56.9434   22.4047   44.9931 H   0  0  0  0  0  0  0  0  0  0  0  0
   59.1783   23.5144   44.9854 H   0  0  0  0  0  0  0  0  0  0  0  0
   59.3633   25.9529   45.4693 H   0  0  0  0  0  0  0  0  0  0  0  0
   58.5585   30.0247   45.3205 H   0  0  0  0  0  0  0  0  0  0  0  0
   58.3212   29.1128   43.7822 H   0  0  0  0  0  0  0  0  0  0  0  0
   57.7195   31.3775   43.2956 H   0  0  0  0  0  0  0  0  0  0  0  0
   56.1678   30.4746   43.4787 H   0  0  0  0  0  0  0  0  0  0  0  0
   58.6877   31.0152   46.5567 H   0  0  0  0  0  0  0  0  0  0  0  0
   61.0239   31.1483   47.4241 H   0  0  0  0  0  0  0  0  0  0  0  0
   61.1957   35.3323   46.3417 H   0  0  0  0  0  0  0  0  0  0  0  0
   58.8651   35.2048   45.4617 H   0  0  0  0  0  0  0  0  0  0  0  0
  1  2  1  0
  2  3  2  0
  3  4  1  0
  4  5  2  0
  5  6  1  0
  6  7  2  0
  7  8  1  0
  8  9  1  0
  9 10  2  0
  9 11  1  0
 11 12  1  0
 12 13  1  0
 13 14  1  0
 14 15  2  0
 14 16  1  0
 16 17  2  0
 17 18  1  0
 18 19  2  0
 19 20  1  0
 19 21  1  0
 21 22  2  0
  7  2  1  0
 22 16  1  0
  1 23  1  0
  1 24  1  0
  3 25  1  0
  4 26  1  0
  5 27  1  0
  6 28  1  0
 11 29  1  0
 11 30  1  0
 12 31  1  0
 12 32  1  0
 17 33  1  0
 18 34  1  0
 21 35  1  0
 22 36  1  0
M  CHG  2   8  -1  13  -1
M  END
>  <UniqueID>  (80) 
72

>  <SMILES>  (80) 
Nc1ccccc1[N-]C(=O)CC[N-]C(=O)c1ccc(Br)cc1

>  <Energy>  (80) 
38.79276677852679

>  <Genealogy>  (80) 
Nc1ccccc1[N-]C(=O)CC[N-]C(=O)c1ccc(Br)cc1 (protonated)
Nc1ccccc1[N-]C(=O)CC[N-]C(=O)c1ccc(Br)cc1 (3D coordinates assigned)
Nc1ccccc1[N-]C(=O)CC[N-]C(=O)c1ccc(Br)cc1 (optimized conformer: 38.79276677852679 kcal/mol)

>  <smiles>  (80) 
Nc1ccccc1NC(=O)CCNC(=O)c1ccc(Br)cc1

>  <score_type>  (80) 
oracle

>  <origin>  (80) 
adg

>  <m_score__min__energy>  (80) 
-11.029999999999999

>  <m_primary>  (80) 
energy

$$$$
80:0
     RDKit          3D

 46 49  0  0  0  0  0  0  0  0999 V2000
   58.7982   27.4323   45.2514 H   0  0  0  0  0  0  0  0  0  0  0  0
   57.7070   27.3010   45.2960 C   0  0  0  0  0  0  0  0  0  0  0  0
   56.9270   28.3400   45.3100 N   0  0  0  0  0  0  0  0  0  0  0  0
   57.3360   29.7180   45.2810 C   0  0  0  0  0  0  0  0  0  0  0  0
   58.1240   30.3050   46.2930 C   0  0  0  0  0  0  0  0  0  0  0  0
   58.4596   29.6984   47.1470 H   0  0  0  0  0  0  0  0  0  0  0  0
   58.4800   31.6540   46.2150 C   0  0  0  0  0  0  0  0  0  0  0  0
   59.1017   32.1019   47.0042 H   0  0  0  0  0  0  0  0  0  0  0  0
   58.0500   32.4390   45.1380 C   0  0  0  0  0  0  0  0  0  0  0  0
   58.4890   34.1430   45.0600 S   0  0  0  0  0  0  0  0  0  0  0  0
   59.6540   34.2990   44.1240 O   0  0  0  0  0  0  0  0  0  0  0  0
   57.3400   34.9660   44.5490 O   0  0  0  0  0  0  0  0  0  0  0  0
   58.9470   34.7180   46.6350 N   0  0  0  0  0  0  0  0  0  0  0  0
   60.0240   34.4030   47.2980 C   0  0  0  0  0  0  0  0  0  0  0  0
   61.1940   33.9420   46.6590 C   0  0  0  0  0  0  0  0  0  0  0  0
   61.2137   33.8184   45.5661 H   0  0  0  0  0  0  0  0  0  0  0  0
   62.3310   33.6420   47.4210 C   0  0  0  0  0  0  0  0  0  0  0  0
   63.5730   33.1230   46.7580 C   0  0  0  0  0  0  0  0  0  0  0  0
   64.2993   32.8195   47.5263 H   0  0  0  0  0  0  0  0  0  0  0  0
   63.3188   32.2558   46.1308 H   0  0  0  0  0  0  0  0  0  0  0  0
   64.0114   33.9132   46.1308 H   0  0  0  0  0  0  0  0  0  0  0  0
   62.2760   33.7720   48.8130 C   0  0  0  0  0  0  0  0  0  0  0  0
   63.1523   33.5193   49.4279 H   0  0  0  0  0  0  0  0  0  0  0  0
   61.1030   34.2240   49.4150 C   0  0  0  0  0  0  0  0  0  0  0  0
   61.0557   34.3328   50.5086 H   0  0  0  0  0  0  0  0  0  0  0  0
   60.0170   34.5310   48.6570 N   0  0  0  0  0  0  0  0  0  0  0  0
   59.1540   34.8710   49.1390 H   0  0  0  0  0  0  0  0  0  0  0  0
   57.2620   31.8630   44.1360 C   0  0  0  0  0  0  0  0  0  0  0  0
   56.9230   32.4734   43.2860 H   0  0  0  0  0  0  0  0  0  0  0  0
   56.9040   30.5130   44.2120 C   0  0  0  0  0  0  0  0  0  0  0  0
   56.2766   30.0711   43.4239 H   0  0  0  0  0  0  0  0  0  0  0  0
   57.1280   25.9460   45.3400 C   0  0  0  0  0  0  0  0  0  0  0  0
   57.8420   24.8920   44.8520 N   0  0  0  0  0  0  0  0  0  0  0  0
   57.3470   23.6280   44.8730 C   0  0  0  0  0  0  0  0  0  0  0  0
   58.0960   22.5600   44.3660 C   0  0  0  0  0  0  0  0  0  0  0  0
   59.0961   22.7389   43.9443 H   0  0  0  0  0  0  0  0  0  0  0  0
   57.5690   21.2630   44.3970 C   0  0  0  0  0  0  0  0  0  0  0  0
   58.1561   20.4223   43.9988 H   0  0  0  0  0  0  0  0  0  0  0  0
   56.2960   21.0340   44.9340 C   0  0  0  0  0  0  0  0  0  0  0  0
   55.8863   20.0134   44.9567 H   0  0  0  0  0  0  0  0  0  0  0  0
   55.5430   22.0990   45.4420 C   0  0  0  0  0  0  0  0  0  0  0  0
   54.5434   21.9166   45.8634 H   0  0  0  0  0  0  0  0  0  0  0  0
   56.0660   23.3960   45.4120 C   0  0  0  0  0  0  0  0  0  0  0  0
   55.3510   24.4440   45.9000 N   0  0  0  0  0  0  0  0  0  0  0  0
   55.8470   25.7100   45.8780 C   0  0  0  0  0  0  0  0  0  0  0  0
   55.1530   26.6540   46.3390 O   0  0  0  0  0  0  0  0  0  0  0  0
  1  2  1  0
  2  3  2  0
  3  4  1  0
  4  5  2  0
  5  6  1  0
  5  7  1  0
  7  8  1  0
  7  9  2  0
  9 10  1  0
 10 11  2  0
 10 12  2  0
 10 13  1  0
 13 14  2  3
 14 15  1  0
 15 16  1  0
 15 17  2  0
 17 18  1  0
 18 19  1  0
 18 20  1  0
 18 21  1  0
 17 22  1  0
 22 23  1  0
 22 24  2  0
 24 25  1  0
 24 26  1  0
 26 27  1  0
  9 28  1  0
 28 29  1  0
 28 30  2  0
 30 31  1  0
  2 32  1  0
 32 33  2  0
 33 34  1  0
 34 35  2  0
 35 36  1  0
 35 37  1  0
 37 38  1  0
 37 39  2  0
 39 40  1  0
 39 41  1  0
 41 42  1  0
 41 43  2  0
 43 44  1  0
 44 45  1  0
 45 46  2  0
 30  4  1  0
 45 32  1  0
 26 14  1  0
 43 34  1  0
M  CHG  1  44  -1
M  END
>  <UniqueID>  (81) 
73

>  <SMILES>  (81) 
Cc1cc[nH]c(=NS(=O)(=O)c2ccc(/N=C/c3nc4ccccc4[n-]c3=O)cc2)c1

>  <Energy>  (81) 
62.20787780351299

>  <Genealogy>  (81) 
Cc1cc[nH]c(=NS(=O)(=O)c2ccc(N=Cc3nc4ccccc4[n-]c3=O)cc2)c1 (protonated)
Cc1cc[nH]c(=NS(=O)(=O)c2ccc(/N=C/c3nc4ccccc4[n-]c3=O)cc2)c1 (cis-trans isomerization)
Cc1cc[nH]c(=NS(=O)(=O)c2ccc(/N=C/c3nc4ccccc4[n-]c3=O)cc2)c1 (3D coordinates assigned)
Cc1cc[nH]c(=NS(=O)(=O)c2ccc(/N=C/c3nc4ccccc4[n-]c3=O)cc2)c1 (optimized conformer: 62.20787780351299 kcal/mol)

>  <smiles>  (81) 
Cc1cc[nH]c(=NS(=O)(=O)c2ccc(N=Cc3nc4ccccc4[nH]c3=O)cc2)c1

>  <score_type>  (81) 
oracle

>  <origin>  (81) 
adg

>  <m_score__min__energy>  (81) 
-11.130000000000001

>  <m_primary>  (81) 
energy

$$$$
81:0
     RDKit          3D

 36 38  0  0  0  0  0  0  0  0999 V2000
   56.2210   21.7910   42.6230 O   0  0  0  0  0  0  0  0  0  0  0  0
   56.4890   22.1090   43.8120 C   0  0  0  0  0  0  0  0  0  0  0  0
   56.6080   23.5000   44.1360 N   0  0  0  0  0  0  0  0  0  0  0  0
   55.6020   24.2900   44.7790 C   0  0  0  0  0  0  0  0  0  0  0  0
   54.2800   23.9380   44.9020 C   0  0  0  0  0  0  0  0  0  0  0  0
   53.6480   24.8850   45.6210 N   0  0  0  0  0  0  0  0  0  0  0  0
   54.5300   25.8090   45.9760 N   0  0  0  0  0  0  0  0  0  0  0  0
   55.7390   25.4780   45.4800 C   0  0  0  0  0  0  0  0  0  0  0  0
   56.9890   26.2030   45.8120 C   0  0  0  0  0  0  0  0  0  0  0  0
   58.1010   25.6610   45.5850 O   0  0  0  0  0  0  0  0  0  0  0  0
   56.9790   27.4830   46.4630 N   0  0  0  0  0  0  0  0  0  0  0  0
   57.9180   28.5410   46.2340 C   0  0  0  0  0  0  0  0  0  0  0  0
   59.1640   28.4680   46.8670 C   0  0  0  0  0  0  0  0  0  0  0  0
   60.0860   29.5100   46.7420 C   0  0  0  0  0  0  0  0  0  0  0  0
   59.7710   30.6300   45.9740 C   0  0  0  0  0  0  0  0  0  0  0  0
   58.5430   30.7040   45.3130 C   0  0  0  0  0  0  0  0  0  0  0  0
   57.6090   29.6560   45.4140 C   0  0  0  0  0  0  0  0  0  0  0  0
   56.3570   29.7270   44.6250 C   0  0  0  0  0  0  0  0  0  0  0  0
   56.3870   30.0870   43.4180 O   0  0  0  0  0  0  0  0  0  0  0  0
   55.1430   29.3520   45.1850 O   0  0  0  0  0  0  0  0  0  0  0  0
   56.7270   21.0440   44.8160 C   0  0  0  0  0  0  0  0  0  0  0  0
   55.8950   19.9100   44.8600 C   0  0  0  0  0  0  0  0  0  0  0  0
   56.0820   18.9310   45.8390 C   0  0  0  0  0  0  0  0  0  0  0  0
   57.0970   19.0740   46.7870 C   0  0  0  0  0  0  0  0  0  0  0  0
   57.9250   20.1970   46.7590 C   0  0  0  0  0  0  0  0  0  0  0  0
   57.7430   21.1820   45.7830 C   0  0  0  0  0  0  0  0  0  0  0  0
   58.5700   22.2590   45.7740 F   0  0  0  0  0  0  0  0  0  0  0  0
   53.8151   23.0334   44.4830 H   0  0  0  0  0  0  0  0  0  0  0  0
   59.4195   27.5828   47.4679 H   0  0  0  0  0  0  0  0  0  0  0  0
   61.0600   29.4468   47.2493 H   0  0  0  0  0  0  0  0  0  0  0  0
   60.4911   31.4571   45.8885 H   0  0  0  0  0  0  0  0  0  0  0  0
   58.3033   31.5904   44.7073 H   0  0  0  0  0  0  0  0  0  0  0  0
   55.0913   19.7935   44.1180 H   0  0  0  0  0  0  0  0  0  0  0  0
   55.4287   18.0463   45.8630 H   0  0  0  0  0  0  0  0  0  0  0  0
   57.2440   18.3014   47.5560 H   0  0  0  0  0  0  0  0  0  0  0  0
   58.7236   20.3078   47.5072 H   0  0  0  0  0  0  0  0  0  0  0  0
  1  2  2  0
  2  3  1  0
  3  4  1  0
  4  5  1  0
  5  6  2  0
  6  7  1  0
  7  8  1  0
  8  9  1  0
  9 10  2  0
  9 11  1  0
 11 12  1  0
 12 13  2  0
 13 14  1  0
 14 15  2  0
 15 16  1  0
 16 17  2  0
 17 18  1  0
 18 19  2  0
 18 20  1  0
  2 21  1  0
 21 22  2  0
 22 23  1  0
 23 24  2  0
 24 25  1  0
 25 26  2  0
 26 27  1  0
  8  4  2  0
 17 12  1  0
 26 21  1  0
  5 28  1  0
 13 29  1  0
 14 30  1  0
 15 31  1  0
 16 32  1  0
 22 33  1  0
 23 34  1  0
 24 35  1  0
 25 36  1  0
M  CHG  4   3  -1   7  -1  11  -1  20  -1
M  END
>  <UniqueID>  (82) 
74

>  <SMILES>  (82) 
O=C([N-]c1cn[n-]c1C(=O)[N-]c1ccccc1C(=O)[O-])c1ccccc1F

>  <Energy>  (82) 
89.5651781346175

>  <Genealogy>  (82) 
O=C([N-]c1cn[n-]c1C(=O)[N-]c1ccccc1C(=O)[O-])c1ccccc1F (protonated)
O=C([N-]c1cn[n-]c1C(=O)[N-]c1ccccc1C(=O)[O-])c1ccccc1F (3D coordinates assigned)
O=C([N-]c1cn[n-]c1C(=O)[N-]c1ccccc1C(=O)[O-])c1ccccc1F (optimized conformer: 89.5651781346175 kcal/mol)

>  <smiles>  (82) 
O=C(Nc1cn[nH]c1C(=O)Nc1ccccc1C(=O)O)c1ccccc1F

>  <score_type>  (82) 
oracle

>  <origin>  (82) 
adg

>  <m_score__min__energy>  (82) 
-15.119999999999999

>  <m_primary>  (82) 
energy

$$$$
82:0
     RDKit          3D

 36 37  0  0  0  0  0  0  0  0999 V2000
   63.0000   31.7480   47.5020 C   0  0  0  0  0  0  0  0  0  0  0  0
   62.6360   33.4840   47.3470 S   0  0  0  0  0  0  0  0  0  0  0  0
   63.1020   34.0010   46.0140 O   0  0  0  0  0  0  0  0  0  0  0  0
   63.3590   34.2270   48.4340 O   0  0  0  0  0  0  0  0  0  0  0  0
   60.9320   33.7540   47.5260 N   0  0  0  0  0  0  0  0  0  0  0  0
   59.9410   33.5820   46.5030 C   0  0  0  0  0  0  0  0  0  0  0  0
   59.3230   34.7200   45.9750 C   0  0  0  0  0  0  0  0  0  0  0  0
   58.3420   34.6000   44.9880 C   0  0  0  0  0  0  0  0  0  0  0  0
   57.9780   33.3400   44.5120 C   0  0  0  0  0  0  0  0  0  0  0  0
   58.6070   32.1850   45.0090 C   0  0  0  0  0  0  0  0  0  0  0  0
   58.2390   30.8730   44.5510 N   0  0  0  0  0  0  0  0  0  0  0  0
   56.9010   30.3530   44.5920 C   0  0  0  0  0  0  0  0  0  0  0  0
   55.9260   31.1060   44.8650 O   0  0  0  0  0  0  0  0  0  0  0  0
   56.6380   28.9260   44.2170 C   0  0  0  0  0  0  0  0  0  0  0  0
   57.3500   27.9990   45.1690 C   0  0  0  0  0  0  0  0  0  0  0  0
   58.7530   28.0340   45.2490 C   0  0  0  0  0  0  0  0  0  0  0  0
   59.4310   27.2050   46.1460 C   0  0  0  0  0  0  0  0  0  0  0  0
   58.7170   26.3400   46.9770 C   0  0  0  0  0  0  0  0  0  0  0  0
   57.3230   26.3020   46.9130 C   0  0  0  0  0  0  0  0  0  0  0  0
   56.6360   27.1290   46.0170 C   0  0  0  0  0  0  0  0  0  0  0  0
   55.2460   27.0770   45.9760 O   0  0  0  0  0  0  0  0  0  0  0  0
   59.5750   32.3120   46.0180 C   0  0  0  0  0  0  0  0  0  0  0  0
   63.0564   31.4789   48.5671 H   0  0  0  0  0  0  0  0  0  0  0  0
   62.2052   31.1620   47.0173 H   0  0  0  0  0  0  0  0  0  0  0  0
   63.9633   31.5306   47.0173 H   0  0  0  0  0  0  0  0  0  0  0  0
   59.6116   35.7169   46.3396 H   0  0  0  0  0  0  0  0  0  0  0  0
   57.8555   35.5006   44.5852 H   0  0  0  0  0  0  0  0  0  0  0  0
   57.1953   33.2499   43.7444 H   0  0  0  0  0  0  0  0  0  0  0  0
   58.9690   30.3010   44.0710 H   0  0  0  0  0  0  0  0  0  0  0  0
   55.5562   28.7319   44.2614 H   0  0  0  0  0  0  0  0  0  0  0  0
   57.0094   28.7482   43.1970 H   0  0  0  0  0  0  0  0  0  0  0  0
   59.3205   28.7184   44.6013 H   0  0  0  0  0  0  0  0  0  0  0  0
   60.5294   27.2339   46.1976 H   0  0  0  0  0  0  0  0  0  0  0  0
   59.2530   25.6881   47.6825 H   0  0  0  0  0  0  0  0  0  0  0  0
   56.7626   25.6197   47.5691 H   0  0  0  0  0  0  0  0  0  0  0  0
   60.0515   31.4116   46.4331 H   0  0  0  0  0  0  0  0  0  0  0  0
  1  2  1  0
  2  3  2  0
  2  4  2  0
  2  5  1  0
  5  6  1  0
  6  7  2  0
  7  8  1  0
  8  9  2  0
  9 10  1  0
 10 11  1  0
 11 12  1  0
 12 13  2  0
 12 14  1  0
 14 15  1  0
 15 16  2  0
 16 17  1  0
 17 18  2  0
 18 19  1  0
 19 20  2  0
 20 21  1  0
 10 22  2  0
 22  6  1  0
 20 15  1  0
  1 23  1  0
  1 24  1  0
  1 25  1  0
  7 26  1  0
  8 27  1  0
  9 28  1  0
 11 29  1  0
 14 30  1  0
 14 31  1  0
 16 32  1  0
 17 33  1  0
 18 34  1  0
 19 35  1  0
 22 36  1  0
M  CHG  2   5  -1  21  -1
M  END
>  <UniqueID>  (83) 
75

>  <SMILES>  (83) 
CS(=O)(=O)[N-]c1cccc(NC(=O)Cc2ccccc2[O-])c1

>  <Energy>  (83) 
37.39662604859618

>  <Genealogy>  (83) 
CS(=O)(=O)[N-]c1cccc(NC(=O)Cc2ccccc2[O-])c1 (protonated)
CS(=O)(=O)[N-]c1cccc(NC(=O)Cc2ccccc2[O-])c1 (3D coordinates assigned)
CS(=O)(=O)[N-]c1cccc(NC(=O)Cc2ccccc2[O-])c1 (optimized conformer: 37.39662604859618 kcal/mol)

>  <smiles>  (83) 
CS(=O)(=O)Nc1cccc(NC(=O)Cc2ccccc2O)c1

>  <score_type>  (83) 
oracle

>  <origin>  (83) 
adg

>  <m_score__min__energy>  (83) 
-12.15

>  <m_primary>  (83) 
energy

$$$$
83:0
     RDKit          3D

 55 58  0  0  0  0  0  0  0  0999 V2000
   56.0820   23.5960   43.7560 C   0  0  0  0  0  0  0  0  0  0  0  0
   55.0960   23.6980   44.8260 N   0  0  0  0  0  0  0  0  0  0  0  0
   55.5020   25.0270   45.8690 S   0  0  0  0  0  0  0  0  0  0  0  0
   54.3310   25.9660   45.9560 O   0  0  0  0  0  0  0  0  0  0  0  0
   55.8120   24.5120   47.2460 O   0  0  0  0  0  0  0  0  0  0  0  0
   56.8750   25.8930   45.2490 N   0  0  0  0  0  0  0  0  0  0  0  0
   57.2990   27.0600   45.6410 C   0  0  0  0  0  0  0  0  0  0  0  0
   58.1300   27.2250   46.7640 C   0  0  0  0  0  0  0  0  0  0  0  0
   58.5550   28.5080   47.1300 C   0  0  0  0  0  0  0  0  0  0  0  0
   59.3840   28.6830   48.2500 C   0  0  0  0  0  0  0  0  0  0  0  0
   59.8200   29.9650   48.6280 C   0  0  0  0  0  0  0  0  0  0  0  0
   60.6920   30.1440   49.8160 C   0  0  0  0  0  0  0  0  0  0  0  0
   60.2460   29.7690   51.0940 C   0  0  0  0  0  0  0  0  0  0  0  0
   61.0810   29.9470   52.1970 C   0  0  0  0  0  0  0  0  0  0  0  0
   62.3190   30.4790   52.0370 N   0  0  0  0  0  0  0  0  0  0  0  0
   62.7880   30.8550   50.8160 C   0  0  0  0  0  0  0  0  0  0  0  0
   64.1010   31.4160   50.6870 N   0  0  0  0  0  0  0  0  0  0  0  0
   64.3530   33.0250   50.0970 S   0  0  0  0  0  0  0  0  0  0  0  0
   65.6700   33.0940   49.3750 O   0  0  0  0  0  0  0  0  0  0  0  0
   64.3830   33.9760   51.2610 O   0  0  0  0  0  0  0  0  0  0  0  0
   63.0640   33.4490   48.9760 C   0  0  0  0  0  0  0  0  0  0  0  0
   61.8460   33.9630   49.4440 C   0  0  0  0  0  0  0  0  0  0  0  0
   60.8210   34.2720   48.5460 C   0  0  0  0  0  0  0  0  0  0  0  0
   61.0070   34.0810   47.1670 C   0  0  0  0  0  0  0  0  0  0  0  0
   59.8940   34.3710   46.2040 C   0  0  0  0  0  0  0  0  0  0  0  0
   62.2210   33.5520   46.7020 C   0  0  0  0  0  0  0  0  0  0  0  0
   63.2460   33.2430   47.6020 C   0  0  0  0  0  0  0  0  0  0  0  0
   61.9790   30.6930   49.6830 C   0  0  0  0  0  0  0  0  0  0  0  0
   59.4150   31.0730   47.8660 C   0  0  0  0  0  0  0  0  0  0  0  0
   58.5900   30.9100   46.7520 C   0  0  0  0  0  0  0  0  0  0  0  0
   58.1490   29.6290   46.3680 C   0  0  0  0  0  0  0  0  0  0  0  0
   57.3120   29.4190   45.2480 C   0  0  0  0  0  0  0  0  0  0  0  0
   56.8290   30.5480   44.3850 C   0  0  0  0  0  0  0  0  0  0  0  0
   56.9230   28.1540   44.9300 N   0  0  0  0  0  0  0  0  0  0  0  0
   57.0866   23.4921   44.1918 H   0  0  0  0  0  0  0  0  0  0  0  0
   55.8591   22.7161   43.1346 H   0  0  0  0  0  0  0  0  0  0  0  0
   56.0439   24.5029   43.1346 H   0  0  0  0  0  0  0  0  0  0  0  0
   58.4445   26.3501   47.3519 H   0  0  0  0  0  0  0  0  0  0  0  0
   59.6957   27.8072   48.8381 H   0  0  0  0  0  0  0  0  0  0  0  0
   59.2428   29.3369   51.2244 H   0  0  0  0  0  0  0  0  0  0  0  0
   60.7349   29.6552   53.1995 H   0  0  0  0  0  0  0  0  0  0  0  0
   64.9400   30.8440   50.9330 H   0  0  0  0  0  0  0  0  0  0  0  0
   61.6970   34.1235   50.5220 H   0  0  0  0  0  0  0  0  0  0  0  0
   59.8648   34.6663   48.9205 H   0  0  0  0  0  0  0  0  0  0  0  0
   58.9777   34.6097   46.7638 H   0  0  0  0  0  0  0  0  0  0  0  0
   60.1705   35.2271   45.5710 H   0  0  0  0  0  0  0  0  0  0  0  0
   59.7176   33.4888   45.5710 H   0  0  0  0  0  0  0  0  0  0  0  0
   62.3669   33.3797   45.6254 H   0  0  0  0  0  0  0  0  0  0  0  0
   64.1982   32.8369   47.2300 H   0  0  0  0  0  0  0  0  0  0  0  0
   62.3503   30.9947   48.6925 H   0  0  0  0  0  0  0  0  0  0  0  0
   59.7518   32.0808   48.1503 H   0  0  0  0  0  0  0  0  0  0  0  0
   58.2815   31.7902   46.1688 H   0  0  0  0  0  0  0  0  0  0  0  0
   56.4765   31.3721   45.0227 H   0  0  0  0  0  0  0  0  0  0  0  0
   57.6540   30.9030   43.7499 H   0  0  0  0  0  0  0  0  0  0  0  0
   56.0025   30.1964   43.7499 H   0  0  0  0  0  0  0  0  0  0  0  0
  1  2  1  0
  2  3  1  0
  3  4  2  0
  3  5  2  0
  3  6  1  0
  6  7  2  3
  7  8  1  0
  8  9  2  0
  9 10  1  0
 10 11  2  0
 11 12  1  0
 12 13  2  0
 13 14  1  0
 14 15  2  0
 15 16  1  0
 16 17  1  0
 17 18  1  0
 18 19  2  0
 18 20  2  0
 18 21  1  0
 21 22  2  0
 22 23  1  0
 23 24  2  0
 24 25  1  0
 24 26  1  0
 26 27  2  0
 16 28  2  0
 11 29  1  0
 29 30  2  0
 30 31  1  0
 31 32  2  0
 32 33  1  0
 32 34  1  0
 34  7  1  0
 31  9  1  0
 28 12  1  0
 27 21  1  0
  1 35  1  0
  1 36  1  0
  1 37  1  0
  8 38  1  0
 10 39  1  0
 13 40  1  0
 14 41  1  0
 17 42  1  0
 22 43  1  0
 23 44  1  0
 25 45  1  0
 25 46  1  0
 25 47  1  0
 26 48  1  0
 27 49  1  0
 28 50  1  0
 29 51  1  0
 30 52  1  0
 33 53  1  0
 33 54  1  0
 33 55  1  0
M  CHG  2   2  -1  34  -1
M  END
>  <UniqueID>  (84) 
76

>  <SMILES>  (84) 
C[N-]S(=O)(=O)N=c1cc2cc(-c3ccnc(NS(=O)(=O)c4ccc(C)cc4)c3)ccc2c(C)[n-]1

>  <Energy>  (84) 
71.06999920300541

>  <Genealogy>  (84) 
C[N-]S(=O)(=O)N=c1cc2cc(-c3ccnc(NS(=O)(=O)c4ccc(C)cc4)c3)ccc2c(C)[n-]1 (protonated)
C[N-]S(=O)(=O)N=c1cc2cc(-c3ccnc(NS(=O)(=O)c4ccc(C)cc4)c3)ccc2c(C)[n-]1 (3D coordinates assigned)
C[N-]S(=O)(=O)N=c1cc2cc(-c3ccnc(NS(=O)(=O)c4ccc(C)cc4)c3)ccc2c(C)[n-]1 (optimized conformer: 71.06999920300541 kcal/mol)

>  <smiles>  (84) 
CNS(=O)(=O)N=c1cc2cc(-c3ccnc(NS(=O)(=O)c4ccc(C)cc4)c3)ccc2c(C)[nH]1

>  <score_type>  (84) 
oracle

>  <origin>  (84) 
adg

>  <m_score__min__energy>  (84) 
-12.960000000000001

>  <m_primary>  (84) 
energy

$$$$
84:0
     RDKit          3D

 44 47  0  0  0  0  0  0  0  0999 V2000
   58.8100   28.7720   45.6850 C   0  0  0  0  0  0  0  0  0  0  0  0
   57.8520   27.6240   45.8060 C   0  0  0  0  0  0  0  0  0  0  0  0
   56.4740   27.6540   45.6150 C   0  0  0  0  0  0  0  0  0  0  0  0
   55.6350   28.7570   45.2450 N   0  0  0  0  0  0  0  0  0  0  0  0
   55.8750   29.6620   44.1580 C   0  0  0  0  0  0  0  0  0  0  0  0
   55.3190   29.4380   43.0520 O   0  0  0  0  0  0  0  0  0  0  0  0
   56.7690   30.8300   44.2860 C   0  0  0  0  0  0  0  0  0  0  0  0
   57.3390   31.4440   43.1600 C   0  0  0  0  0  0  0  0  0  0  0  0
   58.1890   32.5360   43.3340 C   0  0  0  0  0  0  0  0  0  0  0  0
   58.7100   33.0870   42.3260 O   0  0  0  0  0  0  0  0  0  0  0  0
   58.4470   33.0070   44.6310 C   0  0  0  0  0  0  0  0  0  0  0  0
   59.2940   34.1020   44.8800 C   0  0  0  0  0  0  0  0  0  0  0  0
   59.5120   34.5350   46.1900 C   0  0  0  0  0  0  0  0  0  0  0  0
   58.8890   33.8840   47.2600 C   0  0  0  0  0  0  0  0  0  0  0  0
   58.0450   32.7950   47.0240 C   0  0  0  0  0  0  0  0  0  0  0  0
   57.8210   32.3510   45.7150 C   0  0  0  0  0  0  0  0  0  0  0  0
   57.0210   31.3110   45.5010 O   0  0  0  0  0  0  0  0  0  0  0  0
   56.0410   26.3890   45.9290 C   0  0  0  0  0  0  0  0  0  0  0  0
   54.8420   26.0000   45.9280 O   0  0  0  0  0  0  0  0  0  0  0  0
   57.0980   25.6180   46.2560 N   0  0  0  0  0  0  0  0  0  0  0  0
   57.0380   24.2400   46.6630 C   0  0  0  0  0  0  0  0  0  0  0  0
   56.6170   23.9040   47.9600 C   0  0  0  0  0  0  0  0  0  0  0  0
   56.5690   22.5650   48.3600 C   0  0  0  0  0  0  0  0  0  0  0  0
   56.9470   21.5540   47.4710 C   0  0  0  0  0  0  0  0  0  0  0  0
   57.3780   21.8810   46.1830 C   0  0  0  0  0  0  0  0  0  0  0  0
   57.4270   23.2200   45.7800 C   0  0  0  0  0  0  0  0  0  0  0  0
   58.2010   26.3600   46.1620 N   0  0  0  0  0  0  0  0  0  0  0  0
   59.5640   25.8870   46.4140 C   0  0  0  0  0  0  0  0  0  0  0  0
   59.0978   29.1168   46.6891 H   0  0  0  0  0  0  0  0  0  0  0  0
   59.7069   28.4450   45.1386 H   0  0  0  0  0  0  0  0  0  0  0  0
   58.3278   29.5959   45.1386 H   0  0  0  0  0  0  0  0  0  0  0  0
   57.1176   31.0677   42.1503 H   0  0  0  0  0  0  0  0  0  0  0  0
   59.7854   34.6180   44.0420 H   0  0  0  0  0  0  0  0  0  0  0  0
   60.1760   35.3910   46.3809 H   0  0  0  0  0  0  0  0  0  0  0  0
   59.0637   34.2299   48.2895 H   0  0  0  0  0  0  0  0  0  0  0  0
   57.5561   32.2861   47.8678 H   0  0  0  0  0  0  0  0  0  0  0  0
   56.3240   24.6970   48.6637 H   0  0  0  0  0  0  0  0  0  0  0  0
   56.2335   22.3066   49.3752 H   0  0  0  0  0  0  0  0  0  0  0  0
   56.9050   20.5009   47.7859 H   0  0  0  0  0  0  0  0  0  0  0  0
   57.6790   21.0855   45.4854 H   0  0  0  0  0  0  0  0  0  0  0  0
   57.7718   23.4747   44.7670 H   0  0  0  0  0  0  0  0  0  0  0  0
   59.7366   25.8271   47.4987 H   0  0  0  0  0  0  0  0  0  0  0  0
   59.6951   24.8908   45.9663 H   0  0  0  0  0  0  0  0  0  0  0  0
   60.2840   26.5878   45.9663 H   0  0  0  0  0  0  0  0  0  0  0  0
  1  2  1  0
  2  3  2  0
  3  4  1  0
  4  5  1  0
  5  6  2  0
  5  7  1  0
  7  8  2  0
  8  9  1  0
  9 10  2  0
  9 11  1  0
 11 12  2  0
 12 13  1  0
 13 14  2  0
 14 15  1  0
 15 16  2  0
 16 17  1  0
  3 18  1  0
 18 19  2  0
 18 20  1  0
 20 21  1  0
 21 22  2  0
 22 23  1  0
 23 24  2  0
 24 25  1  0
 25 26  2  0
 20 27  1  0
 27 28  1  0
 27  2  1  0
 17  7  1  0
 26 21  1  0
 16 11  1  0
  1 29  1  0
  1 30  1  0
  1 31  1  0
  8 32  1  0
 12 33  1  0
 13 34  1  0
 14 35  1  0
 15 36  1  0
 22 37  1  0
 23 38  1  0
 24 39  1  0
 25 40  1  0
 26 41  1  0
 28 42  1  0
 28 43  1  0
 28 44  1  0
M  CHG  1   4  -1
M  END
>  <UniqueID>  (85) 
77

>  <SMILES>  (85) 
Cc1c([N-]C(=O)c2cc(=O)c3ccccc3o2)c(=O)n(-c2ccccc2)n1C

>  <Energy>  (85) 
100.85892213445022

>  <Genealogy>  (85) 
Cc1c([N-]C(=O)c2cc(=O)c3ccccc3o2)c(=O)n(-c2ccccc2)n1C (protonated)
Cc1c([N-]C(=O)c2cc(=O)c3ccccc3o2)c(=O)n(-c2ccccc2)n1C (3D coordinates assigned)
Cc1c([N-]C(=O)c2cc(=O)c3ccccc3o2)c(=O)n(-c2ccccc2)n1C (optimized conformer: 100.85892213445022 kcal/mol)

>  <smiles>  (85) 
Cc1c(NC(=O)c2cc(=O)c3ccccc3o2)c(=O)n(-c2ccccc2)n1C

>  <score_type>  (85) 
oracle

>  <origin>  (85) 
adg

>  <m_score__min__energy>  (85) 
-11.27

>  <m_primary>  (85) 
energy

$$$$
85:0
     RDKit          3D

 44 45  0  0  0  0  0  0  0  0999 V2000
   59.2910   33.5910   47.9290 C   0  0  0  0  0  0  0  0  0  0  0  0
   58.6850   32.7720   46.8280 C   0  0  0  0  0  0  0  0  0  0  0  0
   57.9920   33.3970   45.7840 C   0  0  0  0  0  0  0  0  0  0  0  0
   57.4480   32.6390   44.7470 C   0  0  0  0  0  0  0  0  0  0  0  0
   57.5970   31.2410   44.7230 C   0  0  0  0  0  0  0  0  0  0  0  0
   57.0600   30.4820   43.5270 C   0  0  0  0  0  0  0  0  0  0  0  0
   55.5870   30.0830   43.7140 C   0  0  0  0  0  0  0  0  0  0  0  0
   55.3950   29.2000   44.8640 N   0  0  0  0  0  0  0  0  0  0  0  0
   58.3000   30.6070   45.7780 C   0  0  0  0  0  0  0  0  0  0  0  0
   58.4960   29.1440   45.8250 C   0  0  0  0  0  0  0  0  0  0  0  0
   59.6360   28.6690   45.5840 O   0  0  0  0  0  0  0  0  0  0  0  0
   57.4270   28.2530   46.1690 N   0  0  0  0  0  0  0  0  0  0  0  0
   57.5390   26.7980   46.1910 C   0  0  0  0  0  0  0  0  0  0  0  0
   56.1980   26.1790   46.4730 C   0  0  0  0  0  0  0  0  0  0  0  0
   55.1690   26.7090   45.9760 O   0  0  0  0  0  0  0  0  0  0  0  0
   56.0530   24.9600   47.2160 N   0  0  0  0  0  0  0  0  0  0  0  0
   56.2340   23.6230   46.7300 C   0  0  0  0  0  0  0  0  0  0  0  0
   56.2230   22.5690   47.6460 C   0  0  0  0  0  0  0  0  0  0  0  0
   56.3910   21.2540   47.2100 C   0  0  0  0  0  0  0  0  0  0  0  0
   56.6060   20.9820   45.8550 C   0  0  0  0  0  0  0  0  0  0  0  0
   56.7580   19.6910   45.4700 F   0  0  0  0  0  0  0  0  0  0  0  0
   56.6730   22.0370   44.9210 C   0  0  0  0  0  0  0  0  0  0  0  0
   56.9170   21.7870   43.5220 N   0  0  0  0  0  0  0  0  0  0  0  0
   58.0540   21.4770   43.1120 O   0  0  0  0  0  0  0  0  0  0  0  0
   55.8930   21.8860   42.6070 O   0  0  0  0  0  0  0  0  0  0  0  0
   56.5010   23.3590   45.3760 C   0  0  0  0  0  0  0  0  0  0  0  0
   58.8510   31.3810   46.8090 C   0  0  0  0  0  0  0  0  0  0  0  0
   58.9864   33.1793   48.9025 H   0  0  0  0  0  0  0  0  0  0  0  0
   60.3875   33.5629   47.8459 H   0  0  0  0  0  0  0  0  0  0  0  0
   58.9435   34.6314   47.8459 H   0  0  0  0  0  0  0  0  0  0  0  0
   57.8760   34.4909   45.7816 H   0  0  0  0  0  0  0  0  0  0  0  0
   56.8960   33.1408   43.9386 H   0  0  0  0  0  0  0  0  0  0  0  0
   57.1451   31.1191   42.6343 H   0  0  0  0  0  0  0  0  0  0  0  0
   57.6507   29.5608   43.4152 H   0  0  0  0  0  0  0  0  0  0  0  0
   54.9895   30.9944   43.8636 H   0  0  0  0  0  0  0  0  0  0  0  0
   55.2680   29.5382   42.8132 H   0  0  0  0  0  0  0  0  0  0  0  0
   55.8340   29.6360   45.7070 H   0  0  0  0  0  0  0  0  0  0  0  0
   55.8770   28.2900   44.6820 H   0  0  0  0  0  0  0  0  0  0  0  0
   57.9034   26.4467   45.2144 H   0  0  0  0  0  0  0  0  0  0  0  0
   58.2441   26.5039   46.9824 H   0  0  0  0  0  0  0  0  0  0  0  0
   56.0812   22.7764   48.7169 H   0  0  0  0  0  0  0  0  0  0  0  0
   56.3542   20.4277   47.9352 H   0  0  0  0  0  0  0  0  0  0  0  0
   56.5765   24.1937   44.6636 H   0  0  0  0  0  0  0  0  0  0  0  0
   59.4202   30.8904   47.6123 H   0  0  0  0  0  0  0  0  0  0  0  0
  1  2  1  0
  2  3  2  0
  3  4  1  0
  4  5  2  0
  5  6  1  0
  6  7  1  0
  7  8  1  0
  5  9  1  0
  9 10  1  0
 10 11  2  0
 10 12  1  0
 12 13  1  0
 13 14  1  0
 14 15  2  0
 14 16  1  0
 16 17  1  0
 17 18  2  0
 18 19  1  0
 19 20  2  0
 20 21  1  0
 20 22  1  0
 22 23  1  0
 23 24  2  0
 23 25  1  0
 22 26  2  0
  9 27  2  0
 27  2  1  0
 26 17  1  0
  1 28  1  0
  1 29  1  0
  1 30  1  0
  3 31  1  0
  4 32  1  0
  6 33  1  0
  6 34  1  0
  7 35  1  0
  7 36  1  0
  8 37  1  0
  8 38  1  0
 13 39  1  0
 13 40  1  0
 18 41  1  0
 19 42  1  0
 26 43  1  0
 27 44  1  0
M  CHG  4  12  -1  16  -1  23   1  25  -1
M  END
>  <UniqueID>  (86) 
78

>  <SMILES>  (86) 
Cc1ccc(CCN)c(C(=O)[N-]CC(=O)[N-]c2ccc(F)c([N+](=O)[O-])c2)c1

>  <Energy>  (86) 
49.102624893073155

>  <Genealogy>  (86) 
Cc1ccc(CCN)c(C(=O)[N-]CC(=O)[N-]c2ccc(F)c([N+](=O)[O-])c2)c1 (protonated)
Cc1ccc(CCN)c(C(=O)[N-]CC(=O)[N-]c2ccc(F)c([N+](=O)[O-])c2)c1 (3D coordinates assigned)
Cc1ccc(CCN)c(C(=O)[N-]CC(=O)[N-]c2ccc(F)c([N+](=O)[O-])c2)c1 (optimized conformer: 49.102624893073155 kcal/mol)

>  <smiles>  (86) 
Cc1ccc(CCN)c(C(=O)NCC(=O)Nc2ccc(F)c([N+](=O)[O-])c2)c1

>  <score_type>  (86) 
oracle

>  <origin>  (86) 
adg

>  <m_score__min__energy>  (86) 
-11.300000000000001

>  <m_primary>  (86) 
energy

$$$$
86:0
     RDKit          3D

 65 68  0  0  0  0  0  0  0  0999 V2000
   60.5930   23.8940   45.6390 O   0  0  0  0  0  0  0  0  0  0  0  0
   59.5890   24.4670   46.1490 C   0  0  0  0  0  0  0  0  0  0  0  0
   58.3440   23.7630   46.2550 N   0  0  0  0  0  0  0  0  0  0  0  0
   57.4020   23.5780   45.1890 C   0  0  0  0  0  0  0  0  0  0  0  0
   57.6240   22.5980   44.2030 C   0  0  0  0  0  0  0  0  0  0  0  0
   56.6790   22.3840   43.1970 C   0  0  0  0  0  0  0  0  0  0  0  0
   55.5080   23.1370   43.1650 C   0  0  0  0  0  0  0  0  0  0  0  0
   55.2710   24.1090   44.1380 C   0  0  0  0  0  0  0  0  0  0  0  0
   56.2040   24.3290   45.1680 C   0  0  0  0  0  0  0  0  0  0  0  0
   55.9340   25.3710   46.1890 C   0  0  0  0  0  0  0  0  0  0  0  0
   55.8980   25.0520   47.4050 O   0  0  0  0  0  0  0  0  0  0  0  0
   55.7590   26.7500   45.8380 N   0  0  0  0  0  0  0  0  0  0  0  0
   56.7540   27.6040   45.2520 C   0  0  0  0  0  0  0  0  0  0  0  0
   57.7810   27.0860   44.4460 C   0  0  0  0  0  0  0  0  0  0  0  0
   58.7330   27.9430   43.8890 C   0  0  0  0  0  0  0  0  0  0  0  0
   58.6460   29.3220   44.0980 C   0  0  0  0  0  0  0  0  0  0  0  0
   57.5890   29.8600   44.8510 C   0  0  0  0  0  0  0  0  0  0  0  0
   57.5200   31.3430   45.1220 C   0  0  0  0  0  0  0  0  0  0  0  0
   58.4590   31.9900   44.3420 F   0  0  0  0  0  0  0  0  0  0  0  0
   57.7780   31.6060   46.4560 F   0  0  0  0  0  0  0  0  0  0  0  0
   56.2620   31.8370   44.8200 F   0  0  0  0  0  0  0  0  0  0  0  0
   56.6540   28.9890   45.4380 C   0  0  0  0  0  0  0  0  0  0  0  0
   59.6760   25.8850   46.5660 C   0  0  0  0  0  0  0  0  0  0  0  0
   60.6480   26.7340   46.0080 C   0  0  0  0  0  0  0  0  0  0  0  0
   60.7220   28.0780   46.3890 C   0  0  0  0  0  0  0  0  0  0  0  0
   59.8330   28.5990   47.3440 C   0  0  0  0  0  0  0  0  0  0  0  0
   59.9020   30.0200   47.7620 C   0  0  0  0  0  0  0  0  0  0  0  0
   60.2210   30.8960   46.9130 O   0  0  0  0  0  0  0  0  0  0  0  0
   59.5870   30.4180   49.1080 N   0  0  0  0  0  0  0  0  0  0  0  0
   59.7150   31.7960   49.5790 C   0  0  0  0  0  0  0  0  0  0  0  0
   58.7760   32.7360   48.8030 C   0  0  0  0  0  0  0  0  0  0  0  0
   59.3850   34.0710   48.5930 N   0  0  0  0  0  0  0  0  0  0  0  0
   58.9380   34.7060   47.3240 C   0  0  0  0  0  0  0  0  0  0  0  0
   60.0400   34.7630   46.2430 C   0  0  0  0  0  0  0  0  0  0  0  0
   60.8570   33.5460   46.2700 N   0  0  0  0  0  0  0  0  0  0  0  0
   61.5770   33.4020   47.5470 C   0  0  0  0  0  0  0  0  0  0  0  0
   60.8600   34.0780   48.7380 C   0  0  0  0  0  0  0  0  0  0  0  0
   58.8550   27.7540   47.8950 C   0  0  0  0  0  0  0  0  0  0  0  0
   58.7780   26.4110   47.5100 C   0  0  0  0  0  0  0  0  0  0  0  0
   58.5458   21.9981   44.2249 H   0  0  0  0  0  0  0  0  0  0  0  0
   56.8602   21.6187   42.4280 H   0  0  0  0  0  0  0  0  0  0  0  0
   54.7673   22.9651   42.3701 H   0  0  0  0  0  0  0  0  0  0  0  0
   54.3486   24.7071   44.0994 H   0  0  0  0  0  0  0  0  0  0  0  0
   57.8357   26.0044   44.2532 H   0  0  0  0  0  0  0  0  0  0  0  0
   59.5540   27.5310   43.2838 H   0  0  0  0  0  0  0  0  0  0  0  0
   59.4089   29.9895   43.6708 H   0  0  0  0  0  0  0  0  0  0  0  0
   55.8363   29.3990   46.0490 H   0  0  0  0  0  0  0  0  0  0  0  0
   61.3564   26.3380   45.2654 H   0  0  0  0  0  0  0  0  0  0  0  0
   61.4823   28.7321   45.9373 H   0  0  0  0  0  0  0  0  0  0  0  0
   59.2410   29.7120   49.7950 H   0  0  0  0  0  0  0  0  0  0  0  0
   59.4596   31.8354   50.6482 H   0  0  0  0  0  0  0  0  0  0  0  0
   60.7518   32.1258   49.4168 H   0  0  0  0  0  0  0  0  0  0  0  0
   58.5534   32.2880   47.8234 H   0  0  0  0  0  0  0  0  0  0  0  0
   57.8582   32.8678   49.3948 H   0  0  0  0  0  0  0  0  0  0  0  0
   58.0894   34.1300   46.9263 H   0  0  0  0  0  0  0  0  0  0  0  0
   58.6625   35.7443   47.5608 H   0  0  0  0  0  0  0  0  0  0  0  0
   59.5700   34.8603   45.2532 H   0  0  0  0  0  0  0  0  0  0  0  0
   60.6884   35.6283   46.4448 H   0  0  0  0  0  0  0  0  0  0  0  0
   60.2200   32.7270   46.1480 H   0  0  0  0  0  0  0  0  0  0  0  0
   61.6836   32.3297   47.7678 H   0  0  0  0  0  0  0  0  0  0  0  0
   62.5497   33.9019   47.4285 H   0  0  0  0  0  0  0  0  0  0  0  0
   61.1260   33.5409   49.6604 H   0  0  0  0  0  0  0  0  0  0  0  0
   61.1867   35.1278   48.7716 H   0  0  0  0  0  0  0  0  0  0  0  0
   58.1444   28.1513   48.6347 H   0  0  0  0  0  0  0  0  0  0  0  0
   58.0075   25.7611   47.9504 H   0  0  0  0  0  0  0  0  0  0  0  0
  1  2  2  0
  2  3  1  0
  3  4  1  0
  4  5  2  0
  5  6  1  0
  6  7  2  0
  7  8  1  0
  8  9  2  0
  9 10  1  0
 10 11  2  0
 10 12  1  0
 12 13  1  0
 13 14  2  0
 14 15  1  0
 15 16  2  0
 16 17  1  0
 17 18  1  0
 18 19  1  0
 18 20  1  0
 18 21  1  0
 17 22  2  0
  2 23  1  0
 23 24  2  0
 24 25  1  0
 25 26  2  0
 26 27  1  0
 27 28  2  0
 27 29  1  0
 29 30  1  0
 30 31  1  0
 31 32  1  0
 32 33  1  0
 33 34  1  0
 34 35  1  0
 35 36  1  0
 36 37  1  0
 26 38  1  0
 38 39  2  0
  9  4  1  0
 22 13  1  0
 39 23  1  0
 37 32  1  0
  5 40  1  0
  6 41  1  0
  7 42  1  0
  8 43  1  0
 14 44  1  0
 15 45  1  0
 16 46  1  0
 22 47  1  0
 24 48  1  0
 25 49  1  0
 29 50  1  0
 30 51  1  0
 30 52  1  0
 31 53  1  0
 31 54  1  0
 33 55  1  0
 33 56  1  0
 34 57  1  0
 34 58  1  0
 35 59  1  0
 36 60  1  0
 36 61  1  0
 37 62  1  0
 37 63  1  0
 38 64  1  0
 39 65  1  0
M  CHG  2   3  -1  12  -1
M  END
>  <UniqueID>  (87) 
79

>  <SMILES>  (87) 
O=C([N-]c1ccccc1C(=O)[N-]c1cccc(C(F)(F)F)c1)c1ccc(C(=O)NCCN2CCNCC2)cc1

>  <Energy>  (87) 
93.96215688081867

>  <Genealogy>  (87) 
O=C([N-]c1ccccc1C(=O)[N-]c1cccc(C(F)(F)F)c1)c1ccc(C(=O)NCCN2CCNCC2)cc1 (protonated)
O=C([N-]c1ccccc1C(=O)[N-]c1cccc(C(F)(F)F)c1)c1ccc(C(=O)NCCN2CCNCC2)cc1 (3D coordinates assigned)
O=C([N-]c1ccccc1C(=O)[N-]c1cccc(C(F)(F)F)c1)c1ccc(C(=O)NCCN2CCNCC2)cc1 (nonaromatic ring conformer: 93.96215688081867 kcal/mol)

>  <smiles>  (87) 
O=C(NCCN1CCNCC1)c1ccc(C(=O)Nc2ccccc2C(=O)Nc2cccc(C(F)(F)F)c2)cc1

>  <score_type>  (87) 
oracle

>  <origin>  (87) 
adg

>  <m_score__min__energy>  (87) 
-12.199999999999999

>  <m_primary>  (87) 
energy

$$$$
87:0
     RDKit          3D

 59 62  0  0  0  0  0  0  0  0999 V2000
   56.7010   24.8080   44.7740 C   0  0  0  0  0  0  0  0  0  0  0  0
   56.5820   26.1580   45.9270 S   0  0  0  0  0  0  0  0  0  0  0  0
   55.1680   26.6570   46.0030 O   0  0  0  0  0  0  0  0  0  0  0  0
   56.9990   25.6640   47.2830 O   0  0  0  0  0  0  0  0  0  0  0  0
   57.6410   27.4440   45.4470 N   0  0  0  0  0  0  0  0  0  0  0  0
   58.1510   28.4270   46.3670 C   0  0  0  0  0  0  0  0  0  0  0  0
   58.6330   28.0510   47.6310 C   0  0  0  0  0  0  0  0  0  0  0  0
   59.1160   28.9870   48.4880 N   0  0  0  0  0  0  0  0  0  0  0  0
   59.1580   30.3070   48.1710 C   0  0  0  0  0  0  0  0  0  0  0  0
   59.6690   31.2550   49.1240 N   0  0  0  0  0  0  0  0  0  0  0  0
   58.9410   32.5140   49.3390 C   0  0  0  0  0  0  0  0  0  0  0  0
   58.9800   33.3770   48.1050 C   0  0  0  0  0  0  0  0  0  0  0  0
   57.8700   33.4350   47.2480 C   0  0  0  0  0  0  0  0  0  0  0  0
   57.9170   34.2050   46.0820 C   0  0  0  0  0  0  0  0  0  0  0  0
   59.0720   34.9200   45.7600 C   0  0  0  0  0  0  0  0  0  0  0  0
   60.1820   34.8700   46.6090 C   0  0  0  0  0  0  0  0  0  0  0  0
   60.1370   34.1040   47.7790 C   0  0  0  0  0  0  0  0  0  0  0  0
   60.9740   31.0170   49.7610 C   0  0  0  0  0  0  0  0  0  0  0  0
   62.0420   31.8510   49.1020 C   0  0  0  0  0  0  0  0  0  0  0  0
   62.4040   31.6150   47.7650 C   0  0  0  0  0  0  0  0  0  0  0  0
   63.3690   32.4150   47.1430 C   0  0  0  0  0  0  0  0  0  0  0  0
   63.9740   33.4570   47.8510 C   0  0  0  0  0  0  0  0  0  0  0  0
   63.6190   33.6990   49.1820 C   0  0  0  0  0  0  0  0  0  0  0  0
   62.6590   32.9000   49.8070 C   0  0  0  0  0  0  0  0  0  0  0  0
   58.7020   30.7290   46.9180 C   0  0  0  0  0  0  0  0  0  0  0  0
   58.1970   29.7910   46.0110 C   0  0  0  0  0  0  0  0  0  0  0  0
   57.6860   30.2630   44.7110 C   0  0  0  0  0  0  0  0  0  0  0  0
   58.4730   31.1470   43.9540 C   0  0  0  0  0  0  0  0  0  0  0  0
   58.0220   31.6080   42.7170 C   0  0  0  0  0  0  0  0  0  0  0  0
   56.7800   31.1960   42.2270 C   0  0  0  0  0  0  0  0  0  0  0  0
   55.9840   30.3240   42.9760 C   0  0  0  0  0  0  0  0  0  0  0  0
   56.4260   29.8460   44.2190 C   0  0  0  0  0  0  0  0  0  0  0  0
   55.5850   28.9530   44.9660 N   0  0  0  0  0  0  0  0  0  0  0  0
   56.7845   23.8604   45.3263 H   0  0  0  0  0  0  0  0  0  0  0  0
   55.8013   24.7857   44.1415 H   0  0  0  0  0  0  0  0  0  0  0  0
   57.5907   24.9434   44.1415 H   0  0  0  0  0  0  0  0  0  0  0  0
   57.7790   27.5780   44.4200 H   0  0  0  0  0  0  0  0  0  0  0  0
   58.6193   26.9921   47.9287 H   0  0  0  0  0  0  0  0  0  0  0  0
   57.8935   32.2863   49.5859 H   0  0  0  0  0  0  0  0  0  0  0  0
   59.4212   33.0602   50.1643 H   0  0  0  0  0  0  0  0  0  0  0  0
   56.9581   32.8716   47.4951 H   0  0  0  0  0  0  0  0  0  0  0  0
   57.0419   34.2475   45.4168 H   0  0  0  0  0  0  0  0  0  0  0  0
   59.1088   35.5217   44.8399 H   0  0  0  0  0  0  0  0  0  0  0  0
   61.0921   35.4339   46.3566 H   0  0  0  0  0  0  0  0  0  0  0  0
   61.0110   34.0709   48.4461 H   0  0  0  0  0  0  0  0  0  0  0  0
   60.9113   31.2847   50.8261 H   0  0  0  0  0  0  0  0  0  0  0  0
   61.2347   29.9539   49.6523 H   0  0  0  0  0  0  0  0  0  0  0  0
   61.9266   30.7976   47.2047 H   0  0  0  0  0  0  0  0  0  0  0  0
   63.6513   32.2238   46.0972 H   0  0  0  0  0  0  0  0  0  0  0  0
   64.7303   34.0876   47.3609 H   0  0  0  0  0  0  0  0  0  0  0  0
   64.0965   34.5197   49.7373 H   0  0  0  0  0  0  0  0  0  0  0  0
   62.3844   33.0919   50.8547 H   0  0  0  0  0  0  0  0  0  0  0  0
   58.7402   31.7943   46.6466 H   0  0  0  0  0  0  0  0  0  0  0  0
   59.4493   31.4771   44.3385 H   0  0  0  0  0  0  0  0  0  0  0  0
   58.6447   32.2965   42.1268 H   0  0  0  0  0  0  0  0  0  0  0  0
   56.4277   31.5584   41.2500 H   0  0  0  0  0  0  0  0  0  0  0  0
   55.0037   30.0103   42.5878 H   0  0  0  0  0  0  0  0  0  0  0  0
   54.7660   28.4910   44.5130 H   0  0  0  0  0  0  0  0  0  0  0  0
   55.7600   28.7410   45.9740 H   0  0  0  0  0  0  0  0  0  0  0  0
  1  2  1  0
  2  3  2  0
  2  4  2  0
  2  5  1  0
  5  6  1  0
  6  7  2  0
  7  8  1  0
  8  9  2  0
  9 10  1  0
 10 11  1  0
 11 12  1  0
 12 13  2  0
 13 14  1  0
 14 15  2  0
 15 16  1  0
 16 17  2  0
 10 18  1  0
 18 19  1  0
 19 20  2  0
 20 21  1  0
 21 22  2  0
 22 23  1  0
 23 24  2  0
  9 25  1  0
 25 26  2  0
 26 27  1  0
 27 28  2  0
 28 29  1  0
 29 30  2  0
 30 31  1  0
 31 32  2  0
 32 33  1  0
 26  6  1  0
 32 27  1  0
 17 12  1  0
 24 19  1  0
  1 34  1  0
  1 35  1  0
  1 36  1  0
  5 37  1  0
  7 38  1  0
 11 39  1  0
 11 40  1  0
 13 41  1  0
 14 42  1  0
 15 43  1  0
 16 44  1  0
 17 45  1  0
 18 46  1  0
 18 47  1  0
 20 48  1  0
 21 49  1  0
 22 50  1  0
 23 51  1  0
 24 52  1  0
 25 53  1  0
 28 54  1  0
 29 55  1  0
 30 56  1  0
 31 57  1  0
 33 58  1  0
 33 59  1  0
M  END
>  <UniqueID>  (88) 
80

>  <SMILES>  (88) 
CS(=O)(=O)Nc1cnc(N(Cc2ccccc2)Cc2ccccc2)cc1-c1ccccc1N

>  <Energy>  (88) 
71.85860020396832

>  <Genealogy>  (88) 
CS(=O)(=O)Nc1cnc(N(Cc2ccccc2)Cc2ccccc2)cc1-c1ccccc1N (3D coordinates assigned)
CS(=O)(=O)Nc1cnc(N(Cc2ccccc2)Cc2ccccc2)cc1-c1ccccc1N (optimized conformer: 71.85860020396832 kcal/mol)

>  <smiles>  (88) 
CS(=O)(=O)Nc1cnc(N(Cc2ccccc2)Cc2ccccc2)cc1-c1ccccc1N

>  <score_type>  (88) 
oracle

>  <origin>  (88) 
adg

>  <m_score__min__energy>  (88) 
-10.81

>  <m_primary>  (88) 
energy

$$$$
88:0
     RDKit          3D

 55 58  0  0  0  0  0  0  0  0999 V2000
   63.0260   33.2280   47.1370 C   0  0  0  0  0  0  0  0  0  0  0  0
   61.7390   32.8510   47.6250 O   0  0  0  0  0  0  0  0  0  0  0  0
   60.5120   33.2680   47.0800 C   0  0  0  0  0  0  0  0  0  0  0  0
   60.3780   34.4890   46.3890 C   0  0  0  0  0  0  0  0  0  0  0  0
   59.1560   34.8440   45.8080 C   0  0  0  0  0  0  0  0  0  0  0  0
   58.0600   33.9840   45.8990 C   0  0  0  0  0  0  0  0  0  0  0  0
   58.1720   32.7770   46.5920 C   0  0  0  0  0  0  0  0  0  0  0  0
   59.3860   32.4220   47.2060 C   0  0  0  0  0  0  0  0  0  0  0  0
   59.4720   31.1380   47.9990 C   0  0  0  0  0  0  0  0  0  0  0  0
   59.6610   31.4040   49.4920 C   0  0  0  0  0  0  0  0  0  0  0  0
   58.4090   31.8460   50.1030 N   0  0  0  0  0  0  0  0  0  0  0  0
   57.6870   31.0400   51.0490 C   0  0  0  0  0  0  0  0  0  0  0  0
   57.8460   29.7910   51.0660 O   0  0  0  0  0  0  0  0  0  0  0  0
   56.7970   31.6890   52.0630 C   0  0  0  0  0  0  0  0  0  0  0  0
   55.6310   30.8530   52.3700 N   0  0  0  0  0  0  0  0  0  0  0  0
   54.3850   31.1070   51.9290 C   0  0  0  0  0  0  0  0  0  0  0  0
   53.5310   30.0920   52.3060 C   0  0  0  0  0  0  0  0  0  0  0  0
   52.0600   30.0280   51.9510 C   0  0  0  0  0  0  0  0  0  0  0  0
   51.3510   31.2790   52.4070 C   0  0  0  0  0  0  0  0  0  0  0  0
   51.0570   31.5570   53.6890 N   0  0  0  0  0  0  0  0  0  0  0  0
   50.4130   32.7450   53.6180 C   0  0  0  0  0  0  0  0  0  0  0  0
   49.9710   33.3410   54.6310 O   0  0  0  0  0  0  0  0  0  0  0  0
   50.2900   33.2410   52.3690 N   0  0  0  0  0  0  0  0  0  0  0  0
   50.9050   32.3070   51.6150 C   0  0  0  0  0  0  0  0  0  0  0  0
   51.0210   32.3850   50.2350 O   0  0  0  0  0  0  0  0  0  0  0  0
   54.2880   29.1740   53.0290 C   0  0  0  0  0  0  0  0  0  0  0  0
   53.8490   27.8410   53.5050 C   0  0  0  0  0  0  0  0  0  0  0  0
   54.6480   26.8640   53.4970 O   0  0  0  0  0  0  0  0  0  0  0  0
   52.5830   27.6650   54.0440 O   0  0  0  0  0  0  0  0  0  0  0  0
   55.5720   29.7070   53.0950 C   0  0  0  0  0  0  0  0  0  0  0  0
   56.7440   29.0370   53.7730 C   0  0  0  0  0  0  0  0  0  0  0  0
   57.5900   29.8540   54.7540 C   0  0  0  0  0  0  0  0  0  0  0  0
   56.5440   28.8990   55.2820 C   0  0  0  0  0  0  0  0  0  0  0  0
   63.6970   33.4246   47.9862 H   0  0  0  0  0  0  0  0  0  0  0  0
   63.4390   32.4131   46.5243 H   0  0  0  0  0  0  0  0  0  0  0  0
   62.9340   34.1369   46.5243 H   0  0  0  0  0  0  0  0  0  0  0  0
   61.2400   35.1673   46.3060 H   0  0  0  0  0  0  0  0  0  0  0  0
   59.0584   35.8030   45.2782 H   0  0  0  0  0  0  0  0  0  0  0  0
   57.1064   34.2578   45.4239 H   0  0  0  0  0  0  0  0  0  0  0  0
   57.3067   32.1010   46.6579 H   0  0  0  0  0  0  0  0  0  0  0  0
   58.5430   30.5671   47.8539 H   0  0  0  0  0  0  0  0  0  0  0  0
   60.3442   30.5722   47.6396 H   0  0  0  0  0  0  0  0  0  0  0  0
   59.9952   30.4785   49.9837 H   0  0  0  0  0  0  0  0  0  0  0  0
   60.4132   32.1969   49.6164 H   0  0  0  0  0  0  0  0  0  0  0  0
   58.0820   32.8090   49.9150 H   0  0  0  0  0  0  0  0  0  0  0  0
   57.3702   31.8557   52.9869 H   0  0  0  0  0  0  0  0  0  0  0  0
   56.4380   32.6419   51.6469 H   0  0  0  0  0  0  0  0  0  0  0  0
   54.0905   31.9956   51.3514 H   0  0  0  0  0  0  0  0  0  0  0  0
   51.9548   29.9295   50.8605 H   0  0  0  0  0  0  0  0  0  0  0  0
   51.6099   29.1603   52.4555 H   0  0  0  0  0  0  0  0  0  0  0  0
   57.0009   28.3941   52.9182 H   0  0  0  0  0  0  0  0  0  0  0  0
   58.6581   29.6241   54.8818 H   0  0  0  0  0  0  0  0  0  0  0  0
   57.8030   30.9245   54.8904 H   0  0  0  0  0  0  0  0  0  0  0  0
   56.8527   27.9757   55.7942 H   0  0  0  0  0  0  0  0  0  0  0  0
   55.6836   28.9904   55.9612 H   0  0  0  0  0  0  0  0  0  0  0  0
  1  2  1  0
  2  3  1  0
  3  4  2  0
  4  5  1  0
  5  6  2  0
  6  7  1  0
  7  8  2  0
  8  9  1  0
  9 10  1  0
 10 11  1  0
 11 12  1  0
 12 13  2  0
 12 14  1  0
 14 15  1  0
 15 16  1  0
 16 17  2  0
 17 18  1  0
 18 19  1  0
 19 20  1  0
 20 21  1  0
 21 22  2  0
 21 23  1  0
 23 24  1  0
 24 25  1  0
 17 26  1  0
 26 27  1  0
 27 28  2  0
 27 29  1  0
 26 30  2  0
 30 31  1  0
 31 32  1  0
 32 33  1  0
  8  3  1  0
 30 15  1  0
 33 31  1  0
 24 19  2  0
  1 34  1  0
  1 35  1  0
  1 36  1  0
  4 37  1  0
  5 38  1  0
  6 39  1  0
  7 40  1  0
  9 41  1  0
  9 42  1  0
 10 43  1  0
 10 44  1  0
 11 45  1  0
 14 46  1  0
 14 47  1  0
 16 48  1  0
 18 49  1  0
 18 50  1  0
 31 51  1  0
 32 52  1  0
 32 53  1  0
 33 54  1  0
 33 55  1  0
M  CHG  4  20  -1  23  -1  25  -1  29  -1
M  END
>  <UniqueID>  (89) 
81

>  <SMILES>  (89) 
COc1ccccc1CCNC(=O)Cn1cc(Cc2[n-]c(=O)[n-]c2[O-])c(C(=O)[O-])c1C1CC1

>  <Energy>  (89) 
375.4407007836753

>  <Genealogy>  (89) 
COc1ccccc1CCNC(=O)Cn1cc(Cc2[n-]c(=O)[n-]c2[O-])c(C(=O)[O-])c1C1CC1 (protonated)
COc1ccccc1CCNC(=O)Cn1cc(Cc2[n-]c(=O)[n-]c2[O-])c(C(=O)[O-])c1C1CC1 (3D coordinates assigned)
COc1ccccc1CCNC(=O)Cn1cc(Cc2[n-]c(=O)[n-]c2[O-])c(C(=O)[O-])c1C1CC1 (nonaromatic ring conformer: 375.4407007836753 kcal/mol)

>  <smiles>  (89) 
COc1ccccc1CCNC(=O)Cn1cc(Cc2[nH]c(=O)[nH]c2O)c(C(=O)O)c1C1CC1

>  <score_type>  (89) 
oracle

>  <origin>  (89) 
adg

>  <m_score__min__energy>  (89) 
-18.829999999999998

>  <m_primary>  (89) 
energy

$$$$
89:0
     RDKit          3D

 60 63  0  0  0  0  0  0  0  0999 V2000
   61.2690   29.4750   50.2810 C   0  0  0  0  0  0  0  0  0  0  0  0
   59.8490   29.9110   49.8970 C   0  0  1  0  0  0  0  0  0  0  0  0
   59.3600   31.0570   50.8180 C   0  0  0  0  0  0  0  0  0  0  0  0
   58.3920   31.9720   50.0690 C   0  0  0  0  0  0  0  0  0  0  0  0
   59.0590   32.5600   48.7750 C   0  0  2  0  0  0  0  0  0  0  0  0
   59.6880   33.9400   49.1380 C   0  0  0  0  0  0  0  0  0  0  0  0
   59.9760   34.8490   47.9360 C   0  0  0  0  0  0  0  0  0  0  0  0
   59.7180   34.1580   46.6010 C   0  0  1  0  0  0  0  0  0  0  0  0
   60.7610   33.2260   46.3080 O   0  0  0  0  0  0  0  0  0  0  0  0
   62.0870   33.3880   46.7190 C   0  0  0  0  0  0  0  0  0  0  0  0
   62.9320   33.9490   45.9660 O   0  0  0  0  0  0  0  0  0  0  0  0
   62.4880   32.8740   47.9930 N   0  0  0  0  0  0  0  0  0  0  0  0
   63.8870   32.6400   48.3290 C   0  0  0  0  0  0  0  0  0  0  0  0
   64.0100   32.2280   49.7720 C   0  0  0  0  0  0  0  0  0  0  0  0
   62.9560   32.0230   50.4390 O   0  0  0  0  0  0  0  0  0  0  0  0
   65.3320   32.0970   50.4350 C   0  0  0  0  0  0  0  0  0  0  0  0
   65.6330   30.9860   51.2500 C   0  0  0  0  0  0  0  0  0  0  0  0
   66.8890   30.8740   51.8550 C   0  0  0  0  0  0  0  0  0  0  0  0
   67.8580   31.8590   51.6480 C   0  0  0  0  0  0  0  0  0  0  0  0
   67.5710   32.9650   50.8370 C   0  0  0  0  0  0  0  0  0  0  0  0
   66.3160   33.0860   50.2360 C   0  0  0  0  0  0  0  0  0  0  0  0
   58.3320   33.4710   46.6420 C   0  0  1  0  0  0  0  0  0  0  0  0
   58.0600   32.6780   45.3740 C   0  0  0  0  0  0  0  0  0  0  0  0
   58.0840   33.3160   44.1190 C   0  0  0  0  0  0  0  0  0  0  0  0
   57.8350   32.5890   42.9470 C   0  0  0  0  0  0  0  0  0  0  0  0
   57.5580   31.2210   43.0160 C   0  0  0  0  0  0  0  0  0  0  0  0
   57.5280   30.5780   44.2600 C   0  0  0  0  0  0  0  0  0  0  0  0
   57.7730   31.3010   45.4280 C   0  0  0  0  0  0  0  0  0  0  0  0
   58.0340   32.6770   47.7910 O   0  0  0  0  0  0  0  0  0  0  0  0
   60.1050   31.7110   48.2890 O   0  0  0  0  0  0  0  0  0  0  0  0
   59.7820   30.3370   48.4160 C   0  0  0  0  0  0  0  0  0  0  0  0
   61.3602   29.4470   51.3769 H   0  0  0  0  0  0  0  0  0  0  0  0
   61.4688   28.4741   49.8707 H   0  0  0  0  0  0  0  0  0  0  0  0
   61.9961   30.1913   49.8707 H   0  0  0  0  0  0  0  0  0  0  0  0
   59.1807   29.0479   50.0332 H   0  0  0  0  0  0  0  0  0  0  0  0
   58.8480   30.6259   51.6910 H   0  0  0  0  0  0  0  0  0  0  0  0
   60.2295   31.6484   51.1410 H   0  0  0  0  0  0  0  0  0  0  0  0
   57.5001   31.3950   49.7833 H   0  0  0  0  0  0  0  0  0  0  0  0
   58.1162   32.8064   50.7306 H   0  0  0  0  0  0  0  0  0  0  0  0
   58.9933   34.4677   49.8080 H   0  0  0  0  0  0  0  0  0  0  0  0
   60.6604   33.7251   49.6052 H   0  0  0  0  0  0  0  0  0  0  0  0
   59.3302   35.7369   48.0034 H   0  0  0  0  0  0  0  0  0  0  0  0
   61.0420   35.1181   47.9705 H   0  0  0  0  0  0  0  0  0  0  0  0
   59.7141   34.9040   45.7927 H   0  0  0  0  0  0  0  0  0  0  0  0
   61.7490   32.5610   48.6640 H   0  0  0  0  0  0  0  0  0  0  0  0
   64.2868   31.8412   47.6871 H   0  0  0  0  0  0  0  0  0  0  0  0
   64.4559   33.5678   48.1695 H   0  0  0  0  0  0  0  0  0  0  0  0
   64.8764   30.2039   51.4106 H   0  0  0  0  0  0  0  0  0  0  0  0
   67.1144   30.0084   52.4953 H   0  0  0  0  0  0  0  0  0  0  0  0
   68.8464   31.7662   52.1218 H   0  0  0  0  0  0  0  0  0  0  0  0
   68.3352   33.7391   50.6734 H   0  0  0  0  0  0  0  0  0  0  0  0
   66.0944   33.9584   49.6036 H   0  0  0  0  0  0  0  0  0  0  0  0
   57.6456   34.3272   46.7178 H   0  0  0  0  0  0  0  0  0  0  0  0
   58.2998   34.3929   44.0580 H   0  0  0  0  0  0  0  0  0  0  0  0
   57.8576   33.0961   41.9711 H   0  0  0  0  0  0  0  0  0  0  0  0
   57.3640   30.6506   42.0957 H   0  0  0  0  0  0  0  0  0  0  0  0
   57.3109   29.5011   44.3163 H   0  0  0  0  0  0  0  0  0  0  0  0
   57.7415   30.7895   46.4013 H   0  0  0  0  0  0  0  0  0  0  0  0
   58.7648   30.1656   48.0339 H   0  0  0  0  0  0  0  0  0  0  0  0
   60.5045   29.7425   47.8375 H   0  0  0  0  0  0  0  0  0  0  0  0
  1  2  1  0
  2  3  1  0
  3  4  1  0
  4  5  1  0
  5  6  1  0
  6  7  1  0
  7  8  1  0
  8  9  1  0
  9 10  1  0
 10 11  2  0
 10 12  1  0
 12 13  1  0
 13 14  1  0
 14 15  2  0
 14 16  1  0
 16 17  2  0
 17 18  1  0
 18 19  2  0
 19 20  1  0
 20 21  2  0
  8 22  1  0
 22 23  1  0
 23 24  2  0
 24 25  1  0
 25 26  2  0
 26 27  1  0
 27 28  2  0
 22 29  1  0
  5 30  1  6
 30 31  1  0
 31  2  1  0
 29  5  1  0
 21 16  1  0
 28 23  1  0
  1 32  1  0
  1 33  1  0
  1 34  1  0
  2 35  1  6
  3 36  1  0
  3 37  1  0
  4 38  1  0
  4 39  1  0
  6 40  1  0
  6 41  1  0
  7 42  1  0
  7 43  1  0
  8 44  1  6
 12 45  1  0
 13 46  1  0
 13 47  1  0
 17 48  1  0
 18 49  1  0
 19 50  1  0
 20 51  1  0
 21 52  1  0
 22 53  1  6
 24 54  1  0
 25 55  1  0
 26 56  1  0
 27 57  1  0
 28 58  1  0
 31 59  1  0
 31 60  1  0
M  END
>  <UniqueID>  (90) 
82

>  <SMILES>  (90) 
C[C@H]1CC[C@@]2(CCC(OC(=O)NCC(=O)c3ccccc3)C(c3ccccc3)O2)OC1

>  <Energy>  (90) 
80.72818065838756

>  <Genealogy>  (90) 
C[C@H]1CC[C@@]2(CCC(OC(=O)NCC(=O)c3ccccc3)C(c3ccccc3)O2)OC1 (chirality)
C[C@H]1CC[C@@]2(CCC(OC(=O)NCC(=O)c3ccccc3)C(c3ccccc3)O2)OC1 (3D coordinates assigned)
C[C@H]1CC[C@@]2(CCC(OC(=O)NCC(=O)c3ccccc3)C(c3ccccc3)O2)OC1 (nonaromatic ring conformer: 80.72818065838756 kcal/mol)

>  <smiles>  (90) 
CC1CCC2(CCC(OC(=O)NCC(=O)c3ccccc3)C(c3ccccc3)O2)OC1

>  <score_type>  (90) 
oracle

>  <origin>  (90) 
adg

>  <m_score__min__energy>  (90) 
-9.0500000000000007

>  <m_primary>  (90) 
energy

$$$$
90:0
     RDKit          3D

 51 53  0  0  0  0  0  0  0  0999 V2000
   65.9900   32.3190   50.2350 C   0  0  0  0  0  0  0  0  0  0  0  0
   64.5530   32.2400   49.7280 C   0  0  0  0  0  0  0  0  0  0  0  0
   64.1880   33.4800   48.9090 C   0  0  0  0  0  0  0  0  0  0  0  0
   63.1980   33.0310   47.4930 S   0  0  0  0  0  0  0  0  0  0  0  0
   63.6610   31.6960   46.9820 O   0  0  0  0  0  0  0  0  0  0  0  0
   63.3720   34.0550   46.4070 O   0  0  0  0  0  0  0  0  0  0  0  0
   61.5230   32.9480   47.9490 N   0  0  0  0  0  0  0  0  0  0  0  0
   60.7390   34.1800   48.0650 C   0  0  0  0  0  0  0  0  0  0  0  0
   59.5740   34.1440   47.1130 C   0  0  0  0  0  0  0  0  0  0  0  0
   58.3700   33.5240   47.4880 C   0  0  0  0  0  0  0  0  0  0  0  0
   57.3120   33.4350   46.5780 C   0  0  0  0  0  0  0  0  0  0  0  0
   57.4510   33.9570   45.2890 C   0  0  0  0  0  0  0  0  0  0  0  0
   58.6500   34.5630   44.9050 C   0  0  0  0  0  0  0  0  0  0  0  0
   59.7110   34.6540   45.8120 C   0  0  0  0  0  0  0  0  0  0  0  0
   60.9140   31.6740   48.2100 C   0  0  0  0  0  0  0  0  0  0  0  0
   60.7710   31.2130   49.5250 C   0  0  0  0  0  0  0  0  0  0  0  0
   60.1520   29.9870   49.7750 C   0  0  0  0  0  0  0  0  0  0  0  0
   59.6650   29.2170   48.7160 C   0  0  0  0  0  0  0  0  0  0  0  0
   59.7910   29.6690   47.3900 C   0  0  0  0  0  0  0  0  0  0  0  0
   59.2570   28.8620   46.2630 C   0  0  0  0  0  0  0  0  0  0  0  0
   59.3970   27.4620   46.2580 C   0  0  0  0  0  0  0  0  0  0  0  0
   58.8960   26.7030   45.1970 C   0  0  0  0  0  0  0  0  0  0  0  0
   58.2460   27.3290   44.1260 C   0  0  0  0  0  0  0  0  0  0  0  0
   57.7330   26.5510   43.0410 N   0  0  0  0  0  0  0  0  0  0  0  0
   58.1030   28.7220   44.1240 C   0  0  0  0  0  0  0  0  0  0  0  0
   58.6050   29.4840   45.1830 C   0  0  0  0  0  0  0  0  0  0  0  0
   60.4230   30.9020   47.1480 C   0  0  0  0  0  0  0  0  0  0  0  0
   65.9912   32.3191   51.3350 H   0  0  0  0  0  0  0  0  0  0  0  0
   66.5567   31.4507   49.8678 H   0  0  0  0  0  0  0  0  0  0  0  0
   66.4580   33.2442   49.8678 H   0  0  0  0  0  0  0  0  0  0  0  0
   64.4440   31.3468   49.0952 H   0  0  0  0  0  0  0  0  0  0  0  0
   63.8793   32.1841   50.5957 H   0  0  0  0  0  0  0  0  0  0  0  0
   63.6182   34.1761   49.5420 H   0  0  0  0  0  0  0  0  0  0  0  0
   65.1145   33.9566   48.5563 H   0  0  0  0  0  0  0  0  0  0  0  0
   60.3644   34.2771   49.0947 H   0  0  0  0  0  0  0  0  0  0  0  0
   61.3799   35.0389   47.8169 H   0  0  0  0  0  0  0  0  0  0  0  0
   58.2595   33.1076   48.5001 H   0  0  0  0  0  0  0  0  0  0  0  0
   56.3692   32.9536   46.8770 H   0  0  0  0  0  0  0  0  0  0  0  0
   56.6158   33.8907   44.5762 H   0  0  0  0  0  0  0  0  0  0  0  0
   58.7597   34.9689   43.8885 H   0  0  0  0  0  0  0  0  0  0  0  0
   60.6557   35.1266   45.5050 H   0  0  0  0  0  0  0  0  0  0  0  0
   61.1474   31.8185   50.3627 H   0  0  0  0  0  0  0  0  0  0  0  0
   60.0474   29.6262   50.8089 H   0  0  0  0  0  0  0  0  0  0  0  0
   59.1799   28.2511   48.9204 H   0  0  0  0  0  0  0  0  0  0  0  0
   59.9046   26.9612   47.0955 H   0  0  0  0  0  0  0  0  0  0  0  0
   59.0127   25.6092   45.2030 H   0  0  0  0  0  0  0  0  0  0  0  0
   56.8040   26.7740   42.6160 H   0  0  0  0  0  0  0  0  0  0  0  0
   58.2760   25.7470   42.6550 H   0  0  0  0  0  0  0  0  0  0  0  0
   57.5934   29.2189   43.2853 H   0  0  0  0  0  0  0  0  0  0  0  0
   58.4893   30.5778   45.1716 H   0  0  0  0  0  0  0  0  0  0  0  0
   60.5331   31.2641   46.1151 H   0  0  0  0  0  0  0  0  0  0  0  0
  1  2  1  0
  2  3  1  0
  3  4  1  0
  4  5  2  0
  4  6  2  0
  4  7  1  0
  7  8  1  0
  8  9  1  0
  9 10  2  0
 10 11  1  0
 11 12  2  0
 12 13  1  0
 13 14  2  0
  7 15  1  0
 15 16  2  0
 16 17  1  0
 17 18  2  0
 18 19  1  0
 19 20  1  0
 20 21  2  0
 21 22  1  0
 22 23  2  0
 23 24  1  0
 23 25  1  0
 25 26  2  0
 19 27  2  0
 14  9  1  0
 27 15  1  0
 26 20  1  0
  1 28  1  0
  1 29  1  0
  1 30  1  0
  2 31  1  0
  2 32  1  0
  3 33  1  0
  3 34  1  0
  8 35  1  0
  8 36  1  0
 10 37  1  0
 11 38  1  0
 12 39  1  0
 13 40  1  0
 14 41  1  0
 16 42  1  0
 17 43  1  0
 18 44  1  0
 21 45  1  0
 22 46  1  0
 24 47  1  0
 24 48  1  0
 25 49  1  0
 26 50  1  0
 27 51  1  0
M  END
>  <UniqueID>  (91) 
83

>  <SMILES>  (91) 
CCCS(=O)(=O)N(Cc1ccccc1)c1cccc(-c2ccc(N)cc2)c1

>  <Energy>  (91) 
50.500888462577166

>  <Genealogy>  (91) 
CCCS(=O)(=O)N(Cc1ccccc1)c1cccc(-c2ccc(N)cc2)c1 (3D coordinates assigned)
CCCS(=O)(=O)N(Cc1ccccc1)c1cccc(-c2ccc(N)cc2)c1 (optimized conformer: 50.500888462577166 kcal/mol)

>  <smiles>  (91) 
CCCS(=O)(=O)N(Cc1ccccc1)c1cccc(-c2ccc(N)cc2)c1

>  <score_type>  (91) 
oracle

>  <origin>  (91) 
adg

>  <m_score__min__energy>  (91) 
-8.7799999999999994

>  <m_primary>  (91) 
energy

$$$$
91:0
     RDKit          3D

 48 52  0  0  0  0  0  0  0  0999 V2000
   59.5320   27.1119   47.4217 H   0  0  0  0  0  0  0  0  0  0  0  0
   58.7640   27.6690   46.8650 C   0  0  0  0  0  0  0  0  0  0  0  0
   58.7850   29.0690   46.8280 C   0  0  0  0  0  0  0  0  0  0  0  0
   59.8060   29.8470   47.5560 C   0  0  0  0  0  0  0  0  0  0  0  0
   60.5830   29.3720   48.6100 C   0  0  0  0  0  0  0  0  0  0  0  0
   60.5187   28.3561   49.0270 H   0  0  0  0  0  0  0  0  0  0  0  0
   61.4260   30.3310   49.0490 N   0  0  0  0  0  0  0  0  0  0  0  0
   62.1180   30.2470   49.8270 H   0  0  0  0  0  0  0  0  0  0  0  0
   61.1830   31.4160   48.2940 C   0  0  0  0  0  0  0  0  0  0  0  0
   61.7880   32.6670   48.4030 C   0  0  0  0  0  0  0  0  0  0  0  0
   62.5838   32.8504   49.1399 H   0  0  0  0  0  0  0  0  0  0  0  0
   61.3480   33.6880   47.5400 C   0  0  0  0  0  0  0  0  0  0  0  0
   61.8120   34.6841   47.5900 H   0  0  0  0  0  0  0  0  0  0  0  0
   60.3150   33.4410   46.6110 C   0  0  0  0  0  0  0  0  0  0  0  0
   59.9727   34.2489   45.9476 H   0  0  0  0  0  0  0  0  0  0  0  0
   59.7200   32.1700   46.5270 C   0  0  0  0  0  0  0  0  0  0  0  0
   58.9051   31.9722   45.8151 H   0  0  0  0  0  0  0  0  0  0  0  0
   60.1940   31.1660   47.3740 C   0  0  0  0  0  0  0  0  0  0  0  0
   57.8010   29.7320   46.1640 N   0  0  0  0  0  0  0  0  0  0  0  0
   56.8070   29.0640   45.5160 C   0  0  0  0  0  0  0  0  0  0  0  0
   55.8720   29.7040   44.8790 N   0  0  0  0  0  0  0  0  0  0  0  0
   56.0490   30.4430   43.6270 C   0  0  0  0  0  0  0  0  0  0  0  0
   56.9082   31.1222   43.7292 H   0  0  0  0  0  0  0  0  0  0  0  0
   55.1291   31.0108   43.4236 H   0  0  0  0  0  0  0  0  0  0  0  0
   56.3020   29.4880   42.4520 C   0  0  0  0  0  0  0  0  0  0  0  0
   56.8331   30.0350   41.6591 H   0  0  0  0  0  0  0  0  0  0  0  0
   55.3269   29.1197   42.1005 H   0  0  0  0  0  0  0  0  0  0  0  0
   57.1050   28.3290   42.8440 N   0  0  0  0  0  0  0  0  0  0  0  0
   56.8260   28.0000   43.7950 H   0  0  0  0  0  0  0  0  0  0  0  0
   56.9910   27.5580   42.1470 H   0  0  0  0  0  0  0  0  0  0  0  0
   58.1120   28.6080   42.8730 H   0  0  0  0  0  0  0  0  0  0  0  0
   56.7900   27.7070   45.5330 N   0  0  0  0  0  0  0  0  0  0  0  0
   57.7470   26.9910   46.1800 C   0  0  0  0  0  0  0  0  0  0  0  0
   57.6450   25.5200   46.2090 C   0  0  0  0  0  0  0  0  0  0  0  0
   57.8260   24.7210   47.3340 C   0  0  0  0  0  0  0  0  0  0  0  0
   58.0619   25.1000   48.3394 H   0  0  0  0  0  0  0  0  0  0  0  0
   57.6720   23.4150   47.0210 N   0  0  0  0  0  0  0  0  0  0  0  0
   57.7520   22.6030   47.6730 H   0  0  0  0  0  0  0  0  0  0  0  0
   57.3800   23.3790   45.7100 C   0  0  0  0  0  0  0  0  0  0  0  0
   57.1010   22.2480   44.9430 C   0  0  0  0  0  0  0  0  0  0  0  0
   57.1410   21.2406   45.3830 H   0  0  0  0  0  0  0  0  0  0  0  0
   56.7670   22.4350   43.5900 C   0  0  0  0  0  0  0  0  0  0  0  0
   56.4870   21.3620   42.8100 F   0  0  0  0  0  0  0  0  0  0  0  0
   56.7050   23.7360   43.0440 C   0  0  0  0  0  0  0  0  0  0  0  0
   56.4339   23.8716   41.9866 H   0  0  0  0  0  0  0  0  0  0  0  0
   56.9870   24.8590   43.8410 C   0  0  0  0  0  0  0  0  0  0  0  0
   56.9278   25.8767   43.4277 H   0  0  0  0  0  0  0  0  0  0  0  0
   57.3450   24.6430   45.1750 C   0  0  0  0  0  0  0  0  0  0  0  0
  1  2  1  0
  2  3  1  0
  3  4  1  0
  4  5  2  0
  5  6  1  0
  5  7  1  0
  7  8  1  0
  7  9  1  0
  9 10  2  0
 10 11  1  0
 10 12  1  0
 12 13  1  0
 12 14  2  0
 14 15  1  0
 14 16  1  0
 16 17  1  0
 16 18  2  0
  3 19  2  0
 19 20  1  0
 20 21  2  0
 21 22  1  0
 22 23  1  0
 22 24  1  0
 22 25  1  0
 25 26  1  0
 25 27  1  0
 25 28  1  0
 28 29  1  0
 28 30  1  0
 28 31  1  0
 20 32  1  0
 32 33  1  0
 33 34  1  0
 34 35  2  0
 35 36  1  0
 35 37  1  0
 37 38  1  0
 37 39  1  0
 39 40  2  0
 40 41  1  0
 40 42  1  0
 42 43  1  0
 42 44  2  0
 44 45  1  0
 44 46  1  0
 46 47  1  0
 46 48  2  0
 33  2  2  0
 48 34  1  0
 18  4  1  0
 48 39  1  0
 18  9  1  0
M  CHG  2  28   1  32  -1
M  END
>  <UniqueID>  (92) 
84

>  <SMILES>  (92) 
[NH3+]CC/N=c1\nc(-c2c[nH]c3ccccc23)cc(-c2c[nH]c3cc(F)ccc23)[n-]1

>  <Energy>  (92) 
125.68144627408049

>  <Genealogy>  (92) 
[NH3+]CCN=c1nc(-c2c[nH]c3ccccc23)cc(-c2c[nH]c3cc(F)ccc23)[n-]1 (protonated)
[NH3+]CC/N=c1\nc(-c2c[nH]c3ccccc23)cc(-c2c[nH]c3cc(F)ccc23)[n-]1 (cis-trans isomerization)
[NH3+]CC/N=c1\nc(-c2c[nH]c3ccccc23)cc(-c2c[nH]c3cc(F)ccc23)[n-]1 (3D coordinates assigned)
[NH3+]CC/N=c1\nc(-c2c[nH]c3ccccc23)cc(-c2c[nH]c3cc(F)ccc23)[n-]1 (optimized conformer: 125.68144627408049 kcal/mol)

>  <smiles>  (92) 
NCCN=c1nc(-c2c[nH]c3ccccc23)cc(-c2c[nH]c3cc(F)ccc23)[nH]1

>  <score_type>  (92) 
oracle

>  <origin>  (92) 
adg

>  <m_score__min__energy>  (92) 
-8.8800000000000008

>  <m_primary>  (92) 
energy

$$$$
92:0
     RDKit          3D

 55 59  0  0  0  0  0  0  0  0999 V2000
   64.1920   32.6500   46.4020 N   0  0  0  0  0  0  0  0  0  0  0  0
   62.8990   33.2110   47.4040 S   0  0  0  0  0  0  0  0  0  0  0  0
   61.8190   33.7970   46.5370 O   0  0  0  0  0  0  0  0  0  0  0  0
   63.4030   34.2760   48.3370 O   0  0  0  0  0  0  0  0  0  0  0  0
   62.2610   31.8650   48.3440 C   0  0  0  0  0  0  0  0  0  0  0  0
   62.7000   31.6380   49.6540 C   0  0  0  0  0  0  0  0  0  0  0  0
   62.1770   30.5750   50.3930 C   0  0  0  0  0  0  0  0  0  0  0  0
   61.2120   29.7340   49.8300 C   0  0  0  0  0  0  0  0  0  0  0  0
   60.7570   29.9510   48.5170 C   0  0  0  0  0  0  0  0  0  0  0  0
   59.7260   29.0650   47.9180 C   0  0  0  0  0  0  0  0  0  0  0  0
   58.7080   29.5990   47.1080 C   0  0  0  0  0  0  0  0  0  0  0  0
   57.7420   28.7650   46.5390 C   0  0  0  0  0  0  0  0  0  0  0  0
   57.7810   27.3780   46.7590 C   0  0  0  0  0  0  0  0  0  0  0  0
   56.7640   26.4840   46.1720 C   0  0  0  0  0  0  0  0  0  0  0  0
   55.4290   26.7030   46.2670 N   0  0  0  0  0  0  0  0  0  0  0  0
   54.7790   25.7240   45.6450 N   0  0  0  0  0  0  0  0  0  0  0  0
   55.7010   24.8760   45.1600 C   0  0  0  0  0  0  0  0  0  0  0  0
   55.4790   23.6840   44.4760 C   0  0  0  0  0  0  0  0  0  0  0  0
   56.6020   22.9060   44.1220 C   0  0  0  0  0  0  0  0  0  0  0  0
   56.4290   21.6100   43.4460 C   0  0  0  0  0  0  0  0  0  0  0  0
   56.8640   21.4680   42.2740 O   0  0  0  0  0  0  0  0  0  0  0  0
   55.8270   20.4860   44.1050 N   0  0  0  0  0  0  0  0  0  0  0  0
   56.1350   20.0260   45.4580 C   0  0  0  0  0  0  0  0  0  0  0  0
   55.6990   21.0380   46.4850 C   0  0  0  0  0  0  0  0  0  0  0  0
   56.6520   21.6720   47.2990 C   0  0  0  0  0  0  0  0  0  0  0  0
   56.2540   22.6380   48.2290 C   0  0  0  0  0  0  0  0  0  0  0  0
   54.9040   22.9750   48.3540 C   0  0  0  0  0  0  0  0  0  0  0  0
   53.9490   22.3420   47.5550 C   0  0  0  0  0  0  0  0  0  0  0  0
   54.3410   21.3730   46.6290 C   0  0  0  0  0  0  0  0  0  0  0  0
   57.9070   23.3580   44.4460 C   0  0  0  0  0  0  0  0  0  0  0  0
   58.0940   24.5650   45.1430 C   0  0  0  0  0  0  0  0  0  0  0  0
   56.9600   25.3080   45.4710 C   0  0  0  0  0  0  0  0  0  0  0  0
   58.7820   26.8460   47.5850 C   0  0  0  0  0  0  0  0  0  0  0  0
   59.7490   27.6790   48.1530 C   0  0  0  0  0  0  0  0  0  0  0  0
   61.2910   31.0250   47.7800 C   0  0  0  0  0  0  0  0  0  0  0  0
   64.2840   31.6230   46.5670 H   0  0  0  0  0  0  0  0  0  0  0  0
   65.0690   33.0910   46.7590 H   0  0  0  0  0  0  0  0  0  0  0  0
   63.4578   32.2979   50.1015 H   0  0  0  0  0  0  0  0  0  0  0  0
   62.5252   30.3985   51.4214 H   0  0  0  0  0  0  0  0  0  0  0  0
   60.8062   28.8974   50.4178 H   0  0  0  0  0  0  0  0  0  0  0  0
   58.6719   30.6823   46.9208 H   0  0  0  0  0  0  0  0  0  0  0  0
   56.9460   29.1972   45.9149 H   0  0  0  0  0  0  0  0  0  0  0  0
   54.4600   23.3587   44.2194 H   0  0  0  0  0  0  0  0  0  0  0  0
   55.6108   19.0769   45.6432 H   0  0  0  0  0  0  0  0  0  0  0  0
   57.2231   19.8882   45.5419 H   0  0  0  0  0  0  0  0  0  0  0  0
   57.7156   21.4078   47.2047 H   0  0  0  0  0  0  0  0  0  0  0  0
   57.0048   23.1329   48.8626 H   0  0  0  0  0  0  0  0  0  0  0  0
   54.5930   23.7390   49.0818 H   0  0  0  0  0  0  0  0  0  0  0  0
   52.8862   22.6073   47.6554 H   0  0  0  0  0  0  0  0  0  0  0  0
   53.5841   20.8696   46.0095 H   0  0  0  0  0  0  0  0  0  0  0  0
   58.7806   22.7590   44.1494 H   0  0  0  0  0  0  0  0  0  0  0  0
   59.1006   24.9115   45.4202 H   0  0  0  0  0  0  0  0  0  0  0  0
   58.8058   25.7650   47.7870 H   0  0  0  0  0  0  0  0  0  0  0  0
   60.5351   27.2468   48.7896 H   0  0  0  0  0  0  0  0  0  0  0  0
   60.9438   31.2066   46.7521 H   0  0  0  0  0  0  0  0  0  0  0  0
  1  2  1  0
  2  3  2  0
  2  4  2  0
  2  5  1  0
  5  6  2  0
  6  7  1  0
  7  8  2  0
  8  9  1  0
  9 10  1  0
 10 11  2  0
 11 12  1  0
 12 13  2  0
 13 14  1  0
 14 15  1  0
 15 16  1  0
 16 17  2  0
 17 18  1  0
 18 19  2  0
 19 20  1  0
 20 21  2  0
 20 22  1  0
 22 23  1  0
 23 24  1  0
 24 25  2  0
 25 26  1  0
 26 27  2  0
 27 28  1  0
 28 29  2  0
 19 30  1  0
 30 31  2  0
 31 32  1  0
 13 33  1  0
 33 34  2  0
  9 35  2  0
 35  5  1  0
 34 10  1  0
 32 14  2  0
 32 17  1  0
 29 24  1  0
  1 36  1  0
  1 37  1  0
  6 38  1  0
  7 39  1  0
  8 40  1  0
 11 41  1  0
 12 42  1  0
 18 43  1  0
 23 44  1  0
 23 45  1  0
 25 46  1  0
 26 47  1  0
 27 48  1  0
 28 49  1  0
 29 50  1  0
 30 51  1  0
 31 52  1  0
 33 53  1  0
 34 54  1  0
 35 55  1  0
M  CHG  2  15  -1  22  -1
M  END
>  <UniqueID>  (93) 
85

>  <SMILES>  (93) 
NS(=O)(=O)c1cccc(-c2ccc(-c3[n-]nc4cc(C(=O)[N-]Cc5ccccc5)ccc34)cc2)c1

>  <Energy>  (93) 
109.79904608636197

>  <Genealogy>  (93) 
NS(=O)(=O)c1cccc(-c2ccc(-c3[n-]nc4cc(C(=O)[N-]Cc5ccccc5)ccc34)cc2)c1 (protonated)
NS(=O)(=O)c1cccc(-c2ccc(-c3[n-]nc4cc(C(=O)[N-]Cc5ccccc5)ccc34)cc2)c1 (3D coordinates assigned)
NS(=O)(=O)c1cccc(-c2ccc(-c3[n-]nc4cc(C(=O)[N-]Cc5ccccc5)ccc34)cc2)c1 (optimized conformer: 109.79904608636197 kcal/mol)

>  <smiles>  (93) 
NS(=O)(=O)c1cccc(-c2ccc(-c3[nH]nc4cc(C(=O)NCc5ccccc5)ccc34)cc2)c1

>  <score_type>  (93) 
oracle

>  <origin>  (93) 
adg

>  <m_score__min__energy>  (93) 
-13.27

>  <m_primary>  (93) 
energy

$$$$
93:0
     RDKit          3D

 46 48  0  0  0  0  0  0  0  0999 V2000
   57.4090   31.7670   54.9880 C   0  0  0  0  0  0  0  0  0  0  0  0
   57.7600   31.7390   53.5240 C   0  0  0  0  0  0  0  0  0  0  0  0
   58.7070   32.6550   53.0350 C   0  0  0  0  0  0  0  0  0  0  0  0
   59.0540   32.6680   51.6830 C   0  0  0  0  0  0  0  0  0  0  0  0
   58.4490   31.7740   50.7880 C   0  0  0  0  0  0  0  0  0  0  0  0
   58.8090   31.7490   49.3970 N   0  0  0  0  0  0  0  0  0  0  0  0
   58.9900   30.5440   48.6340 C   0  0  0  0  0  0  0  0  0  0  0  0
   58.9830   29.4180   49.2020 O   0  0  0  0  0  0  0  0  0  0  0  0
   59.2470   30.6160   47.1570 C   0  0  0  0  0  0  0  0  0  0  0  0
   59.1490   32.0410   46.6720 C   0  0  0  0  0  0  0  0  0  0  0  0
   57.9550   32.4780   46.0710 C   0  0  0  0  0  0  0  0  0  0  0  0
   57.8420   33.7830   45.5840 C   0  0  0  0  0  0  0  0  0  0  0  0
   58.9200   34.6640   45.6830 C   0  0  0  0  0  0  0  0  0  0  0  0
   60.1150   34.2410   46.2680 C   0  0  0  0  0  0  0  0  0  0  0  0
   60.2430   32.9350   46.7580 C   0  0  0  0  0  0  0  0  0  0  0  0
   61.7830   32.4610   47.4680 Cl  0  0  0  0  0  0  0  0  0  0  0  0
   57.5190   30.8450   51.2730 C   0  0  0  0  0  0  0  0  0  0  0  0
   57.1560   30.8230   52.6290 C   0  0  0  0  0  0  0  0  0  0  0  0
   55.9580   29.6390   53.1770 S   0  0  0  0  0  0  0  0  0  0  0  0
   55.4200   30.0580   54.5170 O   0  0  0  0  0  0  0  0  0  0  0  0
   56.6100   28.2880   53.2790 O   0  0  0  0  0  0  0  0  0  0  0  0
   54.6450   29.5500   52.0470 N   0  0  0  0  0  0  0  0  0  0  0  0
   53.5320   30.4530   52.0000 C   0  0  0  0  0  0  0  0  0  0  0  0
   53.2160   31.1940   50.8450 C   0  0  0  0  0  0  0  0  0  0  0  0
   52.1250   32.0680   50.8480 C   0  0  0  0  0  0  0  0  0  0  0  0
   51.3410   32.2090   51.9970 C   0  0  0  0  0  0  0  0  0  0  0  0
   50.2580   33.0800   51.9970 O   0  0  0  0  0  0  0  0  0  0  0  0
   51.6480   31.4750   53.1440 C   0  0  0  0  0  0  0  0  0  0  0  0
   52.7400   30.6000   53.1460 C   0  0  0  0  0  0  0  0  0  0  0  0
   58.3287   31.6936   55.5870 H   0  0  0  0  0  0  0  0  0  0  0  0
   56.8924   32.7092   55.2232 H   0  0  0  0  0  0  0  0  0  0  0  0
   56.7495   30.9186   55.2232 H   0  0  0  0  0  0  0  0  0  0  0  0
   59.1798   33.3693   53.7250 H   0  0  0  0  0  0  0  0  0  0  0  0
   59.8058   33.3831   51.3178 H   0  0  0  0  0  0  0  0  0  0  0  0
   59.0440   32.6580   48.9380 H   0  0  0  0  0  0  0  0  0  0  0  0
   60.2553   30.2304   46.9459 H   0  0  0  0  0  0  0  0  0  0  0  0
   58.4920   30.0100   46.6348 H   0  0  0  0  0  0  0  0  0  0  0  0
   57.1034   31.7872   45.9836 H   0  0  0  0  0  0  0  0  0  0  0  0
   56.9013   34.1166   45.1216 H   0  0  0  0  0  0  0  0  0  0  0  0
   58.8281   35.6912   45.3003 H   0  0  0  0  0  0  0  0  0  0  0  0
   60.9622   34.9384   46.3447 H   0  0  0  0  0  0  0  0  0  0  0  0
   57.0658   30.1210   50.5799 H   0  0  0  0  0  0  0  0  0  0  0  0
   53.8291   31.0848   49.9383 H   0  0  0  0  0  0  0  0  0  0  0  0
   51.8827   32.6462   49.9441 H   0  0  0  0  0  0  0  0  0  0  0  0
   51.0305   31.5846   54.0477 H   0  0  0  0  0  0  0  0  0  0  0  0
   52.9778   30.0243   54.0527 H   0  0  0  0  0  0  0  0  0  0  0  0
  1  2  1  0
  2  3  2  0
  3  4  1  0
  4  5  2  0
  5  6  1  0
  6  7  1  0
  7  8  2  0
  7  9  1  0
  9 10  1  0
 10 11  2  0
 11 12  1  0
 12 13  2  0
 13 14  1  0
 14 15  2  0
 15 16  1  0
  5 17  1  0
 17 18  2  0
 18 19  1  0
 19 20  2  0
 19 21  2  0
 19 22  1  0
 22 23  1  0
 23 24  2  0
 24 25  1  0
 25 26  2  0
 26 27  1  0
 26 28  1  0
 28 29  2  0
 18  2  1  0
 29 23  1  0
 15 10  1  0
  1 30  1  0
  1 31  1  0
  1 32  1  0
  3 33  1  0
  4 34  1  0
  6 35  1  0
  9 36  1  0
  9 37  1  0
 11 38  1  0
 12 39  1  0
 13 40  1  0
 14 41  1  0
 17 42  1  0
 24 43  1  0
 25 44  1  0
 28 45  1  0
 29 46  1  0
M  CHG  2  22  -1  27  -1
M  END
>  <UniqueID>  (94) 
86

>  <SMILES>  (94) 
Cc1ccc(NC(=O)Cc2ccccc2Cl)cc1S(=O)(=O)[N-]c1ccc([O-])cc1

>  <Energy>  (94) 
57.1594700505517

>  <Genealogy>  (94) 
Cc1ccc(NC(=O)Cc2ccccc2Cl)cc1S(=O)(=O)[N-]c1ccc([O-])cc1 (protonated)
Cc1ccc(NC(=O)Cc2ccccc2Cl)cc1S(=O)(=O)[N-]c1ccc([O-])cc1 (3D coordinates assigned)
Cc1ccc(NC(=O)Cc2ccccc2Cl)cc1S(=O)(=O)[N-]c1ccc([O-])cc1 (optimized conformer: 57.1594700505517 kcal/mol)

>  <smiles>  (94) 
Cc1ccc(NC(=O)Cc2ccccc2Cl)cc1S(=O)(=O)Nc1ccc(O)cc1

>  <score_type>  (94) 
oracle

>  <origin>  (94) 
adg

>  <m_score__min__energy>  (94) 
-13.67

>  <m_primary>  (94) 
energy

$$$$
