0:0
     RDKit          3D

 37 38  0  0  0  0  0  0  0  0999 V2000
   55.1330   26.4630   45.9860 N   0  0  0  0  0  0  0  0  0  0  0  0
   56.8350   26.7510   45.9380 S   0  0  0  0  0  0  0  0  0  0  0  0
   57.4040   26.6360   47.3250 O   0  0  0  0  0  0  0  0  0  0  0  0
   57.4900   25.7200   45.0620 O   0  0  0  0  0  0  0  0  0  0  0  0
   57.1450   28.3640   45.3040 C   0  0  0  0  0  0  0  0  0  0  0  0
   56.1470   29.0560   44.6050 C   0  0  0  0  0  0  0  0  0  0  0  0
   56.3950   30.3420   44.1150 C   0  0  0  0  0  0  0  0  0  0  0  0
   57.6440   30.9480   44.3180 C   0  0  0  0  0  0  0  0  0  0  0  0
   57.9080   32.3360   43.8050 C   0  0  0  0  0  0  0  0  0  0  0  0
   58.5470   33.1390   44.8450 N   0  0  0  0  0  0  0  0  0  0  0  0
   57.8400   33.6190   45.9980 C   0  0  0  0  0  0  0  0  0  0  0  0
   56.6270   33.3250   46.1720 O   0  0  0  0  0  0  0  0  0  0  0  0
   58.5420   34.4720   47.0100 C   0  0  0  0  0  0  0  0  0  0  0  0
   60.0840   35.1700   46.3250 S   0  0  0  0  0  0  0  0  0  0  0  0
   61.1370   33.8320   46.8940 C   0  0  0  0  0  0  0  0  0  0  0  0
   62.5200   33.8810   46.6750 C   0  0  0  0  0  0  0  0  0  0  0  0
   63.3370   32.8400   47.1290 C   0  0  0  0  0  0  0  0  0  0  0  0
   62.7770   31.7590   47.8170 C   0  0  0  0  0  0  0  0  0  0  0  0
   61.4000   31.7180   48.0500 C   0  0  0  0  0  0  0  0  0  0  0  0
   60.5790   32.7490   47.5840 C   0  0  0  0  0  0  0  0  0  0  0  0
   58.6310   30.2640   45.0460 C   0  0  0  0  0  0  0  0  0  0  0  0
   58.3830   28.9770   45.5310 C   0  0  0  0  0  0  0  0  0  0  0  0
   54.7370   27.0900   46.7210 H   0  0  0  0  0  0  0  0  0  0  0  0
   55.1659   28.5864   44.4413 H   0  0  0  0  0  0  0  0  0  0  0  0
   55.6074   30.8809   43.5680 H   0  0  0  0  0  0  0  0  0  0  0  0
   58.5705   32.2808   42.9286 H   0  0  0  0  0  0  0  0  0  0  0  0
   56.9538   32.8043   43.5219 H   0  0  0  0  0  0  0  0  0  0  0  0
   59.5750   33.3070   44.7730 H   0  0  0  0  0  0  0  0  0  0  0  0
   57.8768   35.2954   47.3093 H   0  0  0  0  0  0  0  0  0  0  0  0
   58.7971   33.8461   47.8779 H   0  0  0  0  0  0  0  0  0  0  0  0
   62.9633   34.7377   46.1463 H   0  0  0  0  0  0  0  0  0  0  0  0
   64.4210   32.8719   46.9446 H   0  0  0  0  0  0  0  0  0  0  0  0
   63.4202   30.9414   48.1745 H   0  0  0  0  0  0  0  0  0  0  0  0
   60.9612   30.8731   48.6010 H   0  0  0  0  0  0  0  0  0  0  0  0
   59.4938   32.7094   47.7595 H   0  0  0  0  0  0  0  0  0  0  0  0
   59.6030   30.7430   45.2352 H   0  0  0  0  0  0  0  0  0  0  0  0
   59.1636   28.4436   46.0933 H   0  0  0  0  0  0  0  0  0  0  0  0
  1  2  1  0
  2  3  2  0
  2  4  2  0
  2  5  1  0
  5  6  2  0
  6  7  1  0
  7  8  2  0
  8  9  1  0
  9 10  1  0
 10 11  1  0
 11 12  2  0
 11 13  1  0
 13 14  1  0
 14 15  1  0
 15 16  2  0
 16 17  1  0
 17 18  2  0
 18 19  1  0
 19 20  2  0
  8 21  1  0
 21 22  2  0
 22  5  1  0
 20 15  1  0
  1 23  1  0
  6 24  1  0
  7 25  1  0
  9 26  1  0
  9 27  1  0
 10 28  1  0
 13 29  1  0
 13 30  1  0
 16 31  1  0
 17 32  1  0
 18 33  1  0
 19 34  1  0
 20 35  1  0
 21 36  1  0
 22 37  1  0
M  CHG  1   1  -1
M  END
>  <UniqueID>  (1) 
1

>  <SMILES>  (1) 
[NH-]S(=O)(=O)c1ccc(CNC(=O)CSc2ccccc2)cc1

>  <Energy>  (1) 
25.5858288335781

>  <Genealogy>  (1) 
[NH-]S(=O)(=O)c1ccc(CNC(=O)CSc2ccccc2)cc1 (protonated)
[NH-]S(=O)(=O)c1ccc(CNC(=O)CSc2ccccc2)cc1 (3D coordinates assigned)
[NH-]S(=O)(=O)c1ccc(CNC(=O)CSc2ccccc2)cc1 (optimized conformer: 25.5858288335781 kcal/mol)

>  <smiles>  (1) 
NS(=O)(=O)c1ccc(CNC(=O)CSc2ccccc2)cc1

>  <score_type>  (1) 
oracle

>  <origin>  (1) 
adg

>  <m_score__min__energy>  (1) 
-11.01

>  <m_primary>  (1) 
energy

$$$$
1:0
     RDKit          3D

 33 34  0  0  0  0  0  0  0  0999 V2000
   55.1530   29.3670   44.8590 N   0  0  0  0  0  0  0  0  0  0  0  0
   56.6810   29.5370   44.0680 S   0  0  0  0  0  0  0  0  0  0  0  0
   57.5490   28.3530   44.3920 O   0  0  0  0  0  0  0  0  0  0  0  0
   56.4730   29.5910   42.5800 O   0  0  0  0  0  0  0  0  0  0  0  0
   57.4610   31.0170   44.6160 C   0  0  0  0  0  0  0  0  0  0  0  0
   57.8280   31.1640   45.9600 C   0  0  0  0  0  0  0  0  0  0  0  0
   58.4590   32.3340   46.3930 C   0  0  0  0  0  0  0  0  0  0  0  0
   58.7310   33.3690   45.4850 C   0  0  0  0  0  0  0  0  0  0  0  0
   59.4330   34.6140   45.9530 C   0  0  0  0  0  0  0  0  0  0  0  0
   60.0960   34.3720   47.2320 N   0  0  0  0  0  0  0  0  0  0  0  0
   61.4250   33.8310   47.3190 C   0  0  0  0  0  0  0  0  0  0  0  0
   62.0210   33.4610   46.2710 O   0  0  0  0  0  0  0  0  0  0  0  0
   62.0940   33.6630   48.6280 C   0  0  0  0  0  0  0  0  0  0  0  0
   63.4620   33.3400   48.6650 C   0  0  0  0  0  0  0  0  0  0  0  0
   64.1180   33.1660   49.8880 C   0  0  0  0  0  0  0  0  0  0  0  0
   65.8220   32.7500   49.9180 Cl  0  0  0  0  0  0  0  0  0  0  0  0
   63.4150   33.3210   51.0860 C   0  0  0  0  0  0  0  0  0  0  0  0
   62.0610   33.6590   51.0620 C   0  0  0  0  0  0  0  0  0  0  0  0
   61.3990   33.8400   49.8430 C   0  0  0  0  0  0  0  0  0  0  0  0
   60.0630   34.2260   49.8550 O   0  0  0  0  0  0  0  0  0  0  0  0
   58.3720   33.2150   44.1360 C   0  0  0  0  0  0  0  0  0  0  0  0
   57.7410   32.0440   43.7050 C   0  0  0  0  0  0  0  0  0  0  0  0
   55.2830   28.6710   45.6270 H   0  0  0  0  0  0  0  0  0  0  0  0
   57.6190   30.3563   46.6769 H   0  0  0  0  0  0  0  0  0  0  0  0
   58.7435   32.4438   47.4499 H   0  0  0  0  0  0  0  0  0  0  0  0
   60.1837   34.9100   45.2055 H   0  0  0  0  0  0  0  0  0  0  0  0
   58.6914   35.4163   46.0806 H   0  0  0  0  0  0  0  0  0  0  0  0
   59.5480   34.5330   48.1060 H   0  0  0  0  0  0  0  0  0  0  0  0
   64.0207   33.2232   47.7247 H   0  0  0  0  0  0  0  0  0  0  0  0
   63.9288   33.1766   52.0478 H   0  0  0  0  0  0  0  0  0  0  0  0
   61.5115   33.7837   52.0067 H   0  0  0  0  0  0  0  0  0  0  0  0
   58.5879   34.0182   43.4161 H   0  0  0  0  0  0  0  0  0  0  0  0
   57.4634   31.9287   42.6469 H   0  0  0  0  0  0  0  0  0  0  0  0
  1  2  1  0
  2  3  2  0
  2  4  2  0
  2  5  1  0
  5  6  2  0
  6  7  1  0
  7  8  2  0
  8  9  1  0
  9 10  1  0
 10 11  1  0
 11 12  2  0
 11 13  1  0
 13 14  2  0
 14 15  1  0
 15 16  1  0
 15 17  2  0
 17 18  1  0
 18 19  2  0
 19 20  1  0
  8 21  1  0
 21 22  2  0
 22  5  1  0
 19 13  1  0
  1 23  1  0
  6 24  1  0
  7 25  1  0
  9 26  1  0
  9 27  1  0
 10 28  1  0
 14 29  1  0
 17 30  1  0
 18 31  1  0
 21 32  1  0
 22 33  1  0
M  CHG  2   1  -1  20  -1
M  END
>  <UniqueID>  (2) 
2

>  <SMILES>  (2) 
[NH-]S(=O)(=O)c1ccc(CNC(=O)c2cc(Cl)ccc2[O-])cc1

>  <Energy>  (2) 
35.543594709139235

>  <Genealogy>  (2) 
[NH-]S(=O)(=O)c1ccc(CNC(=O)c2cc(Cl)ccc2[O-])cc1 (protonated)
[NH-]S(=O)(=O)c1ccc(CNC(=O)c2cc(Cl)ccc2[O-])cc1 (3D coordinates assigned)
[NH-]S(=O)(=O)c1ccc(CNC(=O)c2cc(Cl)ccc2[O-])cc1 (optimized conformer: 35.543594709139235 kcal/mol)

>  <smiles>  (2) 
NS(=O)(=O)c1ccc(CNC(=O)c2cc(Cl)ccc2O)cc1

>  <score_type>  (2) 
oracle

>  <origin>  (2) 
adg

>  <m_score__min__energy>  (2) 
-11.130000000000001

>  <m_primary>  (2) 
energy

$$$$
2:0
     RDKit          3D

 41 44  0  0  1  0  0  0  0  0999 V2000
   59.6490   34.9520   48.9160 O   0  0  0  0  0  0  0  0  0  0  0  0
   60.3130   34.2530   48.0420 C   0  0  0  0  0  0  0  0  0  0  0  0
   61.6490   33.9350   48.3850 C   0  0  0  0  0  0  0  0  0  0  0  0
   62.2520   33.9910   49.5820 C   0  0  0  0  0  0  0  0  0  0  0  0
   63.5350   33.6340   49.7100 C   0  0  0  0  0  0  0  0  0  0  0  0
   64.1640   33.2130   48.5060 C   0  0  0  0  0  0  0  0  0  0  0  0
   62.9400   33.3350   47.2530 S   0  0  0  0  0  0  0  0  0  0  0  0
   59.5840   33.9240   46.8890 N   0  0  0  0  0  0  0  0  0  0  0  0
   59.7750   34.5940   45.6210 C   0  0  0  0  0  0  0  0  0  0  0  0
   58.4370   34.7540   44.9060 C   0  0  0  0  0  0  0  0  0  0  0  0
   57.7700   33.3980   44.6560 C   0  0  0  0  0  0  0  0  0  0  0  0
   58.5610   32.3690   45.4570 C   0  0  2  0  0  0  0  0  0  0  0  0
   58.0570   31.0010   45.3580 C   0  0  0  0  0  0  0  0  0  0  0  0
   56.8340   30.6290   44.9470 N   0  0  0  0  0  0  0  0  0  0  0  0
   56.4710   29.3140   44.9000 C   0  0  0  0  0  0  0  0  0  0  0  0
   55.3140   28.9650   44.5160 O   0  0  0  0  0  0  0  0  0  0  0  0
   57.3620   28.3270   45.2740 C   0  0  0  0  0  0  0  0  0  0  0  0
   57.0320   26.9670   45.2530 C   0  0  0  0  0  0  0  0  0  0  0  0
   57.9790   26.0220   45.6570 C   0  0  0  0  0  0  0  0  0  0  0  0
   59.2530   26.4250   46.0780 C   0  0  0  0  0  0  0  0  0  0  0  0
   59.5330   27.7740   46.0820 C   0  0  0  0  0  0  0  0  0  0  0  0
   58.6130   28.7170   45.6900 C   0  0  0  0  0  0  0  0  0  0  0  0
   58.9360   30.0120   45.7260 N   0  0  0  0  0  0  0  0  0  0  0  0
   58.5540   32.8500   46.8770 C   0  0  0  0  0  0  0  0  0  0  0  0
   61.6886   34.3323   50.4630 H   0  0  0  0  0  0  0  0  0  0  0  0
   64.0637   33.6639   50.6742 H   0  0  0  0  0  0  0  0  0  0  0  0
   65.2050   32.8790   48.3845 H   0  0  0  0  0  0  0  0  0  0  0  0
   60.2147   35.5869   45.7967 H   0  0  0  0  0  0  0  0  0  0  0  0
   60.4488   33.9921   44.9936 H   0  0  0  0  0  0  0  0  0  0  0  0
   57.7711   35.3711   45.5271 H   0  0  0  0  0  0  0  0  0  0  0  0
   58.6200   35.2338   43.9332 H   0  0  0  0  0  0  0  0  0  0  0  0
   56.7241   33.4211   44.9959 H   0  0  0  0  0  0  0  0  0  0  0  0
   57.7665   33.1492   43.5845 H   0  0  0  0  0  0  0  0  0  0  0  0
   59.5775   32.2996   45.0423 H   0  0  0  0  0  0  0  0  0  0  0  0
   56.0343   26.6442   44.9208 H   0  0  0  0  0  0  0  0  0  0  0  0
   57.7219   24.9525   45.6443 H   0  0  0  0  0  0  0  0  0  0  0  0
   60.0056   25.6881   46.3952 H   0  0  0  0  0  0  0  0  0  0  0  0
   60.5281   28.1082   46.4106 H   0  0  0  0  0  0  0  0  0  0  0  0
   59.8860   30.2570   46.0500 H   0  0  0  0  0  0  0  0  0  0  0  0
   57.5666   33.2500   47.1511 H   0  0  0  0  0  0  0  0  0  0  0  0
   58.7645   32.0484   47.6003 H   0  0  0  0  0  0  0  0  0  0  0  0
  1  2  2  0
  2  3  1  0
  3  4  2  0
  4  5  1  0
  5  6  2  0
  6  7  1  0
  2  8  1  0
  8  9  1  0
  9 10  1  0
 10 11  1  0
 11 12  1  0
 12 13  1  0
 13 14  2  0
 14 15  1  0
 15 16  2  0
 15 17  1  0
 17 18  2  0
 18 19  1  0
 19 20  2  0
 20 21  1  0
 21 22  2  0
 22 23  1  0
 12 24  1  0
  7  3  1  0
 24  8  1  0
 23 13  1  0
 22 17  1  0
  4 25  1  0
  5 26  1  0
  6 27  1  0
  9 28  1  0
  9 29  1  0
 10 30  1  0
 10 31  1  0
 11 32  1  0
 11 33  1  0
 12 34  1  6
 18 35  1  0
 19 36  1  0
 20 37  1  0
 21 38  1  0
 23 39  1  0
 24 40  1  0
 24 41  1  0
M  END
>  <smiles>  (3) 
O=C(c1cccs1)N1CCCC(c2nc(=O)c3ccccc3[nH]2)C1

>  <score_type>  (3) 
oracle

>  <origin>  (3) 
adg

>  <m_score__min__energy>  (3) 
-8.9700000000000006

>  <m_primary>  (3) 
energy

$$$$
3:0
     RDKit          3D

 43 46  0  0  0  0  0  0  0  0999 V2000
   54.4210   29.6860   44.9740 H   0  0  0  0  0  0  0  0  0  0  0  0
   55.1740   28.9750   44.8480 N   0  0  0  0  0  0  0  0  0  0  0  0
   56.2870   29.2280   43.9930 C   0  0  0  0  0  0  0  0  0  0  0  0
   56.1230   29.1980   42.7440 O   0  0  0  0  0  0  0  0  0  0  0  0
   57.6410   29.4740   44.5500 C   0  0  0  0  0  0  0  0  0  0  0  0
   58.5170   28.4800   44.8080 C   0  0  0  0  0  0  0  0  0  0  0  0
   59.5747   28.6578   44.5638 H   0  0  0  0  0  0  0  0  0  0  0  0
   58.1620   27.1730   45.3930 C   0  0  0  0  0  0  0  0  0  0  0  0
   58.0820   26.8700   46.7520 C   0  0  0  0  0  0  0  0  0  0  0  0
   58.3830   27.8130   47.8730 C   0  0  0  0  0  0  0  0  0  0  0  0
   58.2204   27.3036   48.8343 H   0  0  0  0  0  0  0  0  0  0  0  0
   59.4306   28.1414   47.8046 H   0  0  0  0  0  0  0  0  0  0  0  0
   57.7194   28.6876   47.8046 H   0  0  0  0  0  0  0  0  0  0  0  0
   57.6260   25.6090   46.9350 N   0  0  0  0  0  0  0  0  0  0  0  0
   57.4510   25.1280   47.8470 H   0  0  0  0  0  0  0  0  0  0  0  0
   57.4060   25.1150   45.7040 C   0  0  0  0  0  0  0  0  0  0  0  0
   56.8910   23.8600   45.3820 C   0  0  0  0  0  0  0  0  0  0  0  0
   56.6557   23.1256   46.1664 H   0  0  0  0  0  0  0  0  0  0  0  0
   56.6810   23.5610   44.0200 C   0  0  0  0  0  0  0  0  0  0  0  0
   56.1740   22.3200   43.6410 O   0  0  0  0  0  0  0  0  0  0  0  0
   55.2020   22.2040   43.3780 H   0  0  0  0  0  0  0  0  0  0  0  0
   56.9760   24.5230   43.0280 C   0  0  0  0  0  0  0  0  0  0  0  0
   56.8054   24.2836   41.9680 H   0  0  0  0  0  0  0  0  0  0  0  0
   57.4860   25.7840   43.3850 C   0  0  0  0  0  0  0  0  0  0  0  0
   57.7026   26.5447   42.6205 H   0  0  0  0  0  0  0  0  0  0  0  0
   57.7090   26.0410   44.7380 C   0  0  0  0  0  0  0  0  0  0  0  0
   58.0600   30.8760   44.8040 C   0  0  0  0  0  0  0  0  0  0  0  0
   58.1070   31.7900   43.7380 C   0  0  0  0  0  0  0  0  0  0  0  0
   57.8228   31.4618   42.7273 H   0  0  0  0  0  0  0  0  0  0  0  0
   58.5100   33.1090   43.9470 C   0  0  0  0  0  0  0  0  0  0  0  0
   58.5414   33.8127   43.1021 H   0  0  0  0  0  0  0  0  0  0  0  0
   58.8750   33.5410   45.2290 C   0  0  0  0  0  0  0  0  0  0  0  0
   59.2830   34.8670   45.4410 C   0  0  0  0  0  0  0  0  0  0  0  0
   59.3194   35.5713   44.5968 H   0  0  0  0  0  0  0  0  0  0  0  0
   59.6430   35.2950   46.7210 C   0  0  0  0  0  0  0  0  0  0  0  0
   59.9627   36.3351   46.8821 H   0  0  0  0  0  0  0  0  0  0  0  0
   59.5980   34.4060   47.7960 C   0  0  0  0  0  0  0  0  0  0  0  0
   59.8819   34.7485   48.8020 H   0  0  0  0  0  0  0  0  0  0  0  0
   59.1940   33.0830   47.6000 C   0  0  0  0  0  0  0  0  0  0  0  0
   59.1618   32.3887   48.4526 H   0  0  0  0  0  0  0  0  0  0  0  0
   58.8280   32.6340   46.3170 C   0  0  0  0  0  0  0  0  0  0  0  0
   58.4160   31.3040   46.1000 C   0  0  0  0  0  0  0  0  0  0  0  0
   58.3420   30.4130   47.1690 O   0  0  0  0  0  0  0  0  0  0  0  0
  1  2  1  0
  2  3  1  0
  3  4  2  0
  3  5  1  0
  5  6  2  0
  6  7  1  0
  6  8  1  0
  8  9  2  0
  9 10  1  0
 10 11  1  0
 10 12  1  0
 10 13  1  0
  9 14  1  0
 14 15  1  0
 14 16  1  0
 16 17  2  0
 17 18  1  0
 17 19  1  0
 19 20  1  0
 20 21  1  0
 19 22  2  0
 22 23  1  0
 22 24  1  0
 24 25  1  0
 24 26  2  0
  5 27  1  0
 27 28  2  0
 28 29  1  0
 28 30  1  0
 30 31  1  0
 30 32  2  0
 32 33  1  0
 33 34  1  0
 33 35  2  0
 35 36  1  0
 35 37  1  0
 37 38  1  0
 37 39  2  0
 39 40  1  0
 39 41  1  0
 41 42  2  0
 42 43  1  0
 26  8  1  0
 42 27  1  0
 26 16  1  0
 41 32  1  0
M  CHG  2   2  -1  43  -1
M  END
>  <UniqueID>  (4) 
3

>  <SMILES>  (4) 
Cc1[nH]c2cc(O)ccc2c1/C=C(\C([NH-])=O)c1ccc2ccccc2c1[O-]

>  <Energy>  (4) 
97.6769280214999

>  <Genealogy>  (4) 
Cc1[nH]c2cc(O)ccc2c1C=C(C([NH-])=O)c1ccc2ccccc2c1[O-] (protonated)
Cc1[nH]c2cc(O)ccc2c1/C=C(\C([NH-])=O)c1ccc2ccccc2c1[O-] (cis-trans isomerization)
Cc1[nH]c2cc(O)ccc2c1/C=C(\C([NH-])=O)c1ccc2ccccc2c1[O-] (3D coordinates assigned)
Cc1[nH]c2cc(O)ccc2c1/C=C(\C([NH-])=O)c1ccc2ccccc2c1[O-] (optimized conformer: 97.6769280214999 kcal/mol)

>  <smiles>  (4) 
Cc1[nH]c2cc(O)ccc2c1C=C(C(N)=O)c1ccc2ccccc2c1O

>  <score_type>  (4) 
oracle

>  <origin>  (4) 
adg

>  <m_score__min__energy>  (4) 
-14.73

>  <m_primary>  (4) 
energy

$$$$
4:0
     RDKit          3D

 50 53  0  0  0  0  0  0  0  0999 V2000
   54.9610   30.1380   52.1020 C   0  0  0  0  0  0  0  0  0  0  0  0
   56.3590   30.1200   51.8300 O   0  0  0  0  0  0  0  0  0  0  0  0
   57.2860   31.0120   52.3880 C   0  0  0  0  0  0  0  0  0  0  0  0
   57.7470   30.8900   53.7140 C   0  0  0  0  0  0  0  0  0  0  0  0
   58.6600   31.8140   54.2280 C   0  0  0  0  0  0  0  0  0  0  0  0
   59.1300   32.8570   53.4270 C   0  0  0  0  0  0  0  0  0  0  0  0
   58.7070   32.9680   52.0920 C   0  0  0  0  0  0  0  0  0  0  0  0
   59.1370   34.0590   51.2630 N   0  0  0  0  0  0  0  0  0  0  0  0
   59.8810   33.9990   50.1930 C   0  0  0  0  0  0  0  0  0  0  0  0
   59.3930   34.3180   48.9110 C   0  0  0  0  0  0  0  0  0  0  0  0
   60.2410   34.2600   47.7930 C   0  0  0  0  0  0  0  0  0  0  0  0
   59.6880   34.6630   46.4810 C   0  0  0  0  0  0  0  0  0  0  0  0
   59.9580   35.7970   46.0030 O   0  0  0  0  0  0  0  0  0  0  0  0
   58.7570   33.7990   45.8150 N   0  0  0  0  0  0  0  0  0  0  0  0
   58.7920   32.3650   45.7840 C   0  0  0  0  0  0  0  0  0  0  0  0
   59.8330   31.6300   46.3800 C   0  0  0  0  0  0  0  0  0  0  0  0
   59.8130   30.2320   46.3490 C   0  0  0  0  0  0  0  0  0  0  0  0
   58.7540   29.5580   45.7380 C   0  0  0  0  0  0  0  0  0  0  0  0
   57.7030   30.2790   45.1560 C   0  0  0  0  0  0  0  0  0  0  0  0
   56.3500   29.4280   44.4170 S   0  0  0  0  0  0  0  0  0  0  0  0
   56.7880   28.9380   42.8180 N   0  0  0  0  0  0  0  0  0  0  0  0
   55.9960   28.2200   45.2370 O   0  0  0  0  0  0  0  0  0  0  0  0
   55.1540   30.3360   44.3550 O   0  0  0  0  0  0  0  0  0  0  0  0
   57.7210   31.6800   45.1950 C   0  0  0  0  0  0  0  0  0  0  0  0
   61.5880   33.8560   47.9720 C   0  0  0  0  0  0  0  0  0  0  0  0
   62.4890   33.6900   46.8960 C   0  0  0  0  0  0  0  0  0  0  0  0
   63.8100   33.3010   47.1330 C   0  0  0  0  0  0  0  0  0  0  0  0
   64.2510   33.0590   48.4340 C   0  0  0  0  0  0  0  0  0  0  0  0
   63.3690   33.1900   49.5070 C   0  0  0  0  0  0  0  0  0  0  0  0
   62.0410   33.5750   49.2850 C   0  0  0  0  0  0  0  0  0  0  0  0
   61.1870   33.6600   50.3360 N   0  0  0  0  0  0  0  0  0  0  0  0
   57.7640   32.0610   51.5920 C   0  0  0  0  0  0  0  0  0  0  0  0
   54.7991   30.1401   53.1900 H   0  0  0  0  0  0  0  0  0  0  0  0
   54.5137   31.0420   51.6630 H   0  0  0  0  0  0  0  0  0  0  0  0
   54.4905   29.2458   51.6630 H   0  0  0  0  0  0  0  0  0  0  0  0
   57.3870   30.0649   54.3461 H   0  0  0  0  0  0  0  0  0  0  0  0
   59.0097   31.7198   55.2667 H   0  0  0  0  0  0  0  0  0  0  0  0
   59.8333   33.5936   53.8426 H   0  0  0  0  0  0  0  0  0  0  0  0
   58.3413   34.6144   48.7846 H   0  0  0  0  0  0  0  0  0  0  0  0
   60.6646   32.1561   46.8715 H   0  0  0  0  0  0  0  0  0  0  0  0
   60.6343   29.6616   46.8075 H   0  0  0  0  0  0  0  0  0  0  0  0
   58.7447   28.4583   45.7134 H   0  0  0  0  0  0  0  0  0  0  0  0
   56.7000   27.8970   42.7830 H   0  0  0  0  0  0  0  0  0  0  0  0
   57.8010   29.1600   42.6980 H   0  0  0  0  0  0  0  0  0  0  0  0
   56.8858   32.2475   44.7587 H   0  0  0  0  0  0  0  0  0  0  0  0
   62.1482   33.8681   45.8654 H   0  0  0  0  0  0  0  0  0  0  0  0
   64.5059   33.1850   46.2890 H   0  0  0  0  0  0  0  0  0  0  0  0
   65.2954   32.7645   48.6142 H   0  0  0  0  0  0  0  0  0  0  0  0
   63.7179   32.9902   50.5309 H   0  0  0  0  0  0  0  0  0  0  0  0
   57.3944   32.1737   50.5621 H   0  0  0  0  0  0  0  0  0  0  0  0
  1  2  1  0
  2  3  1  0
  3  4  2  0
  4  5  1  0
  5  6  2  0
  6  7  1  0
  7  8  1  0
  8  9  2  3
  9 10  1  0
 10 11  2  0
 11 12  1  0
 12 13  2  0
 12 14  1  0
 14 15  1  0
 15 16  2  0
 16 17  1  0
 17 18  2  0
 18 19  1  0
 19 20  1  0
 20 21  1  0
 20 22  2  0
 20 23  2  0
 19 24  2  0
 11 25  1  0
 25 26  2  0
 26 27  1  0
 27 28  2  0
 28 29  1  0
 29 30  2  0
 30 31  1  0
  7 32  2  0
 32  3  1  0
 31  9  1  0
 24 15  1  0
 30 25  1  0
  1 33  1  0
  1 34  1  0
  1 35  1  0
  4 36  1  0
  5 37  1  0
  6 38  1  0
 10 39  1  0
 16 40  1  0
 17 41  1  0
 18 42  1  0
 21 43  1  0
 21 44  1  0
 24 45  1  0
 26 46  1  0
 27 47  1  0
 28 48  1  0
 29 49  1  0
 32 50  1  0
M  CHG  2  14  -1  31  -1
M  END
>  <UniqueID>  (5) 
4

>  <SMILES>  (5) 
COc1cccc(N=c2cc(C(=O)[N-]c3cccc(S(N)(=O)=O)c3)c3ccccc3[n-]2)c1

>  <Energy>  (5) 
75.49046163426166

>  <Genealogy>  (5) 
COc1cccc(N=c2cc(C(=O)[N-]c3cccc(S(N)(=O)=O)c3)c3ccccc3[n-]2)c1 (protonated)
COc1cccc(N=c2cc(C(=O)[N-]c3cccc(S(N)(=O)=O)c3)c3ccccc3[n-]2)c1 (3D coordinates assigned)
COc1cccc(N=c2cc(C(=O)[N-]c3cccc(S(N)(=O)=O)c3)c3ccccc3[n-]2)c1 (optimized conformer: 75.49046163426166 kcal/mol)

>  <smiles>  (5) 
COc1cccc(N=c2cc(C(=O)Nc3cccc(S(N)(=O)=O)c3)c3ccccc3[nH]2)c1

>  <score_type>  (5) 
oracle

>  <origin>  (5) 
adg

>  <m_score__min__energy>  (5) 
-12.869999999999999

>  <m_primary>  (5) 
energy

$$$$
5:0
     RDKit          3D

 48 50  0  0  0  0  0  0  0  0999 V2000
   60.4050   29.8490   45.9190 C   0  0  0  0  0  0  0  0  0  0  0  0
   59.2530   29.8150   44.9040 C   0  0  1  0  0  0  0  0  0  0  0  0
   58.8000   28.3520   44.6600 C   0  0  0  0  0  0  0  0  0  0  0  0
   57.3800   28.2290   44.0670 C   0  0  0  0  0  0  0  0  0  0  0  0
   56.9270   29.5130   43.3670 C   0  0  0  0  0  0  0  0  0  0  0  0
   56.8780   30.6940   44.3500 C   0  0  0  0  0  0  0  0  0  0  0  0
   58.0540   30.6940   45.3680 C   0  0  2  0  0  0  0  0  0  0  0  0
   58.4670   32.0830   45.7180 N   0  0  0  0  0  0  0  0  0  0  0  0
   58.6230   33.0220   44.7250 C   0  0  0  0  0  0  0  0  0  0  0  0
   58.4270   32.7300   43.5140 O   0  0  0  0  0  0  0  0  0  0  0  0
   59.0080   34.3200   45.0340 C   0  0  0  0  0  0  0  0  0  0  0  0
   59.2270   34.6680   46.3610 C   0  0  0  0  0  0  0  0  0  0  0  0
   59.6320   35.9680   46.6720 O   0  0  0  0  0  0  0  0  0  0  0  0
   59.0540   33.7380   47.3490 N   0  0  0  0  0  0  0  0  0  0  0  0
   59.3130   34.1120   48.7530 C   0  0  0  0  0  0  0  0  0  0  0  0
   60.7820   34.5040   48.9360 C   0  0  0  0  0  0  0  0  0  0  0  0
   61.6870   33.4930   48.2860 C   0  0  0  0  0  0  0  0  0  0  0  0
   61.6410   32.1440   48.6790 C   0  0  0  0  0  0  0  0  0  0  0  0
   62.5050   31.2120   48.0960 C   0  0  0  0  0  0  0  0  0  0  0  0
   63.4260   31.6200   47.1270 C   0  0  0  0  0  0  0  0  0  0  0  0
   63.4860   32.9610   46.7400 C   0  0  0  0  0  0  0  0  0  0  0  0
   62.6230   33.8970   47.3200 C   0  0  0  0  0  0  0  0  0  0  0  0
   58.6980   32.4500   47.0290 C   0  0  0  0  0  0  0  0  0  0  0  0
   58.5920   31.5930   47.9510 O   0  0  0  0  0  0  0  0  0  0  0  0
   59.9949   29.8369   46.9396 H   0  0  0  0  0  0  0  0  0  0  0  0
   61.0491   28.9695   45.7722 H   0  0  0  0  0  0  0  0  0  0  0  0
   60.9961   30.7650   45.7722 H   0  0  0  0  0  0  0  0  0  0  0  0
   59.6214   30.2365   43.9571 H   0  0  0  0  0  0  0  0  0  0  0  0
   59.5088   27.8814   43.9627 H   0  0  0  0  0  0  0  0  0  0  0  0
   58.7811   27.8551   45.6412 H   0  0  0  0  0  0  0  0  0  0  0  0
   57.3722   27.4067   43.3364 H   0  0  0  0  0  0  0  0  0  0  0  0
   56.6850   28.0366   44.8976 H   0  0  0  0  0  0  0  0  0  0  0  0
   57.6335   29.7489   42.5576 H   0  0  0  0  0  0  0  0  0  0  0  0
   55.9159   29.3524   42.9645 H   0  0  0  0  0  0  0  0  0  0  0  0
   56.9147   31.6302   43.7736 H   0  0  0  0  0  0  0  0  0  0  0  0
   55.9464   30.6000   44.9272 H   0  0  0  0  0  0  0  0  0  0  0  0
   57.6807   30.2225   46.2891 H   0  0  0  0  0  0  0  0  0  0  0  0
   59.1383   35.0655   44.2357 H   0  0  0  0  0  0  0  0  0  0  0  0
   59.0620   36.5830   47.2400 H   0  0  0  0  0  0  0  0  0  0  0  0
   58.6733   34.9644   49.0255 H   0  0  0  0  0  0  0  0  0  0  0  0
   59.0891   33.2510   49.3999 H   0  0  0  0  0  0  0  0  0  0  0  0
   60.9527   35.4891   48.4773 H   0  0  0  0  0  0  0  0  0  0  0  0
   61.0071   34.5400   50.0121 H   0  0  0  0  0  0  0  0  0  0  0  0
   60.9232   31.8208   49.4473 H   0  0  0  0  0  0  0  0  0  0  0  0
   62.4598   30.1559   48.4004 H   0  0  0  0  0  0  0  0  0  0  0  0
   64.1039   30.8848   46.6689 H   0  0  0  0  0  0  0  0  0  0  0  0
   64.2124   33.2812   45.9786 H   0  0  0  0  0  0  0  0  0  0  0  0
   62.6778   34.9534   47.0183 H   0  0  0  0  0  0  0  0  0  0  0  0
  1  2  1  0
  2  3  1  0
  3  4  1  0
  4  5  1  0
  5  6  1  0
  6  7  1  0
  7  8  1  0
  8  9  1  0
  9 10  2  0
  9 11  1  0
 11 12  2  0
 12 13  1  0
 12 14  1  0
 14 15  1  0
 15 16  1  0
 16 17  1  0
 17 18  2  0
 18 19  1  0
 19 20  2  0
 20 21  1  0
 21 22  2  0
 14 23  1  0
 23 24  2  0
  7  2  1  0
 23  8  1  0
 22 17  1  0
  1 25  1  0
  1 26  1  0
  1 27  1  0
  2 28  1  6
  3 29  1  0
  3 30  1  0
  4 31  1  0
  4 32  1  0
  5 33  1  0
  5 34  1  0
  6 35  1  0
  6 36  1  0
  7 37  1  1
 11 38  1  0
 13 39  1  0
 15 40  1  0
 15 41  1  0
 16 42  1  0
 16 43  1  0
 18 44  1  0
 19 45  1  0
 20 46  1  0
 21 47  1  0
 22 48  1  0
M  END
>  <UniqueID>  (6) 
5

>  <SMILES>  (6) 
C[C@H]1CCCC[C@@H]1n1c(=O)cc(O)n(CCc2ccccc2)c1=O

>  <Energy>  (6) 
57.73996543526034

>  <Genealogy>  (6) 
C[C@H]1CCCC[C@@H]1n1c(=O)cc(O)n(CCc2ccccc2)c1=O (chirality)
C[C@H]1CCCC[C@@H]1n1c(=O)cc(O)n(CCc2ccccc2)c1=O (3D coordinates assigned)
C[C@H]1CCCC[C@@H]1n1c(=O)cc(O)n(CCc2ccccc2)c1=O (nonaromatic ring conformer: 57.73996543526034 kcal/mol)

>  <smiles>  (6) 
CC1CCCCC1n1c(=O)cc(O)n(CCc2ccccc2)c1=O

>  <score_type>  (6) 
oracle

>  <origin>  (6) 
adg

>  <m_score__min__energy>  (6) 
-7.4699999999999998

>  <m_primary>  (6) 
energy

$$$$
6:0
     RDKit          3D

 35 37  0  0  0  0  0  0  0  0999 V2000
   60.6780   28.9080   44.8050 O   0  0  0  0  0  0  0  0  0  0  0  0
   59.7180   29.0780   45.6070 C   0  0  0  0  0  0  0  0  0  0  0  0
   58.9170   30.3170   45.5210 C   0  0  0  0  0  0  0  0  0  0  0  0
   59.4060   31.5290   46.0300 C   0  0  0  0  0  0  0  0  0  0  0  0
   58.6310   32.6860   45.9460 C   0  0  0  0  0  0  0  0  0  0  0  0
   57.3640   32.6210   45.3620 C   0  0  0  0  0  0  0  0  0  0  0  0
   56.6530   33.6560   45.2770 O   0  0  0  0  0  0  0  0  0  0  0  0
   56.8960   31.4370   44.8870 N   0  0  0  0  0  0  0  0  0  0  0  0
   57.6310   30.2950   44.9580 C   0  0  0  0  0  0  0  0  0  0  0  0
   59.4300   28.0600   46.5860 N   0  0  0  0  0  0  0  0  0  0  0  0
   60.1900   28.0170   47.8460 C   0  0  0  0  0  0  0  0  0  0  0  0
   60.0390   29.3020   48.6000 C   0  0  0  0  0  0  0  0  0  0  0  0
   58.8840   29.7350   49.2420 C   0  0  0  0  0  0  0  0  0  0  0  0
   59.0120   31.0130   49.8020 C   0  0  0  0  0  0  0  0  0  0  0  0
   60.2570   31.5910   49.5930 C   0  0  0  0  0  0  0  0  0  0  0  0
   61.1990   30.5130   48.7090 S   0  0  0  0  0  0  0  0  0  0  0  0
   58.4510   27.0450   46.2750 C   0  0  0  0  0  0  0  0  0  0  0  0
   58.8440   25.7340   45.9430 C   0  0  0  0  0  0  0  0  0  0  0  0
   57.8840   24.7640   45.6400 C   0  0  0  0  0  0  0  0  0  0  0  0
   56.5260   25.0880   45.6650 C   0  0  0  0  0  0  0  0  0  0  0  0
   56.1240   26.3860   45.9900 C   0  0  0  0  0  0  0  0  0  0  0  0
   54.7720   26.7090   46.0150 O   0  0  0  0  0  0  0  0  0  0  0  0
   57.0800   27.3610   46.2930 C   0  0  0  0  0  0  0  0  0  0  0  0
   60.4017   31.5673   46.4960 H   0  0  0  0  0  0  0  0  0  0  0  0
   59.0142   33.6405   46.3361 H   0  0  0  0  0  0  0  0  0  0  0  0
   57.2168   29.3514   44.5733 H   0  0  0  0  0  0  0  0  0  0  0  0
   59.8153   27.1888   48.4655 H   0  0  0  0  0  0  0  0  0  0  0  0
   61.2544   27.8676   47.6118 H   0  0  0  0  0  0  0  0  0  0  0  0
   57.9638   29.1354   49.3039 H   0  0  0  0  0  0  0  0  0  0  0  0
   58.2023   31.5115   50.3551 H   0  0  0  0  0  0  0  0  0  0  0  0
   60.5734   32.5839   49.9451 H   0  0  0  0  0  0  0  0  0  0  0  0
   59.9121   25.4719   45.9220 H   0  0  0  0  0  0  0  0  0  0  0  0
   58.1994   23.7425   45.3811 H   0  0  0  0  0  0  0  0  0  0  0  0
   55.7730   24.3216   45.4289 H   0  0  0  0  0  0  0  0  0  0  0  0
   56.7579   28.3816   46.5471 H   0  0  0  0  0  0  0  0  0  0  0  0
  1  2  2  0
  2  3  1  0
  3  4  1  0
  4  5  2  0
  5  6  1  0
  6  7  2  0
  6  8  1  0
  8  9  1  0
  2 10  1  0
 10 11  1  0
 11 12  1  0
 12 13  2  0
 13 14  1  0
 14 15  2  0
 15 16  1  0
 10 17  1  0
 17 18  2  0
 18 19  1  0
 19 20  2  0
 20 21  1  0
 21 22  1  0
 21 23  2  0
  9  3  2  0
 16 12  1  0
 23 17  1  0
  4 24  1  0
  5 25  1  0
  9 26  1  0
 11 27  1  0
 11 28  1  0
 13 29  1  0
 14 30  1  0
 15 31  1  0
 18 32  1  0
 19 33  1  0
 20 34  1  0
 23 35  1  0
M  CHG  2   8  -1  22  -1
M  END
>  <UniqueID>  (7) 
6

>  <SMILES>  (7) 
O=C(c1ccc(=O)[n-]c1)N(Cc1cccs1)c1cccc([O-])c1

>  <Energy>  (7) 
73.27473603334865

>  <Genealogy>  (7) 
O=C(c1ccc(=O)[n-]c1)N(Cc1cccs1)c1cccc([O-])c1 (protonated)
O=C(c1ccc(=O)[n-]c1)N(Cc1cccs1)c1cccc([O-])c1 (3D coordinates assigned)
O=C(c1ccc(=O)[n-]c1)N(Cc1cccs1)c1cccc([O-])c1 (optimized conformer: 73.27473603334865 kcal/mol)

>  <smiles>  (7) 
O=C(c1ccc(=O)[nH]c1)N(Cc1cccs1)c1cccc(O)c1

>  <score_type>  (7) 
oracle

>  <origin>  (7) 
adg

>  <m_score__min__energy>  (7) 
-11.859999999999999

>  <m_primary>  (7) 
energy

$$$$
7:0
     RDKit          3D

 59 62  0  0  0  0  0  0  0  0999 V2000
   57.7190   34.4017   52.1228 H   0  0  0  0  0  0  0  0  0  0  0  0
   58.3640   33.5120   52.1720 C   0  0  0  0  0  0  0  0  0  0  0  0
   57.7040   32.1910   52.2820 C   0  0  0  0  0  0  0  0  0  0  0  0
   56.5090   32.1140   52.6710 O   0  0  0  0  0  0  0  0  0  0  0  0
   58.4340   30.9790   52.0570 N   0  0  0  0  0  0  0  0  0  0  0  0
   58.9210   30.4880   50.7970 C   0  0  0  0  0  0  0  0  0  0  0  0
   58.5990   31.1170   49.5780 C   0  0  0  0  0  0  0  0  0  0  0  0
   57.9928   32.0349   49.5786 H   0  0  0  0  0  0  0  0  0  0  0  0
   59.0470   30.5790   48.3670 C   0  0  0  0  0  0  0  0  0  0  0  0
   58.8004   31.0814   47.4200 H   0  0  0  0  0  0  0  0  0  0  0  0
   59.8130   29.3960   48.3550 C   0  0  0  0  0  0  0  0  0  0  0  0
   60.2410   28.8320   47.1010 N   0  0  0  0  0  0  0  0  0  0  0  0
   60.6710   29.7100   46.0090 C   0  0  0  0  0  0  0  0  0  0  0  0
   60.7264   30.7466   46.3730 H   0  0  0  0  0  0  0  0  0  0  0  0
   61.6616   29.3912   45.6527 H   0  0  0  0  0  0  0  0  0  0  0  0
   59.6580   29.6270   44.8480 C   0  0  0  0  0  0  0  0  0  0  0  0
   59.3775   30.6455   44.5415 H   0  0  0  0  0  0  0  0  0  0  0  0
   60.1266   29.0888   44.0109 H   0  0  0  0  0  0  0  0  0  0  0  0
   58.4400   28.8920   45.2600 N   0  0  0  0  0  0  0  0  0  0  0  0
   57.4010   28.9290   44.2070 C   0  0  0  0  0  0  0  0  0  0  0  0
   57.8472   29.3036   43.2739 H   0  0  0  0  0  0  0  0  0  0  0  0
   57.0092   27.9111   44.0643 H   0  0  0  0  0  0  0  0  0  0  0  0
   56.2650   29.8290   44.6050 C   0  0  0  0  0  0  0  0  0  0  0  0
   55.2310   29.3480   45.1480 O   0  0  0  0  0  0  0  0  0  0  0  0
   56.3290   31.2210   44.2650 N   0  0  0  0  0  0  0  0  0  0  0  0
   57.2610   32.1760   44.7950 C   0  0  0  0  0  0  0  0  0  0  0  0
   57.4030   32.3760   46.1720 C   0  0  0  0  0  0  0  0  0  0  0  0
   56.7753   31.8105   46.8764 H   0  0  0  0  0  0  0  0  0  0  0  0
   58.3450   33.2970   46.6570 C   0  0  0  0  0  0  0  0  0  0  0  0
   58.4517   33.4483   47.7413 H   0  0  0  0  0  0  0  0  0  0  0  0
   59.1480   34.0230   45.7740 C   0  0  0  0  0  0  0  0  0  0  0  0
   59.8819   34.7467   46.1581 H   0  0  0  0  0  0  0  0  0  0  0  0
   59.0100   33.8210   44.3970 C   0  0  0  0  0  0  0  0  0  0  0  0
   59.6316   34.3952   43.6943 H   0  0  0  0  0  0  0  0  0  0  0  0
   58.0840   32.8910   43.9090 C   0  0  0  0  0  0  0  0  0  0  0  0
   57.9700   32.7020   42.5720 F   0  0  0  0  0  0  0  0  0  0  0  0
   58.7760   27.4980   45.6330 C   0  0  0  0  0  0  0  0  0  0  0  0
   57.8723   27.0012   46.0158 H   0  0  0  0  0  0  0  0  0  0  0  0
   59.1543   26.9797   44.7395 H   0  0  0  0  0  0  0  0  0  0  0  0
   59.8700   27.4600   46.7200 C   0  0  0  0  0  0  0  0  0  0  0  0
   59.4892   26.9260   47.6031 H   0  0  0  0  0  0  0  0  0  0  0  0
   60.7557   26.9400   46.3262 H   0  0  0  0  0  0  0  0  0  0  0  0
   60.1140   28.7600   49.5750 C   0  0  0  0  0  0  0  0  0  0  0  0
   60.7043   27.8318   49.5765 H   0  0  0  0  0  0  0  0  0  0  0  0
   59.6680   29.3000   50.7820 C   0  0  0  0  0  0  0  0  0  0  0  0
   59.9036   28.7910   51.7283 H   0  0  0  0  0  0  0  0  0  0  0  0
   59.6910   33.7030   52.1280 C   0  0  0  0  0  0  0  0  0  0  0  0
   60.1988   33.9793   53.0638 H   0  0  0  0  0  0  0  0  0  0  0  0
   60.5220   33.5680   50.9070 C   0  0  0  0  0  0  0  0  0  0  0  0
   60.1140   34.1340   49.6830 C   0  0  0  0  0  0  0  0  0  0  0  0
   59.1851   34.7212   49.6346 H   0  0  0  0  0  0  0  0  0  0  0  0
   60.8850   33.9530   48.5270 C   0  0  0  0  0  0  0  0  0  0  0  0
   60.5654   34.4088   47.5783 H   0  0  0  0  0  0  0  0  0  0  0  0
   62.0610   33.1940   48.5750 C   0  0  0  0  0  0  0  0  0  0  0  0
   63.0320   32.9780   47.1230 Cl  0  0  0  0  0  0  0  0  0  0  0  0
   62.4550   32.5980   49.7810 C   0  0  0  0  0  0  0  0  0  0  0  0
   63.3697   31.9882   49.8189 H   0  0  0  0  0  0  0  0  0  0  0  0
   61.6840   32.7780   50.9410 C   0  0  0  0  0  0  0  0  0  0  0  0
   61.9914   32.2979   51.8817 H   0  0  0  0  0  0  0  0  0  0  0  0
  1  2  1  0
  2  3  1  0
  3  4  2  0
  3  5  1  0
  5  6  1  0
  6  7  2  0
  7  8  1  0
  7  9  1  0
  9 10  1  0
  9 11  2  0
 11 12  1  0
 12 13  1  0
 13 14  1  0
 13 15  1  0
 13 16  1  0
 16 17  1  0
 16 18  1  0
 16 19  1  0
 19 20  1  0
 20 21  1  0
 20 22  1  0
 20 23  1  0
 23 24  2  0
 23 25  1  0
 25 26  1  0
 26 27  2  0
 27 28  1  0
 27 29  1  0
 29 30  1  0
 29 31  2  0
 31 32  1  0
 31 33  1  0
 33 34  1  0
 33 35  2  0
 35 36  1  0
 19 37  1  0
 37 38  1  0
 37 39  1  0
 37 40  1  0
 40 41  1  0
 40 42  1  0
 11 43  1  0
 43 44  1  0
 43 45  2  0
 45 46  1  0
  2 47  2  0
 47 48  1  0
 47 49  1  0
 49 50  2  0
 50 51  1  0
 50 52  1  0
 52 53  1  0
 52 54  2  0
 54 55  1  0
 54 56  1  0
 56 57  1  0
 56 58  2  0
 58 59  1  0
 45  6  1  0
 58 49  1  0
 40 12  1  0
 35 26  1  0
M  CHG  2   5  -1  25  -1
M  END
>  <UniqueID>  (8) 
7

>  <SMILES>  (8) 
O=C(/C=C\c1ccc(Cl)cc1)[N-]c1ccc(N2CCN(CC(=O)[N-]c3ccccc3F)CC2)cc1

>  <Energy>  (8) 
91.85955814816282

>  <Genealogy>  (8) 
O=C(C=Cc1ccc(Cl)cc1)[N-]c1ccc(N2CCN(CC(=O)[N-]c3ccccc3F)CC2)cc1 (protonated)
O=C(/C=C\c1ccc(Cl)cc1)[N-]c1ccc(N2CCN(CC(=O)[N-]c3ccccc3F)CC2)cc1 (cis-trans isomerization)
O=C(/C=C\c1ccc(Cl)cc1)[N-]c1ccc(N2CCN(CC(=O)[N-]c3ccccc3F)CC2)cc1 (3D coordinates assigned)
O=C(/C=C\c1ccc(Cl)cc1)[N-]c1ccc(N2CCN(CC(=O)[N-]c3ccccc3F)CC2)cc1 (nonaromatic ring conformer: 91.85955814816282 kcal/mol)

>  <smiles>  (8) 
O=C(C=Cc1ccc(Cl)cc1)Nc1ccc(N2CCN(CC(=O)Nc3ccccc3F)CC2)cc1

>  <score_type>  (8) 
oracle

>  <origin>  (8) 
adg

>  <m_score__min__energy>  (8) 
-11.83

>  <m_primary>  (8) 
energy

$$$$
8:0
     RDKit          3D

 32 33  0  0  0  0  0  0  0  0999 V2000
   57.8400   31.9660   42.8290 O   0  0  0  0  0  0  0  0  0  0  0  0
   57.3150   31.2580   43.7300 C   0  0  0  0  0  0  0  0  0  0  0  0
   56.6360   29.9770   43.3660 C   0  0  0  0  0  0  0  0  0  0  0  0
   55.9640   29.1530   44.8530 S   0  0  0  0  0  0  0  0  0  0  0  0
   57.4750   28.2510   45.2340 C   0  0  0  0  0  0  0  0  0  0  0  0
   58.6520   28.8180   44.8500 N   0  0  0  0  0  0  0  0  0  0  0  0
   59.8560   28.2620   45.1340 C   0  0  0  0  0  0  0  0  0  0  0  0
   59.9190   27.0700   45.8480 C   0  0  0  0  0  0  0  0  0  0  0  0
   58.7360   26.4510   46.2500 C   0  0  0  0  0  0  0  0  0  0  0  0
   57.4880   27.0210   45.9420 C   0  0  0  0  0  0  0  0  0  0  0  0
   56.2550   26.3130   46.3770 C   0  0  0  0  0  0  0  0  0  0  0  0
   55.1170   26.6830   45.9870 O   0  0  0  0  0  0  0  0  0  0  0  0
   56.3460   25.2020   47.2070 O   0  0  0  0  0  0  0  0  0  0  0  0
   57.3530   31.6660   45.1020 N   0  0  0  0  0  0  0  0  0  0  0  0
   58.2090   32.6610   45.6860 C   0  0  0  0  0  0  0  0  0  0  0  0
   58.1900   33.9870   45.2110 C   0  0  0  0  0  0  0  0  0  0  0  0
   59.0480   34.9470   45.7480 C   0  0  0  0  0  0  0  0  0  0  0  0
   59.9450   34.5970   46.7530 C   0  0  0  0  0  0  0  0  0  0  0  0
   59.9980   33.2830   47.2190 C   0  0  0  0  0  0  0  0  0  0  0  0
   59.1430   32.2960   46.6910 C   0  0  0  0  0  0  0  0  0  0  0  0
   59.2510   30.9060   47.2120 C   0  0  0  0  0  0  0  0  0  0  0  0
   58.2260   30.2280   47.4870 O   0  0  0  0  0  0  0  0  0  0  0  0
   60.5010   30.3270   47.4070 O   0  0  0  0  0  0  0  0  0  0  0  0
   55.8123   30.1908   42.6690 H   0  0  0  0  0  0  0  0  0  0  0  0
   57.3724   29.3091   42.8953 H   0  0  0  0  0  0  0  0  0  0  0  0
   60.7818   28.7533   44.8000 H   0  0  0  0  0  0  0  0  0  0  0  0
   60.8924   26.6201   46.0931 H   0  0  0  0  0  0  0  0  0  0  0  0
   58.7795   25.5074   46.8137 H   0  0  0  0  0  0  0  0  0  0  0  0
   57.4918   34.2682   44.4088 H   0  0  0  0  0  0  0  0  0  0  0  0
   59.0156   35.9819   45.3767 H   0  0  0  0  0  0  0  0  0  0  0  0
   60.6138   35.3583   47.1810 H   0  0  0  0  0  0  0  0  0  0  0  0
   60.7159   33.0147   48.0080 H   0  0  0  0  0  0  0  0  0  0  0  0
  1  2  2  0
  2  3  1  0
  3  4  1  0
  4  5  1  0
  5  6  2  0
  6  7  1  0
  7  8  2  0
  8  9  1  0
  9 10  2  0
 10 11  1  0
 11 12  2  0
 11 13  1  0
  2 14  1  0
 14 15  1  0
 15 16  2  0
 16 17  1  0
 17 18  2  0
 18 19  1  0
 19 20  2  0
 20 21  1  0
 21 22  2  0
 21 23  1  0
 10  5  1  0
 20 15  1  0
  3 24  1  0
  3 25  1  0
  7 26  1  0
  8 27  1  0
  9 28  1  0
 16 29  1  0
 17 30  1  0
 18 31  1  0
 19 32  1  0
M  CHG  3  13  -1  14  -1  23  -1
M  END
>  <UniqueID>  (9) 
8

>  <SMILES>  (9) 
O=C(CSc1ncccc1C(=O)[O-])[N-]c1ccccc1C(=O)[O-]

>  <Energy>  (9) 
37.77279113725468

>  <Genealogy>  (9) 
O=C(CSc1ncccc1C(=O)[O-])[N-]c1ccccc1C(=O)[O-] (protonated)
O=C(CSc1ncccc1C(=O)[O-])[N-]c1ccccc1C(=O)[O-] (3D coordinates assigned)
O=C(CSc1ncccc1C(=O)[O-])[N-]c1ccccc1C(=O)[O-] (optimized conformer: 37.77279113725468 kcal/mol)

>  <smiles>  (9) 
O=C(CSc1ncccc1C(=O)O)Nc1ccccc1C(=O)O

>  <score_type>  (9) 
oracle

>  <origin>  (9) 
adg

>  <m_score__min__energy>  (9) 
-13.33

>  <m_primary>  (9) 
energy

$$$$
9:0
     RDKit          3D

 60 63  0  0  0  0  0  0  0  0999 V2000
   61.0770   27.9840   50.5010 C   0  0  0  0  0  0  0  0  0  0  0  0
   61.3040   29.2690   49.9290 O   0  0  0  0  0  0  0  0  0  0  0  0
   60.3110   30.2310   49.6870 C   0  0  0  0  0  0  0  0  0  0  0  0
   59.8890   30.5080   48.3720 C   0  0  0  0  0  0  0  0  0  0  0  0
   58.9260   31.4860   48.1220 C   0  0  0  0  0  0  0  0  0  0  0  0
   58.5910   31.8530   46.7320 C   0  0  0  0  0  0  0  0  0  0  0  0
   58.9770   33.0320   46.0900 C   0  0  0  0  0  0  0  0  0  0  0  0
   59.7750   34.1470   46.6560 C   0  0  0  0  0  0  0  0  0  0  0  0
   59.3910   35.3350   46.4790 O   0  0  0  0  0  0  0  0  0  0  0  0
   61.0350   33.9040   47.3820 C   0  0  0  0  0  0  0  0  0  0  0  0
   61.1180   34.1310   48.7660 C   0  0  0  0  0  0  0  0  0  0  0  0
   62.2860   33.8110   49.4650 C   0  0  0  0  0  0  0  0  0  0  0  0
   63.3930   33.2800   48.7880 C   0  0  0  0  0  0  0  0  0  0  0  0
   64.6180   32.8670   49.5500 C   0  0  0  0  0  0  0  0  0  0  0  0
   63.3160   33.0670   47.4030 C   0  0  0  0  0  0  0  0  0  0  0  0
   62.1500   33.3910   46.7020 C   0  0  0  0  0  0  0  0  0  0  0  0
   58.5230   32.9100   44.7840 C   0  0  0  0  0  0  0  0  0  0  0  0
   58.6510   33.8330   43.7500 O   0  0  0  0  0  0  0  0  0  0  0  0
   57.9000   31.6910   44.6860 C   0  0  0  0  0  0  0  0  0  0  0  0
   57.3200   31.1810   43.5290 O   0  0  0  0  0  0  0  0  0  0  0  0
   57.9380   31.0390   45.8660 N   0  0  0  0  0  0  0  0  0  0  0  0
   57.4420   29.6820   46.1200 C   0  0  0  0  0  0  0  0  0  0  0  0
   58.5770   28.6970   46.2010 C   0  0  0  0  0  0  0  0  0  0  0  0
   59.7130   28.8400   45.3880 C   0  0  0  0  0  0  0  0  0  0  0  0
   60.7610   27.9240   45.4820 C   0  0  0  0  0  0  0  0  0  0  0  0
   60.6730   26.8770   46.4020 C   0  0  0  0  0  0  0  0  0  0  0  0
   59.5770   26.7580   47.1970 N   0  0  0  0  0  0  0  0  0  0  0  0
   58.5400   27.6350   47.1220 C   0  0  0  0  0  0  0  0  0  0  0  0
   58.3660   32.1930   49.1860 C   0  0  0  0  0  0  0  0  0  0  0  0
   58.7740   31.9570   50.5010 C   0  0  0  0  0  0  0  0  0  0  0  0
   58.1850   32.7670   51.4910 O   0  0  0  0  0  0  0  0  0  0  0  0
   58.8630   33.7070   52.3140 C   0  0  0  0  0  0  0  0  0  0  0  0
   59.7380   30.9500   50.7710 C   0  0  0  0  0  0  0  0  0  0  0  0
   60.0910   30.7060   52.1100 O   0  0  0  0  0  0  0  0  0  0  0  0
   61.3750   30.8800   52.7020 C   0  0  0  0  0  0  0  0  0  0  0  0
   61.0910   28.0633   51.5980 H   0  0  0  0  0  0  0  0  0  0  0  0
   60.0979   27.6045   50.1733 H   0  0  0  0  0  0  0  0  0  0  0  0
   61.8668   27.2920   50.1733 H   0  0  0  0  0  0  0  0  0  0  0  0
   60.3240   29.9464   47.5321 H   0  0  0  0  0  0  0  0  0  0  0  0
   60.2600   34.5625   49.3023 H   0  0  0  0  0  0  0  0  0  0  0  0
   62.3366   33.9767   50.5513 H   0  0  0  0  0  0  0  0  0  0  0  0
   64.4183   32.9343   50.6296 H   0  0  0  0  0  0  0  0  0  0  0  0
   64.8799   31.8309   49.2895 H   0  0  0  0  0  0  0  0  0  0  0  0
   65.4538   33.5330   49.2895 H   0  0  0  0  0  0  0  0  0  0  0  0
   64.1773   32.6430   46.8660 H   0  0  0  0  0  0  0  0  0  0  0  0
   62.1068   33.2430   45.6129 H   0  0  0  0  0  0  0  0  0  0  0  0
   58.4070   33.6080   42.7960 H   0  0  0  0  0  0  0  0  0  0  0  0
   56.8901   29.6734   47.0715 H   0  0  0  0  0  0  0  0  0  0  0  0
   56.7837   29.3892   45.2888 H   0  0  0  0  0  0  0  0  0  0  0  0
   59.7766   29.6758   44.6757 H   0  0  0  0  0  0  0  0  0  0  0  0
   61.6472   28.0253   44.8383 H   0  0  0  0  0  0  0  0  0  0  0  0
   61.4921   26.1473   46.4834 H   0  0  0  0  0  0  0  0  0  0  0  0
   57.6698   27.5131   47.7838 H   0  0  0  0  0  0  0  0  0  0  0  0
   57.5912   32.9480   48.9866 H   0  0  0  0  0  0  0  0  0  0  0  0
   58.6866   33.4625   53.3719 H   0  0  0  0  0  0  0  0  0  0  0  0
   59.9419   33.6676   52.1035 H   0  0  0  0  0  0  0  0  0  0  0  0
   58.4851   34.7184   52.1035 H   0  0  0  0  0  0  0  0  0  0  0  0
   61.2784   30.8669   53.7977 H   0  0  0  0  0  0  0  0  0  0  0  0
   62.0396   30.0637   52.3827 H   0  0  0  0  0  0  0  0  0  0  0  0
   61.7984   31.8437   52.3827 H   0  0  0  0  0  0  0  0  0  0  0  0
  1  2  1  0
  2  3  1  0
  3  4  2  0
  4  5  1  0
  5  6  1  0
  6  7  2  0
  7  8  1  0
  8  9  2  0
  8 10  1  0
 10 11  2  0
 11 12  1  0
 12 13  2  0
 13 14  1  0
 13 15  1  0
 15 16  2  0
  7 17  1  0
 17 18  1  0
 17 19  2  0
 19 20  1  0
 19 21  1  0
 21 22  1  0
 22 23  1  0
 23 24  2  0
 24 25  1  0
 25 26  2  0
 26 27  1  0
 27 28  2  0
  5 29  2  0
 29 30  1  0
 30 31  1  0
 31 32  1  0
 30 33  2  0
 33 34  1  0
 34 35  1  0
 33  3  1  0
 21  6  1  0
 28 23  1  0
 16 10  1  0
  1 36  1  0
  1 37  1  0
  1 38  1  0
  4 39  1  0
 11 40  1  0
 12 41  1  0
 14 42  1  0
 14 43  1  0
 14 44  1  0
 15 45  1  0
 16 46  1  0
 18 47  1  0
 22 48  1  0
 22 49  1  0
 24 50  1  0
 25 51  1  0
 26 52  1  0
 28 53  1  0
 29 54  1  0
 32 55  1  0
 32 56  1  0
 32 57  1  0
 35 58  1  0
 35 59  1  0
 35 60  1  0
M  CHG  1  20  -1
M  END
>  <UniqueID>  (10) 
9

>  <SMILES>  (10) 
COc1cc(-c2c(C(=O)c3ccc(C)cc3)c(O)c([O-])n2Cc2cccnc2)cc(OC)c1OC

>  <Energy>  (10) 
104.91241981546368

>  <Genealogy>  (10) 
COc1cc(-c2c(C(=O)c3ccc(C)cc3)c(O)c([O-])n2Cc2cccnc2)cc(OC)c1OC (protonated)
COc1cc(-c2c(C(=O)c3ccc(C)cc3)c(O)c([O-])n2Cc2cccnc2)cc(OC)c1OC (3D coordinates assigned)
COc1cc(-c2c(C(=O)c3ccc(C)cc3)c(O)c([O-])n2Cc2cccnc2)cc(OC)c1OC (optimized conformer: 104.91241981546368 kcal/mol)

>  <smiles>  (10) 
COc1cc(-c2c(C(=O)c3ccc(C)cc3)c(O)c(O)n2Cc2cccnc2)cc(OC)c1OC

>  <score_type>  (10) 
oracle

>  <origin>  (10) 
adg

>  <m_score__min__energy>  (10) 
-9.0800000000000001

>  <m_primary>  (10) 
energy

$$$$
10:0
     RDKit          3D

 40 42  0  0  0  0  0  0  0  0999 V2000
   58.1860   26.7900   44.7730 O   0  0  0  0  0  0  0  0  0  0  0  0
   57.2400   27.5580   45.0980 C   0  0  0  0  0  0  0  0  0  0  0  0
   56.0300   27.0090   45.6450 N   0  0  0  0  0  0  0  0  0  0  0  0
   55.9490   25.7190   46.2740 C   0  0  0  0  0  0  0  0  0  0  0  0
   56.9030   25.3620   47.2420 C   0  0  0  0  0  0  0  0  0  0  0  0
   56.8560   24.1050   47.8510 C   0  0  0  0  0  0  0  0  0  0  0  0
   55.8670   23.1870   47.4910 C   0  0  0  0  0  0  0  0  0  0  0  0
   54.9270   23.5230   46.5140 C   0  0  0  0  0  0  0  0  0  0  0  0
   54.9690   24.7790   45.9020 C   0  0  0  0  0  0  0  0  0  0  0  0
   57.3640   29.0130   44.8410 C   0  0  0  0  0  0  0  0  0  0  0  0
   58.6420   29.5880   44.7320 C   0  0  0  0  0  0  0  0  0  0  0  0
   58.7890   30.9560   44.4830 C   0  0  0  0  0  0  0  0  0  0  0  0
   57.6570   31.7790   44.3500 C   0  0  0  0  0  0  0  0  0  0  0  0
   57.7470   33.1590   44.1020 O   0  0  0  0  0  0  0  0  0  0  0  0
   57.4830   34.1880   45.0570 C   0  0  0  0  0  0  0  0  0  0  0  0
   58.3430   34.0160   46.2810 C   0  0  0  0  0  0  0  0  0  0  0  0
   59.5410   34.7380   46.4070 C   0  0  0  0  0  0  0  0  0  0  0  0
   60.3480   34.5740   47.5370 C   0  0  0  0  0  0  0  0  0  0  0  0
   59.9680   33.6830   48.5440 C   0  0  0  0  0  0  0  0  0  0  0  0
   58.7850   32.9500   48.4210 C   0  0  0  0  0  0  0  0  0  0  0  0
   58.4200   32.0830   49.3960 F   0  0  0  0  0  0  0  0  0  0  0  0
   57.9750   33.1120   47.2910 C   0  0  0  0  0  0  0  0  0  0  0  0
   56.3850   31.2110   44.4690 C   0  0  0  0  0  0  0  0  0  0  0  0
   56.2300   29.8440   44.7220 C   0  0  0  0  0  0  0  0  0  0  0  0
   54.9460   29.3330   44.8810 O   0  0  0  0  0  0  0  0  0  0  0  0
   55.1400   27.5320   45.4800 H   0  0  0  0  0  0  0  0  0  0  0  0
   57.6914   26.0761   47.5221 H   0  0  0  0  0  0  0  0  0  0  0  0
   57.6000   23.8380   48.6160 H   0  0  0  0  0  0  0  0  0  0  0  0
   55.8283   22.2006   47.9763 H   0  0  0  0  0  0  0  0  0  0  0  0
   54.1520   22.7976   46.2256 H   0  0  0  0  0  0  0  0  0  0  0  0
   54.2326   25.0343   45.1258 H   0  0  0  0  0  0  0  0  0  0  0  0
   59.5351   28.9556   44.8437 H   0  0  0  0  0  0  0  0  0  0  0  0
   59.7954   31.3904   44.3907 H   0  0  0  0  0  0  0  0  0  0  0  0
   57.6962   35.1662   44.6012 H   0  0  0  0  0  0  0  0  0  0  0  0
   56.4266   34.1272   45.3574 H   0  0  0  0  0  0  0  0  0  0  0  0
   59.8458   35.4357   45.6131 H   0  0  0  0  0  0  0  0  0  0  0  0
   61.2823   35.1466   47.6332 H   0  0  0  0  0  0  0  0  0  0  0  0
   60.6012   33.5585   49.4349 H   0  0  0  0  0  0  0  0  0  0  0  0
   57.0471   32.5293   47.1936 H   0  0  0  0  0  0  0  0  0  0  0  0
   55.4943   31.8476   44.3623 H   0  0  0  0  0  0  0  0  0  0  0  0
  1  2  2  0
  2  3  1  0
  3  4  1  0
  4  5  2  0
  5  6  1  0
  6  7  2  0
  7  8  1  0
  8  9  2  0
  2 10  1  0
 10 11  2  0
 11 12  1  0
 12 13  2  0
 13 14  1  0
 14 15  1  0
 15 16  1  0
 16 17  2  0
 17 18  1  0
 18 19  2  0
 19 20  1  0
 20 21  1  0
 20 22  2  0
 13 23  1  0
 23 24  2  0
 24 25  1  0
  9  4  1  0
 24 10  1  0
 22 16  1  0
  3 26  1  0
  5 27  1  0
  6 28  1  0
  7 29  1  0
  8 30  1  0
  9 31  1  0
 11 32  1  0
 12 33  1  0
 15 34  1  0
 15 35  1  0
 17 36  1  0
 18 37  1  0
 19 38  1  0
 22 39  1  0
 23 40  1  0
M  CHG  1  25  -1
M  END
>  <UniqueID>  (11) 
10

>  <SMILES>  (11) 
O=C(Nc1ccccc1)c1ccc(OCc2cccc(F)c2)cc1[O-]

>  <Energy>  (11) 
50.22492343661485

>  <Genealogy>  (11) 
O=C(Nc1ccccc1)c1ccc(OCc2cccc(F)c2)cc1[O-] (protonated)
O=C(Nc1ccccc1)c1ccc(OCc2cccc(F)c2)cc1[O-] (3D coordinates assigned)
O=C(Nc1ccccc1)c1ccc(OCc2cccc(F)c2)cc1[O-] (optimized conformer: 50.22492343661485 kcal/mol)

>  <smiles>  (11) 
O=C(Nc1ccccc1)c1ccc(OCc2cccc(F)c2)cc1O

>  <score_type>  (11) 
oracle

>  <origin>  (11) 
adg

>  <m_score__min__energy>  (11) 
-11.109999999999999

>  <m_primary>  (11) 
energy

$$$$
11:0
     RDKit          3D

 36 37  0  0  0  0  0  0  0  0999 V2000
   61.0210   30.7650   47.1110 C   0  0  0  0  0  0  0  0  0  0  0  0
   60.0900   30.0060   48.0500 C   0  0  0  0  0  0  0  0  0  0  0  0
   60.1360   28.6060   47.7790 O   0  0  0  0  0  0  0  0  0  0  0  0
   59.7440   28.0410   46.5580 C   0  0  0  0  0  0  0  0  0  0  0  0
   60.5340   27.2750   45.9420 O   0  0  0  0  0  0  0  0  0  0  0  0
   58.4180   28.3600   45.9690 C   0  0  0  0  0  0  0  0  0  0  0  0
   58.2090   29.6400   45.4250 C   0  0  0  0  0  0  0  0  0  0  0  0
   56.9610   30.0060   44.9020 C   0  0  0  0  0  0  0  0  0  0  0  0
   56.7270   31.3130   44.3550 N   0  0  0  0  0  0  0  0  0  0  0  0
   57.7210   32.3120   44.0880 C   0  0  0  0  0  0  0  0  0  0  0  0
   58.0820   32.4990   42.8960 O   0  0  0  0  0  0  0  0  0  0  0  0
   58.2950   33.1580   45.1620 C   0  0  0  0  0  0  0  0  0  0  0  0
   58.0310   32.8830   46.5170 C   0  0  0  0  0  0  0  0  0  0  0  0
   58.5830   33.6840   47.5200 C   0  0  0  0  0  0  0  0  0  0  0  0
   59.3900   34.7730   47.1840 C   0  0  0  0  0  0  0  0  0  0  0  0
   59.6440   35.0660   45.8420 C   0  0  0  0  0  0  0  0  0  0  0  0
   59.0950   34.2670   44.8330 C   0  0  0  0  0  0  0  0  0  0  0  0
   55.9390   29.0530   44.8770 C   0  0  0  0  0  0  0  0  0  0  0  0
   54.8120   29.3390   44.3920 O   0  0  0  0  0  0  0  0  0  0  0  0
   56.1540   27.8120   45.3840 N   0  0  0  0  0  0  0  0  0  0  0  0
   57.3450   27.4340   45.9240 C   0  0  0  0  0  0  0  0  0  0  0  0
   57.4640   26.0270   46.4320 C   0  0  0  0  0  0  0  0  0  0  0  0
   61.7399   31.3511   47.7022 H   0  0  0  0  0  0  0  0  0  0  0  0
   61.5649   30.0496   46.4766 H   0  0  0  0  0  0  0  0  0  0  0  0
   60.4299   31.4419   46.4766 H   0  0  0  0  0  0  0  0  0  0  0  0
   60.4020   30.1834   49.0898 H   0  0  0  0  0  0  0  0  0  0  0  0
   59.0614   30.3637   47.8952 H   0  0  0  0  0  0  0  0  0  0  0  0
   59.0367   30.3643   45.4097 H   0  0  0  0  0  0  0  0  0  0  0  0
   57.3869   32.0333   46.7876 H   0  0  0  0  0  0  0  0  0  0  0  0
   58.3814   33.4562   48.5771 H   0  0  0  0  0  0  0  0  0  0  0  0
   59.8256   35.4000   47.9759 H   0  0  0  0  0  0  0  0  0  0  0  0
   60.2766   35.9263   45.5780 H   0  0  0  0  0  0  0  0  0  0  0  0
   59.2900   34.5074   43.7775 H   0  0  0  0  0  0  0  0  0  0  0  0
   57.4635   26.0330   47.5320 H   0  0  0  0  0  0  0  0  0  0  0  0
   56.6129   25.4326   46.0682 H   0  0  0  0  0  0  0  0  0  0  0  0
   58.4028   25.5840   46.0682 H   0  0  0  0  0  0  0  0  0  0  0  0
  1  2  1  0
  2  3  1  0
  3  4  1  0
  4  5  2  0
  4  6  1  0
  6  7  1  0
  7  8  2  0
  8  9  1  0
  9 10  1  0
 10 11  2  0
 10 12  1  0
 12 13  2  0
 13 14  1  0
 14 15  2  0
 15 16  1  0
 16 17  2  0
  8 18  1  0
 18 19  2  0
 18 20  1  0
 20 21  1  0
 21 22  1  0
 21  6  2  0
 17 12  1  0
  1 23  1  0
  1 24  1  0
  1 25  1  0
  2 26  1  0
  2 27  1  0
  7 28  1  0
 13 29  1  0
 14 30  1  0
 15 31  1  0
 16 32  1  0
 17 33  1  0
 22 34  1  0
 22 35  1  0
 22 36  1  0
M  CHG  2   9  -1  20  -1
M  END
>  <UniqueID>  (12) 
11

>  <SMILES>  (12) 
CCOC(=O)c1cc([N-]C(=O)c2ccccc2)c(=O)[n-]c1C

>  <Energy>  (12) 
43.380059767138704

>  <Genealogy>  (12) 
CCOC(=O)c1cc([N-]C(=O)c2ccccc2)c(=O)[n-]c1C (protonated)
CCOC(=O)c1cc([N-]C(=O)c2ccccc2)c(=O)[n-]c1C (3D coordinates assigned)
CCOC(=O)c1cc([N-]C(=O)c2ccccc2)c(=O)[n-]c1C (optimized conformer: 43.380059767138704 kcal/mol)

>  <smiles>  (12) 
CCOC(=O)c1cc(NC(=O)c2ccccc2)c(=O)[nH]c1C

>  <score_type>  (12) 
oracle

>  <origin>  (12) 
adg

>  <m_score__min__energy>  (12) 
-10.27

>  <m_primary>  (12) 
energy

$$$$
12:0
     RDKit          3D

 32 33  0  0  0  0  0  0  0  0999 V2000
   55.4540   29.1060   44.8060 O   0  0  0  0  0  0  0  0  0  0  0  0
   56.6990   29.0250   44.6460 C   0  0  0  0  0  0  0  0  0  0  0  0
   57.5090   30.2940   44.5870 C   0  0  0  0  0  0  0  0  0  0  0  0
   56.7150   31.4680   44.9610 N   0  0  0  0  0  0  0  0  0  0  0  0
   57.6020   32.9430   44.7040 S   0  0  0  0  0  0  0  0  0  0  0  0
   56.6840   34.1260   44.8440 O   0  0  0  0  0  0  0  0  0  0  0  0
   58.1570   32.9410   43.3070 O   0  0  0  0  0  0  0  0  0  0  0  0
   58.9330   33.0760   45.8500 C   0  0  0  0  0  0  0  0  0  0  0  0
   59.3930   31.9380   46.5280 C   0  0  0  0  0  0  0  0  0  0  0  0
   60.4240   32.0470   47.4660 C   0  0  0  0  0  0  0  0  0  0  0  0
   61.0000   33.2920   47.7300 C   0  0  0  0  0  0  0  0  0  0  0  0
   60.5450   34.4300   47.0580 C   0  0  0  0  0  0  0  0  0  0  0  0
   59.5130   34.3240   46.1210 C   0  0  0  0  0  0  0  0  0  0  0  0
   57.3150   27.7300   44.6390 N   0  0  0  0  0  0  0  0  0  0  0  0
   57.4000   26.8660   45.6130 C   0  0  0  0  0  0  0  0  0  0  0  0
   58.6180   26.6940   46.1970 N   0  0  0  0  0  0  0  0  0  0  0  0
   58.8290   25.8100   47.2080 C   0  0  0  0  0  0  0  0  0  0  0  0
   57.7750   25.0370   47.6880 C   0  0  0  0  0  0  0  0  0  0  0  0
   56.5060   25.1970   47.1340 C   0  0  0  0  0  0  0  0  0  0  0  0
   56.2960   26.1210   46.1020 C   0  0  0  0  0  0  0  0  0  0  0  0
   55.0060   26.3060   45.6060 O   0  0  0  0  0  0  0  0  0  0  0  0
   58.3597   30.2052   45.2786 H   0  0  0  0  0  0  0  0  0  0  0  0
   57.8523   30.4310   43.5510 H   0  0  0  0  0  0  0  0  0  0  0  0
   58.9413   30.9566   46.3212 H   0  0  0  0  0  0  0  0  0  0  0  0
   60.7817   31.1521   47.9963 H   0  0  0  0  0  0  0  0  0  0  0  0
   61.8121   33.3768   48.4671 H   0  0  0  0  0  0  0  0  0  0  0  0
   60.9993   35.4098   47.2666 H   0  0  0  0  0  0  0  0  0  0  0  0
   59.1550   35.2213   45.5950 H   0  0  0  0  0  0  0  0  0  0  0  0
   59.8322   25.7054   47.6468 H   0  0  0  0  0  0  0  0  0  0  0  0
   57.9419   24.3085   48.4951 H   0  0  0  0  0  0  0  0  0  0  0  0
   55.6653   24.5948   47.5089 H   0  0  0  0  0  0  0  0  0  0  0  0
   54.7750   27.0830   44.9980 H   0  0  0  0  0  0  0  0  0  0  0  0
  1  2  2  0
  2  3  1  0
  3  4  1  0
  4  5  1  0
  5  6  2  0
  5  7  2  0
  5  8  1  0
  8  9  2  0
  9 10  1  0
 10 11  2  0
 11 12  1  0
 12 13  2  0
  2 14  1  0
 14 15  2  3
 15 16  1  0
 16 17  1  0
 17 18  2  0
 18 19  1  0
 19 20  2  0
 20 21  1  0
 13  8  1  0
 20 15  1  0
  3 22  1  0
  3 23  1  0
  9 24  1  0
 10 25  1  0
 11 26  1  0
 12 27  1  0
 13 28  1  0
 17 29  1  0
 18 30  1  0
 19 31  1  0
 21 32  1  0
M  CHG  2   4  -1  16  -1
M  END
>  <UniqueID>  (13) 
12

>  <SMILES>  (13) 
O=C(C[N-]S(=O)(=O)c1ccccc1)N=c1[n-]cccc1O

>  <Energy>  (13) 
44.060011375600105

>  <Genealogy>  (13) 
O=C(C[N-]S(=O)(=O)c1ccccc1)N=c1[n-]cccc1O (protonated)
O=C(C[N-]S(=O)(=O)c1ccccc1)N=c1[n-]cccc1O (3D coordinates assigned)
O=C(C[N-]S(=O)(=O)c1ccccc1)N=c1[n-]cccc1O (optimized conformer: 44.060011375600105 kcal/mol)

>  <smiles>  (13) 
O=C(CNS(=O)(=O)c1ccccc1)N=c1[nH]cccc1O

>  <score_type>  (13) 
oracle

>  <origin>  (13) 
adg

>  <m_score__min__energy>  (13) 
-11.35

>  <m_primary>  (13) 
energy

$$$$
13:0
     RDKit          3D

 59 61  0  0  0  0  0  0  0  0999 V2000
   53.5570   24.3910   45.3890 C   0  0  0  0  0  0  0  0  0  0  0  0
   54.4270   25.3450   45.9880 O   0  0  0  0  0  0  0  0  0  0  0  0
   55.8290   25.2970   45.9270 C   0  0  0  0  0  0  0  0  0  0  0  0
   56.5330   24.0800   46.0300 C   0  0  0  0  0  0  0  0  0  0  0  0
   57.9250   24.0490   45.9030 C   0  0  0  0  0  0  0  0  0  0  0  0
   58.5990   22.8350   46.0080 O   0  0  0  0  0  0  0  0  0  0  0  0
   58.6270   25.2350   45.6630 C   0  0  0  0  0  0  0  0  0  0  0  0
   57.9420   26.4480   45.5670 C   0  0  0  0  0  0  0  0  0  0  0  0
   56.5520   26.4940   45.7280 C   0  0  0  0  0  0  0  0  0  0  0  0
   55.8910   27.7620   45.6240 N   0  0  0  0  0  0  0  0  0  0  0  0
   56.4530   28.9290   45.0180 C   0  0  0  0  0  0  0  0  0  0  0  0
   55.9800   29.3450   43.9280 O   0  0  0  0  0  0  0  0  0  0  0  0
   57.5720   29.5890   45.6190 N   0  0  0  0  0  0  0  0  0  0  0  0
   58.9570   29.1650   45.4500 C   0  0  0  0  0  0  0  0  0  0  0  0
   59.6340   28.9840   46.8110 C   0  0  0  0  0  0  0  0  0  0  0  0
   60.2030   30.2900   47.2950 C   0  0  0  0  0  0  0  0  0  0  0  0
   60.8010   30.3760   48.5620 C   0  0  0  0  0  0  0  0  0  0  0  0
   61.3620   31.5790   48.9960 C   0  0  0  0  0  0  0  0  0  0  0  0
   61.3380   32.7040   48.1670 C   0  0  0  0  0  0  0  0  0  0  0  0
   60.7530   32.6320   46.8930 C   0  0  0  0  0  0  0  0  0  0  0  0
   60.7100   33.8410   45.9940 C   0  0  0  0  0  0  0  0  0  0  0  0
   59.4740   34.6190   46.2200 N   0  0  0  0  0  0  0  0  0  0  0  0
   58.7550   34.2480   47.4670 C   0  0  0  0  0  0  0  0  0  0  0  0
   57.4630   33.4420   47.2380 C   0  0  0  0  0  0  0  0  0  0  0  0
   57.5740   32.5740   45.9900 C   0  0  0  0  0  0  0  0  0  0  0  0
   57.7440   33.4600   44.7420 C   0  0  2  0  0  0  0  0  0  0  0  0
   58.2680   32.6350   43.5540 C   0  0  0  0  0  0  0  0  0  0  0  0
   57.3590   31.6160   43.2360 O   0  0  0  0  0  0  0  0  0  0  0  0
   58.6020   34.7280   45.0250 C   0  0  0  0  0  0  0  0  0  0  0  0
   60.1920   31.4200   46.4610 C   0  0  0  0  0  0  0  0  0  0  0  0
   53.0388   23.8227   46.1755 H   0  0  0  0  0  0  0  0  0  0  0  0
   52.8163   24.9117   44.7643 H   0  0  0  0  0  0  0  0  0  0  0  0
   54.1436   23.7013   44.7643 H   0  0  0  0  0  0  0  0  0  0  0  0
   55.9818   23.1457   46.2121 H   0  0  0  0  0  0  0  0  0  0  0  0
   58.7360   22.2320   45.2050 H   0  0  0  0  0  0  0  0  0  0  0  0
   59.7209   25.2120   45.5497 H   0  0  0  0  0  0  0  0  0  0  0  0
   58.4988   27.3746   45.3633 H   0  0  0  0  0  0  0  0  0  0  0  0
   58.9789   28.2096   44.9053 H   0  0  0  0  0  0  0  0  0  0  0  0
   59.4983   29.9376   44.8842 H   0  0  0  0  0  0  0  0  0  0  0  0
   58.8931   28.6204   47.5382 H   0  0  0  0  0  0  0  0  0  0  0  0
   60.4524   28.2564   46.7070 H   0  0  0  0  0  0  0  0  0  0  0  0
   60.8279   29.4919   49.2160 H   0  0  0  0  0  0  0  0  0  0  0  0
   61.8238   31.6413   49.9924 H   0  0  0  0  0  0  0  0  0  0  0  0
   61.7794   33.6498   48.5143 H   0  0  0  0  0  0  0  0  0  0  0  0
   61.5812   34.4786   46.2051 H   0  0  0  0  0  0  0  0  0  0  0  0
   60.7276   33.5030   44.9473 H   0  0  0  0  0  0  0  0  0  0  0  0
   59.4323   33.6438   48.0884 H   0  0  0  0  0  0  0  0  0  0  0  0
   58.4570   35.1899   47.9507 H   0  0  0  0  0  0  0  0  0  0  0  0
   57.2825   32.7964   48.1102 H   0  0  0  0  0  0  0  0  0  0  0  0
   56.6299   34.1472   47.1012 H   0  0  0  0  0  0  0  0  0  0  0  0
   58.4452   31.9093   46.0856 H   0  0  0  0  0  0  0  0  0  0  0  0
   56.6566   31.9763   45.8847 H   0  0  0  0  0  0  0  0  0  0  0  0
   56.7497   33.8382   44.4621 H   0  0  0  0  0  0  0  0  0  0  0  0
   58.3958   33.2935   42.6822 H   0  0  0  0  0  0  0  0  0  0  0  0
   59.2332   32.1837   43.8273 H   0  0  0  0  0  0  0  0  0  0  0  0
   57.4330   30.9430   43.9610 H   0  0  0  0  0  0  0  0  0  0  0  0
   59.2399   34.9153   44.1486 H   0  0  0  0  0  0  0  0  0  0  0  0
   57.8967   35.5487   45.2227 H   0  0  0  0  0  0  0  0  0  0  0  0
   59.7398   31.3546   45.4604 H   0  0  0  0  0  0  0  0  0  0  0  0
  1  2  1  0
  2  3  1  0
  3  4  2  0
  4  5  1  0
  5  6  1  0
  5  7  2  0
  7  8  1  0
  8  9  2  0
  9 10  1  0
 10 11  1  0
 11 12  2  0
 11 13  1  0
 13 14  1  0
 14 15  1  0
 15 16  1  0
 16 17  2  0
 17 18  1  0
 18 19  2  0
 19 20  1  0
 20 21  1  0
 21 22  1  0
 22 23  1  0
 23 24  1  0
 24 25  1  0
 25 26  1  0
 26 27  1  0
 27 28  1  0
 26 29  1  0
 20 30  2  0
  9  3  1  0
 30 16  1  0
 29 22  1  0
  1 31  1  0
  1 32  1  0
  1 33  1  0
  4 34  1  0
  6 35  1  0
  7 36  1  0
  8 37  1  0
 14 38  1  0
 14 39  1  0
 15 40  1  0
 15 41  1  0
 17 42  1  0
 18 43  1  0
 19 44  1  0
 21 45  1  0
 21 46  1  0
 23 47  1  0
 23 48  1  0
 24 49  1  0
 24 50  1  0
 25 51  1  0
 25 52  1  0
 26 53  1  6
 27 54  1  0
 27 55  1  0
 28 56  1  0
 29 57  1  0
 29 58  1  0
 30 59  1  0
M  CHG  2  10  -1  13  -1
M  END
>  <UniqueID>  (14) 
13

>  <SMILES>  (14) 
COc1cc(O)ccc1[N-]C(=O)[N-]CCc1cccc(CN2CCC[C@H](CO)C2)c1

>  <Energy>  (14) 
68.10701764776059

>  <Genealogy>  (14) 
COc1cc(O)ccc1[N-]C(=O)[N-]CCc1cccc(CN2CCCC(CO)C2)c1 (protonated)
COc1cc(O)ccc1[N-]C(=O)[N-]CCc1cccc(CN2CCC[C@H](CO)C2)c1 (chirality)
COc1cc(O)ccc1[N-]C(=O)[N-]CCc1cccc(CN2CCC[C@H](CO)C2)c1 (3D coordinates assigned)
COc1cc(O)ccc1[N-]C(=O)[N-]CCc1cccc(CN2CCC[C@H](CO)C2)c1 (nonaromatic ring conformer: 68.10701764776059 kcal/mol)

>  <smiles>  (14) 
COc1cc(O)ccc1NC(=O)NCCc1cccc(CN2CCCC(CO)C2)c1

>  <score_type>  (14) 
oracle

>  <origin>  (14) 
adg

>  <m_score__min__energy>  (14) 
-13.039999999999999

>  <m_primary>  (14) 
energy

$$$$
14:0
     RDKit          3D

 42 44  0  0  0  0  0  0  0  0999 V2000
   55.5330   25.2180   46.6220 O   0  0  0  0  0  0  0  0  0  0  0  0
   56.4850   24.7600   47.3090 C   0  0  0  0  0  0  0  0  0  0  0  0
   57.7270   25.5740   47.4800 C   0  0  0  0  0  0  0  0  0  0  0  0
   58.7470   25.5280   45.9650 S   0  0  0  0  0  0  0  0  0  0  0  0
   58.2330   27.1440   45.3880 C   0  0  0  0  0  0  0  0  0  0  0  0
   59.1610   28.0400   44.9670 N   0  0  0  0  0  0  0  0  0  0  0  0
   58.8010   29.2750   44.5360 C   0  0  0  0  0  0  0  0  0  0  0  0
   59.6950   30.0820   44.1630 O   0  0  0  0  0  0  0  0  0  0  0  0
   57.4440   29.6450   44.5160 C   0  0  0  0  0  0  0  0  0  0  0  0
   57.0110   31.0010   44.0030 C   0  0  0  0  0  0  0  0  0  0  0  0
   57.6430   32.0990   44.8170 C   0  0  0  0  0  0  0  0  0  0  0  0
   58.0010   33.3160   44.2120 C   0  0  0  0  0  0  0  0  0  0  0  0
   58.5500   34.3490   44.9790 C   0  0  0  0  0  0  0  0  0  0  0  0
   58.7400   34.1760   46.3540 C   0  0  0  0  0  0  0  0  0  0  0  0
   58.3830   32.9710   46.9650 C   0  0  0  0  0  0  0  0  0  0  0  0
   57.8360   31.9340   46.2010 C   0  0  0  0  0  0  0  0  0  0  0  0
   56.5020   28.6930   44.9500 C   0  0  0  0  0  0  0  0  0  0  0  0
   55.1440   28.9860   44.9580 O   0  0  0  0  0  0  0  0  0  0  0  0
   56.9170   27.4720   45.3750 N   0  0  0  0  0  0  0  0  0  0  0  0
   56.3590   23.5150   48.0050 N   0  0  0  0  0  0  0  0  0  0  0  0
   55.1690   22.7270   48.1530 C   0  0  0  0  0  0  0  0  0  0  0  0
   54.8060   22.1490   49.3810 C   0  0  0  0  0  0  0  0  0  0  0  0
   53.6310   21.4000   49.4820 C   0  0  0  0  0  0  0  0  0  0  0  0
   52.8010   21.2360   48.3680 C   0  0  0  0  0  0  0  0  0  0  0  0
   53.1360   21.8300   47.1390 C   0  0  0  0  0  0  0  0  0  0  0  0
   52.2560   21.6760   45.9620 C   0  0  0  0  0  0  0  0  0  0  0  0
   52.1110   22.6240   45.1430 O   0  0  0  0  0  0  0  0  0  0  0  0
   51.5810   20.4810   45.7390 O   0  0  0  0  0  0  0  0  0  0  0  0
   54.3230   22.5800   47.0460 C   0  0  0  0  0  0  0  0  0  0  0  0
   57.4483   26.6161   47.6956 H   0  0  0  0  0  0  0  0  0  0  0  0
   58.3119   25.1541   48.3116 H   0  0  0  0  0  0  0  0  0  0  0  0
   57.3193   31.1059   42.9523 H   0  0  0  0  0  0  0  0  0  0  0  0
   55.9171   31.0805   44.0868 H   0  0  0  0  0  0  0  0  0  0  0  0
   57.8490   33.4567   43.1317 H   0  0  0  0  0  0  0  0  0  0  0  0
   58.8326   35.2983   44.5004 H   0  0  0  0  0  0  0  0  0  0  0  0
   59.1712   34.9899   46.9554 H   0  0  0  0  0  0  0  0  0  0  0  0
   58.5320   32.8376   48.0467 H   0  0  0  0  0  0  0  0  0  0  0  0
   57.5559   30.9863   46.6842 H   0  0  0  0  0  0  0  0  0  0  0  0
   55.4476   22.2863   50.2639 H   0  0  0  0  0  0  0  0  0  0  0  0
   53.3574   20.9372   50.4417 H   0  0  0  0  0  0  0  0  0  0  0  0
   51.8812   20.6389   48.4543 H   0  0  0  0  0  0  0  0  0  0  0  0
   54.5902   23.0571   46.0916 H   0  0  0  0  0  0  0  0  0  0  0  0
  1  2  2  0
  2  3  1  0
  3  4  1  0
  4  5  1  0
  5  6  2  0
  6  7  1  0
  7  8  2  0
  7  9  1  0
  9 10  1  0
 10 11  1  0
 11 12  2  0
 12 13  1  0
 13 14  2  0
 14 15  1  0
 15 16  2  0
  9 17  2  0
 17 18  1  0
 17 19  1  0
  2 20  1  0
 20 21  1  0
 21 22  2  0
 22 23  1  0
 23 24  2  0
 24 25  1  0
 25 26  1  0
 26 27  2  0
 26 28  1  0
 25 29  2  0
 19  5  1  0
 29 21  1  0
 16 11  1  0
  3 30  1  0
  3 31  1  0
 10 32  1  0
 10 33  1  0
 12 34  1  0
 13 35  1  0
 14 36  1  0
 15 37  1  0
 16 38  1  0
 22 39  1  0
 23 40  1  0
 24 41  1  0
 29 42  1  0
M  CHG  4  18  -1  19  -1  20  -1  28  -1
M  END
>  <UniqueID>  (15) 
14

>  <SMILES>  (15) 
O=C(CSc1nc(=O)c(Cc2ccccc2)c([O-])[n-]1)[N-]c1cccc(C(=O)[O-])c1

>  <Energy>  (15) 
45.74972705868964

>  <Genealogy>  (15) 
O=C(CSc1nc(=O)c(Cc2ccccc2)c([O-])[n-]1)[N-]c1cccc(C(=O)[O-])c1 (protonated)
O=C(CSc1nc(=O)c(Cc2ccccc2)c([O-])[n-]1)[N-]c1cccc(C(=O)[O-])c1 (3D coordinates assigned)
O=C(CSc1nc(=O)c(Cc2ccccc2)c([O-])[n-]1)[N-]c1cccc(C(=O)[O-])c1 (optimized conformer: 45.74972705868964 kcal/mol)

>  <smiles>  (15) 
O=C(CSc1nc(=O)c(Cc2ccccc2)c(O)[nH]1)Nc1cccc(C(=O)O)c1

>  <score_type>  (15) 
oracle

>  <origin>  (15) 
adg

>  <m_score__min__energy>  (15) 
-16.649999999999999

>  <m_primary>  (15) 
energy

$$$$
15:0
     RDKit          3D

 34 35  0  0  0  0  0  0  0  0999 V2000
   54.7600   26.3130   46.0030 N   0  0  0  0  0  0  0  0  0  0  0  0
   56.2590   25.4960   46.2640 S   0  0  0  0  0  0  0  0  0  0  0  0
   56.5350   24.5710   45.1120 O   0  0  0  0  0  0  0  0  0  0  0  0
   56.1730   24.6830   47.5240 O   0  0  0  0  0  0  0  0  0  0  0  0
   57.5560   26.6790   46.4020 C   0  0  0  0  0  0  0  0  0  0  0  0
   58.5270   26.5490   47.4040 C   0  0  0  0  0  0  0  0  0  0  0  0
   59.5400   27.5030   47.5270 C   0  0  0  0  0  0  0  0  0  0  0  0
   59.5940   28.5880   46.6470 C   0  0  0  0  0  0  0  0  0  0  0  0
   58.6340   28.7200   45.6280 C   0  0  0  0  0  0  0  0  0  0  0  0
   58.6330   29.8340   44.7230 N   0  0  0  0  0  0  0  0  0  0  0  0
   57.5240   30.6930   44.4330 C   0  0  0  0  0  0  0  0  0  0  0  0
   56.3740   30.4340   44.8770 O   0  0  0  0  0  0  0  0  0  0  0  0
   57.7540   31.9570   43.6660 C   0  0  0  0  0  0  0  0  0  0  0  0
   57.2720   33.0800   44.4010 O   0  0  0  0  0  0  0  0  0  0  0  0
   57.5970   33.3190   45.7420 C   0  0  0  0  0  0  0  0  0  0  0  0
   56.6830   33.5200   46.5890 O   0  0  0  0  0  0  0  0  0  0  0  0
   59.0150   33.3350   46.1630 C   0  0  0  0  0  0  0  0  0  0  0  0
   59.6150   32.1980   46.7290 C   0  0  0  0  0  0  0  0  0  0  0  0
   60.9540   32.2340   47.1240 C   0  0  0  0  0  0  0  0  0  0  0  0
   61.6870   33.4100   46.9500 C   0  0  0  0  0  0  0  0  0  0  0  0
   63.3690   33.4830   47.4350 Cl  0  0  0  0  0  0  0  0  0  0  0  0
   61.0960   34.5040   46.4010 N   0  0  0  0  0  0  0  0  0  0  0  0
   59.7940   34.4950   46.0090 C   0  0  0  0  0  0  0  0  0  0  0  0
   57.6060   27.7730   45.5270 C   0  0  0  0  0  0  0  0  0  0  0  0
   54.6980   27.0740   46.7160 H   0  0  0  0  0  0  0  0  0  0  0  0
   58.4915   25.6940   48.0951 H   0  0  0  0  0  0  0  0  0  0  0  0
   60.2972   27.4003   48.3183 H   0  0  0  0  0  0  0  0  0  0  0  0
   60.3895   29.3404   46.7520 H   0  0  0  0  0  0  0  0  0  0  0  0
   58.8319   32.0790   43.4835 H   0  0  0  0  0  0  0  0  0  0  0  0
   57.2128   31.8975   42.7102 H   0  0  0  0  0  0  0  0  0  0  0  0
   59.0286   31.2768   46.8615 H   0  0  0  0  0  0  0  0  0  0  0  0
   61.4265   31.3452   47.5676 H   0  0  0  0  0  0  0  0  0  0  0  0
   59.3483   35.3995   45.5694 H   0  0  0  0  0  0  0  0  0  0  0  0
   56.8316   27.8891   44.7544 H   0  0  0  0  0  0  0  0  0  0  0  0
  1  2  1  0
  2  3  2  0
  2  4  2  0
  2  5  1  0
  5  6  2  0
  6  7  1  0
  7  8  2  0
  8  9  1  0
  9 10  1  0
 10 11  1  0
 11 12  2  0
 11 13  1  0
 13 14  1  0
 14 15  1  0
 15 16  2  0
 15 17  1  0
 17 18  2  0
 18 19  1  0
 19 20  2  0
 20 21  1  0
 20 22  1  0
 22 23  2  0
  9 24  2  0
 24  5  1  0
 23 17  1  0
  1 25  1  0
  6 26  1  0
  7 27  1  0
  8 28  1  0
 13 29  1  0
 13 30  1  0
 18 31  1  0
 19 32  1  0
 23 33  1  0
 24 34  1  0
M  CHG  2   1  -1  10  -1
M  END
>  <UniqueID>  (16) 
15

>  <SMILES>  (16) 
[NH-]S(=O)(=O)c1cccc([N-]C(=O)COC(=O)c2ccc(Cl)nc2)c1

>  <Energy>  (16) 
36.1698537130417

>  <Genealogy>  (16) 
[NH-]S(=O)(=O)c1cccc([N-]C(=O)COC(=O)c2ccc(Cl)nc2)c1 (protonated)
[NH-]S(=O)(=O)c1cccc([N-]C(=O)COC(=O)c2ccc(Cl)nc2)c1 (3D coordinates assigned)
[NH-]S(=O)(=O)c1cccc([N-]C(=O)COC(=O)c2ccc(Cl)nc2)c1 (optimized conformer: 36.1698537130417 kcal/mol)

>  <smiles>  (16) 
NS(=O)(=O)c1cccc(NC(=O)COC(=O)c2ccc(Cl)nc2)c1

>  <score_type>  (16) 
oracle

>  <origin>  (16) 
adg

>  <m_score__min__energy>  (16) 
-12.460000000000001

>  <m_primary>  (16) 
energy

$$$$
16:0
     RDKit          3D

 43 46  0  0  0  0  0  0  0  0999 V2000
   57.2308   20.4491   42.8301 H   0  0  0  0  0  0  0  0  0  0  0  0
   57.1770   21.4800   43.2100 C   0  0  0  0  0  0  0  0  0  0  0  0
   56.2710   22.3850   42.6500 C   0  0  0  0  0  0  0  0  0  0  0  0
   55.6196   22.0683   41.8221 H   0  0  0  0  0  0  0  0  0  0  0  0
   56.1910   23.6920   43.1400 C   0  0  0  0  0  0  0  0  0  0  0  0
   55.4861   24.4050   42.6875 H   0  0  0  0  0  0  0  0  0  0  0  0
   57.0070   24.0970   44.2070 C   0  0  0  0  0  0  0  0  0  0  0  0
   56.9200   25.4440   44.6970 N   0  0  0  0  0  0  0  0  0  0  0  0
   57.0910   26.2320   44.0330 H   0  0  0  0  0  0  0  0  0  0  0  0
   56.4990   25.7710   46.0270 C   0  0  0  0  0  0  0  0  0  0  0  0
   55.8790   24.9210   46.7240 O   0  0  0  0  0  0  0  0  0  0  0  0
   56.7020   27.0700   46.5050 O   0  0  0  0  0  0  0  0  0  0  0  0
   57.9010   27.7900   46.3910 C   0  0  0  0  0  0  0  0  0  0  0  0
   58.6990   27.9150   47.5360 C   0  0  0  0  0  0  0  0  0  0  0  0
   58.3759   27.4491   48.4786 H   0  0  0  0  0  0  0  0  0  0  0  0
   59.9000   28.6250   47.4920 C   0  0  0  0  0  0  0  0  0  0  0  0
   60.5210   28.7112   48.3958 H   0  0  0  0  0  0  0  0  0  0  0  0
   60.3130   29.2250   46.3030 C   0  0  0  0  0  0  0  0  0  0  0  0
   61.2662   29.7727   46.2659 H   0  0  0  0  0  0  0  0  0  0  0  0
   59.5170   29.1310   45.1590 C   0  0  0  0  0  0  0  0  0  0  0  0
   59.8480   29.6055   44.2234 H   0  0  0  0  0  0  0  0  0  0  0  0
   58.2950   28.4340   45.1940 C   0  0  0  0  0  0  0  0  0  0  0  0
   57.4580   28.3670   44.0300 N   0  0  0  0  0  0  0  0  0  0  0  0
   56.6800   29.4450   43.4910 C   0  0  0  0  0  0  0  0  0  0  0  0
   56.4230   29.4860   42.2600 O   0  0  0  0  0  0  0  0  0  0  0  0
   56.2650   30.5390   44.3220 N   0  0  0  0  0  0  0  0  0  0  0  0
   57.0260   31.5090   44.7310 C   0  0  0  0  0  0  0  0  0  0  0  0
   57.4000   31.6890   46.0220 N   0  0  0  0  0  0  0  0  0  0  0  0
   58.1880   32.7870   46.1430 C   0  0  0  0  0  0  0  0  0  0  0  0
   58.7580   33.2210   47.3420 C   0  0  0  0  0  0  0  0  0  0  0  0
   58.5674   32.6815   48.2815 H   0  0  0  0  0  0  0  0  0  0  0  0
   59.5800   34.3610   47.3240 C   0  0  0  0  0  0  0  0  0  0  0  0
   60.0393   34.7178   48.2577 H   0  0  0  0  0  0  0  0  0  0  0  0
   59.8200   35.0500   46.1190 C   0  0  0  0  0  0  0  0  0  0  0  0
   60.4654   35.9408   46.1174 H   0  0  0  0  0  0  0  0  0  0  0  0
   59.2400   34.6060   44.9200 C   0  0  0  0  0  0  0  0  0  0  0  0
   59.4193   35.1376   43.9738 H   0  0  0  0  0  0  0  0  0  0  0  0
   58.4310   33.4730   44.9630 C   0  0  0  0  0  0  0  0  0  0  0  0
   57.6360   32.7030   43.7000 S   0  0  0  0  0  0  0  0  0  0  0  0
   57.9350   23.1910   44.7450 C   0  0  0  0  0  0  0  0  0  0  0  0
   58.6032   23.5103   45.5584 H   0  0  0  0  0  0  0  0  0  0  0  0
   58.0140   21.8850   44.2520 C   0  0  0  0  0  0  0  0  0  0  0  0
   58.7355   21.1765   44.6849 H   0  0  0  0  0  0  0  0  0  0  0  0
  1  2  1  0
  2  3  2  0
  3  4  1  0
  3  5  1  0
  5  6  1  0
  5  7  2  0
  7  8  1  0
  8  9  1  0
  8 10  1  0
 10 11  2  0
 10 12  1  0
 12 13  1  0
 13 14  2  0
 14 15  1  0
 14 16  1  0
 16 17  1  0
 16 18  2  0
 18 19  1  0
 18 20  1  0
 20 21  1  0
 20 22  2  0
 22 23  1  0
 23 24  1  0
 24 25  2  0
 24 26  1  0
 26 27  2  0
 27 28  1  0
 28 29  1  0
 29 30  2  0
 30 31  1  0
 30 32  1  0
 32 33  1  0
 32 34  2  0
 34 35  1  0
 34 36  1  0
 36 37  1  0
 36 38  2  0
 38 39  1  0
  7 40  1  0
 40 41  1  0
 40 42  2  0
 42 43  1  0
 42  2  1  0
 22 13  1  0
 39 27  1  0
 38 29  1  0
M  CHG  2  23  -1  28  -1
M  END
>  <UniqueID>  (17) 
16

>  <SMILES>  (17) 
O=C(/N=c1\[n-]c2ccccc2s1)[N-]c1ccccc1OC(=O)Nc1ccccc1

>  <Energy>  (17) 
94.4344713628597

>  <Genealogy>  (17) 
O=C(N=c1[n-]c2ccccc2s1)[N-]c1ccccc1OC(=O)Nc1ccccc1 (protonated)
O=C(/N=c1\[n-]c2ccccc2s1)[N-]c1ccccc1OC(=O)Nc1ccccc1 (cis-trans isomerization)
O=C(/N=c1\[n-]c2ccccc2s1)[N-]c1ccccc1OC(=O)Nc1ccccc1 (3D coordinates assigned)
O=C(/N=c1\[n-]c2ccccc2s1)[N-]c1ccccc1OC(=O)Nc1ccccc1 (optimized conformer: 94.4344713628597 kcal/mol)

>  <smiles>  (17) 
O=C(N=c1[nH]c2ccccc2s1)Nc1ccccc1OC(=O)Nc1ccccc1

>  <score_type>  (17) 
oracle

>  <origin>  (17) 
adg

>  <m_score__min__energy>  (17) 
-11.66

>  <m_primary>  (17) 
energy

$$$$
17:0
     RDKit          3D

 43 45  0  0  0  0  0  0  0  0999 V2000
   57.6060   28.1160   43.3180 N   0  0  0  0  0  0  0  0  0  0  0  0
   57.0180   28.6320   44.8600 S   0  0  0  0  0  0  0  0  0  0  0  0
   56.3910   27.4700   45.5780 O   0  0  0  0  0  0  0  0  0  0  0  0
   55.9760   29.6980   44.6660 O   0  0  0  0  0  0  0  0  0  0  0  0
   58.3550   29.2690   45.8120 C   0  0  0  0  0  0  0  0  0  0  0  0
   59.6270   29.4010   45.2460 C   0  0  0  0  0  0  0  0  0  0  0  0
   60.6880   29.9010   46.0050 C   0  0  0  0  0  0  0  0  0  0  0  0
   60.4960   30.2720   47.3490 C   0  0  0  0  0  0  0  0  0  0  0  0
   61.5830   30.7900   48.1450 N   0  0  0  0  0  0  0  0  0  0  0  0
   62.6910   31.5730   47.6040 C   0  0  0  0  0  0  0  0  0  0  0  0
   63.5910   32.0340   48.7070 C   0  0  0  0  0  0  0  0  0  0  0  0
   64.4760   33.0910   48.6370 C   0  0  0  0  0  0  0  0  0  0  0  0
   65.0690   33.1580   49.8800 C   0  0  0  0  0  0  0  0  0  0  0  0
   64.5060   32.1450   50.6290 C   0  0  0  0  0  0  0  0  0  0  0  0
   63.6260   31.4940   49.9040 O   0  0  0  0  0  0  0  0  0  0  0  0
   59.2100   30.1340   47.9160 C   0  0  0  0  0  0  0  0  0  0  0  0
   58.9530   30.5560   49.2540 N   0  0  0  0  0  0  0  0  0  0  0  0
   59.2770   32.1850   49.7330 S   0  0  0  0  0  0  0  0  0  0  0  0
   58.2440   32.6360   50.7270 O   0  0  0  0  0  0  0  0  0  0  0  0
   60.6310   32.2490   50.3830 O   0  0  0  0  0  0  0  0  0  0  0  0
   59.2500   33.2310   48.3170 C   0  0  0  0  0  0  0  0  0  0  0  0
   58.1440   33.2120   47.4560 C   0  0  0  0  0  0  0  0  0  0  0  0
   58.1440   33.9880   46.2930 C   0  0  0  0  0  0  0  0  0  0  0  0
   59.2500   34.7880   45.9840 C   0  0  0  0  0  0  0  0  0  0  0  0
   59.2510   35.5360   44.8550 F   0  0  0  0  0  0  0  0  0  0  0  0
   60.3560   34.8090   46.8400 C   0  0  0  0  0  0  0  0  0  0  0  0
   60.3590   34.0310   48.0020 C   0  0  0  0  0  0  0  0  0  0  0  0
   58.1530   29.6310   47.1490 C   0  0  0  0  0  0  0  0  0  0  0  0
   56.8240   27.6080   42.8480 H   0  0  0  0  0  0  0  0  0  0  0  0
   57.7860   28.9770   42.7560 H   0  0  0  0  0  0  0  0  0  0  0  0
   59.7929   29.1098   44.1983 H   0  0  0  0  0  0  0  0  0  0  0  0
   61.6830   30.0057   45.5478 H   0  0  0  0  0  0  0  0  0  0  0  0
   61.5580   30.6680   49.1830 H   0  0  0  0  0  0  0  0  0  0  0  0
   63.2664   30.9506   46.9029 H   0  0  0  0  0  0  0  0  0  0  0  0
   62.2854   32.4528   47.0830 H   0  0  0  0  0  0  0  0  0  0  0  0
   64.6678   33.7426   47.7718 H   0  0  0  0  0  0  0  0  0  0  0  0
   65.8363   33.8746   50.2084 H   0  0  0  0  0  0  0  0  0  0  0  0
   64.7566   31.9173   51.6756 H   0  0  0  0  0  0  0  0  0  0  0  0
   57.2731   32.5844   47.6962 H   0  0  0  0  0  0  0  0  0  0  0  0
   57.2739   33.9697   45.6202 H   0  0  0  0  0  0  0  0  0  0  0  0
   61.2251   35.4387   46.5987 H   0  0  0  0  0  0  0  0  0  0  0  0
   61.2325   34.0462   48.6705 H   0  0  0  0  0  0  0  0  0  0  0  0
   57.1560   29.5193   47.6002 H   0  0  0  0  0  0  0  0  0  0  0  0
  1  2  1  0
  2  3  2  0
  2  4  2  0
  2  5  1  0
  5  6  2  0
  6  7  1  0
  7  8  2  0
  8  9  1  0
  9 10  1  0
 10 11  1  0
 11 12  2  0
 12 13  1  0
 13 14  2  0
 14 15  1  0
  8 16  1  0
 16 17  1  0
 17 18  1  0
 18 19  2  0
 18 20  2  0
 18 21  1  0
 21 22  2  0
 22 23  1  0
 23 24  2  0
 24 25  1  0
 24 26  1  0
 26 27  2  0
 16 28  2  0
 28  5  1  0
 15 11  1  0
 27 21  1  0
  1 29  1  0
  1 30  1  0
  6 31  1  0
  7 32  1  0
  9 33  1  0
 10 34  1  0
 10 35  1  0
 12 36  1  0
 13 37  1  0
 14 38  1  0
 22 39  1  0
 23 40  1  0
 26 41  1  0
 27 42  1  0
 28 43  1  0
M  CHG  1  17  -1
M  END
>  <UniqueID>  (18) 
17

>  <SMILES>  (18) 
NS(=O)(=O)c1ccc(NCc2ccco2)c([N-]S(=O)(=O)c2ccc(F)cc2)c1

>  <Energy>  (18) 
76.73426915758921

>  <Genealogy>  (18) 
NS(=O)(=O)c1ccc(NCc2ccco2)c([N-]S(=O)(=O)c2ccc(F)cc2)c1 (protonated)
NS(=O)(=O)c1ccc(NCc2ccco2)c([N-]S(=O)(=O)c2ccc(F)cc2)c1 (3D coordinates assigned)
NS(=O)(=O)c1ccc(NCc2ccco2)c([N-]S(=O)(=O)c2ccc(F)cc2)c1 (optimized conformer: 76.73426915758921 kcal/mol)

>  <smiles>  (18) 
NS(=O)(=O)c1ccc(NCc2ccco2)c(NS(=O)(=O)c2ccc(F)cc2)c1

>  <score_type>  (18) 
oracle

>  <origin>  (18) 
adg

>  <m_score__min__energy>  (18) 
-10.41

>  <m_primary>  (18) 
energy

$$$$
18:0
     RDKit          3D

 54 57  0  0  1  0  0  0  0  0999 V2000
   66.8870   30.6960   51.6100 C   0  0  0  0  0  0  0  0  0  0  0  0
   65.6940   31.4600   51.8560 O   0  0  0  0  0  0  0  0  0  0  0  0
   64.7870   31.6680   50.8230 C   0  0  0  0  0  0  0  0  0  0  0  0
   63.6920   30.8340   50.7860 C   0  0  0  0  0  0  0  0  0  0  0  0
   62.7970   31.0360   49.7740 C   0  0  0  0  0  0  0  0  0  0  0  0
   61.7270   30.2280   49.7180 N   0  0  0  0  0  0  0  0  0  0  0  0
   62.1090   32.2010   47.8740 C   0  0  0  0  0  0  0  0  0  0  0  0
   62.2030   33.0890   47.0400 N   0  0  0  0  0  0  0  0  0  0  0  0
   61.4490   34.2190   46.7830 C   0  0  0  0  0  0  0  0  0  0  0  0
   60.0160   33.9990   46.4400 C   0  0  0  0  0  0  0  0  0  0  0  0
   59.4940   34.1210   45.1690 C   0  0  0  0  0  0  0  0  0  0  0  0
   56.9730   28.6280   45.2070 C   0  0  0  0  0  0  0  0  0  0  0  0
   57.3450   29.6600   44.3780 C   0  0  0  0  0  0  0  0  0  0  0  0
   56.2960   30.0780   43.0420 Cl  0  0  0  0  0  0  0  0  0  0  0  0
   58.5230   30.3150   44.6360 C   0  0  0  0  0  0  0  0  0  0  0  0
   59.0690   33.6520   47.4200 C   0  0  0  0  0  0  0  0  0  0  0  0
   61.0430   31.3700   47.8450 N   0  0  0  0  0  0  0  0  0  0  0  0
   60.8290   30.3930   48.7350 C   0  0  0  0  0  0  0  0  0  0  0  0
   59.7820   29.6350   48.6410 N   0  0  0  0  0  0  0  0  0  0  0  0
   59.7980   28.5220   47.6780 C   0  0  0  0  0  0  0  0  0  0  0  0
   58.9340   28.9070   46.5340 C   0  0  0  0  0  0  0  0  0  0  0  0
   57.7500   28.2310   46.2930 C   0  0  0  0  0  0  0  0  0  0  0  0
   58.1700   33.9280   44.8490 C   0  0  0  0  0  0  0  0  0  0  0  0
   57.2630   33.5890   45.8260 C   0  0  0  0  0  0  0  0  0  0  0  0
   57.7410   33.4580   47.1090 C   0  0  0  0  0  0  0  0  0  0  0  0
   59.3150   29.9500   45.7000 C   0  0  0  0  0  0  0  0  0  0  0  0
   63.0440   32.0500   48.8670 C   0  0  0  0  0  0  0  0  0  0  0  0
   64.1250   32.8700   48.9030 C   0  0  0  0  0  0  0  0  0  0  0  0
   65.0560   32.6660   49.9500 C   0  0  0  0  0  0  0  0  0  0  0  0
   66.1860   33.4360   50.0870 O   0  0  0  0  0  0  0  0  0  0  0  0
   66.4750   34.1910   51.2470 C   0  0  0  0  0  0  0  0  0  0  0  0
   67.3406   30.4055   52.5691 H   0  0  0  0  0  0  0  0  0  0  0  0
   66.6322   29.7927   51.0364 H   0  0  0  0  0  0  0  0  0  0  0  0
   67.6009   31.3054   51.0364 H   0  0  0  0  0  0  0  0  0  0  0  0
   63.5449   30.0427   51.5358 H   0  0  0  0  0  0  0  0  0  0  0  0
   61.5440   29.4620   50.4050 H   0  0  0  0  0  0  0  0  0  0  0  0
   61.4840   34.8550   47.6798 H   0  0  0  0  0  0  0  0  0  0  0  0
   61.8971   34.6695   45.8851 H   0  0  0  0  0  0  0  0  0  0  0  0
   60.1836   34.3911   44.3557 H   0  0  0  0  0  0  0  0  0  0  0  0
   56.0302   28.0981   45.0059 H   0  0  0  0  0  0  0  0  0  0  0  0
   58.8381   31.1427   43.9835 H   0  0  0  0  0  0  0  0  0  0  0  0
   59.3974   33.5323   48.4630 H   0  0  0  0  0  0  0  0  0  0  0  0
   60.3190   31.4690   47.0900 H   0  0  0  0  0  0  0  0  0  0  0  0
   60.8255   28.3429   47.3286 H   0  0  0  0  0  0  0  0  0  0  0  0
   59.4285   27.5987   48.1480 H   0  0  0  0  0  0  0  0  0  0  0  0
   57.4312   27.4021   46.9421 H   0  0  0  0  0  0  0  0  0  0  0  0
   57.8353   34.0452   43.8077 H   0  0  0  0  0  0  0  0  0  0  0  0
   56.2003   33.4294   45.5911 H   0  0  0  0  0  0  0  0  0  0  0  0
   57.0400   33.1895   47.9131 H   0  0  0  0  0  0  0  0  0  0  0  0
   60.2555   30.4874   45.8913 H   0  0  0  0  0  0  0  0  0  0  0  0
   64.2715   33.6593   48.1509 H   0  0  0  0  0  0  0  0  0  0  0  0
   66.2458   33.5922   52.1408 H   0  0  0  0  0  0  0  0  0  0  0  0
   67.5408   34.4630   51.2513 H   0  0  0  0  0  0  0  0  0  0  0  0
   65.8632   35.1052   51.2513 H   0  0  0  0  0  0  0  0  0  0  0  0
  1  2  1  0
  2  3  1  0
  3  4  2  0
  4  5  1  0
  5  6  1  0
  6  7  1  0
  7  8  2  0
  8  9  1  0
  9 10  1  0
 10 11  2  0
 11 12  1  0
 12 13  2  0
 13 14  1  0
 13 15  1  0
 15 16  2  0
  7 17  1  0
 17 18  1  0
 18 19  2  0
 19 20  1  0
 20 21  1  0
 21 22  2  0
 22 23  1  0
 23 24  2  0
 24 25  1  0
 25 26  2  0
 18 27  1  0
 27 28  1  0
 28 29  2  0
 29 30  1  0
 30 31  1  0
 29  3  1  0
 27  5  2  0
 16 10  1  0
 26 21  1  0
  1 32  1  0
  1 33  1  0
  1 34  1  0
  4 35  1  0
  6 36  1  0
  9 37  1  0
  9 38  1  0
 11 39  1  0
 12 40  1  0
 15 41  1  0
 16 42  1  0
 17 43  1  0
 20 44  1  0
 20 45  1  0
 22 46  1  0
 23 47  1  0
 24 48  1  0
 25 49  1  0
 26 50  1  0
 28 51  1  0
 31 52  1  0
 31 53  1  0
 31 54  1  0
M  END
>  <smiles>  (19) 
COc1cc2[nH]c(=NCc3ccc(Cl)cc3)[nH]c(=NCc3ccccc3)c2cc1OC

>  <score_type>  (19) 
oracle

>  <origin>  (19) 
adg

>  <m_score__min__energy>  (19) 
-8.6199999999999992

>  <m_primary>  (19) 
energy

$$$$
19:0
     RDKit          3D

 48 50  0  0  0  0  0  0  0  0999 V2000
   54.5280   26.0320   45.9840 N   0  0  0  0  0  0  0  0  0  0  0  0
   55.4050   24.5580   45.7620 S   0  0  0  0  0  0  0  0  0  0  0  0
   55.0450   23.9940   44.4140 O   0  0  0  0  0  0  0  0  0  0  0  0
   55.0120   23.5860   46.8370 O   0  0  0  0  0  0  0  0  0  0  0  0
   57.1470   24.8550   45.8430 C   0  0  0  0  0  0  0  0  0  0  0  0
   58.0360   23.7730   45.7480 C   0  0  0  0  0  0  0  0  0  0  0  0
   59.4140   23.9800   45.8290 C   0  0  0  0  0  0  0  0  0  0  0  0
   59.9180   25.2680   46.0170 C   0  0  0  0  0  0  0  0  0  0  0  0
   59.0450   26.3540   46.1040 C   0  0  0  0  0  0  0  0  0  0  0  0
   57.6530   26.1610   46.0040 C   0  0  0  0  0  0  0  0  0  0  0  0
   56.7390   27.2690   46.0440 N   0  0  0  0  0  0  0  0  0  0  0  0
   56.8700   28.7230   45.1100 S   0  0  0  0  0  0  0  0  0  0  0  0
   55.4950   29.2810   44.8760 O   0  0  0  0  0  0  0  0  0  0  0  0
   57.4920   28.4140   43.7770 O   0  0  0  0  0  0  0  0  0  0  0  0
   57.8170   29.9150   45.9980 C   0  0  0  0  0  0  0  0  0  0  0  0
   58.6160   29.5390   47.0870 C   0  0  0  0  0  0  0  0  0  0  0  0
   59.3940   30.4940   47.7490 C   0  0  0  0  0  0  0  0  0  0  0  0
   59.4040   31.8270   47.3190 C   0  0  0  0  0  0  0  0  0  0  0  0
   60.2390   32.7860   47.9900 N   0  0  0  0  0  0  0  0  0  0  0  0
   59.9720   33.2640   49.3190 C   0  0  0  0  0  0  0  0  0  0  0  0
   58.8380   33.0810   49.8390 O   0  0  0  0  0  0  0  0  0  0  0  0
   60.9580   33.9890   50.0590 N   0  0  0  0  0  0  0  0  0  0  0  0
   62.6540   33.9750   49.6960 S   0  0  0  0  0  0  0  0  0  0  0  0
   63.3120   35.1540   50.3600 O   0  0  0  0  0  0  0  0  0  0  0  0
   62.8440   34.0920   48.2070 O   0  0  0  0  0  0  0  0  0  0  0  0
   63.3820   32.4940   50.3160 C   0  0  0  0  0  0  0  0  0  0  0  0
   62.5830   31.3950   50.6670 C   0  0  0  0  0  0  0  0  0  0  0  0
   63.1740   30.2250   51.1560 C   0  0  0  0  0  0  0  0  0  0  0  0
   64.5600   30.1440   51.2890 C   0  0  0  0  0  0  0  0  0  0  0  0
   65.3600   31.2360   50.9370 C   0  0  0  0  0  0  0  0  0  0  0  0
   64.7730   32.4090   50.4560 C   0  0  0  0  0  0  0  0  0  0  0  0
   58.5790   32.2060   46.2480 C   0  0  0  0  0  0  0  0  0  0  0  0
   57.7890   31.2540   45.5910 C   0  0  0  0  0  0  0  0  0  0  0  0
   54.8680   26.7060   45.2580 H   0  0  0  0  0  0  0  0  0  0  0  0
   57.6440   22.7547   45.6087 H   0  0  0  0  0  0  0  0  0  0  0  0
   60.1036   23.1271   45.7446 H   0  0  0  0  0  0  0  0  0  0  0  0
   61.0035   25.4274   46.0966 H   0  0  0  0  0  0  0  0  0  0  0  0
   59.4467   27.3673   46.2516 H   0  0  0  0  0  0  0  0  0  0  0  0
   58.6309   28.4911   47.4212 H   0  0  0  0  0  0  0  0  0  0  0  0
   60.0034   30.1958   48.6149 H   0  0  0  0  0  0  0  0  0  0  0  0
   60.9840   33.2550   47.4300 H   0  0  0  0  0  0  0  0  0  0  0  0
   61.4900   31.4536   50.5574 H   0  0  0  0  0  0  0  0  0  0  0  0
   62.5445   29.3675   51.4361 H   0  0  0  0  0  0  0  0  0  0  0  0
   65.0235   29.2222   51.6704 H   0  0  0  0  0  0  0  0  0  0  0  0
   66.4533   31.1711   51.0391 H   0  0  0  0  0  0  0  0  0  0  0  0
   65.4050   33.2681   50.1865 H   0  0  0  0  0  0  0  0  0  0  0  0
   58.5529   33.2566   45.9230 H   0  0  0  0  0  0  0  0  0  0  0  0
   57.1450   31.5594   44.7531 H   0  0  0  0  0  0  0  0  0  0  0  0
  1  2  1  0
  2  3  2  0
  2  4  2  0
  2  5  1  0
  5  6  2  0
  6  7  1  0
  7  8  2  0
  8  9  1  0
  9 10  2  0
 10 11  1  0
 11 12  1  0
 12 13  2  0
 12 14  2  0
 12 15  1  0
 15 16  2  0
 16 17  1  0
 17 18  2  0
 18 19  1  0
 19 20  1  0
 20 21  2  0
 20 22  1  0
 22 23  1  0
 23 24  2  0
 23 25  2  0
 23 26  1  0
 26 27  2  0
 27 28  1  0
 28 29  2  0
 29 30  1  0
 30 31  2  0
 18 32  1  0
 32 33  2  0
 10  5  1  0
 33 15  1  0
 31 26  1  0
  1 34  1  0
  6 35  1  0
  7 36  1  0
  8 37  1  0
  9 38  1  0
 16 39  1  0
 17 40  1  0
 19 41  1  0
 27 42  1  0
 28 43  1  0
 29 44  1  0
 30 45  1  0
 31 46  1  0
 32 47  1  0
 33 48  1  0
M  CHG  3   1  -1  11  -1  22  -1
M  END
>  <UniqueID>  (20) 
18

>  <SMILES>  (20) 
[NH-]S(=O)(=O)c1ccccc1[N-]S(=O)(=O)c1ccc(NC(=O)[N-]S(=O)(=O)c2ccccc2)cc1

>  <Energy>  (20) 
60.2619751811376

>  <Genealogy>  (20) 
[NH-]S(=O)(=O)c1ccccc1[N-]S(=O)(=O)c1ccc(NC(=O)[N-]S(=O)(=O)c2ccccc2)cc1 (protonated)
[NH-]S(=O)(=O)c1ccccc1[N-]S(=O)(=O)c1ccc(NC(=O)[N-]S(=O)(=O)c2ccccc2)cc1 (3D coordinates assigned)
[NH-]S(=O)(=O)c1ccccc1[N-]S(=O)(=O)c1ccc(NC(=O)[N-]S(=O)(=O)c2ccccc2)cc1 (optimized conformer: 60.2619751811376 kcal/mol)

>  <smiles>  (20) 
NS(=O)(=O)c1ccccc1NS(=O)(=O)c1ccc(NC(=O)NS(=O)(=O)c2ccccc2)cc1

>  <score_type>  (20) 
oracle

>  <origin>  (20) 
adg

>  <m_score__min__energy>  (20) 
-14.76

>  <m_primary>  (20) 
energy

$$$$
20:0
     RDKit          3D

 44 46  0  0  0  0  0  0  0  0999 V2000
   63.6500   33.2220   47.1170 C   0  0  0  0  0  0  0  0  0  0  0  0
   62.4320   33.1920   47.8550 O   0  0  0  0  0  0  0  0  0  0  0  0
   61.5920   32.0720   47.9500 C   0  0  0  0  0  0  0  0  0  0  0  0
   61.1950   31.6410   49.2220 C   0  0  0  0  0  0  0  0  0  0  0  0
   60.3360   30.5480   49.3630 C   0  0  0  0  0  0  0  0  0  0  0  0
   59.8770   29.8640   48.2340 C   0  0  0  0  0  0  0  0  0  0  0  0
   60.2900   30.2570   46.9570 C   0  0  0  0  0  0  0  0  0  0  0  0
   59.8350   29.5370   45.8420 O   0  0  0  0  0  0  0  0  0  0  0  0
   59.2210   28.2800   45.9300 C   0  0  0  0  0  0  0  0  0  0  0  0
   60.0200   27.1320   45.8850 C   0  0  0  0  0  0  0  0  0  0  0  0
   59.4470   25.8690   46.0330 C   0  0  0  0  0  0  0  0  0  0  0  0
   58.0690   25.7450   46.2190 C   0  0  0  0  0  0  0  0  0  0  0  0
   57.2560   26.8820   46.2320 C   0  0  0  0  0  0  0  0  0  0  0  0
   57.8220   28.1590   46.0640 C   0  0  0  0  0  0  0  0  0  0  0  0
   57.0140   29.3440   45.9760 N   0  0  0  0  0  0  0  0  0  0  0  0
   56.9450   30.4550   44.6480 S   0  0  0  0  0  0  0  0  0  0  0  0
   55.5190   30.6950   44.2350 O   0  0  0  0  0  0  0  0  0  0  0  0
   57.6730   29.8560   43.4780 O   0  0  0  0  0  0  0  0  0  0  0  0
   57.7390   31.9580   45.1010 C   0  0  0  0  0  0  0  0  0  0  0  0
   57.7960   32.3320   46.4500 C   0  0  0  0  0  0  0  0  0  0  0  0
   58.4190   33.5250   46.8250 C   0  0  0  0  0  0  0  0  0  0  0  0
   58.9650   34.3740   45.8500 C   0  0  0  0  0  0  0  0  0  0  0  0
   59.6470   35.6470   46.2540 C   0  0  0  0  0  0  0  0  0  0  0  0
   58.9190   33.9920   44.5000 C   0  0  0  0  0  0  0  0  0  0  0  0
   58.3050   32.7920   44.1270 C   0  0  0  0  0  0  0  0  0  0  0  0
   61.1360   31.3740   46.8160 C   0  0  0  0  0  0  0  0  0  0  0  0
   64.5007   33.2430   47.8141 H   0  0  0  0  0  0  0  0  0  0  0  0
   63.7171   32.3252   46.4835 H   0  0  0  0  0  0  0  0  0  0  0  0
   63.6728   34.1210   46.4835 H   0  0  0  0  0  0  0  0  0  0  0  0
   61.5619   32.1664   50.1161 H   0  0  0  0  0  0  0  0  0  0  0  0
   60.0200   30.2249   50.3659 H   0  0  0  0  0  0  0  0  0  0  0  0
   59.1887   29.0138   48.3502 H   0  0  0  0  0  0  0  0  0  0  0  0
   61.1053   27.2261   45.7322 H   0  0  0  0  0  0  0  0  0  0  0  0
   60.0810   24.9706   46.0032 H   0  0  0  0  0  0  0  0  0  0  0  0
   57.6216   24.7495   46.3558 H   0  0  0  0  0  0  0  0  0  0  0  0
   56.1702   26.7780   46.3740 H   0  0  0  0  0  0  0  0  0  0  0  0
   57.3482   31.6834   47.2174 H   0  0  0  0  0  0  0  0  0  0  0  0
   58.4818   33.7998   47.8883 H   0  0  0  0  0  0  0  0  0  0  0  0
   59.6818   35.7120   47.3515 H   0  0  0  0  0  0  0  0  0  0  0  0
   60.6714   35.6573   45.8534 H   0  0  0  0  0  0  0  0  0  0  0  0
   59.0880   36.5055   45.8534 H   0  0  0  0  0  0  0  0  0  0  0  0
   59.3678   34.6393   43.7321 H   0  0  0  0  0  0  0  0  0  0  0  0
   58.2662   32.5020   43.0666 H   0  0  0  0  0  0  0  0  0  0  0  0
   61.4427   31.7034   45.8123 H   0  0  0  0  0  0  0  0  0  0  0  0
  1  2  1  0
  2  3  1  0
  3  4  2  0
  4  5  1  0
  5  6  2  0
  6  7  1  0
  7  8  1  0
  8  9  1  0
  9 10  2  0
 10 11  1  0
 11 12  2  0
 12 13  1  0
 13 14  2  0
 14 15  1  0
 15 16  1  0
 16 17  2  0
 16 18  2  0
 16 19  1  0
 19 20  2  0
 20 21  1  0
 21 22  2  0
 22 23  1  0
 22 24  1  0
 24 25  2  0
  7 26  2  0
 26  3  1  0
 14  9  1  0
 25 19  1  0
  1 27  1  0
  1 28  1  0
  1 29  1  0
  4 30  1  0
  5 31  1  0
  6 32  1  0
 10 33  1  0
 11 34  1  0
 12 35  1  0
 13 36  1  0
 20 37  1  0
 21 38  1  0
 23 39  1  0
 23 40  1  0
 23 41  1  0
 24 42  1  0
 25 43  1  0
 26 44  1  0
M  CHG  1  15  -1
M  END
>  <UniqueID>  (21) 
19

>  <SMILES>  (21) 
COc1cccc(Oc2ccccc2[N-]S(=O)(=O)c2ccc(C)cc2)c1

>  <Energy>  (21) 
53.825539166027966

>  <Genealogy>  (21) 
COc1cccc(Oc2ccccc2[N-]S(=O)(=O)c2ccc(C)cc2)c1 (protonated)
COc1cccc(Oc2ccccc2[N-]S(=O)(=O)c2ccc(C)cc2)c1 (3D coordinates assigned)
COc1cccc(Oc2ccccc2[N-]S(=O)(=O)c2ccc(C)cc2)c1 (optimized conformer: 53.825539166027966 kcal/mol)

>  <smiles>  (21) 
COc1cccc(Oc2ccccc2NS(=O)(=O)c2ccc(C)cc2)c1

>  <score_type>  (21) 
oracle

>  <origin>  (21) 
adg

>  <m_score__min__energy>  (21) 
-10.4

>  <m_primary>  (21) 
energy

$$$$
21:0
     RDKit          3D

 42 44  0  0  0  0  0  0  0  0999 V2000
   63.3780   33.0560   47.1090 N   0  0  0  0  0  0  0  0  0  0  0  0
   62.8490   32.3500   47.8590 C   0  0  0  0  0  0  0  0  0  0  0  0
   62.1800   31.4560   48.8090 C   0  0  0  0  0  0  0  0  0  0  0  0
   61.2180   30.5600   48.0790 C   0  0  0  0  0  0  0  0  0  0  0  0
   60.4510   29.6200   48.7850 C   0  0  0  0  0  0  0  0  0  0  0  0
   59.5750   28.7700   48.1040 C   0  0  0  0  0  0  0  0  0  0  0  0
   59.4660   28.8390   46.7080 C   0  0  0  0  0  0  0  0  0  0  0  0
   58.3400   27.7810   45.8630 S   0  0  0  0  0  0  0  0  0  0  0  0
   57.1570   27.5140   46.7510 O   0  0  0  0  0  0  0  0  0  0  0  0
   59.0020   26.4690   45.5440 O   0  0  0  0  0  0  0  0  0  0  0  0
   57.7920   28.5330   44.3950 N   0  0  0  0  0  0  0  0  0  0  0  0
   56.4120   28.9840   44.5570 C   0  0  0  0  0  0  0  0  0  0  0  0
   56.1790   30.2200   43.6930 C   0  0  0  0  0  0  0  0  0  0  0  0
   57.0750   31.3410   44.1270 C   0  0  0  0  0  0  0  0  0  0  0  0
   57.5590   32.3090   43.2500 C   0  0  0  0  0  0  0  0  0  0  0  0
   58.4590   33.4040   44.1520 S   0  0  0  0  0  0  0  0  0  0  0  0
   58.1890   32.6120   45.6160 C   0  0  0  0  0  0  0  0  0  0  0  0
   58.7040   33.0360   46.9390 C   0  0  0  0  0  0  0  0  0  0  0  0
   58.3530   32.3160   48.0970 C   0  0  0  0  0  0  0  0  0  0  0  0
   58.8340   32.7110   49.3490 C   0  0  0  0  0  0  0  0  0  0  0  0
   59.6680   33.8250   49.4600 C   0  0  0  0  0  0  0  0  0  0  0  0
   60.1340   34.2060   50.6760 F   0  0  0  0  0  0  0  0  0  0  0  0
   60.0240   34.5480   48.3190 C   0  0  0  0  0  0  0  0  0  0  0  0
   59.5460   34.1570   47.0640 C   0  0  0  0  0  0  0  0  0  0  0  0
   57.4170   31.5180   45.4320 N   0  0  0  0  0  0  0  0  0  0  0  0
   60.2370   29.7720   46.0000 C   0  0  0  0  0  0  0  0  0  0  0  0
   61.1120   30.6230   46.6800 C   0  0  0  0  0  0  0  0  0  0  0  0
   62.9331   30.8406   49.3230 H   0  0  0  0  0  0  0  0  0  0  0  0
   61.6266   32.0582   49.5446 H   0  0  0  0  0  0  0  0  0  0  0  0
   60.5398   29.5520   49.8793 H   0  0  0  0  0  0  0  0  0  0  0  0
   58.9687   28.0440   48.6656 H   0  0  0  0  0  0  0  0  0  0  0  0
   55.7251   28.1834   44.2453 H   0  0  0  0  0  0  0  0  0  0  0  0
   56.2279   29.2330   45.6125 H   0  0  0  0  0  0  0  0  0  0  0  0
   56.3918   29.9726   42.6425 H   0  0  0  0  0  0  0  0  0  0  0  0
   55.1319   30.5386   43.8032 H   0  0  0  0  0  0  0  0  0  0  0  0
   57.3839   32.3491   42.1648 H   0  0  0  0  0  0  0  0  0  0  0  0
   57.6963   31.4373   48.0162 H   0  0  0  0  0  0  0  0  0  0  0  0
   58.5547   32.1427   50.2485 H   0  0  0  0  0  0  0  0  0  0  0  0
   60.6810   35.4258   48.4076 H   0  0  0  0  0  0  0  0  0  0  0  0
   59.8300   34.7294   46.1686 H   0  0  0  0  0  0  0  0  0  0  0  0
   60.1526   29.8342   44.9050 H   0  0  0  0  0  0  0  0  0  0  0  0
   61.7207   31.3458   46.1169 H   0  0  0  0  0  0  0  0  0  0  0  0
  1  2  3  0
  2  3  1  0
  3  4  1  0
  4  5  2  0
  5  6  1  0
  6  7  2  0
  7  8  1  0
  8  9  2  0
  8 10  2  0
  8 11  1  0
 11 12  1  0
 12 13  1  0
 13 14  1  0
 14 15  2  0
 15 16  1  0
 16 17  1  0
 17 18  1  0
 18 19  2  0
 19 20  1  0
 20 21  2  0
 21 22  1  0
 21 23  1  0
 23 24  2  0
 17 25  2  0
  7 26  1  0
 26 27  2  0
 27  4  1  0
 25 14  1  0
 24 18  1  0
  3 28  1  0
  3 29  1  0
  5 30  1  0
  6 31  1  0
 12 32  1  0
 12 33  1  0
 13 34  1  0
 13 35  1  0
 15 36  1  0
 19 37  1  0
 20 38  1  0
 23 39  1  0
 24 40  1  0
 26 41  1  0
 27 42  1  0
M  CHG  1  11  -1
M  END
>  <UniqueID>  (22) 
20

>  <SMILES>  (22) 
N#CCc1ccc(S(=O)(=O)[N-]CCc2csc(-c3ccc(F)cc3)n2)cc1

>  <Energy>  (22) 
67.41018127702544

>  <Genealogy>  (22) 
N#CCc1ccc(S(=O)(=O)[N-]CCc2csc(-c3ccc(F)cc3)n2)cc1 (protonated)
N#CCc1ccc(S(=O)(=O)[N-]CCc2csc(-c3ccc(F)cc3)n2)cc1 (3D coordinates assigned)
N#CCc1ccc(S(=O)(=O)[N-]CCc2csc(-c3ccc(F)cc3)n2)cc1 (optimized conformer: 67.41018127702544 kcal/mol)

>  <smiles>  (22) 
N#CCc1ccc(S(=O)(=O)NCCc2csc(-c3ccc(F)cc3)n2)cc1

>  <score_type>  (22) 
oracle

>  <origin>  (22) 
adg

>  <m_score__min__energy>  (22) 
-10.02

>  <m_primary>  (22) 
energy

$$$$
22:0
     RDKit          3D

 43 46  0  0  0  0  0  0  0  0999 V2000
   55.8540   28.7190   44.8850 N   0  0  0  0  0  0  0  0  0  0  0  0
   57.1930   27.7370   45.3630 S   0  0  0  0  0  0  0  0  0  0  0  0
   56.7320   26.7110   46.3610 O   0  0  0  0  0  0  0  0  0  0  0  0
   57.7470   27.0250   44.1620 O   0  0  0  0  0  0  0  0  0  0  0  0
   58.4370   28.7490   46.0890 C   0  0  0  0  0  0  0  0  0  0  0  0
   58.8740   29.9050   45.4280 C   0  0  0  0  0  0  0  0  0  0  0  0
   59.8680   30.7070   45.9960 C   0  0  0  0  0  0  0  0  0  0  0  0
   60.4380   30.3620   47.2310 C   0  0  0  0  0  0  0  0  0  0  0  0
   61.4570   31.1920   47.8220 N   0  0  0  0  0  0  0  0  0  0  0  0
   62.6240   31.3820   47.1170 C   0  0  0  0  0  0  0  0  0  0  0  0
   63.6630   32.1640   47.6320 C   0  0  0  0  0  0  0  0  0  0  0  0
   63.4820   32.7150   48.8890 C   0  0  0  0  0  0  0  0  0  0  0  0
   64.3770   33.3890   49.6850 C   0  0  0  0  0  0  0  0  0  0  0  0
   63.7220   33.5630   50.8950 C   0  0  0  0  0  0  0  0  0  0  0  0
   62.4810   33.0310   50.8480 N   0  0  0  0  0  0  0  0  0  0  0  0
   62.3240   32.5390   49.5990 C   0  0  0  0  0  0  0  0  0  0  0  0
   61.2480   31.8040   49.0450 C   0  0  0  0  0  0  0  0  0  0  0  0
   60.0740   31.6980   49.6130 N   0  0  0  0  0  0  0  0  0  0  0  0
   58.8380   32.3370   49.2690 C   0  0  0  0  0  0  0  0  0  0  0  0
   57.8850   32.3300   50.0950 O   0  0  0  0  0  0  0  0  0  0  0  0
   58.7270   33.1030   48.0030 C   0  0  0  0  0  0  0  0  0  0  0  0
   57.7460   32.7540   47.0520 C   0  0  0  0  0  0  0  0  0  0  0  0
   57.6300   33.4670   45.8550 C   0  0  0  0  0  0  0  0  0  0  0  0
   58.4860   34.5370   45.5910 C   0  0  0  0  0  0  0  0  0  0  0  0
   59.4590   34.8980   46.5240 C   0  0  0  0  0  0  0  0  0  0  0  0
   59.5850   34.1900   47.7240 C   0  0  0  0  0  0  0  0  0  0  0  0
   60.5380   34.5770   48.6090 F   0  0  0  0  0  0  0  0  0  0  0  0
   60.0090   29.1940   47.8830 C   0  0  0  0  0  0  0  0  0  0  0  0
   59.0150   28.3920   47.3150 C   0  0  0  0  0  0  0  0  0  0  0  0
   55.1440   28.6600   45.6490 H   0  0  0  0  0  0  0  0  0  0  0  0
   58.4333   30.1821   44.4590 H   0  0  0  0  0  0  0  0  0  0  0  0
   60.2052   31.6135   45.4720 H   0  0  0  0  0  0  0  0  0  0  0  0
   62.7416   30.9101   46.1304 H   0  0  0  0  0  0  0  0  0  0  0  0
   64.5875   32.3345   47.0608 H   0  0  0  0  0  0  0  0  0  0  0  0
   65.3924   33.7188   49.4199 H   0  0  0  0  0  0  0  0  0  0  0  0
   64.1539   34.0655   51.7730 H   0  0  0  0  0  0  0  0  0  0  0  0
   61.8490   32.9410   51.6710 H   0  0  0  0  0  0  0  0  0  0  0  0
   57.0660   31.9133   47.2538 H   0  0  0  0  0  0  0  0  0  0  0  0
   56.8624   33.1839   45.1198 H   0  0  0  0  0  0  0  0  0  0  0  0
   58.3939   35.0956   44.6479 H   0  0  0  0  0  0  0  0  0  0  0  0
   60.1305   35.7438   46.3147 H   0  0  0  0  0  0  0  0  0  0  0  0
   60.4578   28.9089   48.8460 H   0  0  0  0  0  0  0  0  0  0  0  0
   58.6855   27.4784   47.8315 H   0  0  0  0  0  0  0  0  0  0  0  0
  1  2  1  0
  2  3  2  0
  2  4  2  0
  2  5  1  0
  5  6  2  0
  6  7  1  0
  7  8  2  0
  8  9  1  0
  9 10  1  0
 10 11  2  0
 11 12  1  0
 12 13  1  0
 13 14  2  0
 14 15  1  0
 15 16  1  0
 16 17  1  0
 17 18  2  3
 18 19  1  0
 19 20  2  0
 19 21  1  0
 21 22  2  0
 22 23  1  0
 23 24  2  0
 24 25  1  0
 25 26  2  0
 26 27  1  0
  8 28  1  0
 28 29  2  0
 29  5  1  0
 17  9  1  0
 26 21  1  0
 16 12  2  0
  1 30  1  0
  6 31  1  0
  7 32  1  0
 10 33  1  0
 11 34  1  0
 13 35  1  0
 14 36  1  0
 15 37  1  0
 22 38  1  0
 23 39  1  0
 24 40  1  0
 25 41  1  0
 28 42  1  0
 29 43  1  0
M  CHG  1   1  -1
M  END
>  <UniqueID>  (23) 
21

>  <SMILES>  (23) 
[NH-]S(=O)(=O)c1ccc(-n2ccc3cc[nH]c3c2=NC(=O)c2ccccc2F)cc1

>  <Energy>  (23) 
104.62002633537386

>  <Genealogy>  (23) 
[NH-]S(=O)(=O)c1ccc(-n2ccc3cc[nH]c3c2=NC(=O)c2ccccc2F)cc1 (protonated)
[NH-]S(=O)(=O)c1ccc(-n2ccc3cc[nH]c3c2=NC(=O)c2ccccc2F)cc1 (3D coordinates assigned)
[NH-]S(=O)(=O)c1ccc(-n2ccc3cc[nH]c3c2=NC(=O)c2ccccc2F)cc1 (optimized conformer: 104.62002633537386 kcal/mol)

>  <smiles>  (23) 
NS(=O)(=O)c1ccc(-n2ccc3cc[nH]c3c2=NC(=O)c2ccccc2F)cc1

>  <score_type>  (23) 
oracle

>  <origin>  (23) 
adg

>  <m_score__min__energy>  (23) 
-11.31

>  <m_primary>  (23) 
energy

$$$$
23:0
     RDKit          3D

 52 55  0  0  0  0  0  0  0  0999 V2000
   59.2960   35.2120   46.0280 C   0  0  0  0  0  0  0  0  0  0  0  0
   58.3500   34.1470   45.5840 C   0  0  0  0  0  0  0  0  0  0  0  0
   58.5080   33.3250   44.4850 C   0  0  0  0  0  0  0  0  0  0  0  0
   57.4160   32.4760   44.5720 C   0  0  0  0  0  0  0  0  0  0  0  0
   57.1080   31.5110   43.7600 N   0  0  0  0  0  0  0  0  0  0  0  0
   56.7940   29.8780   44.2590 S   0  0  0  0  0  0  0  0  0  0  0  0
   56.9410   28.9630   43.0740 O   0  0  0  0  0  0  0  0  0  0  0  0
   55.4030   29.7760   44.8180 O   0  0  0  0  0  0  0  0  0  0  0  0
   57.9500   29.4050   45.4990 C   0  0  0  0  0  0  0  0  0  0  0  0
   57.9450   28.0960   45.9950 C   0  0  0  0  0  0  0  0  0  0  0  0
   58.8540   27.7160   46.9890 C   0  0  0  0  0  0  0  0  0  0  0  0
   59.7840   28.6350   47.4890 C   0  0  0  0  0  0  0  0  0  0  0  0
   60.6830   28.2120   48.5240 N   0  0  0  0  0  0  0  0  0  0  0  0
   60.5750   28.5100   49.9240 C   0  0  0  0  0  0  0  0  0  0  0  0
   60.9940   27.6840   50.7800 O   0  0  0  0  0  0  0  0  0  0  0  0
   59.9210   29.7630   50.3670 C   0  0  0  0  0  0  0  0  0  0  0  0
   58.6790   29.7310   51.0150 C   0  0  0  0  0  0  0  0  0  0  0  0
   58.0770   30.9140   51.4320 C   0  0  0  0  0  0  0  0  0  0  0  0
   58.7150   32.1340   51.2010 C   0  0  0  0  0  0  0  0  0  0  0  0
   58.1510   33.1990   51.5800 O   0  0  0  0  0  0  0  0  0  0  0  0
   59.9340   32.1710   50.5720 N   0  0  0  0  0  0  0  0  0  0  0  0
   60.6010   33.4560   50.3020 C   0  0  0  0  0  0  0  0  0  0  0  0
   61.5610   33.3180   49.1500 C   0  0  0  0  0  0  0  0  0  0  0  0
   61.0800   33.2790   47.8300 C   0  0  0  0  0  0  0  0  0  0  0  0
   61.9720   33.1780   46.7580 C   0  0  0  0  0  0  0  0  0  0  0  0
   63.3490   33.1190   46.9920 C   0  0  0  0  0  0  0  0  0  0  0  0
   63.8360   33.1620   48.3020 C   0  0  0  0  0  0  0  0  0  0  0  0
   62.9470   33.2640   49.3770 C   0  0  0  0  0  0  0  0  0  0  0  0
   60.5310   31.0130   50.1520 C   0  0  0  0  0  0  0  0  0  0  0  0
   59.7680   29.9590   47.0100 C   0  0  0  0  0  0  0  0  0  0  0  0
   58.8570   30.3380   46.0180 C   0  0  0  0  0  0  0  0  0  0  0  0
   56.7030   32.7790   45.6300 O   0  0  0  0  0  0  0  0  0  0  0  0
   57.2460   33.7770   46.2610 N   0  0  0  0  0  0  0  0  0  0  0  0
   59.3235   35.2430   47.1272 H   0  0  0  0  0  0  0  0  0  0  0  0
   60.3024   34.9926   45.6421 H   0  0  0  0  0  0  0  0  0  0  0  0
   58.9595   36.1855   45.6421 H   0  0  0  0  0  0  0  0  0  0  0  0
   59.3049   33.3405   43.7269 H   0  0  0  0  0  0  0  0  0  0  0  0
   57.2243   27.3637   45.6022 H   0  0  0  0  0  0  0  0  0  0  0  0
   58.8375   26.6880   47.3801 H   0  0  0  0  0  0  0  0  0  0  0  0
   58.1786   28.7680   51.1945 H   0  0  0  0  0  0  0  0  0  0  0  0
   57.1025   30.8881   51.9415 H   0  0  0  0  0  0  0  0  0  0  0  0
   59.8425   34.2127   50.0529 H   0  0  0  0  0  0  0  0  0  0  0  0
   61.1609   33.7623   51.1980 H   0  0  0  0  0  0  0  0  0  0  0  0
   59.9977   33.3281   47.6395 H   0  0  0  0  0  0  0  0  0  0  0  0
   61.5891   33.1449   45.7273 H   0  0  0  0  0  0  0  0  0  0  0  0
   64.0484   33.0389   46.1467 H   0  0  0  0  0  0  0  0  0  0  0  0
   64.9193   33.1156   48.4873 H   0  0  0  0  0  0  0  0  0  0  0  0
   63.3347   33.3022   50.4057 H   0  0  0  0  0  0  0  0  0  0  0  0
   61.5026   31.0601   49.6385 H   0  0  0  0  0  0  0  0  0  0  0  0
   60.4741   30.6978   47.4170 H   0  0  0  0  0  0  0  0  0  0  0  0
   58.8529   31.3725   45.6442 H   0  0  0  0  0  0  0  0  0  0  0  0
   56.8800   34.1990   47.1430 H   0  0  0  0  0  0  0  0  0  0  0  0
  1  2  1  0
  2  3  2  0
  3  4  1  0
  4  5  2  3
  5  6  1  0
  6  7  2  0
  6  8  2  0
  6  9  1  0
  9 10  2  0
 10 11  1  0
 11 12  2  0
 12 13  1  0
 13 14  1  0
 14 15  2  0
 14 16  1  0
 16 17  1  0
 17 18  2  0
 18 19  1  0
 19 20  2  0
 19 21  1  0
 21 22  1  0
 22 23  1  0
 23 24  2  0
 24 25  1  0
 25 26  2  0
 26 27  1  0
 27 28  2  0
 21 29  1  0
 12 30  1  0
 30 31  2  0
  4 32  1  0
 32 33  1  0
 33  2  1  0
 31  9  1  0
 29 16  2  0
 28 23  1  0
  1 34  1  0
  1 35  1  0
  1 36  1  0
  3 37  1  0
 10 38  1  0
 11 39  1  0
 17 40  1  0
 18 41  1  0
 22 42  1  0
 22 43  1  0
 24 44  1  0
 25 45  1  0
 26 46  1  0
 27 47  1  0
 28 48  1  0
 29 49  1  0
 30 50  1  0
 31 51  1  0
 33 52  1  0
M  CHG  1  13  -1
M  END
>  <UniqueID>  (24) 
22

>  <SMILES>  (24) 
Cc1cc(=NS(=O)(=O)c2ccc([N-]C(=O)c3ccc(=O)n(Cc4ccccc4)c3)cc2)o[nH]1

>  <Energy>  (24) 
97.23025643068883

>  <Genealogy>  (24) 
Cc1cc(=NS(=O)(=O)c2ccc([N-]C(=O)c3ccc(=O)n(Cc4ccccc4)c3)cc2)o[nH]1 (protonated)
Cc1cc(=NS(=O)(=O)c2ccc([N-]C(=O)c3ccc(=O)n(Cc4ccccc4)c3)cc2)o[nH]1 (3D coordinates assigned)
Cc1cc(=NS(=O)(=O)c2ccc([N-]C(=O)c3ccc(=O)n(Cc4ccccc4)c3)cc2)o[nH]1 (optimized conformer: 97.23025643068883 kcal/mol)

>  <smiles>  (24) 
Cc1cc(=NS(=O)(=O)c2ccc(NC(=O)c3ccc(=O)n(Cc4ccccc4)c3)cc2)o[nH]1

>  <score_type>  (24) 
oracle

>  <origin>  (24) 
adg

>  <m_score__min__energy>  (24) 
-10.390000000000001

>  <m_primary>  (24) 
energy

$$$$
24:0
     RDKit          3D

 28 29  0  0  0  0  0  0  0  0999 V2000
   59.4950   34.1930   44.1540 O   0  0  0  0  0  0  0  0  0  0  0  0
   58.8620   33.4920   44.9870 C   0  0  0  0  0  0  0  0  0  0  0  0
   58.9580   33.7060   46.3760 N   0  0  0  0  0  0  0  0  0  0  0  0
   59.7610   34.7120   47.0110 C   0  0  0  0  0  0  0  0  0  0  0  0
   61.0460   34.2190   47.5570 C   0  0  0  0  0  0  0  0  0  0  0  0
   62.0670   33.8380   46.6920 C   0  0  0  0  0  0  0  0  0  0  0  0
   63.2830   33.3710   47.1490 C   0  0  0  0  0  0  0  0  0  0  0  0
   63.5350   33.2630   48.5040 C   0  0  0  0  0  0  0  0  0  0  0  0
   64.7230   32.8080   48.9320 F   0  0  0  0  0  0  0  0  0  0  0  0
   62.5340   33.6370   49.3810 C   0  0  0  0  0  0  0  0  0  0  0  0
   61.3150   34.1050   48.9030 C   0  0  0  0  0  0  0  0  0  0  0  0
   57.9990   32.4210   44.4750 C   0  0  0  0  0  0  0  0  0  0  0  0
   57.9070   32.1760   43.1090 C   0  0  0  0  0  0  0  0  0  0  0  0
   57.0920   31.1630   42.6050 C   0  0  0  0  0  0  0  0  0  0  0  0
   56.3960   30.4350   43.5570 C   0  0  0  0  0  0  0  0  0  0  0  0
   55.6530   29.5090   43.0860 O   0  0  0  0  0  0  0  0  0  0  0  0
   56.4900   30.6760   44.8770 N   0  0  0  0  0  0  0  0  0  0  0  0
   57.2770   31.6530   45.3440 N   0  0  0  0  0  0  0  0  0  0  0  0
   58.3930   33.0760   47.0220 H   0  0  0  0  0  0  0  0  0  0  0  0
   59.9805   35.4946   46.2698 H   0  0  0  0  0  0  0  0  0  0  0  0
   59.1787   35.0816   47.8679 H   0  0  0  0  0  0  0  0  0  0  0  0
   61.8996   33.9114   45.6073 H   0  0  0  0  0  0  0  0  0  0  0  0
   64.0604   33.0815   46.4267 H   0  0  0  0  0  0  0  0  0  0  0  0
   62.7031   33.5638   50.4655 H   0  0  0  0  0  0  0  0  0  0  0  0
   60.5378   34.3945   49.6256 H   0  0  0  0  0  0  0  0  0  0  0  0
   58.4899   32.7949   42.4110 H   0  0  0  0  0  0  0  0  0  0  0  0
   57.0075   30.9563   41.5279 H   0  0  0  0  0  0  0  0  0  0  0  0
   55.9340   30.0880   45.5650 H   0  0  0  0  0  0  0  0  0  0  0  0
  1  2  2  0
  2  3  1  0
  3  4  1  0
  4  5  1  0
  5  6  2  0
  6  7  1  0
  7  8  2  0
  8  9  1  0
  8 10  1  0
 10 11  2  0
  2 12  1  0
 12 13  1  0
 13 14  2  0
 14 15  1  0
 15 16  2  0
 15 17  1  0
 17 18  1  0
 11  5  1  0
 18 12  2  0
  3 19  1  0
  4 20  1  0
  4 21  1  0
  6 22  1  0
  7 23  1  0
 10 24  1  0
 11 25  1  0
 13 26  1  0
 14 27  1  0
 17 28  1  0
M  END
>  <smiles>  (25) 
O=C(NCc1ccc(F)cc1)c1ccc(=O)[nH]n1

>  <score_type>  (25) 
oracle

>  <origin>  (25) 
adg

>  <m_score__min__energy>  (25) 
-6.5999999999999996

>  <m_primary>  (25) 
energy

$$$$
25:0
     RDKit          3D

 38 40  0  0  0  0  0  0  0  0999 V2000
   59.5010   29.4980   47.6680 C   0  0  0  0  0  0  0  0  0  0  0  0
   60.0480   28.6970   46.1280 S   0  0  0  0  0  0  0  0  0  0  0  0
   58.7690   27.4320   46.1980 C   0  0  0  0  0  0  0  0  0  0  0  0
   59.1220   26.1740   46.7070 C   0  0  0  0  0  0  0  0  0  0  0  0
   58.1610   25.1740   46.8560 C   0  0  0  0  0  0  0  0  0  0  0  0
   56.8350   25.4230   46.5030 C   0  0  0  0  0  0  0  0  0  0  0  0
   56.4690   26.6680   45.9880 C   0  0  0  0  0  0  0  0  0  0  0  0
   57.4270   27.6840   45.8120 C   0  0  0  0  0  0  0  0  0  0  0  0
   56.9900   28.9790   45.2410 C   0  0  0  0  0  0  0  0  0  0  0  0
   55.7220   29.2690   44.8900 N   0  0  0  0  0  0  0  0  0  0  0  0
   55.7200   30.5160   44.4540 N   0  0  0  0  0  0  0  0  0  0  0  0
   56.9860   30.9530   44.5570 C   0  0  0  0  0  0  0  0  0  0  0  0
   57.5190   32.5870   44.0550 S   0  0  0  0  0  0  0  0  0  0  0  0
   57.0010   33.4080   45.6060 C   0  0  0  0  0  0  0  0  0  0  0  0
   58.1690   33.6160   46.5470 C   0  0  0  0  0  0  0  0  0  0  0  0
   58.1920   32.8850   47.7500 C   0  0  0  0  0  0  0  0  0  0  0  0
   59.2670   32.9980   48.6320 C   0  0  0  0  0  0  0  0  0  0  0  0
   60.3320   33.8450   48.3320 C   0  0  0  0  0  0  0  0  0  0  0  0
   60.3220   34.5920   47.1520 C   0  0  0  0  0  0  0  0  0  0  0  0
   59.2450   34.4970   46.2530 C   0  0  0  0  0  0  0  0  0  0  0  0
   59.2670   35.3390   45.0040 C   0  0  0  0  0  0  0  0  0  0  0  0
   57.8210   30.0240   45.0560 N   0  0  0  0  0  0  0  0  0  0  0  0
   59.8857   28.9347   48.5310 H   0  0  0  0  0  0  0  0  0  0  0  0
   59.8851   30.5282   47.7019 H   0  0  0  0  0  0  0  0  0  0  0  0
   58.4017   29.5152   47.7019 H   0  0  0  0  0  0  0  0  0  0  0  0
   60.1657   25.9740   46.9912 H   0  0  0  0  0  0  0  0  0  0  0  0
   58.4491   24.1890   47.2519 H   0  0  0  0  0  0  0  0  0  0  0  0
   56.0761   24.6370   46.6306 H   0  0  0  0  0  0  0  0  0  0  0  0
   55.4199   26.8570   45.7167 H   0  0  0  0  0  0  0  0  0  0  0  0
   56.5614   34.3863   45.3618 H   0  0  0  0  0  0  0  0  0  0  0  0
   56.2673   32.7603   46.1082 H   0  0  0  0  0  0  0  0  0  0  0  0
   57.3533   32.2175   47.9972 H   0  0  0  0  0  0  0  0  0  0  0  0
   59.2739   32.4173   49.5662 H   0  0  0  0  0  0  0  0  0  0  0  0
   61.1819   33.9254   49.0256 H   0  0  0  0  0  0  0  0  0  0  0  0
   61.1647   35.2611   46.9237 H   0  0  0  0  0  0  0  0  0  0  0  0
   59.2948   36.4035   45.2799 H   0  0  0  0  0  0  0  0  0  0  0  0
   60.1590   35.0907   44.4101 H   0  0  0  0  0  0  0  0  0  0  0  0
   58.3633   35.1376   44.4101 H   0  0  0  0  0  0  0  0  0  0  0  0
  1  2  1  0
  2  3  1  0
  3  4  2  0
  4  5  1  0
  5  6  2  0
  6  7  1  0
  7  8  2  0
  8  9  1  0
  9 10  2  0
 10 11  1  0
 11 12  1  0
 12 13  1  0
 13 14  1  0
 14 15  1  0
 15 16  2  0
 16 17  1  0
 17 18  2  0
 18 19  1  0
 19 20  2  0
 20 21  1  0
 12 22  2  0
  8  3  1  0
 22  9  1  0
 20 15  1  0
  1 23  1  0
  1 24  1  0
  1 25  1  0
  4 26  1  0
  5 27  1  0
  6 28  1  0
  7 29  1  0
 14 30  1  0
 14 31  1  0
 16 32  1  0
 17 33  1  0
 18 34  1  0
 19 35  1  0
 21 36  1  0
 21 37  1  0
 21 38  1  0
M  CHG  1  11  -1
M  END
>  <UniqueID>  (26) 
23

>  <SMILES>  (26) 
CSc1ccccc1-c1n[n-]c(SCc2ccccc2C)n1

>  <Energy>  (26) 
67.66074148330527

>  <Genealogy>  (26) 
CSc1ccccc1-c1n[n-]c(SCc2ccccc2C)n1 (protonated)
CSc1ccccc1-c1n[n-]c(SCc2ccccc2C)n1 (3D coordinates assigned)
CSc1ccccc1-c1n[n-]c(SCc2ccccc2C)n1 (optimized conformer: 67.66074148330527 kcal/mol)

>  <smiles>  (26) 
CSc1ccccc1-c1n[nH]c(SCc2ccccc2C)n1

>  <score_type>  (26) 
oracle

>  <origin>  (26) 
adg

>  <m_score__min__energy>  (26) 
-9.8000000000000007

>  <m_primary>  (26) 
energy

$$$$
26:0
     RDKit          3D

 49 51  0  0  1  0  0  0  0  0999 V2000
   60.9650   31.7070   48.2710 N   0  0  0  0  0  0  0  0  0  0  0  0
   60.7920   32.6070   47.1990 C   0  0  0  0  0  0  0  0  0  0  0  0
   61.8200   33.2830   46.8700 O   0  0  0  0  0  0  0  0  0  0  0  0
   58.6490   25.4030   45.6270 C   0  0  0  0  0  0  0  0  0  0  0  0
   59.1720   34.1550   46.2940 C   0  0  0  0  0  0  0  0  0  0  0  0
   59.8600   35.2530   46.8960 N   0  0  0  0  0  0  0  0  0  0  0  0
   58.0430   34.4910   45.5510 C   0  0  0  0  0  0  0  0  0  0  0  0
   57.3060   33.5030   44.9350 C   0  0  0  0  0  0  0  0  0  0  0  0
   57.7200   32.2060   45.0840 C   0  0  0  0  0  0  0  0  0  0  0  0
   58.8590   31.8580   45.8340 C   0  0  0  0  0  0  0  0  0  0  0  0
   59.1030   30.4730   45.9400 N   0  0  0  0  0  0  0  0  0  0  0  0
   58.7440   29.8230   47.2180 C   0  0  0  0  0  0  0  0  0  0  0  0
   58.1610   28.4370   46.8640 C   0  0  0  0  0  0  0  0  0  0  0  0
   59.3050   27.6350   46.2950 C   0  0  0  0  0  0  0  0  0  0  0  0
   59.4060   26.3330   46.4680 C   0  0  0  0  0  0  0  0  0  0  0  0
   59.5910   32.8420   46.4410 C   0  0  0  0  0  0  0  0  0  0  0  0
   58.7260   24.0420   45.8800 C   0  0  0  0  0  0  0  0  0  0  0  0
   58.0380   23.1020   45.1240 C   0  0  0  0  0  0  0  0  0  0  0  0
   57.2440   23.5160   44.0770 C   0  0  0  0  0  0  0  0  0  0  0  0
   56.4890   22.5350   43.2720 C   0  0  0  0  0  0  0  0  0  0  0  0
   55.2370   22.9170   42.7960 O   0  0  0  0  0  0  0  0  0  0  0  0
   56.9200   21.3670   42.9920 N   0  0  0  0  0  0  0  0  0  0  0  0
   56.1960   20.2640   43.4240 O   0  0  0  0  0  0  0  0  0  0  0  0
   57.1570   24.8700   43.8070 C   0  0  0  0  0  0  0  0  0  0  0  0
   57.8560   25.7920   44.5800 C   0  0  0  0  0  0  0  0  0  0  0  0
   60.3230   28.4430   45.5540 C   0  0  0  0  0  0  0  0  0  0  0  0
   59.6410   29.6250   44.9270 C   0  0  0  0  0  0  0  0  0  0  0  0
   61.1230   32.0840   49.2270 H   0  0  0  0  0  0  0  0  0  0  0  0
   60.9230   30.6830   48.0380 H   0  0  0  0  0  0  0  0  0  0  0  0
   60.8780   35.2030   47.1630 H   0  0  0  0  0  0  0  0  0  0  0  0
   59.3520   36.1450   47.0860 H   0  0  0  0  0  0  0  0  0  0  0  0
   57.7399   35.5441   45.4560 H   0  0  0  0  0  0  0  0  0  0  0  0
   56.4127   33.7484   44.3419 H   0  0  0  0  0  0  0  0  0  0  0  0
   57.1406   31.4063   44.5994 H   0  0  0  0  0  0  0  0  0  0  0  0
   59.6377   29.7082   47.8489 H   0  0  0  0  0  0  0  0  0  0  0  0
   58.0148   30.4273   47.7776 H   0  0  0  0  0  0  0  0  0  0  0  0
   57.7635   27.9484   47.7658 H   0  0  0  0  0  0  0  0  0  0  0  0
   57.3325   28.5211   46.1453 H   0  0  0  0  0  0  0  0  0  0  0  0
   60.0672   25.9393   47.2540 H   0  0  0  0  0  0  0  0  0  0  0  0
   59.3562   23.6934   46.7114 H   0  0  0  0  0  0  0  0  0  0  0  0
   58.1266   22.0313   45.3601 H   0  0  0  0  0  0  0  0  0  0  0  0
   54.7230   22.2120   42.2540 H   0  0  0  0  0  0  0  0  0  0  0  0
   56.6430   19.3690   43.5860 H   0  0  0  0  0  0  0  0  0  0  0  0
   56.5299   25.2208   42.9741 H   0  0  0  0  0  0  0  0  0  0  0  0
   57.7694   26.8628   44.3438 H   0  0  0  0  0  0  0  0  0  0  0  0
   61.0981   28.7912   46.2525 H   0  0  0  0  0  0  0  0  0  0  0  0
   60.7934   27.8263   44.7740 H   0  0  0  0  0  0  0  0  0  0  0  0
   60.3700   30.1905   44.3281 H   0  0  0  0  0  0  0  0  0  0  0  0
   58.8235   29.2696   44.2825 H   0  0  0  0  0  0  0  0  0  0  0  0
  1  2  1  0
  2  3  2  0
  2  4  1  0
  4  5  2  0
  5  6  1  0
  5  7  1  0
  7  8  2  0
  8  9  1  0
  9 10  2  0
 10 11  1  0
 11 12  1  0
 12 13  1  0
 13 14  1  0
 14 15  2  3
 15 16  1  0
 16 17  2  0
 17 18  1  0
 18 19  2  0
 19 20  1  0
 20 21  1  0
 20 22  2  0
 22 23  1  0
 19 24  1  0
 24 25  2  0
 14 26  1  0
 26 27  1  0
 10  4  1  0
 27 11  1  0
 25 16  1  0
  1 28  1  0
  1 29  1  0
  6 30  1  0
  6 31  1  0
  7 32  1  0
  8 33  1  0
  9 34  1  0
 12 35  1  0
 12 36  1  0
 13 37  1  0
 13 38  1  0
 15 39  1  0
 17 40  1  0
 18 41  1  0
 21 42  1  0
 23 43  1  0
 24 44  1  0
 25 45  1  0
 26 46  1  0
 26 47  1  0
 27 48  1  0
 27 49  1  0
M  END
>  <smiles>  (27) 
NC(=O)c1c(N)cccc1N1CCC(=Cc2ccc(C(O)=NO)cc2)CC1

>  <score_type>  (27) 
oracle

>  <origin>  (27) 
adg

>  <m_score__min__energy>  (27) 
-9.2200000000000006

>  <m_primary>  (27) 
energy

$$$$
27:0
     RDKit          3D

 38 40  0  0  0  0  0  0  0  0999 V2000
   60.2280   29.6950   49.6030 O   0  0  0  0  0  0  0  0  0  0  0  0
   60.9330   29.9340   48.5870 C   0  0  0  0  0  0  0  0  0  0  0  0
   60.6380   29.2310   47.3710 N   0  0  0  0  0  0  0  0  0  0  0  0
   59.3390   28.9950   46.8080 C   0  0  0  0  0  0  0  0  0  0  0  0
   58.6870   27.7920   47.0980 C   0  0  0  0  0  0  0  0  0  0  0  0
   57.4180   27.5330   46.5770 C   0  0  0  0  0  0  0  0  0  0  0  0
   56.7800   28.4810   45.7700 C   0  0  0  0  0  0  0  0  0  0  0  0
   55.5200   28.2000   45.2540 O   0  0  0  0  0  0  0  0  0  0  0  0
   57.4130   29.7040   45.4900 C   0  0  0  0  0  0  0  0  0  0  0  0
   56.6120   30.9100   44.4830 S   0  0  0  0  0  0  0  0  0  0  0  0
   55.1680   30.5260   44.3240 O   0  0  0  0  0  0  0  0  0  0  0  0
   57.2430   30.9820   43.1200 O   0  0  0  0  0  0  0  0  0  0  0  0
   56.7040   32.4700   45.2380 N   0  0  0  0  0  0  0  0  0  0  0  0
   57.7650   32.9160   46.0940 C   0  0  0  0  0  0  0  0  0  0  0  0
   57.7700   32.6620   47.4790 C   0  0  0  0  0  0  0  0  0  0  0  0
   58.8270   33.1140   48.2740 C   0  0  0  0  0  0  0  0  0  0  0  0
   59.8880   33.8170   47.6970 C   0  0  0  0  0  0  0  0  0  0  0  0
   61.2180   34.3730   48.6960 Cl  0  0  0  0  0  0  0  0  0  0  0  0
   59.8880   34.0740   46.3220 C   0  0  0  0  0  0  0  0  0  0  0  0
   58.8300   33.6240   45.5250 C   0  0  0  0  0  0  0  0  0  0  0  0
   58.6860   29.9630   46.0210 C   0  0  0  0  0  0  0  0  0  0  0  0
   62.0730   30.8760   48.7050 C   0  0  0  0  0  0  0  0  0  0  0  0
   62.6320   31.4960   47.5750 C   0  0  0  0  0  0  0  0  0  0  0  0
   63.7110   32.3700   47.7150 C   0  0  0  0  0  0  0  0  0  0  0  0
   64.2370   32.6100   48.9860 C   0  0  0  0  0  0  0  0  0  0  0  0
   65.2150   33.3890   49.1300 O   0  0  0  0  0  0  0  0  0  0  0  0
   63.6990   31.9930   50.0700 N   0  0  0  0  0  0  0  0  0  0  0  0
   62.6430   31.1420   49.9600 C   0  0  0  0  0  0  0  0  0  0  0  0
   59.1771   27.0456   47.7404 H   0  0  0  0  0  0  0  0  0  0  0  0
   56.9177   26.5795   46.8020 H   0  0  0  0  0  0  0  0  0  0  0  0
   56.9389   32.1057   47.9370 H   0  0  0  0  0  0  0  0  0  0  0  0
   58.8237   32.9160   49.3560 H   0  0  0  0  0  0  0  0  0  0  0  0
   60.7207   34.6304   45.8670 H   0  0  0  0  0  0  0  0  0  0  0  0
   58.8351   33.8279   44.4441 H   0  0  0  0  0  0  0  0  0  0  0  0
   59.1762   30.9273   45.8214 H   0  0  0  0  0  0  0  0  0  0  0  0
   62.2178   31.2919   46.5766 H   0  0  0  0  0  0  0  0  0  0  0  0
   64.1429   32.8650   46.8327 H   0  0  0  0  0  0  0  0  0  0  0  0
   62.2335   30.6596   50.8598 H   0  0  0  0  0  0  0  0  0  0  0  0
  1  2  2  0
  2  3  1  0
  3  4  1  0
  4  5  2  0
  5  6  1  0
  6  7  2  0
  7  8  1  0
  7  9  1  0
  9 10  1  0
 10 11  2  0
 10 12  2  0
 10 13  1  0
 13 14  1  0
 14 15  2  0
 15 16  1  0
 16 17  2  0
 17 18  1  0
 17 19  1  0
 19 20  2  0
  9 21  2  0
  2 22  1  0
 22 23  1  0
 23 24  2  0
 24 25  1  0
 25 26  2  0
 25 27  1  0
 27 28  1  0
 21  4  1  0
 28 22  2  0
 20 14  1  0
  5 29  1  0
  6 30  1  0
 15 31  1  0
 16 32  1  0
 19 33  1  0
 20 34  1  0
 21 35  1  0
 23 36  1  0
 24 37  1  0
 28 38  1  0
M  CHG  4   3  -1   8  -1  13  -1  27  -1
M  END
>  <UniqueID>  (28) 
24

>  <SMILES>  (28) 
O=C([N-]c1ccc([O-])c(S(=O)(=O)[N-]c2ccc(Cl)cc2)c1)c1ccc(=O)[n-]c1

>  <Energy>  (28) 
52.242318500310404

>  <Genealogy>  (28) 
O=C([N-]c1ccc([O-])c(S(=O)(=O)[N-]c2ccc(Cl)cc2)c1)c1ccc(=O)[n-]c1 (protonated)
O=C([N-]c1ccc([O-])c(S(=O)(=O)[N-]c2ccc(Cl)cc2)c1)c1ccc(=O)[n-]c1 (3D coordinates assigned)
O=C([N-]c1ccc([O-])c(S(=O)(=O)[N-]c2ccc(Cl)cc2)c1)c1ccc(=O)[n-]c1 (optimized conformer: 52.242318500310404 kcal/mol)

>  <smiles>  (28) 
O=C(Nc1ccc(O)c(S(=O)(=O)Nc2ccc(Cl)cc2)c1)c1ccc(=O)[nH]c1

>  <score_type>  (28) 
oracle

>  <origin>  (28) 
adg

>  <m_score__min__energy>  (28) 
-15.390000000000001

>  <m_primary>  (28) 
energy

$$$$
28:0
     RDKit          3D

 32 33  0  0  0  0  0  0  0  0999 V2000
   59.2840   30.6070   48.5270 C   0  0  0  0  0  0  0  0  0  0  0  0
   58.4960   30.2440   47.3990 O   0  0  0  0  0  0  0  0  0  0  0  0
   58.6430   29.0490   46.6780 C   0  0  0  0  0  0  0  0  0  0  0  0
   59.7190   28.1660   46.9050 C   0  0  0  0  0  0  0  0  0  0  0  0
   59.8240   26.9790   46.1770 C   0  0  0  0  0  0  0  0  0  0  0  0
   58.8570   26.6550   45.2260 C   0  0  0  0  0  0  0  0  0  0  0  0
   57.7870   27.5200   44.9910 C   0  0  0  0  0  0  0  0  0  0  0  0
   57.6830   28.7320   45.7000 C   0  0  0  0  0  0  0  0  0  0  0  0
   56.5750   29.6250   45.5100 N   0  0  0  0  0  0  0  0  0  0  0  0
   55.8820   29.8910   44.2840 C   0  0  0  0  0  0  0  0  0  0  0  0
   54.7720   29.3500   44.0370 O   0  0  0  0  0  0  0  0  0  0  0  0
   56.4930   30.8200   43.2850 C   0  0  0  0  0  0  0  0  0  0  0  0
   58.3000   30.9350   43.5290 S   0  0  0  0  0  0  0  0  0  0  0  0
   58.2100   32.2770   44.7180 C   0  0  0  0  0  0  0  0  0  0  0  0
   58.8490   33.4490   44.4620 N   0  0  0  0  0  0  0  0  0  0  0  0
   58.8190   34.4690   45.3570 C   0  0  0  0  0  0  0  0  0  0  0  0
   58.1280   34.3200   46.5580 C   0  0  0  0  0  0  0  0  0  0  0  0
   57.4710   33.1140   46.8020 C   0  0  0  0  0  0  0  0  0  0  0  0
   57.5170   32.1170   45.8790 N   0  0  0  0  0  0  0  0  0  0  0  0
   58.7404   30.3566   49.4499 H   0  0  0  0  0  0  0  0  0  0  0  0
   60.2361   30.0568   48.5015 H   0  0  0  0  0  0  0  0  0  0  0  0
   59.4846   31.6883   48.5015 H   0  0  0  0  0  0  0  0  0  0  0  0
   60.4799   28.4137   47.6598 H   0  0  0  0  0  0  0  0  0  0  0  0
   60.6703   26.2989   46.3539 H   0  0  0  0  0  0  0  0  0  0  0  0
   58.9376   25.7155   44.6596 H   0  0  0  0  0  0  0  0  0  0  0  0
   57.0210   27.2534   44.2480 H   0  0  0  0  0  0  0  0  0  0  0  0
   56.2889   30.4449   42.2713 H   0  0  0  0  0  0  0  0  0  0  0  0
   56.0543   31.8199   43.4180 H   0  0  0  0  0  0  0  0  0  0  0  0
   59.3395   35.4122   45.1346 H   0  0  0  0  0  0  0  0  0  0  0  0
   58.1013   35.1347   47.2966 H   0  0  0  0  0  0  0  0  0  0  0  0
   56.9160   32.9698   47.7407 H   0  0  0  0  0  0  0  0  0  0  0  0
   57.0220   31.2180   46.0720 H   0  0  0  0  0  0  0  0  0  0  0  0
  1  2  1  0
  2  3  1  0
  3  4  2  0
  4  5  1  0
  5  6  2  0
  6  7  1  0
  7  8  2  0
  8  9  1  0
  9 10  1  0
 10 11  2  0
 10 12  1  0
 12 13  1  0
 13 14  1  0
 14 15  2  0
 15 16  1  0
 16 17  2  0
 17 18  1  0
 18 19  2  0
  8  3  1  0
 19 14  1  0
  1 20  1  0
  1 21  1  0
  1 22  1  0
  4 23  1  0
  5 24  1  0
  6 25  1  0
  7 26  1  0
 12 27  1  0
 12 28  1  0
 16 29  1  0
 17 30  1  0
 18 31  1  0
 19 32  1  0
M  CHG  2   9  -1  19   1
M  END
>  <UniqueID>  (29) 
25

>  <SMILES>  (29) 
COc1ccccc1[N-]C(=O)CSc1nccc[nH+]1

>  <Energy>  (29) 
29.32052847954992

>  <Genealogy>  (29) 
COc1ccccc1[N-]C(=O)CSc1nccc[nH+]1 (protonated)
COc1ccccc1[N-]C(=O)CSc1nccc[nH+]1 (3D coordinates assigned)
COc1ccccc1[N-]C(=O)CSc1nccc[nH+]1 (optimized conformer: 29.32052847954992 kcal/mol)

>  <smiles>  (29) 
COc1ccccc1NC(=O)CSc1ncccn1

>  <score_type>  (29) 
oracle

>  <origin>  (29) 
adg

>  <m_score__min__energy>  (29) 
-8.5199999999999996

>  <m_primary>  (29) 
energy

$$$$
29:0
     RDKit          3D

 24 25  0  0  0  0  0  0  0  0999 V2000
   55.4790   30.0830   44.5200 O   0  0  0  0  0  0  0  0  0  0  0  0
   56.7290   30.1250   44.3640 C   0  0  0  0  0  0  0  0  0  0  0  0
   57.4280   28.9590   43.7310 C   0  0  0  0  0  0  0  0  0  0  0  0
   58.4590   28.4540   44.6320 N   0  0  0  0  0  0  0  0  0  0  0  0
   59.7300   28.8780   44.7210 C   0  0  0  0  0  0  0  0  0  0  0  0
   60.3780   28.0770   45.6350 C   0  0  0  0  0  0  0  0  0  0  0  0
   59.5230   27.1470   46.1080 N   0  0  0  0  0  0  0  0  0  0  0  0
   58.3620   27.4030   45.4690 C   0  0  0  0  0  0  0  0  0  0  0  0
   57.4570   31.3670   44.6850 C   0  0  0  0  0  0  0  0  0  0  0  0
   57.7840   31.6320   46.0240 C   0  0  0  0  0  0  0  0  0  0  0  0
   58.4560   32.8090   46.3680 C   0  0  0  0  0  0  0  0  0  0  0  0
   58.8160   33.7230   45.3770 C   0  0  0  0  0  0  0  0  0  0  0  0
   58.5120   33.4610   44.0390 C   0  0  0  0  0  0  0  0  0  0  0  0
   57.8380   32.2860   43.6830 C   0  0  0  0  0  0  0  0  0  0  0  0
   57.5540   31.9710   41.9740 Cl  0  0  0  0  0  0  0  0  0  0  0  0
   56.6979   28.1617   43.5276 H   0  0  0  0  0  0  0  0  0  0  0  0
   57.8947   29.2823   42.7889 H   0  0  0  0  0  0  0  0  0  0  0  0
   60.1744   29.7156   44.1634 H   0  0  0  0  0  0  0  0  0  0  0  0
   61.4317   28.1799   45.9336 H   0  0  0  0  0  0  0  0  0  0  0  0
   57.4410   26.8195   45.6152 H   0  0  0  0  0  0  0  0  0  0  0  0
   57.5101   30.9097   46.8071 H   0  0  0  0  0  0  0  0  0  0  0  0
   58.7010   33.0145   47.4205 H   0  0  0  0  0  0  0  0  0  0  0  0
   59.3398   34.6510   45.6497 H   0  0  0  0  0  0  0  0  0  0  0  0
   58.8036   34.1815   43.2606 H   0  0  0  0  0  0  0  0  0  0  0  0
  1  2  2  0
  2  3  1  0
  3  4  1  0
  4  5  1  0
  5  6  2  0
  6  7  1  0
  7  8  2  0
  2  9  1  0
  9 10  2  0
 10 11  1  0
 11 12  2  0
 12 13  1  0
 13 14  2  0
 14 15  1  0
  8  4  1  0
 14  9  1  0
  3 16  1  0
  3 17  1  0
  5 18  1  0
  6 19  1  0
  8 20  1  0
 10 21  1  0
 11 22  1  0
 12 23  1  0
 13 24  1  0
M  END
>  <UniqueID>  (30) 
26

>  <SMILES>  (30) 
O=C(Cn1ccnc1)c1ccccc1Cl

>  <Energy>  (30) 
58.605398220299634

>  <Genealogy>  (30) 
O=C(Cn1ccnc1)c1ccccc1Cl (3D coordinates assigned)
O=C(Cn1ccnc1)c1ccccc1Cl (optimized conformer: 58.605398220299634 kcal/mol)

>  <smiles>  (30) 
O=C(Cn1ccnc1)c1ccccc1Cl

>  <score_type>  (30) 
oracle

>  <origin>  (30) 
adg

>  <m_score__min__energy>  (30) 
-5.7599999999999998

>  <m_primary>  (30) 
energy

$$$$
30:0
     RDKit          3D

 45 46  0  0  0  0  0  0  0  0999 V2000
   57.7360   28.7510   46.5260 N   0  0  0  0  0  0  0  0  0  0  0  0
   56.7100   28.1970   45.2500 S   0  0  0  0  0  0  0  0  0  0  0  0
   56.0200   26.9330   45.6840 O   0  0  0  0  0  0  0  0  0  0  0  0
   57.5370   27.9090   44.0300 O   0  0  0  0  0  0  0  0  0  0  0  0
   55.5070   29.4010   44.8910 N   0  0  0  0  0  0  0  0  0  0  0  0
   56.0620   30.4680   44.0570 C   0  0  0  0  0  0  0  0  0  0  0  0
   57.5480   30.6710   44.3710 C   0  0  0  0  0  0  0  0  0  0  0  0
   57.8160   32.0310   45.0330 C   0  0  0  0  0  0  0  0  0  0  0  0
   58.2070   31.8830   46.4500 N   0  0  0  0  0  0  0  0  0  0  0  0
   58.2240   33.1580   47.2000 C   0  0  0  0  0  0  0  0  0  0  0  0
   58.7510   33.0460   48.6160 C   0  0  0  0  0  0  0  0  0  0  0  0
   58.2170   32.0820   49.4890 C   0  0  0  0  0  0  0  0  0  0  0  0
   58.6800   31.9820   50.8050 C   0  0  0  0  0  0  0  0  0  0  0  0
   59.6710   32.8510   51.2650 C   0  0  0  0  0  0  0  0  0  0  0  0
   60.1860   33.8340   50.4170 C   0  0  0  0  0  0  0  0  0  0  0  0
   59.7190   33.9430   49.1040 C   0  0  0  0  0  0  0  0  0  0  0  0
   59.6470   30.9060   46.6950 S   0  0  0  0  0  0  0  0  0  0  0  0
   59.4330   29.9940   47.8710 O   0  0  0  0  0  0  0  0  0  0  0  0
   59.8640   30.0360   45.4890 O   0  0  0  0  0  0  0  0  0  0  0  0
   61.1140   31.8590   46.9630 C   0  0  0  0  0  0  0  0  0  0  0  0
   61.2540   33.1250   46.3700 C   0  0  0  0  0  0  0  0  0  0  0  0
   62.4110   33.8800   46.5840 C   0  0  0  0  0  0  0  0  0  0  0  0
   63.4460   33.3700   47.3720 C   0  0  0  0  0  0  0  0  0  0  0  0
   63.3310   32.0960   47.9330 C   0  0  0  0  0  0  0  0  0  0  0  0
   62.1760   31.3380   47.7190 C   0  0  0  0  0  0  0  0  0  0  0  0
   57.7890   29.7920   46.4480 H   0  0  0  0  0  0  0  0  0  0  0  0
   58.6940   28.3840   46.3290 H   0  0  0  0  0  0  0  0  0  0  0  0
   55.9491   30.1959   42.9972 H   0  0  0  0  0  0  0  0  0  0  0  0
   55.5215   31.4029   44.2661 H   0  0  0  0  0  0  0  0  0  0  0  0
   57.8792   29.8732   45.0520 H   0  0  0  0  0  0  0  0  0  0  0  0
   58.1030   30.6400   43.4218 H   0  0  0  0  0  0  0  0  0  0  0  0
   58.6279   32.5374   44.4905 H   0  0  0  0  0  0  0  0  0  0  0  0
   56.8876   32.6196   44.9938 H   0  0  0  0  0  0  0  0  0  0  0  0
   58.8585   33.8705   46.6524 H   0  0  0  0  0  0  0  0  0  0  0  0
   57.1778   33.4881   47.2804 H   0  0  0  0  0  0  0  0  0  0  0  0
   57.4291   31.4012   49.1344 H   0  0  0  0  0  0  0  0  0  0  0  0
   58.2630   31.2182   51.4779 H   0  0  0  0  0  0  0  0  0  0  0  0
   60.0462   32.7615   52.2952 H   0  0  0  0  0  0  0  0  0  0  0  0
   60.9607   34.5238   50.7831 H   0  0  0  0  0  0  0  0  0  0  0  0
   60.1106   34.7347   48.4484 H   0  0  0  0  0  0  0  0  0  0  0  0
   60.4496   33.5239   45.7345 H   0  0  0  0  0  0  0  0  0  0  0  0
   62.5067   34.8778   46.1310 H   0  0  0  0  0  0  0  0  0  0  0  0
   64.3500   33.9709   47.5503 H   0  0  0  0  0  0  0  0  0  0  0  0
   64.1501   31.6887   48.5438 H   0  0  0  0  0  0  0  0  0  0  0  0
   62.0988   30.3270   48.1456 H   0  0  0  0  0  0  0  0  0  0  0  0
  1  2  1  0
  2  3  2  0
  2  4  2  0
  2  5  1  0
  5  6  1  0
  6  7  1  0
  7  8  1  0
  8  9  1  0
  9 10  1  0
 10 11  1  0
 11 12  2  0
 12 13  1  0
 13 14  2  0
 14 15  1  0
 15 16  2  0
  9 17  1  0
 17 18  2  0
 17 19  2  0
 17 20  1  0
 20 21  2  0
 21 22  1  0
 22 23  2  0
 23 24  1  0
 24 25  2  0
 16 11  1  0
 25 20  1  0
  1 26  1  0
  1 27  1  0
  6 28  1  0
  6 29  1  0
  7 30  1  0
  7 31  1  0
  8 32  1  0
  8 33  1  0
 10 34  1  0
 10 35  1  0
 12 36  1  0
 13 37  1  0
 14 38  1  0
 15 39  1  0
 16 40  1  0
 21 41  1  0
 22 42  1  0
 23 43  1  0
 24 44  1  0
 25 45  1  0
M  CHG  1   5  -1
M  END
>  <UniqueID>  (31) 
27

>  <SMILES>  (31) 
NS(=O)(=O)[N-]CCCN(Cc1ccccc1)S(=O)(=O)c1ccccc1

>  <Energy>  (31) 
41.23010139642057

>  <Genealogy>  (31) 
NS(=O)(=O)[N-]CCCN(Cc1ccccc1)S(=O)(=O)c1ccccc1 (protonated)
NS(=O)(=O)[N-]CCCN(Cc1ccccc1)S(=O)(=O)c1ccccc1 (3D coordinates assigned)
NS(=O)(=O)[N-]CCCN(Cc1ccccc1)S(=O)(=O)c1ccccc1 (optimized conformer: 41.23010139642057 kcal/mol)

>  <smiles>  (31) 
NS(=O)(=O)NCCCN(Cc1ccccc1)S(=O)(=O)c1ccccc1

>  <score_type>  (31) 
oracle

>  <origin>  (31) 
adg

>  <m_score__min__energy>  (31) 
-10.85

>  <m_primary>  (31) 
energy

$$$$
31:0
     RDKit          3D

 39 40  0  0  0  0  0  0  0  0999 V2000
   64.1050   31.9780   49.0280 N   0  0  0  0  0  0  0  0  0  0  0  0
   63.2500   32.4570   47.9800 C   0  0  0  0  0  0  0  0  0  0  0  0
   63.8320   32.7830   46.7140 N   0  0  0  0  0  0  0  0  0  0  0  0
   61.9640   32.6030   48.1520 N   0  0  0  0  0  0  0  0  0  0  0  0
   60.9920   33.8080   47.3630 S   0  0  0  0  0  0  0  0  0  0  0  0
   61.8470   34.5740   46.3930 O   0  0  0  0  0  0  0  0  0  0  0  0
   60.4570   34.7610   48.3950 O   0  0  0  0  0  0  0  0  0  0  0  0
   59.6330   33.0510   46.5380 C   0  0  0  0  0  0  0  0  0  0  0  0
   58.9700   33.7340   45.5110 C   0  0  0  0  0  0  0  0  0  0  0  0
   57.8870   33.1420   44.8540 C   0  0  0  0  0  0  0  0  0  0  0  0
   57.4670   31.8470   45.2080 C   0  0  0  0  0  0  0  0  0  0  0  0
   56.3440   31.2120   44.5790 N   0  0  0  0  0  0  0  0  0  0  0  0
   56.1600   29.8040   44.3920 C   0  0  0  0  0  0  0  0  0  0  0  0
   55.1480   29.2160   44.8590 O   0  0  0  0  0  0  0  0  0  0  0  0
   57.1810   29.0250   43.6260 C   0  0  0  0  0  0  0  0  0  0  0  0
   58.1660   28.4010   44.5760 C   0  0  0  0  0  0  0  0  0  0  0  0
   59.5180   28.7840   44.5480 C   0  0  0  0  0  0  0  0  0  0  0  0
   60.4260   28.2270   45.4550 C   0  0  0  0  0  0  0  0  0  0  0  0
   59.9900   27.2960   46.4000 C   0  0  0  0  0  0  0  0  0  0  0  0
   58.6440   26.9210   46.4450 C   0  0  0  0  0  0  0  0  0  0  0  0
   57.7320   27.4750   45.5390 C   0  0  0  0  0  0  0  0  0  0  0  0
   58.1230   31.1750   46.2480 C   0  0  0  0  0  0  0  0  0  0  0  0
   59.2060   31.7680   46.9030 C   0  0  0  0  0  0  0  0  0  0  0  0
   65.1310   31.8860   48.8560 H   0  0  0  0  0  0  0  0  0  0  0  0
   63.7550   31.7040   49.9700 H   0  0  0  0  0  0  0  0  0  0  0  0
   64.8590   32.6710   46.5590 H   0  0  0  0  0  0  0  0  0  0  0  0
   63.2450   33.1360   45.9250 H   0  0  0  0  0  0  0  0  0  0  0  0
   61.4600   31.9540   48.7980 H   0  0  0  0  0  0  0  0  0  0  0  0
   59.3028   34.7412   45.2197 H   0  0  0  0  0  0  0  0  0  0  0  0
   57.3619   33.6905   44.0581 H   0  0  0  0  0  0  0  0  0  0  0  0
   56.6792   28.2342   43.0491 H   0  0  0  0  0  0  0  0  0  0  0  0
   57.7152   29.7013   42.9424 H   0  0  0  0  0  0  0  0  0  0  0  0
   59.8632   29.5238   43.8108 H   0  0  0  0  0  0  0  0  0  0  0  0
   61.4850   28.5229   45.4237 H   0  0  0  0  0  0  0  0  0  0  0  0
   60.7065   26.8571   47.1099 H   0  0  0  0  0  0  0  0  0  0  0  0
   58.3015   26.1904   47.1926 H   0  0  0  0  0  0  0  0  0  0  0  0
   56.6720   27.1842   45.5813 H   0  0  0  0  0  0  0  0  0  0  0  0
   57.7832   30.1737   46.5511 H   0  0  0  0  0  0  0  0  0  0  0  0
   59.7244   31.2256   47.7074 H   0  0  0  0  0  0  0  0  0  0  0  0
  1  2  1  0
  2  3  1  0
  2  4  2  3
  4  5  1  0
  5  6  2  0
  5  7  2  0
  5  8  1  0
  8  9  2  0
  9 10  1  0
 10 11  2  0
 11 12  1  0
 12 13  1  0
 13 14  2  0
 13 15  1  0
 15 16  1  0
 16 17  2  0
 17 18  1  0
 18 19  2  0
 19 20  1  0
 20 21  2  0
 11 22  1  0
 22 23  2  0
 23  8  1  0
 21 16  1  0
  1 24  1  0
  1 25  1  0
  3 26  1  0
  3 27  1  0
  4 28  1  0
  9 29  1  0
 10 30  1  0
 15 31  1  0
 15 32  1  0
 17 33  1  0
 18 34  1  0
 19 35  1  0
 20 36  1  0
 21 37  1  0
 22 38  1  0
 23 39  1  0
M  CHG  2   4   1  12  -1
M  END
>  <UniqueID>  (32) 
28

>  <SMILES>  (32) 
NC(N)=[NH+]S(=O)(=O)c1ccc([N-]C(=O)Cc2ccccc2)cc1

>  <Energy>  (32) 
41.825419474492705

>  <Genealogy>  (32) 
NC(N)=[NH+]S(=O)(=O)c1ccc([N-]C(=O)Cc2ccccc2)cc1 (protonated)
NC(N)=[NH+]S(=O)(=O)c1ccc([N-]C(=O)Cc2ccccc2)cc1 (3D coordinates assigned)
NC(N)=[NH+]S(=O)(=O)c1ccc([N-]C(=O)Cc2ccccc2)cc1 (optimized conformer: 41.825419474492705 kcal/mol)

>  <smiles>  (32) 
NC(N)=NS(=O)(=O)c1ccc(NC(=O)Cc2ccccc2)cc1

>  <score_type>  (32) 
oracle

>  <origin>  (32) 
adg

>  <m_score__min__energy>  (32) 
-8.4399999999999995

>  <m_primary>  (32) 
energy

$$$$
32:0
     RDKit          3D

 57 60  0  0  0  0  0  0  0  0999 V2000
   61.6860   29.3640   51.5200 C   0  0  0  0  0  0  0  0  0  0  0  0
   60.7220   29.3550   50.3670 C   0  0  0  0  0  0  0  0  0  0  0  0
   60.8210   28.3710   49.3700 C   0  0  0  0  0  0  0  0  0  0  0  0
   59.9160   28.3460   48.2970 C   0  0  0  0  0  0  0  0  0  0  0  0
   59.9840   27.2450   47.2720 C   0  0  0  0  0  0  0  0  0  0  0  0
   59.7100   27.7610   45.8490 C   0  0  0  0  0  0  0  0  0  0  0  0
   58.2450   28.1320   45.6400 C   0  0  0  0  0  0  0  0  0  0  0  0
   57.2280   27.1990   45.9730 C   0  0  0  0  0  0  0  0  0  0  0  0
   57.5230   25.9560   46.6510 C   0  0  0  0  0  0  0  0  0  0  0  0
   57.7560   24.9610   47.1940 N   0  0  0  0  0  0  0  0  0  0  0  0
   55.9000   27.4720   45.6310 C   0  0  0  0  0  0  0  0  0  0  0  0
   54.8880   26.5690   45.9410 O   0  0  0  0  0  0  0  0  0  0  0  0
   55.5860   28.6160   44.9810 N   0  0  0  0  0  0  0  0  0  0  0  0
   56.5160   29.5480   44.6630 C   0  0  0  0  0  0  0  0  0  0  0  0
   56.1460   30.5800   44.0400 O   0  0  0  0  0  0  0  0  0  0  0  0
   57.8710   29.3620   45.0210 C   0  0  0  0  0  0  0  0  0  0  0  0
   58.8780   30.4720   44.7320 C   0  0  0  0  0  0  0  0  0  0  0  0
   58.6740   31.7180   45.5750 C   0  0  0  0  0  0  0  0  0  0  0  0
   57.4770   32.4460   45.4280 C   0  0  0  0  0  0  0  0  0  0  0  0
   57.2420   33.5950   46.1850 C   0  0  0  0  0  0  0  0  0  0  0  0
   58.1870   34.0260   47.1150 C   0  0  0  0  0  0  0  0  0  0  0  0
   59.3650   33.3010   47.2990 C   0  0  0  0  0  0  0  0  0  0  0  0
   59.6090   32.1410   46.5510 C   0  0  0  0  0  0  0  0  0  0  0  0
   60.8110   31.4060   46.8030 N   0  0  0  0  0  0  0  0  0  0  0  0
   61.9640   31.9830   47.4420 C   0  0  0  0  0  0  0  0  0  0  0  0
   62.5030   31.4380   48.6240 C   0  0  0  0  0  0  0  0  0  0  0  0
   63.6350   32.0120   49.2120 C   0  0  0  0  0  0  0  0  0  0  0  0
   64.2370   33.1300   48.6310 C   0  0  0  0  0  0  0  0  0  0  0  0
   63.7090   33.6770   47.4590 C   0  0  0  0  0  0  0  0  0  0  0  0
   62.5770   33.1080   46.8670 C   0  0  0  0  0  0  0  0  0  0  0  0
   58.9090   29.3200   48.2230 C   0  0  0  0  0  0  0  0  0  0  0  0
   58.8140   30.3100   49.2040 C   0  0  0  0  0  0  0  0  0  0  0  0
   59.7150   30.3320   50.2770 C   0  0  0  0  0  0  0  0  0  0  0  0
   59.6090   31.3200   51.2560 O   0  0  0  0  0  0  0  0  0  0  0  0
   61.1256   29.3588   52.4665 H   0  0  0  0  0  0  0  0  0  0  0  0
   62.3274   28.4718   51.4687 H   0  0  0  0  0  0  0  0  0  0  0  0
   62.3106   30.2680   51.4687 H   0  0  0  0  0  0  0  0  0  0  0  0
   61.6153   27.6125   49.4303 H   0  0  0  0  0  0  0  0  0  0  0  0
   60.9880   26.7965   47.2994 H   0  0  0  0  0  0  0  0  0  0  0  0
   59.2090   26.5044   47.5187 H   0  0  0  0  0  0  0  0  0  0  0  0
   60.3296   28.6522   45.6704 H   0  0  0  0  0  0  0  0  0  0  0  0
   59.9564   26.9528   45.1446 H   0  0  0  0  0  0  0  0  0  0  0  0
   59.8884   30.0831   44.9265 H   0  0  0  0  0  0  0  0  0  0  0  0
   58.7362   30.7683   43.6822 H   0  0  0  0  0  0  0  0  0  0  0  0
   56.7184   32.1050   44.7081 H   0  0  0  0  0  0  0  0  0  0  0  0
   56.3092   34.1616   46.0475 H   0  0  0  0  0  0  0  0  0  0  0  0
   58.0041   34.9372   47.7035 H   0  0  0  0  0  0  0  0  0  0  0  0
   60.1070   33.6421   48.0359 H   0  0  0  0  0  0  0  0  0  0  0  0
   60.8840   30.4510   46.3860 H   0  0  0  0  0  0  0  0  0  0  0  0
   62.0320   30.5579   49.0862 H   0  0  0  0  0  0  0  0  0  0  0  0
   64.0520   31.5816   50.1344 H   0  0  0  0  0  0  0  0  0  0  0  0
   65.1266   33.5798   49.0960 H   0  0  0  0  0  0  0  0  0  0  0  0
   64.1845   34.5568   47.0010 H   0  0  0  0  0  0  0  0  0  0  0  0
   62.1643   33.5443   45.9454 H   0  0  0  0  0  0  0  0  0  0  0  0
   58.1915   29.3041   47.3894 H   0  0  0  0  0  0  0  0  0  0  0  0
   58.0279   31.0762   49.1338 H   0  0  0  0  0  0  0  0  0  0  0  0
   60.4220   31.6620   51.7550 H   0  0  0  0  0  0  0  0  0  0  0  0
  1  2  1  0
  2  3  2  0
  3  4  1  0
  4  5  1  0
  5  6  1  0
  6  7  1  0
  7  8  1  0
  8  9  1  0
  9 10  3  0
  8 11  2  0
 11 12  1  0
 11 13  1  0
 13 14  1  0
 14 15  2  0
 14 16  1  0
 16 17  1  0
 17 18  1  0
 18 19  2  0
 19 20  1  0
 20 21  2  0
 21 22  1  0
 22 23  2  0
 23 24  1  0
 24 25  1  0
 25 26  2  0
 26 27  1  0
 27 28  2  0
 28 29  1  0
 29 30  2  0
  4 31  2  0
 31 32  1  0
 32 33  2  0
 33 34  1  0
 33  2  1  0
 16  7  2  0
 23 18  1  0
 30 25  1  0
  1 35  1  0
  1 36  1  0
  1 37  1  0
  3 38  1  0
  5 39  1  0
  5 40  1  0
  6 41  1  0
  6 42  1  0
 17 43  1  0
 17 44  1  0
 19 45  1  0
 20 46  1  0
 21 47  1  0
 22 48  1  0
 24 49  1  0
 26 50  1  0
 27 51  1  0
 28 52  1  0
 29 53  1  0
 30 54  1  0
 31 55  1  0
 32 56  1  0
 34 57  1  0
M  CHG  2  12  -1  13  -1
M  END
>  <UniqueID>  (33) 
29

>  <SMILES>  (33) 
Cc1cc(CCc2c(C#N)c([O-])[n-]c(=O)c2Cc2ccccc2Nc2ccccc2)ccc1O

>  <Energy>  (33) 
71.49560441933723

>  <Genealogy>  (33) 
Cc1cc(CCc2c(C#N)c([O-])[n-]c(=O)c2Cc2ccccc2Nc2ccccc2)ccc1O (protonated)
Cc1cc(CCc2c(C#N)c([O-])[n-]c(=O)c2Cc2ccccc2Nc2ccccc2)ccc1O (3D coordinates assigned)
Cc1cc(CCc2c(C#N)c([O-])[n-]c(=O)c2Cc2ccccc2Nc2ccccc2)ccc1O (optimized conformer: 71.49560441933723 kcal/mol)

>  <smiles>  (33) 
Cc1cc(CCc2c(C#N)c(O)[nH]c(=O)c2Cc2ccccc2Nc2ccccc2)ccc1O

>  <score_type>  (33) 
oracle

>  <origin>  (33) 
adg

>  <m_score__min__energy>  (33) 
-15.02

>  <m_primary>  (33) 
energy

$$$$
33:0
     RDKit          3D

 69 72  0  0  0  0  0  0  0  0999 V2000
   60.0210   28.6410   44.8450 C   0  0  0  0  0  0  0  0  0  0  0  0
   61.0020   29.1550   45.7400 O   0  0  0  0  0  0  0  0  0  0  0  0
   60.7180   29.9780   46.8420 C   0  0  0  0  0  0  0  0  0  0  0  0
   60.6990   31.3780   46.7380 C   0  0  0  0  0  0  0  0  0  0  0  0
   60.4750   32.1660   47.8700 C   0  0  0  0  0  0  0  0  0  0  0  0
   60.6470   33.9200   47.7900 S   0  0  0  0  0  0  0  0  0  0  0  0
   59.5020   34.5310   48.5490 O   0  0  0  0  0  0  0  0  0  0  0  0
   60.5620   34.3640   46.3570 O   0  0  0  0  0  0  0  0  0  0  0  0
   62.1730   34.4340   48.5040 N   0  0  0  0  0  0  0  0  0  0  0  0
   62.1320   34.3490   49.9910 C   0  0  0  0  0  0  0  0  0  0  0  0
   63.3850   33.7240   50.6150 C   0  0  0  0  0  0  0  0  0  0  0  0
   63.6830   32.4690   49.9260 N   0  0  0  0  0  0  0  0  0  0  0  0
   64.1620   31.3420   50.6730 C   0  0  0  0  0  0  0  0  0  0  0  0
   63.2660   30.3100   50.9870 C   0  0  0  0  0  0  0  0  0  0  0  0
   63.7030   29.1720   51.6650 C   0  0  0  0  0  0  0  0  0  0  0  0
   65.0430   29.0510   52.0340 C   0  0  0  0  0  0  0  0  0  0  0  0
   65.4690   27.9380   52.6780 F   0  0  0  0  0  0  0  0  0  0  0  0
   65.9480   30.0710   51.7310 C   0  0  0  0  0  0  0  0  0  0  0  0
   65.5220   31.2390   51.0670 C   0  0  0  0  0  0  0  0  0  0  0  0
   66.5270   32.3270   50.7440 C   0  0  0  0  0  0  0  0  0  0  0  0
   66.2770   33.4340   51.5310 F   0  0  0  0  0  0  0  0  0  0  0  0
   67.8120   31.8810   50.9770 F   0  0  0  0  0  0  0  0  0  0  0  0
   66.4490   32.7070   49.4160 F   0  0  0  0  0  0  0  0  0  0  0  0
   63.7170   32.4420   48.4600 C   0  0  0  0  0  0  0  0  0  0  0  0
   63.3890   33.8360   47.8830 C   0  0  1  0  0  0  0  0  0  0  0  0
   63.3660   33.8230   46.3470 C   0  0  0  0  0  0  0  0  0  0  0  0
   60.2280   31.5410   49.0940 C   0  0  0  0  0  0  0  0  0  0  0  0
   60.2290   30.1830   49.1840 N   0  0  0  0  0  0  0  0  0  0  0  0
   60.4740   29.3910   48.0990 C   0  0  0  0  0  0  0  0  0  0  0  0
   60.6260   27.9030   48.2800 C   0  0  0  0  0  0  0  0  0  0  0  0
   60.0400   27.5140   49.5570 N   0  0  0  0  0  0  0  0  0  0  0  0
   60.7740   27.5200   50.7860 C   0  0  0  0  0  0  0  0  0  0  0  0
   61.8690   26.9030   50.8780 O   0  0  0  0  0  0  0  0  0  0  0  0
   60.2150   28.2160   51.9800 C   0  0  0  0  0  0  0  0  0  0  0  0
   60.2250   29.6200   51.7380 O   0  0  0  0  0  0  0  0  0  0  0  0
   59.1310   30.4750   51.9390 C   0  0  0  0  0  0  0  0  0  0  0  0
   59.3860   31.8270   52.1990 C   0  0  0  0  0  0  0  0  0  0  0  0
   58.3320   32.7170   52.4230 C   0  0  0  0  0  0  0  0  0  0  0  0
   57.0120   32.2650   52.3750 C   0  0  0  0  0  0  0  0  0  0  0  0
   56.7450   30.9190   52.1060 C   0  0  0  0  0  0  0  0  0  0  0  0
   57.7990   30.0250   51.8850 C   0  0  0  0  0  0  0  0  0  0  0  0
   59.1910   28.2061   45.4212 H   0  0  0  0  0  0  0  0  0  0  0  0
   59.6403   29.4555   44.2112 H   0  0  0  0  0  0  0  0  0  0  0  0
   60.4739   27.8644   44.2112 H   0  0  0  0  0  0  0  0  0  0  0  0
   60.8612   31.8567   45.7610 H   0  0  0  0  0  0  0  0  0  0  0  0
   62.0165   35.3666   50.3925 H   0  0  0  0  0  0  0  0  0  0  0  0
   61.2873   33.6933   50.2489 H   0  0  0  0  0  0  0  0  0  0  0  0
   64.2344   34.4146   50.5077 H   0  0  0  0  0  0  0  0  0  0  0  0
   63.2113   33.5297   51.6837 H   0  0  0  0  0  0  0  0  0  0  0  0
   62.2089   30.3987   50.6960 H   0  0  0  0  0  0  0  0  0  0  0  0
   62.9909   28.3698   51.9088 H   0  0  0  0  0  0  0  0  0  0  0  0
   67.0053   29.9614   52.0139 H   0  0  0  0  0  0  0  0  0  0  0  0
   64.7210   32.1401   48.1272 H   0  0  0  0  0  0  0  0  0  0  0  0
   62.9651   31.7238   48.1010 H   0  0  0  0  0  0  0  0  0  0  0  0
   64.2099   34.5133   48.1612 H   0  0  0  0  0  0  0  0  0  0  0  0
   62.4577   33.3097   45.9982 H   0  0  0  0  0  0  0  0  0  0  0  0
   63.3700   34.8569   45.9715 H   0  0  0  0  0  0  0  0  0  0  0  0
   64.2538   33.2930   45.9715 H   0  0  0  0  0  0  0  0  0  0  0  0
   60.0317   32.1490   49.9895 H   0  0  0  0  0  0  0  0  0  0  0  0
   60.0690   29.7510   50.1210 H   0  0  0  0  0  0  0  0  0  0  0  0
   60.1095   27.3781   47.4629 H   0  0  0  0  0  0  0  0  0  0  0  0
   61.6929   27.6357   48.2658 H   0  0  0  0  0  0  0  0  0  0  0  0
   59.1830   27.8782   52.1556 H   0  0  0  0  0  0  0  0  0  0  0  0
   60.8232   27.9847   52.8669 H   0  0  0  0  0  0  0  0  0  0  0  0
   60.4235   32.1913   52.2272 H   0  0  0  0  0  0  0  0  0  0  0  0
   58.5428   33.7751   52.6374 H   0  0  0  0  0  0  0  0  0  0  0  0
   56.1830   32.9668   52.5486 H   0  0  0  0  0  0  0  0  0  0  0  0
   55.7051   30.5623   52.0680 H   0  0  0  0  0  0  0  0  0  0  0  0
   57.5854   28.9679   51.6685 H   0  0  0  0  0  0  0  0  0  0  0  0
  1  2  1  0
  2  3  1  0
  3  4  2  0
  4  5  1  0
  5  6  1  0
  6  7  2  0
  6  8  2  0
  6  9  1  0
  9 10  1  0
 10 11  1  0
 11 12  1  0
 12 13  1  0
 13 14  2  0
 14 15  1  0
 15 16  2  0
 16 17  1  0
 16 18  1  0
 18 19  2  0
 19 20  1  0
 20 21  1  0
 20 22  1  0
 20 23  1  0
 12 24  1  0
 24 25  1  0
 25 26  1  0
  5 27  2  0
 27 28  1  0
 28 29  2  0
 29 30  1  0
 30 31  1  0
 31 32  1  0
 32 33  2  0
 32 34  1  0
 34 35  1  0
 35 36  1  0
 36 37  2  0
 37 38  1  0
 38 39  2  0
 39 40  1  0
 40 41  2  0
 29  3  1  0
 41 36  1  0
 25  9  1  0
 19 13  1  0
  1 42  1  0
  1 43  1  0
  1 44  1  0
  4 45  1  0
 10 46  1  0
 10 47  1  0
 11 48  1  0
 11 49  1  0
 14 50  1  0
 15 51  1  0
 18 52  1  0
 24 53  1  0
 24 54  1  0
 25 55  1  6
 26 56  1  0
 26 57  1  0
 26 58  1  0
 27 59  1  0
 28 60  1  0
 30 61  1  0
 30 62  1  0
 34 63  1  0
 34 64  1  0
 37 65  1  0
 38 66  1  0
 39 67  1  0
 40 68  1  0
 41 69  1  0
M  CHG  2  28   1  31  -1
M  END
>  <UniqueID>  (34) 
30

>  <SMILES>  (34) 
COc1cc(S(=O)(=O)N2CCN(c3ccc(F)cc3C(F)(F)F)C[C@H]2C)c[nH+]c1C[N-]C(=O)COc1ccccc1

>  <Energy>  (34) 
82.80338564065643

>  <Genealogy>  (34) 
COc1cc(S(=O)(=O)N2CCN(c3ccc(F)cc3C(F)(F)F)CC2C)c[nH+]c1C[N-]C(=O)COc1ccccc1 (protonated)
COc1cc(S(=O)(=O)N2CCN(c3ccc(F)cc3C(F)(F)F)C[C@H]2C)c[nH+]c1C[N-]C(=O)COc1ccccc1 (chirality)
COc1cc(S(=O)(=O)N2CCN(c3ccc(F)cc3C(F)(F)F)C[C@H]2C)c[nH+]c1C[N-]C(=O)COc1ccccc1 (3D coordinates assigned)
COc1cc(S(=O)(=O)N2CCN(c3ccc(F)cc3C(F)(F)F)C[C@H]2C)c[nH+]c1C[N-]C(=O)COc1ccccc1 (nonaromatic ring conformer: 82.80338564065643 kcal/mol)

>  <smiles>  (34) 
COc1cc(S(=O)(=O)N2CCN(c3ccc(F)cc3C(F)(F)F)CC2C)cnc1CNC(=O)COc1ccccc1

>  <score_type>  (34) 
oracle

>  <origin>  (34) 
adg

>  <m_score__min__energy>  (34) 
-8.2100000000000009

>  <m_primary>  (34) 
energy

$$$$
34:0
     RDKit          3D

 52 55  0  0  0  0  0  0  0  0999 V2000
   57.7750   31.4660   43.2920 C   0  0  0  0  0  0  0  0  0  0  0  0
   57.2380   30.8610   44.5880 C   0  0  0  0  0  0  0  0  0  0  0  0
   57.8230   29.4860   44.8230 C   0  0  0  0  0  0  0  0  0  0  0  0
   57.7220   28.5130   43.8120 C   0  0  0  0  0  0  0  0  0  0  0  0
   58.1960   27.2190   44.0280 C   0  0  0  0  0  0  0  0  0  0  0  0
   58.7500   26.8720   45.2620 C   0  0  0  0  0  0  0  0  0  0  0  0
   58.8450   27.8230   46.2810 C   0  0  0  0  0  0  0  0  0  0  0  0
   58.4050   29.1440   46.0650 C   0  0  0  0  0  0  0  0  0  0  0  0
   58.4640   30.1330   47.1060 N   0  0  0  0  0  0  0  0  0  0  0  0
   59.5610   30.4130   47.9850 C   0  0  0  0  0  0  0  0  0  0  0  0
   60.7440   30.1750   47.6330 O   0  0  0  0  0  0  0  0  0  0  0  0
   59.3010   30.9940   49.3380 C   0  0  0  0  0  0  0  0  0  0  0  0
   59.4020   32.4170   49.3110 O   0  0  0  0  0  0  0  0  0  0  0  0
   59.7350   33.1750   48.1790 C   0  0  0  0  0  0  0  0  0  0  0  0
   61.0210   33.6100   47.8710 C   0  0  0  0  0  0  0  0  0  0  0  0
   62.2610   33.4070   48.6620 C   0  0  0  0  0  0  0  0  0  0  0  0
   62.4400   34.0990   49.8720 C   0  0  0  0  0  0  0  0  0  0  0  0
   63.5980   33.9170   50.6310 C   0  0  0  0  0  0  0  0  0  0  0  0
   64.6030   33.0460   50.1920 C   0  0  0  0  0  0  0  0  0  0  0  0
   65.8390   32.8350   51.0200 C   0  0  0  0  0  0  0  0  0  0  0  0
   64.4220   32.3360   48.9970 C   0  0  0  0  0  0  0  0  0  0  0  0
   63.2630   32.5150   48.2370 C   0  0  0  0  0  0  0  0  0  0  0  0
   60.9740   34.2740   46.6930 N   0  0  0  0  0  0  0  0  0  0  0  0
   59.6870   34.2200   46.3060 C   0  0  0  0  0  0  0  0  0  0  0  0
   59.1760   34.7380   45.1180 C   0  0  0  0  0  0  0  0  0  0  0  0
   57.8120   34.5430   44.8550 C   0  0  0  0  0  0  0  0  0  0  0  0
   57.0140   33.8320   45.7640 C   0  0  0  0  0  0  0  0  0  0  0  0
   57.5820   33.3320   46.9450 C   0  0  0  0  0  0  0  0  0  0  0  0
   58.9030   33.5620   47.1810 N   0  0  0  0  0  0  0  0  0  0  0  0
   58.4879   32.2692   43.5301 H   0  0  0  0  0  0  0  0  0  0  0  0
   58.2836   30.6860   42.7064 H   0  0  0  0  0  0  0  0  0  0  0  0
   56.9402   31.8784   42.7064 H   0  0  0  0  0  0  0  0  0  0  0  0
   57.5069   31.5158   45.4300 H   0  0  0  0  0  0  0  0  0  0  0  0
   56.1448   30.7695   44.5074 H   0  0  0  0  0  0  0  0  0  0  0  0
   57.2665   28.7742   42.8454 H   0  0  0  0  0  0  0  0  0  0  0  0
   58.1333   26.4703   43.2246 H   0  0  0  0  0  0  0  0  0  0  0  0
   59.1124   25.8475   45.4321 H   0  0  0  0  0  0  0  0  0  0  0  0
   59.2655   27.5390   47.2570 H   0  0  0  0  0  0  0  0  0  0  0  0
   58.2887   30.7112   49.6625 H   0  0  0  0  0  0  0  0  0  0  0  0
   60.0534   30.6023   50.0383 H   0  0  0  0  0  0  0  0  0  0  0  0
   61.6606   34.7905   50.2246 H   0  0  0  0  0  0  0  0  0  0  0  0
   63.7215   34.4609   51.5791 H   0  0  0  0  0  0  0  0  0  0  0  0
   65.5773   32.8797   52.0875 H   0  0  0  0  0  0  0  0  0  0  0  0
   66.2711   31.8501   50.7893 H   0  0  0  0  0  0  0  0  0  0  0  0
   66.5734   33.6208   50.7893 H   0  0  0  0  0  0  0  0  0  0  0  0
   65.1968   31.6338   48.6555 H   0  0  0  0  0  0  0  0  0  0  0  0
   63.1330   31.9544   47.2995 H   0  0  0  0  0  0  0  0  0  0  0  0
   61.7640   34.7360   46.1840 H   0  0  0  0  0  0  0  0  0  0  0  0
   59.8199   35.2812   44.4106 H   0  0  0  0  0  0  0  0  0  0  0  0
   57.3671   34.9483   43.9342 H   0  0  0  0  0  0  0  0  0  0  0  0
   55.9474   33.6674   45.5514 H   0  0  0  0  0  0  0  0  0  0  0  0
   56.9730   32.7660   47.6653 H   0  0  0  0  0  0  0  0  0  0  0  0
  1  2  1  0
  2  3  1  0
  3  4  2  0
  4  5  1  0
  5  6  2  0
  6  7  1  0
  7  8  2  0
  8  9  1  0
  9 10  1  0
 10 11  2  0
 10 12  1  0
 12 13  1  0
 13 14  1  0
 14 15  2  0
 15 16  1  0
 16 17  2  0
 17 18  1  0
 18 19  2  0
 19 20  1  0
 19 21  1  0
 21 22  2  0
 15 23  1  0
 23 24  2  0
 24 25  1  0
 25 26  2  0
 26 27  1  0
 27 28  2  0
 28 29  1  0
  8  3  1  0
 29 14  1  0
 22 16  1  0
 29 24  1  0
  1 30  1  0
  1 31  1  0
  1 32  1  0
  2 33  1  0
  2 34  1  0
  4 35  1  0
  5 36  1  0
  6 37  1  0
  7 38  1  0
 12 39  1  0
 12 40  1  0
 17 41  1  0
 18 42  1  0
 20 43  1  0
 20 44  1  0
 20 45  1  0
 21 46  1  0
 22 47  1  0
 23 48  1  0
 25 49  1  0
 26 50  1  0
 27 51  1  0
 28 52  1  0
M  CHG  2   9  -1  23   1
M  END
>  <UniqueID>  (35) 
31

>  <SMILES>  (35) 
CCc1ccccc1[N-]C(=O)COc1c(-c2ccc(C)cc2)[nH+]c2ccccn12

>  <Energy>  (35) 
100.34426193714773

>  <Genealogy>  (35) 
CCc1ccccc1[N-]C(=O)COc1c(-c2ccc(C)cc2)[nH+]c2ccccn12 (protonated)
CCc1ccccc1[N-]C(=O)COc1c(-c2ccc(C)cc2)[nH+]c2ccccn12 (3D coordinates assigned)
CCc1ccccc1[N-]C(=O)COc1c(-c2ccc(C)cc2)[nH+]c2ccccn12 (optimized conformer: 100.34426193714773 kcal/mol)

>  <smiles>  (35) 
CCc1ccccc1NC(=O)COc1c(-c2ccc(C)cc2)nc2ccccn12

>  <score_type>  (35) 
oracle

>  <origin>  (35) 
adg

>  <m_score__min__energy>  (35) 
-7.5599999999999996

>  <m_primary>  (35) 
energy

$$$$
35:0
     RDKit          3D

 44 46  0  0  0  0  0  0  0  0999 V2000
   59.0510   33.7710   48.7320 H   0  0  0  0  0  0  0  0  0  0  0  0
   59.2660   33.3040   49.5820 O   0  0  0  0  0  0  0  0  0  0  0  0
   60.5140   33.7940   49.9900 C   0  0  0  0  0  0  0  0  0  0  0  0
   60.8665   33.2171   50.8577 H   0  0  0  0  0  0  0  0  0  0  0  0
   60.4147   34.8546   50.2643 H   0  0  0  0  0  0  0  0  0  0  0  0
   61.5110   33.6630   48.8630 C   0  0  0  0  0  0  0  0  0  0  0  0
   62.7480   33.0400   49.1120 C   0  0  0  0  0  0  0  0  0  0  0  0
   62.9941   32.7044   50.1302 H   0  0  0  0  0  0  0  0  0  0  0  0
   63.6660   32.8440   48.0780 C   0  0  0  0  0  0  0  0  0  0  0  0
   64.6331   32.3632   48.2868 H   0  0  0  0  0  0  0  0  0  0  0  0
   63.3600   33.2560   46.7820 C   0  0  0  0  0  0  0  0  0  0  0  0
   64.0790   33.0864   45.9670 H   0  0  0  0  0  0  0  0  0  0  0  0
   62.1410   33.8840   46.5180 C   0  0  0  0  0  0  0  0  0  0  0  0
   61.8998   34.1968   45.4914 H   0  0  0  0  0  0  0  0  0  0  0  0
   61.2230   34.1190   47.5490 C   0  0  0  0  0  0  0  0  0  0  0  0
   59.9860   34.7650   47.2230 N   0  0  0  0  0  0  0  0  0  0  0  0
   59.3780   34.6070   46.0870 C   0  0  0  0  0  0  0  0  0  0  0  0
   59.3028   35.4558   45.3914 H   0  0  0  0  0  0  0  0  0  0  0  0
   58.7860   33.3080   45.7130 C   0  0  0  0  0  0  0  0  0  0  0  0
   59.2180   32.1080   46.3050 C   0  0  0  0  0  0  0  0  0  0  0  0
   60.0197   32.1267   47.0579 H   0  0  0  0  0  0  0  0  0  0  0  0
   58.6330   30.8900   45.9410 C   0  0  0  0  0  0  0  0  0  0  0  0
   58.9789   29.9566   46.4090 H   0  0  0  0  0  0  0  0  0  0  0  0
   57.6080   30.8510   44.9830 C   0  0  0  0  0  0  0  0  0  0  0  0
   57.0010   29.5540   44.6230 C   0  0  0  0  0  0  0  0  0  0  0  0
   56.6395   29.3903   43.5971 H   0  0  0  0  0  0  0  0  0  0  0  0
   56.8880   28.6030   45.5020 N   0  0  0  0  0  0  0  0  0  0  0  0
   57.8830   27.6080   45.8100 C   0  0  0  0  0  0  0  0  0  0  0  0
   59.2590   27.8930   45.6760 C   0  0  0  0  0  0  0  0  0  0  0  0
   59.5776   28.8836   45.3193 H   0  0  0  0  0  0  0  0  0  0  0  0
   60.2180   26.9320   45.9910 C   0  0  0  0  0  0  0  0  0  0  0  0
   61.2872   27.1706   45.8917 H   0  0  0  0  0  0  0  0  0  0  0  0
   59.8260   25.6710   46.4310 C   0  0  0  0  0  0  0  0  0  0  0  0
   60.5861   24.9190   46.6893 H   0  0  0  0  0  0  0  0  0  0  0  0
   58.4720   25.3590   46.5450 C   0  0  0  0  0  0  0  0  0  0  0  0
   58.1726   24.3566   46.8850 H   0  0  0  0  0  0  0  0  0  0  0  0
   57.4810   26.3120   46.2300 C   0  0  0  0  0  0  0  0  0  0  0  0
   56.0480   25.9280   46.3620 C   0  0  0  0  0  0  0  0  0  0  0  0
   55.1410   26.7280   46.0050 O   0  0  0  0  0  0  0  0  0  0  0  0
   55.6750   24.6950   46.8850 O   0  0  0  0  0  0  0  0  0  0  0  0
   57.1800   32.0530   44.3900 C   0  0  0  0  0  0  0  0  0  0  0  0
   56.3803   32.0355   43.6349 H   0  0  0  0  0  0  0  0  0  0  0  0
   57.7640   33.2680   44.7540 C   0  0  0  0  0  0  0  0  0  0  0  0
   57.4195   34.2013   44.2846 H   0  0  0  0  0  0  0  0  0  0  0  0
  1  2  1  0
  2  3  1  0
  3  4  1  0
  3  5  1  0
  3  6  1  0
  6  7  2  0
  7  8  1  0
  7  9  1  0
  9 10  1  0
  9 11  2  0
 11 12  1  0
 11 13  1  0
 13 14  1  0
 13 15  2  0
 15 16  1  0
 16 17  2  0
 17 18  1  0
 17 19  1  0
 19 20  2  0
 20 21  1  0
 20 22  1  0
 22 23  1  0
 22 24  2  0
 24 25  1  0
 25 26  1  0
 25 27  2  0
 27 28  1  0
 28 29  2  0
 29 30  1  0
 29 31  1  0
 31 32  1  0
 31 33  2  0
 33 34  1  0
 33 35  1  0
 35 36  1  0
 35 37  2  0
 37 38  1  0
 38 39  2  0
 38 40  1  0
 24 41  1  0
 41 42  1  0
 41 43  2  0
 43 44  1  0
 15  6  1  0
 43 19  1  0
 37 28  1  0
M  CHG  1  40  -1
M  END
>  <UniqueID>  (36) 
32

>  <SMILES>  (36) 
O=C([O-])c1ccccc1/N=C/c1ccc(/C=N/c2ccccc2CO)cc1

>  <Energy>  (36) 
60.11069309050454

>  <Genealogy>  (36) 
O=C([O-])c1ccccc1N=Cc1ccc(C=Nc2ccccc2CO)cc1 (protonated)
O=C([O-])c1ccccc1/N=C/c1ccc(/C=N/c2ccccc2CO)cc1 (cis-trans isomerization)
O=C([O-])c1ccccc1/N=C/c1ccc(/C=N/c2ccccc2CO)cc1 (3D coordinates assigned)
O=C([O-])c1ccccc1/N=C/c1ccc(/C=N/c2ccccc2CO)cc1 (optimized conformer: 60.11069309050454 kcal/mol)

>  <smiles>  (36) 
O=C(O)c1ccccc1N=Cc1ccc(C=Nc2ccccc2CO)cc1

>  <score_type>  (36) 
oracle

>  <origin>  (36) 
adg

>  <m_score__min__energy>  (36) 
-12.359999999999999

>  <m_primary>  (36) 
energy

$$$$
36:0
     RDKit          3D

 41 44  0  0  0  0  0  0  0  0999 V2000
   59.0330   34.2170   45.1480 C   0  0  0  0  0  0  0  0  0  0  0  0
   58.3030   33.4650   46.2540 C   0  0  0  0  0  0  0  0  0  0  0  0
   58.2940   32.0320   45.9720 N   0  0  0  0  0  0  0  0  0  0  0  0
   59.2260   31.0510   46.5490 C   0  0  0  0  0  0  0  0  0  0  0  0
   58.6950   29.7470   46.0270 C   0  0  0  0  0  0  0  0  0  0  0  0
   57.5880   29.9250   45.2670 C   0  0  0  0  0  0  0  0  0  0  0  0
   56.8110   28.8010   45.3970 C   0  0  0  0  0  0  0  0  0  0  0  0
   55.5370   28.6360   44.8650 O   0  0  0  0  0  0  0  0  0  0  0  0
   57.4480   27.8920   46.1760 N   0  0  0  0  0  0  0  0  0  0  0  0
   56.9730   26.5740   46.5030 C   0  0  0  0  0  0  0  0  0  0  0  0
   55.8970   26.0060   45.8000 C   0  0  0  0  0  0  0  0  0  0  0  0
   55.4340   24.7290   46.1310 C   0  0  0  0  0  0  0  0  0  0  0  0
   56.0420   24.0090   47.1640 C   0  0  0  0  0  0  0  0  0  0  0  0
   57.1130   24.5660   47.8680 C   0  0  0  0  0  0  0  0  0  0  0  0
   57.5780   25.8430   47.5390 C   0  0  0  0  0  0  0  0  0  0  0  0
   58.5950   28.4910   46.6090 C   0  0  0  0  0  0  0  0  0  0  0  0
   59.4670   28.0050   47.7020 C   0  0  0  0  0  0  0  0  0  0  0  0
   59.4090   28.6180   48.9650 C   0  0  0  0  0  0  0  0  0  0  0  0
   60.2190   28.1610   50.0090 C   0  0  0  0  0  0  0  0  0  0  0  0
   61.0850   27.0830   49.8050 C   0  0  0  0  0  0  0  0  0  0  0  0
   61.8890   26.6310   50.8440 O   0  0  0  0  0  0  0  0  0  0  0  0
   61.1360   26.4560   48.5560 C   0  0  0  0  0  0  0  0  0  0  0  0
   60.3270   26.9090   47.5100 C   0  0  0  0  0  0  0  0  0  0  0  0
   57.2840   31.3300   45.2440 C   0  0  0  0  0  0  0  0  0  0  0  0
   56.2540   31.8600   44.7510 O   0  0  0  0  0  0  0  0  0  0  0  0
   59.7330   34.9381   45.5952 H   0  0  0  0  0  0  0  0  0  0  0  0
   59.5909   33.5023   44.5252 H   0  0  0  0  0  0  0  0  0  0  0  0
   58.3021   34.7535   44.5252 H   0  0  0  0  0  0  0  0  0  0  0  0
   58.8135   33.6431   47.2120 H   0  0  0  0  0  0  0  0  0  0  0  0
   57.2652   33.8257   46.3073 H   0  0  0  0  0  0  0  0  0  0  0  0
   60.2545   31.2284   46.2014 H   0  0  0  0  0  0  0  0  0  0  0  0
   59.2803   31.0928   47.6469 H   0  0  0  0  0  0  0  0  0  0  0  0
   55.4169   26.5685   44.9857 H   0  0  0  0  0  0  0  0  0  0  0  0
   54.5904   24.2901   45.5781 H   0  0  0  0  0  0  0  0  0  0  0  0
   55.6772   23.0040   47.4225 H   0  0  0  0  0  0  0  0  0  0  0  0
   57.5904   23.9997   48.6812 H   0  0  0  0  0  0  0  0  0  0  0  0
   58.4222   26.2776   48.0944 H   0  0  0  0  0  0  0  0  0  0  0  0
   58.7231   29.4614   49.1332 H   0  0  0  0  0  0  0  0  0  0  0  0
   60.1746   28.6508   50.9929 H   0  0  0  0  0  0  0  0  0  0  0  0
   61.8141   25.6047   48.3964 H   0  0  0  0  0  0  0  0  0  0  0  0
   60.3632   26.4060   46.5324 H   0  0  0  0  0  0  0  0  0  0  0  0
  1  2  1  0
  2  3  1  0
  3  4  1  0
  4  5  1  0
  5  6  1  0
  6  7  2  0
  7  8  1  0
  7  9  1  0
  9 10  1  0
 10 11  2  0
 11 12  1  0
 12 13  2  0
 13 14  1  0
 14 15  2  0
  9 16  1  0
 16 17  1  0
 17 18  2  0
 18 19  1  0
 19 20  2  0
 20 21  1  0
 20 22  1  0
 22 23  2  0
  6 24  1  0
 24 25  2  0
 24  3  1  0
 16  5  2  0
 23 17  1  0
 15 10  1  0
  1 26  1  0
  1 27  1  0
  1 28  1  0
  2 29  1  0
  2 30  1  0
  4 31  1  0
  4 32  1  0
 11 33  1  0
 12 34  1  0
 13 35  1  0
 14 36  1  0
 15 37  1  0
 18 38  1  0
 19 39  1  0
 22 40  1  0
 23 41  1  0
M  CHG  2   8  -1  21  -1
M  END
>  <UniqueID>  (37) 
33

>  <SMILES>  (37) 
CCN1Cc2c(c([O-])n(-c3ccccc3)c2-c2ccc([O-])cc2)C1=O

>  <Energy>  (37) 
117.53529409528039

>  <Genealogy>  (37) 
CCN1Cc2c(c([O-])n(-c3ccccc3)c2-c2ccc([O-])cc2)C1=O (protonated)
CCN1Cc2c(c([O-])n(-c3ccccc3)c2-c2ccc([O-])cc2)C1=O (3D coordinates assigned)
CCN1Cc2c(c([O-])n(-c3ccccc3)c2-c2ccc([O-])cc2)C1=O (nonaromatic ring conformer: 117.53529409528039 kcal/mol)

>  <smiles>  (37) 
CCN1Cc2c(c(O)n(-c3ccccc3)c2-c2ccc(O)cc2)C1=O

>  <score_type>  (37) 
oracle

>  <origin>  (37) 
adg

>  <m_score__min__energy>  (37) 
-10.619999999999999

>  <m_primary>  (37) 
energy

$$$$
37:0
     RDKit          3D

 38 40  0  0  0  0  0  0  0  0999 V2000
   59.2620   34.7290   44.5390 O   0  0  0  0  0  0  0  0  0  0  0  0
   58.6660   33.7880   45.1320 C   0  0  0  0  0  0  0  0  0  0  0  0
   58.6240   33.7690   46.5690 N   0  0  0  0  0  0  0  0  0  0  0  0
   59.3310   34.7540   47.3830 C   0  0  0  0  0  0  0  0  0  0  0  0
   60.7120   34.2590   47.7170 C   0  0  0  0  0  0  0  0  0  0  0  0
   61.1360   34.1690   49.0540 C   0  0  0  0  0  0  0  0  0  0  0  0
   62.4140   33.6880   49.3560 C   0  0  0  0  0  0  0  0  0  0  0  0
   63.2760   33.2940   48.3290 C   0  0  0  0  0  0  0  0  0  0  0  0
   64.5140   32.8270   48.6250 F   0  0  0  0  0  0  0  0  0  0  0  0
   62.8600   33.3770   46.9970 C   0  0  0  0  0  0  0  0  0  0  0  0
   61.5820   33.8560   46.6910 C   0  0  0  0  0  0  0  0  0  0  0  0
   58.0040   32.7300   44.3310 C   0  0  0  0  0  0  0  0  0  0  0  0
   58.1040   32.7490   42.9290 C   0  0  0  0  0  0  0  0  0  0  0  0
   57.4970   31.7510   42.1630 C   0  0  0  0  0  0  0  0  0  0  0  0
   56.7810   30.7240   42.7820 C   0  0  0  0  0  0  0  0  0  0  0  0
   56.2600   29.7310   42.0180 F   0  0  0  0  0  0  0  0  0  0  0  0
   56.6620   30.6960   44.1830 C   0  0  0  0  0  0  0  0  0  0  0  0
   55.9670   29.6770   44.8480 O   0  0  0  0  0  0  0  0  0  0  0  0
   56.5330   28.4620   45.2520 C   0  0  0  0  0  0  0  0  0  0  0  0
   57.9230   28.3390   45.3070 C   0  0  0  0  0  0  0  0  0  0  0  0
   58.4700   27.1270   45.7310 C   0  0  0  0  0  0  0  0  0  0  0  0
   59.7190   26.9800   45.7860 O   0  0  0  0  0  0  0  0  0  0  0  0
   57.6520   26.1010   46.0840 N   0  0  0  0  0  0  0  0  0  0  0  0
   56.3010   26.2380   46.0340 C   0  0  0  0  0  0  0  0  0  0  0  0
   55.5590   25.2790   46.3680 O   0  0  0  0  0  0  0  0  0  0  0  0
   55.7510   27.4110   45.6240 N   0  0  0  0  0  0  0  0  0  0  0  0
   57.2930   31.6850   44.9480 C   0  0  0  0  0  0  0  0  0  0  0  0
   58.0190   33.0770   47.0640 H   0  0  0  0  0  0  0  0  0  0  0  0
   59.4090   35.6982   46.8241 H   0  0  0  0  0  0  0  0  0  0  0  0
   58.7723   34.9146   48.3168 H   0  0  0  0  0  0  0  0  0  0  0  0
   60.4605   34.4779   49.8654 H   0  0  0  0  0  0  0  0  0  0  0  0
   62.7413   33.6197   50.4039 H   0  0  0  0  0  0  0  0  0  0  0  0
   63.5382   33.0654   46.1890 H   0  0  0  0  0  0  0  0  0  0  0  0
   61.2569   33.9173   45.6419 H   0  0  0  0  0  0  0  0  0  0  0  0
   58.6638   33.5549   42.4319 H   0  0  0  0  0  0  0  0  0  0  0  0
   57.5834   31.7741   41.0666 H   0  0  0  0  0  0  0  0  0  0  0  0
   58.5730   29.1795   45.0222 H   0  0  0  0  0  0  0  0  0  0  0  0
   57.2317   31.6440   46.0455 H   0  0  0  0  0  0  0  0  0  0  0  0
  1  2  2  0
  2  3  1  0
  3  4  1  0
  4  5  1  0
  5  6  2  0
  6  7  1  0
  7  8  2  0
  8  9  1  0
  8 10  1  0
 10 11  2  0
  2 12  1  0
 12 13  2  0
 13 14  1  0
 14 15  2  0
 15 16  1  0
 15 17  1  0
 17 18  1  0
 18 19  1  0
 19 20  2  0
 20 21  1  0
 21 22  2  0
 21 23  1  0
 23 24  1  0
 24 25  2  0
 24 26  1  0
 17 27  2  0
 11  5  1  0
 27 12  1  0
 26 19  1  0
  3 28  1  0
  4 29  1  0
  4 30  1  0
  6 31  1  0
  7 32  1  0
 10 33  1  0
 11 34  1  0
 13 35  1  0
 14 36  1  0
 20 37  1  0
 27 38  1  0
M  CHG  2  23  -1  26  -1
M  END
>  <UniqueID>  (38) 
34

>  <SMILES>  (38) 
O=C(NCc1ccc(F)cc1)c1ccc(F)c(Oc2cc(=O)[n-]c(=O)[n-]2)c1

>  <Energy>  (38) 
48.538805490509525

>  <Genealogy>  (38) 
O=C(NCc1ccc(F)cc1)c1ccc(F)c(Oc2cc(=O)[n-]c(=O)[n-]2)c1 (protonated)
O=C(NCc1ccc(F)cc1)c1ccc(F)c(Oc2cc(=O)[n-]c(=O)[n-]2)c1 (3D coordinates assigned)
O=C(NCc1ccc(F)cc1)c1ccc(F)c(Oc2cc(=O)[n-]c(=O)[n-]2)c1 (optimized conformer: 48.538805490509525 kcal/mol)

>  <smiles>  (38) 
O=C(NCc1ccc(F)cc1)c1ccc(F)c(Oc2cc(=O)[nH]c(=O)[nH]2)c1

>  <score_type>  (38) 
oracle

>  <origin>  (38) 
adg

>  <m_score__min__energy>  (38) 
-12.869999999999999

>  <m_primary>  (38) 
energy

$$$$
38:0
     RDKit          3D

 46 48  0  0  0  0  0  0  0  0999 V2000
   59.6390   34.3530   46.0510 C   0  0  0  0  0  0  0  0  0  0  0  0
   58.3200   33.7140   45.9270 N   0  0  0  0  0  0  0  0  0  0  0  0
   58.0940   33.2670   44.5330 C   0  0  0  0  0  0  0  0  0  0  0  0
   57.0080   32.1840   44.4660 C   0  0  0  0  0  0  0  0  0  0  0  0
   57.3770   30.9690   45.2370 N   0  0  0  0  0  0  0  0  0  0  0  0
   57.8570   29.8890   44.3480 C   0  0  0  0  0  0  0  0  0  0  0  0
   57.5860   28.5310   44.9490 C   0  0  0  0  0  0  0  0  0  0  0  0
   58.6550   27.6690   45.2480 C   0  0  0  0  0  0  0  0  0  0  0  0
   58.4190   26.4080   45.8100 C   0  0  0  0  0  0  0  0  0  0  0  0
   59.5360   25.5520   46.0890 N   0  0  0  0  0  0  0  0  0  0  0  0
   59.5900   24.1390   45.8510 C   0  0  0  0  0  0  0  0  0  0  0  0
   60.6990   23.6050   45.5990 O   0  0  0  0  0  0  0  0  0  0  0  0
   58.4150   23.3170   45.8930 N   0  0  0  0  0  0  0  0  0  0  0  0
   57.6820   22.8380   44.7560 C   0  0  0  0  0  0  0  0  0  0  0  0
   58.0750   21.6360   44.1540 C   0  0  0  0  0  0  0  0  0  0  0  0
   57.3770   21.1390   43.0480 C   0  0  0  0  0  0  0  0  0  0  0  0
   56.2920   21.8490   42.5290 C   0  0  0  0  0  0  0  0  0  0  0  0
   55.9090   23.0630   43.1080 C   0  0  0  0  0  0  0  0  0  0  0  0
   56.6060   23.5620   44.2120 C   0  0  0  0  0  0  0  0  0  0  0  0
   57.1030   26.0260   46.1190 C   0  0  0  0  0  0  0  0  0  0  0  0
   56.0370   26.8800   45.8320 C   0  0  0  0  0  0  0  0  0  0  0  0
   56.2720   28.1290   45.2490 C   0  0  0  0  0  0  0  0  0  0  0  0
   55.1950   28.9670   44.9750 O   0  0  0  0  0  0  0  0  0  0  0  0
   58.3470   31.2380   46.3280 C   0  0  0  0  0  0  0  0  0  0  0  0
   58.1430   32.6360   46.9310 C   0  0  0  0  0  0  0  0  0  0  0  0
   59.8891   34.4742   47.1153 H   0  0  0  0  0  0  0  0  0  0  0  0
   60.3987   33.7231   45.5652 H   0  0  0  0  0  0  0  0  0  0  0  0
   59.6156   35.3396   45.5652 H   0  0  0  0  0  0  0  0  0  0  0  0
   57.7790   34.1289   43.9265 H   0  0  0  0  0  0  0  0  0  0  0  0
   59.0327   32.8431   44.1468 H   0  0  0  0  0  0  0  0  0  0  0  0
   56.0736   32.5938   44.8770 H   0  0  0  0  0  0  0  0  0  0  0  0
   56.8884   31.8913   43.4124 H   0  0  0  0  0  0  0  0  0  0  0  0
   57.3395   29.9635   43.3802 H   0  0  0  0  0  0  0  0  0  0  0  0
   58.9430   30.0022   44.2149 H   0  0  0  0  0  0  0  0  0  0  0  0
   59.6868   27.9877   45.0387 H   0  0  0  0  0  0  0  0  0  0  0  0
   58.9365   21.0801   44.5526 H   0  0  0  0  0  0  0  0  0  0  0  0
   57.6830   20.1884   42.5869 H   0  0  0  0  0  0  0  0  0  0  0  0
   55.7386   21.4532   41.6646 H   0  0  0  0  0  0  0  0  0  0  0  0
   55.0589   23.6254   42.6944 H   0  0  0  0  0  0  0  0  0  0  0  0
   56.3120   24.5241   44.6568 H   0  0  0  0  0  0  0  0  0  0  0  0
   56.9119   25.0500   46.5890 H   0  0  0  0  0  0  0  0  0  0  0  0
   55.0079   26.5692   46.0654 H   0  0  0  0  0  0  0  0  0  0  0  0
   58.2136   30.4849   47.1186 H   0  0  0  0  0  0  0  0  0  0  0  0
   59.3621   31.1886   45.9071 H   0  0  0  0  0  0  0  0  0  0  0  0
   57.1244   32.6989   47.3416 H   0  0  0  0  0  0  0  0  0  0  0  0
   58.9017   32.7783   47.7146 H   0  0  0  0  0  0  0  0  0  0  0  0
  1  2  1  0
  2  3  1  0
  3  4  1  0
  4  5  1  0
  5  6  1  0
  6  7  1  0
  7  8  2  0
  8  9  1  0
  9 10  1  0
 10 11  1  0
 11 12  2  0
 11 13  1  0
 13 14  1  0
 14 15  2  0
 15 16  1  0
 16 17  2  0
 17 18  1  0
 18 19  2  0
  9 20  2  0
 20 21  1  0
 21 22  2  0
 22 23  1  0
  5 24  1  0
 24 25  1  0
 25  2  1  0
 22  7  1  0
 19 14  1  0
  1 26  1  0
  1 27  1  0
  1 28  1  0
  3 29  1  0
  3 30  1  0
  4 31  1  0
  4 32  1  0
  6 33  1  0
  6 34  1  0
  8 35  1  0
 15 36  1  0
 16 37  1  0
 17 38  1  0
 18 39  1  0
 19 40  1  0
 20 41  1  0
 21 42  1  0
 24 43  1  0
 24 44  1  0
 25 45  1  0
 25 46  1  0
M  CHG  3  10  -1  13  -1  23  -1
M  END
>  <UniqueID>  (39) 
35

>  <SMILES>  (39) 
CN1CCN(Cc2cc([N-]C(=O)[N-]c3ccccc3)ccc2[O-])CC1

>  <Energy>  (39) 
66.91747398607113

>  <Genealogy>  (39) 
CN1CCN(Cc2cc([N-]C(=O)[N-]c3ccccc3)ccc2[O-])CC1 (protonated)
CN1CCN(Cc2cc([N-]C(=O)[N-]c3ccccc3)ccc2[O-])CC1 (3D coordinates assigned)
CN1CCN(Cc2cc([N-]C(=O)[N-]c3ccccc3)ccc2[O-])CC1 (nonaromatic ring conformer: 66.91747398607113 kcal/mol)

>  <smiles>  (39) 
CN1CCN(Cc2cc(NC(=O)Nc3ccccc3)ccc2O)CC1

>  <score_type>  (39) 
oracle

>  <origin>  (39) 
adg

>  <m_score__min__energy>  (39) 
-12.949999999999999

>  <m_primary>  (39) 
energy

$$$$
39:0
     RDKit          3D

 62 67  0  0  0  0  0  0  0  0999 V2000
   60.3710   27.0090   47.9960 C   0  0  0  0  0  0  0  0  0  0  0  0
   59.9630   28.3600   47.4700 C   0  0  0  0  0  0  0  0  0  0  0  0
   58.9050   28.3880   46.7230 N   0  0  0  0  0  0  0  0  0  0  0  0
   58.3630   29.3440   45.8090 C   0  0  0  0  0  0  0  0  0  0  0  0
   57.3180   28.8790   44.9900 C   0  0  0  0  0  0  0  0  0  0  0  0
   56.6990   29.7170   44.0680 C   0  0  0  0  0  0  0  0  0  0  0  0
   57.1220   31.0340   43.9390 C   0  0  0  0  0  0  0  0  0  0  0  0
   58.1680   31.5060   44.7240 C   0  0  0  0  0  0  0  0  0  0  0  0
   58.8090   30.6750   45.6580 C   0  0  0  0  0  0  0  0  0  0  0  0
   59.8960   31.2710   46.3630 N   0  0  0  0  0  0  0  0  0  0  0  0
   60.8150   30.8280   47.1650 C   0  0  0  0  0  0  0  0  0  0  0  0
   61.9250   31.7790   47.4720 C   0  0  0  0  0  0  0  0  0  0  0  0
   62.8460   31.4640   48.4930 C   0  0  0  0  0  0  0  0  0  0  0  0
   63.9270   32.3080   48.7660 C   0  0  0  0  0  0  0  0  0  0  0  0
   64.1110   33.4780   48.0240 C   0  0  0  0  0  0  0  0  0  0  0  0
   63.2020   33.8130   47.0180 C   0  0  0  0  0  0  0  0  0  0  0  0
   62.1120   32.9760   46.7450 C   0  0  0  0  0  0  0  0  0  0  0  0
   60.7120   29.5560   47.9790 C   0  0  1  0  0  0  0  0  0  0  0  0
   60.4590   29.8260   49.4520 C   0  0  0  0  0  0  0  0  0  0  0  0
   61.1890   29.2430   50.4220 N   0  0  0  0  0  0  0  0  0  0  0  0
   60.7440   29.6600   51.5950 N   0  0  0  0  0  0  0  0  0  0  0  0
   59.7250   30.5030   51.3340 C   0  0  0  0  0  0  0  0  0  0  0  0
   58.9610   31.2110   52.4220 C   0  0  0  0  0  0  0  0  0  0  0  0
   57.5240   30.7490   52.4970 C   0  0  0  0  0  0  0  0  0  0  0  0
   56.5020   31.6030   52.0330 C   0  0  0  0  0  0  0  0  0  0  0  0
   55.1720   31.1830   52.0170 C   0  0  0  0  0  0  0  0  0  0  0  0
   54.8390   29.9060   52.4700 C   0  0  0  0  0  0  0  0  0  0  0  0
   53.1730   29.3660   52.3960 Cl  0  0  0  0  0  0  0  0  0  0  0  0
   55.8370   29.0610   52.9790 C   0  0  0  0  0  0  0  0  0  0  0  0
   57.1750   29.4770   53.0070 C   0  0  0  0  0  0  0  0  0  0  0  0
   58.3830   28.3810   53.6930 Cl  0  0  0  0  0  0  0  0  0  0  0  0
   59.5210   30.6410   49.9970 N   0  0  0  0  0  0  0  0  0  0  0  0
   58.4810   31.4270   49.3310 C   0  0  0  0  0  0  0  0  0  0  0  0
   59.0010   32.7700   48.9270 C   0  0  0  0  0  0  0  0  0  0  0  0
   58.6010   33.4780   47.8080 C   0  0  0  0  0  0  0  0  0  0  0  0
   59.3510   34.6340   47.8130 C   0  0  0  0  0  0  0  0  0  0  0  0
   60.1720   34.5550   48.9260 C   0  0  0  0  0  0  0  0  0  0  0  0
   59.9410   33.4320   49.5670 O   0  0  0  0  0  0  0  0  0  0  0  0
   60.3656   27.0268   49.0958 H   0  0  0  0  0  0  0  0  0  0  0  0
   59.6629   26.2471   47.6382 H   0  0  0  0  0  0  0  0  0  0  0  0
   61.3825   26.7664   47.6382 H   0  0  0  0  0  0  0  0  0  0  0  0
   56.9845   27.8347   45.0802 H   0  0  0  0  0  0  0  0  0  0  0  0
   55.8770   29.3379   43.4430 H   0  0  0  0  0  0  0  0  0  0  0  0
   56.6301   31.7023   43.2169 H   0  0  0  0  0  0  0  0  0  0  0  0
   58.4996   32.5488   44.6118 H   0  0  0  0  0  0  0  0  0  0  0  0
   62.7123   30.5440   49.0811 H   0  0  0  0  0  0  0  0  0  0  0  0
   64.6349   32.0502   49.5675 H   0  0  0  0  0  0  0  0  0  0  0  0
   64.9696   34.1334   48.2318 H   0  0  0  0  0  0  0  0  0  0  0  0
   63.3423   34.7371   46.4380 H   0  0  0  0  0  0  0  0  0  0  0  0
   61.3955   33.2533   45.9577 H   0  0  0  0  0  0  0  0  0  0  0  0
   61.7331   29.1788   47.8205 H   0  0  0  0  0  0  0  0  0  0  0  0
   61.9770   28.5700   50.2970 H   0  0  0  0  0  0  0  0  0  0  0  0
   59.4494   31.0106   53.3871 H   0  0  0  0  0  0  0  0  0  0  0  0
   58.9606   32.2867   52.1922 H   0  0  0  0  0  0  0  0  0  0  0  0
   56.7569   32.6129   51.6793 H   0  0  0  0  0  0  0  0  0  0  0  0
   54.3861   31.8581   51.6475 H   0  0  0  0  0  0  0  0  0  0  0  0
   55.5671   28.0646   53.3589 H   0  0  0  0  0  0  0  0  0  0  0  0
   58.1414   30.8880   48.4343 H   0  0  0  0  0  0  0  0  0  0  0  0
   57.6464   31.5707   50.0330 H   0  0  0  0  0  0  0  0  0  0  0  0
   57.8428   33.1804   47.0687 H   0  0  0  0  0  0  0  0  0  0  0  0
   59.3067   35.4539   47.0810 H   0  0  0  0  0  0  0  0  0  0  0  0
   60.9059   35.3170   49.2272 H   0  0  0  0  0  0  0  0  0  0  0  0
  1  2  1  0
  2  3  2  0
  3  4  1  0
  4  5  2  0
  5  6  1  0
  6  7  2  0
  7  8  1  0
  8  9  2  0
  9 10  1  0
 10 11  2  0
 11 12  1  0
 12 13  2  0
 13 14  1  0
 14 15  2  0
 15 16  1  0
 16 17  2  0
 11 18  1  0
 18 19  1  0
 19 20  2  0
 20 21  1  0
 21 22  2  0
 22 23  1  0
 23 24  1  0
 24 25  2  0
 25 26  1  0
 26 27  2  0
 27 28  1  0
 27 29  1  0
 29 30  2  0
 30 31  1  0
 22 32  1  0
 32 33  1  0
 33 34  1  0
 34 35  2  0
 35 36  1  0
 36 37  2  0
 37 38  1  0
 18  2  1  0
 32 19  1  0
 38 34  1  0
  9  4  1  0
 17 12  1  0
 30 24  1  0
  1 39  1  0
  1 40  1  0
  1 41  1  0
  5 42  1  0
  6 43  1  0
  7 44  1  0
  8 45  1  0
 13 46  1  0
 14 47  1  0
 15 48  1  0
 16 49  1  0
 17 50  1  0
 18 51  1  1
 20 52  1  0
 23 53  1  0
 23 54  1  0
 25 55  1  0
 26 56  1  0
 29 57  1  0
 33 58  1  0
 33 59  1  0
 35 60  1  0
 36 61  1  0
 37 62  1  0
M  CHG  1  20   1
M  END
>  <UniqueID>  (40) 
36

>  <SMILES>  (40) 
CC1=Nc2ccccc2N=C(c2ccccc2)[C@H]1c1[nH+]nc(Cc2ccc(Cl)cc2Cl)n1Cc1ccco1

>  <Energy>  (40) 
155.7087182690672

>  <Genealogy>  (40) 
CC1=Nc2ccccc2N=C(c2ccccc2)C1c1[nH+]nc(Cc2ccc(Cl)cc2Cl)n1Cc1ccco1 (protonated)
CC1=Nc2ccccc2N=C(c2ccccc2)[C@H]1c1[nH+]nc(Cc2ccc(Cl)cc2Cl)n1Cc1ccco1 (chirality)
CC1=Nc2ccccc2N=C(c2ccccc2)[C@H]1c1[nH+]nc(Cc2ccc(Cl)cc2Cl)n1Cc1ccco1 (3D coordinates assigned)
CC1=Nc2ccccc2N=C(c2ccccc2)[C@H]1c1[nH+]nc(Cc2ccc(Cl)cc2Cl)n1Cc1ccco1 (nonaromatic ring conformer: 155.7087182690672 kcal/mol)

>  <smiles>  (40) 
CC1=Nc2ccccc2N=C(c2ccccc2)C1c1nnc(Cc2ccc(Cl)cc2Cl)n1Cc1ccco1

>  <score_type>  (40) 
oracle

>  <origin>  (40) 
adg

>  <m_score__min__energy>  (40) 
-6.25

>  <m_primary>  (40) 
energy

$$$$
40:0
     RDKit          3D

 38 41  0  0  0  0  0  0  0  0999 V2000
   59.6350   34.6890   48.9100 N   0  0  0  0  0  0  0  0  0  0  0  0
   60.8870   34.0050   48.8170 C   0  0  0  0  0  0  0  0  0  0  0  0
   61.9420   34.6030   49.1580 O   0  0  0  0  0  0  0  0  0  0  0  0
   60.9720   32.6350   48.2790 C   0  0  0  0  0  0  0  0  0  0  0  0
   62.1170   31.9230   48.2710 N   0  0  0  0  0  0  0  0  0  0  0  0
   61.8720   30.7680   47.6230 C   0  0  0  0  0  0  0  0  0  0  0  0
   60.5540   30.7260   47.1990 C   0  0  0  0  0  0  0  0  0  0  0  0
   59.9180   29.5930   46.4930 C   0  0  0  0  0  0  0  0  0  0  0  0
   58.9270   28.8010   47.1010 C   0  0  0  0  0  0  0  0  0  0  0  0
   58.3540   27.7480   46.3860 C   0  0  0  0  0  0  0  0  0  0  0  0
   58.7610   27.4940   45.0760 C   0  0  0  0  0  0  0  0  0  0  0  0
   59.7340   28.3080   44.4950 C   0  0  0  0  0  0  0  0  0  0  0  0
   60.2820   29.3280   45.2070 N   0  0  0  0  0  0  0  0  0  0  0  0
   59.9750   31.9060   47.6420 C   0  0  0  0  0  0  0  0  0  0  0  0
   58.5760   32.2090   47.5780 N   0  0  0  0  0  0  0  0  0  0  0  0
   57.9700   33.1150   46.6500 C   0  0  0  0  0  0  0  0  0  0  0  0
   57.4590   34.1950   47.0520 O   0  0  0  0  0  0  0  0  0  0  0  0
   57.9090   32.7660   45.2240 C   0  0  0  0  0  0  0  0  0  0  0  0
   58.4350   33.4780   44.1480 C   0  0  0  0  0  0  0  0  0  0  0  0
   58.1670   32.8300   42.9860 N   0  0  0  0  0  0  0  0  0  0  0  0
   57.4910   31.7390   43.3090 N   0  0  0  0  0  0  0  0  0  0  0  0
   57.0110   30.7950   42.4650 C   0  0  0  0  0  0  0  0  0  0  0  0
   56.3130   29.7140   43.0210 C   0  0  0  0  0  0  0  0  0  0  0  0
   56.1440   29.6620   44.4200 C   0  0  0  0  0  0  0  0  0  0  0  0
   56.6520   30.6460   45.2160 N   0  0  0  0  0  0  0  0  0  0  0  0
   57.3220   31.6730   44.6340 C   0  0  0  0  0  0  0  0  0  0  0  0
   58.7670   34.2840   48.4950 H   0  0  0  0  0  0  0  0  0  0  0  0
   59.5890   35.6430   49.3320 H   0  0  0  0  0  0  0  0  0  0  0  0
   63.0370   32.2190   48.6660 H   0  0  0  0  0  0  0  0  0  0  0  0
   62.6124   29.9721   47.4546 H   0  0  0  0  0  0  0  0  0  0  0  0
   58.6061   29.0100   48.1322 H   0  0  0  0  0  0  0  0  0  0  0  0
   57.5826   27.1193   46.8548 H   0  0  0  0  0  0  0  0  0  0  0  0
   58.3200   26.6617   44.5078 H   0  0  0  0  0  0  0  0  0  0  0  0
   60.0579   28.1241   43.4600 H   0  0  0  0  0  0  0  0  0  0  0  0
   58.9866   34.4263   44.2285 H   0  0  0  0  0  0  0  0  0  0  0  0
   57.1639   30.8739   41.3785 H   0  0  0  0  0  0  0  0  0  0  0  0
   55.9045   28.9207   42.3777 H   0  0  0  0  0  0  0  0  0  0  0  0
   55.5982   28.8212   44.8728 H   0  0  0  0  0  0  0  0  0  0  0  0
  1  2  1  0
  2  3  2  0
  2  4  1  0
  4  5  1  0
  5  6  1  0
  6  7  2  0
  7  8  1  0
  8  9  2  0
  9 10  1  0
 10 11  2  0
 11 12  1  0
 12 13  2  0
  7 14  1  0
 14 15  1  0
 15 16  1  0
 16 17  2  0
 16 18  1  0
 18 19  1  0
 19 20  2  0
 20 21  1  0
 21 22  1  0
 22 23  2  0
 23 24  1  0
 24 25  2  0
 25 26  1  0
 14  4  2  0
 26 18  2  0
 13  8  1  0
 26 21  1  0
  1 27  1  0
  1 28  1  0
  5 29  1  0
  6 30  1  0
  9 31  1  0
 10 32  1  0
 11 33  1  0
 12 34  1  0
 19 35  1  0
 22 36  1  0
 23 37  1  0
 24 38  1  0
M  CHG  1  15  -1
M  END
>  <UniqueID>  (41) 
37

>  <SMILES>  (41) 
NC(=O)c1[nH]cc(-c2ccccn2)c1[N-]C(=O)c1cnn2cccnc12

>  <Energy>  (41) 
115.24321445285669

>  <Genealogy>  (41) 
NC(=O)c1[nH]cc(-c2ccccn2)c1[N-]C(=O)c1cnn2cccnc12 (protonated)
NC(=O)c1[nH]cc(-c2ccccn2)c1[N-]C(=O)c1cnn2cccnc12 (3D coordinates assigned)
NC(=O)c1[nH]cc(-c2ccccn2)c1[N-]C(=O)c1cnn2cccnc12 (optimized conformer: 115.24321445285669 kcal/mol)

>  <smiles>  (41) 
NC(=O)c1[nH]cc(-c2ccccn2)c1NC(=O)c1cnn2cccnc12

>  <score_type>  (41) 
oracle

>  <origin>  (41) 
adg

>  <m_score__min__energy>  (41) 
-9.0299999999999994

>  <m_primary>  (41) 
energy

$$$$
41:0
     RDKit          3D

 49 53  0  0  0  0  0  0  0  0999 V2000
   55.1490   27.5200   45.4190 H   0  0  0  0  0  0  0  0  0  0  0  0
   54.9680   26.7160   46.0070 O   0  0  0  0  0  0  0  0  0  0  0  0
   55.9990   25.8540   46.3660 C   0  0  0  0  0  0  0  0  0  0  0  0
   55.8240   24.7400   47.0950 N   0  0  0  0  0  0  0  0  0  0  0  0
   57.0670   24.2110   47.1300 C   0  0  0  0  0  0  0  0  0  0  0  0
   57.3280   23.1340   47.7270 O   0  0  0  0  0  0  0  0  0  0  0  0
   58.0050   24.9230   46.4680 N   0  0  0  0  0  0  0  0  0  0  0  0
   57.3210   25.9840   46.0050 C   0  0  0  0  0  0  0  0  0  0  0  0
   57.9120   27.0110   45.1320 C   0  0  0  0  0  0  0  0  0  0  0  0
   58.6030   26.6800   44.3428 H   0  0  0  0  0  0  0  0  0  0  0  0
   57.6620   28.3250   45.2370 C   0  0  0  0  0  0  0  0  0  0  0  0
   56.8370   29.0720   44.3970 C   0  0  0  0  0  0  0  0  0  0  0  0
   56.2648   28.6646   43.5505 H   0  0  0  0  0  0  0  0  0  0  0  0
   56.8430   30.3740   44.7760 N   0  0  0  0  0  0  0  0  0  0  0  0
   57.6500   30.4610   45.8210 N   0  0  0  0  0  0  0  0  0  0  0  0
   57.9990   31.5720   46.5100 C   0  0  0  0  0  0  0  0  0  0  0  0
   57.4950   32.7290   46.2020 N   0  0  0  0  0  0  0  0  0  0  0  0
   58.2230   33.9840   46.3560 C   0  0  0  0  0  0  0  0  0  0  0  0
   57.7177   34.3358   47.2675 H   0  0  0  0  0  0  0  0  0  0  0  0
   59.6660   33.9170   45.8930 C   0  0  0  0  0  0  0  0  0  0  0  0
   60.4359   34.5147   46.4029 H   0  0  0  0  0  0  0  0  0  0  0  0
   60.3968   33.1098   45.7368 H   0  0  0  0  0  0  0  0  0  0  0  0
   58.6180   34.6030   45.0290 C   0  0  0  0  0  0  0  0  0  0  0  0
   58.6300   35.6969   44.9139 H   0  0  0  0  0  0  0  0  0  0  0  0
   58.2766   34.4977   43.9886 H   0  0  0  0  0  0  0  0  0  0  0  0
   58.9030   31.4400   47.5250 N   0  0  0  0  0  0  0  0  0  0  0  0
   59.4380   30.2150   47.8310 C   0  0  0  0  0  0  0  0  0  0  0  0
   60.3300   30.0870   48.7690 N   0  0  0  0  0  0  0  0  0  0  0  0
   61.5560   30.8260   48.8980 C   0  0  0  0  0  0  0  0  0  0  0  0
   62.0460   31.5080   47.7780 C   0  0  0  0  0  0  0  0  0  0  0  0
   61.4796   31.4853   46.8353 H   0  0  0  0  0  0  0  0  0  0  0  0
   63.2560   32.2220   47.8470 C   0  0  0  0  0  0  0  0  0  0  0  0
   63.7720   32.9350   46.7540 O   0  0  0  0  0  0  0  0  0  0  0  0
   63.3150   34.2190   46.3430 C   0  0  0  0  0  0  0  0  0  0  0  0
   63.0969   34.8318   47.2301 H   0  0  0  0  0  0  0  0  0  0  0  0
   64.0936   34.7098   45.7407 H   0  0  0  0  0  0  0  0  0  0  0  0
   62.4013   34.1075   45.7407 H   0  0  0  0  0  0  0  0  0  0  0  0
   63.9810   32.2250   49.0420 C   0  0  0  0  0  0  0  0  0  0  0  0
   64.9227   32.7902   49.1028 H   0  0  0  0  0  0  0  0  0  0  0  0
   63.5270   31.5200   50.1620 C   0  0  0  0  0  0  0  0  0  0  0  0
   64.3140   31.5410   51.3230 O   0  0  0  0  0  0  0  0  0  0  0  0
   65.7290   31.3950   51.3410 C   0  0  0  0  0  0  0  0  0  0  0  0
   66.0806   31.3587   52.3826 H   0  0  0  0  0  0  0  0  0  0  0  0
   66.0080   30.4633   50.8271 H   0  0  0  0  0  0  0  0  0  0  0  0
   66.1924   32.2501   50.8271 H   0  0  0  0  0  0  0  0  0  0  0  0
   62.3110   30.8130   50.0850 C   0  0  0  0  0  0  0  0  0  0  0  0
   61.9501   30.2481   50.9571 H   0  0  0  0  0  0  0  0  0  0  0  0
   59.0750   29.1160   47.1080 N   0  0  0  0  0  0  0  0  0  0  0  0
   58.1600   29.2640   46.1210 C   0  0  0  0  0  0  0  0  0  0  0  0
  1  2  1  0
  2  3  1  0
  3  4  1  0
  4  5  1  0
  5  6  2  0
  5  7  1  0
  7  8  1  0
  8  9  1  0
  9 10  1  0
  9 11  2  0
 11 12  1  0
 12 13  1  0
 12 14  2  0
 14 15  1  0
 15 16  1  0
 16 17  2  0
 17 18  1  0
 18 19  1  0
 18 20  1  0
 20 21  1  0
 20 22  1  0
 20 23  1  0
 23 24  1  0
 23 25  1  0
 16 26  1  0
 26 27  1  0
 27 28  2  3
 28 29  1  0
 29 30  2  0
 30 31  1  0
 30 32  1  0
 32 33  1  0
 33 34  1  0
 34 35  1  0
 34 36  1  0
 34 37  1  0
 32 38  2  0
 38 39  1  0
 38 40  1  0
 40 41  1  0
 41 42  1  0
 42 43  1  0
 42 44  1  0
 42 45  1  0
 40 46  2  0
 46 47  1  0
 27 48  1  0
 48 49  2  0
  8  3  2  0
 49 11  1  0
 49 15  1  0
 23 18  1  0
 46 29  1  0
M  CHG  3   4  -1   7  -1  26  -1
M  END
>  <UniqueID>  (42) 
38

>  <SMILES>  (42) 
COc1cc(N=c2nc3/c(=C\c4[n-]c(=O)[n-]c4O)cnn3/c(=N/C3CC3)[n-]2)cc(OC)c1

>  <Energy>  (42) 
396.3428334717249

>  <Genealogy>  (42) 
COc1cc(N=c2nc3c(=Cc4[n-]c(=O)[n-]c4O)cnn3c(=NC3CC3)[n-]2)cc(OC)c1 (protonated)
COc1cc(N=c2nc3/c(=C\c4[n-]c(=O)[n-]c4O)cnn3/c(=N/C3CC3)[n-]2)cc(OC)c1 (cis-trans isomerization)
COc1cc(N=c2nc3/c(=C\c4[n-]c(=O)[n-]c4O)cnn3/c(=N/C3CC3)[n-]2)cc(OC)c1 (3D coordinates assigned)
COc1cc(N=c2nc3/c(=C\c4[n-]c(=O)[n-]c4O)cnn3/c(=N/C3CC3)[n-]2)cc(OC)c1 (nonaromatic ring conformer: 396.3428334717249 kcal/mol)

>  <smiles>  (42) 
COc1cc(N=c2nc3c(=Cc4[nH]c(=O)[nH]c4O)cnn3c(=NC3CC3)[nH]2)cc(OC)c1

>  <score_type>  (42) 
oracle

>  <origin>  (42) 
adg

>  <m_score__min__energy>  (42) 
-14.050000000000001

>  <m_primary>  (42) 
energy

$$$$
42:0
     RDKit          3D

 44 48  0  0  1  0  0  0  0  0999 V2000
   56.2580   29.4310   42.6490 C   0  0  0  0  0  0  0  0  0  0  0  0
   56.8350   30.6320   43.2190 N   0  0  0  0  0  0  0  0  0  0  0  0
   57.5540   31.6040   42.5970 C   0  0  0  0  0  0  0  0  0  0  0  0
   57.8710   32.5300   43.5820 C   0  0  0  0  0  0  0  0  0  0  0  0
   57.3330   32.0880   44.7750 C   0  0  0  0  0  0  0  0  0  0  0  0
   57.3860   32.6890   46.0640 N   0  0  0  0  0  0  0  0  0  0  0  0
   58.2010   32.2110   46.9440 C   0  0  0  0  0  0  0  0  0  0  0  0
   58.5850   30.9210   46.8980 N   0  0  0  0  0  0  0  0  0  0  0  0
   59.4450   30.5140   47.8700 C   0  0  0  0  0  0  0  0  0  0  0  0
   59.9860   29.2630   48.0510 C   0  0  0  0  0  0  0  0  0  0  0  0
   59.8230   28.1640   47.3590 C   0  0  0  0  0  0  0  0  0  0  0  0
   58.5660   27.7490   46.7510 C   0  0  0  0  0  0  0  0  0  0  0  0
   57.6350   26.8910   47.1830 N   0  0  0  0  0  0  0  0  0  0  0  0
   56.6660   26.8430   46.2790 C   0  0  0  0  0  0  0  0  0  0  0  0
   55.6170   26.1410   46.3430 O   0  0  0  0  0  0  0  0  0  0  0  0
   56.9230   27.6590   45.2340 N   0  0  0  0  0  0  0  0  0  0  0  0
   58.1160   28.2270   45.5310 C   0  0  0  0  0  0  0  0  0  0  0  0
   58.7580   29.1560   44.6950 O   0  0  0  0  0  0  0  0  0  0  0  0
   60.7930   29.3780   49.1760 C   0  0  0  0  0  0  0  0  0  0  0  0
   60.7010   30.6540   49.6040 N   0  0  0  0  0  0  0  0  0  0  0  0
   59.8890   31.3530   48.8240 N   0  0  0  0  0  0  0  0  0  0  0  0
   59.4920   32.6380   48.8490 C   0  0  0  0  0  0  0  0  0  0  0  0
   59.9430   33.4070   49.7830 N   0  0  0  0  0  0  0  0  0  0  0  0
   61.1460   34.1830   49.5590 C   0  0  0  0  0  0  0  0  0  0  0  0
   62.4060   33.3780   49.8450 C   0  0  0  0  0  0  0  0  0  0  0  0
   62.0630   33.8670   48.4510 C   0  0  0  0  0  0  0  0  0  0  0  0
   58.6400   33.0620   47.8970 N   0  0  0  0  0  0  0  0  0  0  0  0
   56.7110   30.9330   44.5130 N   0  0  0  0  0  0  0  0  0  0  0  0
   55.9354   28.7595   43.4583 H   0  0  0  0  0  0  0  0  0  0  0  0
   55.3908   29.6999   42.0280 H   0  0  0  0  0  0  0  0  0  0  0  0
   57.0099   28.9220   42.0280 H   0  0  0  0  0  0  0  0  0  0  0  0
   57.8281   31.6478   41.5326 H   0  0  0  0  0  0  0  0  0  0  0  0
   58.4496   33.4543   43.4375 H   0  0  0  0  0  0  0  0  0  0  0  0
   60.6961   27.5080   47.2274 H   0  0  0  0  0  0  0  0  0  0  0  0
   57.6680   26.3640   48.0600 H   0  0  0  0  0  0  0  0  0  0  0  0
   56.3320   27.7990   44.4100 H   0  0  0  0  0  0  0  0  0  0  0  0
   58.6810   30.1540   44.8680 H   0  0  0  0  0  0  0  0  0  0  0  0
   61.3945   28.5781   49.6324 H   0  0  0  0  0  0  0  0  0  0  0  0
   60.6848   35.1340   49.8638 H   0  0  0  0  0  0  0  0  0  0  0  0
   63.2393   33.8300   50.4029 H   0  0  0  0  0  0  0  0  0  0  0  0
   62.6341   32.4061   50.3069 H   0  0  0  0  0  0  0  0  0  0  0  0
   62.6601   34.6678   47.9903 H   0  0  0  0  0  0  0  0  0  0  0  0
   61.9485   33.3817   47.4705 H   0  0  0  0  0  0  0  0  0  0  0  0
   58.3240   34.0560   47.9050 H   0  0  0  0  0  0  0  0  0  0  0  0
  1  2  1  0
  2  3  1  0
  3  4  2  0
  4  5  1  0
  5  6  1  0
  6  7  2  0
  7  8  1  0
  8  9  2  0
  9 10  1  0
 10 11  2  0
 11 12  1  0
 12 13  1  0
 13 14  1  0
 14 15  2  0
 14 16  1  0
 16 17  1  0
 17 18  1  0
 10 19  1  0
 19 20  2  0
 20 21  1  0
 21 22  1  0
 22 23  2  0
 23 24  1  0
 24 25  1  0
 25 26  1  0
 22 27  1  0
  5 28  2  0
 28  2  1  0
 27  7  1  0
 21  9  1  0
 26 24  1  0
 17 12  2  0
  1 29  1  0
  1 30  1  0
  1 31  1  0
  3 32  1  0
  4 33  1  0
 11 34  1  0
 13 35  1  0
 16 36  1  0
 18 37  1  0
 19 38  1  0
 24 39  1  0
 25 40  1  0
 25 41  1  0
 26 42  1  0
 26 43  1  0
 27 44  1  0
M  END
>  <smiles>  (43) 
Cn1ccc(N=c2nc3c(=Cc4[nH]c(=O)[nH]c4O)cnn3c(=NC3CC3)[nH]2)n1

>  <score_type>  (43) 
oracle

>  <origin>  (43) 
adg

>  <m_score__min__energy>  (43) 
-8.7899999999999991

>  <m_primary>  (43) 
energy

$$$$
43:0
     RDKit          3D

 16 16  0  0  0  0  0  0  0  0999 V2000
   58.1300   26.4280   45.9150 C   0  0  0  0  0  0  0  0  0  0  0  0
   57.4690   25.4700   46.8580 C   0  0  0  0  0  0  0  0  0  0  0  0
   57.9530   25.3220   48.0130 O   0  0  0  0  0  0  0  0  0  0  0  0
   56.3050   24.7150   46.4650 N   0  0  0  0  0  0  0  0  0  0  0  0
   56.3230   23.3470   46.5500 C   0  0  0  0  0  0  0  0  0  0  0  0
   57.4450   22.6770   47.0280 O   0  0  0  0  0  0  0  0  0  0  0  0
   55.2050   22.6030   46.1730 C   0  0  0  0  0  0  0  0  0  0  0  0
   54.0780   23.2770   45.7130 C   0  0  0  0  0  0  0  0  0  0  0  0
   53.0510   22.6350   45.3700 O   0  0  0  0  0  0  0  0  0  0  0  0
   54.0910   24.6290   45.6310 N   0  0  0  0  0  0  0  0  0  0  0  0
   55.1820   25.3500   45.9940 C   0  0  0  0  0  0  0  0  0  0  0  0
   55.1470   26.7340   45.8570 O   0  0  0  0  0  0  0  0  0  0  0  0
   58.6626   27.1999   46.4900 H   0  0  0  0  0  0  0  0  0  0  0  0
   58.8457   25.8837   45.2813 H   0  0  0  0  0  0  0  0  0  0  0  0
   57.3672   26.9039   45.2813 H   0  0  0  0  0  0  0  0  0  0  0  0
   55.2141   21.5050   46.2381 H   0  0  0  0  0  0  0  0  0  0  0  0
  1  2  1  0
  2  3  2  0
  2  4  1  0
  4  5  1  0
  5  6  1  0
  5  7  2  0
  7  8  1  0
  8  9  2  0
  8 10  1  0
 10 11  2  0
 11 12  1  0
 11  4  1  0
  1 13  1  0
  1 14  1  0
  1 15  1  0
  7 16  1  0
M  CHG  2   6  -1  12  -1
M  END
>  <UniqueID>  (44) 
39

>  <SMILES>  (44) 
CC(=O)n1c([O-])cc(=O)nc1[O-]

>  <Energy>  (44) 
21.779322412971144

>  <Genealogy>  (44) 
CC(=O)n1c([O-])cc(=O)nc1[O-] (protonated)
CC(=O)n1c([O-])cc(=O)nc1[O-] (3D coordinates assigned)
CC(=O)n1c([O-])cc(=O)nc1[O-] (optimized conformer: 21.779322412971144 kcal/mol)

>  <smiles>  (44) 
CC(=O)n1c(O)cc(=O)nc1O

>  <score_type>  (44) 
oracle

>  <origin>  (44) 
adg

>  <m_score__min__energy>  (44) 
-9.8200000000000003

>  <m_primary>  (44) 
energy

$$$$
44:0
     RDKit          3D

 81 86  0  0  0  0  0  0  0  0999 V2000
   55.1440   29.4520   44.7740 O   0  0  0  0  0  0  0  0  0  0  0  0
   56.4050   29.4530   44.8320 C   0  0  0  0  0  0  0  0  0  0  0  0
   57.1070   30.6860   44.6650 N   0  0  0  0  0  0  0  0  0  0  0  0
   58.1540   31.1420   45.5320 C   0  0  0  0  0  0  0  0  0  0  0  0
   58.1730   32.4890   45.9130 C   0  0  0  0  0  0  0  0  0  0  0  0
   59.2020   32.9840   46.7160 C   0  0  0  0  0  0  0  0  0  0  0  0
   60.2210   32.1290   47.1650 C   0  0  0  0  0  0  0  0  0  0  0  0
   61.3320   32.6780   47.9730 C   0  0  0  0  0  0  0  0  0  0  0  0
   62.6470   32.3440   47.6070 C   0  0  0  0  0  0  0  0  0  0  0  0
   63.7360   32.9010   48.2800 C   0  0  0  0  0  0  0  0  0  0  0  0
   63.5240   33.8080   49.3170 C   0  0  0  0  0  0  0  0  0  0  0  0
   62.2250   34.1450   49.7000 C   0  0  0  0  0  0  0  0  0  0  0  0
   61.1140   33.5730   49.0520 C   0  0  0  0  0  0  0  0  0  0  0  0
   59.7240   33.8770   49.5910 C   0  0  0  0  0  0  0  0  0  0  0  0
   59.3550   32.9780   50.7150 N   0  0  0  0  0  0  0  0  0  0  0  0
   59.1410   33.7370   51.9660 C   0  0  0  0  0  0  0  0  0  0  0  0
   58.8500   32.8240   53.1840 C   0  0  0  0  0  0  0  0  0  0  0  0
   58.9380   31.3860   52.8810 N   0  0  0  0  0  0  0  0  0  0  0  0
   57.4450   30.7170   52.2360 S   0  0  0  0  0  0  0  0  0  0  0  0
   56.9000   31.6820   51.2220 O   0  0  0  0  0  0  0  0  0  0  0  0
   57.7160   29.4090   51.5430 O   0  0  0  0  0  0  0  0  0  0  0  0
   56.1850   30.4460   53.4820 C   0  0  0  0  0  0  0  0  0  0  0  0
   54.8370   30.2680   52.8430 C   0  0  0  0  0  0  0  0  0  0  0  0
   54.3500   31.2240   51.9350 C   0  0  0  0  0  0  0  0  0  0  0  0
   53.0980   31.0530   51.3360 C   0  0  0  0  0  0  0  0  0  0  0  0
   52.3280   29.9250   51.6300 C   0  0  0  0  0  0  0  0  0  0  0  0
   52.8120   28.9610   52.5200 C   0  0  0  0  0  0  0  0  0  0  0  0
   54.0630   29.1280   53.1230 C   0  0  0  0  0  0  0  0  0  0  0  0
   60.1540   31.0450   52.1250 C   0  0  0  0  0  0  0  0  0  0  0  0
   60.4020   31.9530   50.8980 C   0  0  0  0  0  0  0  0  0  0  0  0
   60.2050   30.7760   46.7910 C   0  0  0  0  0  0  0  0  0  0  0  0
   61.1820   29.9320   47.2120 F   0  0  0  0  0  0  0  0  0  0  0  0
   59.1760   30.2850   45.9800 C   0  0  0  0  0  0  0  0  0  0  0  0
   57.1470   28.1940   45.0720 C   0  0  0  0  0  0  0  0  0  0  0  0
   57.2580   27.6680   46.3720 C   0  0  0  0  0  0  0  0  0  0  0  0
   57.9210   26.4600   46.5930 C   0  0  0  0  0  0  0  0  0  0  0  0
   58.4770   25.7470   45.5200 C   0  0  0  0  0  0  0  0  0  0  0  0
   59.1790   24.4390   45.7540 C   0  0  0  0  0  0  0  0  0  0  0  0
   58.2580   23.4800   46.3650 N   0  0  0  0  0  0  0  0  0  0  0  0
   58.2630   22.2450   45.5860 C   0  0  0  0  0  0  0  0  0  0  0  0
   59.3200   22.2340   44.4950 C   0  0  0  0  0  0  0  0  0  0  0  0
   57.8570   22.4420   44.1340 C   0  0  0  0  0  0  0  0  0  0  0  0
   58.4010   26.2870   44.2270 C   0  0  0  0  0  0  0  0  0  0  0  0
   57.7390   27.4980   44.0040 C   0  0  0  0  0  0  0  0  0  0  0  0
   57.3709   33.1625   45.5770 H   0  0  0  0  0  0  0  0  0  0  0  0
   59.2145   34.0472   46.9978 H   0  0  0  0  0  0  0  0  0  0  0  0
   62.8200   31.6369   46.7823 H   0  0  0  0  0  0  0  0  0  0  0  0
   64.7609   32.6242   47.9920 H   0  0  0  0  0  0  0  0  0  0  0  0
   64.3830   34.2594   49.8350 H   0  0  0  0  0  0  0  0  0  0  0  0
   62.0677   34.8650   50.5166 H   0  0  0  0  0  0  0  0  0  0  0  0
   59.7004   34.9179   49.9460 H   0  0  0  0  0  0  0  0  0  0  0  0
   59.0013   33.7183   48.7771 H   0  0  0  0  0  0  0  0  0  0  0  0
   58.4720   32.4950   50.4440 H   0  0  0  0  0  0  0  0  0  0  0  0
   60.0452   34.3267   52.1776 H   0  0  0  0  0  0  0  0  0  0  0  0
   58.2596   34.3778   51.8162 H   0  0  0  0  0  0  0  0  0  0  0  0
   59.5783   33.0574   53.9746 H   0  0  0  0  0  0  0  0  0  0  0  0
   57.8140   33.0239   53.4949 H   0  0  0  0  0  0  0  0  0  0  0  0
   56.4343   29.5421   54.0572 H   0  0  0  0  0  0  0  0  0  0  0  0
   56.1492   31.3225   54.1457 H   0  0  0  0  0  0  0  0  0  0  0  0
   54.9560   32.1100   51.6947 H   0  0  0  0  0  0  0  0  0  0  0  0
   52.7187   31.8082   50.6319 H   0  0  0  0  0  0  0  0  0  0  0  0
   51.3412   29.7951   51.1615 H   0  0  0  0  0  0  0  0  0  0  0  0
   52.2079   28.0700   52.7462 H   0  0  0  0  0  0  0  0  0  0  0  0
   54.4425   28.3650   53.8185 H   0  0  0  0  0  0  0  0  0  0  0  0
   61.0178   31.1314   52.8005 H   0  0  0  0  0  0  0  0  0  0  0  0
   60.0177   30.0221   51.7440 H   0  0  0  0  0  0  0  0  0  0  0  0
   61.3695   32.4601   51.0275 H   0  0  0  0  0  0  0  0  0  0  0  0
   60.3905   31.3094   50.0060 H   0  0  0  0  0  0  0  0  0  0  0  0
   59.1660   29.2236   45.6912 H   0  0  0  0  0  0  0  0  0  0  0  0
   56.8189   28.2129   47.2207 H   0  0  0  0  0  0  0  0  0  0  0  0
   58.0083   26.0640   47.6155 H   0  0  0  0  0  0  0  0  0  0  0  0
   59.5360   24.0400   44.7931 H   0  0  0  0  0  0  0  0  0  0  0  0
   60.0316   24.6022   46.4296 H   0  0  0  0  0  0  0  0  0  0  0  0
   57.2920   23.8760   46.3010 H   0  0  0  0  0  0  0  0  0  0  0  0
   57.9620   21.5600   46.3924 H   0  0  0  0  0  0  0  0  0  0  0  0
   60.0314   23.0687   44.4101 H   0  0  0  0  0  0  0  0  0  0  0  0
   60.1063   21.5318   44.1810 H   0  0  0  0  0  0  0  0  0  0  0  0
   57.5102   23.4271   43.7884 H   0  0  0  0  0  0  0  0  0  0  0  0
   57.1467   21.9528   43.4512 H   0  0  0  0  0  0  0  0  0  0  0  0
   58.8651   25.7543   43.3839 H   0  0  0  0  0  0  0  0  0  0  0  0
   57.6810   27.9091   42.9854 H   0  0  0  0  0  0  0  0  0  0  0  0
  1  2  2  0
  2  3  1  0
  3  4  1  0
  4  5  2  0
  5  6  1  0
  6  7  2  0
  7  8  1  0
  8  9  2  0
  9 10  1  0
 10 11  2  0
 11 12  1  0
 12 13  2  0
 13 14  1  0
 14 15  1  0
 15 16  1  0
 16 17  1  0
 17 18  1  0
 18 19  1  0
 19 20  2  0
 19 21  2  0
 19 22  1  0
 22 23  1  0
 23 24  2  0
 24 25  1  0
 25 26  2  0
 26 27  1  0
 27 28  2  0
 18 29  1  0
 29 30  1  0
  7 31  1  0
 31 32  1  0
 31 33  2  0
  2 34  1  0
 34 35  2  0
 35 36  1  0
 36 37  2  0
 37 38  1  0
 38 39  1  0
 39 40  1  0
 40 41  1  0
 41 42  1  0
 37 43  1  0
 43 44  2  0
 33  4  1  0
 44 34  1  0
 13  8  1  0
 30 15  1  0
 42 40  1  0
 28 23  1  0
  5 45  1  0
  6 46  1  0
  9 47  1  0
 10 48  1  0
 11 49  1  0
 12 50  1  0
 14 51  1  0
 14 52  1  0
 15 53  1  0
 16 54  1  0
 16 55  1  0
 17 56  1  0
 17 57  1  0
 22 58  1  0
 22 59  1  0
 24 60  1  0
 25 61  1  0
 26 62  1  0
 27 63  1  0
 28 64  1  0
 29 65  1  0
 29 66  1  0
 30 67  1  0
 30 68  1  0
 33 69  1  0
 35 70  1  0
 36 71  1  0
 38 72  1  0
 38 73  1  0
 39 74  1  0
 40 75  1  0
 41 76  1  0
 41 77  1  0
 42 78  1  0
 42 79  1  0
 43 80  1  0
 44 81  1  0
M  CHG  2   3  -1  15   1
M  END
>  <UniqueID>  (45) 
40

>  <SMILES>  (45) 
O=C([N-]c1ccc(-c2ccccc2C[NH+]2CCN(S(=O)(=O)Cc3ccccc3)CC2)c(F)c1)c1ccc(CNC2CC2)cc1

>  <Energy>  (45) 
377.0582309450732

>  <Genealogy>  (45) 
O=C([N-]c1ccc(-c2ccccc2C[NH+]2CCN(S(=O)(=O)Cc3ccccc3)CC2)c(F)c1)c1ccc(CNC2CC2)cc1 (protonated)
O=C([N-]c1ccc(-c2ccccc2C[NH+]2CCN(S(=O)(=O)Cc3ccccc3)CC2)c(F)c1)c1ccc(CNC2CC2)cc1 (3D coordinates assigned)
O=C([N-]c1ccc(-c2ccccc2C[NH+]2CCN(S(=O)(=O)Cc3ccccc3)CC2)c(F)c1)c1ccc(CNC2CC2)cc1 (nonaromatic ring conformer: 377.0582309450732 kcal/mol)

>  <smiles>  (45) 
O=C(Nc1ccc(-c2ccccc2CN2CCN(S(=O)(=O)Cc3ccccc3)CC2)c(F)c1)c1ccc(CNC2CC2)cc1

>  <score_type>  (45) 
oracle

>  <origin>  (45) 
adg

>  <m_score__min__energy>  (45) 
-11.27

>  <m_primary>  (45) 
energy

$$$$
45:0
     RDKit          3D

 32 33  0  0  0  0  0  0  0  0999 V2000
   52.8620   24.0960   44.7350 C   0  0  0  0  0  0  0  0  0  0  0  0
   53.6390   24.2590   45.9170 O   0  0  0  0  0  0  0  0  0  0  0  0
   55.0410   24.3190   45.9450 C   0  0  0  0  0  0  0  0  0  0  0  0
   55.8400   23.1610   45.9760 C   0  0  0  0  0  0  0  0  0  0  0  0
   57.2320   23.2550   46.0300 C   0  0  0  0  0  0  0  0  0  0  0  0
   57.9790   22.0680   46.0620 O   0  0  0  0  0  0  0  0  0  0  0  0
   59.0290   21.7480   45.1940 C   0  0  0  0  0  0  0  0  0  0  0  0
   60.1570   22.2990   45.2930 O   0  0  0  0  0  0  0  0  0  0  0  0
   57.8390   24.5220   46.0040 C   0  0  0  0  0  0  0  0  0  0  0  0
   57.0620   25.6910   45.9490 C   0  0  0  0  0  0  0  0  0  0  0  0
   57.7420   27.0110   45.9030 C   0  0  0  0  0  0  0  0  0  0  0  0
   58.9970   27.0590   45.8120 O   0  0  0  0  0  0  0  0  0  0  0  0
   57.0170   28.2440   46.0280 N   0  0  0  0  0  0  0  0  0  0  0  0
   57.1480   29.3520   45.3510 C   0  0  0  0  0  0  0  0  0  0  0  0
   58.3390   30.0050   45.4500 N   0  0  0  0  0  0  0  0  0  0  0  0
   58.5570   31.2260   44.8960 C   0  0  0  0  0  0  0  0  0  0  0  0
   57.5340   31.8700   44.2080 C   0  0  0  0  0  0  0  0  0  0  0  0
   56.3120   31.2210   44.0420 C   0  0  0  0  0  0  0  0  0  0  0  0
   56.1180   29.9340   44.5560 C   0  0  0  0  0  0  0  0  0  0  0  0
   54.9520   29.2660   44.1820 O   0  0  0  0  0  0  0  0  0  0  0  0
   55.6550   25.5790   45.9450 C   0  0  0  0  0  0  0  0  0  0  0  0
   54.8520   26.7150   45.9620 O   0  0  0  0  0  0  0  0  0  0  0  0
   51.8193   23.8773   45.0089 H   0  0  0  0  0  0  0  0  0  0  0  0
   52.8988   25.0214   44.1415 H   0  0  0  0  0  0  0  0  0  0  0  0
   53.2676   23.2634   44.1415 H   0  0  0  0  0  0  0  0  0  0  0  0
   55.3623   22.1703   45.9575 H   0  0  0  0  0  0  0  0  0  0  0  0
   58.8652   20.9975   44.4067 H   0  0  0  0  0  0  0  0  0  0  0  0
   58.9360   24.5994   46.0270 H   0  0  0  0  0  0  0  0  0  0  0  0
   59.5424   31.7054   44.9915 H   0  0  0  0  0  0  0  0  0  0  0  0
   57.6877   32.8798   43.7997 H   0  0  0  0  0  0  0  0  0  0  0  0
   55.4949   31.7235   43.5036 H   0  0  0  0  0  0  0  0  0  0  0  0
   54.7260   28.3330   44.5000 H   0  0  0  0  0  0  0  0  0  0  0  0
  1  2  1  0
  2  3  1  0
  3  4  2  0
  4  5  1  0
  5  6  1  0
  6  7  1  0
  7  8  2  0
  5  9  2  0
  9 10  1  0
 10 11  1  0
 11 12  2  0
 11 13  1  0
 13 14  2  3
 14 15  1  0
 15 16  1  0
 16 17  2  0
 17 18  1  0
 18 19  2  0
 19 20  1  0
 10 21  2  0
 21 22  1  0
 21  3  1  0
 19 14  1  0
  1 23  1  0
  1 24  1  0
  1 25  1  0
  4 26  1  0
  7 27  1  0
  9 28  1  0
 16 29  1  0
 17 30  1  0
 18 31  1  0
 20 32  1  0
M  CHG  2  15  -1  22  -1
M  END
>  <UniqueID>  (46) 
41

>  <SMILES>  (46) 
COc1cc(OC=O)cc(C(=O)N=c2[n-]cccc2O)c1[O-]

>  <Energy>  (46) 
58.03449468788909

>  <Genealogy>  (46) 
COc1cc(OC=O)cc(C(=O)N=c2[n-]cccc2O)c1[O-] (protonated)
COc1cc(OC=O)cc(C(=O)N=c2[n-]cccc2O)c1[O-] (3D coordinates assigned)
COc1cc(OC=O)cc(C(=O)N=c2[n-]cccc2O)c1[O-] (optimized conformer: 58.03449468788909 kcal/mol)

>  <smiles>  (46) 
COc1cc(OC=O)cc(C(=O)N=c2[nH]cccc2O)c1O

>  <score_type>  (46) 
oracle

>  <origin>  (46) 
adg

>  <m_score__min__energy>  (46) 
-12

>  <m_primary>  (46) 
energy

$$$$
46:0
     RDKit          3D

 49 52  0  0  0  0  0  0  0  0999 V2000
   57.1610   31.2980   53.6620 O   0  0  0  0  0  0  0  0  0  0  0  0
   56.8760   31.0070   52.4680 C   0  0  0  0  0  0  0  0  0  0  0  0
   57.2480   31.9510   51.3700 C   0  0  0  0  0  0  0  0  0  0  0  0
   59.0610   32.1170   51.2380 S   0  0  0  0  0  0  0  0  0  0  0  0
   59.2630   30.7560   50.0790 C   0  0  0  0  0  0  0  0  0  0  0  0
   59.2460   29.4610   50.4510 N   0  0  0  0  0  0  0  0  0  0  0  0
   59.4140   28.7430   49.3490 N   0  0  0  0  0  0  0  0  0  0  0  0
   59.5360   29.6080   48.3230 C   0  0  0  0  0  0  0  0  0  0  0  0
   59.6530   29.1690   46.8900 C   0  0  0  0  0  0  0  0  0  0  0  0
   58.3120   28.7740   46.3400 C   0  0  0  0  0  0  0  0  0  0  0  0
   57.8130   27.4770   46.5210 C   0  0  0  0  0  0  0  0  0  0  0  0
   56.5780   27.1530   45.9580 C   0  0  0  0  0  0  0  0  0  0  0  0
   56.1060   25.9930   46.0910 O   0  0  0  0  0  0  0  0  0  0  0  0
   55.8810   28.0920   45.2670 N   0  0  0  0  0  0  0  0  0  0  0  0
   56.3720   29.3480   45.1090 C   0  0  0  0  0  0  0  0  0  0  0  0
   55.7110   30.2060   44.4660 O   0  0  0  0  0  0  0  0  0  0  0  0
   57.5760   29.6820   45.6430 N   0  0  0  0  0  0  0  0  0  0  0  0
   59.4450   30.8880   48.7490 N   0  0  0  0  0  0  0  0  0  0  0  0
   59.4550   32.0970   47.9720 C   0  0  0  0  0  0  0  0  0  0  0  0
   60.3200   33.1460   48.3080 C   0  0  0  0  0  0  0  0  0  0  0  0
   60.3170   34.3270   47.5650 C   0  0  0  0  0  0  0  0  0  0  0  0
   59.4600   34.4650   46.4720 C   0  0  0  0  0  0  0  0  0  0  0  0
   58.6100   33.4100   46.0970 C   0  0  0  0  0  0  0  0  0  0  0  0
   57.6520   33.5730   44.9430 C   0  0  0  0  0  0  0  0  0  0  0  0
   58.1160   32.8490   43.8610 F   0  0  0  0  0  0  0  0  0  0  0  0
   57.5470   34.9060   44.5830 F   0  0  0  0  0  0  0  0  0  0  0  0
   56.3920   33.1170   45.2850 F   0  0  0  0  0  0  0  0  0  0  0  0
   58.5980   32.2350   46.8700 C   0  0  0  0  0  0  0  0  0  0  0  0
   56.2670   29.7520   52.1410 N   0  0  0  0  0  0  0  0  0  0  0  0
   54.9360   29.3350   52.4830 C   0  0  0  0  0  0  0  0  0  0  0  0
   54.6880   28.2390   53.3360 C   0  0  0  0  0  0  0  0  0  0  0  0
   55.7040   27.5740   53.9430 F   0  0  0  0  0  0  0  0  0  0  0  0
   53.3720   27.8600   53.6240 C   0  0  0  0  0  0  0  0  0  0  0  0
   52.3010   28.5780   53.0870 C   0  0  0  0  0  0  0  0  0  0  0  0
   52.5400   29.6910   52.2770 C   0  0  0  0  0  0  0  0  0  0  0  0
   53.8530   30.0750   51.9850 C   0  0  0  0  0  0  0  0  0  0  0  0
   54.0710   31.1520   51.1900 F   0  0  0  0  0  0  0  0  0  0  0  0
   56.8512   31.5696   50.4176 H   0  0  0  0  0  0  0  0  0  0  0  0
   56.8208   32.9389   51.5968 H   0  0  0  0  0  0  0  0  0  0  0  0
   60.0581   29.9980   46.2911 H   0  0  0  0  0  0  0  0  0  0  0  0
   60.3232   28.2980   46.8425 H   0  0  0  0  0  0  0  0  0  0  0  0
   58.3824   26.7307   47.0944 H   0  0  0  0  0  0  0  0  0  0  0  0
   61.0051   33.0383   49.1618 H   0  0  0  0  0  0  0  0  0  0  0  0
   60.9914   35.1510   47.8412 H   0  0  0  0  0  0  0  0  0  0  0  0
   59.4497   35.4049   45.9006 H   0  0  0  0  0  0  0  0  0  0  0  0
   57.9106   31.4171   46.6081 H   0  0  0  0  0  0  0  0  0  0  0  0
   53.1805   26.9943   54.2751 H   0  0  0  0  0  0  0  0  0  0  0  0
   51.2681   28.2668   53.3021 H   0  0  0  0  0  0  0  0  0  0  0  0
   51.6954   30.2655   51.8688 H   0  0  0  0  0  0  0  0  0  0  0  0
  1  2  2  0
  2  3  1  0
  3  4  1  0
  4  5  1  0
  5  6  2  0
  6  7  1  0
  7  8  2  0
  8  9  1  0
  9 10  1  0
 10 11  2  0
 11 12  1  0
 12 13  2  0
 12 14  1  0
 14 15  1  0
 15 16  2  0
 15 17  1  0
  8 18  1  0
 18 19  1  0
 19 20  2  0
 20 21  1  0
 21 22  2  0
 22 23  1  0
 23 24  1  0
 24 25  1  0
 24 26  1  0
 24 27  1  0
 23 28  2  0
  2 29  1  0
 29 30  1  0
 30 31  2  0
 31 32  1  0
 31 33  1  0
 33 34  2  0
 34 35  1  0
 35 36  2  0
 36 37  1  0
 18  5  1  0
 28 19  1  0
 36 30  1  0
 17 10  1  0
  3 38  1  0
  3 39  1  0
  9 40  1  0
  9 41  1  0
 11 42  1  0
 20 43  1  0
 21 44  1  0
 22 45  1  0
 28 46  1  0
 33 47  1  0
 34 48  1  0
 35 49  1  0
M  CHG  3  14  -1  17  -1  29  -1
M  END
>  <UniqueID>  (47) 
42

>  <SMILES>  (47) 
O=C(CSc1nnc(Cc2cc(=O)[n-]c(=O)[n-]2)n1-c1cccc(C(F)(F)F)c1)[N-]c1c(F)cccc1F

>  <Energy>  (47) 
89.8425909046251

>  <Genealogy>  (47) 
O=C(CSc1nnc(Cc2cc(=O)[n-]c(=O)[n-]2)n1-c1cccc(C(F)(F)F)c1)[N-]c1c(F)cccc1F (protonated)
O=C(CSc1nnc(Cc2cc(=O)[n-]c(=O)[n-]2)n1-c1cccc(C(F)(F)F)c1)[N-]c1c(F)cccc1F (3D coordinates assigned)
O=C(CSc1nnc(Cc2cc(=O)[n-]c(=O)[n-]2)n1-c1cccc(C(F)(F)F)c1)[N-]c1c(F)cccc1F (optimized conformer: 89.8425909046251 kcal/mol)

>  <smiles>  (47) 
O=C(CSc1nnc(Cc2cc(=O)[nH]c(=O)[nH]2)n1-c1cccc(C(F)(F)F)c1)Nc1c(F)cccc1F

>  <score_type>  (47) 
oracle

>  <origin>  (47) 
adg

>  <m_score__min__energy>  (47) 
-13.43

>  <m_primary>  (47) 
energy

$$$$
47:0
     RDKit          3D

 23 24  0  0  1  0  0  0  0  0999 V2000
   53.6910   22.6580   45.0520 O   0  0  0  0  0  0  0  0  0  0  0  0
   54.7990   23.2010   44.7580 C   0  0  0  0  0  0  0  0  0  0  0  0
   55.6430   22.4510   43.9470 O   0  0  0  0  0  0  0  0  0  0  0  0
   55.1730   24.5280   45.2350 C   0  0  0  0  0  0  0  0  0  0  0  0
   56.4850   24.9600   45.3140 C   0  0  0  0  0  0  0  0  0  0  0  0
   56.4050   26.2660   45.8120 C   0  0  0  0  0  0  0  0  0  0  0  0
   57.4060   27.0460   46.0430 N   0  0  0  0  0  0  0  0  0  0  0  0
   57.6880   28.1800   45.2600 N   0  0  0  0  0  0  0  0  0  0  0  0
   56.8380   29.1670   44.8990 C   0  0  0  0  0  0  0  0  0  0  0  0
   55.4890   29.2440   45.2480 O   0  0  0  0  0  0  0  0  0  0  0  0
   57.5190   30.0980   44.1250 C   0  0  0  0  0  0  0  0  0  0  0  0
   58.7900   29.6310   44.0400 N   0  0  0  0  0  0  0  0  0  0  0  0
   58.8890   28.4760   44.7240 C   0  0  0  0  0  0  0  0  0  0  0  0
   59.9710   27.8360   44.8020 O   0  0  0  0  0  0  0  0  0  0  0  0
   55.1210   26.5580   46.0040 N   0  0  0  0  0  0  0  0  0  0  0  0
   54.3540   25.5230   45.6630 N   0  0  0  0  0  0  0  0  0  0  0  0
   55.4250   21.4640   43.7440 H   0  0  0  0  0  0  0  0  0  0  0  0
   57.3925   24.3998   45.0445 H   0  0  0  0  0  0  0  0  0  0  0  0
   55.1050   30.0980   45.6050 H   0  0  0  0  0  0  0  0  0  0  0  0
   57.1143   31.0174   43.6768 H   0  0  0  0  0  0  0  0  0  0  0  0
   59.5700   30.1160   43.5110 H   0  0  0  0  0  0  0  0  0  0  0  0
   54.7320   27.4580   46.3680 H   0  0  0  0  0  0  0  0  0  0  0  0
   53.3090   25.4740   45.7110 H   0  0  0  0  0  0  0  0  0  0  0  0
  1  2  2  0
  2  3  1  0
  2  4  1  0
  4  5  2  0
  5  6  1  0
  6  7  2  0
  7  8  1  0
  8  9  1  0
  9 10  1  0
  9 11  2  0
 11 12  1  0
 12 13  1  0
 13 14  2  0
  6 15  1  0
 15 16  1  0
 16  4  1  0
 13  8  1  0
  3 17  1  0
  5 18  1  0
 10 19  1  0
 11 20  1  0
 12 21  1  0
 15 22  1  0
 16 23  1  0
M  END
>  <smiles>  (48) 
O=C(O)c1cc(=Nn2c(O)c[nH]c2=O)[nH][nH]1

>  <score_type>  (48) 
oracle

>  <origin>  (48) 
adg

>  <m_score__min__energy>  (48) 
-6.2800000000000002

>  <m_primary>  (48) 
energy

$$$$
48:0
     RDKit          3D

 34 35  0  0  0  0  0  0  0  0999 V2000
   55.0420   26.3950   45.9980 N   0  0  0  0  0  0  0  0  0  0  0  0
   56.6040   25.6910   45.7700 S   0  0  0  0  0  0  0  0  0  0  0  0
   56.8370   24.6360   46.8140 O   0  0  0  0  0  0  0  0  0  0  0  0
   56.6700   25.0490   44.4140 O   0  0  0  0  0  0  0  0  0  0  0  0
   57.8370   26.9400   45.9020 C   0  0  0  0  0  0  0  0  0  0  0  0
   58.0750   27.5660   47.1320 C   0  0  0  0  0  0  0  0  0  0  0  0
   59.0550   28.5550   47.2400 C   0  0  0  0  0  0  0  0  0  0  0  0
   59.8190   28.9230   46.1240 C   0  0  0  0  0  0  0  0  0  0  0  0
   60.8530   29.9110   46.2710 N   0  0  0  0  0  0  0  0  0  0  0  0
   60.6270   31.2710   46.6790 C   0  0  0  0  0  0  0  0  0  0  0  0
   61.7830   32.0410   47.5410 S   0  0  0  0  0  0  0  0  0  0  0  0
   59.3910   31.9580   46.4240 N   0  0  0  0  0  0  0  0  0  0  0  0
   58.9140   32.3430   45.2740 C   0  0  0  0  0  0  0  0  0  0  0  0
   57.9580   31.5620   44.4600 C   0  0  0  0  0  0  0  0  0  0  0  0
   58.0380   31.6300   43.0610 C   0  0  0  0  0  0  0  0  0  0  0  0
   57.1370   30.9130   42.2690 C   0  0  0  0  0  0  0  0  0  0  0  0
   56.1660   30.1060   42.8670 C   0  0  0  0  0  0  0  0  0  0  0  0
   56.1000   30.0040   44.2630 C   0  0  0  0  0  0  0  0  0  0  0  0
   55.1440   29.1920   44.8700 O   0  0  0  0  0  0  0  0  0  0  0  0
   57.0000   30.7230   45.0560 C   0  0  0  0  0  0  0  0  0  0  0  0
   59.5520   28.3200   44.8820 C   0  0  0  0  0  0  0  0  0  0  0  0
   58.5700   27.3320   44.7740 C   0  0  0  0  0  0  0  0  0  0  0  0
   55.1750   27.4310   46.0190 H   0  0  0  0  0  0  0  0  0  0  0  0
   57.4878   27.2776   48.0163 H   0  0  0  0  0  0  0  0  0  0  0  0
   59.2285   29.0486   48.2076 H   0  0  0  0  0  0  0  0  0  0  0  0
   61.8370   29.6220   46.0690 H   0  0  0  0  0  0  0  0  0  0  0  0
   59.2453   33.3159   44.8819 H   0  0  0  0  0  0  0  0  0  0  0  0
   58.8126   32.2498   42.5858 H   0  0  0  0  0  0  0  0  0  0  0  0
   57.1925   30.9842   41.1727 H   0  0  0  0  0  0  0  0  0  0  0  0
   55.4524   29.5500   42.2412 H   0  0  0  0  0  0  0  0  0  0  0  0
   55.2380   28.1830   44.8830 H   0  0  0  0  0  0  0  0  0  0  0  0
   56.9582   30.6317   46.1514 H   0  0  0  0  0  0  0  0  0  0  0  0
   60.1191   28.6277   43.9911 H   0  0  0  0  0  0  0  0  0  0  0  0
   58.3717   26.8603   43.8002 H   0  0  0  0  0  0  0  0  0  0  0  0
  1  2  1  0
  2  3  2  0
  2  4  2  0
  2  5  1  0
  5  6  2  0
  6  7  1  0
  7  8  2  0
  8  9  1  0
  9 10  1  0
 10 11  2  0
 10 12  1  0
 12 13  2  3
 13 14  1  0
 14 15  2  0
 15 16  1  0
 16 17  2  0
 17 18  1  0
 18 19  1  0
 18 20  2  0
  8 21  1  0
 21 22  2  0
 22  5  1  0
 20 14  1  0
  1 23  1  0
  6 24  1  0
  7 25  1  0
  9 26  1  0
 13 27  1  0
 15 28  1  0
 16 29  1  0
 17 30  1  0
 19 31  1  0
 20 32  1  0
 21 33  1  0
 22 34  1  0
M  CHG  1   1  -1
M  END
>  <UniqueID>  (49) 
43

>  <SMILES>  (49) 
[NH-]S(=O)(=O)c1ccc(NC(=S)N=Cc2cccc(O)c2)cc1

>  <Energy>  (49) 
44.5589507929275

>  <Genealogy>  (49) 
[NH-]S(=O)(=O)c1ccc(NC(=S)N=Cc2cccc(O)c2)cc1 (protonated)
[NH-]S(=O)(=O)c1ccc(NC(=S)N=Cc2cccc(O)c2)cc1 (3D coordinates assigned)
[NH-]S(=O)(=O)c1ccc(NC(=S)N=Cc2cccc(O)c2)cc1 (optimized conformer: 44.5589507929275 kcal/mol)

>  <smiles>  (49) 
NS(=O)(=O)c1ccc(NC(=S)N=Cc2cccc(O)c2)cc1

>  <score_type>  (49) 
oracle

>  <origin>  (49) 
adg

>  <m_score__min__energy>  (49) 
-11.35

>  <m_primary>  (49) 
energy

$$$$
49:0
     RDKit          3D

 66 69  0  0  0  0  0  0  0  0999 V2000
   52.6590   23.0700   45.6190 C   0  0  0  0  0  0  0  0  0  0  0  0
   53.8700   22.7450   44.9480 O   0  0  0  0  0  0  0  0  0  0  0  0
   54.9850   23.5970   44.8690 C   0  0  0  0  0  0  0  0  0  0  0  0
   55.0960   24.7560   45.6600 C   0  0  0  0  0  0  0  0  0  0  0  0
   56.2330   25.5640   45.5740 C   0  0  0  0  0  0  0  0  0  0  0  0
   57.2670   25.2330   44.6910 C   0  0  0  0  0  0  0  0  0  0  0  0
   58.4160   26.0260   44.6020 O   0  0  0  0  0  0  0  0  0  0  0  0
   58.8220   26.9340   45.5910 C   0  0  0  0  0  0  0  0  0  0  0  0
   59.1640   26.4450   46.8550 C   0  0  0  0  0  0  0  0  0  0  0  0
   59.4920   27.3260   47.8900 C   0  0  0  0  0  0  0  0  0  0  0  0
   59.4660   28.7110   47.6790 C   0  0  0  0  0  0  0  0  0  0  0  0
   59.7340   29.6020   48.7770 N   0  0  0  0  0  0  0  0  0  0  0  0
   60.4640   29.2250   49.9570 C   0  0  0  0  0  0  0  0  0  0  0  0
   61.0440   28.1080   50.0130 O   0  0  0  0  0  0  0  0  0  0  0  0
   60.5530   30.1930   51.1170 C   0  0  0  0  0  0  0  0  0  0  0  0
   61.4670   31.3830   50.7340 C   0  0  0  0  0  0  0  0  0  0  0  0
   61.1220   32.6380   51.5490 C   0  0  0  0  0  0  0  0  0  0  0  0
   59.7180   33.0920   51.3410 N   0  0  0  0  0  0  0  0  0  0  0  0
   59.6300   34.2120   50.3820 C   0  0  0  0  0  0  0  0  0  0  0  0
   60.0760   33.7620   49.0160 C   0  0  0  0  0  0  0  0  0  0  0  0
   59.1230   33.3880   48.0590 C   0  0  0  0  0  0  0  0  0  0  0  0
   59.5250   33.0000   46.7810 C   0  0  0  0  0  0  0  0  0  0  0  0
   60.8790   32.9920   46.4410 C   0  0  0  0  0  0  0  0  0  0  0  0
   61.8470   33.3810   47.3800 C   0  0  0  0  0  0  0  0  0  0  0  0
   63.3180   33.3660   47.0320 C   0  0  0  0  0  0  0  0  0  0  0  0
   63.5320   34.1560   45.9180 F   0  0  0  0  0  0  0  0  0  0  0  0
   63.7280   32.0770   46.7560 F   0  0  0  0  0  0  0  0  0  0  0  0
   64.0850   33.8480   48.0770 F   0  0  0  0  0  0  0  0  0  0  0  0
   61.4380   33.7420   48.6750 C   0  0  0  0  0  0  0  0  0  0  0  0
   58.7800   32.0050   50.9650 C   0  0  0  0  0  0  0  0  0  0  0  0
   59.1670   30.6750   51.6240 C   0  0  0  0  0  0  0  0  0  0  0  0
   59.1870   29.2000   46.3930 C   0  0  0  0  0  0  0  0  0  0  0  0
   58.8580   28.3200   45.3590 C   0  0  0  0  0  0  0  0  0  0  0  0
   57.1470   24.1050   43.8740 C   0  0  0  0  0  0  0  0  0  0  0  0
   56.0190   23.2660   43.9760 C   0  0  0  0  0  0  0  0  0  0  0  0
   55.8950   22.0890   43.2200 O   0  0  0  0  0  0  0  0  0  0  0  0
   56.9420   21.1450   43.0190 C   0  0  0  0  0  0  0  0  0  0  0  0
   52.8194   23.0270   46.7064 H   0  0  0  0  0  0  0  0  0  0  0  0
   52.3433   24.0847   45.3348 H   0  0  0  0  0  0  0  0  0  0  0  0
   51.8777   22.3498   45.3348 H   0  0  0  0  0  0  0  0  0  0  0  0
   54.2832   25.0273   46.3497 H   0  0  0  0  0  0  0  0  0  0  0  0
   56.3155   26.4631   46.2024 H   0  0  0  0  0  0  0  0  0  0  0  0
   59.1752   25.3602   47.0366 H   0  0  0  0  0  0  0  0  0  0  0  0
   59.7724   26.9291   48.8768 H   0  0  0  0  0  0  0  0  0  0  0  0
   59.5230   30.6220   48.6460 H   0  0  0  0  0  0  0  0  0  0  0  0
   60.9986   29.6513   51.9644 H   0  0  0  0  0  0  0  0  0  0  0  0
   62.5141   31.1070   50.9275 H   0  0  0  0  0  0  0  0  0  0  0  0
   61.3139   31.6087   49.6684 H   0  0  0  0  0  0  0  0  0  0  0  0
   61.2649   32.4144   52.6165 H   0  0  0  0  0  0  0  0  0  0  0  0
   61.7860   33.4468   51.2098 H   0  0  0  0  0  0  0  0  0  0  0  0
   58.5889   34.5627   50.3272 H   0  0  0  0  0  0  0  0  0  0  0  0
   60.2835   35.0287   50.7224 H   0  0  0  0  0  0  0  0  0  0  0  0
   58.0537   33.4005   48.3167 H   0  0  0  0  0  0  0  0  0  0  0  0
   58.7720   32.6990   46.0378 H   0  0  0  0  0  0  0  0  0  0  0  0
   61.1886   32.6795   45.4328 H   0  0  0  0  0  0  0  0  0  0  0  0
   62.1922   34.0116   49.4290 H   0  0  0  0  0  0  0  0  0  0  0  0
   57.7652   32.2814   51.2870 H   0  0  0  0  0  0  0  0  0  0  0  0
   58.8228   31.8745   49.8736 H   0  0  0  0  0  0  0  0  0  0  0  0
   59.2092   30.8114   52.7147 H   0  0  0  0  0  0  0  0  0  0  0  0
   58.4125   29.9185   51.3624 H   0  0  0  0  0  0  0  0  0  0  0  0
   59.2276   30.2819   46.1984 H   0  0  0  0  0  0  0  0  0  0  0  0
   58.6260   28.7136   44.3584 H   0  0  0  0  0  0  0  0  0  0  0  0
   57.9382   23.8706   43.1466 H   0  0  0  0  0  0  0  0  0  0  0  0
   57.3203   20.8039   43.9940 H   0  0  0  0  0  0  0  0  0  0  0  0
   56.5558   20.2839   42.4539 H   0  0  0  0  0  0  0  0  0  0  0  0
   57.7587   21.6180   42.4539 H   0  0  0  0  0  0  0  0  0  0  0  0
  1  2  1  0
  2  3  1  0
  3  4  2  0
  4  5  1  0
  5  6  2  0
  6  7  1  0
  7  8  1  0
  8  9  2  0
  9 10  1  0
 10 11  2  0
 11 12  1  0
 12 13  1  0
 13 14  2  0
 13 15  1  0
 15 16  1  0
 16 17  1  0
 17 18  1  0
 18 19  1  0
 19 20  1  0
 20 21  2  0
 21 22  1  0
 22 23  2  0
 23 24  1  0
 24 25  1  0
 25 26  1  0
 25 27  1  0
 25 28  1  0
 24 29  2  0
 18 30  1  0
 30 31  1  0
 11 32  1  0
 32 33  2  0
  6 34  1  0
 34 35  2  0
 35 36  1  0
 36 37  1  0
 35  3  1  0
 33  8  1  0
 31 15  1  0
 29 20  1  0
  1 38  1  0
  1 39  1  0
  1 40  1  0
  4 41  1  0
  5 42  1  0
  9 43  1  0
 10 44  1  0
 12 45  1  0
 15 46  1  0
 16 47  1  0
 16 48  1  0
 17 49  1  0
 17 50  1  0
 19 51  1  0
 19 52  1  0
 21 53  1  0
 22 54  1  0
 23 55  1  0
 29 56  1  0
 30 57  1  0
 30 58  1  0
 31 59  1  0
 31 60  1  0
 32 61  1  0
 33 62  1  0
 34 63  1  0
 37 64  1  0
 37 65  1  0
 37 66  1  0
M  END
>  <UniqueID>  (50) 
44

>  <SMILES>  (50) 
COc1ccc(Oc2ccc(NC(=O)C3CCN(Cc4cccc(C(F)(F)F)c4)CC3)cc2)cc1OC

>  <Energy>  (50) 
89.03835300037218

>  <Genealogy>  (50) 
COc1ccc(Oc2ccc(NC(=O)C3CCN(Cc4cccc(C(F)(F)F)c4)CC3)cc2)cc1OC (3D coordinates assigned)
COc1ccc(Oc2ccc(NC(=O)C3CCN(Cc4cccc(C(F)(F)F)c4)CC3)cc2)cc1OC (nonaromatic ring conformer: 89.03835300037218 kcal/mol)

>  <smiles>  (50) 
COc1ccc(Oc2ccc(NC(=O)C3CCN(Cc4cccc(C(F)(F)F)c4)CC3)cc2)cc1OC

>  <score_type>  (50) 
oracle

>  <origin>  (50) 
adg

>  <m_score__min__energy>  (50) 
-8.5800000000000001

>  <m_primary>  (50) 
energy

$$$$
50:0
     RDKit          3D

 41 44  0  0  0  0  0  0  0  0999 V2000
   59.3030   31.5470   45.5860 O   0  0  0  0  0  0  0  0  0  0  0  0
   59.0700   30.3800   46.0080 C   0  0  0  0  0  0  0  0  0  0  0  0
   57.8990   29.7370   45.6500 C   0  0  0  0  0  0  0  0  0  0  0  0
   56.8470   30.1280   44.8580 C   0  0  0  0  0  0  0  0  0  0  0  0
   55.9830   29.0440   44.8910 C   0  0  0  0  0  0  0  0  0  0  0  0
   54.7680   28.9920   44.2210 O   0  0  0  0  0  0  0  0  0  0  0  0
   56.4490   28.0260   45.6510 N   0  0  0  0  0  0  0  0  0  0  0  0
   57.6330   28.4850   46.1060 C   0  0  0  0  0  0  0  0  0  0  0  0
   58.4930   27.8180   46.9270 N   0  0  0  0  0  0  0  0  0  0  0  0
   58.1550   26.4790   47.4410 C   0  0  0  0  0  0  0  0  0  0  0  0
   57.5330   25.6410   46.3540 C   0  0  0  0  0  0  0  0  0  0  0  0
   56.2560   25.0810   46.5290 C   0  0  0  0  0  0  0  0  0  0  0  0
   55.6690   24.3310   45.5050 C   0  0  0  0  0  0  0  0  0  0  0  0
   56.3480   24.1380   44.3000 C   0  0  0  0  0  0  0  0  0  0  0  0
   57.6160   24.6950   44.1150 C   0  0  0  0  0  0  0  0  0  0  0  0
   58.2070   25.4450   45.1360 C   0  0  0  0  0  0  0  0  0  0  0  0
   59.6620   28.4520   47.2960 C   0  0  0  0  0  0  0  0  0  0  0  0
   60.4670   27.8620   48.0700 O   0  0  0  0  0  0  0  0  0  0  0  0
   59.9580   29.7260   46.8300 N   0  0  0  0  0  0  0  0  0  0  0  0
   61.2250   30.3920   47.2060 C   0  0  0  0  0  0  0  0  0  0  0  0
   60.9570   31.7180   47.8830 C   0  0  0  0  0  0  0  0  0  0  0  0
   61.7740   32.8330   47.6110 C   0  0  0  0  0  0  0  0  0  0  0  0
   62.8240   32.7320   46.7590 F   0  0  0  0  0  0  0  0  0  0  0  0
   61.5170   34.0630   48.2240 C   0  0  0  0  0  0  0  0  0  0  0  0
   60.4500   34.1940   49.1140 C   0  0  0  0  0  0  0  0  0  0  0  0
   59.6370   33.0950   49.3970 C   0  0  0  0  0  0  0  0  0  0  0  0
   59.8850   31.8610   48.7890 C   0  0  0  0  0  0  0  0  0  0  0  0
   59.0820   30.8090   49.0900 F   0  0  0  0  0  0  0  0  0  0  0  0
   56.7196   31.0801   44.3220 H   0  0  0  0  0  0  0  0  0  0  0  0
   59.0710   25.9864   47.7992 H   0  0  0  0  0  0  0  0  0  0  0  0
   57.4354   26.5846   48.2662 H   0  0  0  0  0  0  0  0  0  0  0  0
   55.7160   25.2332   47.4752 H   0  0  0  0  0  0  0  0  0  0  0  0
   54.6706   23.8923   45.6489 H   0  0  0  0  0  0  0  0  0  0  0  0
   55.8844   23.5473   43.4962 H   0  0  0  0  0  0  0  0  0  0  0  0
   58.1497   24.5432   43.1652 H   0  0  0  0  0  0  0  0  0  0  0  0
   59.2043   25.8839   44.9856 H   0  0  0  0  0  0  0  0  0  0  0  0
   61.7830   29.7416   47.8957 H   0  0  0  0  0  0  0  0  0  0  0  0
   61.8104   30.5753   46.2929 H   0  0  0  0  0  0  0  0  0  0  0  0
   62.1575   34.9298   48.0042 H   0  0  0  0  0  0  0  0  0  0  0  0
   60.2495   35.1638   49.5928 H   0  0  0  0  0  0  0  0  0  0  0  0
   58.7983   33.2005   50.1009 H   0  0  0  0  0  0  0  0  0  0  0  0
  1  2  2  0
  2  3  1  0
  3  4  1  0
  4  5  2  0
  5  6  1  0
  5  7  1  0
  7  8  1  0
  8  9  1  0
  9 10  1  0
 10 11  1  0
 11 12  2  0
 12 13  1  0
 13 14  2  0
 14 15  1  0
 15 16  2  0
  9 17  1  0
 17 18  2  0
 17 19  1  0
 19 20  1  0
 20 21  1  0
 21 22  2  0
 22 23  1  0
 22 24  1  0
 24 25  2  0
 25 26  1  0
 26 27  2  0
 27 28  1  0
 19  2  1  0
 27 21  1  0
  8  3  2  0
 16 11  1  0
  4 29  1  0
 10 30  1  0
 10 31  1  0
 12 32  1  0
 13 33  1  0
 14 34  1  0
 15 35  1  0
 16 36  1  0
 20 37  1  0
 20 38  1  0
 24 39  1  0
 25 40  1  0
 26 41  1  0
M  CHG  2   6  -1   7  -1
M  END
>  <UniqueID>  (51) 
45

>  <SMILES>  (51) 
O=c1c2cc([O-])[n-]c2n(Cc2ccccc2)c(=O)n1Cc1c(F)cccc1F

>  <Energy>  (51) 
86.41449864859695

>  <Genealogy>  (51) 
O=c1c2cc([O-])[n-]c2n(Cc2ccccc2)c(=O)n1Cc1c(F)cccc1F (protonated)
O=c1c2cc([O-])[n-]c2n(Cc2ccccc2)c(=O)n1Cc1c(F)cccc1F (3D coordinates assigned)
O=c1c2cc([O-])[n-]c2n(Cc2ccccc2)c(=O)n1Cc1c(F)cccc1F (optimized conformer: 86.41449864859695 kcal/mol)

>  <smiles>  (51) 
O=c1c2cc(O)[nH]c2n(Cc2ccccc2)c(=O)n1Cc1c(F)cccc1F

>  <score_type>  (51) 
oracle

>  <origin>  (51) 
adg

>  <m_score__min__energy>  (51) 
-12.029999999999999

>  <m_primary>  (51) 
energy

$$$$
51:0
     RDKit          3D

 35 37  0  0  0  0  0  0  0  0999 V2000
   55.8400   19.9390   44.8960 C   0  0  0  0  0  0  0  0  0  0  0  0
   57.0720   20.6380   44.5090 N   0  0  2  0  0  0  0  0  0  0  0  0
   57.6720   21.2920   45.6460 C   0  0  0  0  0  0  0  0  0  0  0  0
   58.1380   20.6710   46.6380 O   0  0  0  0  0  0  0  0  0  0  0  0
   57.7060   22.7400   45.4960 C   0  0  0  0  0  0  0  0  0  0  0  0
   58.1850   23.7360   46.3420 C   0  0  0  0  0  0  0  0  0  0  0  0
   58.0870   25.0700   45.9110 C   0  0  0  0  0  0  0  0  0  0  0  0
   57.5200   25.3890   44.6520 C   0  0  0  0  0  0  0  0  0  0  0  0
   57.4400   26.7690   44.2470 N   0  0  0  0  0  0  0  0  0  0  0  0
   57.6520   27.8870   45.1670 C   0  0  0  0  0  0  0  0  0  0  0  0
   57.5800   29.2000   44.4330 C   0  0  0  0  0  0  0  0  0  0  0  0
   56.7530   29.3370   43.3070 C   0  0  0  0  0  0  0  0  0  0  0  0
   56.6570   30.5670   42.6490 C   0  0  0  0  0  0  0  0  0  0  0  0
   57.3760   31.6700   43.1190 C   0  0  0  0  0  0  0  0  0  0  0  0
   58.1880   31.5450   44.2500 C   0  0  0  0  0  0  0  0  0  0  0  0
   58.2860   30.3170   44.9110 C   0  0  0  0  0  0  0  0  0  0  0  0
   57.0470   24.3430   43.8200 C   0  0  0  0  0  0  0  0  0  0  0  0
   57.1580   23.0330   44.2810 C   0  0  0  0  0  0  0  0  0  0  0  0
   56.7780   21.7690   43.6650 C   0  0  0  0  0  0  0  0  0  0  0  0
   56.2780   21.6630   42.5120 O   0  0  0  0  0  0  0  0  0  0  0  0
   55.7701   19.8993   45.9931 H   0  0  0  0  0  0  0  0  0  0  0  0
   54.9703   20.4782   44.4924 H   0  0  0  0  0  0  0  0  0  0  0  0
   55.8567   18.9158   44.4924 H   0  0  0  0  0  0  0  0  0  0  0  0
   57.7580   19.9970   44.0460 H   0  0  0  0  0  0  0  0  0  0  0  0
   58.6267   23.4866   47.3181 H   0  0  0  0  0  0  0  0  0  0  0  0
   58.4556   25.8780   46.5601 H   0  0  0  0  0  0  0  0  0  0  0  0
   57.2180   26.9750   43.2460 H   0  0  0  0  0  0  0  0  0  0  0  0
   56.8760   27.8657   45.9463 H   0  0  0  0  0  0  0  0  0  0  0  0
   58.6497   27.7887   45.6198 H   0  0  0  0  0  0  0  0  0  0  0  0
   56.1783   28.4734   42.9409 H   0  0  0  0  0  0  0  0  0  0  0  0
   56.0154   30.6668   41.7611 H   0  0  0  0  0  0  0  0  0  0  0  0
   57.3028   32.6364   42.5987 H   0  0  0  0  0  0  0  0  0  0  0  0
   58.7509   32.4144   44.6206 H   0  0  0  0  0  0  0  0  0  0  0  0
   58.9171   30.2250   45.8072 H   0  0  0  0  0  0  0  0  0  0  0  0
   56.6042   24.5600   42.8367 H   0  0  0  0  0  0  0  0  0  0  0  0
  1  2  1  0
  2  3  1  0
  3  4  2  0
  3  5  1  0
  5  6  2  0
  6  7  1  0
  7  8  2  0
  8  9  1  0
  9 10  1  0
 10 11  1  0
 11 12  2  0
 12 13  1  0
 13 14  2  0
 14 15  1  0
 15 16  2  0
  8 17  1  0
 17 18  2  0
 18 19  1  0
 19 20  2  0
 19  2  1  0
 18  5  1  0
 16 11  1  0
  1 21  1  0
  1 22  1  0
  1 23  1  0
  2 24  1  6
  6 25  1  0
  7 26  1  0
  9 27  1  0
 10 28  1  0
 10 29  1  0
 12 30  1  0
 13 31  1  0
 14 32  1  0
 15 33  1  0
 16 34  1  0
 17 35  1  0
M  CHG  1   2   1
M  END
>  <UniqueID>  (52) 
46

>  <SMILES>  (52) 
C[N@@H+]1C(=O)c2ccc(NCc3ccccc3)cc2C1=O

>  <Energy>  (52) 
61.01723059853014

>  <Genealogy>  (52) 
C[NH+]1C(=O)c2ccc(NCc3ccccc3)cc2C1=O (protonated)
C[N@@H+]1C(=O)c2ccc(NCc3ccccc3)cc2C1=O (chirality)
C[N@@H+]1C(=O)c2ccc(NCc3ccccc3)cc2C1=O (3D coordinates assigned)
C[N@@H+]1C(=O)c2ccc(NCc3ccccc3)cc2C1=O (nonaromatic ring conformer: 61.01723059853014 kcal/mol)

>  <smiles>  (52) 
CN1C(=O)c2ccc(NCc3ccccc3)cc2C1=O

>  <score_type>  (52) 
oracle

>  <origin>  (52) 
adg

>  <m_score__min__energy>  (52) 
-6.4100000000000001

>  <m_primary>  (52) 
energy

$$$$
52:0
     RDKit          3D

 50 52  0  0  0  0  0  0  0  0999 V2000
   60.8710   30.5530   46.3790 C   0  0  0  0  0  0  0  0  0  0  0  0
   59.7650   29.6450   46.7220 N   0  0  0  0  0  0  0  0  0  0  0  0
   59.9100   29.1330   48.0960 C   0  0  0  0  0  0  0  0  0  0  0  0
   59.7000   30.2250   49.0980 C   0  0  0  0  0  0  0  0  0  0  0  0
   58.5300   30.6110   49.3650 O   0  0  0  0  0  0  0  0  0  0  0  0
   60.8310   30.7970   49.7660 N   0  0  0  0  0  0  0  0  0  0  0  0
   61.6630   31.8540   49.2650 C   0  0  0  0  0  0  0  0  0  0  0  0
   62.8210   31.5830   48.5130 C   0  0  0  0  0  0  0  0  0  0  0  0
   63.6330   32.6310   48.0690 C   0  0  0  0  0  0  0  0  0  0  0  0
   63.3080   33.9520   48.3800 C   0  0  0  0  0  0  0  0  0  0  0  0
   62.1710   34.2300   49.1430 C   0  0  0  0  0  0  0  0  0  0  0  0
   61.3540   33.1860   49.5940 C   0  0  0  0  0  0  0  0  0  0  0  0
   59.9380   33.5670   50.5640 Cl  0  0  0  0  0  0  0  0  0  0  0  0
   59.7730   28.3100   45.5930 S   0  0  0  0  0  0  0  0  0  0  0  0
   59.7970   28.8500   44.1900 O   0  0  0  0  0  0  0  0  0  0  0  0
   61.0050   27.4720   45.7970 O   0  0  0  0  0  0  0  0  0  0  0  0
   58.3120   27.3290   45.7600 C   0  0  0  0  0  0  0  0  0  0  0  0
   58.3640   26.0350   46.3000 C   0  0  0  0  0  0  0  0  0  0  0  0
   57.1170   25.4560   46.4910 C   0  0  0  0  0  0  0  0  0  0  0  0
   55.9450   26.5540   45.9970 S   0  0  0  0  0  0  0  0  0  0  0  0
   57.0060   27.7660   45.5190 C   0  0  0  0  0  0  0  0  0  0  0  0
   56.5820   29.0470   44.9420 C   0  0  0  0  0  0  0  0  0  0  0  0
   55.4030   29.1770   44.5210 O   0  0  0  0  0  0  0  0  0  0  0  0
   57.5130   30.1270   44.8330 N   0  0  0  0  0  0  0  0  0  0  0  0
   57.0800   31.4990   44.5770 C   0  0  0  0  0  0  0  0  0  0  0  0
   57.9450   32.4660   45.3380 C   0  0  0  0  0  0  0  0  0  0  0  0
   58.6100   33.5010   44.6600 C   0  0  0  0  0  0  0  0  0  0  0  0
   59.3500   34.4470   45.3750 C   0  0  0  0  0  0  0  0  0  0  0  0
   59.4290   34.3680   46.7680 C   0  0  0  0  0  0  0  0  0  0  0  0
   58.7600   33.3490   47.4500 C   0  0  0  0  0  0  0  0  0  0  0  0
   58.0150   32.4040   46.7390 C   0  0  0  0  0  0  0  0  0  0  0  0
   61.3334   30.9326   47.3021 H   0  0  0  0  0  0  0  0  0  0  0  0
   61.6231   30.0084   45.7893 H   0  0  0  0  0  0  0  0  0  0  0  0
   60.4833   31.3967   45.7893 H   0  0  0  0  0  0  0  0  0  0  0  0
   59.1659   28.3408   48.2655 H   0  0  0  0  0  0  0  0  0  0  0  0
   60.9286   28.7359   48.2173 H   0  0  0  0  0  0  0  0  0  0  0  0
   63.0883   30.5432   48.2736 H   0  0  0  0  0  0  0  0  0  0  0  0
   64.5312   32.4135   47.4724 H   0  0  0  0  0  0  0  0  0  0  0  0
   63.9467   34.7741   48.0246 H   0  0  0  0  0  0  0  0  0  0  0  0
   61.9171   35.2714   49.3900 H   0  0  0  0  0  0  0  0  0  0  0  0
   59.3067   25.5259   46.5492 H   0  0  0  0  0  0  0  0  0  0  0  0
   56.9284   24.4509   46.8962 H   0  0  0  0  0  0  0  0  0  0  0  0
   58.5290   29.9180   44.9530 H   0  0  0  0  0  0  0  0  0  0  0  0
   57.1589   31.7102   43.5004 H   0  0  0  0  0  0  0  0  0  0  0  0
   56.0368   31.6140   44.9063 H   0  0  0  0  0  0  0  0  0  0  0  0
   58.5483   33.5672   43.5637 H   0  0  0  0  0  0  0  0  0  0  0  0
   59.8710   35.2549   44.8404 H   0  0  0  0  0  0  0  0  0  0  0  0
   60.0185   35.1089   47.3279 H   0  0  0  0  0  0  0  0  0  0  0  0
   58.8195   33.2902   48.5468 H   0  0  0  0  0  0  0  0  0  0  0  0
   57.4812   31.6083   47.2793 H   0  0  0  0  0  0  0  0  0  0  0  0
  1  2  1  0
  2  3  1  0
  3  4  1  0
  4  5  2  0
  4  6  1  0
  6  7  1  0
  7  8  2  0
  8  9  1  0
  9 10  2  0
 10 11  1  0
 11 12  2  0
 12 13  1  0
  2 14  1  0
 14 15  2  0
 14 16  2  0
 14 17  1  0
 17 18  1  0
 18 19  2  0
 19 20  1  0
 20 21  1  0
 21 22  1  0
 22 23  2  0
 22 24  1  0
 24 25  1  0
 25 26  1  0
 26 27  2  0
 27 28  1  0
 28 29  2  0
 29 30  1  0
 30 31  2  0
 12  7  1  0
 21 17  2  0
 31 26  1  0
  1 32  1  0
  1 33  1  0
  1 34  1  0
  3 35  1  0
  3 36  1  0
  8 37  1  0
  9 38  1  0
 10 39  1  0
 11 40  1  0
 18 41  1  0
 19 42  1  0
 24 43  1  0
 25 44  1  0
 25 45  1  0
 27 46  1  0
 28 47  1  0
 29 48  1  0
 30 49  1  0
 31 50  1  0
M  CHG  1   6  -1
M  END
>  <UniqueID>  (53) 
47

>  <SMILES>  (53) 
CN(CC(=O)[N-]c1ccccc1Cl)S(=O)(=O)c1ccsc1C(=O)NCc1ccccc1

>  <Energy>  (53) 
80.92530956449167

>  <Genealogy>  (53) 
CN(CC(=O)[N-]c1ccccc1Cl)S(=O)(=O)c1ccsc1C(=O)NCc1ccccc1 (protonated)
CN(CC(=O)[N-]c1ccccc1Cl)S(=O)(=O)c1ccsc1C(=O)NCc1ccccc1 (3D coordinates assigned)
CN(CC(=O)[N-]c1ccccc1Cl)S(=O)(=O)c1ccsc1C(=O)NCc1ccccc1 (optimized conformer: 80.92530956449167 kcal/mol)

>  <smiles>  (53) 
CN(CC(=O)Nc1ccccc1Cl)S(=O)(=O)c1ccsc1C(=O)NCc1ccccc1

>  <score_type>  (53) 
oracle

>  <origin>  (53) 
adg

>  <m_score__min__energy>  (53) 
-9.8800000000000008

>  <m_primary>  (53) 
energy

$$$$
53:0
     RDKit          3D

 43 45  0  0  0  0  0  0  0  0999 V2000
   59.6480   35.2550   46.2820 C   0  0  0  0  0  0  0  0  0  0  0  0
   59.4010   34.9780   47.6550 O   0  0  0  0  0  0  0  0  0  0  0  0
   59.3660   33.6760   48.1690 C   0  0  0  0  0  0  0  0  0  0  0  0
   59.3880   33.4900   49.4170 O   0  0  0  0  0  0  0  0  0  0  0  0
   59.3000   32.5210   47.2460 C   0  0  0  0  0  0  0  0  0  0  0  0
   60.4460   31.7500   46.9940 C   0  0  0  0  0  0  0  0  0  0  0  0
   60.3910   30.6680   46.1130 C   0  0  0  0  0  0  0  0  0  0  0  0
   59.1880   30.3290   45.4700 C   0  0  0  0  0  0  0  0  0  0  0  0
   58.0220   31.0720   45.7540 C   0  0  0  0  0  0  0  0  0  0  0  0
   58.0930   32.1740   46.6150 C   0  0  0  0  0  0  0  0  0  0  0  0
   56.7550   30.7480   45.1640 N   0  0  0  0  0  0  0  0  0  0  0  0
   56.2720   29.4400   44.8270 C   0  0  0  0  0  0  0  0  0  0  0  0
   55.1400   29.3390   44.2830 O   0  0  0  0  0  0  0  0  0  0  0  0
   57.0210   28.2090   45.1690 C   0  0  0  0  0  0  0  0  0  0  0  0
   56.3180   27.0800   45.6250 C   0  0  0  0  0  0  0  0  0  0  0  0
   56.9990   25.9130   46.0010 C   0  0  0  0  0  0  0  0  0  0  0  0
   56.2340   24.7030   46.4670 C   0  0  0  0  0  0  0  0  0  0  0  0
   56.7590   24.2290   47.8290 C   0  0  0  0  0  0  0  0  0  0  0  0
   56.0940   22.9230   48.2970 C   0  0  0  0  0  0  0  0  0  0  0  0
   57.0140   21.7860   48.2750 N   0  0  0  0  0  0  0  0  0  0  0  0
   58.3950   25.8650   45.8910 C   0  0  0  0  0  0  0  0  0  0  0  0
   59.1020   26.9730   45.4210 C   0  0  0  0  0  0  0  0  0  0  0  0
   58.4260   28.1470   45.0430 C   0  0  0  0  0  0  0  0  0  0  0  0
   59.1610   29.2610   44.5050 N   0  0  0  0  0  0  0  0  0  0  0  0
   60.3780   36.0736   46.1987 H   0  0  0  0  0  0  0  0  0  0  0  0
   60.0489   34.3551   45.7927 H   0  0  0  0  0  0  0  0  0  0  0  0
   58.7082   35.5505   45.7927 H   0  0  0  0  0  0  0  0  0  0  0  0
   61.3934   31.9999   47.4939 H   0  0  0  0  0  0  0  0  0  0  0  0
   61.2975   30.0755   45.9204 H   0  0  0  0  0  0  0  0  0  0  0  0
   57.1915   32.7765   46.8001 H   0  0  0  0  0  0  0  0  0  0  0  0
   55.2203   27.1124   45.6876 H   0  0  0  0  0  0  0  0  0  0  0  0
   55.1687   24.9612   46.5592 H   0  0  0  0  0  0  0  0  0  0  0  0
   56.3651   23.8940   45.7333 H   0  0  0  0  0  0  0  0  0  0  0  0
   57.8437   24.0636   47.7504 H   0  0  0  0  0  0  0  0  0  0  0  0
   56.5201   25.0081   48.5679 H   0  0  0  0  0  0  0  0  0  0  0  0
   55.7295   23.0618   49.3255 H   0  0  0  0  0  0  0  0  0  0  0  0
   55.2708   22.6999   47.6024 H   0  0  0  0  0  0  0  0  0  0  0  0
   56.4960   20.9180   48.5400 H   0  0  0  0  0  0  0  0  0  0  0  0
   57.7740   21.9400   48.9770 H   0  0  0  0  0  0  0  0  0  0  0  0
   58.9359   24.9506   46.1761 H   0  0  0  0  0  0  0  0  0  0  0  0
   60.1985   26.9275   45.3455 H   0  0  0  0  0  0  0  0  0  0  0  0
   58.7060   29.5960   43.6240 H   0  0  0  0  0  0  0  0  0  0  0  0
   60.1330   28.9730   44.2430 H   0  0  0  0  0  0  0  0  0  0  0  0
  1  2  1  0
  2  3  1  0
  3  4  2  0
  3  5  1  0
  5  6  2  0
  6  7  1  0
  7  8  2  0
  8  9  1  0
  9 10  2  0
  9 11  1  0
 11 12  1  0
 12 13  2  0
 12 14  1  0
 14 15  2  0
 15 16  1  0
 16 17  1  0
 17 18  1  0
 18 19  1  0
 19 20  1  0
 16 21  2  0
 21 22  1  0
 22 23  2  0
 23 24  1  0
 10  5  1  0
 23 14  1  0
 24  8  1  0
  1 25  1  0
  1 26  1  0
  1 27  1  0
  6 28  1  0
  7 29  1  0
 10 30  1  0
 15 31  1  0
 17 32  1  0
 17 33  1  0
 18 34  1  0
 18 35  1  0
 19 36  1  0
 19 37  1  0
 20 38  1  0
 20 39  1  0
 21 40  1  0
 22 41  1  0
 24 42  1  0
 24 43  1  0
M  CHG  2  11  -1  24   1
M  END
>  <UniqueID>  (54) 
48

>  <SMILES>  (54) 
COC(=O)c1ccc2c(c1)[N-]C(=O)c1cc(CCCN)ccc1[NH2+]2

>  <Energy>  (54) 
52.273452096712354

>  <Genealogy>  (54) 
COC(=O)c1ccc2c(c1)[N-]C(=O)c1cc(CCCN)ccc1[NH2+]2 (protonated)
COC(=O)c1ccc2c(c1)[N-]C(=O)c1cc(CCCN)ccc1[NH2+]2 (3D coordinates assigned)
COC(=O)c1ccc2c(c1)[N-]C(=O)c1cc(CCCN)ccc1[NH2+]2 (nonaromatic ring conformer: 52.273452096712354 kcal/mol)

>  <smiles>  (54) 
COC(=O)c1ccc2c(c1)NC(=O)c1cc(CCCN)ccc1N2

>  <score_type>  (54) 
oracle

>  <origin>  (54) 
adg

>  <m_score__min__energy>  (54) 
-8.0999999999999996

>  <m_primary>  (54) 
energy

$$$$
54:0
     RDKit          3D

 62 66  0  0  0  0  0  0  0  0999 V2000
   57.3930   27.5510   47.1450 O   0  0  0  0  0  0  0  0  0  0  0  0
   56.9030   27.1090   46.0700 C   0  0  0  0  0  0  0  0  0  0  0  0
   56.4380   25.7580   45.9930 N   0  0  0  0  0  0  0  0  0  0  0  0
   57.2150   24.6340   45.5590 C   0  0  0  0  0  0  0  0  0  0  0  0
   58.5430   24.4470   45.9810 C   0  0  0  0  0  0  0  0  0  0  0  0
   59.2730   23.3430   45.5330 C   0  0  0  0  0  0  0  0  0  0  0  0
   58.6850   22.4130   44.6740 C   0  0  0  0  0  0  0  0  0  0  0  0
   57.3430   22.5590   44.2820 C   0  0  0  0  0  0  0  0  0  0  0  0
   56.7040   21.5760   43.3330 C   0  0  0  0  0  0  0  0  0  0  0  0
   57.6600   20.8810   42.6120 F   0  0  0  0  0  0  0  0  0  0  0  0
   55.9450   20.6600   44.0370 F   0  0  0  0  0  0  0  0  0  0  0  0
   55.8870   22.2580   42.4500 F   0  0  0  0  0  0  0  0  0  0  0  0
   56.6180   23.6800   44.7270 C   0  0  0  0  0  0  0  0  0  0  0  0
   56.8810   27.9260   44.8910 N   0  0  0  0  0  0  0  0  0  0  0  0
   57.2080   29.3270   44.8770 C   0  0  0  0  0  0  0  0  0  0  0  0
   56.6960   30.1470   43.8610 C   0  0  0  0  0  0  0  0  0  0  0  0
   57.0210   31.5060   43.8150 C   0  0  0  0  0  0  0  0  0  0  0  0
   57.8490   32.0710   44.7990 C   0  0  0  0  0  0  0  0  0  0  0  0
   58.2880   33.5060   44.6870 C   0  0  0  0  0  0  0  0  0  0  0  0
   59.1270   33.8720   45.8830 C   0  0  0  0  0  0  0  0  0  0  0  0
   58.5120   34.2290   47.0910 C   0  0  0  0  0  0  0  0  0  0  0  0
   59.2810   34.4750   48.2310 C   0  0  0  0  0  0  0  0  0  0  0  0
   60.6800   34.3560   48.1790 C   0  0  0  0  0  0  0  0  0  0  0  0
   61.5040   34.5730   49.3340 N   0  0  0  0  0  0  0  0  0  0  0  0
   61.8510   33.5870   50.3200 C   0  0  0  0  0  0  0  0  0  0  0  0
   62.6030   33.8970   51.2860 O   0  0  0  0  0  0  0  0  0  0  0  0
   61.2550   32.2730   50.2670 N   0  0  0  0  0  0  0  0  0  0  0  0
   61.9610   31.2260   49.5180 C   0  0  0  0  0  0  0  0  0  0  0  0
   61.0480   30.6570   48.4370 C   0  0  0  0  0  0  0  0  0  0  0  0
   59.7590   29.6550   49.2330 S   0  0  0  0  0  0  0  0  0  0  0  0
   59.1120   30.9710   50.2800 C   0  0  0  0  0  0  0  0  0  0  0  0
   57.8140   30.8760   50.6590 N   0  0  0  0  0  0  0  0  0  0  0  0
   57.2500   31.7400   51.5410 C   0  0  0  0  0  0  0  0  0  0  0  0
   58.0200   32.7440   52.1220 C   0  0  0  0  0  0  0  0  0  0  0  0
   59.3510   32.8840   51.7460 C   0  0  0  0  0  0  0  0  0  0  0  0
   59.9170   32.0320   50.7770 C   0  0  0  0  0  0  0  0  0  0  0  0
   61.2940   34.0430   46.9640 C   0  0  0  0  0  0  0  0  0  0  0  0
   60.5220   33.7840   45.8260 C   0  0  0  0  0  0  0  0  0  0  0  0
   58.3360   31.2580   45.8340 C   0  0  0  0  0  0  0  0  0  0  0  0
   58.0070   29.9010   45.8820 C   0  0  0  0  0  0  0  0  0  0  0  0
   59.0084   25.1715   46.6655 H   0  0  0  0  0  0  0  0  0  0  0  0
   60.3148   23.2063   45.8584 H   0  0  0  0  0  0  0  0  0  0  0  0
   59.2745   21.5620   44.3021 H   0  0  0  0  0  0  0  0  0  0  0  0
   55.5702   23.8079   44.4174 H   0  0  0  0  0  0  0  0  0  0  0  0
   56.6950   27.4510   43.9780 H   0  0  0  0  0  0  0  0  0  0  0  0
   56.0338   29.7178   43.0947 H   0  0  0  0  0  0  0  0  0  0  0  0
   56.6263   32.1359   43.0042 H   0  0  0  0  0  0  0  0  0  0  0  0
   58.8810   33.6370   43.7698 H   0  0  0  0  0  0  0  0  0  0  0  0
   57.4023   34.1572   44.6487 H   0  0  0  0  0  0  0  0  0  0  0  0
   57.4166   34.3160   47.1416 H   0  0  0  0  0  0  0  0  0  0  0  0
   58.7898   34.7627   49.1722 H   0  0  0  0  0  0  0  0  0  0  0  0
   62.8586   31.6552   49.0488 H   0  0  0  0  0  0  0  0  0  0  0  0
   62.2518   30.4202   50.2080 H   0  0  0  0  0  0  0  0  0  0  0  0
   60.5828   31.4798   47.8744 H   0  0  0  0  0  0  0  0  0  0  0  0
   61.6315   30.0347   47.7425 H   0  0  0  0  0  0  0  0  0  0  0  0
   56.1842   31.6469   51.7968 H   0  0  0  0  0  0  0  0  0  0  0  0
   57.5799   33.4192   52.8706 H   0  0  0  0  0  0  0  0  0  0  0  0
   59.9683   33.6676   52.2095 H   0  0  0  0  0  0  0  0  0  0  0  0
   62.3914   33.9998   46.9014 H   0  0  0  0  0  0  0  0  0  0  0  0
   61.0147   33.5097   44.8815 H   0  0  0  0  0  0  0  0  0  0  0  0
   58.9808   31.6919   46.6124 H   0  0  0  0  0  0  0  0  0  0  0  0
   58.3750   29.2780   46.7105 H   0  0  0  0  0  0  0  0  0  0  0  0
  1  2  2  0
  2  3  1  0
  3  4  1  0
  4  5  2  0
  5  6  1  0
  6  7  2  0
  7  8  1  0
  8  9  1  0
  9 10  1  0
  9 11  1  0
  9 12  1  0
  8 13  2  0
  2 14  1  0
 14 15  1  0
 15 16  2  0
 16 17  1  0
 17 18  2  0
 18 19  1  0
 19 20  1  0
 20 21  2  0
 21 22  1  0
 22 23  2  0
 23 24  1  0
 24 25  1  0
 25 26  2  0
 25 27  1  0
 27 28  1  0
 28 29  1  0
 29 30  1  0
 30 31  1  0
 31 32  2  0
 32 33  1  0
 33 34  2  0
 34 35  1  0
 35 36  2  0
 23 37  1  0
 37 38  2  0
 18 39  1  0
 39 40  2  0
 13  4  1  0
 40 15  1  0
 38 20  1  0
 36 27  1  0
 36 31  1  0
  5 41  1  0
  6 42  1  0
  7 43  1  0
 13 44  1  0
 14 45  1  0
 16 46  1  0
 17 47  1  0
 19 48  1  0
 19 49  1  0
 21 50  1  0
 22 51  1  0
 28 52  1  0
 28 53  1  0
 29 54  1  0
 29 55  1  0
 33 56  1  0
 34 57  1  0
 35 58  1  0
 37 59  1  0
 38 60  1  0
 39 61  1  0
 40 62  1  0
M  CHG  2   3  -1  24  -1
M  END
>  <UniqueID>  (55) 
49

>  <SMILES>  (55) 
O=C([N-]c1cccc(C(F)(F)F)c1)Nc1ccc(Cc2ccc([N-]C(=O)N3CCSc4ncccc43)cc2)cc1

>  <Energy>  (55) 
91.91483992736812

>  <Genealogy>  (55) 
O=C([N-]c1cccc(C(F)(F)F)c1)Nc1ccc(Cc2ccc([N-]C(=O)N3CCSc4ncccc43)cc2)cc1 (protonated)
O=C([N-]c1cccc(C(F)(F)F)c1)Nc1ccc(Cc2ccc([N-]C(=O)N3CCSc4ncccc43)cc2)cc1 (3D coordinates assigned)
O=C([N-]c1cccc(C(F)(F)F)c1)Nc1ccc(Cc2ccc([N-]C(=O)N3CCSc4ncccc43)cc2)cc1 (nonaromatic ring conformer: 91.91483992736812 kcal/mol)

>  <smiles>  (55) 
O=C(Nc1ccc(Cc2ccc(NC(=O)N3CCSc4ncccc43)cc2)cc1)Nc1cccc(C(F)(F)F)c1

>  <score_type>  (55) 
oracle

>  <origin>  (55) 
adg

>  <m_score__min__energy>  (55) 
-12.84

>  <m_primary>  (55) 
energy

$$$$
55:0
     RDKit          3D

 53 56  0  0  0  0  0  0  0  0999 V2000
   56.6310   30.2950   43.5530 C   0  0  0  0  0  0  0  0  0  0  0  0
   57.8150   30.4350   44.5080 C   0  0  0  0  0  0  0  0  0  0  0  0
   57.8750   29.2890   45.4380 N   0  0  0  0  0  0  0  0  0  0  0  0
   56.9560   28.2910   45.2550 C   0  0  0  0  0  0  0  0  0  0  0  0
   56.9250   27.1520   46.0710 C   0  0  0  0  0  0  0  0  0  0  0  0
   55.9090   26.0920   45.8170 C   0  0  0  0  0  0  0  0  0  0  0  0
   54.6840   26.3320   45.9870 O   0  0  0  0  0  0  0  0  0  0  0  0
   56.2850   24.8240   45.3880 O   0  0  0  0  0  0  0  0  0  0  0  0
   57.8630   27.0460   47.1130 C   0  0  0  0  0  0  0  0  0  0  0  0
   57.8690   26.0300   47.8620 O   0  0  0  0  0  0  0  0  0  0  0  0
   58.7940   28.0780   47.3260 C   0  0  0  0  0  0  0  0  0  0  0  0
   59.7270   27.9950   48.3780 C   0  0  0  0  0  0  0  0  0  0  0  0
   60.6400   29.0230   48.6040 C   0  0  0  0  0  0  0  0  0  0  0  0
   61.4980   28.9300   49.6500 F   0  0  0  0  0  0  0  0  0  0  0  0
   60.6410   30.1560   47.7840 C   0  0  0  0  0  0  0  0  0  0  0  0
   61.5750   31.2230   48.0210 N   0  0  0  0  0  0  0  0  0  0  0  0
   62.7380   31.3600   47.1370 C   0  0  0  0  0  0  0  0  0  0  0  0
   63.6120   32.5390   47.5630 C   0  0  0  0  0  0  0  0  0  0  0  0
   63.7290   32.5370   49.0310 N   0  0  0  0  0  0  0  0  0  0  0  0
   64.8050   33.4490   49.4680 C   0  0  0  0  0  0  0  0  0  0  0  0
   65.7780   32.7340   50.3710 C   0  0  0  0  0  0  0  0  0  0  0  0
   67.0020   33.3380   50.7000 C   0  0  0  0  0  0  0  0  0  0  0  0
   67.9200   32.6670   51.5140 C   0  0  0  0  0  0  0  0  0  0  0  0
   67.6260   31.3890   51.9990 C   0  0  0  0  0  0  0  0  0  0  0  0
   68.8830   30.4740   53.1080 Br  0  0  0  0  0  0  0  0  0  0  0  0
   66.4110   30.7790   51.6680 C   0  0  0  0  0  0  0  0  0  0  0  0
   65.4910   31.4470   50.8540 C   0  0  0  0  0  0  0  0  0  0  0  0
   62.4340   32.8800   49.6720 C   0  0  0  0  0  0  0  0  0  0  0  0
   61.2060   32.3240   48.9190 C   0  0  0  0  0  0  0  0  0  0  0  0
   59.7180   30.2520   46.7340 C   0  0  0  0  0  0  0  0  0  0  0  0
   58.7860   29.2170   46.4770 C   0  0  0  0  0  0  0  0  0  0  0  0
   55.7029   30.1853   44.1332 H   0  0  0  0  0  0  0  0  0  0  0  0
   56.5633   31.1914   42.9191 H   0  0  0  0  0  0  0  0  0  0  0  0
   56.7742   29.4075   42.9191 H   0  0  0  0  0  0  0  0  0  0  0  0
   58.7466   30.4754   43.9245 H   0  0  0  0  0  0  0  0  0  0  0  0
   57.6900   31.3583   45.0927 H   0  0  0  0  0  0  0  0  0  0  0  0
   56.2198   28.3859   44.4432 H   0  0  0  0  0  0  0  0  0  0  0  0
   59.7349   27.1082   49.0288 H   0  0  0  0  0  0  0  0  0  0  0  0
   63.3337   30.4363   47.1800 H   0  0  0  0  0  0  0  0  0  0  0  0
   62.3808   31.5400   46.1123 H   0  0  0  0  0  0  0  0  0  0  0  0
   64.6106   32.4407   47.1124 H   0  0  0  0  0  0  0  0  0  0  0  0
   63.1576   33.4822   47.2256 H   0  0  0  0  0  0  0  0  0  0  0  0
   65.3417   33.8236   48.5839 H   0  0  0  0  0  0  0  0  0  0  0  0
   64.3552   34.2843   50.0248 H   0  0  0  0  0  0  0  0  0  0  0  0
   67.2394   34.3413   50.3166 H   0  0  0  0  0  0  0  0  0  0  0  0
   68.8758   33.1458   51.7734 H   0  0  0  0  0  0  0  0  0  0  0  0
   66.1794   29.7732   52.0484 H   0  0  0  0  0  0  0  0  0  0  0  0
   64.5390   30.9626   50.5910 H   0  0  0  0  0  0  0  0  0  0  0  0
   62.4315   32.4696   50.6926 H   0  0  0  0  0  0  0  0  0  0  0  0
   62.3494   33.9767   49.6624 H   0  0  0  0  0  0  0  0  0  0  0  0
   60.4739   31.9559   49.6529 H   0  0  0  0  0  0  0  0  0  0  0  0
   60.7792   33.1353   48.3110 H   0  0  0  0  0  0  0  0  0  0  0  0
   59.7173   31.1487   46.0969 H   0  0  0  0  0  0  0  0  0  0  0  0
  1  2  1  0
  2  3  1  0
  3  4  1  0
  4  5  2  0
  5  6  1  0
  6  7  2  0
  6  8  1  0
  5  9  1  0
  9 10  2  0
  9 11  1  0
 11 12  2  0
 12 13  1  0
 13 14  1  0
 13 15  2  0
 15 16  1  0
 16 17  1  0
 17 18  1  0
 18 19  1  0
 19 20  1  0
 20 21  1  0
 21 22  2  0
 22 23  1  0
 23 24  2  0
 24 25  1  0
 24 26  1  0
 26 27  2  0
 19 28  1  0
 28 29  1  0
 15 30  1  0
 30 31  2  0
 31  3  1  0
 31 11  1  0
 29 16  1  0
 27 21  1  0
  1 32  1  0
  1 33  1  0
  1 34  1  0
  2 35  1  0
  2 36  1  0
  4 37  1  0
 12 38  1  0
 17 39  1  0
 17 40  1  0
 18 41  1  0
 18 42  1  0
 20 43  1  0
 20 44  1  0
 22 45  1  0
 23 46  1  0
 26 47  1  0
 27 48  1  0
 28 49  1  0
 28 50  1  0
 29 51  1  0
 29 52  1  0
 30 53  1  0
M  CHG  1   8  -1
M  END
>  <UniqueID>  (56) 
50

>  <SMILES>  (56) 
CCn1cc(C(=O)[O-])c(=O)c2cc(F)c(N3CCN(Cc4ccc(Br)cc4)CC3)cc21

>  <Energy>  (56) 
76.4738188815217

>  <Genealogy>  (56) 
CCn1cc(C(=O)[O-])c(=O)c2cc(F)c(N3CCN(Cc4ccc(Br)cc4)CC3)cc21 (protonated)
CCn1cc(C(=O)[O-])c(=O)c2cc(F)c(N3CCN(Cc4ccc(Br)cc4)CC3)cc21 (3D coordinates assigned)
CCn1cc(C(=O)[O-])c(=O)c2cc(F)c(N3CCN(Cc4ccc(Br)cc4)CC3)cc21 (nonaromatic ring conformer: 76.4738188815217 kcal/mol)

>  <smiles>  (56) 
CCn1cc(C(=O)O)c(=O)c2cc(F)c(N3CCN(Cc4ccc(Br)cc4)CC3)cc21

>  <score_type>  (56) 
oracle

>  <origin>  (56) 
adg

>  <m_score__min__energy>  (56) 
-10.619999999999999

>  <m_primary>  (56) 
energy

$$$$
56:0
     RDKit          3D

 58 61  0  0  0  0  0  0  0  0999 V2000
   58.7340   33.6200   44.7230 C   0  0  0  0  0  0  0  0  0  0  0  0
   58.0050   32.4230   44.1860 C   0  0  0  0  0  0  0  0  0  0  0  0
   57.7420   32.3310   42.8090 C   0  0  0  0  0  0  0  0  0  0  0  0
   57.0730   31.2180   42.2880 C   0  0  0  0  0  0  0  0  0  0  0  0
   56.6580   30.1910   43.1380 C   0  0  0  0  0  0  0  0  0  0  0  0
   56.9010   30.2770   44.5100 C   0  0  0  0  0  0  0  0  0  0  0  0
   57.5530   31.3940   45.0450 C   0  0  0  0  0  0  0  0  0  0  0  0
   57.7700   31.4450   46.4270 O   0  0  0  0  0  0  0  0  0  0  0  0
   58.9130   30.9450   47.0710 C   0  0  0  0  0  0  0  0  0  0  0  0
   60.1810   30.9510   46.4620 C   0  0  0  0  0  0  0  0  0  0  0  0
   61.2920   30.4550   47.1480 C   0  0  0  0  0  0  0  0  0  0  0  0
   61.1530   29.9640   48.4490 C   0  0  0  0  0  0  0  0  0  0  0  0
   59.8980   29.9690   49.0740 C   0  0  0  0  0  0  0  0  0  0  0  0
   59.7410   29.4230   50.4730 C   0  0  0  0  0  0  0  0  0  0  0  0
   59.7890   30.4940   51.4890 N   0  0  0  0  0  0  0  0  0  0  0  0
   58.4840   30.7350   52.1200 C   0  0  0  0  0  0  0  0  0  0  0  0
   57.7790   31.9150   51.4410 C   0  0  0  0  0  0  0  0  0  0  0  0
   58.2710   33.2590   51.9960 C   0  0  0  0  0  0  0  0  0  0  0  0
   59.7390   33.2850   52.0650 N   0  0  0  0  0  0  0  0  0  0  0  0
   60.2970   33.4320   50.7470 C   0  0  0  0  0  0  0  0  0  0  0  0
   59.5680   34.0630   49.7250 C   0  0  0  0  0  0  0  0  0  0  0  0
   60.1350   34.2100   48.4560 C   0  0  0  0  0  0  0  0  0  0  0  0
   59.4750   34.7800   47.5440 O   0  0  0  0  0  0  0  0  0  0  0  0
   61.4340   33.7240   48.2100 C   0  0  0  0  0  0  0  0  0  0  0  0
   62.0510   33.8420   46.9510 C   0  0  0  0  0  0  0  0  0  0  0  0
   63.3450   33.3480   46.7520 C   0  0  0  0  0  0  0  0  0  0  0  0
   64.0320   32.7350   47.8040 C   0  0  0  0  0  0  0  0  0  0  0  0
   63.4320   32.6130   49.0590 C   0  0  0  0  0  0  0  0  0  0  0  0
   62.1370   33.1020   49.2690 C   0  0  0  0  0  0  0  0  0  0  0  0
   61.5560   32.9790   50.4920 N   0  0  0  0  0  0  0  0  0  0  0  0
   58.7810   30.4510   48.3740 C   0  0  0  0  0  0  0  0  0  0  0  0
   58.7191   33.5955   45.8226 H   0  0  0  0  0  0  0  0  0  0  0  0
   59.7757   33.6037   44.3700 H   0  0  0  0  0  0  0  0  0  0  0  0
   58.2415   34.5381   44.3700 H   0  0  0  0  0  0  0  0  0  0  0  0
   58.0641   33.1393   42.1360 H   0  0  0  0  0  0  0  0  0  0  0  0
   56.8739   31.1521   41.2082 H   0  0  0  0  0  0  0  0  0  0  0  0
   56.1389   29.3130   42.7261 H   0  0  0  0  0  0  0  0  0  0  0  0
   56.5781   29.4621   45.1746 H   0  0  0  0  0  0  0  0  0  0  0  0
   60.2979   31.3474   45.4426 H   0  0  0  0  0  0  0  0  0  0  0  0
   62.2792   30.4508   46.6628 H   0  0  0  0  0  0  0  0  0  0  0  0
   62.0307   29.5725   48.9842 H   0  0  0  0  0  0  0  0  0  0  0  0
   58.7731   28.9056   50.5466 H   0  0  0  0  0  0  0  0  0  0  0  0
   60.5748   28.7318   50.6656 H   0  0  0  0  0  0  0  0  0  0  0  0
   60.1290   31.3920   51.0690 H   0  0  0  0  0  0  0  0  0  0  0  0
   57.8608   29.8339   52.0220 H   0  0  0  0  0  0  0  0  0  0  0  0
   58.6370   30.9712   53.1834 H   0  0  0  0  0  0  0  0  0  0  0  0
   57.9817   31.8787   50.3604 H   0  0  0  0  0  0  0  0  0  0  0  0
   56.7002   31.8335   51.6400 H   0  0  0  0  0  0  0  0  0  0  0  0
   57.9258   34.0699   51.3378 H   0  0  0  0  0  0  0  0  0  0  0  0
   57.8663   33.3930   53.0100 H   0  0  0  0  0  0  0  0  0  0  0  0
   60.0540   34.0900   52.6570 H   0  0  0  0  0  0  0  0  0  0  0  0
   60.0910   32.3980   52.4970 H   0  0  0  0  0  0  0  0  0  0  0  0
   58.5539   34.4403   49.9230 H   0  0  0  0  0  0  0  0  0  0  0  0
   61.5145   34.3241   46.1205 H   0  0  0  0  0  0  0  0  0  0  0  0
   63.8227   33.4422   45.7656 H   0  0  0  0  0  0  0  0  0  0  0  0
   65.0487   32.3474   47.6426 H   0  0  0  0  0  0  0  0  0  0  0  0
   63.9777   32.1319   49.8840 H   0  0  0  0  0  0  0  0  0  0  0  0
   57.7915   30.4404   48.8544 H   0  0  0  0  0  0  0  0  0  0  0  0
  1  2  1  0
  2  3  2  0
  3  4  1  0
  4  5  2  0
  5  6  1  0
  6  7  2  0
  7  8  1  0
  8  9  1  0
  9 10  2  0
 10 11  1  0
 11 12  2  0
 12 13  1  0
 13 14  1  0
 14 15  1  0
 15 16  1  0
 16 17  1  0
 17 18  1  0
 18 19  1  0
 19 20  1  0
 20 21  2  0
 21 22  1  0
 22 23  2  0
 22 24  1  0
 24 25  2  0
 25 26  1  0
 26 27  2  0
 27 28  1  0
 28 29  2  0
 29 30  1  0
 13 31  2  0
  7  2  1  0
 31  9  1  0
 30 20  1  0
 29 24  1  0
  1 32  1  0
  1 33  1  0
  1 34  1  0
  3 35  1  0
  4 36  1  0
  5 37  1  0
  6 38  1  0
 10 39  1  0
 11 40  1  0
 12 41  1  0
 14 42  1  0
 14 43  1  0
 15 44  1  0
 16 45  1  0
 16 46  1  0
 17 47  1  0
 17 48  1  0
 18 49  1  0
 18 50  1  0
 19 51  1  0
 19 52  1  0
 21 53  1  0
 25 54  1  0
 26 55  1  0
 27 56  1  0
 28 57  1  0
 31 58  1  0
M  CHG  2  19   1  30  -1
M  END
>  <UniqueID>  (57) 
51

>  <SMILES>  (57) 
Cc1ccccc1Oc1cccc(CNCCC[NH2+]c2cc(=O)c3ccccc3[n-]2)c1

>  <Energy>  (57) 
73.65544649978172

>  <Genealogy>  (57) 
Cc1ccccc1Oc1cccc(CNCCC[NH2+]c2cc(=O)c3ccccc3[n-]2)c1 (protonated)
Cc1ccccc1Oc1cccc(CNCCC[NH2+]c2cc(=O)c3ccccc3[n-]2)c1 (3D coordinates assigned)
Cc1ccccc1Oc1cccc(CNCCC[NH2+]c2cc(=O)c3ccccc3[n-]2)c1 (optimized conformer: 73.65544649978172 kcal/mol)

>  <smiles>  (57) 
Cc1ccccc1Oc1cccc(CNCCCNc2cc(=O)c3ccccc3[nH]2)c1

>  <score_type>  (57) 
oracle

>  <origin>  (57) 
adg

>  <m_score__min__energy>  (57) 
-8.2899999999999991

>  <m_primary>  (57) 
energy

$$$$
57:0
     RDKit          3D

 45 47  0  0  0  0  0  0  0  0999 V2000
   59.3520   33.2880   50.8390 C   0  0  0  0  0  0  0  0  0  0  0  0
   59.9010   33.4140   49.4450 C   0  0  0  0  0  0  0  0  0  0  0  0
   59.6510   34.5790   48.6980 C   0  0  0  0  0  0  0  0  0  0  0  0
   60.1520   34.7080   47.4010 C   0  0  0  0  0  0  0  0  0  0  0  0
   60.9150   33.6820   46.8400 C   0  0  0  0  0  0  0  0  0  0  0  0
   61.3990   33.8110   45.5780 F   0  0  0  0  0  0  0  0  0  0  0  0
   61.1760   32.5210   47.5730 C   0  0  0  0  0  0  0  0  0  0  0  0
   60.6650   32.3720   48.8780 C   0  0  0  0  0  0  0  0  0  0  0  0
   60.9010   31.1800   49.6430 N   0  0  0  0  0  0  0  0  0  0  0  0
   59.7740   29.8820   49.8590 S   0  0  0  0  0  0  0  0  0  0  0  0
   60.5190   28.5780   49.8760 O   0  0  0  0  0  0  0  0  0  0  0  0
   58.8070   29.8710   48.7070 O   0  0  0  0  0  0  0  0  0  0  0  0
   58.9260   30.0720   51.3940 C   0  0  0  0  0  0  0  0  0  0  0  0
   57.5290   30.2160   51.4150 C   0  0  0  0  0  0  0  0  0  0  0  0
   56.8470   30.3310   52.6350 C   0  0  0  0  0  0  0  0  0  0  0  0
   55.3780   30.4400   52.6520 C   0  0  0  0  0  0  0  0  0  0  0  0
   54.8370   31.5150   52.2800 O   0  0  0  0  0  0  0  0  0  0  0  0
   54.5460   29.3450   53.0530 N   0  0  0  0  0  0  0  0  0  0  0  0
   53.1140   29.4450   53.3350 C   0  0  0  0  0  0  0  0  0  0  0  0
   52.4310   30.2770   52.2810 C   0  0  0  0  0  0  0  0  0  0  0  0
   52.4180   29.8620   50.9380 C   0  0  0  0  0  0  0  0  0  0  0  0
   51.8280   30.6680   49.9600 C   0  0  0  0  0  0  0  0  0  0  0  0
   51.2340   31.8850   50.3140 C   0  0  0  0  0  0  0  0  0  0  0  0
   50.6450   32.6780   49.3370 O   0  0  0  0  0  0  0  0  0  0  0  0
   51.2380   32.3020   51.6510 C   0  0  0  0  0  0  0  0  0  0  0  0
   50.6480   33.5100   52.0090 O   0  0  0  0  0  0  0  0  0  0  0  0
   51.8380   31.5030   52.6310 C   0  0  0  0  0  0  0  0  0  0  0  0
   57.5700   30.3370   53.8370 C   0  0  0  0  0  0  0  0  0  0  0  0
   58.9610   30.2050   53.8200 C   0  0  0  0  0  0  0  0  0  0  0  0
   59.6410   30.0660   52.6060 C   0  0  0  0  0  0  0  0  0  0  0  0
   61.0250   29.9220   52.6130 O   0  0  0  0  0  0  0  0  0  0  0  0
   60.1553   33.4724   51.5675 H   0  0  0  0  0  0  0  0  0  0  0  0
   58.5486   34.0251   50.9847 H   0  0  0  0  0  0  0  0  0  0  0  0
   58.9504   32.2743   50.9847 H   0  0  0  0  0  0  0  0  0  0  0  0
   59.0571   35.3936   49.1381 H   0  0  0  0  0  0  0  0  0  0  0  0
   59.9453   35.6192   46.8204 H   0  0  0  0  0  0  0  0  0  0  0  0
   61.7837   31.7189   47.1288 H   0  0  0  0  0  0  0  0  0  0  0  0
   56.9670   30.2387   50.4697 H   0  0  0  0  0  0  0  0  0  0  0  0
   52.6743   28.4367   53.3428 H   0  0  0  0  0  0  0  0  0  0  0  0
   52.9747   29.9242   54.3153 H   0  0  0  0  0  0  0  0  0  0  0  0
   52.8730   28.9010   50.6561 H   0  0  0  0  0  0  0  0  0  0  0  0
   51.8306   30.3447   48.9086 H   0  0  0  0  0  0  0  0  0  0  0  0
   51.8457   31.8355   53.6795 H   0  0  0  0  0  0  0  0  0  0  0  0
   57.0408   30.4459   54.7952 H   0  0  0  0  0  0  0  0  0  0  0  0
   59.5234   30.2105   54.7654 H   0  0  0  0  0  0  0  0  0  0  0  0
  1  2  1  0
  2  3  2  0
  3  4  1  0
  4  5  2  0
  5  6  1  0
  5  7  1  0
  7  8  2  0
  8  9  1  0
  9 10  1  0
 10 11  2  0
 10 12  2  0
 10 13  1  0
 13 14  2  0
 14 15  1  0
 15 16  1  0
 16 17  2  0
 16 18  1  0
 18 19  1  0
 19 20  1  0
 20 21  2  0
 21 22  1  0
 22 23  2  0
 23 24  1  0
 23 25  1  0
 25 26  1  0
 25 27  2  0
 15 28  2  0
 28 29  1  0
 29 30  2  0
 30 31  1  0
  8  2  1  0
 30 13  1  0
 27 20  1  0
  1 32  1  0
  1 33  1  0
  1 34  1  0
  3 35  1  0
  4 36  1  0
  7 37  1  0
 14 38  1  0
 19 39  1  0
 19 40  1  0
 21 41  1  0
 22 42  1  0
 27 43  1  0
 28 44  1  0
 29 45  1  0
M  CHG  5   9  -1  18  -1  24  -1  26  -1  31  -1
M  END
>  <UniqueID>  (58) 
52

>  <SMILES>  (58) 
Cc1ccc(F)cc1[N-]S(=O)(=O)c1cc(C(=O)[N-]Cc2ccc([O-])c([O-])c2)ccc1[O-]

>  <Energy>  (58) 
53.73796759024749

>  <Genealogy>  (58) 
Cc1ccc(F)cc1[N-]S(=O)(=O)c1cc(C(=O)[N-]Cc2ccc([O-])c([O-])c2)ccc1[O-] (protonated)
Cc1ccc(F)cc1[N-]S(=O)(=O)c1cc(C(=O)[N-]Cc2ccc([O-])c([O-])c2)ccc1[O-] (3D coordinates assigned)
Cc1ccc(F)cc1[N-]S(=O)(=O)c1cc(C(=O)[N-]Cc2ccc([O-])c([O-])c2)ccc1[O-] (optimized conformer: 53.73796759024749 kcal/mol)

>  <smiles>  (58) 
Cc1ccc(F)cc1NS(=O)(=O)c1cc(C(=O)NCc2ccc(O)c(O)c2)ccc1O

>  <score_type>  (58) 
oracle

>  <origin>  (58) 
adg

>  <m_score__min__energy>  (58) 
-20.210000000000001

>  <m_primary>  (58) 
energy

$$$$
58:0
     RDKit          3D

 60 64  0  0  0  0  0  0  0  0999 V2000
   53.9780   25.4840   45.8970 O   0  0  0  0  0  0  0  0  0  0  0  0
   53.8450   24.2450   45.7040 C   0  0  0  0  0  0  0  0  0  0  0  0
   53.4000   23.3640   46.8200 C   0  0  0  0  0  0  0  0  0  0  0  0
   54.5110   22.4870   47.1870 N   0  0  0  0  0  0  0  0  0  0  0  0
   55.2380   22.7180   48.4440 C   0  0  0  0  0  0  0  0  0  0  0  0
   56.7370   22.4740   48.2410 C   0  0  0  0  0  0  0  0  0  0  0  0
   57.3630   23.6010   47.4660 C   0  0  0  0  0  0  0  0  0  0  0  0
   57.2220   24.9270   47.9070 C   0  0  0  0  0  0  0  0  0  0  0  0
   57.7860   25.9780   47.1790 C   0  0  0  0  0  0  0  0  0  0  0  0
   58.4820   25.7180   45.9830 C   0  0  0  0  0  0  0  0  0  0  0  0
   59.0810   26.7420   45.2360 O   0  0  0  0  0  0  0  0  0  0  0  0
   58.5560   28.0290   45.0560 C   0  0  0  0  0  0  0  0  0  0  0  0
   58.9180   29.0390   45.9540 C   0  0  0  0  0  0  0  0  0  0  0  0
   58.4120   30.3330   45.8050 C   0  0  0  0  0  0  0  0  0  0  0  0
   57.5530   30.6370   44.7330 C   0  0  0  0  0  0  0  0  0  0  0  0
   56.9790   32.0210   44.5860 C   0  0  0  0  0  0  0  0  0  0  0  0
   57.8600   33.0310   45.2720 C   0  0  0  0  0  0  0  0  0  0  0  0
   58.7780   33.7920   44.5270 C   0  0  0  0  0  0  0  0  0  0  0  0
   59.6210   34.7080   45.1700 C   0  0  0  0  0  0  0  0  0  0  0  0
   59.5560   34.8640   46.5580 C   0  0  0  0  0  0  0  0  0  0  0  0
   58.6500   34.1050   47.3060 C   0  0  0  0  0  0  0  0  0  0  0  0
   57.8060   33.1900   46.6680 C   0  0  0  0  0  0  0  0  0  0  0  0
   57.2070   29.6280   43.8170 C   0  0  0  0  0  0  0  0  0  0  0  0
   57.7090   28.3340   43.9750 C   0  0  0  0  0  0  0  0  0  0  0  0
   58.6240   24.3970   45.5450 C   0  0  0  0  0  0  0  0  0  0  0  0
   58.0580   23.3450   46.2740 C   0  0  0  0  0  0  0  0  0  0  0  0
   54.9310   21.4290   46.2960 C   0  0  0  0  0  0  0  0  0  0  0  0
   54.7270   20.2290   46.6320 O   0  0  0  0  0  0  0  0  0  0  0  0
   55.5610   21.6890   44.9700 C   0  0  0  0  0  0  0  0  0  0  0  0
   56.6350   20.8600   44.5860 C   0  0  0  0  0  0  0  0  0  0  0  0
   57.3490   21.1050   43.4110 C   0  0  0  0  0  0  0  0  0  0  0  0
   57.0160   22.1930   42.6050 C   0  0  0  0  0  0  0  0  0  0  0  0
   55.9590   23.0300   42.9660 C   0  0  0  0  0  0  0  0  0  0  0  0
   55.2100   22.7840   44.1260 C   0  0  0  0  0  0  0  0  0  0  0  0
   54.1450   23.6990   44.4210 N   0  0  0  0  0  0  0  0  0  0  0  0
   53.1101   23.9783   47.6853 H   0  0  0  0  0  0  0  0  0  0  0  0
   52.5332   22.7643   46.5054 H   0  0  0  0  0  0  0  0  0  0  0  0
   55.0798   23.7567   48.7696 H   0  0  0  0  0  0  0  0  0  0  0  0
   54.8617   22.0231   49.2091 H   0  0  0  0  0  0  0  0  0  0  0  0
   57.2259   22.3971   49.2234 H   0  0  0  0  0  0  0  0  0  0  0  0
   56.8680   21.5410   47.6732 H   0  0  0  0  0  0  0  0  0  0  0  0
   56.6643   25.1395   48.8310 H   0  0  0  0  0  0  0  0  0  0  0  0
   57.6859   27.0117   47.5415 H   0  0  0  0  0  0  0  0  0  0  0  0
   59.6053   28.8130   46.7826 H   0  0  0  0  0  0  0  0  0  0  0  0
   58.6859   31.1158   46.5276 H   0  0  0  0  0  0  0  0  0  0  0  0
   56.9053   32.2710   43.5173 H   0  0  0  0  0  0  0  0  0  0  0  0
   55.9818   32.0445   45.0497 H   0  0  0  0  0  0  0  0  0  0  0  0
   58.8346   33.6678   43.4355 H   0  0  0  0  0  0  0  0  0  0  0  0
   60.3343   35.3047   44.5826 H   0  0  0  0  0  0  0  0  0  0  0  0
   60.2177   35.5839   47.0619 H   0  0  0  0  0  0  0  0  0  0  0  0
   58.6011   34.2279   48.3980 H   0  0  0  0  0  0  0  0  0  0  0  0
   57.0974   32.5927   47.2606 H   0  0  0  0  0  0  0  0  0  0  0  0
   56.5392   29.8582   42.9737 H   0  0  0  0  0  0  0  0  0  0  0  0
   57.4409   27.5503   43.2512 H   0  0  0  0  0  0  0  0  0  0  0  0
   59.1837   24.1840   44.6223 H   0  0  0  0  0  0  0  0  0  0  0  0
   58.1584   22.3116   45.9106 H   0  0  0  0  0  0  0  0  0  0  0  0
   56.9148   20.0071   45.2218 H   0  0  0  0  0  0  0  0  0  0  0  0
   58.1750   20.4389   43.1210 H   0  0  0  0  0  0  0  0  0  0  0  0
   57.5859   22.3915   41.6853 H   0  0  0  0  0  0  0  0  0  0  0  0
   55.7101   23.8940   42.3323 H   0  0  0  0  0  0  0  0  0  0  0  0
  1  2  2  0
  2  3  1  0
  3  4  1  0
  4  5  1  0
  5  6  1  0
  6  7  1  0
  7  8  2  0
  8  9  1  0
  9 10  2  0
 10 11  1  0
 11 12  1  0
 12 13  2  0
 13 14  1  0
 14 15  2  0
 15 16  1  0
 16 17  1  0
 17 18  2  0
 18 19  1  0
 19 20  2  0
 20 21  1  0
 21 22  2  0
 15 23  1  0
 23 24  2  0
 10 25  1  0
 25 26  2  0
  4 27  1  0
 27 28  2  0
 27 29  1  0
 29 30  2  0
 30 31  1  0
 31 32  2  0
 32 33  1  0
 33 34  2  0
 34 35  1  0
 35  2  1  0
 26  7  1  0
 34 29  1  0
 24 12  1  0
 22 17  1  0
  3 36  1  0
  3 37  1  0
  5 38  1  0
  5 39  1  0
  6 40  1  0
  6 41  1  0
  8 42  1  0
  9 43  1  0
 13 44  1  0
 14 45  1  0
 16 46  1  0
 16 47  1  0
 18 48  1  0
 19 49  1  0
 20 50  1  0
 21 51  1  0
 22 52  1  0
 23 53  1  0
 24 54  1  0
 25 55  1  0
 26 56  1  0
 30 57  1  0
 31 58  1  0
 32 59  1  0
 33 60  1  0
M  CHG  1  35  -1
M  END
>  <UniqueID>  (59) 
53

>  <SMILES>  (59) 
O=C1CN(CCc2ccc(Oc3ccc(Cc4ccccc4)cc3)cc2)C(=O)c2ccccc2[N-]1

>  <Energy>  (59) 
78.40819949616062

>  <Genealogy>  (59) 
O=C1CN(CCc2ccc(Oc3ccc(Cc4ccccc4)cc3)cc2)C(=O)c2ccccc2[N-]1 (protonated)
O=C1CN(CCc2ccc(Oc3ccc(Cc4ccccc4)cc3)cc2)C(=O)c2ccccc2[N-]1 (3D coordinates assigned)
O=C1CN(CCc2ccc(Oc3ccc(Cc4ccccc4)cc3)cc2)C(=O)c2ccccc2[N-]1 (nonaromatic ring conformer: 78.40819949616062 kcal/mol)

>  <smiles>  (59) 
O=C1CN(CCc2ccc(Oc3ccc(Cc4ccccc4)cc3)cc2)C(=O)c2ccccc2N1

>  <score_type>  (59) 
oracle

>  <origin>  (59) 
adg

>  <m_score__min__energy>  (59) 
-9.2400000000000002

>  <m_primary>  (59) 
energy

$$$$
59:0
     RDKit          3D

 51 53  0  0  0  0  0  0  0  0999 V2000
   53.9120   25.3530   45.6190 N   0  0  0  0  0  0  0  0  0  0  0  0
   55.4030   24.5540   45.9670 S   0  0  0  0  0  0  0  0  0  0  0  0
   55.3750   24.0310   47.3760 O   0  0  0  0  0  0  0  0  0  0  0  0
   55.5840   23.3970   45.0280 O   0  0  0  0  0  0  0  0  0  0  0  0
   56.7370   25.6860   45.7810 C   0  0  0  0  0  0  0  0  0  0  0  0
   57.3250   25.8830   44.5240 C   0  0  0  0  0  0  0  0  0  0  0  0
   58.3850   26.7830   44.3770 C   0  0  0  0  0  0  0  0  0  0  0  0
   58.8580   27.5080   45.4830 C   0  0  0  0  0  0  0  0  0  0  0  0
   60.0320   28.4410   45.3330 C   0  0  0  0  0  0  0  0  0  0  0  0
   59.6430   29.7040   44.5570 C   0  0  0  0  0  0  0  0  0  0  0  0
   58.2570   29.6100   44.0900 N   0  0  0  0  0  0  0  0  0  0  0  0
   57.4360   31.1200   44.3440 S   0  0  0  0  0  0  0  0  0  0  0  0
   57.6220   31.9930   43.1360 O   0  0  0  0  0  0  0  0  0  0  0  0
   55.9680   30.8520   44.5250 O   0  0  0  0  0  0  0  0  0  0  0  0
   58.0790   31.9580   45.7560 C   0  0  0  0  0  0  0  0  0  0  0  0
   58.5200   31.2390   46.8760 C   0  0  0  0  0  0  0  0  0  0  0  0
   59.0220   31.9130   47.9940 C   0  0  0  0  0  0  0  0  0  0  0  0
   59.1000   33.3190   47.9980 C   0  0  0  0  0  0  0  0  0  0  0  0
   59.6110   34.0510   49.1220 N   0  0  0  0  0  0  0  0  0  0  0  0
   60.2580   33.3470   50.5670 S   0  0  0  0  0  0  0  0  0  0  0  0
   59.6560   31.9850   50.7700 O   0  0  0  0  0  0  0  0  0  0  0  0
   59.8980   34.2120   51.7410 O   0  0  0  0  0  0  0  0  0  0  0  0
   62.0150   33.2490   50.4510 C   0  0  0  0  0  0  0  0  0  0  0  0
   62.8160   33.3650   51.5970 C   0  0  0  0  0  0  0  0  0  0  0  0
   64.2080   33.2720   51.4930 C   0  0  0  0  0  0  0  0  0  0  0  0
   64.8060   33.0800   50.2440 C   0  0  0  0  0  0  0  0  0  0  0  0
   66.5530   32.9820   50.1140 Cl  0  0  0  0  0  0  0  0  0  0  0  0
   64.0110   32.9730   49.0980 C   0  0  0  0  0  0  0  0  0  0  0  0
   62.6190   33.0500   49.2010 C   0  0  0  0  0  0  0  0  0  0  0  0
   58.6620   34.0310   46.8760 C   0  0  0  0  0  0  0  0  0  0  0  0
   58.1490   33.3580   45.7630 C   0  0  0  0  0  0  0  0  0  0  0  0
   58.2630   27.3130   46.7400 C   0  0  0  0  0  0  0  0  0  0  0  0
   57.2060   26.4100   46.8860 C   0  0  0  0  0  0  0  0  0  0  0  0
   54.0140   26.3410   45.9410 H   0  0  0  0  0  0  0  0  0  0  0  0
   56.9516   25.3281   43.6507 H   0  0  0  0  0  0  0  0  0  0  0  0
   58.8506   26.9239   43.3904 H   0  0  0  0  0  0  0  0  0  0  0  0
   60.3900   28.7302   46.3321 H   0  0  0  0  0  0  0  0  0  0  0  0
   60.8217   27.9186   44.7732 H   0  0  0  0  0  0  0  0  0  0  0  0
   59.7452   30.5796   45.2150 H   0  0  0  0  0  0  0  0  0  0  0  0
   60.3069   29.8063   43.6859 H   0  0  0  0  0  0  0  0  0  0  0  0
   58.2690   29.4330   43.0580 H   0  0  0  0  0  0  0  0  0  0  0  0
   58.4710   30.1401   46.8754 H   0  0  0  0  0  0  0  0  0  0  0  0
   59.3570   31.3429   48.8731 H   0  0  0  0  0  0  0  0  0  0  0  0
   62.3486   33.5294   52.5791 H   0  0  0  0  0  0  0  0  0  0  0  0
   64.8327   33.3500   52.3950 H   0  0  0  0  0  0  0  0  0  0  0  0
   64.4818   32.8281   48.1145 H   0  0  0  0  0  0  0  0  0  0  0  0
   61.9959   32.9543   48.2995 H   0  0  0  0  0  0  0  0  0  0  0  0
   58.7217   35.1294   46.8695 H   0  0  0  0  0  0  0  0  0  0  0  0
   57.7993   33.9289   44.8902 H   0  0  0  0  0  0  0  0  0  0  0  0
   58.6300   27.8729   47.6128 H   0  0  0  0  0  0  0  0  0  0  0  0
   56.7402   26.2669   47.8722 H   0  0  0  0  0  0  0  0  0  0  0  0
  1  2  1  0
  2  3  2  0
  2  4  2  0
  2  5  1  0
  5  6  2  0
  6  7  1  0
  7  8  2  0
  8  9  1  0
  9 10  1  0
 10 11  1  0
 11 12  1  0
 12 13  2  0
 12 14  2  0
 12 15  1  0
 15 16  2  0
 16 17  1  0
 17 18  2  0
 18 19  1  0
 19 20  1  0
 20 21  2  0
 20 22  2  0
 20 23  1  0
 23 24  2  0
 24 25  1  0
 25 26  2  0
 26 27  1  0
 26 28  1  0
 28 29  2  0
 18 30  1  0
 30 31  2  0
  8 32  1  0
 32 33  2  0
 33  5  1  0
 31 15  1  0
 29 23  1  0
  1 34  1  0
  6 35  1  0
  7 36  1  0
  9 37  1  0
  9 38  1  0
 10 39  1  0
 10 40  1  0
 11 41  1  0
 16 42  1  0
 17 43  1  0
 24 44  1  0
 25 45  1  0
 28 46  1  0
 29 47  1  0
 30 48  1  0
 31 49  1  0
 32 50  1  0
 33 51  1  0
M  CHG  2   1  -1  19  -1
M  END
>  <UniqueID>  (60) 
54

>  <SMILES>  (60) 
[NH-]S(=O)(=O)c1ccc(CCNS(=O)(=O)c2ccc([N-]S(=O)(=O)c3ccc(Cl)cc3)cc2)cc1

>  <Energy>  (60) 
51.239339459929056

>  <Genealogy>  (60) 
[NH-]S(=O)(=O)c1ccc(CCNS(=O)(=O)c2ccc([N-]S(=O)(=O)c3ccc(Cl)cc3)cc2)cc1 (protonated)
[NH-]S(=O)(=O)c1ccc(CCNS(=O)(=O)c2ccc([N-]S(=O)(=O)c3ccc(Cl)cc3)cc2)cc1 (3D coordinates assigned)
[NH-]S(=O)(=O)c1ccc(CCNS(=O)(=O)c2ccc([N-]S(=O)(=O)c3ccc(Cl)cc3)cc2)cc1 (optimized conformer: 51.239339459929056 kcal/mol)

>  <smiles>  (60) 
NS(=O)(=O)c1ccc(CCNS(=O)(=O)c2ccc(NS(=O)(=O)c3ccc(Cl)cc3)cc2)cc1

>  <score_type>  (60) 
oracle

>  <origin>  (60) 
adg

>  <m_score__min__energy>  (60) 
-13.66

>  <m_primary>  (60) 
energy

$$$$
60:0
     RDKit          3D

 49 52  0  0  0  0  0  0  0  0999 V2000
   58.1050   22.3790   44.5140 C   0  0  0  0  0  0  0  0  0  0  0  0
   57.2400   23.4970   44.9350 N   0  0  0  0  0  0  0  0  0  0  0  0
   57.8020   24.6720   45.3580 C   0  0  0  0  0  0  0  0  0  0  0  0
   59.0590   24.7870   45.4200 O   0  0  0  0  0  0  0  0  0  0  0  0
   56.9890   25.7480   45.7420 C   0  0  0  0  0  0  0  0  0  0  0  0
   57.5800   27.0220   46.2230 C   0  0  0  0  0  0  0  0  0  0  0  0
   58.4390   27.1720   47.3080 C   0  0  0  0  0  0  0  0  0  0  0  0
   58.8420   28.4950   47.5270 C   0  0  0  0  0  0  0  0  0  0  0  0
   58.2990   29.3980   46.6150 C   0  0  0  0  0  0  0  0  0  0  0  0
   58.5300   30.8540   46.5560 C   0  0  0  0  0  0  0  0  0  0  0  0
   57.7630   31.5640   45.8510 O   0  0  0  0  0  0  0  0  0  0  0  0
   59.6040   31.4700   47.2850 N   0  0  0  0  0  0  0  0  0  0  0  0
   59.9280   32.8870   47.1430 C   0  0  0  0  0  0  0  0  0  0  0  0
   61.3520   33.1310   47.5320 C   0  0  0  0  0  0  0  0  0  0  0  0
   62.3180   33.7430   46.7420 C   0  0  0  0  0  0  0  0  0  0  0  0
   63.5800   33.7830   47.3490 C   0  0  0  0  0  0  0  0  0  0  0  0
   63.5980   33.1940   48.6060 C   0  0  0  0  0  0  0  0  0  0  0  0
   64.9990   33.0520   49.6460 Cl  0  0  0  0  0  0  0  0  0  0  0  0
   62.0600   32.6220   48.9710 S   0  0  0  0  0  0  0  0  0  0  0  0
   57.3290   28.5410   45.5380 S   0  0  0  0  0  0  0  0  0  0  0  0
   55.5990   25.5930   45.6550 C   0  0  0  0  0  0  0  0  0  0  0  0
   54.7700   26.6600   45.9980 O   0  0  0  0  0  0  0  0  0  0  0  0
   55.0570   24.4180   45.2080 N   0  0  0  0  0  0  0  0  0  0  0  0
   53.5890   24.2560   45.1530 C   0  0  0  0  0  0  0  0  0  0  0  0
   53.1260   23.2950   46.2170 C   0  0  0  0  0  0  0  0  0  0  0  0
   53.9670   22.9650   47.2950 C   0  0  0  0  0  0  0  0  0  0  0  0
   53.5230   22.0970   48.2970 C   0  0  0  0  0  0  0  0  0  0  0  0
   52.2370   21.5550   48.2340 C   0  0  0  0  0  0  0  0  0  0  0  0
   51.3930   21.8800   47.1690 C   0  0  0  0  0  0  0  0  0  0  0  0
   51.8330   22.7480   46.1640 C   0  0  0  0  0  0  0  0  0  0  0  0
   55.8780   23.3800   44.8410 C   0  0  0  0  0  0  0  0  0  0  0  0
   55.3700   22.3060   44.4080 O   0  0  0  0  0  0  0  0  0  0  0  0
   58.5012   21.8669   45.4033 H   0  0  0  0  0  0  0  0  0  0  0  0
   57.5191   21.6685   43.9124 H   0  0  0  0  0  0  0  0  0  0  0  0
   58.9398   22.7677   43.9124 H   0  0  0  0  0  0  0  0  0  0  0  0
   58.7700   26.3305   47.9343 H   0  0  0  0  0  0  0  0  0  0  0  0
   59.5210   28.7925   48.3397 H   0  0  0  0  0  0  0  0  0  0  0  0
   60.1700   30.9080   47.9570 H   0  0  0  0  0  0  0  0  0  0  0  0
   59.7797   33.1909   46.0963 H   0  0  0  0  0  0  0  0  0  0  0  0
   59.2698   33.4741   47.8003 H   0  0  0  0  0  0  0  0  0  0  0  0
   62.1127   34.1539   45.7425 H   0  0  0  0  0  0  0  0  0  0  0  0
   64.4656   34.2347   46.8780 H   0  0  0  0  0  0  0  0  0  0  0  0
   53.1103   25.2332   45.3142 H   0  0  0  0  0  0  0  0  0  0  0  0
   53.3110   23.8568   44.1664 H   0  0  0  0  0  0  0  0  0  0  0  0
   54.9792   23.3920   47.3500 H   0  0  0  0  0  0  0  0  0  0  0  0
   54.1869   21.8406   49.1358 H   0  0  0  0  0  0  0  0  0  0  0  0
   51.8888   20.8722   49.0230 H   0  0  0  0  0  0  0  0  0  0  0  0
   50.3806   21.4525   47.1207 H   0  0  0  0  0  0  0  0  0  0  0  0
   51.1640   23.0032   45.3290 H   0  0  0  0  0  0  0  0  0  0  0  0
  1  2  1  0
  2  3  1  0
  3  4  2  0
  3  5  1  0
  5  6  1  0
  6  7  2  0
  7  8  1  0
  8  9  2  0
  9 10  1  0
 10 11  2  0
 10 12  1  0
 12 13  1  0
 13 14  1  0
 14 15  2  0
 15 16  1  0
 16 17  2  0
 17 18  1  0
 17 19  1  0
  9 20  1  0
  5 21  2  0
 21 22  1  0
 21 23  1  0
 23 24  1  0
 24 25  1  0
 25 26  2  0
 26 27  1  0
 27 28  2  0
 28 29  1  0
 29 30  2  0
 23 31  1  0
 31 32  2  0
 31  2  1  0
 20  6  1  0
 30 25  1  0
 19 14  1  0
  1 33  1  0
  1 34  1  0
  1 35  1  0
  7 36  1  0
  8 37  1  0
 12 38  1  0
 13 39  1  0
 13 40  1  0
 15 41  1  0
 16 42  1  0
 24 43  1  0
 24 44  1  0
 26 45  1  0
 27 46  1  0
 28 47  1  0
 29 48  1  0
 30 49  1  0
M  CHG  1  22  -1
M  END
>  <UniqueID>  (61) 
55

>  <SMILES>  (61) 
Cn1c(=O)c(-c2ccc(C(=O)NCc3ccc(Cl)s3)s2)c([O-])n(Cc2ccccc2)c1=O

>  <Energy>  (61) 
116.17418527622712

>  <Genealogy>  (61) 
Cn1c(=O)c(-c2ccc(C(=O)NCc3ccc(Cl)s3)s2)c([O-])n(Cc2ccccc2)c1=O (protonated)
Cn1c(=O)c(-c2ccc(C(=O)NCc3ccc(Cl)s3)s2)c([O-])n(Cc2ccccc2)c1=O (3D coordinates assigned)
Cn1c(=O)c(-c2ccc(C(=O)NCc3ccc(Cl)s3)s2)c([O-])n(Cc2ccccc2)c1=O (optimized conformer: 116.17418527622712 kcal/mol)

>  <smiles>  (61) 
Cn1c(=O)c(-c2ccc(C(=O)NCc3ccc(Cl)s3)s2)c(O)n(Cc2ccccc2)c1=O

>  <score_type>  (61) 
oracle

>  <origin>  (61) 
adg

>  <m_score__min__energy>  (61) 
-11.75

>  <m_primary>  (61) 
energy

$$$$
61:0
     RDKit          3D

 47 49  0  0  0  0  0  0  0  0999 V2000
   55.1310   29.3210   44.8890 N   0  0  0  0  0  0  0  0  0  0  0  0
   56.6780   29.9240   44.4090 S   0  0  0  0  0  0  0  0  0  0  0  0
   56.9490   29.5290   42.9840 O   0  0  0  0  0  0  0  0  0  0  0  0
   56.6810   31.4250   44.5000 O   0  0  0  0  0  0  0  0  0  0  0  0
   57.9230   29.2650   45.4680 C   0  0  0  0  0  0  0  0  0  0  0  0
   58.4510   27.9880   45.2330 C   0  0  0  0  0  0  0  0  0  0  0  0
   59.4440   27.4760   46.0700 C   0  0  0  0  0  0  0  0  0  0  0  0
   59.9070   28.2300   47.1520 C   0  0  0  0  0  0  0  0  0  0  0  0
   59.3650   29.4940   47.4180 C   0  0  0  0  0  0  0  0  0  0  0  0
   59.8700   30.2390   48.5350 N   0  0  0  0  0  0  0  0  0  0  0  0
   59.3180   30.2570   49.8580 C   0  0  0  0  0  0  0  0  0  0  0  0
   58.2680   29.6120   50.1280 O   0  0  0  0  0  0  0  0  0  0  0  0
   60.0560   30.9560   50.9490 C   0  0  0  0  0  0  0  0  0  0  0  0
   60.2710   32.7090   50.5020 S   0  0  0  0  0  0  0  0  0  0  0  0
   62.0100   32.5200   50.0770 C   0  0  0  0  0  0  0  0  0  0  0  0
   62.8900   32.1150   51.0910 C   0  0  0  0  0  0  0  0  0  0  0  0
   64.2570   31.9920   50.8350 C   0  0  0  0  0  0  0  0  0  0  0  0
   64.7580   32.2830   49.5670 C   0  0  0  0  0  0  0  0  0  0  0  0
   63.8960   32.6970   48.5500 C   0  0  0  0  0  0  0  0  0  0  0  0
   62.5140   32.8220   48.7860 C   0  0  0  0  0  0  0  0  0  0  0  0
   61.6420   33.2870   47.6810 C   0  0  0  0  0  0  0  0  0  0  0  0
   62.0610   34.1570   46.8700 O   0  0  0  0  0  0  0  0  0  0  0  0
   60.3260   32.7310   47.5190 N   0  0  0  0  0  0  0  0  0  0  0  0
   59.3410   33.2560   46.6100 C   0  0  0  0  0  0  0  0  0  0  0  0
   59.7130   33.8070   45.3700 C   0  0  0  0  0  0  0  0  0  0  0  0
   58.7420   34.3270   44.5080 C   0  0  0  0  0  0  0  0  0  0  0  0
   57.3950   34.3180   44.8810 C   0  0  0  0  0  0  0  0  0  0  0  0
   57.0170   33.7910   46.1180 C   0  0  0  0  0  0  0  0  0  0  0  0
   57.9840   33.2680   46.9840 C   0  0  0  0  0  0  0  0  0  0  0  0
   57.5970   32.7580   48.1810 F   0  0  0  0  0  0  0  0  0  0  0  0
   58.3830   30.0170   46.5580 C   0  0  0  0  0  0  0  0  0  0  0  0
   55.3000   28.6090   45.6340 H   0  0  0  0  0  0  0  0  0  0  0  0
   58.0823   27.3884   44.3877 H   0  0  0  0  0  0  0  0  0  0  0  0
   59.8629   26.4772   45.8776 H   0  0  0  0  0  0  0  0  0  0  0  0
   60.7015   27.8286   47.7983 H   0  0  0  0  0  0  0  0  0  0  0  0
   59.4835   30.8830   51.8855 H   0  0  0  0  0  0  0  0  0  0  0  0
   61.0414   30.4870   51.0870 H   0  0  0  0  0  0  0  0  0  0  0  0
   62.5004   31.8926   52.0954 H   0  0  0  0  0  0  0  0  0  0  0  0
   64.9389   31.6654   51.6340 H   0  0  0  0  0  0  0  0  0  0  0  0
   65.8354   32.1861   49.3674 H   0  0  0  0  0  0  0  0  0  0  0  0
   64.3010   32.9280   47.5537 H   0  0  0  0  0  0  0  0  0  0  0  0
   60.1180   31.8250   47.9970 H   0  0  0  0  0  0  0  0  0  0  0  0
   60.7730   33.8289   45.0769 H   0  0  0  0  0  0  0  0  0  0  0  0
   59.0391   34.7439   43.5344 H   0  0  0  0  0  0  0  0  0  0  0  0
   56.6329   34.7258   44.2006 H   0  0  0  0  0  0  0  0  0  0  0  0
   55.9571   33.7870   46.4121 H   0  0  0  0  0  0  0  0  0  0  0  0
   57.9737   31.0214   46.7415 H   0  0  0  0  0  0  0  0  0  0  0  0
  1  2  1  0
  2  3  2  0
  2  4  2  0
  2  5  1  0
  5  6  2  0
  6  7  1  0
  7  8  2  0
  8  9  1  0
  9 10  1  0
 10 11  1  0
 11 12  2  0
 11 13  1  0
 13 14  1  0
 14 15  1  0
 15 16  2  0
 16 17  1  0
 17 18  2  0
 18 19  1  0
 19 20  2  0
 20 21  1  0
 21 22  2  0
 21 23  1  0
 23 24  1  0
 24 25  2  0
 25 26  1  0
 26 27  2  0
 27 28  1  0
 28 29  2  0
 29 30  1  0
  9 31  2  0
 31  5  1  0
 20 15  1  0
 29 24  1  0
  1 32  1  0
  6 33  1  0
  7 34  1  0
  8 35  1  0
 13 36  1  0
 13 37  1  0
 16 38  1  0
 17 39  1  0
 18 40  1  0
 19 41  1  0
 23 42  1  0
 25 43  1  0
 26 44  1  0
 27 45  1  0
 28 46  1  0
 31 47  1  0
M  CHG  2   1  -1  10  -1
M  END
>  <UniqueID>  (62) 
56

>  <SMILES>  (62) 
[NH-]S(=O)(=O)c1cccc([N-]C(=O)CSc2ccccc2C(=O)Nc2ccccc2F)c1

>  <Energy>  (62) 
56.694604910207346

>  <Genealogy>  (62) 
[NH-]S(=O)(=O)c1cccc([N-]C(=O)CSc2ccccc2C(=O)Nc2ccccc2F)c1 (protonated)
[NH-]S(=O)(=O)c1cccc([N-]C(=O)CSc2ccccc2C(=O)Nc2ccccc2F)c1 (3D coordinates assigned)
[NH-]S(=O)(=O)c1cccc([N-]C(=O)CSc2ccccc2C(=O)Nc2ccccc2F)c1 (optimized conformer: 56.694604910207346 kcal/mol)

>  <smiles>  (62) 
NS(=O)(=O)c1cccc(NC(=O)CSc2ccccc2C(=O)Nc2ccccc2F)c1

>  <score_type>  (62) 
oracle

>  <origin>  (62) 
adg

>  <m_score__min__energy>  (62) 
-13.390000000000001

>  <m_primary>  (62) 
energy

$$$$
62:0
     RDKit          3D

 54 57  0  0  1  0  0  0  0  0999 V2000
   62.6490   34.6380   50.1110 C   0  0  0  0  0  0  0  0  0  0  0  0
   62.3230   33.2100   50.1420 N   0  0  0  0  0  0  0  0  0  0  0  0
   62.5780   32.4560   49.0620 C   0  0  0  0  0  0  0  0  0  0  0  0
   63.1400   33.0670   47.9640 O   0  0  0  0  0  0  0  0  0  0  0  0
   62.5350   33.2640   46.7210 C   0  0  0  0  0  0  0  0  0  0  0  0
   61.0520   33.3520   46.8780 C   0  0  0  0  0  0  0  0  0  0  0  0
   60.4140   34.5730   46.8900 C   0  0  0  0  0  0  0  0  0  0  0  0
   59.0270   34.6220   47.0380 C   0  0  0  0  0  0  0  0  0  0  0  0
   58.2730   33.4690   47.1750 C   0  0  0  0  0  0  0  0  0  0  0  0
   58.9160   32.2550   47.1610 C   0  0  0  0  0  0  0  0  0  0  0  0
   58.1390   31.1490   47.2980 F   0  0  0  0  0  0  0  0  0  0  0  0
   60.2860   32.1960   47.0160 C   0  0  0  0  0  0  0  0  0  0  0  0
   62.2590   31.1170   49.1270 C   0  0  0  0  0  0  0  0  0  0  0  0
   61.6990   30.5680   50.2550 C   0  0  0  0  0  0  0  0  0  0  0  0
   61.3900   29.1610   50.2540 C   0  0  0  0  0  0  0  0  0  0  0  0
   61.4650   28.3440   51.3610 C   0  0  0  0  0  0  0  0  0  0  0  0
   61.1570   26.9940   51.3100 C   0  0  0  0  0  0  0  0  0  0  0  0
   60.7760   26.5150   50.1100 N   0  0  0  0  0  0  0  0  0  0  0  0
   60.6910   27.2800   49.0090 C   0  0  0  0  0  0  0  0  0  0  0  0
   60.3130   26.7210   47.9000 N   0  0  0  0  0  0  0  0  0  0  0  0
   59.4080   27.4430   47.0450 C   0  0  0  0  0  0  0  0  0  0  0  0
   58.0970   27.0420   46.8940 C   0  0  0  0  0  0  0  0  0  0  0  0
   57.1980   27.7050   46.0860 C   0  0  0  0  0  0  0  0  0  0  0  0
   57.6550   28.8220   45.4040 C   0  0  0  0  0  0  0  0  0  0  0  0
   56.5330   29.6810   44.3710 S   0  0  0  0  0  0  0  0  0  0  0  0
   56.6570   29.1910   42.7220 N   0  0  0  0  0  0  0  0  0  0  0  0
   56.8100   31.1510   44.5330 O   0  0  0  0  0  0  0  0  0  0  0  0
   55.1450   29.3360   44.8500 O   0  0  0  0  0  0  0  0  0  0  0  0
   58.9720   29.2600   45.5300 C   0  0  0  0  0  0  0  0  0  0  0  0
   59.8340   28.5570   46.3550 C   0  0  0  0  0  0  0  0  0  0  0  0
   60.9990   28.5850   49.1020 N   0  0  0  0  0  0  0  0  0  0  0  0
   61.4630   31.3990   51.3270 C   0  0  0  0  0  0  0  0  0  0  0  0
   61.7770   32.7350   51.2740 C   0  0  0  0  0  0  0  0  0  0  0  0
   61.5430   33.4600   52.2850 O   0  0  0  0  0  0  0  0  0  0  0  0
   62.7355   35.0168   51.1401 H   0  0  0  0  0  0  0  0  0  0  0  0
   63.6038   34.7848   49.5848 H   0  0  0  0  0  0  0  0  0  0  0  0
   61.8525   35.1846   49.5848 H   0  0  0  0  0  0  0  0  0  0  0  0
   62.9098   34.1987   46.2784 H   0  0  0  0  0  0  0  0  0  0  0  0
   62.7770   32.4148   46.0650 H   0  0  0  0  0  0  0  0  0  0  0  0
   60.9932   35.5021   46.7838 H   0  0  0  0  0  0  0  0  0  0  0  0
   58.5215   35.5989   47.0460 H   0  0  0  0  0  0  0  0  0  0  0  0
   57.1807   33.5238   47.2927 H   0  0  0  0  0  0  0  0  0  0  0  0
   60.7849   31.2157   47.0091 H   0  0  0  0  0  0  0  0  0  0  0  0
   62.4570   30.4738   48.2569 H   0  0  0  0  0  0  0  0  0  0  0  0
   61.7810   28.7795   52.3204 H   0  0  0  0  0  0  0  0  0  0  0  0
   61.2201   26.3497   52.1993 H   0  0  0  0  0  0  0  0  0  0  0  0
   60.5460   25.4900   50.0840 H   0  0  0  0  0  0  0  0  0  0  0  0
   57.7532   26.1530   47.4431 H   0  0  0  0  0  0  0  0  0  0  0  0
   56.1580   27.3609   45.9863 H   0  0  0  0  0  0  0  0  0  0  0  0
   56.5640   28.1390   42.7150 H   0  0  0  0  0  0  0  0  0  0  0  0
   57.6270   29.4520   42.3750 H   0  0  0  0  0  0  0  0  0  0  0  0
   59.3208   30.1487   44.9836 H   0  0  0  0  0  0  0  0  0  0  0  0
   60.8759   28.8935   46.4612 H   0  0  0  0  0  0  0  0  0  0  0  0
   61.0149   30.9855   52.2425 H   0  0  0  0  0  0  0  0  0  0  0  0
  1  2  1  0
  2  3  1  0
  3  4  1  0
  4  5  1  0
  5  6  1  0
  6  7  2  0
  7  8  1  0
  8  9  2  0
  9 10  1  0
 10 11  1  0
 10 12  2  0
  3 13  2  0
 13 14  1  0
 14 15  1  0
 15 16  1  0
 16 17  2  0
 17 18  1  0
 18 19  1  0
 19 20  2  0
 20 21  1  0
 21 22  2  0
 22 23  1  0
 23 24  2  0
 24 25  1  0
 25 26  1  0
 25 27  2  0
 25 28  2  0
 24 29  1  0
 29 30  2  0
 19 31  1  0
 14 32  2  0
 32 33  1  0
 33 34  2  0
 33  2  1  0
 12  6  1  0
 31 15  2  0
 30 21  1  0
  1 35  1  0
  1 36  1  0
  1 37  1  0
  5 38  1  0
  5 39  1  0
  7 40  1  0
  8 41  1  0
  9 42  1  0
 12 43  1  0
 13 44  1  0
 16 45  1  0
 17 46  1  0
 18 47  1  0
 22 48  1  0
 23 49  1  0
 26 50  1  0
 26 51  1  0
 29 52  1  0
 30 53  1  0
 32 54  1  0
M  END
>  <smiles>  (63) 
Cn1c(OCc2cccc(F)c2)cc(-c2cc[nH]c(=Nc3ccc(S(N)(=O)=O)cc3)n2)cc1=O

>  <score_type>  (63) 
oracle

>  <origin>  (63) 
adg

>  <m_score__min__energy>  (63) 
-9.75

>  <m_primary>  (63) 
energy

$$$$
63:0
     RDKit          3D

 65 68  0  0  0  0  0  0  0  0999 V2000
   59.1770   23.6550   45.6730 C   0  0  0  0  0  0  0  0  0  0  0  0
   58.1410   23.1880   44.6810 C   0  0  0  0  0  0  0  0  0  0  0  0
   58.3340   21.9570   44.0280 C   0  0  0  0  0  0  0  0  0  0  0  0
   57.3950   21.4870   43.1100 C   0  0  0  0  0  0  0  0  0  0  0  0
   56.2460   22.2310   42.8420 C   0  0  0  0  0  0  0  0  0  0  0  0
   56.0350   23.4540   43.4790 C   0  0  0  0  0  0  0  0  0  0  0  0
   56.9850   23.9580   44.3840 C   0  0  0  0  0  0  0  0  0  0  0  0
   56.7540   25.2880   44.9910 C   0  0  0  0  0  0  0  0  0  0  0  0
   55.9940   25.3900   45.9960 O   0  0  0  0  0  0  0  0  0  0  0  0
   57.3450   26.4580   44.4090 N   0  0  0  0  0  0  0  0  0  0  0  0
   57.5890   27.6730   45.1310 C   0  0  0  0  0  0  0  0  0  0  0  0
   57.4040   27.7170   46.3790 O   0  0  0  0  0  0  0  0  0  0  0  0
   58.1150   28.8120   44.4260 N   0  0  0  0  0  0  0  0  0  0  0  0
   58.5410   30.0400   45.0400 C   0  0  0  0  0  0  0  0  0  0  0  0
   57.7100   31.1680   44.9460 C   0  0  0  0  0  0  0  0  0  0  0  0
   58.0750   32.3740   45.5480 C   0  0  0  0  0  0  0  0  0  0  0  0
   59.2750   32.4710   46.2680 C   0  0  0  0  0  0  0  0  0  0  0  0
   59.7400   34.0000   47.0200 S   0  0  0  0  0  0  0  0  0  0  0  0
   60.3660   34.8900   45.9810 O   0  0  0  0  0  0  0  0  0  0  0  0
   58.5050   34.6910   47.5310 O   0  0  0  0  0  0  0  0  0  0  0  0
   60.8390   33.7620   48.3650 N   0  0  0  0  0  0  0  0  0  0  0  0
   60.4810   32.5040   49.0590 C   0  0  0  0  0  0  0  0  0  0  0  0
   59.5350   32.7250   50.2170 C   0  0  0  0  0  0  0  0  0  0  0  0
   59.7470   33.7910   51.1120 C   0  0  0  0  0  0  0  0  0  0  0  0
   58.8690   34.0000   52.1760 C   0  0  0  0  0  0  0  0  0  0  0  0
   57.7810   33.1430   52.3660 C   0  0  0  0  0  0  0  0  0  0  0  0
   57.5670   32.0760   51.4880 C   0  0  0  0  0  0  0  0  0  0  0  0
   58.4370   31.8700   50.4140 C   0  0  0  0  0  0  0  0  0  0  0  0
   62.2530   33.7820   47.9000 C   0  0  0  0  0  0  0  0  0  0  0  0
   63.2280   33.6080   49.0460 C   0  0  0  0  0  0  0  0  0  0  0  0
   63.0450   34.2960   50.2580 C   0  0  0  0  0  0  0  0  0  0  0  0
   63.9540   34.1260   51.3100 C   0  0  0  0  0  0  0  0  0  0  0  0
   65.0380   33.2550   51.1670 C   0  0  0  0  0  0  0  0  0  0  0  0
   65.2140   32.5480   49.9750 C   0  0  0  0  0  0  0  0  0  0  0  0
   64.3100   32.7170   48.9200 C   0  0  0  0  0  0  0  0  0  0  0  0
   60.1040   31.3450   46.3720 C   0  0  0  0  0  0  0  0  0  0  0  0
   59.7330   30.1330   45.7830 C   0  0  0  0  0  0  0  0  0  0  0  0
   58.8071   23.4882   46.6954 H   0  0  0  0  0  0  0  0  0  0  0  0
   60.1088   23.0899   45.5235 H   0  0  0  0  0  0  0  0  0  0  0  0
   59.3706   24.7275   45.5235 H   0  0  0  0  0  0  0  0  0  0  0  0
   59.2327   21.3603   44.2431 H   0  0  0  0  0  0  0  0  0  0  0  0
   57.5608   20.5283   42.5967 H   0  0  0  0  0  0  0  0  0  0  0  0
   55.5029   21.8517   42.1251 H   0  0  0  0  0  0  0  0  0  0  0  0
   55.1195   24.0275   43.2717 H   0  0  0  0  0  0  0  0  0  0  0  0
   57.6430   26.4080   43.4090 H   0  0  0  0  0  0  0  0  0  0  0  0
   58.3300   28.6800   43.4110 H   0  0  0  0  0  0  0  0  0  0  0  0
   56.7618   31.1010   44.3925 H   0  0  0  0  0  0  0  0  0  0  0  0
   57.4185   33.2519   45.4572 H   0  0  0  0  0  0  0  0  0  0  0  0
   60.6530   34.5610   49.0150 H   0  0  0  0  0  0  0  0  0  0  0  0
   60.0006   31.8279   48.3364 H   0  0  0  0  0  0  0  0  0  0  0  0
   61.4081   32.0734   49.4651 H   0  0  0  0  0  0  0  0  0  0  0  0
   60.6078   34.4614   50.9719 H   0  0  0  0  0  0  0  0  0  0  0  0
   59.0331   34.8404   52.8664 H   0  0  0  0  0  0  0  0  0  0  0  0
   57.0922   33.3083   53.2075 H   0  0  0  0  0  0  0  0  0  0  0  0
   56.7140   31.3989   51.6427 H   0  0  0  0  0  0  0  0  0  0  0  0
   58.2617   31.0350   49.7197 H   0  0  0  0  0  0  0  0  0  0  0  0
   62.4018   32.9643   47.1795 H   0  0  0  0  0  0  0  0  0  0  0  0
   62.4448   34.7604   47.4354 H   0  0  0  0  0  0  0  0  0  0  0  0
   62.1847   34.9704   50.3808 H   0  0  0  0  0  0  0  0  0  0  0  0
   63.8146   34.6790   52.2506 H   0  0  0  0  0  0  0  0  0  0  0  0
   65.7526   33.1263   51.9933 H   0  0  0  0  0  0  0  0  0  0  0  0
   66.0637   31.8580   49.8655 H   0  0  0  0  0  0  0  0  0  0  0  0
   64.4460   32.1502   47.9871 H   0  0  0  0  0  0  0  0  0  0  0  0
   61.0542   31.4161   46.9217 H   0  0  0  0  0  0  0  0  0  0  0  0
   60.3754   29.2478   45.9006 H   0  0  0  0  0  0  0  0  0  0  0  0
  1  2  1  0
  2  3  2  0
  3  4  1  0
  4  5  2  0
  5  6  1  0
  6  7  2  0
  7  8  1  0
  8  9  2  0
  8 10  1  0
 10 11  1  0
 11 12  2  0
 11 13  1  0
 13 14  1  0
 14 15  2  0
 15 16  1  0
 16 17  2  0
 17 18  1  0
 18 19  2  0
 18 20  2  0
 18 21  1  0
 21 22  1  0
 22 23  1  0
 23 24  2  0
 24 25  1  0
 25 26  2  0
 26 27  1  0
 27 28  2  0
 21 29  1  0
 29 30  1  0
 30 31  2  0
 31 32  1  0
 32 33  2  0
 33 34  1  0
 34 35  2  0
 17 36  1  0
 36 37  2  0
  7  2  1  0
 37 14  1  0
 28 23  1  0
 35 30  1  0
  1 38  1  0
  1 39  1  0
  1 40  1  0
  3 41  1  0
  4 42  1  0
  5 43  1  0
  6 44  1  0
 10 45  1  0
 13 46  1  0
 15 47  1  0
 16 48  1  0
 21 49  1  0
 22 50  1  0
 22 51  1  0
 24 52  1  0
 25 53  1  0
 26 54  1  0
 27 55  1  0
 28 56  1  0
 29 57  1  0
 29 58  1  0
 31 59  1  0
 32 60  1  0
 33 61  1  0
 34 62  1  0
 35 63  1  0
 36 64  1  0
 37 65  1  0
M  CHG  1  21   1
M  END
>  <UniqueID>  (64) 
57

>  <SMILES>  (64) 
Cc1ccccc1C(=O)NC(=O)Nc1ccc(S(=O)(=O)[NH+](Cc2ccccc2)Cc2ccccc2)cc1

>  <Energy>  (64) 
80.41042836218966

>  <Genealogy>  (64) 
Cc1ccccc1C(=O)NC(=O)Nc1ccc(S(=O)(=O)[NH+](Cc2ccccc2)Cc2ccccc2)cc1 (protonated)
Cc1ccccc1C(=O)NC(=O)Nc1ccc(S(=O)(=O)[NH+](Cc2ccccc2)Cc2ccccc2)cc1 (3D coordinates assigned)
Cc1ccccc1C(=O)NC(=O)Nc1ccc(S(=O)(=O)[NH+](Cc2ccccc2)Cc2ccccc2)cc1 (optimized conformer: 80.41042836218966 kcal/mol)

>  <smiles>  (64) 
Cc1ccccc1C(=O)NC(=O)Nc1ccc(S(=O)(=O)N(Cc2ccccc2)Cc2ccccc2)cc1

>  <score_type>  (64) 
oracle

>  <origin>  (64) 
adg

>  <m_score__min__energy>  (64) 
-9.0099999999999998

>  <m_primary>  (64) 
energy

$$$$
64:0
     RDKit          3D

 38 40  0  0  0  0  0  0  0  0999 V2000
   60.0010   35.9110   46.0970 C   0  0  0  0  0  0  0  0  0  0  0  0
   59.3080   35.4460   44.9430 O   0  0  0  0  0  0  0  0  0  0  0  0
   58.5970   34.2380   44.8810 C   0  0  0  0  0  0  0  0  0  0  0  0
   58.7020   33.3550   43.7900 C   0  0  0  0  0  0  0  0  0  0  0  0
   57.9730   32.1630   43.7770 C   0  0  0  0  0  0  0  0  0  0  0  0
   57.1370   31.8280   44.8550 C   0  0  0  0  0  0  0  0  0  0  0  0
   56.3380   30.6360   44.8480 N   0  0  0  0  0  0  0  0  0  0  0  0
   56.7140   29.3520   44.3360 C   0  0  0  0  0  0  0  0  0  0  0  0
   56.7830   29.1990   43.0890 O   0  0  0  0  0  0  0  0  0  0  0  0
   56.9110   28.1880   45.2260 C   0  0  0  0  0  0  0  0  0  0  0  0
   55.9020   27.3960   45.6330 N   0  0  0  0  0  0  0  0  0  0  0  0
   56.5140   26.3960   46.3010 C   0  0  0  0  0  0  0  0  0  0  0  0
   57.8580   26.5060   46.3290 N   0  0  0  0  0  0  0  0  0  0  0  0
   58.1090   27.6420   45.6580 C   0  0  0  0  0  0  0  0  0  0  0  0
   59.4690   28.1760   45.4660 C   0  0  0  0  0  0  0  0  0  0  0  0
   59.9570   28.2080   44.3050 O   0  0  0  0  0  0  0  0  0  0  0  0
   60.2480   28.6690   46.5630 N   0  0  0  0  0  0  0  0  0  0  0  0
   60.1120   29.9730   47.1430 C   0  0  0  0  0  0  0  0  0  0  0  0
   59.0420   30.2840   48.0010 C   0  0  0  0  0  0  0  0  0  0  0  0
   58.9370   31.5610   48.5600 C   0  0  0  0  0  0  0  0  0  0  0  0
   59.8980   32.5340   48.2700 C   0  0  0  0  0  0  0  0  0  0  0  0
   59.7490   34.1450   48.9480 Cl  0  0  0  0  0  0  0  0  0  0  0  0
   60.9780   32.2220   47.4370 C   0  0  0  0  0  0  0  0  0  0  0  0
   61.0910   30.9410   46.8860 C   0  0  0  0  0  0  0  0  0  0  0  0
   57.0180   32.7170   45.9290 C   0  0  0  0  0  0  0  0  0  0  0  0
   57.7500   33.9080   45.9460 C   0  0  0  0  0  0  0  0  0  0  0  0
   59.4816   35.5625   47.0018 H   0  0  0  0  0  0  0  0  0  0  0  0
   61.0288   35.5190   46.0902 H   0  0  0  0  0  0  0  0  0  0  0  0
   60.0279   37.0106   46.0902 H   0  0  0  0  0  0  0  0  0  0  0  0
   59.3602   33.6041   42.9446 H   0  0  0  0  0  0  0  0  0  0  0  0
   58.0543   31.4823   42.9167 H   0  0  0  0  0  0  0  0  0  0  0  0
   55.9680   25.5687   46.7780 H   0  0  0  0  0  0  0  0  0  0  0  0
   58.2853   29.5200   48.2330 H   0  0  0  0  0  0  0  0  0  0  0  0
   58.0972   31.8005   49.2289 H   0  0  0  0  0  0  0  0  0  0  0  0
   61.7390   32.9847   47.2151 H   0  0  0  0  0  0  0  0  0  0  0  0
   61.9523   30.6931   46.2483 H   0  0  0  0  0  0  0  0  0  0  0  0
   56.3444   32.4773   46.7650 H   0  0  0  0  0  0  0  0  0  0  0  0
   57.6598   34.5915   46.8031 H   0  0  0  0  0  0  0  0  0  0  0  0
  1  2  1  0
  2  3  1  0
  3  4  2  0
  4  5  1  0
  5  6  2  0
  6  7  1  0
  7  8  1  0
  8  9  2  0
  8 10  1  0
 10 11  1  0
 11 12  1  0
 12 13  2  0
 13 14  1  0
 14 15  1  0
 15 16  2  0
 15 17  1  0
 17 18  1  0
 18 19  2  0
 19 20  1  0
 20 21  2  0
 21 22  1  0
 21 23  1  0
 23 24  2  0
  6 25  1  0
 25 26  2  0
 26  3  1  0
 14 10  2  0
 24 18  1  0
  1 27  1  0
  1 28  1  0
  1 29  1  0
  4 30  1  0
  5 31  1  0
 12 32  1  0
 19 33  1  0
 20 34  1  0
 23 35  1  0
 24 36  1  0
 25 37  1  0
 26 38  1  0
M  CHG  3   7  -1  11  -1  17  -1
M  END
>  <UniqueID>  (65) 
58

>  <SMILES>  (65) 
COc1ccc([N-]C(=O)c2[n-]cnc2C(=O)[N-]c2ccc(Cl)cc2)cc1

>  <Energy>  (65) 
78.63048965117726

>  <Genealogy>  (65) 
COc1ccc([N-]C(=O)c2[n-]cnc2C(=O)[N-]c2ccc(Cl)cc2)cc1 (protonated)
COc1ccc([N-]C(=O)c2[n-]cnc2C(=O)[N-]c2ccc(Cl)cc2)cc1 (3D coordinates assigned)
COc1ccc([N-]C(=O)c2[n-]cnc2C(=O)[N-]c2ccc(Cl)cc2)cc1 (optimized conformer: 78.63048965117726 kcal/mol)

>  <smiles>  (65) 
COc1ccc(NC(=O)c2[nH]cnc2C(=O)Nc2ccc(Cl)cc2)cc1

>  <score_type>  (65) 
oracle

>  <origin>  (65) 
adg

>  <m_score__min__energy>  (65) 
-12.390000000000001

>  <m_primary>  (65) 
energy

$$$$
65:0
     RDKit          3D

 37 39  0  0  0  0  0  0  0  0999 V2000
   54.7650   27.4700   46.3200 H   0  0  0  0  0  0  0  0  0  0  0  0
   55.4150   26.8230   45.8960 O   0  0  0  0  0  0  0  0  0  0  0  0
   56.7900   27.0580   45.8350 C   0  0  0  0  0  0  0  0  0  0  0  0
   57.6590   26.0220   46.1970 C   0  0  0  0  0  0  0  0  0  0  0  0
   57.2497   25.0430   46.4870 H   0  0  0  0  0  0  0  0  0  0  0  0
   59.0410   26.2210   46.1930 C   0  0  0  0  0  0  0  0  0  0  0  0
   59.7156   25.3995   46.4760 H   0  0  0  0  0  0  0  0  0  0  0  0
   59.5670   27.4620   45.8300 C   0  0  0  0  0  0  0  0  0  0  0  0
   60.6555   27.6207   45.8368 H   0  0  0  0  0  0  0  0  0  0  0  0
   58.7120   28.5030   45.4580 C   0  0  0  0  0  0  0  0  0  0  0  0
   59.1313   29.4811   45.1797 H   0  0  0  0  0  0  0  0  0  0  0  0
   57.3210   28.3090   45.4370 C   0  0  0  0  0  0  0  0  0  0  0  0
   56.4540   29.4220   44.9890 C   0  0  0  0  0  0  0  0  0  0  0  0
   55.2050   29.2950   45.0910 O   0  0  0  0  0  0  0  0  0  0  0  0
   56.9810   30.6400   44.4330 N   0  0  0  0  0  0  0  0  0  0  0  0
   57.6140   31.5730   45.0810 C   0  0  0  0  0  0  0  0  0  0  0  0
   58.8290   31.4160   45.6490 N   0  0  0  0  0  0  0  0  0  0  0  0
   59.2520   32.5470   46.2780 C   0  0  0  0  0  0  0  0  0  0  0  0
   60.5770   32.6010   46.9530 C   0  0  0  0  0  0  0  0  0  0  0  0
   61.5370   33.5360   46.5240 C   0  0  0  0  0  0  0  0  0  0  0  0
   61.3013   34.2176   45.6934 H   0  0  0  0  0  0  0  0  0  0  0  0
   62.7850   33.6060   47.1430 C   0  0  0  0  0  0  0  0  0  0  0  0
   63.5252   34.3441   46.8004 H   0  0  0  0  0  0  0  0  0  0  0  0
   63.0990   32.7450   48.1940 C   0  0  0  0  0  0  0  0  0  0  0  0
   64.0851   32.8083   48.6774 H   0  0  0  0  0  0  0  0  0  0  0  0
   62.1610   31.7960   48.6390 C   0  0  0  0  0  0  0  0  0  0  0  0
   62.4570   30.8900   49.7170 N   0  0  0  0  0  0  0  0  0  0  0  0
   63.3820   30.9620   50.1990 H   0  0  0  0  0  0  0  0  0  0  0  0
   61.5330   29.8620   50.1850 C   0  0  0  0  0  0  0  0  0  0  0  0
   61.5232   29.8511   51.2849 H   0  0  0  0  0  0  0  0  0  0  0  0
   60.5217   30.0804   49.8114 H   0  0  0  0  0  0  0  0  0  0  0  0
   61.8576   28.8796   49.8114 H   0  0  0  0  0  0  0  0  0  0  0  0
   60.9050   31.7310   48.0120 C   0  0  0  0  0  0  0  0  0  0  0  0
   60.1669   30.9900   48.3529 H   0  0  0  0  0  0  0  0  0  0  0  0
   58.3470   33.6140   46.2090 C   0  0  0  0  0  0  0  0  0  0  0  0
   58.4935   34.6120   46.6477 H   0  0  0  0  0  0  0  0  0  0  0  0
   56.9970   33.1080   45.3400 S   0  0  0  0  0  0  0  0  0  0  0  0
  1  2  1  0
  2  3  1  0
  3  4  2  0
  4  5  1  0
  4  6  1  0
  6  7  1  0
  6  8  2  0
  8  9  1  0
  8 10  1  0
 10 11  1  0
 10 12  2  0
 12 13  1  0
 13 14  2  0
 13 15  1  0
 15 16  2  0
 16 17  1  0
 17 18  1  0
 18 19  1  0
 19 20  2  0
 20 21  1  0
 20 22  1  0
 22 23  1  0
 22 24  2  0
 24 25  1  0
 24 26  1  0
 26 27  1  0
 27 28  1  0
 27 29  1  0
 29 30  1  0
 29 31  1  0
 29 32  1  0
 26 33  2  0
 33 34  1  0
 18 35  2  0
 35 36  1  0
 35 37  1  0
 12  3  1  0
 37 16  1  0
 33 19  1  0
M  CHG  1  17  -1
M  END
>  <UniqueID>  (66) 
59

>  <SMILES>  (66) 
CNc1cccc(-c2cs/c(=N/C(=O)c3ccccc3O)[n-]2)c1

>  <Energy>  (66) 
78.62567612728486

>  <Genealogy>  (66) 
CNc1cccc(-c2csc(=NC(=O)c3ccccc3O)[n-]2)c1 (protonated)
CNc1cccc(-c2cs/c(=N/C(=O)c3ccccc3O)[n-]2)c1 (cis-trans isomerization)
CNc1cccc(-c2cs/c(=N/C(=O)c3ccccc3O)[n-]2)c1 (3D coordinates assigned)
CNc1cccc(-c2cs/c(=N/C(=O)c3ccccc3O)[n-]2)c1 (optimized conformer: 78.62567612728486 kcal/mol)

>  <smiles>  (66) 
CNc1cccc(-c2csc(=NC(=O)c3ccccc3O)[nH]2)c1

>  <score_type>  (66) 
oracle

>  <origin>  (66) 
adg

>  <m_score__min__energy>  (66) 
-10.890000000000001

>  <m_primary>  (66) 
energy

$$$$
66:0
     RDKit          3D

 39 41  0  0  0  0  0  0  0  0999 V2000
   54.4750   29.3540   45.1600 H   0  0  0  0  0  0  0  0  0  0  0  0
   54.7690   29.3310   44.1580 N   0  0  0  0  0  0  0  0  0  0  0  0
   56.3400   30.0480   44.0780 S   0  0  0  0  0  0  0  0  0  0  0  0
   56.2530   31.4890   44.4980 O   0  0  0  0  0  0  0  0  0  0  0  0
   56.8500   29.9850   42.6670 O   0  0  0  0  0  0  0  0  0  0  0  0
   57.4360   29.1800   45.1490 C   0  0  0  0  0  0  0  0  0  0  0  0
   58.7100   29.6940   45.4220 C   0  0  0  0  0  0  0  0  0  0  0  0
   59.0318   30.6382   44.9584 H   0  0  0  0  0  0  0  0  0  0  0  0
   59.5740   29.0090   46.2830 C   0  0  0  0  0  0  0  0  0  0  0  0
   60.5701   29.4227   46.4990 H   0  0  0  0  0  0  0  0  0  0  0  0
   59.1810   27.8010   46.8720 C   0  0  0  0  0  0  0  0  0  0  0  0
   60.0910   27.1430   47.7660 N   0  0  0  0  0  0  0  0  0  0  0  0
   60.4430   27.5650   49.0900 C   0  0  0  0  0  0  0  0  0  0  0  0
   60.7780   26.7220   49.9650 O   0  0  0  0  0  0  0  0  0  0  0  0
   60.4670   28.9970   49.4220 C   0  0  0  0  0  0  0  0  0  0  0  0
   59.4700   29.8380   49.0330 N   0  0  0  0  0  0  0  0  0  0  0  0
   59.7020   31.1050   49.4390 C   0  0  0  0  0  0  0  0  0  0  0  0
   58.8920   32.1010   49.2360 N   0  0  0  0  0  0  0  0  0  0  0  0
   58.8400   32.9380   48.0660 C   0  0  0  0  0  0  0  0  0  0  0  0
   57.9010   32.7090   47.0420 C   0  0  0  0  0  0  0  0  0  0  0  0
   57.1748   31.8887   47.1406 H   0  0  0  0  0  0  0  0  0  0  0  0
   57.8850   33.5150   45.9030 C   0  0  0  0  0  0  0  0  0  0  0  0
   57.1381   33.3370   45.1153 H   0  0  0  0  0  0  0  0  0  0  0  0
   58.8140   34.5460   45.7610 C   0  0  0  0  0  0  0  0  0  0  0  0
   58.7923   35.1860   44.8666 H   0  0  0  0  0  0  0  0  0  0  0  0
   59.7710   34.7660   46.7530 C   0  0  0  0  0  0  0  0  0  0  0  0
   60.5069   35.5747   46.6329 H   0  0  0  0  0  0  0  0  0  0  0  0
   59.8000   33.9600   47.9050 C   0  0  0  0  0  0  0  0  0  0  0  0
   60.8370   34.2060   48.9670 C   0  0  0  0  0  0  0  0  0  0  0  0
   60.3775   34.0970   49.9604 H   0  0  0  0  0  0  0  0  0  0  0  0
   61.6532   33.4765   48.8585 H   0  0  0  0  0  0  0  0  0  0  0  0
   61.2385   35.2243   48.8585 H   0  0  0  0  0  0  0  0  0  0  0  0
   61.1310   31.2360   50.3080 S   0  0  0  0  0  0  0  0  0  0  0  0
   61.4940   29.6000   50.1500 C   0  0  0  0  0  0  0  0  0  0  0  0
   62.3850   29.0943   50.5505 H   0  0  0  0  0  0  0  0  0  0  0  0
   57.8880   27.3040   46.6210 C   0  0  0  0  0  0  0  0  0  0  0  0
   57.5554   26.3734   47.1041 H   0  0  0  0  0  0  0  0  0  0  0  0
   57.0260   27.9880   45.7610 C   0  0  0  0  0  0  0  0  0  0  0  0
   56.0202   27.5890   45.5631 H   0  0  0  0  0  0  0  0  0  0  0  0
  1  2  1  0
  2  3  1  0
  3  4  2  0
  3  5  2  0
  3  6  1  0
  6  7  2  0
  7  8  1  0
  7  9  1  0
  9 10  1  0
  9 11  2  0
 11 12  1  0
 12 13  1  0
 13 14  2  0
 13 15  1  0
 15 16  1  0
 16 17  1  0
 17 18  2  0
 18 19  1  0
 19 20  2  0
 20 21  1  0
 20 22  1  0
 22 23  1  0
 22 24  2  0
 24 25  1  0
 24 26  1  0
 26 27  1  0
 26 28  2  0
 28 29  1  0
 29 30  1  0
 29 31  1  0
 29 32  1  0
 17 33  1  0
 33 34  1  0
 34 35  1  0
 11 36  1  0
 36 37  1  0
 36 38  2  0
 38 39  1  0
 38  6  1  0
 34 15  2  0
 28 19  1  0
M  CHG  3   2  -1  12  -1  16  -1
M  END
>  <UniqueID>  (67) 
60

>  <SMILES>  (67) 
Cc1ccccc1/N=c1\[n-]c(C(=O)[N-]c2ccc(S([NH-])(=O)=O)cc2)cs1

>  <Energy>  (67) 
79.54166646126018

>  <Genealogy>  (67) 
Cc1ccccc1N=c1[n-]c(C(=O)[N-]c2ccc(S([NH-])(=O)=O)cc2)cs1 (protonated)
Cc1ccccc1/N=c1\[n-]c(C(=O)[N-]c2ccc(S([NH-])(=O)=O)cc2)cs1 (cis-trans isomerization)
Cc1ccccc1/N=c1\[n-]c(C(=O)[N-]c2ccc(S([NH-])(=O)=O)cc2)cs1 (3D coordinates assigned)
Cc1ccccc1/N=c1\[n-]c(C(=O)[N-]c2ccc(S([NH-])(=O)=O)cc2)cs1 (optimized conformer: 79.54166646126018 kcal/mol)

>  <smiles>  (67) 
Cc1ccccc1N=c1[nH]c(C(=O)Nc2ccc(S(N)(=O)=O)cc2)cs1

>  <score_type>  (67) 
oracle

>  <origin>  (67) 
adg

>  <m_score__min__energy>  (67) 
-13.16

>  <m_primary>  (67) 
energy

$$$$
67:0
     RDKit          3D

 41 43  0  0  0  0  0  0  0  0999 V2000
   55.6430   24.6340   46.8540 O   0  0  0  0  0  0  0  0  0  0  0  0
   55.9370   25.5630   46.0570 C   0  0  0  0  0  0  0  0  0  0  0  0
   55.1470   26.7050   46.0090 O   0  0  0  0  0  0  0  0  0  0  0  0
   57.1360   25.4440   45.1690 C   0  0  0  0  0  0  0  0  0  0  0  0
   58.2160   26.4070   45.6030 C   0  0  0  0  0  0  0  0  0  0  0  0
   59.4530   25.8770   46.0100 C   0  0  0  0  0  0  0  0  0  0  0  0
   60.4770   26.7120   46.4590 C   0  0  0  0  0  0  0  0  0  0  0  0
   60.2770   28.0880   46.5240 C   0  0  0  0  0  0  0  0  0  0  0  0
   59.0520   28.6350   46.1410 C   0  0  0  0  0  0  0  0  0  0  0  0
   58.0050   27.8150   45.6730 C   0  0  0  0  0  0  0  0  0  0  0  0
   56.7640   28.4300   45.2490 N   0  0  0  0  0  0  0  0  0  0  0  0
   57.0100   29.6620   44.5320 C   0  0  0  0  0  0  0  0  0  0  0  0
   56.8410   29.7230   43.1370 C   0  0  0  0  0  0  0  0  0  0  0  0
   57.0650   30.9180   42.4480 C   0  0  0  0  0  0  0  0  0  0  0  0
   57.4570   32.0650   43.1410 C   0  0  0  0  0  0  0  0  0  0  0  0
   57.6240   32.0300   44.5280 C   0  0  0  0  0  0  0  0  0  0  0  0
   58.0170   33.2000   45.1940 O   0  0  0  0  0  0  0  0  0  0  0  0
   58.9810   33.2670   46.2120 C   0  0  0  0  0  0  0  0  0  0  0  0
   59.0060   34.3940   47.0440 C   0  0  0  0  0  0  0  0  0  0  0  0
   59.9550   34.4970   48.0660 C   0  0  0  0  0  0  0  0  0  0  0  0
   60.8940   33.4800   48.2560 C   0  0  0  0  0  0  0  0  0  0  0  0
   60.8910   32.3620   47.4190 C   0  0  0  0  0  0  0  0  0  0  0  0
   59.9460   32.2570   46.3930 C   0  0  0  0  0  0  0  0  0  0  0  0
   57.3570   30.8380   45.2240 C   0  0  0  0  0  0  0  0  0  0  0  0
   57.5250   24.4165   45.2224 H   0  0  0  0  0  0  0  0  0  0  0  0
   56.8391   25.6851   44.1376 H   0  0  0  0  0  0  0  0  0  0  0  0
   59.6158   24.7897   45.9740 H   0  0  0  0  0  0  0  0  0  0  0  0
   61.4433   26.2824   46.7619 H   0  0  0  0  0  0  0  0  0  0  0  0
   61.0855   28.7447   46.8776 H   0  0  0  0  0  0  0  0  0  0  0  0
   58.9008   29.7227   46.2052 H   0  0  0  0  0  0  0  0  0  0  0  0
   56.1650   28.6510   46.0790 H   0  0  0  0  0  0  0  0  0  0  0  0
   56.2170   27.7550   44.6690 H   0  0  0  0  0  0  0  0  0  0  0  0
   56.5304   28.8239   42.5846 H   0  0  0  0  0  0  0  0  0  0  0  0
   56.9321   30.9551   41.3567 H   0  0  0  0  0  0  0  0  0  0  0  0
   57.6354   33.0014   42.5921 H   0  0  0  0  0  0  0  0  0  0  0  0
   58.2753   35.2021   46.8925 H   0  0  0  0  0  0  0  0  0  0  0  0
   59.9622   35.3803   48.7215 H   0  0  0  0  0  0  0  0  0  0  0  0
   61.6355   33.5599   49.0646 H   0  0  0  0  0  0  0  0  0  0  0  0
   61.6326   31.5631   47.5667 H   0  0  0  0  0  0  0  0  0  0  0  0
   59.9565   31.3828   45.7254 H   0  0  0  0  0  0  0  0  0  0  0  0
   57.4199   30.8240   46.3221 H   0  0  0  0  0  0  0  0  0  0  0  0
  1  2  2  0
  2  3  1  0
  2  4  1  0
  4  5  1  0
  5  6  2  0
  6  7  1  0
  7  8  2  0
  8  9  1  0
  9 10  2  0
 10 11  1  0
 11 12  1  0
 12 13  2  0
 13 14  1  0
 14 15  2  0
 15 16  1  0
 16 17  1  0
 17 18  1  0
 18 19  2  0
 19 20  1  0
 20 21  2  0
 21 22  1  0
 22 23  2  0
 16 24  2  0
 10  5  1  0
 24 12  1  0
 23 18  1  0
  4 25  1  0
  4 26  1  0
  6 27  1  0
  7 28  1  0
  8 29  1  0
  9 30  1  0
 11 31  1  0
 11 32  1  0
 13 33  1  0
 14 34  1  0
 15 35  1  0
 19 36  1  0
 20 37  1  0
 21 38  1  0
 22 39  1  0
 23 40  1  0
 24 41  1  0
M  CHG  2   3  -1  11   1
M  END
>  <UniqueID>  (68) 
61

>  <SMILES>  (68) 
O=C([O-])Cc1ccccc1[NH2+]c1cccc(Oc2ccccc2)c1

>  <Energy>  (68) 
52.770140660523396

>  <Genealogy>  (68) 
O=C([O-])Cc1ccccc1[NH2+]c1cccc(Oc2ccccc2)c1 (protonated)
O=C([O-])Cc1ccccc1[NH2+]c1cccc(Oc2ccccc2)c1 (3D coordinates assigned)
O=C([O-])Cc1ccccc1[NH2+]c1cccc(Oc2ccccc2)c1 (optimized conformer: 52.770140660523396 kcal/mol)

>  <smiles>  (68) 
O=C(O)Cc1ccccc1Nc1cccc(Oc2ccccc2)c1

>  <score_type>  (68) 
oracle

>  <origin>  (68) 
adg

>  <m_score__min__energy>  (68) 
-9.5399999999999991

>  <m_primary>  (68) 
energy

$$$$
68:0
     RDKit          3D

 60 62  0  0  0  0  0  0  0  0999 V2000
   67.4590   33.7700   50.7860 C   0  0  0  0  0  0  0  0  0  0  0  0
   66.8000   32.4820   50.3080 C   0  0  0  0  0  0  0  0  0  0  0  0
   65.7530   32.7660   49.3860 O   0  0  0  0  0  0  0  0  0  0  0  0
   64.4270   32.3130   49.4870 C   0  0  0  0  0  0  0  0  0  0  0  0
   63.5880   32.1550   48.3690 C   0  0  0  0  0  0  0  0  0  0  0  0
   62.2790   31.6920   48.5320 C   0  0  0  0  0  0  0  0  0  0  0  0
   61.7820   31.3940   49.8050 C   0  0  0  0  0  0  0  0  0  0  0  0
   60.4430   30.8900   49.9670 N   0  0  0  0  0  0  0  0  0  0  0  0
   60.2520   29.5740   50.5950 C   0  0  0  0  0  0  0  0  0  0  0  0
   60.6810   28.4550   49.6760 C   0  0  0  0  0  0  0  0  0  0  0  0
   60.7460   27.2780   50.1170 O   0  0  0  0  0  0  0  0  0  0  0  0
   60.8520   28.6730   48.2680 N   0  0  0  0  0  0  0  0  0  0  0  0
   59.8080   29.0350   47.3520 C   0  0  0  0  0  0  0  0  0  0  0  0
   59.8480   30.2600   46.6650 C   0  0  0  0  0  0  0  0  0  0  0  0
   58.8470   30.5910   45.7490 C   0  0  0  0  0  0  0  0  0  0  0  0
   57.8100   29.6920   45.4870 C   0  0  0  0  0  0  0  0  0  0  0  0
   56.5510   30.1190   44.3360 S   0  0  0  0  0  0  0  0  0  0  0  0
   55.1510   29.1530   44.6260 N   0  0  0  0  0  0  0  0  0  0  0  0
   56.1970   31.5730   44.4900 O   0  0  0  0  0  0  0  0  0  0  0  0
   57.0340   29.8880   42.9320 O   0  0  0  0  0  0  0  0  0  0  0  0
   57.7750   28.4620   46.1570 C   0  0  0  0  0  0  0  0  0  0  0  0
   58.7810   28.1220   47.0860 C   0  0  0  0  0  0  0  0  0  0  0  0
   58.7830   26.8980   47.7720 O   0  0  0  0  0  0  0  0  0  0  0  0
   58.1260   25.7180   47.3210 C   0  0  0  0  0  0  0  0  0  0  0  0
   59.2910   31.6920   49.6140 C   0  0  0  0  0  0  0  0  0  0  0  0
   58.1580   31.1440   49.5030 O   0  0  0  0  0  0  0  0  0  0  0  0
   59.4140   33.1870   49.4050 C   0  0  0  0  0  0  0  0  0  0  0  0
   59.1720   33.5700   47.9670 C   0  0  0  0  0  0  0  0  0  0  0  0
   57.9150   33.3590   47.3800 C   0  0  0  0  0  0  0  0  0  0  0  0
   57.6840   33.7450   46.0570 C   0  0  0  0  0  0  0  0  0  0  0  0
   58.7040   34.3480   45.3140 C   0  0  0  0  0  0  0  0  0  0  0  0
   59.9510   34.5720   45.8980 C   0  0  0  0  0  0  0  0  0  0  0  0
   60.1850   34.1900   47.2180 C   0  0  0  0  0  0  0  0  0  0  0  0
   62.6200   31.5470   50.9200 C   0  0  0  0  0  0  0  0  0  0  0  0
   63.9290   32.0070   50.7590 C   0  0  0  0  0  0  0  0  0  0  0  0
   67.4694   33.7903   51.8858 H   0  0  0  0  0  0  0  0  0  0  0  0
   68.4912   33.8157   50.4087 H   0  0  0  0  0  0  0  0  0  0  0  0
   66.8921   34.6339   50.4087 H   0  0  0  0  0  0  0  0  0  0  0  0
   67.5545   31.8515   49.8149 H   0  0  0  0  0  0  0  0  0  0  0  0
   66.3746   31.9582   51.1767 H   0  0  0  0  0  0  0  0  0  0  0  0
   63.9630   32.3965   47.3635 H   0  0  0  0  0  0  0  0  0  0  0  0
   61.6338   31.5608   47.6508 H   0  0  0  0  0  0  0  0  0  0  0  0
   60.8495   29.5280   51.5174 H   0  0  0  0  0  0  0  0  0  0  0  0
   59.1816   29.4487   50.8153 H   0  0  0  0  0  0  0  0  0  0  0  0
   60.6734   30.9632   46.8499 H   0  0  0  0  0  0  0  0  0  0  0  0
   58.8751   31.5618   45.2326 H   0  0  0  0  0  0  0  0  0  0  0  0
   55.2000   28.8350   45.6200 H   0  0  0  0  0  0  0  0  0  0  0  0
   56.9561   27.7553   45.9570 H   0  0  0  0  0  0  0  0  0  0  0  0
   57.7970   25.1271   48.1886 H   0  0  0  0  0  0  0  0  0  0  0  0
   57.2520   25.9945   46.7130 H   0  0  0  0  0  0  0  0  0  0  0  0
   58.8214   25.1207   46.7130 H   0  0  0  0  0  0  0  0  0  0  0  0
   58.6747   33.6978   50.0394 H   0  0  0  0  0  0  0  0  0  0  0  0
   60.4376   33.4880   49.6728 H   0  0  0  0  0  0  0  0  0  0  0  0
   57.1094   32.8885   47.9628 H   0  0  0  0  0  0  0  0  0  0  0  0
   56.6984   33.5743   45.5992 H   0  0  0  0  0  0  0  0  0  0  0  0
   58.5232   34.6453   44.2705 H   0  0  0  0  0  0  0  0  0  0  0  0
   60.7516   35.0512   45.3154 H   0  0  0  0  0  0  0  0  0  0  0  0
   61.1682   34.3752   47.6752 H   0  0  0  0  0  0  0  0  0  0  0  0
   62.2446   31.3037   51.9249 H   0  0  0  0  0  0  0  0  0  0  0  0
   64.5751   32.1301   51.6407 H   0  0  0  0  0  0  0  0  0  0  0  0
  1  2  1  0
  2  3  1  0
  3  4  1  0
  4  5  2  0
  5  6  1  0
  6  7  2  0
  7  8  1  0
  8  9  1  0
  9 10  1  0
 10 11  2  0
 10 12  1  0
 12 13  1  0
 13 14  2  0
 14 15  1  0
 15 16  2  0
 16 17  1  0
 17 18  1  0
 17 19  2  0
 17 20  2  0
 16 21  1  0
 21 22  2  0
 22 23  1  0
 23 24  1  0
  8 25  1  0
 25 26  2  0
 25 27  1  0
 27 28  1  0
 28 29  2  0
 29 30  1  0
 30 31  2  0
 31 32  1  0
 32 33  2  0
  7 34  1  0
 34 35  2  0
 35  4  1  0
 22 13  1  0
 33 28  1  0
  1 36  1  0
  1 37  1  0
  1 38  1  0
  2 39  1  0
  2 40  1  0
  5 41  1  0
  6 42  1  0
  9 43  1  0
  9 44  1  0
 14 45  1  0
 15 46  1  0
 18 47  1  0
 21 48  1  0
 24 49  1  0
 24 50  1  0
 24 51  1  0
 27 52  1  0
 27 53  1  0
 29 54  1  0
 30 55  1  0
 31 56  1  0
 32 57  1  0
 33 58  1  0
 34 59  1  0
 35 60  1  0
M  CHG  2  12  -1  18  -1
M  END
>  <UniqueID>  (69) 
62

>  <SMILES>  (69) 
CCOc1ccc(N(CC(=O)[N-]c2ccc(S([NH-])(=O)=O)cc2OC)C(=O)Cc2ccccc2)cc1

>  <Energy>  (69) 
70.46157567677534

>  <Genealogy>  (69) 
CCOc1ccc(N(CC(=O)[N-]c2ccc(S([NH-])(=O)=O)cc2OC)C(=O)Cc2ccccc2)cc1 (protonated)
CCOc1ccc(N(CC(=O)[N-]c2ccc(S([NH-])(=O)=O)cc2OC)C(=O)Cc2ccccc2)cc1 (3D coordinates assigned)
CCOc1ccc(N(CC(=O)[N-]c2ccc(S([NH-])(=O)=O)cc2OC)C(=O)Cc2ccccc2)cc1 (optimized conformer: 70.46157567677534 kcal/mol)

>  <smiles>  (69) 
CCOc1ccc(N(CC(=O)Nc2ccc(S(N)(=O)=O)cc2OC)C(=O)Cc2ccccc2)cc1

>  <score_type>  (69) 
oracle

>  <origin>  (69) 
adg

>  <m_score__min__energy>  (69) 
-12.66

>  <m_primary>  (69) 
energy

$$$$
69:0
     RDKit          3D

 63 66  0  0  0  0  0  0  0  0999 V2000
   62.1820   33.9270   46.6440 N   0  0  0  0  0  0  0  0  0  0  0  0
   61.7500   33.8430   48.0140 C   0  0  0  0  0  0  0  0  0  0  0  0
   60.4380   34.2350   48.3750 C   0  0  0  0  0  0  0  0  0  0  0  0
   59.4720   34.6100   47.3840 N   0  0  0  0  0  0  0  0  0  0  0  0
   58.4690   33.6940   46.9230 C   0  0  0  0  0  0  0  0  0  0  0  0
   58.1390   32.6970   47.6330 O   0  0  0  0  0  0  0  0  0  0  0  0
   57.8310   33.9290   45.6680 N   0  0  0  0  0  0  0  0  0  0  0  0
   57.6310   32.9400   44.6460 C   0  0  0  0  0  0  0  0  0  0  0  0
   58.2780   33.0950   43.4160 C   0  0  0  0  0  0  0  0  0  0  0  0
   58.1000   32.1510   42.3980 C   0  0  0  0  0  0  0  0  0  0  0  0
   57.2630   31.0430   42.5990 C   0  0  0  0  0  0  0  0  0  0  0  0
   56.6120   30.8710   43.8280 C   0  0  0  0  0  0  0  0  0  0  0  0
   55.7270   29.7060   44.0370 C   0  0  0  0  0  0  0  0  0  0  0  0
   54.9120   29.3840   43.1320 O   0  0  0  0  0  0  0  0  0  0  0  0
   55.7490   28.9320   45.2460 N   0  0  0  0  0  0  0  0  0  0  0  0
   56.6780   27.8340   45.5100 C   0  0  0  0  0  0  0  0  0  0  0  0
   58.1030   28.1760   45.0260 C   0  0  0  0  0  0  0  0  0  0  0  0
   58.7420   29.3700   45.6410 N   0  0  0  0  0  0  0  0  0  0  0  0
   58.5060   29.5300   47.0840 C   0  0  0  0  0  0  0  0  0  0  0  0
   59.8430   29.8860   47.7250 C   0  0  0  0  0  0  0  0  0  0  0  0
   60.7010   30.3680   46.5680 C   0  0  2  0  0  0  0  0  0  0  0  0
   60.4850   31.7330   46.3410 O   0  0  0  0  0  0  0  0  0  0  0  0
   60.1760   29.5710   45.3880 C   0  0  0  0  0  0  0  0  0  0  0  0
   56.8400   31.7940   44.8640 C   0  0  0  0  0  0  0  0  0  0  0  0
   60.0540   34.2150   49.7160 C   0  0  0  0  0  0  0  0  0  0  0  0
   60.9330   33.7600   50.6970 C   0  0  0  0  0  0  0  0  0  0  0  0
   62.2110   33.3340   50.3550 C   0  0  0  0  0  0  0  0  0  0  0  0
   62.6360   33.3860   49.0210 C   0  0  0  0  0  0  0  0  0  0  0  0
   64.0320   33.0120   48.7090 C   0  0  0  0  0  0  0  0  0  0  0  0
   64.4580   33.1930   47.5330 O   0  0  0  0  0  0  0  0  0  0  0  0
   64.9390   32.4500   49.7460 C   0  0  0  0  0  0  0  0  0  0  0  0
   64.5480   31.3240   50.4950 C   0  0  0  0  0  0  0  0  0  0  0  0
   65.3920   30.8070   51.4860 C   0  0  0  0  0  0  0  0  0  0  0  0
   66.6270   31.4060   51.7450 C   0  0  0  0  0  0  0  0  0  0  0  0
   67.0250   32.5230   51.0110 C   0  0  0  0  0  0  0  0  0  0  0  0
   66.1870   33.0450   50.0190 C   0  0  0  0  0  0  0  0  0  0  0  0
   63.0920   34.3900   46.3800 H   0  0  0  0  0  0  0  0  0  0  0  0
   61.6380   33.4930   45.8740 H   0  0  0  0  0  0  0  0  0  0  0  0
   59.2990   35.6300   47.2100 H   0  0  0  0  0  0  0  0  0  0  0  0
   58.9308   33.9641   43.2475 H   0  0  0  0  0  0  0  0  0  0  0  0
   58.6185   32.2783   41.4363 H   0  0  0  0  0  0  0  0  0  0  0  0
   57.1179   30.3096   41.7921 H   0  0  0  0  0  0  0  0  0  0  0  0
   56.7043   27.6394   46.5923 H   0  0  0  0  0  0  0  0  0  0  0  0
   56.3296   26.9455   44.9630 H   0  0  0  0  0  0  0  0  0  0  0  0
   58.7450   27.3077   45.2356 H   0  0  0  0  0  0  0  0  0  0  0  0
   57.9984   28.4183   43.9581 H   0  0  0  0  0  0  0  0  0  0  0  0
   57.7780   30.3358   47.2594 H   0  0  0  0  0  0  0  0  0  0  0  0
   58.1004   28.6039   47.5175 H   0  0  0  0  0  0  0  0  0  0  0  0
   59.7160   30.6821   48.4734 H   0  0  0  0  0  0  0  0  0  0  0  0
   60.2940   29.0338   48.2545 H   0  0  0  0  0  0  0  0  0  0  0  0
   61.7779   30.2344   46.7479 H   0  0  0  0  0  0  0  0  0  0  0  0
   59.5040   31.8290   46.1650 H   0  0  0  0  0  0  0  0  0  0  0  0
   60.3244   30.1304   44.4525 H   0  0  0  0  0  0  0  0  0  0  0  0
   60.7048   28.6123   45.2819 H   0  0  0  0  0  0  0  0  0  0  0  0
   56.3962   31.6198   45.8553 H   0  0  0  0  0  0  0  0  0  0  0  0
   59.0496   34.5611   50.0013 H   0  0  0  0  0  0  0  0  0  0  0  0
   60.6132   33.7378   51.7492 H   0  0  0  0  0  0  0  0  0  0  0  0
   62.8900   32.9553   51.1331 H   0  0  0  0  0  0  0  0  0  0  0  0
   63.5754   30.8481   50.3011 H   0  0  0  0  0  0  0  0  0  0  0  0
   65.0805   29.9242   52.0636 H   0  0  0  0  0  0  0  0  0  0  0  0
   67.2845   30.9974   52.5265 H   0  0  0  0  0  0  0  0  0  0  0  0
   67.9984   32.9942   51.2119 H   0  0  0  0  0  0  0  0  0  0  0  0
   66.5057   33.9286   49.4466 H   0  0  0  0  0  0  0  0  0  0  0  0
  1  2  1  0
  2  3  2  0
  3  4  1  0
  4  5  1  0
  5  6  2  0
  5  7  1  0
  7  8  1  0
  8  9  2  0
  9 10  1  0
 10 11  2  0
 11 12  1  0
 12 13  1  0
 13 14  2  0
 13 15  1  0
 15 16  1  0
 16 17  1  0
 17 18  1  0
 18 19  1  0
 19 20  1  0
 20 21  1  0
 21 22  1  0
 21 23  1  0
 12 24  2  0
  3 25  1  0
 25 26  2  0
 26 27  1  0
 27 28  2  0
 28 29  1  0
 29 30  2  0
 29 31  1  0
 31 32  2  0
 32 33  1  0
 33 34  2  0
 34 35  1  0
 35 36  2  0
 28  2  1  0
 36 31  1  0
 24  8  1  0
 23 18  1  0
  1 37  1  0
  1 38  1  0
  4 39  1  0
  9 40  1  0
 10 41  1  0
 11 42  1  0
 16 43  1  0
 16 44  1  0
 17 45  1  0
 17 46  1  0
 19 47  1  0
 19 48  1  0
 20 49  1  0
 20 50  1  0
 21 51  1  1
 22 52  1  0
 23 53  1  0
 23 54  1  0
 24 55  1  0
 25 56  1  0
 26 57  1  0
 27 58  1  0
 32 59  1  0
 33 60  1  0
 34 61  1  0
 35 62  1  0
 36 63  1  0
M  CHG  2   7  -1  15  -1
M  END
>  <UniqueID>  (70) 
63

>  <SMILES>  (70) 
Nc1c(NC(=O)[N-]c2cccc(C(=O)[N-]CCN3CC[C@H](O)C3)c2)cccc1C(=O)c1ccccc1

>  <Energy>  (70) 
94.12251886027774

>  <Genealogy>  (70) 
Nc1c(NC(=O)[N-]c2cccc(C(=O)[N-]CCN3CCC(O)C3)c2)cccc1C(=O)c1ccccc1 (protonated)
Nc1c(NC(=O)[N-]c2cccc(C(=O)[N-]CCN3CC[C@H](O)C3)c2)cccc1C(=O)c1ccccc1 (chirality)
Nc1c(NC(=O)[N-]c2cccc(C(=O)[N-]CCN3CC[C@H](O)C3)c2)cccc1C(=O)c1ccccc1 (3D coordinates assigned)
Nc1c(NC(=O)[N-]c2cccc(C(=O)[N-]CCN3CC[C@H](O)C3)c2)cccc1C(=O)c1ccccc1 (nonaromatic ring conformer: 94.12251886027774 kcal/mol)

>  <smiles>  (70) 
Nc1c(NC(=O)Nc2cccc(C(=O)NCCN3CCC(O)C3)c2)cccc1C(=O)c1ccccc1

>  <score_type>  (70) 
oracle

>  <origin>  (70) 
adg

>  <m_score__min__energy>  (70) 
-14.08

>  <m_primary>  (70) 
energy

$$$$
70:0
     RDKit          3D

 53 55  0  0  0  0  0  0  0  0999 V2000
   58.9000   34.9400   45.4030 C   0  0  0  0  0  0  0  0  0  0  0  0
   58.6590   33.7400   46.2090 N   0  0  0  0  0  0  0  0  0  0  0  0
   58.2070   32.5060   45.5530 C   0  0  0  0  0  0  0  0  0  0  0  0
   59.2780   31.4050   45.6340 C   0  0  0  0  0  0  0  0  0  0  0  0
   58.7070   30.1270   46.1630 C   0  0  0  0  0  0  0  0  0  0  0  0
   58.2730   30.0730   47.3460 O   0  0  0  0  0  0  0  0  0  0  0  0
   58.6450   28.9770   45.3110 N   0  0  0  0  0  0  0  0  0  0  0  0
   58.0330   27.7270   45.6530 C   0  0  0  0  0  0  0  0  0  0  0  0
   58.8060   26.5840   45.9130 C   0  0  0  0  0  0  0  0  0  0  0  0
   58.1890   25.3690   46.2180 C   0  0  0  0  0  0  0  0  0  0  0  0
   56.7900   25.2720   46.2370 C   0  0  0  0  0  0  0  0  0  0  0  0
   56.1470   23.9820   46.5620 C   0  0  0  0  0  0  0  0  0  0  0  0
   55.6460   23.7930   47.8610 C   0  0  0  0  0  0  0  0  0  0  0  0
   55.0580   22.5810   48.2250 C   0  0  0  0  0  0  0  0  0  0  0  0
   54.9660   21.5430   47.2980 C   0  0  0  0  0  0  0  0  0  0  0  0
   55.4510   21.7180   46.0010 C   0  0  0  0  0  0  0  0  0  0  0  0
   56.0360   22.9350   45.6130 C   0  0  0  0  0  0  0  0  0  0  0  0
   56.5940   23.1170   43.9420 S   0  0  0  0  0  0  0  0  0  0  0  0
   55.9030   21.8850   42.9470 N   0  0  0  0  0  0  0  0  0  0  0  0
   58.0920   23.0040   43.8960 O   0  0  0  0  0  0  0  0  0  0  0  0
   56.1720   24.4540   43.3990 O   0  0  0  0  0  0  0  0  0  0  0  0
   56.0140   26.4110   45.9590 C   0  0  0  0  0  0  0  0  0  0  0  0
   54.6250   26.3400   45.9660 O   0  0  0  0  0  0  0  0  0  0  0  0
   56.6380   27.6280   45.6570 C   0  0  0  0  0  0  0  0  0  0  0  0
   58.9040   33.7830   47.6270 C   0  0  0  0  0  0  0  0  0  0  0  0
   58.1710   33.1160   48.4110 O   0  0  0  0  0  0  0  0  0  0  0  0
   59.9810   34.5220   48.1370 O   0  0  0  0  0  0  0  0  0  0  0  0
   61.3180   34.1090   48.0600 C   0  0  0  0  0  0  0  0  0  0  0  0
   62.0490   33.9330   49.2430 C   0  0  0  0  0  0  0  0  0  0  0  0
   63.3780   33.5010   49.1960 C   0  0  0  0  0  0  0  0  0  0  0  0
   63.9860   33.2400   47.9650 C   0  0  0  0  0  0  0  0  0  0  0  0
   63.2650   33.4090   46.7800 C   0  0  0  0  0  0  0  0  0  0  0  0
   61.9340   33.8400   46.8240 C   0  0  0  0  0  0  0  0  0  0  0  0
   59.0726   35.7994   46.0675 H   0  0  0  0  0  0  0  0  0  0  0  0
   59.7847   34.7838   44.7683 H   0  0  0  0  0  0  0  0  0  0  0  0
   58.0236   35.1375   44.7683 H   0  0  0  0  0  0  0  0  0  0  0  0
   57.2909   32.1518   46.0483 H   0  0  0  0  0  0  0  0  0  0  0  0
   58.0158   32.7268   44.4925 H   0  0  0  0  0  0  0  0  0  0  0  0
   59.6844   31.2261   44.6276 H   0  0  0  0  0  0  0  0  0  0  0  0
   60.0694   31.7412   46.3200 H   0  0  0  0  0  0  0  0  0  0  0  0
   59.9036   26.6460   45.8762 H   0  0  0  0  0  0  0  0  0  0  0  0
   58.8026   24.4845   46.4442 H   0  0  0  0  0  0  0  0  0  0  0  0
   55.7179   24.6072   48.5972 H   0  0  0  0  0  0  0  0  0  0  0  0
   54.6667   22.4441   49.2439 H   0  0  0  0  0  0  0  0  0  0  0  0
   54.5106   20.5851   47.5895 H   0  0  0  0  0  0  0  0  0  0  0  0
   55.3744   20.8949   45.2754 H   0  0  0  0  0  0  0  0  0  0  0  0
   55.8750   22.2590   41.9710 H   0  0  0  0  0  0  0  0  0  0  0  0
   56.0268   28.5117   45.4214 H   0  0  0  0  0  0  0  0  0  0  0  0
   61.5742   34.1360   50.2143 H   0  0  0  0  0  0  0  0  0  0  0  0
   63.9454   33.3665   50.1287 H   0  0  0  0  0  0  0  0  0  0  0  0
   65.0320   32.9016   47.9289 H   0  0  0  0  0  0  0  0  0  0  0  0
   63.7440   33.2031   45.8114 H   0  0  0  0  0  0  0  0  0  0  0  0
   61.3680   33.9688   45.8896 H   0  0  0  0  0  0  0  0  0  0  0  0
  1  2  1  0
  2  3  1  0
  3  4  1  0
  4  5  1  0
  5  6  2  0
  5  7  1  0
  7  8  1  0
  8  9  2  0
  9 10  1  0
 10 11  2  0
 11 12  1  0
 12 13  2  0
 13 14  1  0
 14 15  2  0
 15 16  1  0
 16 17  2  0
 17 18  1  0
 18 19  1  0
 18 20  2  0
 18 21  2  0
 11 22  1  0
 22 23  1  0
 22 24  2  0
  2 25  1  0
 25 26  2  0
 25 27  1  0
 27 28  1  0
 28 29  2  0
 29 30  1  0
 30 31  2  0
 31 32  1  0
 32 33  2  0
 24  8  1  0
 33 28  1  0
 17 12  1  0
  1 34  1  0
  1 35  1  0
  1 36  1  0
  3 37  1  0
  3 38  1  0
  4 39  1  0
  4 40  1  0
  9 41  1  0
 10 42  1  0
 13 43  1  0
 14 44  1  0
 15 45  1  0
 16 46  1  0
 19 47  1  0
 24 48  1  0
 29 49  1  0
 30 50  1  0
 31 51  1  0
 32 52  1  0
 33 53  1  0
M  CHG  3   7  -1  19  -1  23  -1
M  END
>  <UniqueID>  (71) 
64

>  <SMILES>  (71) 
CN(CCC(=O)[N-]c1ccc(-c2ccccc2S([NH-])(=O)=O)c([O-])c1)C(=O)Oc1ccccc1

>  <Energy>  (71) 
67.59204669499292

>  <Genealogy>  (71) 
CN(CCC(=O)[N-]c1ccc(-c2ccccc2S([NH-])(=O)=O)c([O-])c1)C(=O)Oc1ccccc1 (protonated)
CN(CCC(=O)[N-]c1ccc(-c2ccccc2S([NH-])(=O)=O)c([O-])c1)C(=O)Oc1ccccc1 (3D coordinates assigned)
CN(CCC(=O)[N-]c1ccc(-c2ccccc2S([NH-])(=O)=O)c([O-])c1)C(=O)Oc1ccccc1 (optimized conformer: 67.59204669499292 kcal/mol)

>  <smiles>  (71) 
CN(CCC(=O)Nc1ccc(-c2ccccc2S(N)(=O)=O)c(O)c1)C(=O)Oc1ccccc1

>  <score_type>  (71) 
oracle

>  <origin>  (71) 
adg

>  <m_score__min__energy>  (71) 
-15.51

>  <m_primary>  (71) 
energy

$$$$
71:0
     RDKit          3D

 48 51  0  0  0  0  0  0  0  0999 V2000
   52.2394   30.3669   52.8567 H   0  0  0  0  0  0  0  0  0  0  0  0
   53.3150   30.2420   52.6630 C   0  0  0  0  0  0  0  0  0  0  0  0
   53.9860   29.1180   53.1500 C   0  0  0  0  0  0  0  0  0  0  0  0
   53.4370   28.3532   53.7189 H   0  0  0  0  0  0  0  0  0  0  0  0
   55.3570   28.9650   52.9140 C   0  0  0  0  0  0  0  0  0  0  0  0
   55.8781   28.0700   53.2848 H   0  0  0  0  0  0  0  0  0  0  0  0
   56.0710   29.9430   52.2090 C   0  0  0  0  0  0  0  0  0  0  0  0
   57.4700   29.7300   51.9600 N   0  0  0  0  0  0  0  0  0  0  0  0
   58.1400   30.0880   50.9040 C   0  0  0  0  0  0  0  0  0  0  0  0
   58.9180   29.1730   50.2720 N   0  0  0  0  0  0  0  0  0  0  0  0
   59.6500   29.5250   49.1860 C   0  0  0  0  0  0  0  0  0  0  0  0
   60.3830   28.6320   48.5910 N   0  0  0  0  0  0  0  0  0  0  0  0
   60.3690   28.3940   47.1510 C   0  0  0  0  0  0  0  0  0  0  0  0
   60.6191   29.3257   46.6224 H   0  0  0  0  0  0  0  0  0  0  0  0
   61.1096   27.6208   46.8988 H   0  0  0  0  0  0  0  0  0  0  0  0
   59.0020   27.9340   46.7360 C   0  0  0  0  0  0  0  0  0  0  0  0
   58.2000   28.7470   45.9190 C   0  0  0  0  0  0  0  0  0  0  0  0
   58.5857   29.7125   45.5597 H   0  0  0  0  0  0  0  0  0  0  0  0
   56.9120   28.3340   45.5600 C   0  0  0  0  0  0  0  0  0  0  0  0
   56.2910   28.9706   44.9127 H   0  0  0  0  0  0  0  0  0  0  0  0
   56.4140   27.1120   46.0240 C   0  0  0  0  0  0  0  0  0  0  0  0
   55.1350   26.7020   45.6670 O   0  0  0  0  0  0  0  0  0  0  0  0
   57.2020   26.3040   46.8500 C   0  0  0  0  0  0  0  0  0  0  0  0
   56.8088   25.3442   47.2163 H   0  0  0  0  0  0  0  0  0  0  0  0
   58.4900   26.7150   47.2110 C   0  0  0  0  0  0  0  0  0  0  0  0
   59.1035   26.0817   47.8687 H   0  0  0  0  0  0  0  0  0  0  0  0
   59.6070   30.8050   48.7330 N   0  0  0  0  0  0  0  0  0  0  0  0
   58.8310   31.7310   49.3570 C   0  0  0  0  0  0  0  0  0  0  0  0
   58.7970   32.9670   48.9530 N   0  0  0  0  0  0  0  0  0  0  0  0
   58.7610   33.4290   47.5910 C   0  0  0  0  0  0  0  0  0  0  0  0
   59.4010   34.6160   47.1880 C   0  0  0  0  0  0  0  0  0  0  0  0
   59.9256   35.2354   47.9304 H   0  0  0  0  0  0  0  0  0  0  0  0
   59.3720   35.0100   45.8480 C   0  0  0  0  0  0  0  0  0  0  0  0
   59.8632   35.9450   45.5406 H   0  0  0  0  0  0  0  0  0  0  0  0
   58.7210   34.2200   44.8970 C   0  0  0  0  0  0  0  0  0  0  0  0
   58.7026   34.5338   43.8429 H   0  0  0  0  0  0  0  0  0  0  0  0
   58.0910   33.0280   45.2830 C   0  0  0  0  0  0  0  0  0  0  0  0
   57.4390   32.1510   44.2550 C   0  0  0  0  0  0  0  0  0  0  0  0
   56.8557   31.3664   44.7592 H   0  0  0  0  0  0  0  0  0  0  0  0
   56.7709   32.7577   43.6261 H   0  0  0  0  0  0  0  0  0  0  0  0
   58.2124   31.6859   43.6261 H   0  0  0  0  0  0  0  0  0  0  0  0
   58.1370   32.6270   46.6270 C   0  0  0  0  0  0  0  0  0  0  0  0
   57.6783   31.6731   46.9265 H   0  0  0  0  0  0  0  0  0  0  0  0
   58.1120   31.3700   50.4480 N   0  0  0  0  0  0  0  0  0  0  0  0
   55.3800   31.0580   51.6940 C   0  0  0  0  0  0  0  0  0  0  0  0
   55.9209   31.8129   51.1045 H   0  0  0  0  0  0  0  0  0  0  0  0
   54.0100   31.2090   51.9290 C   0  0  0  0  0  0  0  0  0  0  0  0
   53.4785   32.0885   51.5366 H   0  0  0  0  0  0  0  0  0  0  0  0
  1  2  1  0
  2  3  2  0
  3  4  1  0
  3  5  1  0
  5  6  1  0
  5  7  2  0
  7  8  1  0
  8  9  2  3
  9 10  1  0
 10 11  1  0
 11 12  2  0
 12 13  1  0
 13 14  1  0
 13 15  1  0
 13 16  1  0
 16 17  2  0
 17 18  1  0
 17 19  1  0
 19 20  1  0
 19 21  2  0
 21 22  1  0
 21 23  1  0
 23 24  1  0
 23 25  2  0
 25 26  1  0
 11 27  1  0
 27 28  1  0
 28 29  2  0
 29 30  1  0
 30 31  2  0
 31 32  1  0
 31 33  1  0
 33 34  1  0
 33 35  2  0
 35 36  1  0
 35 37  1  0
 37 38  1  0
 38 39  1  0
 38 40  1  0
 38 41  1  0
 37 42  2  0
 42 43  1  0
 28 44  1  0
  7 45  1  0
 45 46  1  0
 45 47  2  0
 47 48  1  0
 47  2  1  0
 44  9  1  0
 25 16  1  0
 42 30  1  0
M  CHG  4  10  -1  22  -1  27  -1  44  -1
M  END
>  <UniqueID>  (72) 
65

>  <SMILES>  (72) 
Cc1cccc(/N=c2/[n-]c(=Nc3ccccc3)[n-]/c(=N/Cc3ccc([O-])cc3)[n-]2)c1

>  <Energy>  (72) 
63.31604828995155

>  <Genealogy>  (72) 
Cc1cccc(N=c2[n-]c(=NCc3ccc([O-])cc3)[n-]c(=Nc3ccccc3)[n-]2)c1 (protonated)
Cc1cccc(/N=c2/[n-]c(=Nc3ccccc3)[n-]/c(=N/Cc3ccc([O-])cc3)[n-]2)c1 (cis-trans isomerization)
Cc1cccc(/N=c2/[n-]c(=Nc3ccccc3)[n-]/c(=N/Cc3ccc([O-])cc3)[n-]2)c1 (3D coordinates assigned)
Cc1cccc(/N=c2/[n-]c(=Nc3ccccc3)[n-]/c(=N/Cc3ccc([O-])cc3)[n-]2)c1 (optimized conformer: 63.31604828995155 kcal/mol)

>  <smiles>  (72) 
Cc1cccc(N=c2[nH]c(=NCc3ccc(O)cc3)[nH]c(=Nc3ccccc3)[nH]2)c1

>  <score_type>  (72) 
oracle

>  <origin>  (72) 
adg

>  <m_score__min__energy>  (72) 
-15.699999999999999

>  <m_primary>  (72) 
energy

$$$$
72:0
     RDKit          3D

 36 37  0  0  0  0  0  0  0  0999 V2000
   58.4860   33.0700   42.7910 O   0  0  0  0  0  0  0  0  0  0  0  0
   58.1400   32.6590   43.9300 C   0  0  0  0  0  0  0  0  0  0  0  0
   57.3270   31.5070   43.9850 N   0  0  0  0  0  0  0  0  0  0  0  0
   56.9710   30.9090   42.6810 C   0  0  0  0  0  0  0  0  0  0  0  0
   56.0940   29.7330   43.0080 C   0  0  0  0  0  0  0  0  0  0  0  0
   56.0310   29.2600   44.2970 N   0  0  0  0  0  0  0  0  0  0  0  0
   56.6940   28.7290   45.2000 C   0  0  0  0  0  0  0  0  0  0  0  0
   57.4230   29.5920   45.9920 N   0  0  0  0  0  0  0  0  0  0  0  0
   58.1610   29.1030   46.9840 C   0  0  0  0  0  0  0  0  0  0  0  0
   58.2450   27.7600   47.2770 C   0  0  0  0  0  0  0  0  0  0  0  0
   57.5180   26.9060   46.4880 C   0  0  0  0  0  0  0  0  0  0  0  0
   56.7800   27.4200   45.4910 N   0  0  0  0  0  0  0  0  0  0  0  0
   58.5710   33.3600   45.1320 C   0  0  0  0  0  0  0  0  0  0  0  0
   59.2290   34.5670   45.1180 C   0  0  0  0  0  0  0  0  0  0  0  0
   59.6360   35.2270   46.2630 C   0  0  0  0  0  0  0  0  0  0  0  0
   59.3590   34.6310   47.4760 C   0  0  0  0  0  0  0  0  0  0  0  0
   58.7000   33.4180   47.5380 C   0  0  0  0  0  0  0  0  0  0  0  0
   58.4610   32.8870   48.8000 O   0  0  0  0  0  0  0  0  0  0  0  0
   59.3360   31.8470   49.2160 C   0  0  0  0  0  0  0  0  0  0  0  0
   58.6700   30.6840   49.5320 F   0  0  0  0  0  0  0  0  0  0  0  0
   60.2130   31.6300   48.1500 F   0  0  0  0  0  0  0  0  0  0  0  0
   60.0990   32.3230   50.2820 F   0  0  0  0  0  0  0  0  0  0  0  0
   58.3170   32.8010   46.3710 C   0  0  0  0  0  0  0  0  0  0  0  0
   56.9990   31.1060   44.8860 H   0  0  0  0  0  0  0  0  0  0  0  0
   56.4255   31.6353   42.0605 H   0  0  0  0  0  0  0  0  0  0  0  0
   57.8628   30.6087   42.1113 H   0  0  0  0  0  0  0  0  0  0  0  0
   55.0692   30.0118   42.7216 H   0  0  0  0  0  0  0  0  0  0  0  0
   56.5654   28.9053   42.4578 H   0  0  0  0  0  0  0  0  0  0  0  0
   58.7347   29.8083   47.6033 H   0  0  0  0  0  0  0  0  0  0  0  0
   58.8665   27.3895   48.1056 H   0  0  0  0  0  0  0  0  0  0  0  0
   57.5390   25.8211   46.6683 H   0  0  0  0  0  0  0  0  0  0  0  0
   56.2470   26.7280   44.9200 H   0  0  0  0  0  0  0  0  0  0  0  0
   59.4430   35.0324   44.1445 H   0  0  0  0  0  0  0  0  0  0  0  0
   60.1614   36.1919   46.2086 H   0  0  0  0  0  0  0  0  0  0  0  0
   59.6672   35.1286   48.4073 H   0  0  0  0  0  0  0  0  0  0  0  0
   57.7935   31.8350   46.4242 H   0  0  0  0  0  0  0  0  0  0  0  0
  1  2  2  0
  2  3  1  0
  3  4  1  0
  4  5  1  0
  5  6  1  0
  6  7  2  3
  7  8  1  0
  8  9  2  0
  9 10  1  0
 10 11  2  0
 11 12  1  0
  2 13  1  0
 13 14  2  0
 14 15  1  0
 15 16  2  0
 16 17  1  0
 17 18  1  0
 18 19  1  0
 19 20  1  0
 19 21  1  0
 19 22  1  0
 17 23  2  0
 12  7  1  0
 23 13  1  0
  3 24  1  0
  4 25  1  0
  4 26  1  0
  5 27  1  0
  5 28  1  0
  9 29  1  0
 10 30  1  0
 11 31  1  0
 12 32  1  0
 14 33  1  0
 15 34  1  0
 16 35  1  0
 23 36  1  0
M  END
>  <smiles>  (73) 
O=C(NCCN=c1nccc[nH]1)c1cccc(OC(F)(F)F)c1

>  <score_type>  (73) 
oracle

>  <origin>  (73) 
adg

>  <m_score__min__energy>  (73) 
-6.2300000000000004

>  <m_primary>  (73) 
energy

$$$$
73:0
     RDKit          3D

 38 39  0  0  0  0  0  0  0  0999 V2000
   61.6022   34.8705   49.0300 H   0  0  0  0  0  0  0  0  0  0  0  0
   61.0650   33.9530   48.7480 C   0  0  0  0  0  0  0  0  0  0  0  0
   59.8550   33.6380   49.3640 C   0  0  0  0  0  0  0  0  0  0  0  0
   59.4393   34.3157   50.1242 H   0  0  0  0  0  0  0  0  0  0  0  0
   59.1580   32.4610   49.0240 C   0  0  0  0  0  0  0  0  0  0  0  0
   57.9350   32.1600   49.6480 O   0  0  0  0  0  0  0  0  0  0  0  0
   57.8050   31.6560   50.9500 C   0  0  0  0  0  0  0  0  0  0  0  0
   57.4130   30.4740   51.1490 O   0  0  0  0  0  0  0  0  0  0  0  0
   58.0390   32.5520   52.1170 C   0  0  0  0  0  0  0  0  0  0  0  0
   57.8913   31.9865   53.0489 H   0  0  0  0  0  0  0  0  0  0  0  0
   59.0682   32.9386   52.0819 H   0  0  0  0  0  0  0  0  0  0  0  0
   57.3302   33.3925   52.0819 H   0  0  0  0  0  0  0  0  0  0  0  0
   59.6810   31.6080   48.0180 C   0  0  0  0  0  0  0  0  0  0  0  0
   58.9880   30.3620   47.5840 C   0  0  0  0  0  0  0  0  0  0  0  0
   58.6370   29.5140   48.4520 O   0  0  0  0  0  0  0  0  0  0  0  0
   58.7170   30.1140   46.1960 N   0  0  0  0  0  0  0  0  0  0  0  0
   57.5500   30.1660   45.6210 C   0  0  0  0  0  0  0  0  0  0  0  0
   56.6640   29.1540   45.5650 N   0  0  0  0  0  0  0  0  0  0  0  0
   55.6440   29.6400   44.8690 N   0  0  0  0  0  0  0  0  0  0  0  0
   55.8900   30.8940   44.5090 N   0  0  0  0  0  0  0  0  0  0  0  0
   57.0770   31.2430   44.9730 N   0  0  0  0  0  0  0  0  0  0  0  0
   57.7100   32.5410   44.7670 C   0  0  0  0  0  0  0  0  0  0  0  0
   57.3952   32.9409   43.7918 H   0  0  0  0  0  0  0  0  0  0  0  0
   58.8005   32.4011   44.8008 H   0  0  0  0  0  0  0  0  0  0  0  0
   57.3200   33.5410   45.8650 C   0  0  0  0  0  0  0  0  0  0  0  0
   56.9867   32.9760   46.7480 H   0  0  0  0  0  0  0  0  0  0  0  0
   56.5244   34.1794   45.4533 H   0  0  0  0  0  0  0  0  0  0  0  0
   58.4740   34.4710   46.2880 C   0  0  0  0  0  0  0  0  0  0  0  0
   58.9307   34.0718   47.2057 H   0  0  0  0  0  0  0  0  0  0  0  0
   58.0530   35.4743   46.4496 H   0  0  0  0  0  0  0  0  0  0  0  0
   59.5550   34.5880   45.2130 C   0  0  0  0  0  0  0  0  0  0  0  0
   60.5391   34.6945   45.6927 H   0  0  0  0  0  0  0  0  0  0  0  0
   59.5484   33.6839   44.5865 H   0  0  0  0  0  0  0  0  0  0  0  0
   59.3551   35.4698   44.5865 H   0  0  0  0  0  0  0  0  0  0  0  0
   60.9080   31.9480   47.4110 C   0  0  0  0  0  0  0  0  0  0  0  0
   61.3305   31.2892   46.6380 H   0  0  0  0  0  0  0  0  0  0  0  0
   61.5950   33.1080   47.7760 C   0  0  0  0  0  0  0  0  0  0  0  0
   63.1170   33.5100   47.0020 Cl  0  0  0  0  0  0  0  0  0  0  0  0
  1  2  1  0
  2  3  2  0
  3  4  1  0
  3  5  1  0
  5  6  1  0
  6  7  1  0
  7  8  2  0
  7  9  1  0
  9 10  1  0
  9 11  1  0
  9 12  1  0
  5 13  2  0
 13 14  1  0
 14 15  2  0
 14 16  1  0
 16 17  2  0
 17 18  1  0
 18 19  2  0
 19 20  1  0
 20 21  1  0
 21 22  1  0
 22 23  1  0
 22 24  1  0
 22 25  1  0
 25 26  1  0
 25 27  1  0
 25 28  1  0
 28 29  1  0
 28 30  1  0
 28 31  1  0
 31 32  1  0
 31 33  1  0
 31 34  1  0
 13 35  1  0
 35 36  1  0
 35 37  2  0
 37 38  1  0
 37  2  1  0
 21 17  1  0
M  CHG  1  20  -1
M  END
>  <UniqueID>  (74) 
66

>  <SMILES>  (74) 
CCCCn1[n-]nn/c1=N\C(=O)c1cc(Cl)ccc1OC(C)=O

>  <Energy>  (74) 
79.48598131867357

>  <Genealogy>  (74) 
CCCCn1[n-]nnc1=NC(=O)c1cc(Cl)ccc1OC(C)=O (protonated)
CCCCn1[n-]nn/c1=N\C(=O)c1cc(Cl)ccc1OC(C)=O (cis-trans isomerization)
CCCCn1[n-]nn/c1=N\C(=O)c1cc(Cl)ccc1OC(C)=O (3D coordinates assigned)
CCCCn1[n-]nn/c1=N\C(=O)c1cc(Cl)ccc1OC(C)=O (optimized conformer: 79.48598131867357 kcal/mol)

>  <smiles>  (74) 
CCCCn1[nH]nnc1=NC(=O)c1cc(Cl)ccc1OC(C)=O

>  <score_type>  (74) 
oracle

>  <origin>  (74) 
adg

>  <m_score__min__energy>  (74) 
-9.2799999999999994

>  <m_primary>  (74) 
energy

$$$$
74:0
     RDKit          3D

 48 50  0  0  0  0  0  0  0  0999 V2000
   58.4320   33.8050   52.6370 C   0  0  0  0  0  0  0  0  0  0  0  0
   59.5350   33.9670   51.7510 O   0  0  0  0  0  0  0  0  0  0  0  0
   59.5670   33.4970   50.4270 C   0  0  0  0  0  0  0  0  0  0  0  0
   58.8610   32.3510   50.0170 C   0  0  0  0  0  0  0  0  0  0  0  0
   58.9130   31.9310   48.6840 C   0  0  0  0  0  0  0  0  0  0  0  0
   59.6570   32.6530   47.7380 C   0  0  0  0  0  0  0  0  0  0  0  0
   59.6990   32.1980   46.3740 N   0  0  0  0  0  0  0  0  0  0  0  0
   58.5690   31.6570   45.6780 C   0  0  0  0  0  0  0  0  0  0  0  0
   57.5610   32.3590   45.0280 C   0  0  0  0  0  0  0  0  0  0  0  0
   57.4480   33.8400   44.8690 C   0  0  0  0  0  0  0  0  0  0  0  0
   56.6430   31.4900   44.5430 N   0  0  0  0  0  0  0  0  0  0  0  0
   57.1100   30.2840   44.9350 C   0  0  0  0  0  0  0  0  0  0  0  0
   56.5160   29.0560   44.6660 C   0  0  0  0  0  0  0  0  0  0  0  0
   57.1540   27.9020   45.1470 C   0  0  0  0  0  0  0  0  0  0  0  0
   58.3480   27.9990   45.8970 C   0  0  0  0  0  0  0  0  0  0  0  0
   59.0390   26.7930   46.3940 C   0  0  0  0  0  0  0  0  0  0  0  0
   60.2250   26.8970   46.8000 O   0  0  0  0  0  0  0  0  0  0  0  0
   58.3970   25.5100   46.4580 N   0  0  0  0  0  0  0  0  0  0  0  0
   58.1460   24.6140   45.3320 C   0  0  0  0  0  0  0  0  0  0  0  0
   56.7570   24.8590   44.7370 C   0  0  0  0  0  0  0  0  0  0  0  0
   55.5200   24.9750   46.0190 S   0  0  0  0  0  0  0  0  0  0  0  0
   56.2550   24.7800   47.5720 N   0  0  0  0  0  0  0  0  0  0  0  0
   54.5010   23.8880   45.8160 O   0  0  0  0  0  0  0  0  0  0  0  0
   54.8360   26.3130   45.9490 O   0  0  0  0  0  0  0  0  0  0  0  0
   58.9100   29.2700   46.1170 C   0  0  0  0  0  0  0  0  0  0  0  0
   58.2580   30.3560   45.6310 N   0  0  0  0  0  0  0  0  0  0  0  0
   60.3840   33.7820   48.1540 C   0  0  0  0  0  0  0  0  0  0  0  0
   60.3340   34.1990   49.4880 C   0  0  0  0  0  0  0  0  0  0  0  0
   58.7864   33.8571   53.6770 H   0  0  0  0  0  0  0  0  0  0  0  0
   57.6983   34.6050   52.4592 H   0  0  0  0  0  0  0  0  0  0  0  0
   57.9593   32.8278   52.4592 H   0  0  0  0  0  0  0  0  0  0  0  0
   58.2660   31.7834   50.7476 H   0  0  0  0  0  0  0  0  0  0  0  0
   58.3666   31.0278   48.3746 H   0  0  0  0  0  0  0  0  0  0  0  0
   60.5990   32.2780   45.8460 H   0  0  0  0  0  0  0  0  0  0  0  0
   57.4119   34.3136   45.8612 H   0  0  0  0  0  0  0  0  0  0  0  0
   58.3200   34.2168   44.3144 H   0  0  0  0  0  0  0  0  0  0  0  0
   56.5289   34.0802   44.3144 H   0  0  0  0  0  0  0  0  0  0  0  0
   55.5778   28.9910   44.0955 H   0  0  0  0  0  0  0  0  0  0  0  0
   56.7206   26.9128   44.9383 H   0  0  0  0  0  0  0  0  0  0  0  0
   58.9060   24.7891   44.5562 H   0  0  0  0  0  0  0  0  0  0  0  0
   58.1957   23.5757   45.6917 H   0  0  0  0  0  0  0  0  0  0  0  0
   56.7716   25.7989   44.1657 H   0  0  0  0  0  0  0  0  0  0  0  0
   56.5031   24.0124   44.0821 H   0  0  0  0  0  0  0  0  0  0  0  0
   56.6940   25.6960   47.8180 H   0  0  0  0  0  0  0  0  0  0  0  0
   57.0400   24.0990   47.4590 H   0  0  0  0  0  0  0  0  0  0  0  0
   59.8548   29.3804   46.6695 H   0  0  0  0  0  0  0  0  0  0  0  0
   60.9942   34.3392   47.4279 H   0  0  0  0  0  0  0  0  0  0  0  0
   60.9023   35.0866   49.8030 H   0  0  0  0  0  0  0  0  0  0  0  0
  1  2  1  0
  2  3  1  0
  3  4  2  0
  4  5  1  0
  5  6  2  0
  6  7  1  0
  7  8  1  0
  8  9  2  0
  9 10  1  0
  9 11  1  0
 11 12  2  0
 12 13  1  0
 13 14  2  0
 14 15  1  0
 15 16  1  0
 16 17  2  0
 16 18  1  0
 18 19  1  0
 19 20  1  0
 20 21  1  0
 21 22  1  0
 21 23  2  0
 21 24  2  0
 15 25  2  0
 25 26  1  0
  6 27  1  0
 27 28  2  0
 28  3  1  0
 26  8  1  0
 26 12  1  0
  1 29  1  0
  1 30  1  0
  1 31  1  0
  4 32  1  0
  5 33  1  0
  7 34  1  0
 10 35  1  0
 10 36  1  0
 10 37  1  0
 13 38  1  0
 14 39  1  0
 19 40  1  0
 19 41  1  0
 20 42  1  0
 20 43  1  0
 22 44  1  0
 22 45  1  0
 25 46  1  0
 27 47  1  0
 28 48  1  0
M  CHG  1  18  -1
M  END
>  <UniqueID>  (75) 
67

>  <SMILES>  (75) 
COc1ccc(Nc2c(C)nc3ccc(C(=O)[N-]CCS(N)(=O)=O)cn23)cc1

>  <Energy>  (75) 
85.14990287958607

>  <Genealogy>  (75) 
COc1ccc(Nc2c(C)nc3ccc(C(=O)[N-]CCS(N)(=O)=O)cn23)cc1 (protonated)
COc1ccc(Nc2c(C)nc3ccc(C(=O)[N-]CCS(N)(=O)=O)cn23)cc1 (3D coordinates assigned)
COc1ccc(Nc2c(C)nc3ccc(C(=O)[N-]CCS(N)(=O)=O)cn23)cc1 (optimized conformer: 85.14990287958607 kcal/mol)

>  <smiles>  (75) 
COc1ccc(Nc2c(C)nc3ccc(C(=O)NCCS(N)(=O)=O)cn23)cc1

>  <score_type>  (75) 
oracle

>  <origin>  (75) 
adg

>  <m_score__min__energy>  (75) 
-9.6300000000000008

>  <m_primary>  (75) 
energy

$$$$
75:0
     RDKit          3D

 31 32  0  0  0  0  0  0  0  0999 V2000
   63.7360   33.0530   47.2140 C   0  0  0  0  0  0  0  0  0  0  0  0
   62.3440   33.5440   47.4550 C   0  0  0  0  0  0  0  0  0  0  0  0
   61.7840   33.4840   48.7350 C   0  0  0  0  0  0  0  0  0  0  0  0
   60.4750   33.9430   48.9160 C   0  0  0  0  0  0  0  0  0  0  0  0
   59.8320   33.8870   50.2640 C   0  0  0  0  0  0  0  0  0  0  0  0
   59.7780   34.4190   47.8500 N   0  0  0  0  0  0  0  0  0  0  0  0
   60.3340   34.4640   46.6120 C   0  0  0  0  0  0  0  0  0  0  0  0
   59.3850   35.0800   45.2290 S   0  0  0  0  0  0  0  0  0  0  0  0
   58.6380   33.4790   44.9230 C   0  0  0  0  0  0  0  0  0  0  0  0
   58.3180   33.0930   43.6150 C   0  0  0  0  0  0  0  0  0  0  0  0
   57.7300   31.8480   43.3780 C   0  0  0  0  0  0  0  0  0  0  0  0
   57.4560   30.9820   44.4450 C   0  0  0  0  0  0  0  0  0  0  0  0
   56.7270   29.4080   44.1420 S   0  0  0  0  0  0  0  0  0  0  0  0
   55.1660   29.3430   44.8790 N   0  0  0  0  0  0  0  0  0  0  0  0
   56.5890   29.1870   42.6620 O   0  0  0  0  0  0  0  0  0  0  0  0
   57.5980   28.3250   44.7120 O   0  0  0  0  0  0  0  0  0  0  0  0
   57.7880   31.3660   45.7520 C   0  0  0  0  0  0  0  0  0  0  0  0
   58.3760   32.6120   45.9900 C   0  0  0  0  0  0  0  0  0  0  0  0
   61.6070   34.0280   46.4210 N   0  0  0  0  0  0  0  0  0  0  0  0
   64.2349   32.8770   48.1785 H   0  0  0  0  0  0  0  0  0  0  0  0
   63.6997   32.1134   46.6431 H   0  0  0  0  0  0  0  0  0  0  0  0
   64.2972   33.8074   46.6431 H   0  0  0  0  0  0  0  0  0  0  0  0
   62.3609   33.0842   49.5820 H   0  0  0  0  0  0  0  0  0  0  0  0
   60.6061   33.9544   51.0426 H   0  0  0  0  0  0  0  0  0  0  0  0
   59.1304   34.7274   50.3708 H   0  0  0  0  0  0  0  0  0  0  0  0
   59.2862   32.9379   50.3708 H   0  0  0  0  0  0  0  0  0  0  0  0
   58.5297   33.7702   42.7744 H   0  0  0  0  0  0  0  0  0  0  0  0
   57.4812   31.5464   42.3498 H   0  0  0  0  0  0  0  0  0  0  0  0
   55.2090   28.6080   45.6210 H   0  0  0  0  0  0  0  0  0  0  0  0
   57.5854   30.6854   46.5921 H   0  0  0  0  0  0  0  0  0  0  0  0
   58.6329   32.9112   47.0169 H   0  0  0  0  0  0  0  0  0  0  0  0
  1  2  1  0
  2  3  2  0
  3  4  1  0
  4  5  1  0
  4  6  2  0
  6  7  1  0
  7  8  1  0
  8  9  1  0
  9 10  2  0
 10 11  1  0
 11 12  2  0
 12 13  1  0
 13 14  1  0
 13 15  2  0
 13 16  2  0
 12 17  1  0
 17 18  2  0
  7 19  2  0
 19  2  1  0
 18  9  1  0
  1 20  1  0
  1 21  1  0
  1 22  1  0
  3 23  1  0
  5 24  1  0
  5 25  1  0
  5 26  1  0
 10 27  1  0
 11 28  1  0
 14 29  1  0
 17 30  1  0
 18 31  1  0
M  CHG  1  14  -1
M  END
>  <UniqueID>  (76) 
68

>  <SMILES>  (76) 
Cc1cc(C)nc(Sc2ccc(S([NH-])(=O)=O)cc2)n1

>  <Energy>  (76) 
24.883686680725674

>  <Genealogy>  (76) 
Cc1cc(C)nc(Sc2ccc(S([NH-])(=O)=O)cc2)n1 (protonated)
Cc1cc(C)nc(Sc2ccc(S([NH-])(=O)=O)cc2)n1 (3D coordinates assigned)
Cc1cc(C)nc(Sc2ccc(S([NH-])(=O)=O)cc2)n1 (optimized conformer: 24.883686680725674 kcal/mol)

>  <smiles>  (76) 
Cc1cc(C)nc(Sc2ccc(S(N)(=O)=O)cc2)n1

>  <score_type>  (76) 
oracle

>  <origin>  (76) 
adg

>  <m_score__min__energy>  (76) 
-10.960000000000001

>  <m_primary>  (76) 
energy

$$$$
76:0
     RDKit          3D

 46 48  0  0  0  0  0  0  0  0999 V2000
   57.3350   34.1610   44.8250 C   0  0  0  0  0  0  0  0  0  0  0  0
   58.8520   34.0170   44.8940 C   0  0  0  0  0  0  0  0  0  0  0  0
   59.4470   35.2360   45.3050 O   0  0  0  0  0  0  0  0  0  0  0  0
   59.6570   35.2570   46.7030 C   0  0  0  0  0  0  0  0  0  0  0  0
   59.3310   33.9200   47.3010 C   0  0  0  0  0  0  0  0  0  0  0  0
   58.1010   33.5760   47.7390 N   0  0  0  0  0  0  0  0  0  0  0  0
   58.1780   32.3270   48.1840 N   0  0  0  0  0  0  0  0  0  0  0  0
   59.4520   31.9350   47.9980 C   0  0  0  0  0  0  0  0  0  0  0  0
   60.2040   32.9090   47.4750 N   0  0  0  0  0  0  0  0  0  0  0  0
   61.6030   32.7760   47.0800 C   0  0  0  0  0  0  0  0  0  0  0  0
   62.2100   31.5100   47.7220 C   0  0  0  0  0  0  0  0  0  0  0  0
   61.2950   30.3430   47.6580 N   0  0  0  0  0  0  0  0  0  0  0  0
   61.0700   29.8920   46.2670 C   0  0  0  0  0  0  0  0  0  0  0  0
   59.7570   29.1600   46.1600 C   0  0  0  0  0  0  0  0  0  0  0  0
   59.6370   27.8660   46.6740 C   0  0  0  0  0  0  0  0  0  0  0  0
   58.4240   27.1850   46.5940 C   0  0  0  0  0  0  0  0  0  0  0  0
   57.2980   27.7890   45.9990 C   0  0  0  0  0  0  0  0  0  0  0  0
   56.0750   27.1050   45.8980 O   0  0  0  0  0  0  0  0  0  0  0  0
   55.9270   25.6900   45.9470 C   0  0  0  0  0  0  0  0  0  0  0  0
   57.4070   29.1050   45.4870 C   0  0  0  0  0  0  0  0  0  0  0  0
   56.2820   29.7760   44.8770 N   0  0  0  0  0  0  0  0  0  0  0  0
   56.3150   30.9980   44.6270 O   0  0  0  0  0  0  0  0  0  0  0  0
   55.1590   29.0640   44.5200 O   0  0  0  0  0  0  0  0  0  0  0  0
   58.6430   29.7740   45.5720 C   0  0  0  0  0  0  0  0  0  0  0  0
   60.0240   30.6040   48.3790 C   0  0  0  0  0  0  0  0  0  0  0  0
   56.9236   34.2000   45.8444 H   0  0  0  0  0  0  0  0  0  0  0  0
   57.0786   35.0875   44.2904 H   0  0  0  0  0  0  0  0  0  0  0  0
   56.9088   33.2993   44.2904 H   0  0  0  0  0  0  0  0  0  0  0  0
   59.1084   33.2274   45.6156 H   0  0  0  0  0  0  0  0  0  0  0  0
   59.2308   33.7546   43.8952 H   0  0  0  0  0  0  0  0  0  0  0  0
   60.7105   35.4985   46.9077 H   0  0  0  0  0  0  0  0  0  0  0  0
   59.0009   36.0178   47.1510 H   0  0  0  0  0  0  0  0  0  0  0  0
   61.6672   32.6966   45.9848 H   0  0  0  0  0  0  0  0  0  0  0  0
   62.1621   33.6598   47.4211 H   0  0  0  0  0  0  0  0  0  0  0  0
   63.1404   31.2577   47.1921 H   0  0  0  0  0  0  0  0  0  0  0  0
   62.3949   31.7307   48.7837 H   0  0  0  0  0  0  0  0  0  0  0  0
   61.0531   30.7667   45.6002 H   0  0  0  0  0  0  0  0  0  0  0  0
   61.8836   29.2115   45.9756 H   0  0  0  0  0  0  0  0  0  0  0  0
   60.5055   27.3821   47.1446 H   0  0  0  0  0  0  0  0  0  0  0  0
   58.3443   26.1655   46.9994 H   0  0  0  0  0  0  0  0  0  0  0  0
   55.8926   25.3610   46.9961 H   0  0  0  0  0  0  0  0  0  0  0  0
   54.9937   25.4012   45.4414 H   0  0  0  0  0  0  0  0  0  0  0  0
   56.7803   25.2144   45.4414 H   0  0  0  0  0  0  0  0  0  0  0  0
   58.7356   30.7940   45.1708 H   0  0  0  0  0  0  0  0  0  0  0  0
   59.2993   29.8159   48.1266 H   0  0  0  0  0  0  0  0  0  0  0  0
   60.2296   30.6082   49.4596 H   0  0  0  0  0  0  0  0  0  0  0  0
  1  2  1  0
  2  3  1  0
  3  4  1  0
  4  5  1  0
  5  6  2  0
  6  7  1  0
  7  8  2  0
  8  9  1  0
  9 10  1  0
 10 11  1  0
 11 12  1  0
 12 13  1  0
 13 14  1  0
 14 15  2  0
 15 16  1  0
 16 17  2  0
 17 18  1  0
 18 19  1  0
 17 20  1  0
 20 21  1  0
 21 22  2  0
 21 23  1  0
 20 24  2  0
 12 25  1  0
  9  5  1  0
 24 14  1  0
 25  8  1  0
  1 26  1  0
  1 27  1  0
  1 28  1  0
  2 29  1  0
  2 30  1  0
  4 31  1  0
  4 32  1  0
 10 33  1  0
 10 34  1  0
 11 35  1  0
 11 36  1  0
 13 37  1  0
 13 38  1  0
 15 39  1  0
 16 40  1  0
 19 41  1  0
 19 42  1  0
 19 43  1  0
 24 44  1  0
 25 45  1  0
 25 46  1  0
M  CHG  2  21   1  23  -1
M  END
>  <UniqueID>  (77) 
69

>  <SMILES>  (77) 
CCOCc1nnc2n1CCN(Cc1ccc(OC)c([N+](=O)[O-])c1)C2

>  <Energy>  (77) 
89.68555496141617

>  <Genealogy>  (77) 
CCOCc1nnc2n1CCN(Cc1ccc(OC)c([N+](=O)[O-])c1)C2 (3D coordinates assigned)
CCOCc1nnc2n1CCN(Cc1ccc(OC)c([N+](=O)[O-])c1)C2 (nonaromatic ring conformer: 89.68555496141617 kcal/mol)

>  <smiles>  (77) 
CCOCc1nnc2n1CCN(Cc1ccc(OC)c([N+](=O)[O-])c1)C2

>  <score_type>  (77) 
oracle

>  <origin>  (77) 
adg

>  <m_score__min__energy>  (77) 
-7.6200000000000001

>  <m_primary>  (77) 
energy

$$$$
77:0
     RDKit          3D

 31 32  0  0  0  0  0  0  0  0999 V2000
   55.1270   29.3390   45.1240 O   0  0  0  0  0  0  0  0  0  0  0  0
   56.3060   29.0090   44.8340 C   0  0  0  0  0  0  0  0  0  0  0  0
   56.8890   29.5700   43.7030 O   0  0  0  0  0  0  0  0  0  0  0  0
   57.0650   28.0340   45.6700 C   0  0  0  0  0  0  0  0  0  0  0  0
   58.4210   28.2490   46.0430 C   0  0  0  0  0  0  0  0  0  0  0  0
   59.1220   29.4360   45.6230 N   0  0  0  0  0  0  0  0  0  0  0  0
   60.1640   30.1070   46.4080 C   0  0  0  0  0  0  0  0  0  0  0  0
   59.6090   31.2410   47.2910 C   0  0  0  0  0  0  0  0  0  0  0  0
   59.2850   32.4620   46.5150 N   0  0  0  0  0  0  0  0  0  0  0  0
   58.2080   32.4620   45.6580 C   0  0  0  0  0  0  0  0  0  0  0  0
   57.4440   31.4620   45.5740 O   0  0  0  0  0  0  0  0  0  0  0  0
   57.9340   33.5720   44.8600 C   0  0  0  0  0  0  0  0  0  0  0  0
   58.7440   34.6920   44.9700 C   0  0  0  0  0  0  0  0  0  0  0  0
   59.7600   34.6980   45.8640 N   0  0  0  0  0  0  0  0  0  0  0  0
   60.0350   33.6170   46.6390 C   0  0  0  0  0  0  0  0  0  0  0  0
   61.2450   33.7690   47.7420 S   0  0  0  0  0  0  0  0  0  0  0  0
   59.0780   27.2850   46.8350 C   0  0  0  0  0  0  0  0  0  0  0  0
   60.3750   27.5030   47.2960 O   0  0  0  0  0  0  0  0  0  0  0  0
   58.4130   26.1090   47.1820 C   0  0  0  0  0  0  0  0  0  0  0  0
   57.1320   25.9090   46.7950 N   0  0  0  0  0  0  0  0  0  0  0  0
   56.4460   26.8250   46.0660 C   0  0  0  0  0  0  0  0  0  0  0  0
   55.2480   26.5790   45.7620 O   0  0  0  0  0  0  0  0  0  0  0  0
   58.8120   29.9090   44.7450 H   0  0  0  0  0  0  0  0  0  0  0  0
   60.6499   29.3627   47.0560 H   0  0  0  0  0  0  0  0  0  0  0  0
   60.8747   30.5568   45.6991 H   0  0  0  0  0  0  0  0  0  0  0  0
   58.6936   30.8855   47.7867 H   0  0  0  0  0  0  0  0  0  0  0  0
   60.3885   31.5070   48.0202 H   0  0  0  0  0  0  0  0  0  0  0  0
   57.0896   33.5594   44.1551 H   0  0  0  0  0  0  0  0  0  0  0  0
   58.5618   35.5709   44.3341 H   0  0  0  0  0  0  0  0  0  0  0  0
   61.0980   27.8800   46.6940 H   0  0  0  0  0  0  0  0  0  0  0  0
   58.9325   25.3405   47.7731 H   0  0  0  0  0  0  0  0  0  0  0  0
  1  2  2  0
  2  3  1  0
  2  4  1  0
  4  5  2  0
  5  6  1  0
  6  7  1  0
  7  8  1  0
  8  9  1  0
  9 10  1  0
 10 11  2  0
 10 12  1  0
 12 13  2  0
 13 14  1  0
 14 15  1  0
 15 16  2  0
  5 17  1  0
 17 18  1  0
 17 19  2  0
 19 20  1  0
 20 21  1  0
 21 22  2  0
 21  4  1  0
 15  9  1  0
  6 23  1  0
  7 24  1  0
  7 25  1  0
  8 26  1  0
  8 27  1  0
 12 28  1  0
 13 29  1  0
 18 30  1  0
 19 31  1  0
M  CHG  3   3  -1  14  -1  20  -1
M  END
>  <UniqueID>  (78) 
70

>  <SMILES>  (78) 
O=C([O-])c1c(NCCn2c(=O)cc[n-]c2=S)c(O)c[n-]c1=O

>  <Energy>  (78) 
47.18090196435071

>  <Genealogy>  (78) 
O=C([O-])c1c(NCCn2c(=O)cc[n-]c2=S)c(O)c[n-]c1=O (protonated)
O=C([O-])c1c(NCCn2c(=O)cc[n-]c2=S)c(O)c[n-]c1=O (3D coordinates assigned)
O=C([O-])c1c(NCCn2c(=O)cc[n-]c2=S)c(O)c[n-]c1=O (optimized conformer: 47.18090196435071 kcal/mol)

>  <smiles>  (78) 
O=C(O)c1c(NCCn2c(=O)cc[nH]c2=S)c(O)c[nH]c1=O

>  <score_type>  (78) 
oracle

>  <origin>  (78) 
adg

>  <m_score__min__energy>  (78) 
-11.210000000000001

>  <m_primary>  (78) 
energy

$$$$
78:0
     RDKit          3D

 35 37  0  0  0  0  0  0  0  0999 V2000
   54.6520   26.3230   45.9910 O   0  0  0  0  0  0  0  0  0  0  0  0
   55.9110   26.2600   45.9910 C   0  0  0  0  0  0  0  0  0  0  0  0
   56.7170   27.4660   45.6210 C   0  0  0  0  0  0  0  0  0  0  0  0
   55.8500   28.5750   45.2300 N   0  0  0  0  0  0  0  0  0  0  0  0
   56.2330   29.7480   44.4970 C   0  0  0  0  0  0  0  0  0  0  0  0
   55.7890   29.9030   43.3300 O   0  0  0  0  0  0  0  0  0  0  0  0
   57.1810   30.7440   45.0290 C   0  0  0  0  0  0  0  0  0  0  0  0
   58.3110   30.4730   45.8000 C   0  0  0  0  0  0  0  0  0  0  0  0
   58.9190   31.6960   45.9770 C   0  0  0  0  0  0  0  0  0  0  0  0
   60.1240   32.0250   46.5940 C   0  0  0  0  0  0  0  0  0  0  0  0
   60.5350   33.3710   46.5540 C   0  0  0  0  0  0  0  0  0  0  0  0
   62.0550   33.8400   47.2910 Cl  0  0  0  0  0  0  0  0  0  0  0  0
   59.7370   34.3430   45.9080 C   0  0  0  0  0  0  0  0  0  0  0  0
   58.5250   33.9770   45.2950 C   0  0  0  0  0  0  0  0  0  0  0  0
   58.1460   32.6370   45.3500 C   0  0  0  0  0  0  0  0  0  0  0  0
   57.0710   32.0700   44.7790 N   0  0  0  0  0  0  0  0  0  0  0  0
   56.5840   25.0530   46.3660 N   0  0  0  0  0  0  0  0  0  0  0  0
   56.9150   23.9500   45.5090 C   0  0  0  0  0  0  0  0  0  0  0  0
   58.1180   23.2660   45.7360 C   0  0  0  0  0  0  0  0  0  0  0  0
   58.5240   22.2400   44.8770 C   0  0  0  0  0  0  0  0  0  0  0  0
   57.7330   21.8950   43.7790 C   0  0  0  0  0  0  0  0  0  0  0  0
   56.5390   22.5770   43.5350 C   0  0  0  0  0  0  0  0  0  0  0  0
   56.1300   23.6060   44.3920 C   0  0  0  0  0  0  0  0  0  0  0  0
   57.3245   27.7718   46.4855 H   0  0  0  0  0  0  0  0  0  0  0  0
   57.3625   27.2082   44.7684 H   0  0  0  0  0  0  0  0  0  0  0  0
   58.6436   29.4968   46.1827 H   0  0  0  0  0  0  0  0  0  0  0  0
   60.7337   31.2590   47.0955 H   0  0  0  0  0  0  0  0  0  0  0  0
   60.0661   35.3924   45.8846 H   0  0  0  0  0  0  0  0  0  0  0  0
   57.8966   34.7244   44.7885 H   0  0  0  0  0  0  0  0  0  0  0  0
   56.3390   32.5470   44.2070 H   0  0  0  0  0  0  0  0  0  0  0  0
   58.7470   23.5386   46.5963 H   0  0  0  0  0  0  0  0  0  0  0  0
   59.4662   21.7048   45.0661 H   0  0  0  0  0  0  0  0  0  0  0  0
   58.0507   21.0853   43.1057 H   0  0  0  0  0  0  0  0  0  0  0  0
   55.9188   22.3053   42.6681 H   0  0  0  0  0  0  0  0  0  0  0  0
   55.1932   24.1469   44.1921 H   0  0  0  0  0  0  0  0  0  0  0  0
  1  2  2  0
  2  3  1  0
  3  4  1  0
  4  5  1  0
  5  6  2  0
  5  7  1  0
  7  8  2  0
  8  9  1  0
  9 10  2  0
 10 11  1  0
 11 12  1  0
 11 13  2  0
 13 14  1  0
 14 15  2  0
 15 16  1  0
  2 17  1  0
 17 18  1  0
 18 19  2  0
 19 20  1  0
 20 21  2  0
 21 22  1  0
 22 23  2  0
 16  7  1  0
 23 18  1  0
 15  9  1  0
  3 24  1  0
  3 25  1  0
  8 26  1  0
 10 27  1  0
 13 28  1  0
 14 29  1  0
 16 30  1  0
 19 31  1  0
 20 32  1  0
 21 33  1  0
 22 34  1  0
 23 35  1  0
M  CHG  2   4  -1  17  -1
M  END
>  <UniqueID>  (79) 
71

>  <SMILES>  (79) 
O=C(C[N-]C(=O)c1cc2cc(Cl)ccc2[nH]1)[N-]c1ccccc1

>  <Energy>  (79) 
70.59327838728882

>  <Genealogy>  (79) 
O=C(C[N-]C(=O)c1cc2cc(Cl)ccc2[nH]1)[N-]c1ccccc1 (protonated)
O=C(C[N-]C(=O)c1cc2cc(Cl)ccc2[nH]1)[N-]c1ccccc1 (3D coordinates assigned)
O=C(C[N-]C(=O)c1cc2cc(Cl)ccc2[nH]1)[N-]c1ccccc1 (optimized conformer: 70.59327838728882 kcal/mol)

>  <smiles>  (79) 
O=C(CNC(=O)c1cc2cc(Cl)ccc2[nH]1)Nc1ccccc1

>  <score_type>  (79) 
oracle

>  <origin>  (79) 
adg

>  <m_score__min__energy>  (79) 
-11.76

>  <m_primary>  (79) 
energy

$$$$
79:0
     RDKit          3D

 42 43  0  0  0  0  0  0  0  0999 V2000
   57.4206   34.9617   45.6175 H   0  0  0  0  0  0  0  0  0  0  0  0
   57.7670   33.9180   45.6450 C   0  0  0  0  0  0  0  0  0  0  0  0
   56.9970   32.9130   45.0560 C   0  0  0  0  0  0  0  0  0  0  0  0
   56.0478   33.1705   44.5634 H   0  0  0  0  0  0  0  0  0  0  0  0
   57.4270   31.5710   45.0880 C   0  0  0  0  0  0  0  0  0  0  0  0
   56.6620   30.5440   44.5110 O   0  0  0  0  0  0  0  0  0  0  0  0
   56.6810   30.1970   43.1310 C   0  0  0  0  0  0  0  0  0  0  0  0
   56.7409   29.1034   43.0287 H   0  0  0  0  0  0  0  0  0  0  0  0
   55.7616   30.5606   42.6488 H   0  0  0  0  0  0  0  0  0  0  0  0
   57.5552   30.6588   42.6488 H   0  0  0  0  0  0  0  0  0  0  0  0
   58.6490   31.2570   45.7220 C   0  0  0  0  0  0  0  0  0  0  0  0
   59.2430   29.5950   45.8590 S   0  0  0  0  0  0  0  0  0  0  0  0
   60.4850   29.6080   46.7040 O   0  0  0  0  0  0  0  0  0  0  0  0
   59.5850   29.0000   44.5210 O   0  0  0  0  0  0  0  0  0  0  0  0
   58.0440   28.6060   46.6360 N   0  0  0  0  0  0  0  0  0  0  0  0
   57.3040   27.7120   46.0490 C   0  0  0  0  0  0  0  0  0  0  0  0
   57.6720   26.2820   46.0200 C   0  0  0  0  0  0  0  0  0  0  0  0
   59.0250   25.9160   46.0230 C   0  0  0  0  0  0  0  0  0  0  0  0
   59.8017   26.6945   46.0484 H   0  0  0  0  0  0  0  0  0  0  0  0
   59.3930   24.5700   45.9940 C   0  0  0  0  0  0  0  0  0  0  0  0
   60.4574   24.2926   45.9907 H   0  0  0  0  0  0  0  0  0  0  0  0
   58.4070   23.5670   45.9690 C   0  0  0  0  0  0  0  0  0  0  0  0
   58.7270   22.2020   45.9330 O   0  0  0  0  0  0  0  0  0  0  0  0
   57.9200   21.2030   45.3190 C   0  0  0  0  0  0  0  0  0  0  0  0
   57.4310   20.5977   46.0965 H   0  0  0  0  0  0  0  0  0  0  0  0
   57.1540   21.6840   44.6930 H   0  0  0  0  0  0  0  0  0  0  0  0
   58.5513   20.5553   44.6930 H   0  0  0  0  0  0  0  0  0  0  0  0
   57.0570   23.9340   45.9820 C   0  0  0  0  0  0  0  0  0  0  0  0
   56.2824   23.1531   45.9686 H   0  0  0  0  0  0  0  0  0  0  0  0
   56.6760   25.2900   46.0120 C   0  0  0  0  0  0  0  0  0  0  0  0
   55.3280   25.6830   46.0210 O   0  0  0  0  0  0  0  0  0  0  0  0
   54.2420   24.8540   45.6190 C   0  0  0  0  0  0  0  0  0  0  0  0
   53.7297   24.4629   46.5104 H   0  0  0  0  0  0  0  0  0  0  0  0
   53.5338   25.4433   45.0180 H   0  0  0  0  0  0  0  0  0  0  0  0
   54.6237   24.0155   45.0180 H   0  0  0  0  0  0  0  0  0  0  0  0
   56.1110   28.1280   45.3830 N   0  0  0  0  0  0  0  0  0  0  0  0
   55.5040   27.4310   44.8970 H   0  0  0  0  0  0  0  0  0  0  0  0
   55.8310   29.1340   45.3740 H   0  0  0  0  0  0  0  0  0  0  0  0
   59.4120   32.2770   46.3050 C   0  0  0  0  0  0  0  0  0  0  0  0
   60.3650   32.0316   46.7965 H   0  0  0  0  0  0  0  0  0  0  0  0
   58.9740   33.6020   46.2680 C   0  0  0  0  0  0  0  0  0  0  0  0
   60.0180   34.9760   47.0850 Br  0  0  0  0  0  0  0  0  0  0  0  0
  1  2  1  0
  2  3  2  0
  3  4  1  0
  3  5  1  0
  5  6  1  0
  6  7  1  0
  7  8  1  0
  7  9  1  0
  7 10  1  0
  5 11  2  0
 11 12  1  0
 12 13  2  0
 12 14  2  0
 12 15  1  0
 15 16  2  0
 16 17  1  0
 17 18  2  0
 18 19  1  0
 18 20  1  0
 20 21  1  0
 20 22  2  0
 22 23  1  0
 23 24  1  0
 24 25  1  0
 24 26  1  0
 24 27  1  0
 22 28  1  0
 28 29  1  0
 28 30  2  0
 30 31  1  0
 31 32  1  0
 32 33  1  0
 32 34  1  0
 32 35  1  0
 16 36  1  0
 36 37  1  0
 36 38  1  0
 11 39  1  0
 39 40  1  0
 39 41  2  0
 41 42  1  0
 41  2  1  0
 30 17  1  0
M  END
>  <UniqueID>  (80) 
72

>  <SMILES>  (80) 
COc1ccc(/C(N)=N\S(=O)(=O)c2cc(Br)ccc2OC)c(OC)c1

>  <Energy>  (80) 
44.91383769989678

>  <Genealogy>  (80) 
COc1ccc(/C(N)=N\S(=O)(=O)c2cc(Br)ccc2OC)c(OC)c1 (cis-trans isomerization)
COc1ccc(/C(N)=N\S(=O)(=O)c2cc(Br)ccc2OC)c(OC)c1 (3D coordinates assigned)
COc1ccc(/C(N)=N\S(=O)(=O)c2cc(Br)ccc2OC)c(OC)c1 (optimized conformer: 44.91383769989678 kcal/mol)

>  <smiles>  (80) 
COc1ccc(C(N)=NS(=O)(=O)c2cc(Br)ccc2OC)c(OC)c1

>  <score_type>  (80) 
oracle

>  <origin>  (80) 
adg

>  <m_score__min__energy>  (80) 
-7.7000000000000002

>  <m_primary>  (80) 
energy

$$$$
80:0
     RDKit          3D

 44 46  0  0  0  0  0  0  0  0999 V2000
   60.4770   27.4680   45.9790 C   0  0  0  0  0  0  0  0  0  0  0  0
   60.1080   26.0390   46.3700 C   0  0  0  0  0  0  0  0  0  0  0  0
   58.7080   25.9790   46.9880 C   0  0  0  0  0  0  0  0  0  0  0  0
   57.6770   26.0490   45.9560 N   0  0  0  0  0  0  0  0  0  0  0  0
   56.7370   27.1140   45.7510 C   0  0  0  0  0  0  0  0  0  0  0  0
   55.5110   26.8720   45.9090 O   0  0  0  0  0  0  0  0  0  0  0  0
   57.1490   28.4440   45.3890 N   0  0  0  0  0  0  0  0  0  0  0  0
   56.9260   28.9500   44.0240 C   0  0  0  0  0  0  0  0  0  0  0  0
   56.3680   30.3770   44.0580 C   0  0  0  0  0  0  0  0  0  0  0  0
   57.1650   31.1880   44.9660 N   0  0  0  0  0  0  0  0  0  0  0  0
   57.2830   32.5040   44.9100 N   0  0  0  0  0  0  0  0  0  0  0  0
   58.0410   32.8730   45.9650 C   0  0  0  0  0  0  0  0  0  0  0  0
   58.4640   34.2800   46.2380 C   0  0  0  0  0  0  0  0  0  0  0  0
   59.5570   34.2980   47.2070 N   0  0  0  0  0  0  0  0  0  0  0  0
   60.9080   33.9700   46.8410 C   0  0  0  0  0  0  0  0  0  0  0  0
   61.2040   33.8220   45.6240 O   0  0  0  0  0  0  0  0  0  0  0  0
   61.9650   33.8130   47.8650 C   0  0  0  0  0  0  0  0  0  0  0  0
   63.2490   33.2940   47.6100 C   0  0  0  0  0  0  0  0  0  0  0  0
   64.0680   33.2600   48.7280 C   0  0  0  0  0  0  0  0  0  0  0  0
   63.2070   33.8770   50.0300 S   0  0  0  0  0  0  0  0  0  0  0  0
   61.7860   34.1950   49.1920 C   0  0  0  0  0  0  0  0  0  0  0  0
   58.4080   31.7600   46.7080 C   0  0  0  0  0  0  0  0  0  0  0  0
   57.8170   30.7120   46.0380 C   0  0  0  0  0  0  0  0  0  0  0  0
   57.8520   29.2600   46.3980 C   0  0  0  0  0  0  0  0  0  0  0  0
   60.6320   28.0683   46.8876 H   0  0  0  0  0  0  0  0  0  0  0  0
   61.4020   27.4581   45.3838 H   0  0  0  0  0  0  0  0  0  0  0  0
   59.6628   27.9072   45.3838 H   0  0  0  0  0  0  0  0  0  0  0  0
   60.1317   25.4037   45.4723 H   0  0  0  0  0  0  0  0  0  0  0  0
   60.8340   25.6830   47.1158 H   0  0  0  0  0  0  0  0  0  0  0  0
   58.5993   25.0347   47.5416 H   0  0  0  0  0  0  0  0  0  0  0  0
   58.5862   26.8382   47.6640 H   0  0  0  0  0  0  0  0  0  0  0  0
   57.8811   28.9490   43.4783 H   0  0  0  0  0  0  0  0  0  0  0  0
   56.1972   28.2979   43.5205 H   0  0  0  0  0  0  0  0  0  0  0  0
   56.4082   30.8106   43.0479 H   0  0  0  0  0  0  0  0  0  0  0  0
   55.3248   30.3546   44.4062 H   0  0  0  0  0  0  0  0  0  0  0  0
   58.8014   34.7466   45.3007 H   0  0  0  0  0  0  0  0  0  0  0  0
   57.6102   34.8387   46.6489 H   0  0  0  0  0  0  0  0  0  0  0  0
   59.3370   34.5990   48.1810 H   0  0  0  0  0  0  0  0  0  0  0  0
   63.5718   32.9481   46.6170 H   0  0  0  0  0  0  0  0  0  0  0  0
   65.1042   32.8919   48.7569 H   0  0  0  0  0  0  0  0  0  0  0  0
   60.8705   34.6306   49.6188 H   0  0  0  0  0  0  0  0  0  0  0  0
   59.0254   31.7234   47.6177 H   0  0  0  0  0  0  0  0  0  0  0  0
   58.8997   28.9305   46.4596 H   0  0  0  0  0  0  0  0  0  0  0  0
   57.3471   29.1285   47.3664 H   0  0  0  0  0  0  0  0  0  0  0  0
  1  2  1  0
  2  3  1  0
  3  4  1  0
  4  5  1  0
  5  6  2  0
  5  7  1  0
  7  8  1  0
  8  9  1  0
  9 10  1  0
 10 11  1  0
 11 12  2  0
 12 13  1  0
 13 14  1  0
 14 15  1  0
 15 16  2  0
 15 17  1  0
 17 18  1  0
 18 19  2  0
 19 20  1  0
 20 21  1  0
 12 22  1  0
 22 23  2  0
 23 24  1  0
 24  7  1  0
 23 10  1  0
 21 17  2  0
  1 25  1  0
  1 26  1  0
  1 27  1  0
  2 28  1  0
  2 29  1  0
  3 30  1  0
  3 31  1  0
  8 32  1  0
  8 33  1  0
  9 34  1  0
  9 35  1  0
 13 36  1  0
 13 37  1  0
 14 38  1  0
 18 39  1  0
 19 40  1  0
 21 41  1  0
 22 42  1  0
 24 43  1  0
 24 44  1  0
M  CHG  1   4  -1
M  END
>  <UniqueID>  (81) 
73

>  <SMILES>  (81) 
CCC[N-]C(=O)N1CCn2nc(CNC(=O)c3ccsc3)cc2C1

>  <Energy>  (81) 
97.33993171207563

>  <Genealogy>  (81) 
CCC[N-]C(=O)N1CCn2nc(CNC(=O)c3ccsc3)cc2C1 (protonated)
CCC[N-]C(=O)N1CCn2nc(CNC(=O)c3ccsc3)cc2C1 (3D coordinates assigned)
CCC[N-]C(=O)N1CCn2nc(CNC(=O)c3ccsc3)cc2C1 (nonaromatic ring conformer: 97.33993171207563 kcal/mol)

>  <smiles>  (81) 
CCCNC(=O)N1CCn2nc(CNC(=O)c3ccsc3)cc2C1

>  <score_type>  (81) 
oracle

>  <origin>  (81) 
adg

>  <m_score__min__energy>  (81) 
-8.5

>  <m_primary>  (81) 
energy

$$$$
81:0
     RDKit          3D

 18 19  0  0  0  0  0  0  0  0999 V2000
   55.0170   29.3380   44.5220 N   0  0  0  0  0  0  0  0  0  0  0  0
   56.7380   29.3810   44.6760 S   0  0  0  0  0  0  0  0  0  0  0  0
   57.3580   29.6500   43.3340 O   0  0  0  0  0  0  0  0  0  0  0  0
   57.1260   30.4870   45.6170 O   0  0  0  0  0  0  0  0  0  0  0  0
   57.3100   27.8380   45.2980 C   0  0  0  0  0  0  0  0  0  0  0  0
   58.6600   27.4530   45.1030 C   0  0  0  0  0  0  0  0  0  0  0  0
   59.1290   26.2160   45.5840 C   0  0  0  0  0  0  0  0  0  0  0  0
   58.2220   25.3950   46.2480 C   0  0  0  0  0  0  0  0  0  0  0  0
   58.4480   24.1850   46.7810 N   0  0  0  0  0  0  0  0  0  0  0  0
   57.2280   23.8630   47.2810 C   0  0  0  0  0  0  0  0  0  0  0  0
   57.0100   22.7760   47.8770 O   0  0  0  0  0  0  0  0  0  0  0  0
   56.2600   24.7950   47.0910 N   0  0  0  0  0  0  0  0  0  0  0  0
   56.9220   25.7570   46.4330 C   0  0  0  0  0  0  0  0  0  0  0  0
   56.4210   26.9720   45.9710 C   0  0  0  0  0  0  0  0  0  0  0  0
   54.6240   29.3410   45.4900 H   0  0  0  0  0  0  0  0  0  0  0  0
   59.3475   28.1270   44.5709 H   0  0  0  0  0  0  0  0  0  0  0  0
   60.1754   25.9089   45.4402 H   0  0  0  0  0  0  0  0  0  0  0  0
   55.3674   27.2476   46.1255 H   0  0  0  0  0  0  0  0  0  0  0  0
  1  2  1  0
  2  3  2  0
  2  4  2  0
  2  5  1  0
  5  6  2  0
  6  7  1  0
  7  8  2  0
  8  9  1  0
  9 10  1  0
 10 11  2  0
 10 12  1  0
 12 13  1  0
 13 14  2  0
 14  5  1  0
 13  8  1  0
  1 15  1  0
  6 16  1  0
  7 17  1  0
 14 18  1  0
M  CHG  3   1  -1   9  -1  12  -1
M  END
>  <UniqueID>  (82) 
74

>  <SMILES>  (82) 
[NH-]S(=O)(=O)c1ccc2[n-]c(=O)[n-]c2c1

>  <Energy>  (82) 
53.643198289456016

>  <Genealogy>  (82) 
[NH-]S(=O)(=O)c1ccc2[n-]c(=O)[n-]c2c1 (protonated)
[NH-]S(=O)(=O)c1ccc2[n-]c(=O)[n-]c2c1 (3D coordinates assigned)
[NH-]S(=O)(=O)c1ccc2[n-]c(=O)[n-]c2c1 (optimized conformer: 53.643198289456016 kcal/mol)

>  <smiles>  (82) 
NS(=O)(=O)c1ccc2[nH]c(=O)[nH]c2c1

>  <score_type>  (82) 
oracle

>  <origin>  (82) 
adg

>  <m_score__min__energy>  (82) 
-11.18

>  <m_primary>  (82) 
energy

$$$$
82:0
     RDKit          3D

 47 50  0  0  0  0  0  0  0  0999 V2000
   56.5903   30.6898   41.4801 H   0  0  0  0  0  0  0  0  0  0  0  0
   56.7170   30.6490   42.5720 C   0  0  0  0  0  0  0  0  0  0  0  0
   57.2350   31.7130   43.2350 N   0  0  0  0  0  0  0  0  0  0  0  0
   57.3890   31.6630   44.5820 C   0  0  0  0  0  0  0  0  0  0  0  0
   57.9320   32.7780   45.2820 N   0  0  0  0  0  0  0  0  0  0  0  0
   58.5460   33.0400   46.5960 C   0  0  0  0  0  0  0  0  0  0  0  0
   57.8595   32.8437   47.4328 H   0  0  0  0  0  0  0  0  0  0  0  0
   59.4177   32.4293   46.8738 H   0  0  0  0  0  0  0  0  0  0  0  0
   58.7790   34.4990   46.3700 C   0  0  0  0  0  0  0  0  0  0  0  0
   58.4425   35.2990   47.0459 H   0  0  0  0  0  0  0  0  0  0  0  0
   60.1710   34.8060   46.2740 O   0  0  0  0  0  0  0  0  0  0  0  0
   61.1740   34.1770   47.0250 C   0  0  0  0  0  0  0  0  0  0  0  0
   61.0360   33.9190   48.4030 C   0  0  0  0  0  0  0  0  0  0  0  0
   60.1142   34.2129   48.9263 H   0  0  0  0  0  0  0  0  0  0  0  0
   62.0680   33.2900   49.1080 C   0  0  0  0  0  0  0  0  0  0  0  0
   61.9564   33.0913   50.1841 H   0  0  0  0  0  0  0  0  0  0  0  0
   63.2400   32.9140   48.4470 C   0  0  0  0  0  0  0  0  0  0  0  0
   64.2400   32.3040   49.1320 F   0  0  0  0  0  0  0  0  0  0  0  0
   63.3830   33.1670   47.0800 C   0  0  0  0  0  0  0  0  0  0  0  0
   64.3060   32.8710   46.5599 H   0  0  0  0  0  0  0  0  0  0  0  0
   62.3540   33.7960   46.3730 C   0  0  0  0  0  0  0  0  0  0  0  0
   62.4717   33.9932   45.2972 H   0  0  0  0  0  0  0  0  0  0  0  0
   58.1540   34.2140   45.0420 C   0  0  0  0  0  0  0  0  0  0  0  0
   57.2170   34.7686   44.8854 H   0  0  0  0  0  0  0  0  0  0  0  0
   58.7300   34.4902   44.1465 H   0  0  0  0  0  0  0  0  0  0  0  0
   57.0260   30.5460   45.2630 N   0  0  0  0  0  0  0  0  0  0  0  0
   56.5170   29.4730   44.6020 C   0  0  0  0  0  0  0  0  0  0  0  0
   56.1410   28.4020   45.2380 N   0  0  0  0  0  0  0  0  0  0  0  0
   56.9340   27.2280   45.4950 C   0  0  0  0  0  0  0  0  0  0  0  0
   58.2710   27.1250   45.0750 C   0  0  0  0  0  0  0  0  0  0  0  0
   58.7465   27.9656   44.5484 H   0  0  0  0  0  0  0  0  0  0  0  0
   58.9980   25.9590   45.3240 C   0  0  0  0  0  0  0  0  0  0  0  0
   60.0514   25.8942   45.0140 H   0  0  0  0  0  0  0  0  0  0  0  0
   58.3940   24.8740   45.9650 C   0  0  0  0  0  0  0  0  0  0  0  0
   59.1470   23.7810   46.2420 F   0  0  0  0  0  0  0  0  0  0  0  0
   57.0400   24.9420   46.3470 C   0  0  0  0  0  0  0  0  0  0  0  0
   56.3670   23.8030   47.0140 C   0  0  0  0  0  0  0  0  0  0  0  0
   57.0490   23.0110   47.7210 O   0  0  0  0  0  0  0  0  0  0  0  0
   54.9500   23.6090   46.8950 N   0  0  0  0  0  0  0  0  0  0  0  0
   54.3560   24.3550   46.4690 H   0  0  0  0  0  0  0  0  0  0  0  0
   54.2950   22.4200   47.4220 C   0  0  0  0  0  0  0  0  0  0  0  0
   54.3112   22.4494   48.5215 H   0  0  0  0  0  0  0  0  0  0  0  0
   53.2528   22.3896   47.0713 H   0  0  0  0  0  0  0  0  0  0  0  0
   54.8262   21.5229   47.0713 H   0  0  0  0  0  0  0  0  0  0  0  0
   56.3220   26.1280   46.1090 C   0  0  0  0  0  0  0  0  0  0  0  0
   55.2657   26.1923   46.4092 H   0  0  0  0  0  0  0  0  0  0  0  0
   56.3550   29.5340   43.2560 N   0  0  0  0  0  0  0  0  0  0  0  0
  1  2  1  0
  2  3  2  0
  3  4  1  0
  4  5  1  0
  5  6  1  0
  6  7  1  0
  6  8  1  0
  6  9  1  0
  9 10  1  0
  9 11  1  0
 11 12  1  0
 12 13  2  0
 13 14  1  0
 13 15  1  0
 15 16  1  0
 15 17  2  0
 17 18  1  0
 17 19  1  0
 19 20  1  0
 19 21  2  0
 21 22  1  0
  9 23  1  0
 23 24  1  0
 23 25  1  0
  4 26  2  0
 26 27  1  0
 27 28  2  0
 28 29  1  0
 29 30  2  0
 30 31  1  0
 30 32  1  0
 32 33  1  0
 32 34  2  0
 34 35  1  0
 34 36  1  0
 36 37  1  0
 37 38  2  0
 37 39  1  0
 39 40  1  0
 39 41  1  0
 41 42  1  0
 41 43  1  0
 41 44  1  0
 36 45  2  0
 45 46  1  0
 27 47  1  0
 47  2  1  0
 23  5  1  0
 45 29  1  0
 21 12  1  0
M  CHG  1  47  -1
M  END
>  <UniqueID>  (83) 
75

>  <SMILES>  (83) 
CNC(=O)c1cc(/N=c2\nc(N3CC(Oc4ccc(F)cc4)C3)nc[n-]2)ccc1F

>  <Energy>  (83) 
102.49103188504847

>  <Genealogy>  (83) 
CNC(=O)c1cc(N=c2nc(N3CC(Oc4ccc(F)cc4)C3)nc[n-]2)ccc1F (protonated)
CNC(=O)c1cc(/N=c2\nc(N3CC(Oc4ccc(F)cc4)C3)nc[n-]2)ccc1F (cis-trans isomerization)
CNC(=O)c1cc(/N=c2\nc(N3CC(Oc4ccc(F)cc4)C3)nc[n-]2)ccc1F (3D coordinates assigned)
CNC(=O)c1cc(/N=c2\nc(N3CC(Oc4ccc(F)cc4)C3)nc[n-]2)ccc1F (nonaromatic ring conformer: 102.49103188504847 kcal/mol)

>  <smiles>  (83) 
CNC(=O)c1cc(N=c2nc(N3CC(Oc4ccc(F)cc4)C3)nc[nH]2)ccc1F

>  <score_type>  (83) 
oracle

>  <origin>  (83) 
adg

>  <m_score__min__energy>  (83) 
-9.5

>  <m_primary>  (83) 
energy

$$$$
83:0
     RDKit          3D

 59 62  0  0  0  0  0  0  0  0999 V2000
   62.2610   30.9010   49.4300 C   0  0  0  0  0  0  0  0  0  0  0  0
   61.0900   30.1300   49.6690 O   0  0  0  0  0  0  0  0  0  0  0  0
   60.6700   29.0550   48.8690 C   0  0  0  0  0  0  0  0  0  0  0  0
   60.4410   27.7700   49.3980 C   0  0  0  0  0  0  0  0  0  0  0  0
   60.0150   26.7320   48.5680 C   0  0  0  0  0  0  0  0  0  0  0  0
   59.8150   26.9590   47.2070 C   0  0  0  0  0  0  0  0  0  0  0  0
   60.0470   28.2310   46.6550 C   0  0  0  0  0  0  0  0  0  0  0  0
   59.8730   28.4540   45.1710 C   0  0  0  0  0  0  0  0  0  0  0  0
   58.6720   29.3400   44.8970 C   0  0  0  0  0  0  0  0  0  0  0  0
   58.8960   30.6970   44.5990 C   0  0  0  0  0  0  0  0  0  0  0  0
   57.8390   31.5370   44.2140 C   0  0  0  0  0  0  0  0  0  0  0  0
   58.0420   32.9210   43.8930 N   0  0  0  0  0  0  0  0  0  0  0  0
   57.9580   34.2330   45.0220 S   0  0  0  0  0  0  0  0  0  0  0  0
   56.5260   34.6480   45.2120 O   0  0  0  0  0  0  0  0  0  0  0  0
   58.7530   35.4030   44.5140 O   0  0  0  0  0  0  0  0  0  0  0  0
   58.6310   33.6950   46.5560 C   0  0  0  0  0  0  0  0  0  0  0  0
   59.8500   34.2240   47.0080 C   0  0  0  0  0  0  0  0  0  0  0  0
   60.4040   33.7810   48.2140 C   0  0  0  0  0  0  0  0  0  0  0  0
   59.7450   32.8080   48.9720 C   0  0  0  0  0  0  0  0  0  0  0  0
   58.5330   32.2750   48.5230 C   0  0  0  0  0  0  0  0  0  0  0  0
   57.9780   32.7140   47.3170 C   0  0  0  0  0  0  0  0  0  0  0  0
   56.5490   31.0140   44.1220 C   0  0  0  0  0  0  0  0  0  0  0  0
   56.3060   29.6740   44.4220 C   0  0  0  0  0  0  0  0  0  0  0  0
   57.3500   28.8270   44.8210 C   0  0  0  0  0  0  0  0  0  0  0  0
   57.0190   27.4270   45.1500 C   0  0  0  0  0  0  0  0  0  0  0  0
   56.0970   27.1810   45.9720 O   0  0  0  0  0  0  0  0  0  0  0  0
   57.7620   26.3560   44.5430 N   0  0  0  0  0  0  0  0  0  0  0  0
   57.4970   24.9630   44.7750 C   0  0  0  0  0  0  0  0  0  0  0  0
   57.3030   24.1110   43.6800 C   0  0  0  0  0  0  0  0  0  0  0  0
   57.0410   22.7540   43.8770 C   0  0  0  0  0  0  0  0  0  0  0  0
   56.9640   22.2330   45.1700 C   0  0  0  0  0  0  0  0  0  0  0  0
   57.1250   23.0750   46.2840 C   0  0  0  0  0  0  0  0  0  0  0  0
   57.0180   22.5250   47.6530 C   0  0  0  0  0  0  0  0  0  0  0  0
   56.5920   23.2380   48.6000 O   0  0  0  0  0  0  0  0  0  0  0  0
   57.3880   21.2140   47.9140 O   0  0  0  0  0  0  0  0  0  0  0  0
   57.3820   24.4430   46.0790 C   0  0  0  0  0  0  0  0  0  0  0  0
   60.4760   29.2790   47.4980 C   0  0  0  0  0  0  0  0  0  0  0  0
   60.7080   30.5510   46.9800 O   0  0  0  0  0  0  0  0  0  0  0  0
   62.7084   31.1956   50.3907 H   0  0  0  0  0  0  0  0  0  0  0  0
   62.9840   30.3017   48.8572 H   0  0  0  0  0  0  0  0  0  0  0  0
   61.9962   31.8020   48.8572 H   0  0  0  0  0  0  0  0  0  0  0  0
   60.5987   27.5836   50.4706 H   0  0  0  0  0  0  0  0  0  0  0  0
   59.8365   25.7315   48.9890 H   0  0  0  0  0  0  0  0  0  0  0  0
   59.4733   26.1371   46.5606 H   0  0  0  0  0  0  0  0  0  0  0  0
   60.7765   28.9370   44.7704 H   0  0  0  0  0  0  0  0  0  0  0  0
   59.7118   27.4807   44.6845 H   0  0  0  0  0  0  0  0  0  0  0  0
   59.9148   31.1058   44.6688 H   0  0  0  0  0  0  0  0  0  0  0  0
   60.3709   34.9885   46.4128 H   0  0  0  0  0  0  0  0  0  0  0  0
   61.3588   34.1985   48.5662 H   0  0  0  0  0  0  0  0  0  0  0  0
   60.1801   32.4621   49.9212 H   0  0  0  0  0  0  0  0  0  0  0  0
   58.0153   31.5092   49.1193 H   0  0  0  0  0  0  0  0  0  0  0  0
   57.0268   32.2890   46.9640 H   0  0  0  0  0  0  0  0  0  0  0  0
   55.7175   31.6633   43.8106 H   0  0  0  0  0  0  0  0  0  0  0  0
   55.2832   29.2766   44.3447 H   0  0  0  0  0  0  0  0  0  0  0  0
   58.6420   26.6080   44.0380 H   0  0  0  0  0  0  0  0  0  0  0  0
   57.3575   24.5140   42.6579 H   0  0  0  0  0  0  0  0  0  0  0  0
   56.8947   22.0927   43.0102 H   0  0  0  0  0  0  0  0  0  0  0  0
   56.7766   21.1592   45.3176 H   0  0  0  0  0  0  0  0  0  0  0  0
   57.4941   25.1123   46.9447 H   0  0  0  0  0  0  0  0  0  0  0  0
  1  2  1  0
  2  3  1  0
  3  4  2  0
  4  5  1  0
  5  6  2  0
  6  7  1  0
  7  8  1  0
  8  9  1  0
  9 10  2  0
 10 11  1  0
 11 12  1  0
 12 13  1  0
 13 14  2  0
 13 15  2  0
 13 16  1  0
 16 17  2  0
 17 18  1  0
 18 19  2  0
 19 20  1  0
 20 21  2  0
 11 22  2  0
 22 23  1  0
 23 24  2  0
 24 25  1  0
 25 26  2  0
 25 27  1  0
 27 28  1  0
 28 29  2  0
 29 30  1  0
 30 31  2  0
 31 32  1  0
 32 33  1  0
 33 34  2  0
 33 35  1  0
 32 36  2  0
  7 37  2  0
 37 38  1  0
 37  3  1  0
 24  9  1  0
 36 28  1  0
 21 16  1  0
  1 39  1  0
  1 40  1  0
  1 41  1  0
  4 42  1  0
  5 43  1  0
  6 44  1  0
  8 45  1  0
  8 46  1  0
 10 47  1  0
 17 48  1  0
 18 49  1  0
 19 50  1  0
 20 51  1  0
 21 52  1  0
 22 53  1  0
 23 54  1  0
 27 55  1  0
 29 56  1  0
 30 57  1  0
 31 58  1  0
 36 59  1  0
M  CHG  3  12  -1  35  -1  38  -1
M  END
>  <UniqueID>  (84) 
76

>  <SMILES>  (84) 
COc1cccc(Cc2cc([N-]S(=O)(=O)c3ccccc3)ccc2C(=O)Nc2cccc(C(=O)[O-])c2)c1[O-]

>  <Energy>  (84) 
77.20378422733255

>  <Genealogy>  (84) 
COc1cccc(Cc2cc([N-]S(=O)(=O)c3ccccc3)ccc2C(=O)Nc2cccc(C(=O)[O-])c2)c1[O-] (protonated)
COc1cccc(Cc2cc([N-]S(=O)(=O)c3ccccc3)ccc2C(=O)Nc2cccc(C(=O)[O-])c2)c1[O-] (3D coordinates assigned)
COc1cccc(Cc2cc([N-]S(=O)(=O)c3ccccc3)ccc2C(=O)Nc2cccc(C(=O)[O-])c2)c1[O-] (optimized conformer: 77.20378422733255 kcal/mol)

>  <smiles>  (84) 
COc1cccc(Cc2cc(NS(=O)(=O)c3ccccc3)ccc2C(=O)Nc2cccc(C(=O)O)c2)c1O

>  <score_type>  (84) 
oracle

>  <origin>  (84) 
adg

>  <m_score__min__energy>  (84) 
-15.550000000000001

>  <m_primary>  (84) 
energy

$$$$
84:0
     RDKit          3D

 60 62  0  0  0  0  0  0  0  0999 V2000
   51.5600   22.9340   45.6110 C   0  0  0  0  0  0  0  0  0  0  0  0
   52.8750   22.4480   45.3630 O   0  0  0  0  0  0  0  0  0  0  0  0
   54.0480   23.0640   45.8220 C   0  0  0  0  0  0  0  0  0  0  0  0
   54.3650   24.4000   45.5170 C   0  0  0  0  0  0  0  0  0  0  0  0
   55.5480   24.9680   45.9930 C   0  0  0  0  0  0  0  0  0  0  0  0
   56.4330   24.2170   46.7810 C   0  0  0  0  0  0  0  0  0  0  0  0
   57.7230   24.8380   47.2560 C   0  0  0  0  0  0  0  0  0  0  0  0
   57.7440   26.2660   46.9390 N   0  0  0  0  0  0  0  0  0  0  0  0
   58.0340   26.7530   45.6180 C   0  0  0  0  0  0  0  0  0  0  0  0
   58.3070   25.9330   44.6980 O   0  0  0  0  0  0  0  0  0  0  0  0
   58.0430   28.2050   45.3180 C   0  0  0  0  0  0  0  0  0  0  0  0
   57.7460   28.6870   44.0310 C   0  0  0  0  0  0  0  0  0  0  0  0
   57.7620   30.0610   43.7690 C   0  0  0  0  0  0  0  0  0  0  0  0
   58.0800   30.9750   44.7780 C   0  0  0  0  0  0  0  0  0  0  0  0
   58.0880   32.3740   44.4600 N   0  0  0  0  0  0  0  0  0  0  0  0
   57.9500   33.6630   45.6130 S   0  0  0  0  0  0  0  0  0  0  0  0
   57.8690   34.9700   44.8770 O   0  0  0  0  0  0  0  0  0  0  0  0
   56.6930   33.4700   46.4130 O   0  0  0  0  0  0  0  0  0  0  0  0
   59.3570   33.6920   46.6720 C   0  0  0  0  0  0  0  0  0  0  0  0
   59.1910   33.6520   48.0600 C   0  0  0  0  0  0  0  0  0  0  0  0
   60.3040   33.6770   48.9030 C   0  0  0  0  0  0  0  0  0  0  0  0
   61.6020   33.7550   48.3690 C   0  0  0  0  0  0  0  0  0  0  0  0
   62.7600   33.7690   49.2210 N   0  0  0  0  0  0  0  0  0  0  0  0
   63.7230   32.7180   49.3660 C   0  0  0  0  0  0  0  0  0  0  0  0
   65.0940   33.0420   49.8580 C   0  0  0  0  0  0  0  0  0  0  0  0
   63.4000   31.5140   49.1800 O   0  0  0  0  0  0  0  0  0  0  0  0
   61.7740   33.7620   46.9690 C   0  0  0  0  0  0  0  0  0  0  0  0
   63.1510   33.8310   46.3680 C   0  0  0  0  0  0  0  0  0  0  0  0
   60.6460   33.7510   46.1310 C   0  0  0  0  0  0  0  0  0  0  0  0
   58.3880   30.4980   46.0640 C   0  0  0  0  0  0  0  0  0  0  0  0
   58.3760   29.1270   46.3270 C   0  0  0  0  0  0  0  0  0  0  0  0
   56.1270   22.8770   47.0910 C   0  0  0  0  0  0  0  0  0  0  0  0
   57.0300   22.1380   47.8740 O   0  0  0  0  0  0  0  0  0  0  0  0
   56.7610   20.8520   48.4220 C   0  0  0  0  0  0  0  0  0  0  0  0
   54.9300   22.3140   46.6070 C   0  0  0  0  0  0  0  0  0  0  0  0
   51.3908   22.9965   46.6961 H   0  0  0  0  0  0  0  0  0  0  0  0
   51.4480   23.9329   45.1643 H   0  0  0  0  0  0  0  0  0  0  0  0
   50.8252   22.2480   45.1643 H   0  0  0  0  0  0  0  0  0  0  0  0
   53.6783   24.9994   44.9012 H   0  0  0  0  0  0  0  0  0  0  0  0
   55.7883   26.0131   45.7482 H   0  0  0  0  0  0  0  0  0  0  0  0
   57.8103   24.7063   48.3446 H   0  0  0  0  0  0  0  0  0  0  0  0
   58.5660   24.3457   46.7490 H   0  0  0  0  0  0  0  0  0  0  0  0
   57.6130   26.9360   47.7270 H   0  0  0  0  0  0  0  0  0  0  0  0
   57.4996   27.9796   43.2255 H   0  0  0  0  0  0  0  0  0  0  0  0
   57.5221   30.4258   42.7594 H   0  0  0  0  0  0  0  0  0  0  0  0
   58.1796   33.6006   48.4895 H   0  0  0  0  0  0  0  0  0  0  0  0
   60.1640   33.6353   49.9933 H   0  0  0  0  0  0  0  0  0  0  0  0
   65.0981   33.0430   50.9580 H   0  0  0  0  0  0  0  0  0  0  0  0
   65.8038   32.2869   49.4893 H   0  0  0  0  0  0  0  0  0  0  0  0
   65.3907   34.0350   49.4893 H   0  0  0  0  0  0  0  0  0  0  0  0
   63.9006   33.8686   47.1722 H   0  0  0  0  0  0  0  0  0  0  0  0
   63.3247   32.9404   45.7461 H   0  0  0  0  0  0  0  0  0  0  0  0
   63.2348   34.7345   45.7461 H   0  0  0  0  0  0  0  0  0  0  0  0
   60.7776   33.7891   45.0396 H   0  0  0  0  0  0  0  0  0  0  0  0
   58.6394   31.2076   46.8660 H   0  0  0  0  0  0  0  0  0  0  0  0
   58.6296   28.7638   47.3339 H   0  0  0  0  0  0  0  0  0  0  0  0
   56.7735   20.9115   49.5203 H   0  0  0  0  0  0  0  0  0  0  0  0
   55.7717   20.5093   48.0846 H   0  0  0  0  0  0  0  0  0  0  0  0
   57.5300   20.1415   48.0846 H   0  0  0  0  0  0  0  0  0  0  0  0
   54.6853   21.2694   46.8498 H   0  0  0  0  0  0  0  0  0  0  0  0
  1  2  1  0
  2  3  1  0
  3  4  2  0
  4  5  1  0
  5  6  2  0
  6  7  1  0
  7  8  1  0
  8  9  1  0
  9 10  2  0
  9 11  1  0
 11 12  2  0
 12 13  1  0
 13 14  2  0
 14 15  1  0
 15 16  1  0
 16 17  2  0
 16 18  2  0
 16 19  1  0
 19 20  2  0
 20 21  1  0
 21 22  2  0
 22 23  1  0
 23 24  1  0
 24 25  1  0
 24 26  2  0
 22 27  1  0
 27 28  1  0
 27 29  2  0
 14 30  1  0
 30 31  2  0
  6 32  1  0
 32 33  1  0
 33 34  1  0
 32 35  2  0
 35  3  1  0
 31 11  1  0
 29 19  1  0
  1 36  1  0
  1 37  1  0
  1 38  1  0
  4 39  1  0
  5 40  1  0
  7 41  1  0
  7 42  1  0
  8 43  1  0
 12 44  1  0
 13 45  1  0
 20 46  1  0
 21 47  1  0
 25 48  1  0
 25 49  1  0
 25 50  1  0
 28 51  1  0
 28 52  1  0
 28 53  1  0
 29 54  1  0
 30 55  1  0
 31 56  1  0
 34 57  1  0
 34 58  1  0
 34 59  1  0
 35 60  1  0
M  CHG  2  15  -1  23  -1
M  END
>  <UniqueID>  (85) 
77

>  <SMILES>  (85) 
COc1ccc(CNC(=O)c2ccc([N-]S(=O)(=O)c3ccc([N-]C(C)=O)c(C)c3)cc2)c(OC)c1

>  <Energy>  (85) 
65.92038219741865

>  <Genealogy>  (85) 
COc1ccc(CNC(=O)c2ccc([N-]S(=O)(=O)c3ccc([N-]C(C)=O)c(C)c3)cc2)c(OC)c1 (protonated)
COc1ccc(CNC(=O)c2ccc([N-]S(=O)(=O)c3ccc([N-]C(C)=O)c(C)c3)cc2)c(OC)c1 (3D coordinates assigned)
COc1ccc(CNC(=O)c2ccc([N-]S(=O)(=O)c3ccc([N-]C(C)=O)c(C)c3)cc2)c(OC)c1 (optimized conformer: 65.92038219741865 kcal/mol)

>  <smiles>  (85) 
COc1ccc(CNC(=O)c2ccc(NS(=O)(=O)c3ccc(NC(C)=O)c(C)c3)cc2)c(OC)c1

>  <score_type>  (85) 
oracle

>  <origin>  (85) 
adg

>  <m_score__min__energy>  (85) 
-10.789999999999999

>  <m_primary>  (85) 
energy

$$$$
85:0
     RDKit          3D

 67 70  0  0  0  0  0  0  0  0999 V2000
   50.1960   34.2110   53.9090 C   0  0  0  0  0  0  0  0  0  0  0  0
   50.5760   32.8640   53.3180 C   0  0  0  0  0  0  0  0  0  0  0  0
   51.0040   33.0380   51.9710 O   0  0  0  0  0  0  0  0  0  0  0  0
   51.4150   31.9710   51.1660 C   0  0  0  0  0  0  0  0  0  0  0  0
   51.0350   31.9060   49.9630 O   0  0  0  0  0  0  0  0  0  0  0  0
   52.2930   30.9210   51.7250 C   0  0  0  0  0  0  0  0  0  0  0  0
   51.7500   29.7030   52.1620 C   0  0  0  0  0  0  0  0  0  0  0  0
   52.5740   28.7130   52.6990 C   0  0  0  0  0  0  0  0  0  0  0  0
   53.9630   28.9150   52.8030 C   0  0  0  0  0  0  0  0  0  0  0  0
   54.8130   27.9310   53.3350 O   0  0  0  0  0  0  0  0  0  0  0  0
   55.3060   27.9200   54.6700 C   0  0  0  0  0  0  0  0  0  0  0  0
   54.5160   30.1320   52.3610 C   0  0  0  0  0  0  0  0  0  0  0  0
   56.2580   30.4250   52.4220 S   0  0  0  0  0  0  0  0  0  0  0  0
   56.6360   30.9300   53.7850 O   0  0  0  0  0  0  0  0  0  0  0  0
   57.0210   29.1550   52.1710 O   0  0  0  0  0  0  0  0  0  0  0  0
   56.6860   31.6210   51.2460 N   0  0  0  0  0  0  0  0  0  0  0  0
   57.9020   32.3690   51.2980 C   0  0  0  0  0  0  0  0  0  0  0  0
   57.9960   33.3810   52.0420 O   0  0  0  0  0  0  0  0  0  0  0  0
   59.0420   31.9040   50.5680 N   0  0  0  0  0  0  0  0  0  0  0  0
   59.0820   31.0520   49.5780 C   0  0  0  0  0  0  0  0  0  0  0  0
   59.6650   29.8030   49.8260 C   0  0  0  0  0  0  0  0  0  0  0  0
   59.7580   28.8600   48.8050 C   0  0  0  0  0  0  0  0  0  0  0  0
   59.2830   29.1460   47.5680 N   0  0  0  0  0  0  0  0  0  0  0  0
   58.6820   30.3340   47.2850 C   0  0  0  0  0  0  0  0  0  0  0  0
   58.2260   30.6080   45.9890 O   0  0  0  0  0  0  0  0  0  0  0  0
   58.7190   29.9530   44.8240 C   0  0  0  0  0  0  0  0  0  0  0  0
   57.5540   29.6190   43.8840 C   0  0  0  0  0  0  0  0  0  0  0  0
   56.6840   30.7930   43.4620 C   0  0  0  0  0  0  0  0  0  0  0  0
   56.1690   29.7940   44.4890 C   0  0  0  0  0  0  0  0  0  0  0  0
   58.5230   31.3010   48.2960 C   0  0  0  0  0  0  0  0  0  0  0  0
   57.7940   32.4680   48.0370 O   0  0  0  0  0  0  0  0  0  0  0  0
   58.2950   33.5590   47.2630 C   0  0  0  0  0  0  0  0  0  0  0  0
   59.8290   33.4970   47.2140 C   0  0  0  0  0  0  0  0  0  0  0  0
   60.3930   34.3290   46.0430 C   0  0  0  0  0  0  0  0  0  0  0  0
   59.4350   35.2500   45.5560 O   0  0  0  0  0  0  0  0  0  0  0  0
   58.3700   34.5540   44.9280 C   0  0  0  0  0  0  0  0  0  0  0  0
   57.7170   33.4960   45.8470 C   0  0  0  0  0  0  0  0  0  0  0  0
   53.6790   31.1240   51.8240 C   0  0  0  0  0  0  0  0  0  0  0  0
   50.2138   34.1478   55.0070 H   0  0  0  0  0  0  0  0  0  0  0  0
   50.9139   34.9741   53.5739 H   0  0  0  0  0  0  0  0  0  0  0  0
   49.1851   34.4864   53.5739 H   0  0  0  0  0  0  0  0  0  0  0  0
   51.3929   32.4226   53.9078 H   0  0  0  0  0  0  0  0  0  0  0  0
   49.7030   32.1952   53.3408 H   0  0  0  0  0  0  0  0  0  0  0  0
   50.6672   29.5274   52.0807 H   0  0  0  0  0  0  0  0  0  0  0  0
   52.1338   27.7659   53.0442 H   0  0  0  0  0  0  0  0  0  0  0  0
   54.4604   27.9389   55.3733 H   0  0  0  0  0  0  0  0  0  0  0  0
   55.8993   27.0084   54.8343 H   0  0  0  0  0  0  0  0  0  0  0  0
   55.9394   28.8042   54.8343 H   0  0  0  0  0  0  0  0  0  0  0  0
   60.0501   29.5663   50.8288 H   0  0  0  0  0  0  0  0  0  0  0  0
   60.2181   27.8807   49.0030 H   0  0  0  0  0  0  0  0  0  0  0  0
   59.4285   30.6147   44.3056 H   0  0  0  0  0  0  0  0  0  0  0  0
   59.2271   29.0226   45.1178 H   0  0  0  0  0  0  0  0  0  0  0  0
   58.0805   28.8143   43.3500 H   0  0  0  0  0  0  0  0  0  0  0  0
   56.9495   31.8141   43.7731 H   0  0  0  0  0  0  0  0  0  0  0  0
   56.3145   31.1817   42.5016 H   0  0  0  0  0  0  0  0  0  0  0  0
   56.0625   30.0932   45.5422 H   0  0  0  0  0  0  0  0  0  0  0  0
   55.2733   29.1617   44.5783 H   0  0  0  0  0  0  0  0  0  0  0  0
   57.9915   34.5080   47.7290 H   0  0  0  0  0  0  0  0  0  0  0  0
   60.2327   33.8903   48.1586 H   0  0  0  0  0  0  0  0  0  0  0  0
   60.1269   32.4484   47.0665 H   0  0  0  0  0  0  0  0  0  0  0  0
   61.2775   34.8828   46.3907 H   0  0  0  0  0  0  0  0  0  0  0  0
   60.6592   33.6418   45.2264 H   0  0  0  0  0  0  0  0  0  0  0  0
   57.6016   35.2828   44.6308 H   0  0  0  0  0  0  0  0  0  0  0  0
   58.7890   34.0235   44.0602 H   0  0  0  0  0  0  0  0  0  0  0  0
   56.6336   33.6808   45.8933 H   0  0  0  0  0  0  0  0  0  0  0  0
   57.9234   32.4988   45.4310 H   0  0  0  0  0  0  0  0  0  0  0  0
   54.1149   32.0723   51.4765 H   0  0  0  0  0  0  0  0  0  0  0  0
  1  2  1  0
  2  3  1  0
  3  4  1  0
  4  5  2  0
  4  6  1  0
  6  7  2  0
  7  8  1  0
  8  9  2  0
  9 10  1  0
 10 11  1  0
  9 12  1  0
 12 13  1  0
 13 14  2  0
 13 15  2  0
 13 16  1  0
 16 17  1  0
 17 18  2  0
 17 19  1  0
 19 20  2  3
 20 21  1  0
 21 22  2  0
 22 23  1  0
 23 24  1  0
 24 25  1  0
 25 26  1  0
 26 27  1  0
 27 28  1  0
 28 29  1  0
 24 30  2  0
 30 31  1  0
 31 32  1  0
 32 33  1  0
 33 34  1  0
 34 35  1  0
 35 36  1  0
 36 37  1  0
 12 38  2  0
 38  6  1  0
 30 20  1  0
 37 32  1  0
 29 27  1  0
  1 39  1  0
  1 40  1  0
  1 41  1  0
  2 42  1  0
  2 43  1  0
  7 44  1  0
  8 45  1  0
 11 46  1  0
 11 47  1  0
 11 48  1  0
 21 49  1  0
 22 50  1  0
 26 51  1  0
 26 52  1  0
 27 53  1  0
 28 54  1  0
 28 55  1  0
 29 56  1  0
 29 57  1  0
 32 58  1  0
 33 59  1  0
 33 60  1  0
 34 61  1  0
 34 62  1  0
 36 63  1  0
 36 64  1  0
 37 65  1  0
 37 66  1  0
 38 67  1  0
M  CHG  2  16  -1  23  -1
M  END
>  <UniqueID>  (86) 
78

>  <SMILES>  (86) 
CCOC(=O)c1ccc(OC)c(S(=O)(=O)[N-]C(=O)N=c2cc[n-]c(OCC3CC3)c2OC2CCOCC2)c1

>  <Energy>  (86) 
350.2038956549479

>  <Genealogy>  (86) 
CCOC(=O)c1ccc(OC)c(S(=O)(=O)[N-]C(=O)N=c2cc[n-]c(OCC3CC3)c2OC2CCOCC2)c1 (protonated)
CCOC(=O)c1ccc(OC)c(S(=O)(=O)[N-]C(=O)N=c2cc[n-]c(OCC3CC3)c2OC2CCOCC2)c1 (3D coordinates assigned)
CCOC(=O)c1ccc(OC)c(S(=O)(=O)[N-]C(=O)N=c2cc[n-]c(OCC3CC3)c2OC2CCOCC2)c1 (nonaromatic ring conformer: 350.2038956549479 kcal/mol)

>  <smiles>  (86) 
CCOC(=O)c1ccc(OC)c(S(=O)(=O)NC(=O)N=c2cc[nH]c(OCC3CC3)c2OC2CCOCC2)c1

>  <score_type>  (86) 
oracle

>  <origin>  (86) 
adg

>  <m_score__min__energy>  (86) 
-11.49

>  <m_primary>  (86) 
energy

$$$$
86:0
     RDKit          3D

 46 47  0  0  0  0  0  0  0  0999 V2000
   58.4940   27.3550   47.4930 C   0  0  0  0  0  0  0  0  0  0  0  0
   58.2610   28.0090   46.1220 C   0  0  0  0  0  0  0  0  0  0  0  0
   59.5360   27.9080   45.2690 C   0  0  0  0  0  0  0  0  0  0  0  0
   57.0150   27.3960   45.4290 C   0  0  1  0  0  0  0  0  0  0  0  0
   56.4430   26.2080   46.2110 C   0  0  0  0  0  0  0  0  0  0  0  0
   55.9820   28.4160   45.2500 N   0  0  0  0  0  0  0  0  0  0  0  0
   56.1050   29.6320   44.4980 C   0  0  0  0  0  0  0  0  0  0  0  0
   55.1510   30.4580   44.5220 O   0  0  0  0  0  0  0  0  0  0  0  0
   57.3590   30.0000   43.7570 C   0  0  0  0  0  0  0  0  0  0  0  0
   57.9770   31.2190   44.3690 C   0  0  0  0  0  0  0  0  0  0  0  0
   57.8550   32.5190   43.8880 C   0  0  0  0  0  0  0  0  0  0  0  0
   58.4890   33.4700   44.6970 C   0  0  0  0  0  0  0  0  0  0  0  0
   59.1020   32.9120   45.8110 C   0  0  0  0  0  0  0  0  0  0  0  0
   59.9670   33.7960   47.0580 S   0  0  0  0  0  0  0  0  0  0  0  0
   60.8790   34.7950   46.4020 O   0  0  0  0  0  0  0  0  0  0  0  0
   58.9670   34.5550   47.8820 O   0  0  0  0  0  0  0  0  0  0  0  0
   60.8960   32.7450   48.1090 N   0  0  0  0  0  0  0  0  0  0  0  0
   61.7780   31.8270   47.3590 C   0  0  0  0  0  0  0  0  0  0  0  0
   63.2500   32.2740   47.3700 C   0  0  0  0  0  0  0  0  0  0  0  0
   63.3350   33.6780   47.4050 O   0  0  0  0  0  0  0  0  0  0  0  0
   62.9000   34.1610   48.6610 C   0  0  0  0  0  0  0  0  0  0  0  0
   61.6030   33.4890   49.1670 C   0  0  0  0  0  0  0  0  0  0  0  0
   58.8490   31.2490   45.8080 S   0  0  0  0  0  0  0  0  0  0  0  0
   58.2391   28.0705   48.2886 H   0  0  0  0  0  0  0  0  0  0  0  0
   57.8588   26.4618   47.5859 H   0  0  0  0  0  0  0  0  0  0  0  0
   59.5509   27.0646   47.5859 H   0  0  0  0  0  0  0  0  0  0  0  0
   58.0458   29.0796   46.2540 H   0  0  0  0  0  0  0  0  0  0  0  0
   60.4137   27.8385   45.9284 H   0  0  0  0  0  0  0  0  0  0  0  0
   59.4824   27.0113   44.6342 H   0  0  0  0  0  0  0  0  0  0  0  0
   59.6242   28.8020   44.6342 H   0  0  0  0  0  0  0  0  0  0  0  0
   57.3405   27.0224   44.4469 H   0  0  0  0  0  0  0  0  0  0  0  0
   56.5357   26.4005   47.2900 H   0  0  0  0  0  0  0  0  0  0  0  0
   55.3822   26.0751   45.9520 H   0  0  0  0  0  0  0  0  0  0  0  0
   57.0007   25.2959   45.9520 H   0  0  0  0  0  0  0  0  0  0  0  0
   58.0722   29.1642   43.8104 H   0  0  0  0  0  0  0  0  0  0  0  0
   57.1089   30.2107   42.7067 H   0  0  0  0  0  0  0  0  0  0  0  0
   57.3145   32.7741   42.9645 H   0  0  0  0  0  0  0  0  0  0  0  0
   58.5003   34.5470   44.4733 H   0  0  0  0  0  0  0  0  0  0  0  0
   61.7109   30.8267   47.8117 H   0  0  0  0  0  0  0  0  0  0  0  0
   61.4402   31.8241   46.3122 H   0  0  0  0  0  0  0  0  0  0  0  0
   63.7486   31.8583   48.2580 H   0  0  0  0  0  0  0  0  0  0  0  0
   63.7410   31.9090   46.4558 H   0  0  0  0  0  0  0  0  0  0  0  0
   63.6961   33.9795   49.3981 H   0  0  0  0  0  0  0  0  0  0  0  0
   62.6812   35.2318   48.5367 H   0  0  0  0  0  0  0  0  0  0  0  0
   61.8617   32.7897   49.9758 H   0  0  0  0  0  0  0  0  0  0  0  0
   60.9312   34.2865   49.5171 H   0  0  0  0  0  0  0  0  0  0  0  0
  1  2  1  0
  2  3  1  0
  2  4  1  0
  4  5  1  0
  4  6  1  0
  6  7  1  0
  7  8  2  0
  7  9  1  0
  9 10  1  0
 10 11  2  0
 11 12  1  0
 12 13  2  0
 13 14  1  0
 14 15  2  0
 14 16  2  0
 14 17  1  0
 17 18  1  0
 18 19  1  0
 19 20  1  0
 20 21  1  0
 21 22  1  0
 13 23  1  0
 23 10  1  0
 22 17  1  0
  1 24  1  0
  1 25  1  0
  1 26  1  0
  2 27  1  0
  3 28  1  0
  3 29  1  0
  3 30  1  0
  4 31  1  6
  5 32  1  0
  5 33  1  0
  5 34  1  0
  9 35  1  0
  9 36  1  0
 11 37  1  0
 12 38  1  0
 18 39  1  0
 18 40  1  0
 19 41  1  0
 19 42  1  0
 21 43  1  0
 21 44  1  0
 22 45  1  0
 22 46  1  0
M  CHG  1   6  -1
M  END
>  <UniqueID>  (87) 
79

>  <SMILES>  (87) 
CC(C)[C@@H](C)[N-]C(=O)Cc1ccc(S(=O)(=O)N2CCOCC2)s1

>  <Energy>  (87) 
71.43142640286312

>  <Genealogy>  (87) 
CC(C)C(C)[N-]C(=O)Cc1ccc(S(=O)(=O)N2CCOCC2)s1 (protonated)
CC(C)[C@@H](C)[N-]C(=O)Cc1ccc(S(=O)(=O)N2CCOCC2)s1 (chirality)
CC(C)[C@@H](C)[N-]C(=O)Cc1ccc(S(=O)(=O)N2CCOCC2)s1 (3D coordinates assigned)
CC(C)[C@@H](C)[N-]C(=O)Cc1ccc(S(=O)(=O)N2CCOCC2)s1 (nonaromatic ring conformer: 71.43142640286312 kcal/mol)

>  <smiles>  (87) 
CC(C)C(C)NC(=O)Cc1ccc(S(=O)(=O)N2CCOCC2)s1

>  <score_type>  (87) 
oracle

>  <origin>  (87) 
adg

>  <m_score__min__energy>  (87) 
-9.9199999999999999

>  <m_primary>  (87) 
energy

$$$$
87:0
     RDKit          3D

 43 45  0  0  0  0  0  0  0  0999 V2000
   58.0890   26.5980   46.0470 O   0  0  0  0  0  0  0  0  0  0  0  0
   56.9070   26.6140   45.6060 C   0  0  0  0  0  0  0  0  0  0  0  0
   56.2400   27.8680   45.3870 N   0  0  0  0  0  0  0  0  0  0  0  0
   56.9250   29.1250   45.2490 C   0  0  0  0  0  0  0  0  0  0  0  0
   57.8220   29.5340   46.2470 C   0  0  0  0  0  0  0  0  0  0  0  0
   58.4890   30.7570   46.1450 C   0  0  0  0  0  0  0  0  0  0  0  0
   58.2580   31.6020   45.0430 C   0  0  0  0  0  0  0  0  0  0  0  0
   58.9260   32.8620   44.8910 N   0  0  0  0  0  0  0  0  0  0  0  0
   58.6790   34.2620   45.8830 S   0  0  0  0  0  0  0  0  0  0  0  0
   57.2090   34.5660   45.9780 O   0  0  0  0  0  0  0  0  0  0  0  0
   59.3730   35.4330   45.2460 O   0  0  0  0  0  0  0  0  0  0  0  0
   59.3770   33.9860   47.5040 C   0  0  0  0  0  0  0  0  0  0  0  0
   60.7800   33.4610   47.3880 C   0  0  0  0  0  0  0  0  0  0  0  0
   61.1500   32.2780   48.0470 C   0  0  0  0  0  0  0  0  0  0  0  0
   62.4650   31.8080   47.9690 C   0  0  0  0  0  0  0  0  0  0  0  0
   63.4200   32.5200   47.2390 C   0  0  0  0  0  0  0  0  0  0  0  0
   63.0630   33.7040   46.5880 C   0  0  0  0  0  0  0  0  0  0  0  0
   61.7490   34.1770   46.6650 C   0  0  0  0  0  0  0  0  0  0  0  0
   57.3400   31.2080   44.0630 C   0  0  0  0  0  0  0  0  0  0  0  0
   56.6720   29.9830   44.1640 C   0  0  0  0  0  0  0  0  0  0  0  0
   56.1950   25.3320   45.3970 C   0  0  0  0  0  0  0  0  0  0  0  0
   56.9130   24.2040   44.9560 C   0  0  0  0  0  0  0  0  0  0  0  0
   56.2660   22.9820   44.7610 C   0  0  0  0  0  0  0  0  0  0  0  0
   54.8930   22.8710   44.9940 C   0  0  0  0  0  0  0  0  0  0  0  0
   54.1640   23.9850   45.4140 C   0  0  0  0  0  0  0  0  0  0  0  0
   54.8020   25.2150   45.6090 C   0  0  0  0  0  0  0  0  0  0  0  0
   54.0410   26.3160   45.9870 O   0  0  0  0  0  0  0  0  0  0  0  0
   55.1960   27.8810   45.4390 H   0  0  0  0  0  0  0  0  0  0  0  0
   58.0017   28.8859   47.1175 H   0  0  0  0  0  0  0  0  0  0  0  0
   59.1979   31.0612   46.9292 H   0  0  0  0  0  0  0  0  0  0  0  0
   59.3901   34.9354   48.0594 H   0  0  0  0  0  0  0  0  0  0  0  0
   58.7618   33.2453   48.0358 H   0  0  0  0  0  0  0  0  0  0  0  0
   60.4021   31.7180   48.6275 H   0  0  0  0  0  0  0  0  0  0  0  0
   62.7475   30.8772   48.4827 H   0  0  0  0  0  0  0  0  0  0  0  0
   64.4535   32.1485   47.1766 H   0  0  0  0  0  0  0  0  0  0  0  0
   63.8161   34.2644   46.0146 H   0  0  0  0  0  0  0  0  0  0  0  0
   61.4731   35.1132   46.1576 H   0  0  0  0  0  0  0  0  0  0  0  0
   57.1418   31.8676   43.2053 H   0  0  0  0  0  0  0  0  0  0  0  0
   55.9459   29.6897   43.3915 H   0  0  0  0  0  0  0  0  0  0  0  0
   57.9929   24.2861   44.7634 H   0  0  0  0  0  0  0  0  0  0  0  0
   56.8383   22.1054   44.4234 H   0  0  0  0  0  0  0  0  0  0  0  0
   54.3864   21.9058   44.8465 H   0  0  0  0  0  0  0  0  0  0  0  0
   53.0823   23.8954   45.5926 H   0  0  0  0  0  0  0  0  0  0  0  0
  1  2  2  0
  2  3  1  0
  3  4  1  0
  4  5  2  0
  5  6  1  0
  6  7  2  0
  7  8  1  0
  8  9  1  0
  9 10  2  0
  9 11  2  0
  9 12  1  0
 12 13  1  0
 13 14  2  0
 14 15  1  0
 15 16  2  0
 16 17  1  0
 17 18  2  0
  7 19  1  0
 19 20  2  0
  2 21  1  0
 21 22  2  0
 22 23  1  0
 23 24  2  0
 24 25  1  0
 25 26  2  0
 26 27  1  0
 20  4  1  0
 26 21  1  0
 18 13  1  0
  3 28  1  0
  5 29  1  0
  6 30  1  0
 12 31  1  0
 12 32  1  0
 14 33  1  0
 15 34  1  0
 16 35  1  0
 17 36  1  0
 18 37  1  0
 19 38  1  0
 20 39  1  0
 22 40  1  0
 23 41  1  0
 24 42  1  0
 25 43  1  0
M  CHG  2   8  -1  27  -1
M  END
>  <UniqueID>  (88) 
80

>  <SMILES>  (88) 
O=C(Nc1ccc([N-]S(=O)(=O)Cc2ccccc2)cc1)c1ccccc1[O-]

>  <Energy>  (88) 
51.716240770470755

>  <Genealogy>  (88) 
O=C(Nc1ccc([N-]S(=O)(=O)Cc2ccccc2)cc1)c1ccccc1[O-] (protonated)
O=C(Nc1ccc([N-]S(=O)(=O)Cc2ccccc2)cc1)c1ccccc1[O-] (3D coordinates assigned)
O=C(Nc1ccc([N-]S(=O)(=O)Cc2ccccc2)cc1)c1ccccc1[O-] (optimized conformer: 51.716240770470755 kcal/mol)

>  <smiles>  (88) 
O=C(Nc1ccc(NS(=O)(=O)Cc2ccccc2)cc1)c1ccccc1O

>  <score_type>  (88) 
oracle

>  <origin>  (88) 
adg

>  <m_score__min__energy>  (88) 
-14.039999999999999

>  <m_primary>  (88) 
energy

$$$$
88:0
     RDKit          3D

 49 51  0  0  0  0  0  0  0  0999 V2000
   56.8320   32.2360   52.6880 O   0  0  0  0  0  0  0  0  0  0  0  0
   57.1040   31.2130   52.0040 C   0  0  0  0  0  0  0  0  0  0  0  0
   58.5120   31.0150   51.5170 C   0  0  0  0  0  0  0  0  0  0  0  0
   58.7730   31.7670   50.2690 N   0  0  0  0  0  0  0  0  0  0  0  0
   58.7030   31.1350   49.0420 C   0  0  0  0  0  0  0  0  0  0  0  0
   58.3160   29.7940   48.9250 O   0  0  0  0  0  0  0  0  0  0  0  0
   59.0130   31.8420   47.8630 C   0  0  0  0  0  0  0  0  0  0  0  0
   59.0100   31.2090   46.5770 N   0  0  0  0  0  0  0  0  0  0  0  0
   57.8720   30.5750   45.9860 C   0  0  0  0  0  0  0  0  0  0  0  0
   57.1400   31.2330   45.2000 O   0  0  0  0  0  0  0  0  0  0  0  0
   57.5930   29.1930   46.2480 N   0  0  0  0  0  0  0  0  0  0  0  0
   57.0780   28.2680   45.2470 C   0  0  0  0  0  0  0  0  0  0  0  0
   57.2020   26.8500   45.7390 C   0  0  0  0  0  0  0  0  0  0  0  0
   58.4700   26.2580   45.8730 C   0  0  0  0  0  0  0  0  0  0  0  0
   58.5910   24.9500   46.3510 C   0  0  0  0  0  0  0  0  0  0  0  0
   57.4510   24.2240   46.7040 C   0  0  0  0  0  0  0  0  0  0  0  0
   56.1860   24.8060   46.5810 C   0  0  0  0  0  0  0  0  0  0  0  0
   56.0570   26.1150   46.1050 C   0  0  0  0  0  0  0  0  0  0  0  0
   54.7890   26.6800   45.9990 O   0  0  0  0  0  0  0  0  0  0  0  0
   59.3070   33.1990   47.9390 C   0  0  0  0  0  0  0  0  0  0  0  0
   59.3630   33.8300   49.1730 C   0  0  0  0  0  0  0  0  0  0  0  0
   59.1080   33.1010   50.3360 C   0  0  0  0  0  0  0  0  0  0  0  0
   59.1850   33.6970   51.4440 O   0  0  0  0  0  0  0  0  0  0  0  0
   56.0750   30.2720   51.6750 N   0  0  0  0  0  0  0  0  0  0  0  0
   54.7340   30.2880   52.2490 C   0  0  0  0  0  0  0  0  0  0  0  0
   53.8030   31.2120   51.4620 C   0  0  0  0  0  0  0  0  0  0  0  0
   52.4000   30.8740   51.6970 N   0  0  0  0  0  0  0  0  0  0  0  0
   51.5500   31.6300   52.3260 C   0  0  0  0  0  0  0  0  0  0  0  0
   51.0170   32.7300   51.7610 N   0  0  0  0  0  0  0  0  0  0  0  0
   50.2040   33.2120   52.7170 C   0  0  0  0  0  0  0  0  0  0  0  0
   50.2650   32.3950   53.8220 C   0  0  0  0  0  0  0  0  0  0  0  0
   51.1210   31.3870   53.5840 N   0  0  0  0  0  0  0  0  0  0  0  0
   59.2095   31.3614   52.2939 H   0  0  0  0  0  0  0  0  0  0  0  0
   58.6538   29.9446   51.3071 H   0  0  0  0  0  0  0  0  0  0  0  0
   58.1520   29.3210   48.0480 H   0  0  0  0  0  0  0  0  0  0  0  0
   56.0191   28.4944   45.0532 H   0  0  0  0  0  0  0  0  0  0  0  0
   57.6606   28.3795   44.3207 H   0  0  0  0  0  0  0  0  0  0  0  0
   59.3712   26.8268   45.6004 H   0  0  0  0  0  0  0  0  0  0  0  0
   59.5860   24.4914   46.4494 H   0  0  0  0  0  0  0  0  0  0  0  0
   57.5487   23.1944   47.0787 H   0  0  0  0  0  0  0  0  0  0  0  0
   55.2893   24.2329   46.8594 H   0  0  0  0  0  0  0  0  0  0  0  0
   59.4954   33.7727   47.0195 H   0  0  0  0  0  0  0  0  0  0  0  0
   59.6074   34.9007   49.2350 H   0  0  0  0  0  0  0  0  0  0  0  0
   54.3245   29.2672   52.2312 H   0  0  0  0  0  0  0  0  0  0  0  0
   54.8028   30.6620   53.2812 H   0  0  0  0  0  0  0  0  0  0  0  0
   53.9792   32.2513   51.7764 H   0  0  0  0  0  0  0  0  0  0  0  0
   54.0158   31.0897   50.3897 H   0  0  0  0  0  0  0  0  0  0  0  0
   49.5865   34.1181   52.6293 H   0  0  0  0  0  0  0  0  0  0  0  0
   49.7011   32.5437   54.7547 H   0  0  0  0  0  0  0  0  0  0  0  0
  1  2  2  0
  2  3  1  0
  3  4  1  0
  4  5  1  0
  5  6  1  0
  5  7  2  0
  7  8  1  0
  8  9  1  0
  9 10  2  0
  9 11  1  0
 11 12  1  0
 12 13  1  0
 13 14  2  0
 14 15  1  0
 15 16  2  0
 16 17  1  0
 17 18  2  0
 18 19  1  0
  7 20  1  0
 20 21  2  0
 21 22  1  0
 22 23  2  0
  2 24  1  0
 24 25  1  0
 25 26  1  0
 26 27  1  0
 27 28  2  3
 28 29  1  0
 29 30  1  0
 30 31  2  0
 31 32  1  0
 22  4  1  0
 32 28  1  0
 18 13  1  0
  3 33  1  0
  3 34  1  0
  6 35  1  0
 12 36  1  0
 12 37  1  0
 14 38  1  0
 15 39  1  0
 16 40  1  0
 17 41  1  0
 20 42  1  0
 21 43  1  0
 25 44  1  0
 25 45  1  0
 26 46  1  0
 26 47  1  0
 30 48  1  0
 31 49  1  0
M  CHG  6   8  -1  11  -1  19  -1  24  -1  29  -1  32  -1
M  END
>  <UniqueID>  (89) 
81

>  <SMILES>  (89) 
O=C(Cn1c(O)c([N-]C(=O)[N-]Cc2ccccc2[O-])ccc1=O)[N-]CCN=c1[n-]cc[n-]1

>  <Energy>  (89) 
82.84528830660572

>  <Genealogy>  (89) 
O=C(Cn1c(O)c([N-]C(=O)[N-]Cc2ccccc2[O-])ccc1=O)[N-]CCN=c1[n-]cc[n-]1 (protonated)
O=C(Cn1c(O)c([N-]C(=O)[N-]Cc2ccccc2[O-])ccc1=O)[N-]CCN=c1[n-]cc[n-]1 (3D coordinates assigned)
O=C(Cn1c(O)c([N-]C(=O)[N-]Cc2ccccc2[O-])ccc1=O)[N-]CCN=c1[n-]cc[n-]1 (optimized conformer: 82.84528830660572 kcal/mol)

>  <smiles>  (89) 
O=C(Cn1c(O)c(NC(=O)NCc2ccccc2O)ccc1=O)NCCN=c1[nH]cc[nH]1

>  <score_type>  (89) 
oracle

>  <origin>  (89) 
adg

>  <m_score__min__energy>  (89) 
-17.940000000000001

>  <m_primary>  (89) 
energy

$$$$
89:0
     RDKit          3D

 56 58  0  0  0  0  0  0  0  0999 V2000
   57.5310   29.2900   52.6890 C   0  0  0  0  0  0  0  0  0  0  0  0
   58.2190   30.3660   51.8920 C   0  0  0  0  0  0  0  0  0  0  0  0
   57.4470   31.3430   51.2420 C   0  0  0  0  0  0  0  0  0  0  0  0
   58.0570   32.3450   50.4870 C   0  0  0  0  0  0  0  0  0  0  0  0
   59.4580   32.4020   50.3850 C   0  0  0  0  0  0  0  0  0  0  0  0
   60.1270   33.3850   49.6360 O   0  0  0  0  0  0  0  0  0  0  0  0
   61.5290   33.4180   49.3720 C   0  0  0  0  0  0  0  0  0  0  0  0
   61.8530   32.8340   47.9900 C   0  0  0  0  0  0  0  0  0  0  0  0
   60.6440   32.2780   47.3580 N   0  0  0  0  0  0  0  0  0  0  0  0
   60.1510   31.0060   47.4260 C   0  0  0  0  0  0  0  0  0  0  0  0
   60.7230   29.9110   48.2510 C   0  0  0  0  0  0  0  0  0  0  0  0
   61.8170   30.0720   48.8510 O   0  0  0  0  0  0  0  0  0  0  0  0
   60.0690   28.6970   48.3860 O   0  0  0  0  0  0  0  0  0  0  0  0
   58.9840   30.8990   46.6480 C   0  0  0  0  0  0  0  0  0  0  0  0
   58.1910   29.6550   46.3090 C   0  0  0  0  0  0  0  0  0  0  0  0
   57.6780   29.6440   44.8510 C   0  0  1  0  0  0  0  0  0  0  0  0
   58.1960   28.4830   44.1220 N   0  0  0  0  0  0  0  0  0  0  0  0
   56.1730   29.6680   44.7980 C   0  0  0  0  0  0  0  0  0  0  0  0
   55.5180   28.6050   44.9660 O   0  0  0  0  0  0  0  0  0  0  0  0
   55.4970   30.8490   44.5240 O   0  0  0  0  0  0  0  0  0  0  0  0
   58.7760   32.1600   46.1160 C   0  0  0  0  0  0  0  0  0  0  0  0
   57.7670   32.6410   45.2770 C   0  0  0  0  0  0  0  0  0  0  0  0
   57.8080   33.9940   44.9030 C   0  0  0  0  0  0  0  0  0  0  0  0
   58.8430   34.8320   45.3690 C   0  0  0  0  0  0  0  0  0  0  0  0
   59.8460   34.3230   46.2120 C   0  0  0  0  0  0  0  0  0  0  0  0
   59.7890   32.9680   46.5670 C   0  0  0  0  0  0  0  0  0  0  0  0
   60.2300   31.4360   51.0380 C   0  0  0  0  0  0  0  0  0  0  0  0
   59.6280   30.3990   51.7740 C   0  0  0  0  0  0  0  0  0  0  0  0
   60.4440   29.4090   52.4270 N   0  0  0  0  0  0  0  0  0  0  0  0
   61.3790   28.5570   51.7470 C   0  0  0  0  0  0  0  0  0  0  0  0
   62.5010   28.0410   52.4680 N   0  0  0  0  0  0  0  0  0  0  0  0
   61.1740   28.1850   50.5200 N   0  0  0  0  0  0  0  0  0  0  0  0
   57.6592   29.4905   53.7629 H   0  0  0  0  0  0  0  0  0  0  0  0
   56.4589   29.2805   52.4432 H   0  0  0  0  0  0  0  0  0  0  0  0
   57.9722   28.3128   52.4432 H   0  0  0  0  0  0  0  0  0  0  0  0
   56.3507   31.3178   51.3292 H   0  0  0  0  0  0  0  0  0  0  0  0
   57.4392   33.0936   49.9693 H   0  0  0  0  0  0  0  0  0  0  0  0
   61.8758   34.4612   49.4099 H   0  0  0  0  0  0  0  0  0  0  0  0
   62.0388   32.8091   50.1331 H   0  0  0  0  0  0  0  0  0  0  0  0
   62.2609   33.6297   47.3493 H   0  0  0  0  0  0  0  0  0  0  0  0
   62.5886   32.0255   48.1136 H   0  0  0  0  0  0  0  0  0  0  0  0
   58.8354   28.7765   46.4604 H   0  0  0  0  0  0  0  0  0  0  0  0
   57.3102   29.6368   46.9677 H   0  0  0  0  0  0  0  0  0  0  0  0
   58.0506   30.5570   44.3636 H   0  0  0  0  0  0  0  0  0  0  0  0
   58.5010   28.8050   43.1730 H   0  0  0  0  0  0  0  0  0  0  0  0
   57.4040   27.8170   43.9530 H   0  0  0  0  0  0  0  0  0  0  0  0
   56.9642   31.9791   44.9200 H   0  0  0  0  0  0  0  0  0  0  0  0
   57.0287   34.4028   44.2430 H   0  0  0  0  0  0  0  0  0  0  0  0
   58.8651   35.8905   45.0707 H   0  0  0  0  0  0  0  0  0  0  0  0
   60.6540   34.9705   46.5832 H   0  0  0  0  0  0  0  0  0  0  0  0
   61.3270   31.4878   50.9751 H   0  0  0  0  0  0  0  0  0  0  0  0
   60.3490   29.2800   53.4600 H   0  0  0  0  0  0  0  0  0  0  0  0
   63.1680   27.3690   52.0200 H   0  0  0  0  0  0  0  0  0  0  0  0
   62.6690   28.3310   53.4560 H   0  0  0  0  0  0  0  0  0  0  0  0
   61.7770   28.5250   49.7390 H   0  0  0  0  0  0  0  0  0  0  0  0
   60.3670   27.5690   50.2790 H   0  0  0  0  0  0  0  0  0  0  0  0
  1  2  1  0
  2  3  2  0
  3  4  1  0
  4  5  2  0
  5  6  1  0
  6  7  1  0
  7  8  1  0
  8  9  1  0
  9 10  1  0
 10 11  1  0
 11 12  2  0
 11 13  1  0
 10 14  2  0
 14 15  1  0
 15 16  1  0
 16 17  1  0
 16 18  1  0
 18 19  2  0
 18 20  1  0
 14 21  1  0
 21 22  2  0
 22 23  1  0
 23 24  2  0
 24 25  1  0
 25 26  2  0
  5 27  1  0
 27 28  2  0
 28 29  1  0
 29 30  1  0
 30 31  1  0
 30 32  2  0
 28  2  1  0
 26  9  1  0
 26 21  1  0
  1 33  1  0
  1 34  1  0
  1 35  1  0
  3 36  1  0
  4 37  1  0
  7 38  1  0
  7 39  1  0
  8 40  1  0
  8 41  1  0
 15 42  1  0
 15 43  1  0
 16 44  1  6
 17 45  1  0
 17 46  1  0
 22 47  1  0
 23 48  1  0
 24 49  1  0
 25 50  1  0
 27 51  1  0
 29 52  1  0
 31 53  1  0
 31 54  1  0
 32 55  1  0
 32 56  1  0
M  CHG  3  13  -1  20  -1  32   1
M  END
>  <UniqueID>  (90) 
82

>  <SMILES>  (90) 
Cc1ccc(OCCn2c(C(=O)[O-])c(C[C@@H](N)C(=O)[O-])c3ccccc32)cc1NC(N)=[NH2+]

>  <Energy>  (90) 
94.09653881497695

>  <Genealogy>  (90) 
Cc1ccc(OCCn2c(C(=O)[O-])c(CC(N)C(=O)[O-])c3ccccc32)cc1NC(N)=[NH2+] (protonated)
Cc1ccc(OCCn2c(C(=O)[O-])c(C[C@@H](N)C(=O)[O-])c3ccccc32)cc1NC(N)=[NH2+] (chirality)
Cc1ccc(OCCn2c(C(=O)[O-])c(C[C@@H](N)C(=O)[O-])c3ccccc32)cc1NC(N)=[NH2+] (3D coordinates assigned)
Cc1ccc(OCCn2c(C(=O)[O-])c(C[C@@H](N)C(=O)[O-])c3ccccc32)cc1NC(N)=[NH2+] (optimized conformer: 94.09653881497695 kcal/mol)

>  <smiles>  (90) 
Cc1ccc(OCCn2c(C(=O)O)c(CC(N)C(=O)O)c3ccccc32)cc1NC(=N)N

>  <score_type>  (90) 
oracle

>  <origin>  (90) 
adg

>  <m_score__min__energy>  (90) 
-11.41

>  <m_primary>  (90) 
energy

$$$$
90:0
     RDKit          3D

101105  0  0  0  0  0  0  0  0999 V2000
   50.4810   31.9730   55.5220 C   0  0  0  0  0  0  0  0  0  0  0  0
   51.1610   30.9250   54.8440 O   0  0  0  0  0  0  0  0  0  0  0  0
   51.8960   31.0860   53.6570 C   0  0  0  0  0  0  0  0  0  0  0  0
   53.2560   30.7360   53.5680 C   0  0  0  0  0  0  0  0  0  0  0  0
   53.9650   30.9290   52.3740 C   0  0  0  0  0  0  0  0  0  0  0  0
   55.4130   30.5240   52.2890 C   0  0  0  0  0  0  0  0  0  0  0  0
   56.0930   31.2900   51.2300 N   0  0  0  0  0  0  0  0  0  0  0  0
   57.5670   31.3430   51.3600 C   0  0  2  0  0  0  0  0  0  0  0  0
   58.2170   32.2930   50.3240 C   0  0  0  0  0  0  0  0  0  0  0  0
   59.5850   32.7510   50.7740 C   0  0  0  0  0  0  0  0  0  0  0  0
   60.6110   32.9880   49.8410 C   0  0  0  0  0  0  0  0  0  0  0  0
   61.8690   33.4240   50.2710 C   0  0  0  0  0  0  0  0  0  0  0  0
   62.1100   33.6400   51.6320 C   0  0  0  0  0  0  0  0  0  0  0  0
   61.1060   33.3880   52.5690 C   0  0  0  0  0  0  0  0  0  0  0  0
   59.8500   32.9410   52.1450 C   0  0  0  0  0  0  0  0  0  0  0  0
   58.2190   29.9740   51.3780 C   0  0  0  0  0  0  0  0  0  0  0  0
   57.5170   28.9640   51.6530 O   0  0  0  0  0  0  0  0  0  0  0  0
   59.5850   29.8130   50.9550 N   0  0  0  0  0  0  0  0  0  0  0  0
   60.0870   28.8490   49.9710 C   0  0  2  0  0  0  0  0  0  0  0  0
   61.3110   28.0930   50.5360 C   0  0  0  0  0  0  0  0  0  0  0  0
   62.1180   28.9750   51.4580 C   0  0  0  0  0  0  0  0  0  0  0  0
   63.0170   29.9200   50.9360 C   0  0  0  0  0  0  0  0  0  0  0  0
   63.7060   30.7850   51.7890 C   0  0  0  0  0  0  0  0  0  0  0  0
   63.5070   30.7120   53.1690 C   0  0  0  0  0  0  0  0  0  0  0  0
   62.6170   29.7720   53.6990 C   0  0  0  0  0  0  0  0  0  0  0  0
   61.9180   28.9090   52.8480 C   0  0  0  0  0  0  0  0  0  0  0  0
   60.4100   29.5060   48.5970 C   0  0  0  0  0  0  0  0  0  0  0  0
   59.2740   29.4900   47.5380 C   0  0  2  0  0  0  0  0  0  0  0  0
   58.1540   28.4790   47.8630 C   0  0  0  0  0  0  0  0  0  0  0  0
   58.2830   27.2260   47.0340 C   0  0  0  0  0  0  0  0  0  0  0  0
   57.2100   26.7800   46.2420 C   0  0  0  0  0  0  0  0  0  0  0  0
   57.3250   25.5960   45.5020 C   0  0  0  0  0  0  0  0  0  0  0  0
   58.5090   24.8550   45.5430 C   0  0  0  0  0  0  0  0  0  0  0  0
   59.5760   25.2880   46.3330 C   0  0  0  0  0  0  0  0  0  0  0  0
   59.4680   26.4710   47.0740 C   0  0  0  0  0  0  0  0  0  0  0  0
   59.8070   29.3190   46.1330 C   0  0  0  0  0  0  0  0  0  0  0  0
   60.8670   28.6600   45.9510 O   0  0  0  0  0  0  0  0  0  0  0  0
   59.0790   29.8550   45.0190 N   0  0  0  0  0  0  0  0  0  0  0  0
   57.9500   29.1890   44.3820 C   0  0  0  0  0  0  0  0  0  0  0  0
   56.6650   29.8510   44.7670 C   0  0  0  0  0  0  0  0  0  0  0  0
   55.6220   29.1730   44.9530 O   0  0  0  0  0  0  0  0  0  0  0  0
   56.6340   31.2750   44.8980 N   0  0  0  0  0  0  0  0  0  0  0  0
   57.5630   32.1700   44.2110 C   0  0  0  0  0  0  0  0  0  0  0  0
   58.1710   33.1370   45.1920 C   0  0  0  0  0  0  0  0  0  0  0  0
   58.9840   34.1900   44.7380 C   0  0  0  0  0  0  0  0  0  0  0  0
   59.5680   35.0750   45.6490 C   0  0  0  0  0  0  0  0  0  0  0  0
   59.3520   34.9100   47.0220 C   0  0  0  0  0  0  0  0  0  0  0  0
   58.5540   33.8590   47.4840 C   0  0  0  0  0  0  0  0  0  0  0  0
   57.9700   32.9720   46.5740 C   0  0  0  0  0  0  0  0  0  0  0  0
   53.3040   31.4620   51.2570 C   0  0  0  0  0  0  0  0  0  0  0  0
   51.9460   31.7990   51.3200 C   0  0  0  0  0  0  0  0  0  0  0  0
   51.3310   32.3300   50.1770 O   0  0  0  0  0  0  0  0  0  0  0  0
   50.8190   31.5420   49.1050 C   0  0  0  0  0  0  0  0  0  0  0  0
   51.2460   31.6210   52.5340 C   0  0  0  0  0  0  0  0  0  0  0  0
   49.9110   31.9960   52.6420 O   0  0  0  0  0  0  0  0  0  0  0  0
   50.5749   31.8284   56.6084 H   0  0  0  0  0  0  0  0  0  0  0  0
   50.9244   32.9397   55.2411 H   0  0  0  0  0  0  0  0  0  0  0  0
   49.4175   31.9620   55.2411 H   0  0  0  0  0  0  0  0  0  0  0  0
   53.7672   30.3074   54.4426 H   0  0  0  0  0  0  0  0  0  0  0  0
   55.9033   30.7227   53.2534 H   0  0  0  0  0  0  0  0  0  0  0  0
   55.4730   29.4515   52.0519 H   0  0  0  0  0  0  0  0  0  0  0  0
   55.7220   32.2720   51.2110 H   0  0  0  0  0  0  0  0  0  0  0  0
   57.7613   31.7761   52.3523 H   0  0  0  0  0  0  0  0  0  0  0  0
   58.3151   31.7629   49.3652 H   0  0  0  0  0  0  0  0  0  0  0  0
   57.5742   33.1792   50.2176 H   0  0  0  0  0  0  0  0  0  0  0  0
   60.4233   32.8298   48.7687 H   0  0  0  0  0  0  0  0  0  0  0  0
   62.6702   33.5973   49.5374 H   0  0  0  0  0  0  0  0  0  0  0  0
   63.0916   34.0088   51.9643 H   0  0  0  0  0  0  0  0  0  0  0  0
   61.3026   33.5409   53.6404 H   0  0  0  0  0  0  0  0  0  0  0  0
   59.0639   32.7365   52.8868 H   0  0  0  0  0  0  0  0  0  0  0  0
   59.2810   28.1247   49.7819 H   0  0  0  0  0  0  0  0  0  0  0  0
   60.9622   27.2125   51.0956 H   0  0  0  0  0  0  0  0  0  0  0  0
   61.9516   27.7886   49.6952 H   0  0  0  0  0  0  0  0  0  0  0  0
   63.1791   29.9789   49.8496 H   0  0  0  0  0  0  0  0  0  0  0  0
   64.4061   31.5245   51.3732 H   0  0  0  0  0  0  0  0  0  0  0  0
   64.0503   31.3939   53.8397 H   0  0  0  0  0  0  0  0  0  0  0  0
   62.4664   29.7112   54.7869 H   0  0  0  0  0  0  0  0  0  0  0  0
   61.2110   28.1779   53.2671 H   0  0  0  0  0  0  0  0  0  0  0  0
   60.6785   30.5563   48.7835 H   0  0  0  0  0  0  0  0  0  0  0  0
   61.2188   28.8977   48.1660 H   0  0  0  0  0  0  0  0  0  0  0  0
   58.8044   30.4836   47.5859 H   0  0  0  0  0  0  0  0  0  0  0  0
   58.2128   28.2105   48.9281 H   0  0  0  0  0  0  0  0  0  0  0  0
   57.1869   28.9487   47.6304 H   0  0  0  0  0  0  0  0  0  0  0  0
   56.2777   27.3625   46.2034 H   0  0  0  0  0  0  0  0  0  0  0  0
   56.4814   25.2489   44.8873 H   0  0  0  0  0  0  0  0  0  0  0  0
   58.6005   23.9310   44.9532 H   0  0  0  0  0  0  0  0  0  0  0  0
   60.5036   24.6982   46.3732 H   0  0  0  0  0  0  0  0  0  0  0  0
   60.3137   26.8109   47.6898 H   0  0  0  0  0  0  0  0  0  0  0  0
   58.0697   29.2390   43.2897 H   0  0  0  0  0  0  0  0  0  0  0  0
   57.9228   28.1404   44.7133 H   0  0  0  0  0  0  0  0  0  0  0  0
   58.3618   31.5758   43.7432 H   0  0  0  0  0  0  0  0  0  0  0  0
   57.0164   32.7343   43.4411 H   0  0  0  0  0  0  0  0  0  0  0  0
   59.1616   34.3183   43.6600 H   0  0  0  0  0  0  0  0  0  0  0  0
   60.1974   35.9012   45.2867 H   0  0  0  0  0  0  0  0  0  0  0  0
   59.8105   35.6078   47.7382 H   0  0  0  0  0  0  0  0  0  0  0  0
   58.3855   33.7298   48.5633 H   0  0  0  0  0  0  0  0  0  0  0  0
   57.3501   32.1408   46.9413 H   0  0  0  0  0  0  0  0  0  0  0  0
   53.8592   31.6171   50.3202 H   0  0  0  0  0  0  0  0  0  0  0  0
   50.2624   30.6854   49.5129 H   0  0  0  0  0  0  0  0  0  0  0  0
   50.1466   32.1556   48.4875 H   0  0  0  0  0  0  0  0  0  0  0  0
   51.6529   31.1770   48.4875 H   0  0  0  0  0  0  0  0  0  0  0  0
  1  2  1  0
  2  3  1  0
  3  4  2  0
  4  5  1  0
  5  6  1  0
  6  7  1  0
  7  8  1  0
  8  9  1  0
  9 10  1  0
 10 11  2  0
 11 12  1  0
 12 13  2  0
 13 14  1  0
 14 15  2  0
  8 16  1  0
 16 17  2  0
 16 18  1  0
 18 19  1  0
 19 20  1  0
 20 21  1  0
 21 22  2  0
 22 23  1  0
 23 24  2  0
 24 25  1  0
 25 26  2  0
 19 27  1  0
 27 28  1  0
 28 29  1  0
 29 30  1  0
 30 31  2  0
 31 32  1  0
 32 33  2  0
 33 34  1  0
 34 35  2  0
 28 36  1  0
 36 37  2  0
 36 38  1  0
 38 39  1  0
 39 40  1  0
 40 41  2  0
 40 42  1  0
 42 43  1  0
 43 44  1  0
 44 45  2  0
 45 46  1  0
 46 47  2  0
 47 48  1  0
 48 49  2  0
  5 50  2  0
 50 51  1  0
 51 52  1  0
 52 53  1  0
 51 54  2  0
 54 55  1  0
 54  3  1  0
 15 10  1  0
 26 21  1  0
 35 30  1  0
 49 44  1  0
  1 56  1  0
  1 57  1  0
  1 58  1  0
  4 59  1  0
  6 60  1  0
  6 61  1  0
  7 62  1  0
  8 63  1  1
  9 64  1  0
  9 65  1  0
 11 66  1  0
 12 67  1  0
 13 68  1  0
 14 69  1  0
 15 70  1  0
 19 71  1  6
 20 72  1  0
 20 73  1  0
 22 74  1  0
 23 75  1  0
 24 76  1  0
 25 77  1  0
 26 78  1  0
 27 79  1  0
 27 80  1  0
 28 81  1  6
 29 82  1  0
 29 83  1  0
 31 84  1  0
 32 85  1  0
 33 86  1  0
 34 87  1  0
 35 88  1  0
 39 89  1  0
 39 90  1  0
 43 91  1  0
 43 92  1  0
 45 93  1  0
 46 94  1  0
 47 95  1  0
 48 96  1  0
 49 97  1  0
 50 98  1  0
 53 99  1  0
 53100  1  0
 53101  1  0
M  CHG  4  18  -1  38  -1  42  -1  55  -1
M  END
>  <UniqueID>  (91) 
83

>  <SMILES>  (91) 
COc1cc(CN[C@H](Cc2ccccc2)C(=O)[N-][C@H](Cc2ccccc2)CC(Cc2ccccc2)C(=O)[N-]CC(=O)[N-]Cc2ccccc2)cc(OC)c1[O-]

>  <Energy>  (91) 
98.59740696501278

>  <Genealogy>  (91) 
COc1cc(CNC(Cc2ccccc2)C(=O)[N-]C(Cc2ccccc2)CC(Cc2ccccc2)C(=O)[N-]CC(=O)[N-]Cc2ccccc2)cc(OC)c1[O-] (protonated)
COc1cc(CN[C@H](Cc2ccccc2)C(=O)[N-][C@H](Cc2ccccc2)CC(Cc2ccccc2)C(=O)[N-]CC(=O)[N-]Cc2ccccc2)cc(OC)c1[O-] (chirality)
COc1cc(CN[C@H](Cc2ccccc2)C(=O)[N-][C@H](Cc2ccccc2)CC(Cc2ccccc2)C(=O)[N-]CC(=O)[N-]Cc2ccccc2)cc(OC)c1[O-] (3D coordinates assigned)
COc1cc(CN[C@H](Cc2ccccc2)C(=O)[N-][C@H](Cc2ccccc2)CC(Cc2ccccc2)C(=O)[N-]CC(=O)[N-]Cc2ccccc2)cc(OC)c1[O-] (optimized conformer: 98.59740696501278 kcal/mol)

>  <smiles>  (91) 
COc1cc(CNC(Cc2ccccc2)C(=O)NC(Cc2ccccc2)CC(Cc2ccccc2)C(=O)NCC(=O)NCc2ccccc2)cc(OC)c1O

>  <score_type>  (91) 
oracle

>  <origin>  (91) 
adg

>  <m_score__min__energy>  (91) 
-21.670000000000002

>  <m_primary>  (91) 
energy

$$$$
91:0
     RDKit          3D

 45 48  0  0  0  0  0  0  0  0999 V2000
   55.2130   27.4540   45.2020 H   0  0  0  0  0  0  0  0  0  0  0  0
   56.0770   27.0590   45.6390 N   0  0  0  0  0  0  0  0  0  0  0  0
   57.0290   27.8230   46.0740 C   0  0  0  0  0  0  0  0  0  0  0  0
   57.8280   27.3810   47.0800 N   0  0  0  0  0  0  0  0  0  0  0  0
   58.8390   28.1300   47.5860 C   0  0  0  0  0  0  0  0  0  0  0  0
   59.4625   27.7263   48.3973 H   0  0  0  0  0  0  0  0  0  0  0  0
   59.0970   29.4120   47.0860 C   0  0  0  0  0  0  0  0  0  0  0  0
   60.1750   30.2090   47.7180 C   0  0  0  0  0  0  0  0  0  0  0  0
   60.0370   30.6670   49.0380 C   0  0  0  0  0  0  0  0  0  0  0  0
   59.1189   30.4460   49.6022 H   0  0  0  0  0  0  0  0  0  0  0  0
   61.0630   31.4030   49.6370 C   0  0  0  0  0  0  0  0  0  0  0  0
   60.9468   31.7667   50.6686 H   0  0  0  0  0  0  0  0  0  0  0  0
   62.2350   31.6780   48.9300 C   0  0  0  0  0  0  0  0  0  0  0  0
   63.0382   32.2606   49.4048 H   0  0  0  0  0  0  0  0  0  0  0  0
   62.3910   31.2130   47.6150 C   0  0  0  0  0  0  0  0  0  0  0  0
   63.5940   31.4900   46.8930 N   0  0  0  0  0  0  0  0  0  0  0  0
   63.7930   31.0150   45.9840 H   0  0  0  0  0  0  0  0  0  0  0  0
   64.2930   32.1730   47.2600 H   0  0  0  0  0  0  0  0  0  0  0  0
   61.3610   30.4760   47.0150 C   0  0  0  0  0  0  0  0  0  0  0  0
   61.4823   30.1043   45.9868 H   0  0  0  0  0  0  0  0  0  0  0  0
   58.3060   29.9020   46.0180 C   0  0  0  0  0  0  0  0  0  0  0  0
   58.5540   31.1590   45.4260 C   0  0  0  0  0  0  0  0  0  0  0  0
   59.3882   31.7759   45.7915 H   0  0  0  0  0  0  0  0  0  0  0  0
   57.7510   31.6320   44.3780 C   0  0  0  0  0  0  0  0  0  0  0  0
   57.9920   33.0050   43.8020 C   0  0  0  0  0  0  0  0  0  0  0  0
   59.0430   33.0797   43.4862 H   0  0  0  0  0  0  0  0  0  0  0  0
   57.3131   33.1426   42.9475 H   0  0  0  0  0  0  0  0  0  0  0  0
   57.7010   34.1090   44.8270 C   0  0  0  0  0  0  0  0  0  0  0  0
   57.6411   35.0747   44.3037 H   0  0  0  0  0  0  0  0  0  0  0  0
   56.7498   33.8720   45.3261 H   0  0  0  0  0  0  0  0  0  0  0  0
   58.7750   34.1890   45.8770 C   0  0  0  0  0  0  0  0  0  0  0  0
   60.0830   34.1720   45.5010 N   0  0  0  0  0  0  0  0  0  0  0  0
   61.0930   34.1940   46.4130 C   0  0  0  0  0  0  0  0  0  0  0  0
   62.1398   34.1866   46.0750 H   0  0  0  0  0  0  0  0  0  0  0  0
   60.8000   34.2260   47.7780 C   0  0  0  0  0  0  0  0  0  0  0  0
   61.6116   34.2447   48.5203 H   0  0  0  0  0  0  0  0  0  0  0  0
   59.4660   34.2340   48.1910 C   0  0  0  0  0  0  0  0  0  0  0  0
   59.2207   34.2584   49.2630 H   0  0  0  0  0  0  0  0  0  0  0  0
   58.4450   34.2110   47.2400 C   0  0  0  0  0  0  0  0  0  0  0  0
   57.3915   34.2101   47.5563 H   0  0  0  0  0  0  0  0  0  0  0  0
   56.6900   30.8470   43.9130 C   0  0  0  0  0  0  0  0  0  0  0  0
   56.0447   31.2238   43.1058 H   0  0  0  0  0  0  0  0  0  0  0  0
   56.4450   29.5900   44.4660 C   0  0  0  0  0  0  0  0  0  0  0  0
   55.6170   28.9766   44.0810 H   0  0  0  0  0  0  0  0  0  0  0  0
   57.2490   29.1000   45.5130 C   0  0  0  0  0  0  0  0  0  0  0  0
  1  2  1  0
  2  3  2  0
  3  4  1  0
  4  5  1  0
  5  6  1  0
  5  7  2  0
  7  8  1  0
  8  9  2  0
  9 10  1  0
  9 11  1  0
 11 12  1  0
 11 13  2  0
 13 14  1  0
 13 15  1  0
 15 16  1  0
 16 17  1  0
 16 18  1  0
 15 19  2  0
 19 20  1  0
  7 21  1  0
 21 22  2  0
 22 23  1  0
 22 24  1  0
 24 25  1  0
 25 26  1  0
 25 27  1  0
 25 28  1  0
 28 29  1  0
 28 30  1  0
 28 31  1  0
 31 32  2  0
 32 33  1  0
 33 34  1  0
 33 35  2  0
 35 36  1  0
 35 37  1  0
 37 38  1  0
 37 39  2  0
 39 40  1  0
 24 41  2  0
 41 42  1  0
 41 43  1  0
 43 44  1  0
 43 45  2  0
 45  3  1  0
 19  8  1  0
 45 21  1  0
 39 31  1  0
M  CHG  1   4  -1
M  END
>  <UniqueID>  (92) 
84

>  <SMILES>  (92) 
[H]/N=c1\[n-]cc(-c2cccc(N)c2)c2cc(CCc3ccccn3)ccc12

>  <Energy>  (92) 
59.20705150503537

>  <Genealogy>  (92) 
N=c1[n-]cc(-c2cccc(N)c2)c2cc(CCc3ccccn3)ccc12 (protonated)
[H]/N=c1\[n-]cc(-c2cccc(N)c2)c2cc(CCc3ccccn3)ccc12 (cis-trans isomerization)
[H]/N=c1\[n-]cc(-c2cccc(N)c2)c2cc(CCc3ccccn3)ccc12 (3D coordinates assigned)
[H]/N=c1\[n-]cc(-c2cccc(N)c2)c2cc(CCc3ccccn3)ccc12 (optimized conformer: 59.20705150503537 kcal/mol)

>  <smiles>  (92) 
N=c1[nH]cc(-c2cccc(N)c2)c2cc(CCc3ccccn3)ccc12

>  <score_type>  (92) 
oracle

>  <origin>  (92) 
adg

>  <m_score__min__energy>  (92) 
-10.029999999999999

>  <m_primary>  (92) 
energy

$$$$
