0:0
     RDKit          3D

 53 56  0  0  0  0  0  0  0  0999 V2000
   59.8211   30.3151   48.2620 H   0  0  0  0  0  0  0  0  0  0  0  0
   59.4680   29.7360   47.3960 C   0  0  0  0  0  0  0  0  0  0  0  0
   59.6797   28.6585   47.3317 H   0  0  0  0  0  0  0  0  0  0  0  0
   58.7790   30.3440   46.4180 C   0  0  0  0  0  0  0  0  0  0  0  0
   58.2640   29.7560   45.2600 C   0  0  0  0  0  0  0  0  0  0  0  0
   58.3660   28.4610   44.8960 C   0  0  0  0  0  0  0  0  0  0  0  0
   59.0690   28.2063   44.0892 H   0  0  0  0  0  0  0  0  0  0  0  0
   57.5950   27.3660   45.5110 C   0  0  0  0  0  0  0  0  0  0  0  0
   56.2000   27.4490   45.6250 C   0  0  0  0  0  0  0  0  0  0  0  0
   55.5210   28.5820   45.1950 O   0  0  0  0  0  0  0  0  0  0  0  0
   55.5040   26.4160   46.1640 N   0  0  0  0  0  0  0  0  0  0  0  0
   56.1340   25.2900   46.5870 C   0  0  0  0  0  0  0  0  0  0  0  0
   55.4700   24.3460   47.0870 O   0  0  0  0  0  0  0  0  0  0  0  0
   57.4830   25.1800   46.4680 N   0  0  0  0  0  0  0  0  0  0  0  0
   58.2240   26.1860   45.9360 C   0  0  0  0  0  0  0  0  0  0  0  0
   59.4720   26.0500   45.8340 O   0  0  0  0  0  0  0  0  0  0  0  0
   57.6300   30.8160   44.5980 C   0  0  0  0  0  0  0  0  0  0  0  0
   56.8850   30.7900   43.3000 C   0  0  0  0  0  0  0  0  0  0  0  0
   55.8037   30.7523   43.4985 H   0  0  0  0  0  0  0  0  0  0  0  0
   57.1206   31.6969   42.7238 H   0  0  0  0  0  0  0  0  0  0  0  0
   57.1832   29.9017   42.7238 H   0  0  0  0  0  0  0  0  0  0  0  0
   57.7670   31.9450   45.3200 N   0  0  0  0  0  0  0  0  0  0  0  0
   58.4630   31.6620   46.4080 N   0  0  0  0  0  0  0  0  0  0  0  0
   58.7710   32.6630   47.4320 C   0  0  0  0  0  0  0  0  0  0  0  0
   57.9944   33.4419   47.4226 H   0  0  0  0  0  0  0  0  0  0  0  0
   58.8004   32.1704   48.4151 H   0  0  0  0  0  0  0  0  0  0  0  0
   60.1110   33.2950   47.1620 C   0  0  0  0  0  0  0  0  0  0  0  0
   60.2340   34.0530   46.1620 O   0  0  0  0  0  0  0  0  0  0  0  0
   61.2520   33.0410   48.0070 N   0  0  0  0  0  0  0  0  0  0  0  0
   61.3250   31.8280   48.8340 C   0  0  0  0  0  0  0  0  0  0  0  0
   60.8898   32.0389   49.8220 H   0  0  0  0  0  0  0  0  0  0  0  0
   60.7654   31.0255   48.3312 H   0  0  0  0  0  0  0  0  0  0  0  0
   62.7770   31.3750   49.0120 C   0  0  0  0  0  0  0  0  0  0  0  0
   62.8095   30.5678   49.7585 H   0  0  0  0  0  0  0  0  0  0  0  0
   63.1490   31.0263   48.0373 H   0  0  0  0  0  0  0  0  0  0  0  0
   63.6400   32.4770   49.4640 N   0  0  0  0  0  0  0  0  0  0  0  0
   64.8910   32.1840   50.1270 C   0  0  0  0  0  0  0  0  0  0  0  0
   65.9830   33.0660   50.0170 C   0  0  0  0  0  0  0  0  0  0  0  0
   65.8828   33.9868   49.4236 H   0  0  0  0  0  0  0  0  0  0  0  0
   67.1940   32.7810   50.6560 C   0  0  0  0  0  0  0  0  0  0  0  0
   68.0405   33.4775   50.5647 H   0  0  0  0  0  0  0  0  0  0  0  0
   67.3300   31.6130   51.4100 C   0  0  0  0  0  0  0  0  0  0  0  0
   68.2827   31.3905   51.9129 H   0  0  0  0  0  0  0  0  0  0  0  0
   66.2560   30.7280   51.5250 C   0  0  0  0  0  0  0  0  0  0  0  0
   66.3642   29.8078   52.1179 H   0  0  0  0  0  0  0  0  0  0  0  0
   65.0430   31.0090   50.8880 C   0  0  0  0  0  0  0  0  0  0  0  0
   64.2015   30.3069   50.9822 H   0  0  0  0  0  0  0  0  0  0  0  0
   63.1940   33.8690   49.3090 C   0  0  0  0  0  0  0  0  0  0  0  0
   62.6028   34.1576   50.1906 H   0  0  0  0  0  0  0  0  0  0  0  0
   64.0809   34.5124   49.2123 H   0  0  0  0  0  0  0  0  0  0  0  0
   62.3330   34.0330   48.0530 C   0  0  0  0  0  0  0  0  0  0  0  0
   61.8930   35.0412   48.0507 H   0  0  0  0  0  0  0  0  0  0  0  0
   62.9756   33.8835   47.1728 H   0  0  0  0  0  0  0  0  0  0  0  0
  1  2  1  0
  2  3  1  0
  2  4  2  0
  4  5  1  0
  5  6  2  0
  6  7  1  0
  6  8  1  0
  8  9  2  0
  9 10  1  0
  9 11  1  0
 11 12  1  0
 12 13  2  0
 12 14  1  0
 14 15  1  0
 15 16  2  0
  5 17  1  0
 17 18  1  0
 18 19  1  0
 18 20  1  0
 18 21  1  0
 17 22  2  0
 22 23  1  0
 23 24  1  0
 24 25  1  0
 24 26  1  0
 24 27  1  0
 27 28  2  0
 27 29  1  0
 29 30  1  0
 30 31  1  0
 30 32  1  0
 30 33  1  0
 33 34  1  0
 33 35  1  0
 33 36  1  0
 36 37  1  0
 37 38  2  0
 38 39  1  0
 38 40  1  0
 40 41  1  0
 40 42  2  0
 42 43  1  0
 42 44  1  0
 44 45  1  0
 44 46  2  0
 46 47  1  0
 36 48  1  0
 48 49  1  0
 48 50  1  0
 48 51  1  0
 51 52  1  0
 51 53  1  0
 23  4  1  0
 51 29  1  0
 15  8  1  0
 46 37  1  0
M  CHG  3  10  -1  11  -1  14  -1
M  END
>  <UniqueID>  (1) 
1

>  <SMILES>  (1) 
C=c1/c(=C/c2c([O-])[n-]c(=O)[n-]c2=O)c(C)nn1CC(=O)N1CCN(c2ccccc2)CC1

>  <Energy>  (1) 
104.8516742927308

>  <Genealogy>  (1) 
C=c1c(=Cc2c([O-])[n-]c(=O)[n-]c2=O)c(C)nn1CC(=O)N1CCN(c2ccccc2)CC1 (protonated)
C=c1/c(=C/c2c([O-])[n-]c(=O)[n-]c2=O)c(C)nn1CC(=O)N1CCN(c2ccccc2)CC1 (cis-trans isomerization)
C=c1/c(=C/c2c([O-])[n-]c(=O)[n-]c2=O)c(C)nn1CC(=O)N1CCN(c2ccccc2)CC1 (3D coordinates assigned)
C=c1/c(=C/c2c([O-])[n-]c(=O)[n-]c2=O)c(C)nn1CC(=O)N1CCN(c2ccccc2)CC1 (nonaromatic ring conformer: 104.8516742927308 kcal/mol)

>  <smiles>  (1) 
C=c1c(=Cc2c(O)[nH]c(=O)[nH]c2=O)c(C)nn1CC(=O)N1CCN(c2ccccc2)CC1

>  <score_type>  (1) 
oracle

>  <origin>  (1) 
adg

>  <m_score__min__energy>  (1) 
-16.73

>  <m_primary>  (1) 
energy

$$$$
1:0
     RDKit          3D

 40 42  0  0  0  0  0  0  0  0999 V2000
   58.5020   34.4990   52.2360 N   0  0  0  0  0  0  0  0  0  0  0  0
   59.0300   32.9980   51.5620 S   0  0  0  0  0  0  0  0  0  0  0  0
   60.4120   32.6810   52.0590 O   0  0  0  0  0  0  0  0  0  0  0  0
   58.0980   31.9020   51.9960 O   0  0  0  0  0  0  0  0  0  0  0  0
   59.0390   33.1120   49.8050 C   0  0  0  0  0  0  0  0  0  0  0  0
   58.1360   32.3570   49.0470 C   0  0  0  0  0  0  0  0  0  0  0  0
   58.1490   32.4360   47.6510 C   0  0  0  0  0  0  0  0  0  0  0  0
   59.0660   33.2750   46.9930 C   0  0  0  0  0  0  0  0  0  0  0  0
   59.0900   33.3550   45.5140 C   0  0  0  0  0  0  0  0  0  0  0  0
   59.5480   34.3850   44.9490 O   0  0  0  0  0  0  0  0  0  0  0  0
   58.6030   32.2690   44.7070 N   0  0  0  0  0  0  0  0  0  0  0  0
   58.0090   32.5570   43.3960 C   0  0  0  0  0  0  0  0  0  0  0  0
   57.0150   31.4960   43.0140 C   0  0  0  0  0  0  0  0  0  0  0  0
   57.1850   30.2180   43.3810 C   0  0  0  0  0  0  0  0  0  0  0  0
   58.3680   29.7710   44.2140 C   0  0  2  0  0  0  0  0  0  0  0  0
   57.9630   28.6070   45.0930 C   0  0  0  0  0  0  0  0  0  0  0  0
   58.9210   27.9310   45.8730 C   0  0  0  0  0  0  0  0  0  0  0  0
   58.5420   26.8560   46.6830 C   0  0  0  0  0  0  0  0  0  0  0  0
   57.2070   26.4440   46.7250 C   0  0  0  0  0  0  0  0  0  0  0  0
   56.8380   25.3760   47.5320 O   0  0  0  0  0  0  0  0  0  0  0  0
   56.2470   27.1100   45.9540 C   0  0  0  0  0  0  0  0  0  0  0  0
   54.9170   26.7050   45.9920 O   0  0  0  0  0  0  0  0  0  0  0  0
   56.6220   28.1860   45.1420 C   0  0  0  0  0  0  0  0  0  0  0  0
   58.9230   30.9060   45.0450 C   0  0  0  0  0  0  0  0  0  0  0  0
   59.6910   30.6540   46.0140 O   0  0  0  0  0  0  0  0  0  0  0  0
   59.9820   34.0170   47.7600 C   0  0  0  0  0  0  0  0  0  0  0  0
   59.9670   33.9360   49.1560 C   0  0  0  0  0  0  0  0  0  0  0  0
   58.6320   35.2260   51.4970 H   0  0  0  0  0  0  0  0  0  0  0  0
   57.4133   31.6989   49.5517 H   0  0  0  0  0  0  0  0  0  0  0  0
   57.4370   31.8378   47.0634 H   0  0  0  0  0  0  0  0  0  0  0  0
   57.4987   33.5306   43.4376 H   0  0  0  0  0  0  0  0  0  0  0  0
   58.8106   32.5758   42.6429 H   0  0  0  0  0  0  0  0  0  0  0  0
   56.1307   31.7738   42.4216 H   0  0  0  0  0  0  0  0  0  0  0  0
   56.4417   29.4703   43.0672 H   0  0  0  0  0  0  0  0  0  0  0  0
   59.1684   29.4460   43.5330 H   0  0  0  0  0  0  0  0  0  0  0  0
   59.9732   28.2504   45.8449 H   0  0  0  0  0  0  0  0  0  0  0  0
   59.2966   26.3331   47.2889 H   0  0  0  0  0  0  0  0  0  0  0  0
   55.8634   28.7057   44.5383 H   0  0  0  0  0  0  0  0  0  0  0  0
   60.7153   34.6655   47.2584 H   0  0  0  0  0  0  0  0  0  0  0  0
   60.6868   34.5217   49.7466 H   0  0  0  0  0  0  0  0  0  0  0  0
  1  2  1  0
  2  3  2  0
  2  4  2  0
  2  5  1  0
  5  6  2  0
  6  7  1  0
  7  8  2  0
  8  9  1  0
  9 10  2  0
  9 11  1  0
 11 12  1  0
 12 13  1  0
 13 14  2  0
 14 15  1  0
 15 16  1  0
 16 17  2  0
 17 18  1  0
 18 19  2  0
 19 20  1  0
 19 21  1  0
 21 22  1  0
 21 23  2  0
 15 24  1  0
 24 25  2  0
  8 26  1  0
 26 27  2  0
 27  5  1  0
 24 11  1  0
 23 16  1  0
  1 28  1  0
  6 29  1  0
  7 30  1  0
 12 31  1  0
 12 32  1  0
 13 33  1  0
 14 34  1  0
 15 35  1  6
 17 36  1  0
 18 37  1  0
 23 38  1  0
 26 39  1  0
 27 40  1  0
M  CHG  3   1  -1  20  -1  22  -1
M  END
>  <UniqueID>  (2) 
2

>  <SMILES>  (2) 
[NH-]S(=O)(=O)c1ccc(C(=O)N2CC=C[C@H](c3ccc([O-])c([O-])c3)C2=O)cc1

>  <Energy>  (2) 
50.713748272445606

>  <Genealogy>  (2) 
[NH-]S(=O)(=O)c1ccc(C(=O)N2CC=CC(c3ccc([O-])c([O-])c3)C2=O)cc1 (protonated)
[NH-]S(=O)(=O)c1ccc(C(=O)N2CC=C[C@H](c3ccc([O-])c([O-])c3)C2=O)cc1 (chirality)
[NH-]S(=O)(=O)c1ccc(C(=O)N2CC=C[C@H](c3ccc([O-])c([O-])c3)C2=O)cc1 (3D coordinates assigned)
[NH-]S(=O)(=O)c1ccc(C(=O)N2CC=C[C@H](c3ccc([O-])c([O-])c3)C2=O)cc1 (nonaromatic ring conformer: 50.713748272445606 kcal/mol)

>  <smiles>  (2) 
NS(=O)(=O)c1ccc(C(=O)N2CC=CC(c3ccc(O)c(O)c3)C2=O)cc1

>  <score_type>  (2) 
oracle

>  <origin>  (2) 
adg

>  <m_score__min__energy>  (2) 
-16.719999999999999

>  <m_primary>  (2) 
energy

$$$$
2:0
     RDKit          3D

 38 40  0  0  0  0  0  0  0  0999 V2000
   59.6575   30.7009   48.6581 H   0  0  0  0  0  0  0  0  0  0  0  0
   59.4240   29.8860   47.9570 C   0  0  0  0  0  0  0  0  0  0  0  0
   59.7307   28.8556   48.1896 H   0  0  0  0  0  0  0  0  0  0  0  0
   58.7650   30.1490   46.8180 C   0  0  0  0  0  0  0  0  0  0  0  0
   58.3950   29.2240   45.8270 C   0  0  0  0  0  0  0  0  0  0  0  0
   58.4200   27.8760   45.8170 C   0  0  0  0  0  0  0  0  0  0  0  0
   59.4059   27.3930   45.7482 H   0  0  0  0  0  0  0  0  0  0  0  0
   57.2440   26.9940   45.8900 C   0  0  0  0  0  0  0  0  0  0  0  0
   57.2490   25.7490   46.4020 N   0  0  0  0  0  0  0  0  0  0  0  0
   55.9440   25.4010   46.3900 C   0  0  0  0  0  0  0  0  0  0  0  0
   55.5380   24.2780   46.7850 O   0  0  0  0  0  0  0  0  0  0  0  0
   55.1070   26.3560   45.9310 N   0  0  0  0  0  0  0  0  0  0  0  0
   55.9450   27.3620   45.6340 C   0  0  0  0  0  0  0  0  0  0  0  0
   55.5320   28.5950   45.1440 O   0  0  0  0  0  0  0  0  0  0  0  0
   57.9180   29.9660   44.7630 C   0  0  0  0  0  0  0  0  0  0  0  0
   57.5782   29.5751   43.7926 H   0  0  0  0  0  0  0  0  0  0  0  0
   57.9490   31.2890   45.1490 C   0  0  0  0  0  0  0  0  0  0  0  0
   57.4320   32.4220   44.3130 C   0  0  0  0  0  0  0  0  0  0  0  0
   57.0657   33.2248   44.9697 H   0  0  0  0  0  0  0  0  0  0  0  0
   58.2427   32.8089   43.6781 H   0  0  0  0  0  0  0  0  0  0  0  0
   56.6085   32.0632   43.6781 H   0  0  0  0  0  0  0  0  0  0  0  0
   58.4640   31.4080   46.3970 N   0  0  0  0  0  0  0  0  0  0  0  0
   58.7280   32.6740   47.1030 C   0  0  0  0  0  0  0  0  0  0  0  0
   57.8052   33.2726   47.1176 H   0  0  0  0  0  0  0  0  0  0  0  0
   59.0596   32.4333   48.1238 H   0  0  0  0  0  0  0  0  0  0  0  0
   59.8380   33.4880   46.4200 C   0  0  0  0  0  0  0  0  0  0  0  0
   60.1007   33.0016   45.4690 H   0  0  0  0  0  0  0  0  0  0  0  0
   59.4584   34.5072   46.2551 H   0  0  0  0  0  0  0  0  0  0  0  0
   61.0770   33.5860   47.2750 C   0  0  0  0  0  0  0  0  0  0  0  0
   62.3240   33.2230   46.7430 C   0  0  0  0  0  0  0  0  0  0  0  0
   62.3959   32.8411   45.7139 H   0  0  0  0  0  0  0  0  0  0  0  0
   63.4720   33.3490   47.5260 C   0  0  0  0  0  0  0  0  0  0  0  0
   64.4515   33.0641   47.1143 H   0  0  0  0  0  0  0  0  0  0  0  0
   63.3820   33.8230   48.7960 N   0  0  0  0  0  0  0  0  0  0  0  0
   62.1900   34.1870   49.3390 C   0  0  0  0  0  0  0  0  0  0  0  0
   62.1503   34.5660   50.3709 H   0  0  0  0  0  0  0  0  0  0  0  0
   61.0150   34.0810   48.5900 C   0  0  0  0  0  0  0  0  0  0  0  0
   59.8040   34.4730   49.1510 O   0  0  0  0  0  0  0  0  0  0  0  0
  1  2  1  0
  2  3  1  0
  2  4  2  0
  4  5  1  0
  5  6  2  0
  6  7  1  0
  6  8  1  0
  8  9  1  0
  9 10  1  0
 10 11  2  0
 10 12  1  0
 12 13  1  0
 13 14  1  0
  5 15  1  0
 15 16  1  0
 15 17  2  0
 17 18  1  0
 18 19  1  0
 18 20  1  0
 18 21  1  0
 17 22  1  0
 22 23  1  0
 23 24  1  0
 23 25  1  0
 23 26  1  0
 26 27  1  0
 26 28  1  0
 26 29  1  0
 29 30  2  0
 30 31  1  0
 30 32  1  0
 32 33  1  0
 32 34  2  0
 34 35  1  0
 35 36  1  0
 35 37  2  0
 37 38  1  0
 22  4  1  0
 37 29  1  0
 13  8  2  0
M  CHG  4   9  -1  12  -1  14  -1  38  -1
M  END
>  <UniqueID>  (3) 
3

>  <SMILES>  (3) 
C=c1/c(=C\c2[n-]c(=O)[n-]c2[O-])cc(C)n1CCc1ccncc1[O-]

>  <Energy>  (3) 
106.32243315810157

>  <Genealogy>  (3) 
C=c1c(=Cc2[n-]c(=O)[n-]c2[O-])cc(C)n1CCc1ccncc1[O-] (protonated)
C=c1/c(=C\c2[n-]c(=O)[n-]c2[O-])cc(C)n1CCc1ccncc1[O-] (cis-trans isomerization)
C=c1/c(=C\c2[n-]c(=O)[n-]c2[O-])cc(C)n1CCc1ccncc1[O-] (3D coordinates assigned)
C=c1/c(=C\c2[n-]c(=O)[n-]c2[O-])cc(C)n1CCc1ccncc1[O-] (optimized conformer: 106.32243315810157 kcal/mol)

>  <smiles>  (3) 
C=c1c(=Cc2[nH]c(=O)[nH]c2O)cc(C)n1CCc1ccncc1O

>  <score_type>  (3) 
oracle

>  <origin>  (3) 
adg

>  <m_score__min__energy>  (3) 
-17.09

>  <m_primary>  (3) 
energy

$$$$
3:0
     RDKit          3D

 47 50  0  0  0  0  0  0  0  0999 V2000
   56.1724   31.1186   43.0932 H   0  0  0  0  0  0  0  0  0  0  0  0
   56.0490   30.0830   43.4430 C   0  0  0  0  0  0  0  0  0  0  0  0
   55.3430   29.4108   42.9334 H   0  0  0  0  0  0  0  0  0  0  0  0
   56.7560   29.6420   44.4860 C   0  0  0  0  0  0  0  0  0  0  0  0
   57.7270   30.3480   45.1870 C   0  0  0  0  0  0  0  0  0  0  0  0
   58.1580   31.7500   44.9850 C   0  0  0  0  0  0  0  0  0  0  0  0
   58.1490   32.2060   43.8070 O   0  0  0  0  0  0  0  0  0  0  0  0
   58.5020   32.6180   46.0960 N   0  0  0  0  0  0  0  0  0  0  0  0
   58.0690   32.2360   46.9690 H   0  0  0  0  0  0  0  0  0  0  0  0
   59.9510   32.7630   46.2940 C   0  0  0  0  0  0  0  0  0  0  0  0
   60.3343   31.9330   46.9057 H   0  0  0  0  0  0  0  0  0  0  0  0
   60.4839   32.7452   45.3319 H   0  0  0  0  0  0  0  0  0  0  0  0
   60.1680   34.0870   47.0130 C   0  0  0  0  0  0  0  0  0  0  0  0
   60.3029   33.9221   48.0922 H   0  0  0  0  0  0  0  0  0  0  0  0
   61.0700   34.6053   46.6556 H   0  0  0  0  0  0  0  0  0  0  0  0
   58.9070   34.8960   46.7510 C   0  0  0  0  0  0  0  0  0  0  0  0
   58.4074   35.1484   47.6980 H   0  0  0  0  0  0  0  0  0  0  0  0
   59.1277   35.8471   46.2443 H   0  0  0  0  0  0  0  0  0  0  0  0
   58.0200   33.9940   45.9040 C   0  0  0  0  0  0  0  0  0  0  0  0
   56.9733   34.0773   46.2317 H   0  0  0  0  0  0  0  0  0  0  0  0
   58.0644   34.2821   44.8433 H   0  0  0  0  0  0  0  0  0  0  0  0
   58.2470   29.4630   46.1220 C   0  0  0  0  0  0  0  0  0  0  0  0
   59.3250   29.7490   47.1290 C   0  0  0  0  0  0  0  0  0  0  0  0
   58.9163   29.6406   48.1445 H   0  0  0  0  0  0  0  0  0  0  0  0
   60.1543   29.0398   46.9898 H   0  0  0  0  0  0  0  0  0  0  0  0
   59.6936   30.7760   46.9898 H   0  0  0  0  0  0  0  0  0  0  0  0
   57.5530   28.2680   45.9660 C   0  0  0  0  0  0  0  0  0  0  0  0
   57.7750   27.1440   46.6700 C   0  0  0  0  0  0  0  0  0  0  0  0
   58.5304   27.1776   47.4689 H   0  0  0  0  0  0  0  0  0  0  0  0
   57.0720   25.8720   46.4400 C   0  0  0  0  0  0  0  0  0  0  0  0
   57.6620   24.6720   46.6130 N   0  0  0  0  0  0  0  0  0  0  0  0
   56.6940   23.7520   46.3980 C   0  0  0  0  0  0  0  0  0  0  0  0
   56.9300   22.3000   46.4850 C   0  0  0  0  0  0  0  0  0  0  0  0
   57.2410   21.4770   45.4190 C   0  0  0  0  0  0  0  0  0  0  0  0
   57.3629   21.7760   44.3675 H   0  0  0  0  0  0  0  0  0  0  0  0
   57.3680   20.2040   45.9390 C   0  0  0  0  0  0  0  0  0  0  0  0
   57.6114   19.2875   45.3815 H   0  0  0  0  0  0  0  0  0  0  0  0
   57.1300   20.3060   47.2940 C   0  0  0  0  0  0  0  0  0  0  0  0
   57.1549   19.4651   48.0028 H   0  0  0  0  0  0  0  0  0  0  0  0
   56.8630   21.5830   47.6230 N   0  0  0  0  0  0  0  0  0  0  0  0
   56.6440   21.9350   48.5820 H   0  0  0  0  0  0  0  0  0  0  0  0
   55.4800   24.3540   46.1140 C   0  0  0  0  0  0  0  0  0  0  0  0
   54.5221   23.8584   45.8975 H   0  0  0  0  0  0  0  0  0  0  0  0
   55.7300   25.7030   46.1610 C   0  0  0  0  0  0  0  0  0  0  0  0
   54.7810   26.7070   46.0100 O   0  0  0  0  0  0  0  0  0  0  0  0
   56.6520   28.3860   44.9640 N   0  0  0  0  0  0  0  0  0  0  0  0
   56.0370   27.6370   44.5750 H   0  0  0  0  0  0  0  0  0  0  0  0
  1  2  1  0
  2  3  1  0
  2  4  2  0
  4  5  1  0
  5  6  1  0
  6  7  2  0
  6  8  1  0
  8  9  1  0
  8 10  1  0
 10 11  1  0
 10 12  1  0
 10 13  1  0
 13 14  1  0
 13 15  1  0
 13 16  1  0
 16 17  1  0
 16 18  1  0
 16 19  1  0
 19 20  1  0
 19 21  1  0
  5 22  2  0
 22 23  1  0
 23 24  1  0
 23 25  1  0
 23 26  1  0
 22 27  1  0
 27 28  2  0
 28 29  1  0
 28 30  1  0
 30 31  1  0
 31 32  1  0
 32 33  1  0
 33 34  2  0
 34 35  1  0
 34 36  1  0
 36 37  1  0
 36 38  2  0
 38 39  1  0
 38 40  1  0
 40 41  1  0
 32 42  2  0
 42 43  1  0
 42 44  1  0
 44 45  1  0
 27 46  1  0
 46 47  1  0
 46  4  1  0
 19  8  1  0
 44 30  2  0
 40 33  1  0
M  CHG  3   8   1  31  -1  45  -1
M  END
>  <UniqueID>  (4) 
4

>  <SMILES>  (4) 
C=c1[nH]/c(=C\c2[n-]c(-c3ccc[nH]3)cc2[O-])c(C)c1C(=O)[NH+]1CCCC1

>  <Energy>  (4) 
144.66490491391323

>  <Genealogy>  (4) 
C=c1[nH]c(=Cc2[n-]c(-c3ccc[nH]3)cc2[O-])c(C)c1C(=O)[NH+]1CCCC1 (protonated)
C=c1[nH]/c(=C\c2[n-]c(-c3ccc[nH]3)cc2[O-])c(C)c1C(=O)[NH+]1CCCC1 (cis-trans isomerization)
C=c1[nH]/c(=C\c2[n-]c(-c3ccc[nH]3)cc2[O-])c(C)c1C(=O)[NH+]1CCCC1 (3D coordinates assigned)
C=c1[nH]/c(=C\c2[n-]c(-c3ccc[nH]3)cc2[O-])c(C)c1C(=O)[NH+]1CCCC1 (nonaromatic ring conformer: 144.66490491391323 kcal/mol)

>  <smiles>  (4) 
C=c1[nH]c(=Cc2[nH]c(-c3ccc[nH]3)cc2O)c(C)c1C(=O)N1CCCC1

>  <score_type>  (4) 
oracle

>  <origin>  (4) 
adg

>  <m_score__min__energy>  (4) 
-12.15

>  <m_primary>  (4) 
energy

$$$$
4:0
     RDKit          3D

 37 39  0  0  0  0  0  0  0  0999 V2000
   55.8790   21.8850   45.7140 N   0  0  0  0  0  0  0  0  0  0  0  0
   55.5180   22.8260   44.3100 S   0  0  0  0  0  0  0  0  0  0  0  0
   54.0400   23.0960   44.2590 O   0  0  0  0  0  0  0  0  0  0  0  0
   55.9230   22.0720   43.0760 O   0  0  0  0  0  0  0  0  0  0  0  0
   56.3900   24.3440   44.3810 C   0  0  0  0  0  0  0  0  0  0  0  0
   57.2030   24.8570   43.3790 C   0  0  0  0  0  0  0  0  0  0  0  0
   57.8040   26.0730   43.7300 C   0  0  0  0  0  0  0  0  0  0  0  0
   57.4580   26.4980   45.0060 C   0  0  0  0  0  0  0  0  0  0  0  0
   58.0610   27.9380   45.8050 S   0  0  0  0  0  0  0  0  0  0  0  0
   59.5600   27.8820   45.8820 O   0  0  0  0  0  0  0  0  0  0  0  0
   57.4940   28.0330   47.1940 O   0  0  0  0  0  0  0  0  0  0  0  0
   57.5620   29.3250   44.8900 N   0  0  0  0  0  0  0  0  0  0  0  0
   56.3050   29.7180   44.6190 C   0  0  0  0  0  0  0  0  0  0  0  0
   55.1670   28.9600   44.8660 O   0  0  0  0  0  0  0  0  0  0  0  0
   56.3190   31.0050   44.1210 C   0  0  0  0  0  0  0  0  0  0  0  0
   57.6030   31.4220   44.0950 N   0  0  0  0  0  0  0  0  0  0  0  0
   58.0600   32.7960   43.8970 C   0  0  0  0  0  0  0  0  0  0  0  0
   58.5410   33.3580   45.2080 C   0  0  0  0  0  0  0  0  0  0  0  0
   59.2790   34.5520   45.2340 C   0  0  0  0  0  0  0  0  0  0  0  0
   59.6500   35.1240   46.4550 C   0  0  0  0  0  0  0  0  0  0  0  0
   59.2730   34.5180   47.6570 C   0  0  0  0  0  0  0  0  0  0  0  0
   58.5280   33.3360   47.6400 C   0  0  0  0  0  0  0  0  0  0  0  0
   58.1450   32.7390   48.8340 O   0  0  0  0  0  0  0  0  0  0  0  0
   58.1620   32.7570   46.4200 C   0  0  0  0  0  0  0  0  0  0  0  0
   58.3250   30.3890   44.5770 C   0  0  0  0  0  0  0  0  0  0  0  0
   59.5710   30.4350   44.7730 O   0  0  0  0  0  0  0  0  0  0  0  0
   56.4110   25.3800   45.7040 S   0  0  0  0  0  0  0  0  0  0  0  0
   56.8010   22.2180   46.0730 H   0  0  0  0  0  0  0  0  0  0  0  0
   57.3590   24.3602   42.4101 H   0  0  0  0  0  0  0  0  0  0  0  0
   58.4787   26.6321   43.0650 H   0  0  0  0  0  0  0  0  0  0  0  0
   55.4415   31.5868   43.8024 H   0  0  0  0  0  0  0  0  0  0  0  0
   58.8843   32.8070   43.1687 H   0  0  0  0  0  0  0  0  0  0  0  0
   57.2283   33.4083   43.5183 H   0  0  0  0  0  0  0  0  0  0  0  0
   59.5664   35.0393   44.2906 H   0  0  0  0  0  0  0  0  0  0  0  0
   60.2396   36.0525   46.4696 H   0  0  0  0  0  0  0  0  0  0  0  0
   59.5628   34.9717   48.6163 H   0  0  0  0  0  0  0  0  0  0  0  0
   57.5748   31.8269   46.4097 H   0  0  0  0  0  0  0  0  0  0  0  0
  1  2  1  0
  2  3  2  0
  2  4  2  0
  2  5  1  0
  5  6  2  0
  6  7  1  0
  7  8  2  0
  8  9  1  0
  9 10  2  0
  9 11  2  0
  9 12  1  0
 12 13  1  0
 13 14  1  0
 13 15  2  0
 15 16  1  0
 16 17  1  0
 17 18  1  0
 18 19  2  0
 19 20  1  0
 20 21  2  0
 21 22  1  0
 22 23  1  0
 22 24  2  0
 16 25  1  0
 25 26  2  0
  8 27  1  0
 27  5  1  0
 25 12  1  0
 24 18  1  0
  1 28  1  0
  6 29  1  0
  7 30  1  0
 15 31  1  0
 17 32  1  0
 17 33  1  0
 19 34  1  0
 20 35  1  0
 21 36  1  0
 24 37  1  0
M  CHG  3   1  -1  14  -1  23  -1
M  END
>  <UniqueID>  (5) 
5

>  <SMILES>  (5) 
[NH-]S(=O)(=O)c1ccc(S(=O)(=O)n2c([O-])cn(Cc3cccc([O-])c3)c2=O)s1

>  <Energy>  (5) 
99.4155188610859

>  <Genealogy>  (5) 
[NH-]S(=O)(=O)c1ccc(S(=O)(=O)n2c([O-])cn(Cc3cccc([O-])c3)c2=O)s1 (protonated)
[NH-]S(=O)(=O)c1ccc(S(=O)(=O)n2c([O-])cn(Cc3cccc([O-])c3)c2=O)s1 (3D coordinates assigned)
[NH-]S(=O)(=O)c1ccc(S(=O)(=O)n2c([O-])cn(Cc3cccc([O-])c3)c2=O)s1 (optimized conformer: 99.4155188610859 kcal/mol)

>  <smiles>  (5) 
NS(=O)(=O)c1ccc(S(=O)(=O)n2c(O)cn(Cc3cccc(O)c3)c2=O)s1

>  <score_type>  (5) 
oracle

>  <origin>  (5) 
adg

>  <m_score__min__energy>  (5) 
-14.300000000000001

>  <m_primary>  (5) 
energy

$$$$
5:0
     RDKit          3D

 49 52  0  0  0  0  0  0  0  0999 V2000
   56.0490   30.8100   53.8690 O   0  0  0  0  0  0  0  0  0  0  0  0
   55.8880   29.9210   52.9910 C   0  0  0  0  0  0  0  0  0  0  0  0
   57.0170   29.4940   52.2170 N   0  0  0  0  0  0  0  0  0  0  0  0
   57.7640   30.3030   51.2940 C   0  0  0  0  0  0  0  0  0  0  0  0
   57.7560   31.6940   51.4470 C   0  0  0  0  0  0  0  0  0  0  0  0
   58.4370   32.5140   50.5380 C   0  0  0  0  0  0  0  0  0  0  0  0
   59.1220   31.9490   49.4580 C   0  0  0  0  0  0  0  0  0  0  0  0
   59.7650   32.7870   48.5330 O   0  0  0  0  0  0  0  0  0  0  0  0
   59.1890   33.1990   47.3230 C   0  0  0  0  0  0  0  0  0  0  0  0
   59.5340   34.4480   46.7940 C   0  0  0  0  0  0  0  0  0  0  0  0
   58.9910   34.8500   45.5710 C   0  0  0  0  0  0  0  0  0  0  0  0
   58.1140   34.0480   44.9160 N   0  0  0  0  0  0  0  0  0  0  0  0
   57.7220   32.8420   45.4240 C   0  0  0  0  0  0  0  0  0  0  0  0
   56.8250   32.1170   44.8250 N   0  0  0  0  0  0  0  0  0  0  0  0
   57.0730   30.9740   43.9860 C   0  0  0  0  0  0  0  0  0  0  0  0
   56.9910   31.0800   42.7310 O   0  0  0  0  0  0  0  0  0  0  0  0
   57.4750   29.6790   44.6030 C   0  0  0  0  0  0  0  0  0  0  0  0
   58.8460   29.3890   44.7810 C   0  0  0  0  0  0  0  0  0  0  0  0
   59.2500   28.1910   45.3850 C   0  0  0  0  0  0  0  0  0  0  0  0
   60.6030   27.9190   45.5530 O   0  0  0  0  0  0  0  0  0  0  0  0
   58.2950   27.2690   45.8200 C   0  0  0  0  0  0  0  0  0  0  0  0
   56.9330   27.5340   45.6470 C   0  0  0  0  0  0  0  0  0  0  0  0
   56.5180   28.7310   45.0440 C   0  0  0  0  0  0  0  0  0  0  0  0
   55.1520   28.9560   44.8900 O   0  0  0  0  0  0  0  0  0  0  0  0
   58.2590   32.4040   46.6400 C   0  0  0  0  0  0  0  0  0  0  0  0
   59.1800   30.5520   49.3340 C   0  0  0  0  0  0  0  0  0  0  0  0
   58.5160   29.7330   50.2520 C   0  0  0  0  0  0  0  0  0  0  0  0
   54.5770   29.3680   52.7900 N   0  0  0  0  0  0  0  0  0  0  0  0
   53.4840   30.0040   52.1120 C   0  0  0  0  0  0  0  0  0  0  0  0
   53.2100   29.7460   50.7560 C   0  0  0  0  0  0  0  0  0  0  0  0
   52.1470   30.3940   50.1170 C   0  0  0  0  0  0  0  0  0  0  0  0
   51.3560   31.3070   50.8230 C   0  0  0  0  0  0  0  0  0  0  0  0
   51.6310   31.5800   52.1700 C   0  0  0  0  0  0  0  0  0  0  0  0
   50.6490   32.7320   53.0570 Cl  0  0  0  0  0  0  0  0  0  0  0  0
   52.6980   30.9340   52.8100 C   0  0  0  0  0  0  0  0  0  0  0  0
   57.2105   32.1472   52.2879 H   0  0  0  0  0  0  0  0  0  0  0  0
   58.4328   33.6055   50.6743 H   0  0  0  0  0  0  0  0  0  0  0  0
   60.2270   35.1078   47.3367 H   0  0  0  0  0  0  0  0  0  0  0  0
   59.2755   35.8201   45.1375 H   0  0  0  0  0  0  0  0  0  0  0  0
   59.6038   30.1107   44.4421 H   0  0  0  0  0  0  0  0  0  0  0  0
   58.6152   26.3323   46.2997 H   0  0  0  0  0  0  0  0  0  0  0  0
   56.1847   26.8019   45.9846 H   0  0  0  0  0  0  0  0  0  0  0  0
   57.9508   31.4351   47.0598 H   0  0  0  0  0  0  0  0  0  0  0  0
   59.7510   30.0992   48.5100 H   0  0  0  0  0  0  0  0  0  0  0  0
   58.5822   28.6390   50.1587 H   0  0  0  0  0  0  0  0  0  0  0  0
   53.8333   29.0328   50.1967 H   0  0  0  0  0  0  0  0  0  0  0  0
   51.9330   30.1853   49.0584 H   0  0  0  0  0  0  0  0  0  0  0  0
   50.5174   31.8111   50.3204 H   0  0  0  0  0  0  0  0  0  0  0  0
   52.9202   31.1570   53.8640 H   0  0  0  0  0  0  0  0  0  0  0  0
  1  2  2  0
  2  3  1  0
  3  4  1  0
  4  5  2  0
  5  6  1  0
  6  7  2  0
  7  8  1  0
  8  9  1  0
  9 10  1  0
 10 11  2  0
 11 12  1  0
 12 13  1  0
 13 14  2  3
 14 15  1  0
 15 16  2  0
 15 17  1  0
 17 18  2  0
 18 19  1  0
 19 20  1  0
 19 21  2  0
 21 22  1  0
 22 23  2  0
 23 24  1  0
 13 25  1  0
  7 26  1  0
 26 27  2  0
  2 28  1  0
 28 29  1  0
 29 30  2  0
 30 31  1  0
 31 32  2  0
 32 33  1  0
 33 34  1  0
 33 35  2  0
 27  4  1  0
 35 29  1  0
 25  9  2  0
 23 17  1  0
  5 36  1  0
  6 37  1  0
 10 38  1  0
 11 39  1  0
 18 40  1  0
 21 41  1  0
 22 42  1  0
 25 43  1  0
 26 44  1  0
 27 45  1  0
 30 46  1  0
 31 47  1  0
 32 48  1  0
 35 49  1  0
M  CHG  5   3  -1  12  -1  20  -1  24  -1  28  -1
M  END
>  <UniqueID>  (6) 
6

>  <SMILES>  (6) 
O=C([N-]c1ccc(Oc2cc[n-]c(=NC(=O)c3cc([O-])ccc3[O-])c2)cc1)[N-]c1cccc(Cl)c1

>  <Energy>  (6) 
72.13094731265228

>  <Genealogy>  (6) 
O=C([N-]c1ccc(Oc2cc[n-]c(=NC(=O)c3cc([O-])ccc3[O-])c2)cc1)[N-]c1cccc(Cl)c1 (protonated)
O=C([N-]c1ccc(Oc2cc[n-]c(=NC(=O)c3cc([O-])ccc3[O-])c2)cc1)[N-]c1cccc(Cl)c1 (3D coordinates assigned)
O=C([N-]c1ccc(Oc2cc[n-]c(=NC(=O)c3cc([O-])ccc3[O-])c2)cc1)[N-]c1cccc(Cl)c1 (optimized conformer: 72.13094731265228 kcal/mol)

>  <smiles>  (6) 
O=C(Nc1ccc(Oc2cc[nH]c(=NC(=O)c3cc(O)ccc3O)c2)cc1)Nc1cccc(Cl)c1

>  <score_type>  (6) 
oracle

>  <origin>  (6) 
adg

>  <m_score__min__energy>  (6) 
-18.609999999999999

>  <m_primary>  (6) 
energy

$$$$
6:0
     RDKit          3D

 35 37  0  0  0  0  0  0  0  0999 V2000
   58.8900   34.4367   46.4624 H   0  0  0  0  0  0  0  0  0  0  0  0
   58.7560   33.3740   46.2120 C   0  0  0  0  0  0  0  0  0  0  0  0
   59.7620   32.4460   46.5360 C   0  0  0  0  0  0  0  0  0  0  0  0
   60.9540   32.8240   47.1730 O   0  0  0  0  0  0  0  0  0  0  0  0
   61.8420   33.8270   46.6910 C   0  0  0  0  0  0  0  0  0  0  0  0
   62.3034   34.3482   47.5427 H   0  0  0  0  0  0  0  0  0  0  0  0
   62.6268   33.3585   46.0789 H   0  0  0  0  0  0  0  0  0  0  0  0
   61.2819   34.5492   46.0789 H   0  0  0  0  0  0  0  0  0  0  0  0
   59.5830   31.0950   46.2160 C   0  0  0  0  0  0  0  0  0  0  0  0
   60.3685   30.3684   46.4713 H   0  0  0  0  0  0  0  0  0  0  0  0
   58.4080   30.6520   45.5700 C   0  0  0  0  0  0  0  0  0  0  0  0
   58.1850   29.2920   45.2230 C   0  0  0  0  0  0  0  0  0  0  0  0
   59.1980   28.1990   45.4860 C   0  0  0  0  0  0  0  0  0  0  0  0
   59.2506   27.5354   44.6103 H   0  0  0  0  0  0  0  0  0  0  0  0
   60.1796   28.6596   45.6710 H   0  0  0  0  0  0  0  0  0  0  0  0
   58.8030   27.3990   46.6880 C   0  0  0  0  0  0  0  0  0  0  0  0
   59.6980   26.9640   47.4640 O   0  0  0  0  0  0  0  0  0  0  0  0
   57.4110   27.1610   46.9530 N   0  0  0  0  0  0  0  0  0  0  0  0
   56.6510   26.3030   46.3430 C   0  0  0  0  0  0  0  0  0  0  0  0
   55.2990   26.3270   46.3600 N   0  0  0  0  0  0  0  0  0  0  0  0
   54.7540   25.3380   45.6550 N   0  0  0  0  0  0  0  0  0  0  0  0
   55.6700   24.5350   45.0660 C   0  0  0  0  0  0  0  0  0  0  0  0
   55.3150   23.3200   44.2800 C   0  0  0  0  0  0  0  0  0  0  0  0
   55.0742   22.4959   44.9676 H   0  0  0  0  0  0  0  0  0  0  0  0
   54.4423   23.5355   43.6460 H   0  0  0  0  0  0  0  0  0  0  0  0
   56.1665   23.0317   43.6460 H   0  0  0  0  0  0  0  0  0  0  0  0
   57.2430   25.0200   45.4320 S   0  0  0  0  0  0  0  0  0  0  0  0
   56.9940   28.9480   44.5610 C   0  0  0  0  0  0  0  0  0  0  0  0
   56.8108   27.9033   44.2692 H   0  0  0  0  0  0  0  0  0  0  0  0
   56.0440   29.9270   44.2730 C   0  0  0  0  0  0  0  0  0  0  0  0
   54.9740   29.6150   43.6870 O   0  0  0  0  0  0  0  0  0  0  0  0
   56.2690   31.2170   44.6220 N   0  0  0  0  0  0  0  0  0  0  0  0
   57.4100   31.6050   45.2510 C   0  0  0  0  0  0  0  0  0  0  0  0
   57.5900   32.9530   45.5750 C   0  0  0  0  0  0  0  0  0  0  0  0
   56.8076   33.6850   45.3260 H   0  0  0  0  0  0  0  0  0  0  0  0
  1  2  1  0
  2  3  2  0
  3  4  1  0
  4  5  1  0
  5  6  1  0
  5  7  1  0
  5  8  1  0
  3  9  1  0
  9 10  1  0
  9 11  2  0
 11 12  1  0
 12 13  1  0
 13 14  1  0
 13 15  1  0
 13 16  1  0
 16 17  2  0
 16 18  1  0
 18 19  2  0
 19 20  1  0
 20 21  1  0
 21 22  2  0
 22 23  1  0
 23 24  1  0
 23 25  1  0
 23 26  1  0
 22 27  1  0
 12 28  2  0
 28 29  1  0
 28 30  1  0
 30 31  2  0
 30 32  1  0
 32 33  1  0
 33 34  2  0
 34 35  1  0
 34  2  1  0
 33 11  1  0
 27 19  1  0
M  CHG  2  20  -1  32  -1
M  END
>  <UniqueID>  (7) 
7

>  <SMILES>  (7) 
COc1ccc2[n-]c(=O)cc(CC(=O)/N=c3\[n-]nc(C)s3)c2c1

>  <Energy>  (7) 
75.32111004992957

>  <Genealogy>  (7) 
COc1ccc2[n-]c(=O)cc(CC(=O)N=c3[n-]nc(C)s3)c2c1 (protonated)
COc1ccc2[n-]c(=O)cc(CC(=O)/N=c3\[n-]nc(C)s3)c2c1 (cis-trans isomerization)
COc1ccc2[n-]c(=O)cc(CC(=O)/N=c3\[n-]nc(C)s3)c2c1 (3D coordinates assigned)
COc1ccc2[n-]c(=O)cc(CC(=O)/N=c3\[n-]nc(C)s3)c2c1 (optimized conformer: 75.32111004992957 kcal/mol)

>  <smiles>  (7) 
COc1ccc2[nH]c(=O)cc(CC(=O)N=c3[nH]nc(C)s3)c2c1

>  <score_type>  (7) 
oracle

>  <origin>  (7) 
adg

>  <m_score__min__energy>  (7) 
-11.1

>  <m_primary>  (7) 
energy

$$$$
7:0
     RDKit          3D

 58 61  0  0  0  0  0  0  0  0999 V2000
   54.1130   28.1730   53.5490 C   0  0  0  0  0  0  0  0  0  0  0  0
   54.5670   29.2900   52.9510 C   0  0  0  0  0  0  0  0  0  0  0  0
   53.7950   30.2740   52.3110 C   0  0  0  0  0  0  0  0  0  0  0  0
   52.4600   30.4310   52.1980 C   0  0  0  0  0  0  0  0  0  0  0  0
   51.7370   30.8200   50.9810 C   0  0  0  0  0  0  0  0  0  0  0  0
   51.6890   30.0650   49.8660 N   0  0  0  0  0  0  0  0  0  0  0  0
   51.0070   30.8390   48.9940 C   0  0  0  0  0  0  0  0  0  0  0  0
   50.7330   30.4620   47.8240 O   0  0  0  0  0  0  0  0  0  0  0  0
   50.6430   32.0480   49.4770 N   0  0  0  0  0  0  0  0  0  0  0  0
   51.1230   32.0240   50.7320 C   0  0  0  0  0  0  0  0  0  0  0  0
   51.0120   33.0810   51.6280 O   0  0  0  0  0  0  0  0  0  0  0  0
   54.6940   31.1690   51.7630 C   0  0  0  0  0  0  0  0  0  0  0  0
   55.9620   30.7480   52.1080 C   0  0  0  0  0  0  0  0  0  0  0  0
   57.1880   31.5010   51.7540 C   0  0  0  0  0  0  0  0  0  0  0  0
   57.7980   32.1850   52.6150 O   0  0  0  0  0  0  0  0  0  0  0  0
   57.6570   31.4670   50.3980 N   0  0  0  0  0  0  0  0  0  0  0  0
   58.8940   30.8420   49.9130 C   0  0  2  0  0  0  0  0  0  0  0  0
   59.3530   29.7040   50.8490 C   0  0  0  0  0  0  0  0  0  0  0  0
   60.8590   29.4180   50.6760 C   0  0  0  0  0  0  0  0  0  0  0  0
   61.2810   29.7360   49.3630 O   0  0  0  0  0  0  0  0  0  0  0  0
   61.3020   31.1460   49.1670 C   0  0  0  0  0  0  0  0  0  0  0  0
   60.0330   31.8700   49.7060 C   0  0  1  0  0  0  0  0  0  0  0  0
   59.6350   33.0100   48.7850 C   0  0  0  0  0  0  0  0  0  0  0  0
   59.8560   34.1990   49.1570 O   0  0  0  0  0  0  0  0  0  0  0  0
   58.8950   32.7800   47.5600 N   0  0  0  0  0  0  0  0  0  0  0  0
   58.1010   33.8910   47.0170 C   0  0  0  0  0  0  0  0  0  0  0  0
   57.0430   33.3690   46.0430 C   0  0  0  0  0  0  0  0  0  0  0  0
   57.6340   32.5430   45.0620 O   0  0  0  0  0  0  0  0  0  0  0  0
   58.1390   31.3750   45.6740 C   0  0  0  0  0  0  0  0  0  0  0  0
   59.2920   31.7110   46.6280 C   0  0  0  0  0  0  0  0  0  0  0  0
   55.8920   29.5890   52.8130 N   0  0  0  0  0  0  0  0  0  0  0  0
   57.0270   28.7840   53.2980 C   0  0  0  0  0  0  0  0  0  0  0  0
   57.6960   29.4670   54.4850 C   0  0  0  0  0  0  0  0  0  0  0  0
   54.8207   27.4742   54.0189 H   0  0  0  0  0  0  0  0  0  0  0  0
   53.0342   27.9589   53.5678 H   0  0  0  0  0  0  0  0  0  0  0  0
   51.8578   30.2510   53.1007 H   0  0  0  0  0  0  0  0  0  0  0  0
   54.4443   32.0554   51.1614 H   0  0  0  0  0  0  0  0  0  0  0  0
   58.6603   30.4102   48.9286 H   0  0  0  0  0  0  0  0  0  0  0  0
   59.1600   29.9962   51.8918 H   0  0  0  0  0  0  0  0  0  0  0  0
   58.7921   28.7929   50.5935 H   0  0  0  0  0  0  0  0  0  0  0  0
   61.4270   30.0264   51.3952 H   0  0  0  0  0  0  0  0  0  0  0  0
   61.0387   28.3478   50.8558 H   0  0  0  0  0  0  0  0  0  0  0  0
   62.1821   31.5558   49.6842 H   0  0  0  0  0  0  0  0  0  0  0  0
   61.3356   31.3200   48.0814 H   0  0  0  0  0  0  0  0  0  0  0  0
   60.2516   32.3221   50.6847 H   0  0  0  0  0  0  0  0  0  0  0  0
   57.6027   34.4178   47.8442 H   0  0  0  0  0  0  0  0  0  0  0  0
   58.7715   34.5772   46.4789 H   0  0  0  0  0  0  0  0  0  0  0  0
   56.2936   32.7882   46.6007 H   0  0  0  0  0  0  0  0  0  0  0  0
   56.5668   34.2261   45.5444 H   0  0  0  0  0  0  0  0  0  0  0  0
   57.3322   30.8884   46.2417 H   0  0  0  0  0  0  0  0  0  0  0  0
   58.5168   30.7028   44.8896 H   0  0  0  0  0  0  0  0  0  0  0  0
   59.5609   30.8118   47.2018 H   0  0  0  0  0  0  0  0  0  0  0  0
   60.1537   32.0556   46.0374 H   0  0  0  0  0  0  0  0  0  0  0  0
   56.6622   27.7937   53.6083 H   0  0  0  0  0  0  0  0  0  0  0  0
   57.7621   28.6796   52.4864 H   0  0  0  0  0  0  0  0  0  0  0  0
   57.2918   29.0543   55.4211 H   0  0  0  0  0  0  0  0  0  0  0  0
   58.7812   29.2913   54.4453 H   0  0  0  0  0  0  0  0  0  0  0  0
   57.4979   30.5483   54.4453 H   0  0  0  0  0  0  0  0  0  0  0  0
  1  2  2  0
  2  3  1  0
  3  4  2  3
  4  5  1  0
  5  6  1  0
  6  7  1  0
  7  8  2  0
  7  9  1  0
  9 10  1  0
 10 11  1  0
  3 12  1  0
 12 13  2  0
 13 14  1  0
 14 15  2  0
 14 16  1  0
 16 17  1  0
 17 18  1  0
 18 19  1  0
 19 20  1  0
 20 21  1  0
 21 22  1  0
 22 23  1  0
 23 24  2  0
 23 25  1  0
 25 26  1  0
 26 27  1  0
 27 28  1  0
 28 29  1  0
 29 30  1  0
 13 31  1  0
 31 32  1  0
 32 33  1  0
 31  2  1  0
 10  5  2  0
 22 17  1  0
 30 25  1  0
  1 34  1  0
  1 35  1  0
  4 36  1  0
 12 37  1  0
 17 38  1  6
 18 39  1  0
 18 40  1  0
 19 41  1  0
 19 42  1  0
 21 43  1  0
 21 44  1  0
 22 45  1  1
 26 46  1  0
 26 47  1  0
 27 48  1  0
 27 49  1  0
 29 50  1  0
 29 51  1  0
 30 52  1  0
 30 53  1  0
 32 54  1  0
 32 55  1  0
 33 56  1  0
 33 57  1  0
 33 58  1  0
M  CHG  4   6  -1   9  -1  11  -1  16  -1
M  END
>  <UniqueID>  (8) 
8

>  <SMILES>  (8) 
C=c1c(=Cc2[n-]c(=O)[n-]c2[O-])cc(C(=O)[N-][C@@H]2CCOC[C@H]2C(=O)N2CCOCC2)n1CC

>  <Energy>  (8) 
142.53813833308075

>  <Genealogy>  (8) 
C=c1c(=Cc2[n-]c(=O)[n-]c2[O-])cc(C(=O)[N-]C2CCOCC2C(=O)N2CCOCC2)n1CC (protonated)
C=c1c(=Cc2[n-]c(=O)[n-]c2[O-])cc(C(=O)[N-][C@@H]2CCOC[C@H]2C(=O)N2CCOCC2)n1CC (chirality)
C=c1c(=Cc2[n-]c(=O)[n-]c2[O-])cc(C(=O)[N-][C@@H]2CCOC[C@H]2C(=O)N2CCOCC2)n1CC (3D coordinates assigned)
C=c1c(=Cc2[n-]c(=O)[n-]c2[O-])cc(C(=O)[N-][C@@H]2CCOC[C@H]2C(=O)N2CCOCC2)n1CC (nonaromatic ring conformer: 142.53813833308075 kcal/mol)

>  <smiles>  (8) 
C=c1c(=Cc2[nH]c(=O)[nH]c2O)cc(C(=O)NC2CCOCC2C(=O)N2CCOCC2)n1CC

>  <score_type>  (8) 
oracle

>  <origin>  (8) 
adg

>  <m_score__min__energy>  (8) 
-18.809999999999999

>  <m_primary>  (8) 
energy

$$$$
8:0
     RDKit          3D

 63 66  0  0  0  0  0  0  0  0999 V2000
   58.3990   29.9570   44.6960 C   0  0  0  0  0  0  0  0  0  0  0  0
   56.8000   30.5980   44.2540 S   0  0  0  0  0  0  0  0  0  0  0  0
   56.6620   30.5780   42.7600 O   0  0  0  0  0  0  0  0  0  0  0  0
   55.7380   29.7380   44.8790 O   0  0  0  0  0  0  0  0  0  0  0  0
   56.6720   32.2210   44.8530 N   0  0  0  0  0  0  0  0  0  0  0  0
   57.5630   32.8290   45.7950 C   0  0  0  0  0  0  0  0  0  0  0  0
   57.8030   32.1730   47.0050 C   0  0  0  0  0  0  0  0  0  0  0  0
   58.6530   32.7350   47.9610 C   0  0  0  0  0  0  0  0  0  0  0  0
   59.2810   33.9650   47.7140 C   0  0  0  0  0  0  0  0  0  0  0  0
   60.1820   34.5760   48.7600 C   0  0  0  0  0  0  0  0  0  0  0  0
   61.6530   34.1560   48.5880 C   0  0  0  0  0  0  0  0  0  0  0  0
   61.8400   32.8910   47.7770 C   0  0  0  0  0  0  0  0  0  0  0  0
   62.0490   32.9630   46.5360 O   0  0  0  0  0  0  0  0  0  0  0  0
   61.9620   31.6100   48.4100 N   0  0  0  0  0  0  0  0  0  0  0  0
   61.2510   31.1520   49.5660 C   0  0  0  0  0  0  0  0  0  0  0  0
   61.5970   31.5850   50.8540 C   0  0  0  0  0  0  0  0  0  0  0  0
   60.8480   31.1730   51.9590 C   0  0  0  0  0  0  0  0  0  0  0  0
   59.7280   30.3430   51.7880 C   0  0  0  0  0  0  0  0  0  0  0  0
   58.8940   29.9340   52.9760 C   0  0  0  0  0  0  0  0  0  0  0  0
   57.4580   30.1950   52.7190 N   0  0  0  0  0  0  0  0  0  0  0  0
   56.5630   29.1640   52.8920 C   0  0  0  0  0  0  0  0  0  0  0  0
   56.9570   28.0170   53.2350 O   0  0  0  0  0  0  0  0  0  0  0  0
   55.2000   29.3630   52.6800 C   0  0  0  0  0  0  0  0  0  0  0  0
   54.7530   30.6180   52.2720 C   0  0  0  0  0  0  0  0  0  0  0  0
   53.3690   30.8530   51.9440 N   0  0  0  0  0  0  0  0  0  0  0  0
   52.4670   31.2210   53.0440 C   0  0  0  0  0  0  0  0  0  0  0  0
   51.0130   31.3950   52.5930 C   0  0  0  0  0  0  0  0  0  0  0  0
   50.9500   31.9920   51.3200 O   0  0  0  0  0  0  0  0  0  0  0  0
   51.4320   31.0760   50.3640 C   0  0  0  0  0  0  0  0  0  0  0  0
   52.9420   30.8400   50.5320 C   0  0  0  0  0  0  0  0  0  0  0  0
   55.6610   31.6120   52.1040 N   0  0  0  0  0  0  0  0  0  0  0  0
   56.9870   31.4310   52.3290 C   0  0  0  0  0  0  0  0  0  0  0  0
   57.9720   32.7270   52.1000 S   0  0  0  0  0  0  0  0  0  0  0  0
   59.3720   29.9330   50.4940 C   0  0  0  0  0  0  0  0  0  0  0  0
   60.1200   30.3500   49.3910 C   0  0  0  0  0  0  0  0  0  0  0  0
   59.0600   34.6140   46.4900 C   0  0  0  0  0  0  0  0  0  0  0  0
   58.2010   34.0550   45.5370 C   0  0  0  0  0  0  0  0  0  0  0  0
   58.4894   29.9208   45.7917 H   0  0  0  0  0  0  0  0  0  0  0  0
   58.5141   28.9432   44.2848 H   0  0  0  0  0  0  0  0  0  0  0  0
   59.1825   30.6106   44.2848 H   0  0  0  0  0  0  0  0  0  0  0  0
   57.3188   31.2061   47.2067 H   0  0  0  0  0  0  0  0  0  0  0  0
   58.8306   32.2107   48.9116 H   0  0  0  0  0  0  0  0  0  0  0  0
   60.1168   35.6715   48.6856 H   0  0  0  0  0  0  0  0  0  0  0  0
   59.8444   34.2170   49.7434 H   0  0  0  0  0  0  0  0  0  0  0  0
   62.1896   34.9731   48.0836 H   0  0  0  0  0  0  0  0  0  0  0  0
   62.0457   33.9504   49.5947 H   0  0  0  0  0  0  0  0  0  0  0  0
   62.4609   32.2512   50.9948 H   0  0  0  0  0  0  0  0  0  0  0  0
   61.1371   31.5005   52.9686 H   0  0  0  0  0  0  0  0  0  0  0  0
   59.0380   28.8602   53.1665 H   0  0  0  0  0  0  0  0  0  0  0  0
   59.2104   30.5210   53.8508 H   0  0  0  0  0  0  0  0  0  0  0  0
   54.4864   28.5400   52.8328 H   0  0  0  0  0  0  0  0  0  0  0  0
   52.5049   30.4304   53.8078 H   0  0  0  0  0  0  0  0  0  0  0  0
   52.8073   32.1897   53.4386 H   0  0  0  0  0  0  0  0  0  0  0  0
   50.5280   30.4085   52.5526 H   0  0  0  0  0  0  0  0  0  0  0  0
   50.4974   32.0474   53.3130 H   0  0  0  0  0  0  0  0  0  0  0  0
   50.9035   30.1190   50.4857 H   0  0  0  0  0  0  0  0  0  0  0  0
   51.2540   31.4926   49.3616 H   0  0  0  0  0  0  0  0  0  0  0  0
   53.1954   29.8619   50.0972 H   0  0  0  0  0  0  0  0  0  0  0  0
   53.4646   31.6617   50.0204 H   0  0  0  0  0  0  0  0  0  0  0  0
   58.4992   29.2797   50.3478 H   0  0  0  0  0  0  0  0  0  0  0  0
   59.8172   30.0454   48.3783 H   0  0  0  0  0  0  0  0  0  0  0  0
   59.5649   35.5680   46.2781 H   0  0  0  0  0  0  0  0  0  0  0  0
   58.0247   34.5758   44.5843 H   0  0  0  0  0  0  0  0  0  0  0  0
  1  2  1  0
  2  3  2  0
  2  4  2  0
  2  5  1  0
  5  6  1  0
  6  7  2  0
  7  8  1  0
  8  9  2  0
  9 10  1  0
 10 11  1  0
 11 12  1  0
 12 13  2  0
 12 14  1  0
 14 15  1  0
 15 16  2  0
 16 17  1  0
 17 18  2  0
 18 19  1  0
 19 20  1  0
 20 21  1  0
 21 22  2  0
 21 23  1  0
 23 24  2  0
 24 25  1  0
 25 26  1  0
 26 27  1  0
 27 28  1  0
 28 29  1  0
 29 30  1  0
 24 31  1  0
 31 32  1  0
 32 33  2  0
 18 34  1  0
 34 35  2  0
  9 36  1  0
 36 37  2  0
 37  6  1  0
 35 15  1  0
 32 20  1  0
 30 25  1  0
  1 38  1  0
  1 39  1  0
  1 40  1  0
  7 41  1  0
  8 42  1  0
 10 43  1  0
 10 44  1  0
 11 45  1  0
 11 46  1  0
 16 47  1  0
 17 48  1  0
 19 49  1  0
 19 50  1  0
 23 51  1  0
 26 52  1  0
 26 53  1  0
 27 54  1  0
 27 55  1  0
 29 56  1  0
 29 57  1  0
 30 58  1  0
 30 59  1  0
 34 60  1  0
 35 61  1  0
 36 62  1  0
 37 63  1  0
M  CHG  3   5  -1  14  -1  31  -1
M  END
>  <UniqueID>  (9) 
9

>  <SMILES>  (9) 
CS(=O)(=O)[N-]c1ccc(CCC(=O)[N-]c2ccc(Cn3c(=O)cc(N4CCOCC4)[n-]c3=S)cc2)cc1

>  <Energy>  (9) 
84.61023372232

>  <Genealogy>  (9) 
CS(=O)(=O)[N-]c1ccc(CCC(=O)[N-]c2ccc(Cn3c(=O)cc(N4CCOCC4)[n-]c3=S)cc2)cc1 (protonated)
CS(=O)(=O)[N-]c1ccc(CCC(=O)[N-]c2ccc(Cn3c(=O)cc(N4CCOCC4)[n-]c3=S)cc2)cc1 (3D coordinates assigned)
CS(=O)(=O)[N-]c1ccc(CCC(=O)[N-]c2ccc(Cn3c(=O)cc(N4CCOCC4)[n-]c3=S)cc2)cc1 (nonaromatic ring conformer: 84.61023372232 kcal/mol)

>  <smiles>  (9) 
CS(=O)(=O)Nc1ccc(CCC(=O)Nc2ccc(Cn3c(=O)cc(N4CCOCC4)[nH]c3=S)cc2)cc1

>  <score_type>  (9) 
oracle

>  <origin>  (9) 
adg

>  <m_score__min__energy>  (9) 
-14.99

>  <m_primary>  (9) 
energy

$$$$
9:0
     RDKit          3D

 45 48  0  0  0  0  0  0  0  0999 V2000
   55.1950   29.3130   44.8980 O   0  0  0  0  0  0  0  0  0  0  0  0
   55.9500   30.1150   44.2880 C   0  0  0  0  0  0  0  0  0  0  0  0
   56.7830   29.6080   43.1430 C   0  0  0  0  0  0  0  0  0  0  0  0
   57.4770   28.4160   43.5150 O   0  0  0  0  0  0  0  0  0  0  0  0
   58.1050   28.1970   44.7520 C   0  0  0  0  0  0  0  0  0  0  0  0
   57.9930   26.9830   45.4550 C   0  0  0  0  0  0  0  0  0  0  0  0
   58.6390   26.8070   46.6850 C   0  0  0  0  0  0  0  0  0  0  0  0
   58.5030   25.5880   47.3430 O   0  0  0  0  0  0  0  0  0  0  0  0
   59.4110   27.8570   47.2330 C   0  0  0  0  0  0  0  0  0  0  0  0
   60.0850   27.7550   48.4660 C   0  0  0  0  0  0  0  0  0  0  0  0
   60.0360   26.7020   49.1580 O   0  0  0  0  0  0  0  0  0  0  0  0
   60.8240   28.8410   48.9380 C   0  0  0  0  0  0  0  0  0  0  0  0
   60.8870   30.0170   48.1740 C   0  0  0  0  0  0  0  0  0  0  0  0
   61.6530   31.2040   48.6270 C   0  0  0  0  0  0  0  0  0  0  0  0
   61.5370   31.7010   49.9400 C   0  0  0  0  0  0  0  0  0  0  0  0
   62.2790   32.8150   50.3430 C   0  0  0  0  0  0  0  0  0  0  0  0
   63.1460   33.4430   49.4470 C   0  0  0  0  0  0  0  0  0  0  0  0
   63.2820   32.9560   48.1440 C   0  0  0  0  0  0  0  0  0  0  0  0
   64.1540   33.5880   47.2620 O   0  0  0  0  0  0  0  0  0  0  0  0
   62.5410   31.8370   47.7380 C   0  0  0  0  0  0  0  0  0  0  0  0
   60.2310   30.0830   47.0160 O   0  0  0  0  0  0  0  0  0  0  0  0
   59.5150   29.0760   46.5250 C   0  0  0  0  0  0  0  0  0  0  0  0
   58.8660   29.2340   45.2980 C   0  0  0  0  0  0  0  0  0  0  0  0
   56.0250   31.4750   44.7390 N   0  0  0  0  0  0  0  0  0  0  0  0
   57.2200   32.2040   45.0530 C   0  0  0  0  0  0  0  0  0  0  0  0
   57.7760   32.0770   46.3330 C   0  0  0  0  0  0  0  0  0  0  0  0
   58.9260   32.7970   46.6790 C   0  0  0  0  0  0  0  0  0  0  0  0
   59.5140   33.6620   45.7520 C   0  0  0  0  0  0  0  0  0  0  0  0
   58.9510   33.8150   44.4830 C   0  0  0  0  0  0  0  0  0  0  0  0
   57.8010   33.0980   44.1350 C   0  0  0  0  0  0  0  0  0  0  0  0
   56.1272   29.3921   42.2867 H   0  0  0  0  0  0  0  0  0  0  0  0
   57.5206   30.3781   42.8729 H   0  0  0  0  0  0  0  0  0  0  0  0
   57.3917   26.1637   45.0339 H   0  0  0  0  0  0  0  0  0  0  0  0
   61.3526   28.7759   49.9005 H   0  0  0  0  0  0  0  0  0  0  0  0
   60.8583   31.2094   50.6526 H   0  0  0  0  0  0  0  0  0  0  0  0
   62.1794   33.1980   51.3693 H   0  0  0  0  0  0  0  0  0  0  0  0
   63.7233   34.3229   49.7671 H   0  0  0  0  0  0  0  0  0  0  0  0
   64.9020   33.0820   46.8020 H   0  0  0  0  0  0  0  0  0  0  0  0
   62.6551   31.4503   46.7145 H   0  0  0  0  0  0  0  0  0  0  0  0
   58.9551   30.1865   44.7550 H   0  0  0  0  0  0  0  0  0  0  0  0
   57.3067   31.4083   47.0696 H   0  0  0  0  0  0  0  0  0  0  0  0
   59.3666   32.6818   47.6803 H   0  0  0  0  0  0  0  0  0  0  0  0
   60.4210   34.2228   46.0221 H   0  0  0  0  0  0  0  0  0  0  0  0
   59.4122   34.5000   43.7563 H   0  0  0  0  0  0  0  0  0  0  0  0
   57.3499   33.2336   43.1410 H   0  0  0  0  0  0  0  0  0  0  0  0
  1  2  2  0
  2  3  1  0
  3  4  1  0
  4  5  1  0
  5  6  2  0
  6  7  1  0
  7  8  1  0
  7  9  2  0
  9 10  1  0
 10 11  2  0
 10 12  1  0
 12 13  2  0
 13 14  1  0
 14 15  2  0
 15 16  1  0
 16 17  2  0
 17 18  1  0
 18 19  1  0
 18 20  2  0
 13 21  1  0
 21 22  1  0
 22 23  2  0
  2 24  1  0
 24 25  1  0
 25 26  2  0
 26 27  1  0
 27 28  2  0
 28 29  1  0
 29 30  2  0
 23  5  1  0
 30 25  1  0
 22  9  1  0
 20 14  1  0
  3 31  1  0
  3 32  1  0
  6 33  1  0
 12 34  1  0
 15 35  1  0
 16 36  1  0
 17 37  1  0
 19 38  1  0
 20 39  1  0
 23 40  1  0
 26 41  1  0
 27 42  1  0
 28 43  1  0
 29 44  1  0
 30 45  1  0
M  CHG  2   8  -1  24  -1
M  END
>  <UniqueID>  (10) 
10

>  <SMILES>  (10) 
O=C(COc1cc([O-])c2c(=O)cc(-c3cccc(O)c3)oc2c1)[N-]c1ccccc1

>  <Energy>  (10) 
64.0953445280833

>  <Genealogy>  (10) 
O=C(COc1cc([O-])c2c(=O)cc(-c3cccc(O)c3)oc2c1)[N-]c1ccccc1 (protonated)
O=C(COc1cc([O-])c2c(=O)cc(-c3cccc(O)c3)oc2c1)[N-]c1ccccc1 (3D coordinates assigned)
O=C(COc1cc([O-])c2c(=O)cc(-c3cccc(O)c3)oc2c1)[N-]c1ccccc1 (optimized conformer: 64.0953445280833 kcal/mol)

>  <smiles>  (10) 
O=C(COc1cc(O)c2c(=O)cc(-c3cccc(O)c3)oc2c1)Nc1ccccc1

>  <score_type>  (10) 
oracle

>  <origin>  (10) 
adg

>  <m_score__min__energy>  (10) 
-12.19

>  <m_primary>  (10) 
energy

$$$$
10:0
     RDKit          3D

 62 65  0  0  0  0  0  0  0  0999 V2000
   58.1170   32.9750   43.1320 O   0  0  0  0  0  0  0  0  0  0  0  0
   57.7810   32.6860   44.3120 C   0  0  0  0  0  0  0  0  0  0  0  0
   56.7510   31.7070   44.5240 N   0  0  0  0  0  0  0  0  0  0  0  0
   56.5880   30.4970   43.7200 C   0  0  0  0  0  0  0  0  0  0  0  0
   56.3410   29.3160   44.6200 C   0  0  0  0  0  0  0  0  0  0  0  0
   55.1450   28.9780   44.8340 O   0  0  0  0  0  0  0  0  0  0  0  0
   57.4240   28.5130   45.1570 N   0  0  0  0  0  0  0  0  0  0  0  0
   57.4030   27.0390   45.1040 C   0  0  0  0  0  0  0  0  0  0  0  0
   56.7300   26.4240   46.3520 C   0  0  2  0  0  0  0  0  0  0  0  0
   57.5940   25.3690   47.0410 C   0  0  0  0  0  0  0  0  0  0  0  0
   56.6190   24.2790   47.3610 C   0  0  0  0  0  0  0  0  0  0  0  0
   55.5150   24.5030   46.3570 C   0  0  0  0  0  0  0  0  0  0  0  0
   55.4730   25.8670   46.0270 O   0  0  0  0  0  0  0  0  0  0  0  0
   58.5520   29.1670   45.7670 C   0  0  0  0  0  0  0  0  0  0  0  0
   59.8250   29.0490   45.1930 C   0  0  0  0  0  0  0  0  0  0  0  0
   60.9180   29.7140   45.7530 C   0  0  0  0  0  0  0  0  0  0  0  0
   60.7630   30.4940   46.9110 C   0  0  0  0  0  0  0  0  0  0  0  0
   61.9250   31.2150   47.4750 C   0  0  0  0  0  0  0  0  0  0  0  0
   62.4300   30.8170   48.5610 O   0  0  0  0  0  0  0  0  0  0  0  0
   62.4810   32.3620   46.8130 N   0  0  0  0  0  0  0  0  0  0  0  0
   63.7650   32.9440   47.2060 C   0  0  0  0  0  0  0  0  0  0  0  0
   63.7560   33.3060   48.6670 C   0  0  0  0  0  0  0  0  0  0  0  0
   62.6510   33.9540   49.2330 C   0  0  0  0  0  0  0  0  0  0  0  0
   62.6720   34.2920   50.5870 C   0  0  0  0  0  0  0  0  0  0  0  0
   63.7590   33.9970   51.3500 N   0  0  0  0  0  0  0  0  0  0  0  0
   64.8420   33.3670   50.8260 C   0  0  0  0  0  0  0  0  0  0  0  0
   64.8600   33.0070   49.4780 C   0  0  0  0  0  0  0  0  0  0  0  0
   59.4850   30.6100   47.4890 C   0  0  0  0  0  0  0  0  0  0  0  0
   58.3890   29.9510   46.9220 C   0  0  0  0  0  0  0  0  0  0  0  0
   58.4330   33.3880   45.4350 C   0  0  0  0  0  0  0  0  0  0  0  0
   57.9720   33.2010   46.7480 C   0  0  0  0  0  0  0  0  0  0  0  0
   58.6040   33.8470   47.8170 C   0  0  0  0  0  0  0  0  0  0  0  0
   59.6880   34.6950   47.5850 C   0  0  0  0  0  0  0  0  0  0  0  0
   60.1430   34.9010   46.2760 C   0  0  0  0  0  0  0  0  0  0  0  0
   59.5150   34.2580   45.2030 C   0  0  0  0  0  0  0  0  0  0  0  0
   55.7327   30.6230   43.0399 H   0  0  0  0  0  0  0  0  0  0  0  0
   57.5037   30.3231   43.1358 H   0  0  0  0  0  0  0  0  0  0  0  0
   56.8467   26.7238   44.2089 H   0  0  0  0  0  0  0  0  0  0  0  0
   58.4441   26.6855   45.0706 H   0  0  0  0  0  0  0  0  0  0  0  0
   56.5956   27.2542   47.0610 H   0  0  0  0  0  0  0  0  0  0  0  0
   58.3839   25.0055   46.3673 H   0  0  0  0  0  0  0  0  0  0  0  0
   58.1156   25.7539   47.9297 H   0  0  0  0  0  0  0  0  0  0  0  0
   57.0774   23.2878   47.2295 H   0  0  0  0  0  0  0  0  0  0  0  0
   56.2679   24.3046   48.4032 H   0  0  0  0  0  0  0  0  0  0  0  0
   55.7124   23.9097   45.4520 H   0  0  0  0  0  0  0  0  0  0  0  0
   54.5510   24.1926   46.7863 H   0  0  0  0  0  0  0  0  0  0  0  0
   59.9643   28.4285   44.2955 H   0  0  0  0  0  0  0  0  0  0  0  0
   61.9088   29.6262   45.2833 H   0  0  0  0  0  0  0  0  0  0  0  0
   61.9600   32.8090   46.0260 H   0  0  0  0  0  0  0  0  0  0  0  0
   64.5657   32.2133   47.0193 H   0  0  0  0  0  0  0  0  0  0  0  0
   63.9375   33.8557   46.6152 H   0  0  0  0  0  0  0  0  0  0  0  0
   61.7733   34.1947   48.6152 H   0  0  0  0  0  0  0  0  0  0  0  0
   61.8065   34.7987   51.0388 H   0  0  0  0  0  0  0  0  0  0  0  0
   65.7074   33.1399   51.4660 H   0  0  0  0  0  0  0  0  0  0  0  0
   65.7347   32.4919   49.0543 H   0  0  0  0  0  0  0  0  0  0  0  0
   59.3471   31.2226   48.3921 H   0  0  0  0  0  0  0  0  0  0  0  0
   57.3946   30.0469   47.3825 H   0  0  0  0  0  0  0  0  0  0  0  0
   57.1104   32.5439   46.9374 H   0  0  0  0  0  0  0  0  0  0  0  0
   58.2448   33.6856   48.8441 H   0  0  0  0  0  0  0  0  0  0  0  0
   60.1836   35.2000   48.4272 H   0  0  0  0  0  0  0  0  0  0  0  0
   60.9963   35.5701   46.0910 H   0  0  0  0  0  0  0  0  0  0  0  0
   59.8679   34.4330   44.1759 H   0  0  0  0  0  0  0  0  0  0  0  0
  1  2  2  0
  2  3  1  0
  3  4  1  0
  4  5  1  0
  5  6  2  0
  5  7  1  0
  7  8  1  0
  8  9  1  0
  9 10  1  0
 10 11  1  0
 11 12  1  0
 12 13  1  0
  7 14  1  0
 14 15  2  0
 15 16  1  0
 16 17  2  0
 17 18  1  0
 18 19  2  0
 18 20  1  0
 20 21  1  0
 21 22  1  0
 22 23  2  0
 23 24  1  0
 24 25  2  0
 25 26  1  0
 26 27  2  0
 17 28  1  0
 28 29  2  0
  2 30  1  0
 30 31  2  0
 31 32  1  0
 32 33  2  0
 33 34  1  0
 34 35  2  0
 13  9  1  0
 29 14  1  0
 35 30  1  0
 27 22  1  0
  4 36  1  0
  4 37  1  0
  8 38  1  0
  8 39  1  0
  9 40  1  1
 10 41  1  0
 10 42  1  0
 11 43  1  0
 11 44  1  0
 12 45  1  0
 12 46  1  0
 15 47  1  0
 16 48  1  0
 20 49  1  0
 21 50  1  0
 21 51  1  0
 23 52  1  0
 24 53  1  0
 26 54  1  0
 27 55  1  0
 28 56  1  0
 29 57  1  0
 31 58  1  0
 32 59  1  0
 33 60  1  0
 34 61  1  0
 35 62  1  0
M  CHG  1   3  -1
M  END
>  <UniqueID>  (11) 
11

>  <SMILES>  (11) 
O=C([N-]CC(=O)N(C[C@@H]1CCCO1)c1ccc(C(=O)NCc2ccncc2)cc1)c1ccccc1

>  <Energy>  (11) 
76.06615895964934

>  <Genealogy>  (11) 
O=C([N-]CC(=O)N(CC1CCCO1)c1ccc(C(=O)NCc2ccncc2)cc1)c1ccccc1 (protonated)
O=C([N-]CC(=O)N(C[C@@H]1CCCO1)c1ccc(C(=O)NCc2ccncc2)cc1)c1ccccc1 (chirality)
O=C([N-]CC(=O)N(C[C@@H]1CCCO1)c1ccc(C(=O)NCc2ccncc2)cc1)c1ccccc1 (3D coordinates assigned)
O=C([N-]CC(=O)N(C[C@@H]1CCCO1)c1ccc(C(=O)NCc2ccncc2)cc1)c1ccccc1 (nonaromatic ring conformer: 76.06615895964934 kcal/mol)

>  <smiles>  (11) 
O=C(NCC(=O)N(CC1CCCO1)c1ccc(C(=O)NCc2ccncc2)cc1)c1ccccc1

>  <score_type>  (11) 
oracle

>  <origin>  (11) 
adg

>  <m_score__min__energy>  (11) 
-11.199999999999999

>  <m_primary>  (11) 
energy

$$$$
11:0
     RDKit          3D

 57 60  0  0  0  0  0  0  0  0999 V2000
   61.3480   33.7840   46.4140 C   0  0  0  0  0  0  0  0  0  0  0  0
   59.8920   33.6300   46.0700 C   0  0  0  0  0  0  0  0  0  0  0  0
   59.2530   34.6140   45.2970 C   0  0  0  0  0  0  0  0  0  0  0  0
   57.8980   34.4960   44.9810 C   0  0  0  0  0  0  0  0  0  0  0  0
   57.1690   33.3910   45.4210 C   0  0  0  0  0  0  0  0  0  0  0  0
   57.7900   32.4090   46.1950 C   0  0  0  0  0  0  0  0  0  0  0  0
   59.1440   32.5260   46.5390 C   0  0  0  0  0  0  0  0  0  0  0  0
   59.7470   31.5220   47.3670 N   0  0  0  0  0  0  0  0  0  0  0  0
   59.9050   30.2270   47.0540 C   0  0  0  0  0  0  0  0  0  0  0  0
   60.5590   29.6170   48.1020 C   0  0  0  0  0  0  0  0  0  0  0  0
   60.8080   30.5220   49.0710 N   0  0  0  0  0  0  0  0  0  0  0  0
   60.3020   31.6760   48.5880 C   0  0  0  0  0  0  0  0  0  0  0  0
   60.3040   32.9590   49.3700 C   0  0  0  0  0  0  0  0  0  0  0  0
   59.2540   32.9280   50.4540 C   0  0  0  0  0  0  0  0  0  0  0  0
   59.2820   33.8790   51.4870 C   0  0  0  0  0  0  0  0  0  0  0  0
   58.3250   33.8420   52.5010 C   0  0  0  0  0  0  0  0  0  0  0  0
   57.3300   32.8620   52.4920 C   0  0  0  0  0  0  0  0  0  0  0  0
   57.2850   31.9030   51.4720 C   0  0  0  0  0  0  0  0  0  0  0  0
   56.2040   30.9580   51.4740 N   0  0  0  0  0  0  0  0  0  0  0  0
   56.0000   29.8650   52.3810 C   0  0  0  0  0  0  0  0  0  0  0  0
   56.7640   28.8640   52.3430 O   0  0  0  0  0  0  0  0  0  0  0  0
   54.8980   29.9320   53.3770 C   0  0  0  0  0  0  0  0  0  0  0  0
   55.0760   29.3120   54.6280 C   0  0  0  0  0  0  0  0  0  0  0  0
   54.0850   29.3810   55.6060 C   0  0  0  0  0  0  0  0  0  0  0  0
   52.9080   30.0830   55.3630 C   0  0  0  0  0  0  0  0  0  0  0  0
   52.7010   30.7200   54.1310 C   0  0  0  0  0  0  0  0  0  0  0  0
   51.4050   31.4520   53.8980 C   0  0  0  0  0  0  0  0  0  0  0  0
   53.6810   30.6160   53.1170 C   0  0  0  0  0  0  0  0  0  0  0  0
   53.4250   31.1830   51.8270 N   0  0  0  0  0  0  0  0  0  0  0  0
   51.9350   30.8640   51.0040 S   0  0  0  0  0  0  0  0  0  0  0  0
   51.0250   32.3300   50.8610 N   0  0  0  0  0  0  0  0  0  0  0  0
   51.1410   29.8570   51.7880 O   0  0  0  0  0  0  0  0  0  0  0  0
   52.2130   30.3080   49.6360 O   0  0  0  0  0  0  0  0  0  0  0  0
   58.2460   31.9480   50.4440 C   0  0  0  0  0  0  0  0  0  0  0  0
   61.4671   33.7966   47.5075 H   0  0  0  0  0  0  0  0  0  0  0  0
   61.9154   32.9409   45.9931 H   0  0  0  0  0  0  0  0  0  0  0  0
   61.7264   34.7272   45.9931 H   0  0  0  0  0  0  0  0  0  0  0  0
   59.8240   35.4831   44.9384 H   0  0  0  0  0  0  0  0  0  0  0  0
   57.4041   35.2764   44.3835 H   0  0  0  0  0  0  0  0  0  0  0  0
   56.1053   33.2935   45.1582 H   0  0  0  0  0  0  0  0  0  0  0  0
   57.2129   31.5374   46.5373 H   0  0  0  0  0  0  0  0  0  0  0  0
   59.5718   29.7392   46.1261 H   0  0  0  0  0  0  0  0  0  0  0  0
   60.8361   28.5533   48.1425 H   0  0  0  0  0  0  0  0  0  0  0  0
   61.2932   33.0993   49.8301 H   0  0  0  0  0  0  0  0  0  0  0  0
   60.0789   33.7897   48.6849 H   0  0  0  0  0  0  0  0  0  0  0  0
   60.0611   34.6555   51.4964 H   0  0  0  0  0  0  0  0  0  0  0  0
   58.3540   34.5867   53.3100 H   0  0  0  0  0  0  0  0  0  0  0  0
   56.5756   32.8431   53.2923 H   0  0  0  0  0  0  0  0  0  0  0  0
   56.0082   28.7665   54.8364 H   0  0  0  0  0  0  0  0  0  0  0  0
   54.2338   28.8788   56.5733 H   0  0  0  0  0  0  0  0  0  0  0  0
   52.1345   30.1385   56.1431 H   0  0  0  0  0  0  0  0  0  0  0  0
   50.9499   31.7090   54.8659 H   0  0  0  0  0  0  0  0  0  0  0  0
   51.6011   32.3727   53.3290 H   0  0  0  0  0  0  0  0  0  0  0  0
   50.7177   30.8087   53.3290 H   0  0  0  0  0  0  0  0  0  0  0  0
   54.1670   31.7500   51.3570 H   0  0  0  0  0  0  0  0  0  0  0  0
   50.3070   32.1770   50.1140 H   0  0  0  0  0  0  0  0  0  0  0  0
   58.2079   31.2116   49.6277 H   0  0  0  0  0  0  0  0  0  0  0  0
  1  2  1  0
  2  3  2  0
  3  4  1  0
  4  5  2  0
  5  6  1  0
  6  7  2  0
  7  8  1  0
  8  9  1  0
  9 10  2  0
 10 11  1  0
 11 12  2  0
 12 13  1  0
 13 14  1  0
 14 15  2  0
 15 16  1  0
 16 17  2  0
 17 18  1  0
 18 19  1  0
 19 20  1  0
 20 21  2  0
 20 22  1  0
 22 23  2  0
 23 24  1  0
 24 25  2  0
 25 26  1  0
 26 27  1  0
 26 28  2  0
 28 29  1  0
 29 30  1  0
 30 31  1  0
 30 32  2  0
 30 33  2  0
 18 34  2  0
  7  2  1  0
 12  8  1  0
 34 14  1  0
 28 22  1  0
  1 35  1  0
  1 36  1  0
  1 37  1  0
  3 38  1  0
  4 39  1  0
  5 40  1  0
  6 41  1  0
  9 42  1  0
 10 43  1  0
 13 44  1  0
 13 45  1  0
 15 46  1  0
 16 47  1  0
 17 48  1  0
 23 49  1  0
 24 50  1  0
 25 51  1  0
 27 52  1  0
 27 53  1  0
 27 54  1  0
 29 55  1  0
 31 56  1  0
 34 57  1  0
M  CHG  2  19  -1  31  -1
M  END
>  <UniqueID>  (12) 
12

>  <SMILES>  (12) 
Cc1ccccc1-n1ccnc1Cc1cccc([N-]C(=O)c2cccc(C)c2NS([NH-])(=O)=O)c1

>  <Energy>  (12) 
103.82955494594763

>  <Genealogy>  (12) 
Cc1ccccc1-n1ccnc1Cc1cccc([N-]C(=O)c2cccc(C)c2NS([NH-])(=O)=O)c1 (protonated)
Cc1ccccc1-n1ccnc1Cc1cccc([N-]C(=O)c2cccc(C)c2NS([NH-])(=O)=O)c1 (3D coordinates assigned)
Cc1ccccc1-n1ccnc1Cc1cccc([N-]C(=O)c2cccc(C)c2NS([NH-])(=O)=O)c1 (optimized conformer: 103.82955494594763 kcal/mol)

>  <smiles>  (12) 
Cc1ccccc1-n1ccnc1Cc1cccc(NC(=O)c2cccc(C)c2NS(N)(=O)=O)c1

>  <score_type>  (12) 
oracle

>  <origin>  (12) 
adg

>  <m_score__min__energy>  (12) 
-15.34

>  <m_primary>  (12) 
energy

$$$$
12:0
     RDKit          3D

 53 56  0  0  0  0  0  0  0  0999 V2000
   63.8172   34.5269   45.7777 H   0  0  0  0  0  0  0  0  0  0  0  0
   63.2380   33.8520   46.4250 C   0  0  0  0  0  0  0  0  0  0  0  0
   63.8980   32.9800   47.2850 C   0  0  0  0  0  0  0  0  0  0  0  0
   64.9973   32.9437   47.2961 H   0  0  0  0  0  0  0  0  0  0  0  0
   63.1620   32.1510   48.1340 C   0  0  0  0  0  0  0  0  0  0  0  0
   63.6860   31.4707   48.8215 H   0  0  0  0  0  0  0  0  0  0  0  0
   61.7590   32.1790   48.1170 C   0  0  0  0  0  0  0  0  0  0  0  0
   61.0750   33.0160   47.2040 C   0  0  0  0  0  0  0  0  0  0  0  0
   61.8380   33.8730   46.3810 C   0  0  0  0  0  0  0  0  0  0  0  0
   61.3266   34.5659   45.6967 H   0  0  0  0  0  0  0  0  0  0  0  0
   59.6260   32.9890   47.1490 N   0  0  0  0  0  0  0  0  0  0  0  0
   58.7380   33.8460   45.9150 S   0  0  0  0  0  0  0  0  0  0  0  0
   57.5920   34.5860   46.5460 O   0  0  0  0  0  0  0  0  0  0  0  0
   59.6260   34.8420   45.2240 O   0  0  0  0  0  0  0  0  0  0  0  0
   58.1670   32.6770   44.7350 C   0  0  0  0  0  0  0  0  0  0  0  0
   58.1880   32.9610   43.3620 C   0  0  0  0  0  0  0  0  0  0  0  0
   58.6232   33.9047   43.0014 H   0  0  0  0  0  0  0  0  0  0  0  0
   57.6550   32.0430   42.4520 C   0  0  0  0  0  0  0  0  0  0  0  0
   57.6843   32.2594   41.3739 H   0  0  0  0  0  0  0  0  0  0  0  0
   57.0840   30.8490   42.9090 C   0  0  0  0  0  0  0  0  0  0  0  0
   56.6679   30.1291   42.1888 H   0  0  0  0  0  0  0  0  0  0  0  0
   57.0410   30.5680   44.2840 C   0  0  0  0  0  0  0  0  0  0  0  0
   56.4190   29.3240   44.7760 C   0  0  0  0  0  0  0  0  0  0  0  0
   55.1640   29.2550   44.8670 O   0  0  0  0  0  0  0  0  0  0  0  0
   57.2010   28.1790   45.1370 N   0  0  0  0  0  0  0  0  0  0  0  0
   57.0150   27.4000   46.3580 C   0  0  0  0  0  0  0  0  0  0  0  0
   56.4029   27.9749   47.0685 H   0  0  0  0  0  0  0  0  0  0  0  0
   57.9967   27.1846   46.8051 H   0  0  0  0  0  0  0  0  0  0  0  0
   56.3230   26.1090   46.0350 C   0  0  0  0  0  0  0  0  0  0  0  0
   55.0640   26.0860   45.9750 O   0  0  0  0  0  0  0  0  0  0  0  0
   57.0490   24.8820   45.8930 N   0  0  0  0  0  0  0  0  0  0  0  0
   56.9030   23.9760   44.9670 C   0  0  0  0  0  0  0  0  0  0  0  0
   57.8320   22.9300   44.9050 C   0  0  0  0  0  0  0  0  0  0  0  0
   58.6530   22.8772   45.6352 H   0  0  0  0  0  0  0  0  0  0  0  0
   57.7130   21.9560   43.9150 C   0  0  0  0  0  0  0  0  0  0  0  0
   58.4455   21.1375   43.8565 H   0  0  0  0  0  0  0  0  0  0  0  0
   56.6650   22.0210   43.0000 C   0  0  0  0  0  0  0  0  0  0  0  0
   56.5685   21.2626   42.2091 H   0  0  0  0  0  0  0  0  0  0  0  0
   55.7390   23.0600   43.0990 C   0  0  0  0  0  0  0  0  0  0  0  0
   54.9044   23.1175   42.3847 H   0  0  0  0  0  0  0  0  0  0  0  0
   55.8610   24.0040   44.0740 N   0  0  0  0  0  0  0  0  0  0  0  0
   55.1110   24.7310   44.1320 H   0  0  0  0  0  0  0  0  0  0  0  0
   57.6220   31.4700   45.1860 C   0  0  0  0  0  0  0  0  0  0  0  0
   57.6497   31.2266   46.2584 H   0  0  0  0  0  0  0  0  0  0  0  0
   58.8540   32.1320   48.0580 C   0  0  0  0  0  0  0  0  0  0  0  0
   57.9123   32.6404   48.3123 H   0  0  0  0  0  0  0  0  0  0  0  0
   58.6631   31.1769   47.5467 H   0  0  0  0  0  0  0  0  0  0  0  0
   59.6190   31.8350   49.3470 C   0  0  0  0  0  0  0  0  0  0  0  0
   59.7403   32.7664   49.9195 H   0  0  0  0  0  0  0  0  0  0  0  0
   59.0523   31.1000   49.9375 H   0  0  0  0  0  0  0  0  0  0  0  0
   60.9940   31.2590   49.0270 C   0  0  0  0  0  0  0  0  0  0  0  0
   61.5567   31.1275   49.9630 H   0  0  0  0  0  0  0  0  0  0  0  0
   60.8620   30.2914   48.5207 H   0  0  0  0  0  0  0  0  0  0  0  0
  1  2  1  0
  2  3  2  0
  3  4  1  0
  3  5  1  0
  5  6  1  0
  5  7  2  0
  7  8  1  0
  8  9  2  0
  9 10  1  0
  8 11  1  0
 11 12  1  0
 12 13  2  0
 12 14  2  0
 12 15  1  0
 15 16  2  0
 16 17  1  0
 16 18  1  0
 18 19  1  0
 18 20  2  0
 20 21  1  0
 20 22  1  0
 22 23  1  0
 23 24  2  0
 23 25  1  0
 25 26  1  0
 26 27  1  0
 26 28  1  0
 26 29  1  0
 29 30  2  0
 29 31  1  0
 31 32  2  0
 32 33  1  0
 33 34  1  0
 33 35  2  0
 35 36  1  0
 35 37  1  0
 37 38  1  0
 37 39  2  0
 39 40  1  0
 39 41  1  0
 41 42  1  0
 22 43  2  0
 43 44  1  0
 11 45  1  0
 45 46  1  0
 45 47  1  0
 45 48  1  0
 48 49  1  0
 48 50  1  0
 48 51  1  0
 51 52  1  0
 51 53  1  0
  9  2  1  0
 43 15  1  0
 51  7  1  0
 41 32  1  0
M  CHG  1  25  -1
M  END
>  <UniqueID>  (13) 
13

>  <SMILES>  (13) 
O=C(C[N-]C(=O)c1cccc(S(=O)(=O)N2CCCc3ccccc32)c1)/N=c1/cccc[nH]1

>  <Energy>  (13) 
68.41613717655808

>  <Genealogy>  (13) 
O=C(C[N-]C(=O)c1cccc(S(=O)(=O)N2CCCc3ccccc32)c1)N=c1cccc[nH]1 (protonated)
O=C(C[N-]C(=O)c1cccc(S(=O)(=O)N2CCCc3ccccc32)c1)/N=c1/cccc[nH]1 (cis-trans isomerization)
O=C(C[N-]C(=O)c1cccc(S(=O)(=O)N2CCCc3ccccc32)c1)/N=c1/cccc[nH]1 (3D coordinates assigned)
O=C(C[N-]C(=O)c1cccc(S(=O)(=O)N2CCCc3ccccc32)c1)/N=c1/cccc[nH]1 (nonaromatic ring conformer: 68.41613717655808 kcal/mol)

>  <smiles>  (13) 
O=C(CNC(=O)c1cccc(S(=O)(=O)N2CCCc3ccccc32)c1)N=c1cccc[nH]1

>  <score_type>  (13) 
oracle

>  <origin>  (13) 
adg

>  <m_score__min__energy>  (13) 
-13.19

>  <m_primary>  (13) 
energy

$$$$
13:0
     RDKit          3D

 52 55  0  0  0  0  0  0  0  0999 V2000
   62.0512   32.9176   47.5635 H   0  0  0  0  0  0  0  0  0  0  0  0
   61.4760   32.0010   47.7610 C   0  0  0  0  0  0  0  0  0  0  0  0
   61.3830   31.0090   46.7800 C   0  0  0  0  0  0  0  0  0  0  0  0
   61.8862   31.1452   45.8114 H   0  0  0  0  0  0  0  0  0  0  0  0
   60.6510   29.8440   47.0290 C   0  0  0  0  0  0  0  0  0  0  0  0
   60.5879   29.0615   46.2585 H   0  0  0  0  0  0  0  0  0  0  0  0
   59.9960   29.6690   48.2590 C   0  0  0  0  0  0  0  0  0  0  0  0
   59.2360   28.4020   48.5430 C   0  0  0  0  0  0  0  0  0  0  0  0
   58.2696   28.4349   48.0186 H   0  0  0  0  0  0  0  0  0  0  0  0
   59.0773   28.3194   49.6284 H   0  0  0  0  0  0  0  0  0  0  0  0
   60.0270   27.1800   48.0650 C   0  0  0  0  0  0  0  0  0  0  0  0
   59.9796   26.3953   48.8344 H   0  0  0  0  0  0  0  0  0  0  0  0
   61.0709   27.4797   47.8905 H   0  0  0  0  0  0  0  0  0  0  0  0
   59.4700   26.6620   46.8150 N   0  0  0  0  0  0  0  0  0  0  0  0
   58.2320   26.7900   46.4440 C   0  0  0  0  0  0  0  0  0  0  0  0
   57.8180   27.9630   45.9010 N   0  0  0  0  0  0  0  0  0  0  0  0
   56.5250   28.1180   45.5040 C   0  0  0  0  0  0  0  0  0  0  0  0
   56.1150   29.2360   44.9850 N   0  0  0  0  0  0  0  0  0  0  0  0
   56.8170   29.9500   43.9220 C   0  0  0  0  0  0  0  0  0  0  0  0
   56.1009   30.2389   43.1386 H   0  0  0  0  0  0  0  0  0  0  0  0
   57.5892   29.2977   43.4882 H   0  0  0  0  0  0  0  0  0  0  0  0
   57.4610   31.1810   44.4910 C   0  0  0  0  0  0  0  0  0  0  0  0
   57.6840   32.3030   43.6800 C   0  0  0  0  0  0  0  0  0  0  0  0
   57.4119   32.2715   42.6147 H   0  0  0  0  0  0  0  0  0  0  0  0
   58.2510   33.4620   44.2200 C   0  0  0  0  0  0  0  0  0  0  0  0
   58.4304   34.3337   43.5734 H   0  0  0  0  0  0  0  0  0  0  0  0
   58.5920   33.5220   45.5760 C   0  0  0  0  0  0  0  0  0  0  0  0
   59.1580   34.7070   46.0690 O   0  0  0  0  0  0  0  0  0  0  0  0
   59.6420   34.8750   47.3980 C   0  0  0  0  0  0  0  0  0  0  0  0
   58.8524   34.6009   48.1132 H   0  0  0  0  0  0  0  0  0  0  0  0
   60.5182   34.2284   47.5536 H   0  0  0  0  0  0  0  0  0  0  0  0
   59.9292   35.9254   47.5536 H   0  0  0  0  0  0  0  0  0  0  0  0
   58.3530   32.4010   46.3950 C   0  0  0  0  0  0  0  0  0  0  0  0
   58.6135   32.4370   47.4631 H   0  0  0  0  0  0  0  0  0  0  0  0
   57.7860   31.2430   45.8550 C   0  0  0  0  0  0  0  0  0  0  0  0
   57.5934   30.3752   46.5029 H   0  0  0  0  0  0  0  0  0  0  0  0
   55.6500   27.0930   45.6530 N   0  0  0  0  0  0  0  0  0  0  0  0
   56.0570   25.9130   46.1940 C   0  0  0  0  0  0  0  0  0  0  0  0
   55.2280   24.9260   46.3430 N   0  0  0  0  0  0  0  0  0  0  0  0
   55.3390   23.6630   45.6200 C   0  0  0  0  0  0  0  0  0  0  0  0
   55.3601   22.9928   46.4920 H   0  0  0  0  0  0  0  0  0  0  0  0
   56.1340   23.7670   44.3310 C   0  0  0  0  0  0  0  0  0  0  0  0
   56.6408   24.7081   44.0713 H   0  0  0  0  0  0  0  0  0  0  0  0
   56.9586   23.1982   43.8765 H   0  0  0  0  0  0  0  0  0  0  0  0
   54.6150   23.6830   44.2880 C   0  0  0  0  0  0  0  0  0  0  0  0
   54.0234   24.5634   43.9966 H   0  0  0  0  0  0  0  0  0  0  0  0
   53.8858   23.0280   43.7889 H   0  0  0  0  0  0  0  0  0  0  0  0
   57.3480   25.7660   46.5860 N   0  0  0  0  0  0  0  0  0  0  0  0
   60.1050   30.6650   49.2460 C   0  0  0  0  0  0  0  0  0  0  0  0
   59.6120   30.5284   50.2198 H   0  0  0  0  0  0  0  0  0  0  0  0
   60.8380   31.8280   48.9930 C   0  0  0  0  0  0  0  0  0  0  0  0
   60.9130   32.6085   49.7645 H   0  0  0  0  0  0  0  0  0  0  0  0
  1  2  1  0
  2  3  2  0
  3  4  1  0
  3  5  1  0
  5  6  1  0
  5  7  2  0
  7  8  1  0
  8  9  1  0
  8 10  1  0
  8 11  1  0
 11 12  1  0
 11 13  1  0
 11 14  1  0
 14 15  2  0
 15 16  1  0
 16 17  1  0
 17 18  2  3
 18 19  1  0
 19 20  1  0
 19 21  1  0
 19 22  1  0
 22 23  2  0
 23 24  1  0
 23 25  1  0
 25 26  1  0
 25 27  2  0
 27 28  1  0
 28 29  1  0
 29 30  1  0
 29 31  1  0
 29 32  1  0
 27 33  1  0
 33 34  1  0
 33 35  2  0
 35 36  1  0
 17 37  1  0
 37 38  1  0
 38 39  2  0
 39 40  1  0
 40 41  1  0
 40 42  1  0
 42 43  1  0
 42 44  1  0
 42 45  1  0
 45 46  1  0
 45 47  1  0
 38 48  1  0
  7 49  1  0
 49 50  1  0
 49 51  2  0
 51 52  1  0
 51  2  1  0
 48 15  1  0
 35 22  1  0
 45 40  1  0
M  CHG  3  16  -1  37  -1  48  -1
M  END
>  <UniqueID>  (14) 
14

>  <SMILES>  (14) 
COc1ccc(CN=c2[n-]/c(=N/CCc3ccccc3)[n-]/c(=N/C3CC3)[n-]2)cc1

>  <Energy>  (14) 
314.7493228553994

>  <Genealogy>  (14) 
COc1ccc(CN=c2[n-]c(=NCCc3ccccc3)[n-]c(=NC3CC3)[n-]2)cc1 (protonated)
COc1ccc(CN=c2[n-]/c(=N/CCc3ccccc3)[n-]/c(=N/C3CC3)[n-]2)cc1 (cis-trans isomerization)
COc1ccc(CN=c2[n-]/c(=N/CCc3ccccc3)[n-]/c(=N/C3CC3)[n-]2)cc1 (3D coordinates assigned)
COc1ccc(CN=c2[n-]/c(=N/CCc3ccccc3)[n-]/c(=N/C3CC3)[n-]2)cc1 (nonaromatic ring conformer: 314.7493228553994 kcal/mol)

>  <smiles>  (14) 
COc1ccc(CN=c2[nH]c(=NCCc3ccccc3)[nH]c(=NC3CC3)[nH]2)cc1

>  <score_type>  (14) 
oracle

>  <origin>  (14) 
adg

>  <m_score__min__energy>  (14) 
-12.6

>  <m_primary>  (14) 
energy

$$$$
14:0
     RDKit          3D

 38 40  0  0  0  0  0  0  0  0999 V2000
   61.0349   33.2224   49.5518 H   0  0  0  0  0  0  0  0  0  0  0  0
   60.3220   32.8130   48.8210 C   0  0  0  0  0  0  0  0  0  0  0  0
   59.2740   33.5540   48.4370 C   0  0  0  0  0  0  0  0  0  0  0  0
   58.8021   34.2105   49.1829 H   0  0  0  0  0  0  0  0  0  0  0  0
   58.7140   33.5400   47.0650 C   0  0  0  0  0  0  0  0  0  0  0  0
   59.0160   34.6100   46.2070 C   0  0  0  0  0  0  0  0  0  0  0  0
   59.6512   35.4340   46.5641 H   0  0  0  0  0  0  0  0  0  0  0  0
   58.5160   34.6350   44.9050 C   0  0  0  0  0  0  0  0  0  0  0  0
   58.7527   35.4812   44.2433 H   0  0  0  0  0  0  0  0  0  0  0  0
   57.7170   33.5910   44.4390 C   0  0  0  0  0  0  0  0  0  0  0  0
   57.3206   33.6228   43.4134 H   0  0  0  0  0  0  0  0  0  0  0  0
   57.4160   32.5040   45.2660 C   0  0  0  0  0  0  0  0  0  0  0  0
   56.6180   31.4740   44.7460 O   0  0  0  0  0  0  0  0  0  0  0  0
   56.8530   30.8230   43.5020 C   0  0  0  0  0  0  0  0  0  0  0  0
   57.2212   29.8029   43.6858 H   0  0  0  0  0  0  0  0  0  0  0  0
   55.9149   30.7766   42.9295 H   0  0  0  0  0  0  0  0  0  0  0  0
   57.6045   31.3865   42.9295 H   0  0  0  0  0  0  0  0  0  0  0  0
   57.9210   32.4790   46.5820 C   0  0  0  0  0  0  0  0  0  0  0  0
   57.6945   31.6249   47.2372 H   0  0  0  0  0  0  0  0  0  0  0  0
   60.5350   31.4640   48.2830 C   0  0  0  0  0  0  0  0  0  0  0  0
   60.9020   30.4050   49.0300 N   0  0  0  0  0  0  0  0  0  0  0  0
   61.0350   29.3870   48.1920 N   0  0  0  0  0  0  0  0  0  0  0  0
   60.7420   29.8700   46.9710 C   0  0  0  0  0  0  0  0  0  0  0  0
   60.8200   28.9120   45.4600 S   0  0  0  0  0  0  0  0  0  0  0  0
   60.3400   27.3430   46.2640 C   0  0  0  0  0  0  0  0  0  0  0  0
   60.8708   26.5105   45.7790 H   0  0  0  0  0  0  0  0  0  0  0  0
   60.6069   27.3933   47.3299 H   0  0  0  0  0  0  0  0  0  0  0  0
   58.8600   27.1220   46.1440 C   0  0  0  0  0  0  0  0  0  0  0  0
   58.3400   25.9610   46.5410 O   0  0  0  0  0  0  0  0  0  0  0  0
   57.0330   25.7110   46.5070 C   0  0  0  0  0  0  0  0  0  0  0  0
   56.6552   24.7332   46.8405 H   0  0  0  0  0  0  0  0  0  0  0  0
   56.1380   26.6810   46.0510 C   0  0  0  0  0  0  0  0  0  0  0  0
   54.7730   26.4230   46.0280 O   0  0  0  0  0  0  0  0  0  0  0  0
   56.6420   27.9110   45.6220 C   0  0  0  0  0  0  0  0  0  0  0  0
   55.8650   28.8130   45.2110 O   0  0  0  0  0  0  0  0  0  0  0  0
   58.0190   28.1360   45.6590 C   0  0  0  0  0  0  0  0  0  0  0  0
   58.4385   29.0925   45.3137 H   0  0  0  0  0  0  0  0  0  0  0  0
   60.4250   31.1390   47.0180 O   0  0  0  0  0  0  0  0  0  0  0  0
  1  2  1  0
  2  3  2  0
  3  4  1  0
  3  5  1  0
  5  6  2  0
  6  7  1  0
  6  8  1  0
  8  9  1  0
  8 10  2  0
 10 11  1  0
 10 12  1  0
 12 13  1  0
 13 14  1  0
 14 15  1  0
 14 16  1  0
 14 17  1  0
 12 18  2  0
 18 19  1  0
  2 20  1  0
 20 21  2  0
 21 22  1  0
 22 23  2  0
 23 24  1  0
 24 25  1  0
 25 26  1  0
 25 27  1  0
 25 28  1  0
 28 29  1  0
 29 30  1  0
 30 31  1  0
 30 32  2  0
 32 33  1  0
 32 34  1  0
 34 35  2  0
 34 36  1  0
 36 37  1  0
 23 38  1  0
 18  5  1  0
 38 20  1  0
 36 28  2  0
M  CHG  1  33  -1
M  END
>  <UniqueID>  (15) 
15

>  <SMILES>  (15) 
COc1cccc(/C=C/c2nnc(SCc3cc(=O)c([O-])co3)o2)c1

>  <Energy>  (15) 
71.65934306650209

>  <Genealogy>  (15) 
COc1cccc(C=Cc2nnc(SCc3cc(=O)c([O-])co3)o2)c1 (protonated)
COc1cccc(/C=C/c2nnc(SCc3cc(=O)c([O-])co3)o2)c1 (cis-trans isomerization)
COc1cccc(/C=C/c2nnc(SCc3cc(=O)c([O-])co3)o2)c1 (3D coordinates assigned)
COc1cccc(/C=C/c2nnc(SCc3cc(=O)c([O-])co3)o2)c1 (optimized conformer: 71.65934306650209 kcal/mol)

>  <smiles>  (15) 
COc1cccc(C=Cc2nnc(SCc3cc(=O)c(O)co3)o2)c1

>  <score_type>  (15) 
oracle

>  <origin>  (15) 
adg

>  <m_score__min__energy>  (15) 
-12.57

>  <m_primary>  (15) 
energy

$$$$
15:0
     RDKit          3D

 46 49  0  0  0  0  0  0  0  0999 V2000
   58.0890   25.3770   47.1780 O   0  0  0  0  0  0  0  0  0  0  0  0
   57.7900   26.5300   46.7640 C   0  0  0  0  0  0  0  0  0  0  0  0
   57.0450   26.6850   45.4720 C   0  0  0  0  0  0  0  0  0  0  0  0
   57.3130   28.0060   44.9030 N   0  0  0  0  0  0  0  0  0  0  0  0
   56.4830   29.0580   44.8500 C   0  0  0  0  0  0  0  0  0  0  0  0
   55.1500   29.0320   45.2380 O   0  0  0  0  0  0  0  0  0  0  0  0
   57.1720   30.1530   44.3800 C   0  0  0  0  0  0  0  0  0  0  0  0
   56.6460   31.5500   44.2690 C   0  0  0  0  0  0  0  0  0  0  0  0
   57.7280   32.5270   44.6140 C   0  0  0  0  0  0  0  0  0  0  0  0
   58.3600   33.4070   43.7400 C   0  0  0  0  0  0  0  0  0  0  0  0
   59.1930   34.2300   44.4170 N   0  0  0  0  0  0  0  0  0  0  0  0
   59.0820   33.8860   45.7130 C   0  0  0  0  0  0  0  0  0  0  0  0
   59.7250   34.4740   46.8020 C   0  0  0  0  0  0  0  0  0  0  0  0
   59.4390   33.9710   48.0840 C   0  0  0  0  0  0  0  0  0  0  0  0
   58.5240   32.9070   48.2490 C   0  0  0  0  0  0  0  0  0  0  0  0
   57.8870   32.3360   47.1330 C   0  0  0  0  0  0  0  0  0  0  0  0
   58.1960   32.8520   45.8730 C   0  0  0  0  0  0  0  0  0  0  0  0
   58.4570   29.8070   44.1470 N   0  0  0  0  0  0  0  0  0  0  0  0
   58.4970   28.4970   44.4770 C   0  0  0  0  0  0  0  0  0  0  0  0
   59.5520   27.8110   44.4210 O   0  0  0  0  0  0  0  0  0  0  0  0
   58.1840   27.6890   47.5130 N   0  0  0  0  0  0  0  0  0  0  0  0
   59.3420   27.6750   48.4040 C   0  0  0  0  0  0  0  0  0  0  0  0
   60.1320   28.9460   48.2380 C   0  0  0  0  0  0  0  0  0  0  0  0
   60.3200   29.4950   46.9590 C   0  0  0  0  0  0  0  0  0  0  0  0
   61.1310   30.6230   46.7910 C   0  0  0  0  0  0  0  0  0  0  0  0
   61.7540   31.2130   47.8970 C   0  0  0  0  0  0  0  0  0  0  0  0
   62.7820   32.6200   47.6810 Cl  0  0  0  0  0  0  0  0  0  0  0  0
   61.5670   30.6730   49.1720 C   0  0  0  0  0  0  0  0  0  0  0  0
   60.7610   29.5430   49.3450 C   0  0  0  0  0  0  0  0  0  0  0  0
   57.3737   25.9090   44.7651 H   0  0  0  0  0  0  0  0  0  0  0  0
   55.9660   26.5814   45.6592 H   0  0  0  0  0  0  0  0  0  0  0  0
   56.3047   31.7312   43.2391 H   0  0  0  0  0  0  0  0  0  0  0  0
   55.8044   31.6783   44.9656 H   0  0  0  0  0  0  0  0  0  0  0  0
   58.2039   33.4299   42.6514 H   0  0  0  0  0  0  0  0  0  0  0  0
   59.7850   34.9890   44.0130 H   0  0  0  0  0  0  0  0  0  0  0  0
   60.4329   35.3043   46.6628 H   0  0  0  0  0  0  0  0  0  0  0  0
   59.9313   34.4092   48.9647 H   0  0  0  0  0  0  0  0  0  0  0  0
   58.3086   32.5229   49.2570 H   0  0  0  0  0  0  0  0  0  0  0  0
   57.1693   31.5105   47.2488 H   0  0  0  0  0  0  0  0  0  0  0  0
   57.7200   28.6020   47.3140 H   0  0  0  0  0  0  0  0  0  0  0  0
   58.9994   27.5920   49.4460 H   0  0  0  0  0  0  0  0  0  0  0  0
   59.9815   26.8159   48.1531 H   0  0  0  0  0  0  0  0  0  0  0  0
   59.8288   29.0374   46.0876 H   0  0  0  0  0  0  0  0  0  0  0  0
   61.2793   31.0472   45.7870 H   0  0  0  0  0  0  0  0  0  0  0  0
   62.0547   31.1376   50.0417 H   0  0  0  0  0  0  0  0  0  0  0  0
   60.6187   29.1199   50.3504 H   0  0  0  0  0  0  0  0  0  0  0  0
  1  2  2  0
  2  3  1  0
  3  4  1  0
  4  5  1  0
  5  6  1  0
  5  7  2  0
  7  8  1  0
  8  9  1  0
  9 10  2  0
 10 11  1  0
 11 12  1  0
 12 13  2  0
 13 14  1  0
 14 15  2  0
 15 16  1  0
 16 17  2  0
  7 18  1  0
 18 19  1  0
 19 20  2  0
  2 21  1  0
 21 22  1  0
 22 23  1  0
 23 24  2  0
 24 25  1  0
 25 26  2  0
 26 27  1  0
 26 28  1  0
 28 29  2  0
 19  4  1  0
 29 23  1  0
 17  9  1  0
 17 12  1  0
  3 30  1  0
  3 31  1  0
  8 32  1  0
  8 33  1  0
 10 34  1  0
 11 35  1  0
 13 36  1  0
 14 37  1  0
 15 38  1  0
 16 39  1  0
 21 40  1  0
 22 41  1  0
 22 42  1  0
 24 43  1  0
 25 44  1  0
 28 45  1  0
 29 46  1  0
M  CHG  2   6  -1  18  -1
M  END
>  <UniqueID>  (16) 
16

>  <SMILES>  (16) 
O=C(Cn1c([O-])c(Cc2c[nH]c3ccccc23)[n-]c1=O)NCc1ccc(Cl)cc1

>  <Energy>  (16) 
104.34662595893859

>  <Genealogy>  (16) 
O=C(Cn1c([O-])c(Cc2c[nH]c3ccccc23)[n-]c1=O)NCc1ccc(Cl)cc1 (protonated)
O=C(Cn1c([O-])c(Cc2c[nH]c3ccccc23)[n-]c1=O)NCc1ccc(Cl)cc1 (3D coordinates assigned)
O=C(Cn1c([O-])c(Cc2c[nH]c3ccccc23)[n-]c1=O)NCc1ccc(Cl)cc1 (optimized conformer: 104.34662595893859 kcal/mol)

>  <smiles>  (16) 
O=C(Cn1c(O)c(Cc2c[nH]c3ccccc23)[nH]c1=O)NCc1ccc(Cl)cc1

>  <score_type>  (16) 
oracle

>  <origin>  (16) 
adg

>  <m_score__min__energy>  (16) 
-13.23

>  <m_primary>  (16) 
energy

$$$$
16:0
     RDKit          3D

 45 47  0  0  0  0  0  0  0  0999 V2000
   56.5010   25.1040   47.6280 O   0  0  0  0  0  0  0  0  0  0  0  0
   56.4030   25.8410   46.6120 C   0  0  0  0  0  0  0  0  0  0  0  0
   55.7800   25.2900   45.3620 C   0  0  0  0  0  0  0  0  0  0  0  0
   54.3910   24.9190   45.6240 N   0  0  0  0  0  0  0  0  0  0  0  0
   54.0180   23.4250   44.8220 S   0  0  0  0  0  0  0  0  0  0  0  0
   53.1640   22.5790   45.7220 O   0  0  0  0  0  0  0  0  0  0  0  0
   53.2550   23.7040   43.5580 O   0  0  0  0  0  0  0  0  0  0  0  0
   55.4890   22.5470   44.4400 C   0  0  0  0  0  0  0  0  0  0  0  0
   56.1910   21.7320   45.3130 C   0  0  0  0  0  0  0  0  0  0  0  0
   57.3440   21.1850   44.7370 C   0  0  0  0  0  0  0  0  0  0  0  0
   57.5480   21.5740   43.4190 C   0  0  0  0  0  0  0  0  0  0  0  0
   56.2940   22.6010   42.9660 S   0  0  0  0  0  0  0  0  0  0  0  0
   56.8660   27.1950   46.6930 N   0  0  0  0  0  0  0  0  0  0  0  0
   58.0310   27.7390   46.0520 C   0  0  0  0  0  0  0  0  0  0  0  0
   59.3060   27.1990   46.2980 C   0  0  0  0  0  0  0  0  0  0  0  0
   60.4380   27.7570   45.7000 C   0  0  0  0  0  0  0  0  0  0  0  0
   60.3110   28.8630   44.8600 C   0  0  0  0  0  0  0  0  0  0  0  0
   59.0540   29.4260   44.6290 C   0  0  0  0  0  0  0  0  0  0  0  0
   57.9100   28.8860   45.2380 C   0  0  0  0  0  0  0  0  0  0  0  0
   56.5860   29.4880   44.9750 C   0  0  0  0  0  0  0  0  0  0  0  0
   55.5790   28.7390   44.8830 O   0  0  0  0  0  0  0  0  0  0  0  0
   56.4090   30.9050   44.8460 N   0  0  0  0  0  0  0  0  0  0  0  0
   57.2860   31.7810   44.0770 C   0  0  0  0  0  0  0  0  0  0  0  0
   57.9660   32.7430   45.0080 C   0  0  0  0  0  0  0  0  0  0  0  0
   58.6880   33.8330   44.4930 C   0  0  0  0  0  0  0  0  0  0  0  0
   59.2930   34.7470   45.3600 C   0  0  0  0  0  0  0  0  0  0  0  0
   59.1750   34.5860   46.7440 C   0  0  0  0  0  0  0  0  0  0  0  0
   58.4440   33.5130   47.2630 C   0  0  0  0  0  0  0  0  0  0  0  0
   57.8350   32.5980   46.3990 C   0  0  0  0  0  0  0  0  0  0  0  0
   55.8111   26.0538   44.5710 H   0  0  0  0  0  0  0  0  0  0  0  0
   56.3393   24.3996   45.0391 H   0  0  0  0  0  0  0  0  0  0  0  0
   55.8761   21.5355   46.3485 H   0  0  0  0  0  0  0  0  0  0  0  0
   58.0245   20.5105   45.2774 H   0  0  0  0  0  0  0  0  0  0  0  0
   58.3874   21.2633   42.7795 H   0  0  0  0  0  0  0  0  0  0  0  0
   59.4124   26.3314   46.9658 H   0  0  0  0  0  0  0  0  0  0  0  0
   61.4307   27.3237   45.8917 H   0  0  0  0  0  0  0  0  0  0  0  0
   61.2021   29.2925   44.3788 H   0  0  0  0  0  0  0  0  0  0  0  0
   58.9596   30.2983   43.9655 H   0  0  0  0  0  0  0  0  0  0  0  0
   58.0430   31.1771   43.5553 H   0  0  0  0  0  0  0  0  0  0  0  0
   56.6931   32.3398   43.3380 H   0  0  0  0  0  0  0  0  0  0  0  0
   58.7772   33.9672   43.4049 H   0  0  0  0  0  0  0  0  0  0  0  0
   59.8633   35.5949   44.9528 H   0  0  0  0  0  0  0  0  0  0  0  0
   59.6572   35.3034   47.4243 H   0  0  0  0  0  0  0  0  0  0  0  0
   58.3480   33.3887   48.3517 H   0  0  0  0  0  0  0  0  0  0  0  0
   57.2510   31.7613   46.8101 H   0  0  0  0  0  0  0  0  0  0  0  0
  1  2  2  0
  2  3  1  0
  3  4  1  0
  4  5  1  0
  5  6  2  0
  5  7  2  0
  5  8  1  0
  8  9  2  0
  9 10  1  0
 10 11  2  0
 11 12  1  0
  2 13  1  0
 13 14  1  0
 14 15  2  0
 15 16  1  0
 16 17  2  0
 17 18  1  0
 18 19  2  0
 19 20  1  0
 20 21  2  0
 20 22  1  0
 22 23  1  0
 23 24  1  0
 24 25  2  0
 25 26  1  0
 26 27  2  0
 27 28  1  0
 28 29  2  0
 12  8  1  0
 19 14  1  0
 29 24  1  0
  3 30  1  0
  3 31  1  0
  9 32  1  0
 10 33  1  0
 11 34  1  0
 15 35  1  0
 16 36  1  0
 17 37  1  0
 18 38  1  0
 23 39  1  0
 23 40  1  0
 25 41  1  0
 26 42  1  0
 27 43  1  0
 28 44  1  0
 29 45  1  0
M  CHG  3   4  -1  13  -1  22  -1
M  END
>  <UniqueID>  (17) 
17

>  <SMILES>  (17) 
O=C(C[N-]S(=O)(=O)c1cccs1)[N-]c1ccccc1C(=O)[N-]Cc1ccccc1

>  <Energy>  (17) 
79.65158524765303

>  <Genealogy>  (17) 
O=C(C[N-]S(=O)(=O)c1cccs1)[N-]c1ccccc1C(=O)[N-]Cc1ccccc1 (protonated)
O=C(C[N-]S(=O)(=O)c1cccs1)[N-]c1ccccc1C(=O)[N-]Cc1ccccc1 (3D coordinates assigned)
O=C(C[N-]S(=O)(=O)c1cccs1)[N-]c1ccccc1C(=O)[N-]Cc1ccccc1 (optimized conformer: 79.65158524765303 kcal/mol)

>  <smiles>  (17) 
O=C(CNS(=O)(=O)c1cccs1)Nc1ccccc1C(=O)NCc1ccccc1

>  <score_type>  (17) 
oracle

>  <origin>  (17) 
adg

>  <m_score__min__energy>  (17) 
-15.27

>  <m_primary>  (17) 
energy

$$$$
17:0
     RDKit          3D

 32 34  0  0  1  0  0  0  0  0999 V2000
   59.7530   27.0940   47.2400 C   0  0  0  0  0  0  0  0  0  0  0  0
   58.4380   27.4110   46.5870 C   0  0  0  0  0  0  0  0  0  0  0  0
   58.2580   28.6560   46.0030 C   0  0  0  0  0  0  0  0  0  0  0  0
   57.0450   28.9230   45.4110 C   0  0  0  0  0  0  0  0  0  0  0  0
   56.7610   30.0450   44.8360 N   0  0  0  0  0  0  0  0  0  0  0  0
   57.6460   31.2230   45.1580 C   0  0  0  0  0  0  0  0  0  0  0  0
   58.3590   31.6630   45.9000 N   0  0  0  0  0  0  0  0  0  0  0  0
   59.0280   32.8020   45.9070 C   0  0  0  0  0  0  0  0  0  0  0  0
   59.9360   33.2480   46.9640 C   0  0  0  0  0  0  0  0  0  0  0  0
   59.5160   33.7950   48.1500 C   0  0  0  0  0  0  0  0  0  0  0  0
   60.3870   34.2130   49.1430 C   0  0  0  0  0  0  0  0  0  0  0  0
   61.7420   34.0870   48.9570 C   0  0  0  0  0  0  0  0  0  0  0  0
   62.9220   34.5830   50.1420 Cl  0  0  0  0  0  0  0  0  0  0  0  0
   62.1720   33.5410   47.7720 C   0  0  0  0  0  0  0  0  0  0  0  0
   61.3020   33.1250   46.7850 C   0  0  0  0  0  0  0  0  0  0  0  0
   58.7630   33.5540   44.7590 C   0  0  0  0  0  0  0  0  0  0  0  0
   57.6150   32.5860   43.8080 S   0  0  0  0  0  0  0  0  0  0  0  0
   56.0650   27.9770   45.4100 N   0  0  0  0  0  0  0  0  0  0  0  0
   56.2890   26.7730   45.9940 C   0  0  0  0  0  0  0  0  0  0  0  0
   55.3510   25.9380   45.9640 O   0  0  0  0  0  0  0  0  0  0  0  0
   57.4620   26.4700   46.5850 N   0  0  0  0  0  0  0  0  0  0  0  0
   59.6357   27.1223   48.3334 H   0  0  0  0  0  0  0  0  0  0  0  0
   60.0827   26.0907   46.9324 H   0  0  0  0  0  0  0  0  0  0  0  0
   60.5036   27.8369   46.9324 H   0  0  0  0  0  0  0  0  0  0  0  0
   59.0611   29.4076   46.0128 H   0  0  0  0  0  0  0  0  0  0  0  0
   58.4351   33.9071   48.3208 H   0  0  0  0  0  0  0  0  0  0  0  0
   59.9951   34.6439   50.0762 H   0  0  0  0  0  0  0  0  0  0  0  0
   63.2534   33.4310   47.6031 H   0  0  0  0  0  0  0  0  0  0  0  0
   61.6961   32.6941   45.8528 H   0  0  0  0  0  0  0  0  0  0  0  0
   59.1781   34.5388   44.4986 H   0  0  0  0  0  0  0  0  0  0  0  0
   55.1500   28.1750   44.9640 H   0  0  0  0  0  0  0  0  0  0  0  0
   57.6110   25.5460   47.0250 H   0  0  0  0  0  0  0  0  0  0  0  0
  1  2  1  0
  2  3  2  0
  3  4  1  0
  4  5  2  0
  5  6  1  0
  6  7  2  0
  7  8  1  0
  8  9  1  0
  9 10  2  0
 10 11  1  0
 11 12  2  0
 12 13  1  0
 12 14  1  0
 14 15  2  0
  8 16  2  0
 16 17  1  0
  4 18  1  0
 18 19  1  0
 19 20  2  0
 19 21  1  0
 21  2  1  0
 17  6  1  0
 15  9  1  0
  1 22  1  0
  1 23  1  0
  1 24  1  0
  3 25  1  0
 10 26  1  0
 11 27  1  0
 14 28  1  0
 15 29  1  0
 16 30  1  0
 18 31  1  0
 21 32  1  0
M  END
>  <smiles>  (18) 
Cc1cc(=Nc2nc(-c3ccc(Cl)cc3)cs2)[nH]c(=O)[nH]1

>  <score_type>  (18) 
oracle

>  <origin>  (18) 
adg

>  <m_score__min__energy>  (18) 
-8.1699999999999999

>  <m_primary>  (18) 
energy

$$$$
18:0
     RDKit          3D

 63 67  0  0  0  0  0  0  0  0999 V2000
   55.0290   31.3030   51.9730 C   0  0  0  0  0  0  0  0  0  0  0  0
   55.0210   30.1610   52.6780 C   0  0  0  0  0  0  0  0  0  0  0  0
   53.8950   29.4120   53.0550 C   0  0  0  0  0  0  0  0  0  0  0  0
   52.5850   29.7210   53.0400 C   0  0  0  0  0  0  0  0  0  0  0  0
   51.9960   30.9230   52.4270 C   0  0  0  0  0  0  0  0  0  0  0  0
   51.4880   31.9630   53.1140 N   0  0  0  0  0  0  0  0  0  0  0  0
   50.9340   32.7330   52.1530 C   0  0  0  0  0  0  0  0  0  0  0  0
   50.3570   33.8230   52.4050 O   0  0  0  0  0  0  0  0  0  0  0  0
   51.0380   32.2370   50.9010 N   0  0  0  0  0  0  0  0  0  0  0  0
   51.7000   31.0830   51.0950 C   0  0  0  0  0  0  0  0  0  0  0  0
   52.0240   30.1910   50.0790 O   0  0  0  0  0  0  0  0  0  0  0  0
   54.3740   28.1940   53.5100 C   0  0  0  0  0  0  0  0  0  0  0  0
   55.7510   28.2690   53.4750 C   0  0  0  0  0  0  0  0  0  0  0  0
   56.6690   27.1620   53.9020 C   0  0  0  0  0  0  0  0  0  0  0  0
   56.1470   29.4590   52.9720 N   0  0  0  0  0  0  0  0  0  0  0  0
   57.5110   29.8720   52.7600 C   0  0  0  0  0  0  0  0  0  0  0  0
   58.0090   30.0220   51.4570 C   0  0  0  0  0  0  0  0  0  0  0  0
   59.3440   30.4010   51.2430 C   0  0  0  0  0  0  0  0  0  0  0  0
   59.8740   30.5630   49.8730 C   0  0  0  0  0  0  0  0  0  0  0  0
   59.9530   29.5440   49.1310 O   0  0  0  0  0  0  0  0  0  0  0  0
   60.2710   31.8540   49.3630 N   0  0  0  0  0  0  0  0  0  0  0  0
   59.5470   33.0610   49.7840 C   0  0  0  0  0  0  0  0  0  0  0  0
   59.9570   34.3020   48.9660 C   0  0  0  0  0  0  0  0  0  0  0  0
   60.0660   34.0550   47.5010 N   0  0  0  0  0  0  0  0  0  0  0  0
   58.9730   34.5890   46.6440 C   0  0  0  0  0  0  0  0  0  0  0  0
   57.6990   33.7340   46.7310 C   0  0  0  0  0  0  0  0  0  0  0  0
   57.3950   33.2330   45.3190 C   0  0  0  0  0  0  0  0  0  0  0  0
   58.6130   33.5450   44.4600 C   0  0  0  0  0  0  0  0  0  0  0  0
   59.3390   34.6820   45.1570 C   0  0  0  0  0  0  0  0  0  0  0  0
   60.4950   32.6960   47.0960 C   0  0  0  0  0  0  0  0  0  0  0  0
   61.1970   31.9530   48.2310 C   0  0  0  0  0  0  0  0  0  0  0  0
   60.1680   30.6680   52.3480 C   0  0  0  0  0  0  0  0  0  0  0  0
   59.6750   30.5210   53.6470 C   0  0  0  0  0  0  0  0  0  0  0  0
   58.3540   30.1170   53.8560 C   0  0  0  0  0  0  0  0  0  0  0  0
   57.8970   29.9560   55.1230 F   0  0  0  0  0  0  0  0  0  0  0  0
   55.9829   31.7985   51.7395 H   0  0  0  0  0  0  0  0  0  0  0  0
   54.0817   31.7434   51.6287 H   0  0  0  0  0  0  0  0  0  0  0  0
   51.8959   29.0154   53.5272 H   0  0  0  0  0  0  0  0  0  0  0  0
   52.4550   29.3000   50.2930 H   0  0  0  0  0  0  0  0  0  0  0  0
   53.7721   27.3330   53.8363 H   0  0  0  0  0  0  0  0  0  0  0  0
   56.7049   27.1187   55.0006 H   0  0  0  0  0  0  0  0  0  0  0  0
   56.2962   26.2045   53.5093 H   0  0  0  0  0  0  0  0  0  0  0  0
   57.6789   27.3511   53.5093 H   0  0  0  0  0  0  0  0  0  0  0  0
   57.3484   29.8413   50.5962 H   0  0  0  0  0  0  0  0  0  0  0  0
   58.4682   32.8908   49.6525 H   0  0  0  0  0  0  0  0  0  0  0  0
   59.7967   33.2539   50.8378 H   0  0  0  0  0  0  0  0  0  0  0  0
   59.2044   35.0875   49.1290 H   0  0  0  0  0  0  0  0  0  0  0  0
   60.9585   34.5951   49.3140 H   0  0  0  0  0  0  0  0  0  0  0  0
   58.8025   35.6001   47.0423 H   0  0  0  0  0  0  0  0  0  0  0  0
   57.8624   32.8814   47.4066 H   0  0  0  0  0  0  0  0  0  0  0  0
   56.8586   34.3237   47.1260 H   0  0  0  0  0  0  0  0  0  0  0  0
   57.2125   32.1484   45.3348 H   0  0  0  0  0  0  0  0  0  0  0  0
   56.4962   33.7223   44.9155 H   0  0  0  0  0  0  0  0  0  0  0  0
   59.2656   32.6625   44.3879 H   0  0  0  0  0  0  0  0  0  0  0  0
   58.3225   33.8214   43.4357 H   0  0  0  0  0  0  0  0  0  0  0  0
   60.4260   34.5751   45.0262 H   0  0  0  0  0  0  0  0  0  0  0  0
   59.0474   35.6558   44.7367 H   0  0  0  0  0  0  0  0  0  0  0  0
   59.6087   32.1207   46.7902 H   0  0  0  0  0  0  0  0  0  0  0  0
   61.2095   32.7996   46.2660 H   0  0  0  0  0  0  0  0  0  0  0  0
   61.4816   30.9450   47.8948 H   0  0  0  0  0  0  0  0  0  0  0  0
   62.1051   32.4956   48.5325 H   0  0  0  0  0  0  0  0  0  0  0  0
   61.2065   30.9944   52.1903 H   0  0  0  0  0  0  0  0  0  0  0  0
   60.3290   30.7240   54.5079 H   0  0  0  0  0  0  0  0  0  0  0  0
  1  2  2  0
  2  3  1  0
  3  4  2  3
  4  5  1  0
  5  6  1  0
  6  7  1  0
  7  8  2  0
  7  9  1  0
  9 10  1  0
 10 11  1  0
  3 12  1  0
 12 13  2  0
 13 14  1  0
 13 15  1  0
 15 16  1  0
 16 17  2  0
 17 18  1  0
 18 19  1  0
 19 20  2  0
 19 21  1  0
 21 22  1  0
 22 23  1  0
 23 24  1  0
 24 25  1  0
 25 26  1  0
 26 27  1  0
 27 28  1  0
 28 29  1  0
 24 30  1  0
 30 31  1  0
 18 32  2  0
 32 33  1  0
 33 34  2  0
 34 35  1  0
 15  2  1  0
 34 16  1  0
 10  5  2  0
 31 21  1  0
 29 25  1  0
  1 36  1  0
  1 37  1  0
  4 38  1  0
 11 39  1  0
 12 40  1  0
 14 41  1  0
 14 42  1  0
 14 43  1  0
 17 44  1  0
 22 45  1  0
 22 46  1  0
 23 47  1  0
 23 48  1  0
 25 49  1  0
 26 50  1  0
 26 51  1  0
 27 52  1  0
 27 53  1  0
 28 54  1  0
 28 55  1  0
 29 56  1  0
 29 57  1  0
 30 58  1  0
 30 59  1  0
 31 60  1  0
 31 61  1  0
 32 62  1  0
 33 63  1  0
M  CHG  2   6  -1   9  -1
M  END
>  <UniqueID>  (19) 
18

>  <SMILES>  (19) 
C=c1c(=Cc2[n-]c(=O)[n-]c2O)cc(C)n1-c1cc(C(=O)N2CCN(C3CCCC3)CC2)ccc1F

>  <Energy>  (19) 
159.70442174149903

>  <Genealogy>  (19) 
C=c1c(=Cc2[n-]c(=O)[n-]c2O)cc(C)n1-c1cc(C(=O)N2CCN(C3CCCC3)CC2)ccc1F (protonated)
C=c1c(=Cc2[n-]c(=O)[n-]c2O)cc(C)n1-c1cc(C(=O)N2CCN(C3CCCC3)CC2)ccc1F (3D coordinates assigned)
C=c1c(=Cc2[n-]c(=O)[n-]c2O)cc(C)n1-c1cc(C(=O)N2CCN(C3CCCC3)CC2)ccc1F (nonaromatic ring conformer: 159.70442174149903 kcal/mol)

>  <smiles>  (19) 
C=c1c(=Cc2[nH]c(=O)[nH]c2O)cc(C)n1-c1cc(C(=O)N2CCN(C3CCCC3)CC2)ccc1F

>  <score_type>  (19) 
oracle

>  <origin>  (19) 
adg

>  <m_score__min__energy>  (19) 
-14.880000000000001

>  <m_primary>  (19) 
energy

$$$$
19:0
     RDKit          3D

 55 59  0  0  0  0  0  0  0  0999 V2000
   56.1430   31.2130   51.6880 C   0  0  0  0  0  0  0  0  0  0  0  0
   57.8420   31.1340   51.1530 S   0  0  0  0  0  0  0  0  0  0  0  0
   58.1910   29.7060   50.8380 O   0  0  0  0  0  0  0  0  0  0  0  0
   57.9990   31.9550   49.9030 O   0  0  0  0  0  0  0  0  0  0  0  0
   58.9230   31.7440   52.3860 N   0  0  0  0  0  0  0  0  0  0  0  0
   59.9610   30.7400   52.7240 C   0  0  0  0  0  0  0  0  0  0  0  0
   61.2100   30.9240   51.9110 C   0  0  0  0  0  0  0  0  0  0  0  0
   61.6970   32.1540   51.7410 C   0  0  0  0  0  0  0  0  0  0  0  0
   62.9100   32.3840   50.9260 C   0  0  0  0  0  0  0  0  0  0  0  0
   64.0500   32.9200   51.5480 C   0  0  0  0  0  0  0  0  0  0  0  0
   65.1820   33.2440   50.7960 C   0  0  0  0  0  0  0  0  0  0  0  0
   65.1850   33.0430   49.4150 C   0  0  0  0  0  0  0  0  0  0  0  0
   64.0630   32.5030   48.7840 C   0  0  0  0  0  0  0  0  0  0  0  0
   62.9280   32.1490   49.5270 C   0  0  0  0  0  0  0  0  0  0  0  0
   61.8190   31.5430   48.8430 N   0  0  0  0  0  0  0  0  0  0  0  0
   61.3010   32.0680   47.6110 C   0  0  0  0  0  0  0  0  0  0  0  0
   61.9110   32.9920   47.0080 O   0  0  0  0  0  0  0  0  0  0  0  0
   60.0330   31.6080   47.1040 N   0  0  0  0  0  0  0  0  0  0  0  0
   59.1520   32.4720   46.3410 C   0  0  0  0  0  0  0  0  0  0  0  0
   59.3810   33.8580   46.2210 C   0  0  0  0  0  0  0  0  0  0  0  0
   58.5120   34.6580   45.4760 C   0  0  0  0  0  0  0  0  0  0  0  0
   57.3980   34.0940   44.8520 C   0  0  0  0  0  0  0  0  0  0  0  0
   57.1410   32.7280   44.9840 C   0  0  0  0  0  0  0  0  0  0  0  0
   58.0030   31.9200   45.7350 C   0  0  0  0  0  0  0  0  0  0  0  0
   57.7080   30.5630   45.8900 O   0  0  0  0  0  0  0  0  0  0  0  0
   58.5050   29.7250   46.6700 C   0  0  0  0  0  0  0  0  0  0  0  0
   58.1630   28.3810   46.8350 C   0  0  0  0  0  0  0  0  0  0  0  0
   58.9720   27.5490   47.6100 C   0  0  0  0  0  0  0  0  0  0  0  0
   60.1190   28.0750   48.2090 C   0  0  0  0  0  0  0  0  0  0  0  0
   60.4370   29.3860   48.0360 N   0  0  0  0  0  0  0  0  0  0  0  0
   59.6620   30.2250   47.2910 C   0  0  0  0  0  0  0  0  0  0  0  0
   60.9210   33.3020   52.3280 C   0  0  0  0  0  0  0  0  0  0  0  0
   59.4250   33.1020   52.0320 C   0  0  0  0  0  0  0  0  0  0  0  0
   56.1045   31.2148   52.7873 H   0  0  0  0  0  0  0  0  0  0  0  0
   55.6799   32.1336   51.3034 H   0  0  0  0  0  0  0  0  0  0  0  0
   55.5965   30.3393   51.3034 H   0  0  0  0  0  0  0  0  0  0  0  0
   60.2142   30.8365   53.7901 H   0  0  0  0  0  0  0  0  0  0  0  0
   59.5541   29.7430   52.4994 H   0  0  0  0  0  0  0  0  0  0  0  0
   61.7161   30.0567   51.4620 H   0  0  0  0  0  0  0  0  0  0  0  0
   64.0513   33.0858   52.6354 H   0  0  0  0  0  0  0  0  0  0  0  0
   66.0718   33.6579   51.2929 H   0  0  0  0  0  0  0  0  0  0  0  0
   66.0727   33.3104   48.8229 H   0  0  0  0  0  0  0  0  0  0  0  0
   64.0694   32.3539   47.6942 H   0  0  0  0  0  0  0  0  0  0  0  0
   61.2010   30.9040   49.3920 H   0  0  0  0  0  0  0  0  0  0  0  0
   60.2507   34.3126   46.7179 H   0  0  0  0  0  0  0  0  0  0  0  0
   58.7061   35.7365   45.3806 H   0  0  0  0  0  0  0  0  0  0  0  0
   56.7226   34.7257   44.2563 H   0  0  0  0  0  0  0  0  0  0  0  0
   56.2594   32.2858   44.4969 H   0  0  0  0  0  0  0  0  0  0  0  0
   57.2583   27.9793   46.3553 H   0  0  0  0  0  0  0  0  0  0  0  0
   58.7091   26.4898   47.7478 H   0  0  0  0  0  0  0  0  0  0  0  0
   60.7654   27.4286   48.8209 H   0  0  0  0  0  0  0  0  0  0  0  0
   61.0799   33.3359   53.4159 H   0  0  0  0  0  0  0  0  0  0  0  0
   61.2638   34.2474   51.8822 H   0  0  0  0  0  0  0  0  0  0  0  0
   58.8541   33.8449   52.6083 H   0  0  0  0  0  0  0  0  0  0  0  0
   59.2920   33.2223   50.9467 H   0  0  0  0  0  0  0  0  0  0  0  0
  1  2  1  0
  2  3  2  0
  2  4  2  0
  2  5  1  0
  5  6  1  0
  6  7  1  0
  7  8  2  0
  8  9  1  0
  9 10  2  0
 10 11  1  0
 11 12  2  0
 12 13  1  0
 13 14  2  0
 14 15  1  0
 15 16  1  0
 16 17  2  0
 16 18  1  0
 18 19  1  0
 19 20  2  0
 20 21  1  0
 21 22  2  0
 22 23  1  0
 23 24  2  0
 24 25  1  0
 25 26  1  0
 26 27  2  0
 27 28  1  0
 28 29  2  0
 29 30  1  0
 30 31  2  0
  8 32  1  0
 32 33  1  0
 33  5  1  0
 14  9  1  0
 31 18  1  0
 24 19  1  0
 31 26  1  0
  1 34  1  0
  1 35  1  0
  1 36  1  0
  6 37  1  0
  6 38  1  0
  7 39  1  0
 10 40  1  0
 11 41  1  0
 12 42  1  0
 13 43  1  0
 15 44  1  0
 20 45  1  0
 21 46  1  0
 22 47  1  0
 23 48  1  0
 27 49  1  0
 28 50  1  0
 29 51  1  0
 32 52  1  0
 32 53  1  0
 33 54  1  0
 33 55  1  0
M  END
>  <UniqueID>  (20) 
19

>  <SMILES>  (20) 
CS(=O)(=O)N1CC=C(c2ccccc2NC(=O)N2c3ccccc3Oc3cccnc32)CC1

>  <Energy>  (20) 
83.32528568610624

>  <Genealogy>  (20) 
CS(=O)(=O)N1CC=C(c2ccccc2NC(=O)N2c3ccccc3Oc3cccnc32)CC1 (3D coordinates assigned)
CS(=O)(=O)N1CC=C(c2ccccc2NC(=O)N2c3ccccc3Oc3cccnc32)CC1 (nonaromatic ring conformer: 83.32528568610624 kcal/mol)

>  <smiles>  (20) 
CS(=O)(=O)N1CC=C(c2ccccc2NC(=O)N2c3ccccc3Oc3cccnc32)CC1

>  <score_type>  (20) 
oracle

>  <origin>  (20) 
adg

>  <m_score__min__energy>  (20) 
-10.19

>  <m_primary>  (20) 
energy

$$$$
20:0
     RDKit          3D

 55 59  0  0  0  0  0  0  0  0999 V2000
   61.5651   33.9925   50.7805 H   0  0  0  0  0  0  0  0  0  0  0  0
   60.5950   33.5550   51.0590 C   0  0  0  0  0  0  0  0  0  0  0  0
   59.6810   33.3350   50.1020 C   0  0  0  0  0  0  0  0  0  0  0  0
   59.9700   33.7040   48.6990 C   0  0  0  0  0  0  0  0  0  0  0  0
   61.1810   34.1910   48.2110 C   0  0  0  0  0  0  0  0  0  0  0  0
   62.0818   34.3542   48.8208 H   0  0  0  0  0  0  0  0  0  0  0  0
   61.0950   34.4350   46.8840 N   0  0  0  0  0  0  0  0  0  0  0  0
   61.8520   34.8050   46.2670 H   0  0  0  0  0  0  0  0  0  0  0  0
   59.8380   34.1210   46.5280 C   0  0  0  0  0  0  0  0  0  0  0  0
   59.2700   34.2410   45.2600 C   0  0  0  0  0  0  0  0  0  0  0  0
   59.8637   34.5928   44.4034 H   0  0  0  0  0  0  0  0  0  0  0  0
   57.9140   33.8980   45.1110 C   0  0  0  0  0  0  0  0  0  0  0  0
   57.4370   33.9690   44.1223 H   0  0  0  0  0  0  0  0  0  0  0  0
   57.1620   33.4630   46.2240 C   0  0  0  0  0  0  0  0  0  0  0  0
   56.1000   33.2057   46.0979 H   0  0  0  0  0  0  0  0  0  0  0  0
   57.7600   33.3560   47.4930 C   0  0  0  0  0  0  0  0  0  0  0  0
   57.1789   33.0298   48.3681 H   0  0  0  0  0  0  0  0  0  0  0  0
   59.1150   33.6770   47.6070 C   0  0  0  0  0  0  0  0  0  0  0  0
   58.3640   32.6570   50.4120 C   0  0  0  0  0  0  0  0  0  0  0  0
   57.5493   33.2965   50.0415 H   0  0  0  0  0  0  0  0  0  0  0  0
   58.3863   31.6742   49.9185 H   0  0  0  0  0  0  0  0  0  0  0  0
   58.1340   32.3990   51.9150 C   0  0  0  0  0  0  0  0  0  0  0  0
   57.6729   33.2942   52.3577 H   0  0  0  0  0  0  0  0  0  0  0  0
   57.4833   31.5163   52.0014 H   0  0  0  0  0  0  0  0  0  0  0  0
   59.3830   32.1010   52.6480 N   0  0  0  0  0  0  0  0  0  0  0  0
   59.9840   30.7970   52.2810 C   0  0  0  0  0  0  0  0  0  0  0  0
   59.4795   30.4048   51.3856 H   0  0  0  0  0  0  0  0  0  0  0  0
   59.8604   30.0986   53.1218 H   0  0  0  0  0  0  0  0  0  0  0  0
   61.4790   30.9600   51.9870 C   0  0  0  0  0  0  0  0  0  0  0  0
   62.0581   30.6039   52.8518 H   0  0  0  0  0  0  0  0  0  0  0  0
   61.6888   32.0234   51.7992 H   0  0  0  0  0  0  0  0  0  0  0  0
   61.8510   30.2070   50.8310 O   0  0  0  0  0  0  0  0  0  0  0  0
   61.2450   30.2960   49.5670 C   0  0  0  0  0  0  0  0  0  0  0  0
   59.9780   29.7450   49.2880 C   0  0  0  0  0  0  0  0  0  0  0  0
   59.4200   29.2245   50.0803 H   0  0  0  0  0  0  0  0  0  0  0  0
   59.4280   29.8580   48.0070 C   0  0  0  0  0  0  0  0  0  0  0  0
   58.4324   29.4383   47.8007 H   0  0  0  0  0  0  0  0  0  0  0  0
   60.1380   30.5030   46.9840 C   0  0  0  0  0  0  0  0  0  0  0  0
   59.5520   30.6750   45.6410 C   0  0  0  0  0  0  0  0  0  0  0  0
   59.6719   31.6544   45.1548 H   0  0  0  0  0  0  0  0  0  0  0  0
   58.8840   29.7260   44.9690 C   0  0  0  0  0  0  0  0  0  0  0  0
   59.6810   28.1760   44.5160 S   0  0  0  0  0  0  0  0  0  0  0  0
   58.1620   27.7150   43.6770 C   0  0  0  0  0  0  0  0  0  0  0  0
   58.0560   26.6480   43.0170 O   0  0  0  0  0  0  0  0  0  0  0  0
   57.0830   28.6290   43.7970 N   0  0  0  0  0  0  0  0  0  0  0  0
   56.1290   28.4800   43.3990 H   0  0  0  0  0  0  0  0  0  0  0  0
   57.4760   29.7610   44.5500 C   0  0  0  0  0  0  0  0  0  0  0  0
   56.6560   30.6620   44.8680 O   0  0  0  0  0  0  0  0  0  0  0  0
   61.3800   31.0850   47.2720 C   0  0  0  0  0  0  0  0  0  0  0  0
   61.9234   31.6328   46.4880 H   0  0  0  0  0  0  0  0  0  0  0  0
   61.9310   30.9720   48.5520 C   0  0  0  0  0  0  0  0  0  0  0  0
   62.9136   31.4190   48.7632 H   0  0  0  0  0  0  0  0  0  0  0  0
   60.3320   33.2210   52.5010 C   0  0  0  0  0  0  0  0  0  0  0  0
   59.9138   34.1078   52.9997 H   0  0  0  0  0  0  0  0  0  0  0  0
   61.2859   32.9184   52.9576 H   0  0  0  0  0  0  0  0  0  0  0  0
  1  2  1  0
  2  3  2  0
  3  4  1  0
  4  5  2  0
  5  6  1  0
  5  7  1  0
  7  8  1  0
  7  9  1  0
  9 10  2  0
 10 11  1  0
 10 12  1  0
 12 13  1  0
 12 14  2  0
 14 15  1  0
 14 16  1  0
 16 17  1  0
 16 18  2  0
  3 19  1  0
 19 20  1  0
 19 21  1  0
 19 22  1  0
 22 23  1  0
 22 24  1  0
 22 25  1  0
 25 26  1  0
 26 27  1  0
 26 28  1  0
 26 29  1  0
 29 30  1  0
 29 31  1  0
 29 32  1  0
 32 33  1  0
 33 34  2  0
 34 35  1  0
 34 36  1  0
 36 37  1  0
 36 38  2  0
 38 39  1  0
 39 40  1  0
 39 41  2  0
 41 42  1  0
 42 43  1  0
 43 44  2  0
 43 45  1  0
 45 46  1  0
 45 47  1  0
 47 48  2  0
 38 49  1  0
 49 50  1  0
 49 51  2  0
 51 52  1  0
 25 53  1  0
 53 54  1  0
 53 55  1  0
 53  2  1  0
 18  4  1  0
 51 33  1  0
 18  9  1  0
 47 41  1  0
M  END
>  <UniqueID>  (21) 
20

>  <SMILES>  (21) 
O=C1NC(=O)/C(=C\c2ccc(OCCN3CC=C(c4c[nH]c5ccccc45)CC3)cc2)S1

>  <Energy>  (21) 
129.16715678675257

>  <Genealogy>  (21) 
O=C1NC(=O)/C(=C\c2ccc(OCCN3CC=C(c4c[nH]c5ccccc45)CC3)cc2)S1 (cis-trans isomerization)
O=C1NC(=O)/C(=C\c2ccc(OCCN3CC=C(c4c[nH]c5ccccc45)CC3)cc2)S1 (3D coordinates assigned)
O=C1NC(=O)/C(=C\c2ccc(OCCN3CC=C(c4c[nH]c5ccccc45)CC3)cc2)S1 (nonaromatic ring conformer: 129.16715678675257 kcal/mol)

>  <smiles>  (21) 
O=C1NC(=O)C(=Cc2ccc(OCCN3CC=C(c4c[nH]c5ccccc45)CC3)cc2)S1

>  <score_type>  (21) 
oracle

>  <origin>  (21) 
adg

>  <m_score__min__energy>  (21) 
-11.5

>  <m_primary>  (21) 
energy

$$$$
21:0
     RDKit          3D

 59 62  0  0  0  0  0  0  0  0999 V2000
   58.0600   21.9470   44.1220 C   0  0  0  0  0  0  0  0  0  0  0  0
   56.7000   22.2200   43.5550 C   0  0  0  0  0  0  0  0  0  0  0  0
   56.2480   21.4570   42.6610 O   0  0  0  0  0  0  0  0  0  0  0  0
   55.9170   23.3480   43.9650 N   0  0  0  0  0  0  0  0  0  0  0  0
   56.3940   24.5280   44.6260 C   0  0  0  0  0  0  0  0  0  0  0  0
   55.8030   25.0030   45.8090 C   0  0  0  0  0  0  0  0  0  0  0  0
   56.2720   26.1730   46.4100 C   0  0  0  0  0  0  0  0  0  0  0  0
   57.3130   26.9080   45.8190 C   0  0  0  0  0  0  0  0  0  0  0  0
   57.8140   28.1120   46.4220 N   0  0  0  0  0  0  0  0  0  0  0  0
   57.5360   29.4320   45.9260 C   0  0  0  0  0  0  0  0  0  0  0  0
   56.7100   29.6090   44.9920 O   0  0  0  0  0  0  0  0  0  0  0  0
   58.2390   30.5970   46.4890 C   0  0  0  0  0  0  0  0  0  0  0  0
   58.6630   30.6870   47.8220 C   0  0  0  0  0  0  0  0  0  0  0  0
   58.5760   29.6800   48.8360 N   0  0  0  0  0  0  0  0  0  0  0  0
   59.6590   28.8900   49.3400 C   0  0  0  0  0  0  0  0  0  0  0  0
   60.0830   27.8940   48.6950 O   0  0  0  0  0  0  0  0  0  0  0  0
   60.3570   29.3150   50.6000 C   0  0  1  0  0  0  0  0  0  0  0  0
   60.3850   28.1550   51.5910 C   0  0  0  0  0  0  0  0  0  0  0  0
   61.6990   29.7090   50.3070 O   0  0  0  0  0  0  0  0  0  0  0  0
   62.0690   30.6990   49.3830 C   0  0  0  0  0  0  0  0  0  0  0  0
   62.6620   31.8710   49.8690 C   0  0  0  0  0  0  0  0  0  0  0  0
   63.0680   32.8790   48.9880 C   0  0  0  0  0  0  0  0  0  0  0  0
   62.8740   32.7260   47.6120 C   0  0  0  0  0  0  0  0  0  0  0  0
   63.3810   33.9930   46.5080 Cl  0  0  0  0  0  0  0  0  0  0  0  0
   62.2670   31.5690   47.1180 C   0  0  0  0  0  0  0  0  0  0  0  0
   61.8640   30.5590   47.9970 C   0  0  0  0  0  0  0  0  0  0  0  0
   59.1870   32.2520   48.1410 S   0  0  0  0  0  0  0  0  0  0  0  0
   58.9020   32.8370   46.5940 C   0  0  0  0  0  0  0  0  0  0  0  0
   58.3990   31.8150   45.7910 C   0  0  0  0  0  0  0  0  0  0  0  0
   57.8650   32.1020   44.4080 C   0  0  0  0  0  0  0  0  0  0  0  0
   58.4130   33.4260   43.8470 C   0  0  0  0  0  0  0  0  0  0  0  0
   58.3170   34.5560   44.8830 C   0  0  0  0  0  0  0  0  0  0  0  0
   59.1560   34.2390   46.1280 C   0  0  0  0  0  0  0  0  0  0  0  0
   57.8980   26.4350   44.6370 C   0  0  0  0  0  0  0  0  0  0  0  0
   57.4300   25.2620   44.0360 C   0  0  0  0  0  0  0  0  0  0  0  0
   58.0080   21.9574   45.2207 H   0  0  0  0  0  0  0  0  0  0  0  0
   58.4084   20.9610   43.7807 H   0  0  0  0  0  0  0  0  0  0  0  0
   58.7619   22.7222   43.7807 H   0  0  0  0  0  0  0  0  0  0  0  0
   54.9673   24.4508   46.2637 H   0  0  0  0  0  0  0  0  0  0  0  0
   55.8234   26.5212   47.3521 H   0  0  0  0  0  0  0  0  0  0  0  0
   58.5110   28.0120   47.1940 H   0  0  0  0  0  0  0  0  0  0  0  0
   59.8116   30.1646   51.0368 H   0  0  0  0  0  0  0  0  0  0  0  0
   60.3755   28.5496   52.6177 H   0  0  0  0  0  0  0  0  0  0  0  0
   59.5020   27.5179   51.4348 H   0  0  0  0  0  0  0  0  0  0  0  0
   61.2977   27.5613   51.4348 H   0  0  0  0  0  0  0  0  0  0  0  0
   62.8096   31.9999   50.9514 H   0  0  0  0  0  0  0  0  0  0  0  0
   63.5402   33.7926   49.3782 H   0  0  0  0  0  0  0  0  0  0  0  0
   62.1058   31.4523   46.0362 H   0  0  0  0  0  0  0  0  0  0  0  0
   61.3844   29.6505   47.6038 H   0  0  0  0  0  0  0  0  0  0  0  0
   58.1582   31.2821   43.7359 H   0  0  0  0  0  0  0  0  0  0  0  0
   56.7703   32.1862   44.4749 H   0  0  0  0  0  0  0  0  0  0  0  0
   59.4674   33.2866   43.5661 H   0  0  0  0  0  0  0  0  0  0  0  0
   57.8097   33.7070   42.9712 H   0  0  0  0  0  0  0  0  0  0  0  0
   58.6838   35.4894   44.4311 H   0  0  0  0  0  0  0  0  0  0  0  0
   57.2655   34.6605   45.1885 H   0  0  0  0  0  0  0  0  0  0  0  0
   60.2225   34.3506   45.8829 H   0  0  0  0  0  0  0  0  0  0  0  0
   58.8746   34.9356   46.9314 H   0  0  0  0  0  0  0  0  0  0  0  0
   58.7303   26.9895   44.1790 H   0  0  0  0  0  0  0  0  0  0  0  0
   57.8787   24.9140   43.0939 H   0  0  0  0  0  0  0  0  0  0  0  0
  1  2  1  0
  2  3  2  0
  2  4  1  0
  4  5  1  0
  5  6  2  0
  6  7  1  0
  7  8  2  0
  8  9  1  0
  9 10  1  0
 10 11  2  0
 10 12  1  0
 12 13  2  0
 13 14  1  0
 14 15  1  0
 15 16  2  0
 15 17  1  0
 17 18  1  0
 17 19  1  0
 19 20  1  0
 20 21  2  0
 21 22  1  0
 22 23  2  0
 23 24  1  0
 23 25  1  0
 25 26  2  0
 13 27  1  0
 27 28  1  0
 28 29  2  0
 29 30  1  0
 30 31  1  0
 31 32  1  0
 32 33  1  0
  8 34  1  0
 34 35  2  0
 35  5  1  0
 29 12  1  0
 26 20  1  0
 33 28  1  0
  1 36  1  0
  1 37  1  0
  1 38  1  0
  6 39  1  0
  7 40  1  0
  9 41  1  0
 17 42  1  1
 18 43  1  0
 18 44  1  0
 18 45  1  0
 21 46  1  0
 22 47  1  0
 25 48  1  0
 26 49  1  0
 30 50  1  0
 30 51  1  0
 31 52  1  0
 31 53  1  0
 32 54  1  0
 32 55  1  0
 33 56  1  0
 33 57  1  0
 34 58  1  0
 35 59  1  0
M  CHG  2   4  -1  14  -1
M  END
>  <UniqueID>  (22) 
21

>  <SMILES>  (22) 
CC(=O)[N-]c1ccc(NC(=O)c2c([N-]C(=O)[C@@H](C)Oc3ccc(Cl)cc3)sc3c2CCCC3)cc1

>  <Energy>  (22) 
98.96879000628282

>  <Genealogy>  (22) 
CC(=O)[N-]c1ccc(NC(=O)c2c([N-]C(=O)C(C)Oc3ccc(Cl)cc3)sc3c2CCCC3)cc1 (protonated)
CC(=O)[N-]c1ccc(NC(=O)c2c([N-]C(=O)[C@@H](C)Oc3ccc(Cl)cc3)sc3c2CCCC3)cc1 (chirality)
CC(=O)[N-]c1ccc(NC(=O)c2c([N-]C(=O)[C@@H](C)Oc3ccc(Cl)cc3)sc3c2CCCC3)cc1 (3D coordinates assigned)
CC(=O)[N-]c1ccc(NC(=O)c2c([N-]C(=O)[C@@H](C)Oc3ccc(Cl)cc3)sc3c2CCCC3)cc1 (nonaromatic ring conformer: 98.96879000628282 kcal/mol)

>  <smiles>  (22) 
CC(=O)Nc1ccc(NC(=O)c2c(NC(=O)C(C)Oc3ccc(Cl)cc3)sc3c2CCCC3)cc1

>  <score_type>  (22) 
oracle

>  <origin>  (22) 
adg

>  <m_score__min__energy>  (22) 
-11.31

>  <m_primary>  (22) 
energy

$$$$
22:0
     RDKit          3D

 46 48  0  0  0  0  0  0  0  0999 V2000
   60.9420   27.1950   46.2770 H   0  0  0  0  0  0  0  0  0  0  0  0
   61.1510   26.2300   46.3830 O   0  0  0  0  0  0  0  0  0  0  0  0
   59.9920   25.5380   46.0120 C   0  0  0  0  0  0  0  0  0  0  0  0
   60.1589   24.4578   46.1354 H   0  0  0  0  0  0  0  0  0  0  0  0
   59.7600   25.7653   44.9611 H   0  0  0  0  0  0  0  0  0  0  0  0
   58.8140   25.9700   46.8870 C   0  0  0  0  0  0  0  0  0  0  0  0
   59.2013   26.3642   47.8381 H   0  0  0  0  0  0  0  0  0  0  0  0
   58.1722   25.0932   47.0580 H   0  0  0  0  0  0  0  0  0  0  0  0
   57.9790   27.0470   46.2090 C   0  0  0  0  0  0  0  0  0  0  0  0
   56.6060   26.8670   45.9530 C   0  0  0  0  0  0  0  0  0  0  0  0
   55.8610   25.6290   46.3630 C   0  0  0  0  0  0  0  0  0  0  0  0
   55.8251   25.5693   47.4608 H   0  0  0  0  0  0  0  0  0  0  0  0
   54.8366   25.6686   45.9642 H   0  0  0  0  0  0  0  0  0  0  0  0
   56.3757   24.7424   45.9642 H   0  0  0  0  0  0  0  0  0  0  0  0
   55.9080   27.8530   45.3440 N   0  0  0  0  0  0  0  0  0  0  0  0
   56.4520   29.0220   44.9190 C   0  0  0  0  0  0  0  0  0  0  0  0
   55.6160   29.8670   44.2920 C   0  0  0  0  0  0  0  0  0  0  0  0
   55.9874   30.8334   43.9203 H   0  0  0  0  0  0  0  0  0  0  0  0
   54.5603   29.5923   44.1505 H   0  0  0  0  0  0  0  0  0  0  0  0
   57.8520   29.2590   45.1160 C   0  0  0  0  0  0  0  0  0  0  0  0
   58.4420   30.4180   44.7000 C   0  0  0  0  0  0  0  0  0  0  0  0
   58.4502   30.6155   43.6179 H   0  0  0  0  0  0  0  0  0  0  0  0
   59.0700   31.4300   45.5730 C   0  0  0  0  0  0  0  0  0  0  0  0
   60.3930   31.1520   46.5830 S   0  0  0  0  0  0  0  0  0  0  0  0
   60.6100   32.7600   47.0320 C   0  0  0  0  0  0  0  0  0  0  0  0
   61.6500   33.2320   47.9030 N   0  0  0  0  0  0  0  0  0  0  0  0
   61.2870   33.8540   49.1790 C   0  0  0  0  0  0  0  0  0  0  0  0
   60.7540   34.7964   48.9845 H   0  0  0  0  0  0  0  0  0  0  0  0
   60.6408   33.1644   49.7419 H   0  0  0  0  0  0  0  0  0  0  0  0
   62.5410   34.1450   50.0040 C   0  0  0  0  0  0  0  0  0  0  0  0
   62.9990   35.0831   49.6574 H   0  0  0  0  0  0  0  0  0  0  0  0
   62.2688   34.2417   51.0654 H   0  0  0  0  0  0  0  0  0  0  0  0
   63.4610   33.0850   49.8470 O   0  0  0  0  0  0  0  0  0  0  0  0
   64.0470   33.1300   48.5560 C   0  0  0  0  0  0  0  0  0  0  0  0
   64.7750   33.9543   48.5345 H   0  0  0  0  0  0  0  0  0  0  0  0
   64.5145   32.1494   48.3829 H   0  0  0  0  0  0  0  0  0  0  0  0
   63.0280   33.3500   47.4130 C   0  0  0  0  0  0  0  0  0  0  0  0
   63.1740   34.3549   46.9902 H   0  0  0  0  0  0  0  0  0  0  0  0
   63.1927   32.5795   46.6454 H   0  0  0  0  0  0  0  0  0  0  0  0
   59.6830   33.5490   46.3510 C   0  0  0  0  0  0  0  0  0  0  0  0
   59.6680   34.9890   46.4030 C   0  0  0  0  0  0  0  0  0  0  0  0
   59.6560   36.1460   46.4420 N   0  0  0  0  0  0  0  0  0  0  0  0
   58.8290   32.8020   45.5230 C   0  0  0  0  0  0  0  0  0  0  0  0
   57.5930   33.5260   44.4990 Cl  0  0  0  0  0  0  0  0  0  0  0  0
   58.5890   28.2540   45.8100 C   0  0  0  0  0  0  0  0  0  0  0  0
   59.7940   28.4460   46.1330 O   0  0  0  0  0  0  0  0  0  0  0  0
  1  2  1  0
  2  3  1  0
  3  4  1  0
  3  5  1  0
  3  6  1  0
  6  7  1  0
  6  8  1  0
  6  9  1  0
  9 10  2  0
 10 11  1  0
 11 12  1  0
 11 13  1  0
 11 14  1  0
 10 15  1  0
 15 16  1  0
 16 17  2  0
 17 18  1  0
 17 19  1  0
 16 20  1  0
 20 21  2  0
 21 22  1  0
 21 23  1  0
 23 24  1  0
 24 25  1  0
 25 26  1  0
 26 27  1  0
 27 28  1  0
 27 29  1  0
 27 30  1  0
 30 31  1  0
 30 32  1  0
 30 33  1  0
 33 34  1  0
 34 35  1  0
 34 36  1  0
 34 37  1  0
 37 38  1  0
 37 39  1  0
 25 40  2  0
 40 41  1  0
 41 42  3  0
 40 43  1  0
 43 44  1  0
 20 45  1  0
 45 46  2  0
 45  9  1  0
 43 23  2  0
 37 26  1  0
M  CHG  1  15  -1
M  END
>  <UniqueID>  (23) 
22

>  <SMILES>  (23) 
C=c1[n-]c(C)c(CCO)c(=O)/c1=C\c1sc(N2CCOCC2)c(C#N)c1Cl

>  <Energy>  (23) 
104.06344382374118

>  <Genealogy>  (23) 
C=c1[n-]c(C)c(CCO)c(=O)c1=Cc1sc(N2CCOCC2)c(C#N)c1Cl (protonated)
C=c1[n-]c(C)c(CCO)c(=O)/c1=C\c1sc(N2CCOCC2)c(C#N)c1Cl (cis-trans isomerization)
C=c1[n-]c(C)c(CCO)c(=O)/c1=C\c1sc(N2CCOCC2)c(C#N)c1Cl (3D coordinates assigned)
C=c1[n-]c(C)c(CCO)c(=O)/c1=C\c1sc(N2CCOCC2)c(C#N)c1Cl (nonaromatic ring conformer: 104.06344382374118 kcal/mol)

>  <smiles>  (23) 
C=c1[nH]c(C)c(CCO)c(=O)c1=Cc1sc(N2CCOCC2)c(C#N)c1Cl

>  <score_type>  (23) 
oracle

>  <origin>  (23) 
adg

>  <m_score__min__energy>  (23) 
-9.5099999999999998

>  <m_primary>  (23) 
energy

$$$$
23:0
     RDKit          3D

 70 73  0  0  0  0  0  0  0  0999 V2000
   64.3550   32.3180   49.4470 C   0  0  0  0  0  0  0  0  0  0  0  0
   63.3820   31.5260   48.7780 O   0  0  0  0  0  0  0  0  0  0  0  0
   62.7790   31.9230   47.5790 C   0  0  0  0  0  0  0  0  0  0  0  0
   63.4740   32.4840   46.6840 O   0  0  0  0  0  0  0  0  0  0  0  0
   61.2710   31.7670   47.4080 C   0  0  2  0  0  0  0  0  0  0  0  0
   60.7670   32.8250   46.3370 C   0  0  0  0  0  0  0  0  0  0  0  0
   60.6170   34.2690   46.8280 C   0  0  0  0  0  0  0  0  0  0  0  0
   59.3770   34.4740   47.7130 C   0  0  0  0  0  0  0  0  0  0  0  0
   59.6360   34.2490   49.2070 C   0  0  0  0  0  0  0  0  0  0  0  0
   60.6150   33.1290   49.4470 C   0  0  0  0  0  0  0  0  0  0  0  0
   60.5750   31.9170   48.8180 C   0  0  0  0  0  0  0  0  0  0  0  0
   60.1890   30.7170   49.5920 N   0  0  1  0  0  0  0  0  0  0  0  0
   59.0790   30.8660   50.5810 C   0  0  0  0  0  0  0  0  0  0  0  0
   58.9890   29.7750   51.6800 C   0  0  0  0  0  0  0  0  0  0  0  0
   60.3150   29.3180   52.2420 C   0  0  0  0  0  0  0  0  0  0  0  0
   60.6450   28.0130   52.2010 C   0  0  0  0  0  0  0  0  0  0  0  0
   62.0360   27.5800   52.5800 C   0  0  0  0  0  0  0  0  0  0  0  0
   63.0940   28.4700   51.9010 C   0  0  0  0  0  0  0  0  0  0  0  0
   62.6950   29.9650   51.8010 C   0  0  0  0  0  0  0  0  0  0  0  0
   61.4080   30.3130   52.5700 C   0  0  0  0  0  0  0  0  0  0  0  0
   59.9200   29.5620   48.7590 C   0  0  0  0  0  0  0  0  0  0  0  0
   59.9210   28.4450   49.2600 O   0  0  0  0  0  0  0  0  0  0  0  0
   59.7540   29.7310   47.2710 C   0  0  2  0  0  0  0  0  0  0  0  0
   59.4200   28.4220   46.5210 C   0  0  0  0  0  0  0  0  0  0  0  0
   58.4650   28.6880   45.3930 C   0  0  0  0  0  0  0  0  0  0  0  0
   58.8680   28.6170   44.2010 O   0  0  0  0  0  0  0  0  0  0  0  0
   57.1220   29.0850   45.6790 N   0  0  0  0  0  0  0  0  0  0  0  0
   56.2490   29.6970   44.6890 C   0  0  0  0  0  0  0  0  0  0  0  0
   56.9200   30.9050   44.1270 C   0  0  0  0  0  0  0  0  0  0  0  0
   57.5190   31.9200   44.8620 C   0  0  0  0  0  0  0  0  0  0  0  0
   58.1490   32.8800   44.0590 C   0  0  0  0  0  0  0  0  0  0  0  0
   58.0610   32.6130   42.6980 C   0  0  0  0  0  0  0  0  0  0  0  0
   57.2040   31.1810   42.4940 S   0  0  0  0  0  0  0  0  0  0  0  0
   61.0760   30.3290   46.8160 C   0  0  0  0  0  0  0  0  0  0  0  0
   64.2275   32.2142   50.5346 H   0  0  0  0  0  0  0  0  0  0  0  0
   65.3621   31.9797   49.1620 H   0  0  0  0  0  0  0  0  0  0  0  0
   64.2282   33.3728   49.1620 H   0  0  0  0  0  0  0  0  0  0  0  0
   61.4855   32.8271   45.5041 H   0  0  0  0  0  0  0  0  0  0  0  0
   59.7524   32.5022   46.0606 H   0  0  0  0  0  0  0  0  0  0  0  0
   61.5115   34.5367   47.4096 H   0  0  0  0  0  0  0  0  0  0  0  0
   60.4990   34.9087   45.9410 H   0  0  0  0  0  0  0  0  0  0  0  0
   59.0196   35.5051   47.5749 H   0  0  0  0  0  0  0  0  0  0  0  0
   58.6348   33.7244   47.4012 H   0  0  0  0  0  0  0  0  0  0  0  0
   60.0421   35.1748   49.6406 H   0  0  0  0  0  0  0  0  0  0  0  0
   58.6818   33.9738   49.6799 H   0  0  0  0  0  0  0  0  0  0  0  0
   61.4177   33.2991   50.1796 H   0  0  0  0  0  0  0  0  0  0  0  0
   61.0440   30.4780   50.1480 H   0  0  0  0  0  0  0  0  0  0  0  0
   59.2041   31.8373   51.0820 H   0  0  0  0  0  0  0  0  0  0  0  0
   58.1510   30.7731   49.9977 H   0  0  0  0  0  0  0  0  0  0  0  0
   58.3878   30.1760   52.5093 H   0  0  0  0  0  0  0  0  0  0  0  0
   58.5407   28.8931   51.1991 H   0  0  0  0  0  0  0  0  0  0  0  0
   59.8999   27.2653   51.8913 H   0  0  0  0  0  0  0  0  0  0  0  0
   62.1509   27.6532   53.6715 H   0  0  0  0  0  0  0  0  0  0  0  0
   62.1838   26.5423   52.2463 H   0  0  0  0  0  0  0  0  0  0  0  0
   64.0271   28.3996   52.4793 H   0  0  0  0  0  0  0  0  0  0  0  0
   63.2037   28.1017   50.8703 H   0  0  0  0  0  0  0  0  0  0  0  0
   63.5175   30.5722   52.2071 H   0  0  0  0  0  0  0  0  0  0  0  0
   62.5029   30.1768   50.7388 H   0  0  0  0  0  0  0  0  0  0  0  0
   61.6120   30.2849   53.6505 H   0  0  0  0  0  0  0  0  0  0  0  0
   61.0760   31.3195   52.2754 H   0  0  0  0  0  0  0  0  0  0  0  0
   58.8899   30.3717   47.0413 H   0  0  0  0  0  0  0  0  0  0  0  0
   60.3473   27.9910   46.1156 H   0  0  0  0  0  0  0  0  0  0  0  0
   58.9501   27.7198   47.2253 H   0  0  0  0  0  0  0  0  0  0  0  0
   56.0474   28.9782   43.8811 H   0  0  0  0  0  0  0  0  0  0  0  0
   55.2988   29.9868   45.1613 H   0  0  0  0  0  0  0  0  0  0  0  0
   57.5007   31.9655   45.9609 H   0  0  0  0  0  0  0  0  0  0  0  0
   58.6646   33.7617   44.4673 H   0  0  0  0  0  0  0  0  0  0  0  0
   58.4805   33.2328   41.8918 H   0  0  0  0  0  0  0  0  0  0  0  0
   61.8995   29.6842   47.1568 H   0  0  0  0  0  0  0  0  0  0  0  0
   61.0719   30.3979   45.7182 H   0  0  0  0  0  0  0  0  0  0  0  0
  1  2  1  0
  2  3  1  0
  3  4  2  0
  5  3  1  1
  5  6  1  0
  6  7  1  0
  7  8  1  0
  8  9  1  0
  9 10  1  0
 10 11  2  0
 11 12  1  0
 12 13  1  0
 13 14  1  0
 14 15  1  0
 15 16  2  0
 16 17  1  0
 17 18  1  0
 18 19  1  0
 19 20  1  0
 12 21  1  0
 21 22  2  0
 21 23  1  0
 23 24  1  0
 24 25  1  0
 25 26  2  0
 25 27  1  0
 27 28  1  0
 28 29  1  0
 29 30  2  0
 30 31  1  0
 31 32  2  0
 32 33  1  0
 23 34  1  0
 11  5  1  0
 20 15  1  0
 33 29  1  0
 34  5  1  0
  1 35  1  0
  1 36  1  0
  1 37  1  0
  6 38  1  0
  6 39  1  0
  7 40  1  0
  7 41  1  0
  8 42  1  0
  8 43  1  0
  9 44  1  0
  9 45  1  0
 10 46  1  0
 12 47  1  1
 13 48  1  0
 13 49  1  0
 14 50  1  0
 14 51  1  0
 16 52  1  0
 17 53  1  0
 17 54  1  0
 18 55  1  0
 18 56  1  0
 19 57  1  0
 19 58  1  0
 20 59  1  0
 20 60  1  0
 23 61  1  1
 24 62  1  0
 24 63  1  0
 28 64  1  0
 28 65  1  0
 30 66  1  0
 31 67  1  0
 32 68  1  0
 34 69  1  0
 34 70  1  0
M  CHG  2  12   1  27  -1
M  END
>  <UniqueID>  (24) 
23

>  <SMILES>  (24) 
COC(=O)[C@]12CCCCC=C1[N@@H+](CCC1=CCCCC1)C(=O)C(CC(=O)[N-]Cc1cccs1)C2

>  <Energy>  (24) 
119.88704268070045

>  <Genealogy>  (24) 
COC(=O)C12CCCCC=C1[NH+](CCC1=CCCCC1)C(=O)C(CC(=O)[N-]Cc1cccs1)C2 (protonated)
COC(=O)[C@]12CCCCC=C1[N@@H+](CCC1=CCCCC1)C(=O)C(CC(=O)[N-]Cc1cccs1)C2 (chirality)
COC(=O)[C@]12CCCCC=C1[N@@H+](CCC1=CCCCC1)C(=O)C(CC(=O)[N-]Cc1cccs1)C2 (3D coordinates assigned)
COC(=O)[C@]12CCCCC=C1[N@@H+](CCC1=CCCCC1)C(=O)C(CC(=O)[N-]Cc1cccs1)C2 (nonaromatic ring conformer: 119.88704268070045 kcal/mol)

>  <smiles>  (24) 
COC(=O)C12CCCCC=C1N(CCC1=CCCCC1)C(=O)C(CC(=O)NCc1cccs1)C2

>  <score_type>  (24) 
oracle

>  <origin>  (24) 
adg

>  <m_score__min__energy>  (24) 
-7.4900000000000002

>  <m_primary>  (24) 
energy

$$$$
24:0
     RDKit          3D

 52 55  0  0  0  0  0  0  0  0999 V2000
   56.7630   34.2680   46.2120 H   0  0  0  0  0  0  0  0  0  0  0  0
   56.6400   34.5610   45.2710 O   0  0  0  0  0  0  0  0  0  0  0  0
   57.7990   34.1850   44.5700 C   0  0  0  0  0  0  0  0  0  0  0  0
   57.7096   34.4664   43.5104 H   0  0  0  0  0  0  0  0  0  0  0  0
   59.0220   34.9310   45.1590 C   0  0  0  0  0  0  0  0  0  0  0  0
   58.6564   35.7690   45.7705 H   0  0  0  0  0  0  0  0  0  0  0  0
   59.6336   35.2679   44.3090 H   0  0  0  0  0  0  0  0  0  0  0  0
   59.9210   34.0450   46.0370 C   0  0  0  0  0  0  0  0  0  0  0  0
   60.4811   34.6809   46.7383 H   0  0  0  0  0  0  0  0  0  0  0  0
   60.6153   33.4910   45.3882 H   0  0  0  0  0  0  0  0  0  0  0  0
   59.1130   33.0820   46.7980 N   0  0  0  0  0  0  0  0  0  0  0  0
   59.2830   32.9100   48.2180 C   0  0  0  0  0  0  0  0  0  0  0  0
   59.0120   31.7000   48.7850 N   0  0  0  0  0  0  0  0  0  0  0  0
   59.1300   31.4680   50.1210 C   0  0  0  0  0  0  0  0  0  0  0  0
   58.7970   30.1170   50.6200 C   0  0  0  0  0  0  0  0  0  0  0  0
   57.9801   29.5727   50.1236 H   0  0  0  0  0  0  0  0  0  0  0  0
   59.4260   29.5110   51.6390 C   0  0  0  0  0  0  0  0  0  0  0  0
   60.4313   29.0986   51.4679 H   0  0  0  0  0  0  0  0  0  0  0  0
   58.8230   29.3750   52.9820 C   0  0  0  0  0  0  0  0  0  0  0  0
   59.5450   29.6160   53.9880 O   0  0  0  0  0  0  0  0  0  0  0  0
   57.4110   28.9740   53.1930 C   0  0  0  0  0  0  0  0  0  0  0  0
   57.1090   27.7230   53.7560 C   0  0  0  0  0  0  0  0  0  0  0  0
   58.1240   26.8390   54.1060 O   0  0  0  0  0  0  0  0  0  0  0  0
   55.8170   27.3550   53.9530 N   0  0  0  0  0  0  0  0  0  0  0  0
   54.7790   28.1640   53.6210 C   0  0  0  0  0  0  0  0  0  0  0  0
   53.7464   27.8266   53.7940 H   0  0  0  0  0  0  0  0  0  0  0  0
   55.0140   29.4270   53.0590 C   0  0  0  0  0  0  0  0  0  0  0  0
   53.8660   30.2940   52.6860 C   0  0  0  0  0  0  0  0  0  0  0  0
   53.7620   30.8220   51.3870 C   0  0  0  0  0  0  0  0  0  0  0  0
   54.5399   30.5986   50.6420 H   0  0  0  0  0  0  0  0  0  0  0  0
   52.6760   31.6290   51.0370 C   0  0  0  0  0  0  0  0  0  0  0  0
   52.6031   32.0406   50.0195 H   0  0  0  0  0  0  0  0  0  0  0  0
   51.6820   31.9140   51.9780 C   0  0  0  0  0  0  0  0  0  0  0  0
   50.6030   32.7170   51.6290 O   0  0  0  0  0  0  0  0  0  0  0  0
   51.7740   31.3880   53.2700 C   0  0  0  0  0  0  0  0  0  0  0  0
   50.9910   31.6103   54.0099 H   0  0  0  0  0  0  0  0  0  0  0  0
   52.8590   30.5800   53.6240 C   0  0  0  0  0  0  0  0  0  0  0  0
   52.9247   30.1663   54.6411 H   0  0  0  0  0  0  0  0  0  0  0  0
   56.3470   29.8420   52.8670 C   0  0  0  0  0  0  0  0  0  0  0  0
   56.5920   31.0030   52.4350 O   0  0  0  0  0  0  0  0  0  0  0  0
   59.5210   32.5250   50.9640 C   0  0  0  0  0  0  0  0  0  0  0  0
   59.6137   32.3641   52.0482 H   0  0  0  0  0  0  0  0  0  0  0  0
   59.7900   33.7780   50.4140 C   0  0  0  0  0  0  0  0  0  0  0  0
   60.0973   34.6092   51.0657 H   0  0  0  0  0  0  0  0  0  0  0  0
   59.6700   33.9790   49.0390 C   0  0  0  0  0  0  0  0  0  0  0  0
   59.8771   34.9672   48.6025 H   0  0  0  0  0  0  0  0  0  0  0  0
   58.1950   32.1880   46.0760 C   0  0  0  0  0  0  0  0  0  0  0  0
   57.2275   32.1713   46.5992 H   0  0  0  0  0  0  0  0  0  0  0  0
   58.6432   31.1839   46.0478 H   0  0  0  0  0  0  0  0  0  0  0  0
   57.9720   32.6560   44.6300 C   0  0  0  0  0  0  0  0  0  0  0  0
   57.0669   32.1748   44.2309 H   0  0  0  0  0  0  0  0  0  0  0  0
   58.8507   32.3770   44.0299 H   0  0  0  0  0  0  0  0  0  0  0  0
  1  2  1  0
  2  3  1  0
  3  4  1  0
  3  5  1  0
  5  6  1  0
  5  7  1  0
  5  8  1  0
  8  9  1  0
  8 10  1  0
  8 11  1  0
 11 12  1  0
 12 13  2  0
 13 14  1  0
 14 15  1  0
 15 16  1  0
 15 17  2  0
 17 18  1  0
 17 19  1  0
 19 20  2  0
 19 21  1  0
 21 22  2  0
 22 23  1  0
 22 24  1  0
 24 25  1  0
 25 26  1  0
 25 27  2  0
 27 28  1  0
 28 29  2  0
 29 30  1  0
 29 31  1  0
 31 32  1  0
 31 33  2  0
 33 34  1  0
 33 35  1  0
 35 36  1  0
 35 37  2  0
 37 38  1  0
 27 39  1  0
 39 40  2  0
 14 41  2  0
 41 42  1  0
 41 43  1  0
 43 44  1  0
 43 45  2  0
 45 46  1  0
 11 47  1  0
 47 48  1  0
 47 49  1  0
 47 50  1  0
 50 51  1  0
 50 52  1  0
 50  3  1  0
 45 12  1  0
 39 21  1  0
 37 28  1  0
M  CHG  3  23  -1  24  -1  34  -1
M  END
>  <UniqueID>  (25) 
24

>  <SMILES>  (25) 
O=C(/C=C/c1cccc(N2CCC(O)CC2)n1)c1c([O-])[n-]cc(-c2ccc([O-])cc2)c1=O

>  <Energy>  (25) 
78.22167661497735

>  <Genealogy>  (25) 
O=C(C=Cc1cccc(N2CCC(O)CC2)n1)c1c([O-])[n-]cc(-c2ccc([O-])cc2)c1=O (protonated)
O=C(/C=C/c1cccc(N2CCC(O)CC2)n1)c1c([O-])[n-]cc(-c2ccc([O-])cc2)c1=O (cis-trans isomerization)
O=C(/C=C/c1cccc(N2CCC(O)CC2)n1)c1c([O-])[n-]cc(-c2ccc([O-])cc2)c1=O (3D coordinates assigned)
O=C(/C=C/c1cccc(N2CCC(O)CC2)n1)c1c([O-])[n-]cc(-c2ccc([O-])cc2)c1=O (nonaromatic ring conformer: 78.22167661497735 kcal/mol)

>  <smiles>  (25) 
O=C(C=Cc1cccc(N2CCC(O)CC2)n1)c1c(O)[nH]cc(-c2ccc(O)cc2)c1=O

>  <score_type>  (25) 
oracle

>  <origin>  (25) 
adg

>  <m_score__min__energy>  (25) 
-14.949999999999999

>  <m_primary>  (25) 
energy

$$$$
25:0
     RDKit          3D

 57 59  0  0  0  0  0  0  0  0999 V2000
   59.2520   34.0900   44.4100 C   0  0  0  0  0  0  0  0  0  0  0  0
   57.9150   33.3930   44.4350 C   0  0  0  0  0  0  0  0  0  0  0  0
   56.8060   33.9320   45.3060 C   0  0  0  0  0  0  0  0  0  0  0  0
   57.7470   32.2960   43.6660 C   0  0  0  0  0  0  0  0  0  0  0  0
   56.7290   31.2120   43.9410 C   0  0  0  0  0  0  0  0  0  0  0  0
   57.2990   30.0920   44.7860 C   0  0  0  0  0  0  0  0  0  0  0  0
   58.6640   30.0940   45.1170 C   0  0  0  0  0  0  0  0  0  0  0  0
   59.2280   29.0520   45.8790 C   0  0  0  0  0  0  0  0  0  0  0  0
   60.6110   29.0750   46.2800 N   0  0  0  0  0  0  0  0  0  0  0  0
   61.0820   29.7750   47.4400 C   0  0  0  0  0  0  0  0  0  0  0  0
   61.7960   30.9740   47.3090 C   0  0  0  0  0  0  0  0  0  0  0  0
   62.1530   31.7050   48.4430 C   0  0  0  0  0  0  0  0  0  0  0  0
   61.7970   31.2520   49.7220 C   0  0  0  0  0  0  0  0  0  0  0  0
   62.0820   32.1040   50.8920 C   0  0  0  0  0  0  0  0  0  0  0  0
   63.0080   32.9550   50.8290 O   0  0  0  0  0  0  0  0  0  0  0  0
   61.3510   31.9590   52.1170 N   0  0  0  0  0  0  0  0  0  0  0  0
   59.9050   32.1220   52.2420 C   0  0  0  0  0  0  0  0  0  0  0  0
   59.4700   33.4630   51.6500 C   0  0  0  0  0  0  0  0  0  0  0  0
   59.3130   33.3640   50.1540 C   0  0  0  0  0  0  0  0  0  0  0  0
   59.9640   34.2840   49.3140 C   0  0  0  0  0  0  0  0  0  0  0  0
   59.8590   34.1650   47.9250 C   0  0  0  0  0  0  0  0  0  0  0  0
   59.1110   33.1250   47.3660 C   0  0  0  0  0  0  0  0  0  0  0  0
   58.4690   32.2000   48.1950 C   0  0  0  0  0  0  0  0  0  0  0  0
   58.5720   32.3140   49.5850 C   0  0  0  0  0  0  0  0  0  0  0  0
   61.1270   30.0150   49.8590 C   0  0  0  0  0  0  0  0  0  0  0  0
   60.7470   29.5100   51.1050 O   0  0  0  0  0  0  0  0  0  0  0  0
   60.7940   29.2780   48.7160 C   0  0  0  0  0  0  0  0  0  0  0  0
   58.4060   28.0020   46.3060 C   0  0  0  0  0  0  0  0  0  0  0  0
   57.0520   27.9800   45.9650 C   0  0  0  0  0  0  0  0  0  0  0  0
   56.4960   29.0140   45.2050 C   0  0  0  0  0  0  0  0  0  0  0  0
   55.1450   28.9590   44.8750 O   0  0  0  0  0  0  0  0  0  0  0  0
   59.5923   34.2674   45.4409 H   0  0  0  0  0  0  0  0  0  0  0  0
   59.9847   33.4591   43.8854 H   0  0  0  0  0  0  0  0  0  0  0  0
   59.1543   35.0519   43.8854 H   0  0  0  0  0  0  0  0  0  0  0  0
   57.0748   33.8014   46.3646 H   0  0  0  0  0  0  0  0  0  0  0  0
   56.6602   35.0015   45.0940 H   0  0  0  0  0  0  0  0  0  0  0  0
   55.8750   33.3859   45.0940 H   0  0  0  0  0  0  0  0  0  0  0  0
   58.3923   32.1835   42.7823 H   0  0  0  0  0  0  0  0  0  0  0  0
   55.8737   31.6558   44.4716 H   0  0  0  0  0  0  0  0  0  0  0  0
   56.4230   30.7837   42.9751 H   0  0  0  0  0  0  0  0  0  0  0  0
   59.3026   30.9222   44.7759 H   0  0  0  0  0  0  0  0  0  0  0  0
   61.2810   28.4350   45.7950 H   0  0  0  0  0  0  0  0  0  0  0  0
   62.0757   31.3397   46.3100 H   0  0  0  0  0  0  0  0  0  0  0  0
   62.7174   32.6428   48.3331 H   0  0  0  0  0  0  0  0  0  0  0  0
   59.3998   31.3065   51.7037 H   0  0  0  0  0  0  0  0  0  0  0  0
   59.6323   32.0954   53.3073 H   0  0  0  0  0  0  0  0  0  0  0  0
   58.5080   33.7580   52.0945 H   0  0  0  0  0  0  0  0  0  0  0  0
   60.2424   34.2135   51.8738 H   0  0  0  0  0  0  0  0  0  0  0  0
   60.5580   35.1002   49.7510 H   0  0  0  0  0  0  0  0  0  0  0  0
   60.3655   34.8905   47.2715 H   0  0  0  0  0  0  0  0  0  0  0  0
   59.0273   33.0341   46.2730 H   0  0  0  0  0  0  0  0  0  0  0  0
   57.8820   31.3813   47.7532 H   0  0  0  0  0  0  0  0  0  0  0  0
   58.0720   31.5803   50.2344 H   0  0  0  0  0  0  0  0  0  0  0  0
   60.8950   30.0110   51.9700 H   0  0  0  0  0  0  0  0  0  0  0  0
   60.3018   28.3000   48.8220 H   0  0  0  0  0  0  0  0  0  0  0  0
   58.8296   27.1891   46.9141 H   0  0  0  0  0  0  0  0  0  0  0  0
   56.4186   27.1439   46.2963 H   0  0  0  0  0  0  0  0  0  0  0  0
  1  2  1  0
  2  3  1  0
  2  4  2  3
  4  5  1  0
  5  6  1  0
  6  7  2  0
  7  8  1  0
  8  9  1  0
  9 10  1  0
 10 11  2  0
 11 12  1  0
 12 13  2  0
 13 14  1  0
 14 15  2  0
 14 16  1  0
 16 17  1  0
 17 18  1  0
 18 19  1  0
 19 20  2  0
 20 21  1  0
 21 22  2  0
 22 23  1  0
 23 24  2  0
 13 25  1  0
 25 26  1  0
 25 27  2  0
  8 28  2  0
 28 29  1  0
 29 30  2  0
 30 31  1  0
 30  6  1  0
 27 10  1  0
 24 19  1  0
  1 32  1  0
  1 33  1  0
  1 34  1  0
  3 35  1  0
  3 36  1  0
  3 37  1  0
  4 38  1  0
  5 39  1  0
  5 40  1  0
  7 41  1  0
  9 42  1  0
 11 43  1  0
 12 44  1  0
 17 45  1  0
 17 46  1  0
 18 47  1  0
 18 48  1  0
 20 49  1  0
 21 50  1  0
 22 51  1  0
 23 52  1  0
 24 53  1  0
 26 54  1  0
 27 55  1  0
 28 56  1  0
 29 57  1  0
M  CHG  2  16  -1  31  -1
M  END
>  <UniqueID>  (26) 
25

>  <SMILES>  (26) 
CC(C)=CCc1cc(Nc2ccc(C(=O)[N-]CCc3ccccc3)c(O)c2)ccc1[O-]

>  <Energy>  (26) 
63.05030725172364

>  <Genealogy>  (26) 
CC(C)=CCc1cc(Nc2ccc(C(=O)[N-]CCc3ccccc3)c(O)c2)ccc1[O-] (protonated)
CC(C)=CCc1cc(Nc2ccc(C(=O)[N-]CCc3ccccc3)c(O)c2)ccc1[O-] (3D coordinates assigned)
CC(C)=CCc1cc(Nc2ccc(C(=O)[N-]CCc3ccccc3)c(O)c2)ccc1[O-] (optimized conformer: 63.05030725172364 kcal/mol)

>  <smiles>  (26) 
CC(C)=CCc1cc(Nc2ccc(C(=O)NCCc3ccccc3)c(O)c2)ccc1O

>  <score_type>  (26) 
oracle

>  <origin>  (26) 
adg

>  <m_score__min__energy>  (26) 
-12.18

>  <m_primary>  (26) 
energy

$$$$
26:0
     RDKit          3D

 44 46  0  0  0  0  0  0  0  0999 V2000
   56.4150   22.6270   41.5450 H   0  0  0  0  0  0  0  0  0  0  0  0
   55.8950   22.1140   42.2900 N   0  0  0  0  0  0  0  0  0  0  0  0
   56.3900   21.9520   43.4740 C   0  0  0  0  0  0  0  0  0  0  0  0
   56.2550   20.7580   44.1120 N   0  0  0  0  0  0  0  0  0  0  0  0
   56.7730   20.5450   45.3500 C   0  0  0  0  0  0  0  0  0  0  0  0
   56.6501   19.5656   45.8355 H   0  0  0  0  0  0  0  0  0  0  0  0
   57.4610   21.5670   46.0070 C   0  0  0  0  0  0  0  0  0  0  0  0
   57.8924   21.3921   47.0036 H   0  0  0  0  0  0  0  0  0  0  0  0
   57.5980   22.8140   45.3900 C   0  0  0  0  0  0  0  0  0  0  0  0
   58.2990   23.8240   46.0650 O   0  0  0  0  0  0  0  0  0  0  0  0
   58.1340   25.2000   45.8540 C   0  0  0  0  0  0  0  0  0  0  0  0
   56.8380   25.7260   45.8310 C   0  0  0  0  0  0  0  0  0  0  0  0
   55.9759   25.0601   45.9840 H   0  0  0  0  0  0  0  0  0  0  0  0
   56.6300   27.0920   45.6150 C   0  0  0  0  0  0  0  0  0  0  0  0
   55.6062   27.4938   45.5984 H   0  0  0  0  0  0  0  0  0  0  0  0
   57.7230   27.9540   45.4190 C   0  0  0  0  0  0  0  0  0  0  0  0
   57.5370   29.3590   45.1740 N   0  0  0  0  0  0  0  0  0  0  0  0
   57.3220   29.6650   44.1990 H   0  0  0  0  0  0  0  0  0  0  0  0
   57.7680   30.3840   46.1510 C   0  0  0  0  0  0  0  0  0  0  0  0
   58.2810   30.1000   47.2670 O   0  0  0  0  0  0  0  0  0  0  0  0
   57.4010   31.7340   45.8420 N   0  0  0  0  0  0  0  0  0  0  0  0
   58.2440   32.8920   45.9440 C   0  0  0  0  0  0  0  0  0  0  0  0
   58.4260   33.7740   44.8630 C   0  0  0  0  0  0  0  0  0  0  0  0
   57.9133   33.5849   43.9083 H   0  0  0  0  0  0  0  0  0  0  0  0
   59.2560   34.8890   44.9990 C   0  0  0  0  0  0  0  0  0  0  0  0
   59.4112   35.5644   44.1447 H   0  0  0  0  0  0  0  0  0  0  0  0
   59.8890   35.1490   46.2150 C   0  0  0  0  0  0  0  0  0  0  0  0
   60.5579   36.0172   46.3085 H   0  0  0  0  0  0  0  0  0  0  0  0
   59.6780   34.3120   47.3160 C   0  0  0  0  0  0  0  0  0  0  0  0
   60.3290   34.6170   48.5190 O   0  0  0  0  0  0  0  0  0  0  0  0
   61.6280   34.2090   48.8470 C   0  0  0  0  0  0  0  0  0  0  0  0
   62.1720   34.5800   49.9220 O   0  0  0  0  0  0  0  0  0  0  0  0
   62.4150   33.4190   47.8570 C   0  0  0  0  0  0  0  0  0  0  0  0
   63.0945   32.7370   48.3891 H   0  0  0  0  0  0  0  0  0  0  0  0
   61.7293   32.8348   47.2258 H   0  0  0  0  0  0  0  0  0  0  0  0
   63.0018   34.1025   47.2258 H   0  0  0  0  0  0  0  0  0  0  0  0
   58.8600   33.1740   47.1740 C   0  0  0  0  0  0  0  0  0  0  0  0
   58.7120   32.2990   48.2010 F   0  0  0  0  0  0  0  0  0  0  0  0
   59.0190   27.4190   45.3980 C   0  0  0  0  0  0  0  0  0  0  0  0
   59.8789   28.0781   45.2078 H   0  0  0  0  0  0  0  0  0  0  0  0
   59.2260   26.0540   45.6170 C   0  0  0  0  0  0  0  0  0  0  0  0
   60.2475   25.6460   45.6039 H   0  0  0  0  0  0  0  0  0  0  0  0
   57.0720   23.0050   44.0990 C   0  0  0  0  0  0  0  0  0  0  0  0
   57.2600   24.1770   43.4400 F   0  0  0  0  0  0  0  0  0  0  0  0
  1  2  1  0
  2  3  2  0
  3  4  1  0
  4  5  1  0
  5  6  1  0
  5  7  2  0
  7  8  1  0
  7  9  1  0
  9 10  1  0
 10 11  1  0
 11 12  2  0
 12 13  1  0
 12 14  1  0
 14 15  1  0
 14 16  2  0
 16 17  1  0
 17 18  1  0
 17 19  1  0
 19 20  2  0
 19 21  1  0
 21 22  1  0
 22 23  2  0
 23 24  1  0
 23 25  1  0
 25 26  1  0
 25 27  2  0
 27 28  1  0
 27 29  1  0
 29 30  1  0
 30 31  1  0
 31 32  2  0
 31 33  1  0
 33 34  1  0
 33 35  1  0
 33 36  1  0
 29 37  2  0
 37 38  1  0
 16 39  1  0
 39 40  1  0
 39 41  2  0
 41 42  1  0
  9 43  2  0
 43 44  1  0
 43  3  1  0
 41 11  1  0
 37 22  1  0
M  CHG  2   4  -1  21  -1
M  END
>  <UniqueID>  (27) 
26

>  <SMILES>  (27) 
[H]/N=c1\[n-]ccc(Oc2ccc(NC(=O)[N-]c3cccc(OC(C)=O)c3F)cc2)c1F

>  <Energy>  (27) 
66.15953563608878

>  <Genealogy>  (27) 
CC(=O)Oc1cccc([N-]C(=O)Nc2ccc(Oc3cc[n-]c(=N)c3F)cc2)c1F (protonated)
[H]/N=c1\[n-]ccc(Oc2ccc(NC(=O)[N-]c3cccc(OC(C)=O)c3F)cc2)c1F (cis-trans isomerization)
[H]/N=c1\[n-]ccc(Oc2ccc(NC(=O)[N-]c3cccc(OC(C)=O)c3F)cc2)c1F (3D coordinates assigned)
[H]/N=c1\[n-]ccc(Oc2ccc(NC(=O)[N-]c3cccc(OC(C)=O)c3F)cc2)c1F (optimized conformer: 66.15953563608878 kcal/mol)

>  <smiles>  (27) 
CC(=O)Oc1cccc(NC(=O)Nc2ccc(Oc3cc[nH]c(=N)c3F)cc2)c1F

>  <score_type>  (27) 
oracle

>  <origin>  (27) 
adg

>  <m_score__min__energy>  (27) 
-11.16

>  <m_primary>  (27) 
energy

$$$$
27:0
     RDKit          3D

 46 48  0  0  0  0  0  0  0  0999 V2000
   59.9410   35.8250   45.8540 C   0  0  0  0  0  0  0  0  0  0  0  0
   59.1610   34.7980   46.0330 C   0  0  0  0  0  0  0  0  0  0  0  0
   58.3780   33.7670   46.2130 C   0  0  0  0  0  0  0  0  0  0  0  0
   58.0080   32.8420   45.1160 C   0  0  0  0  0  0  0  0  0  0  0  0
   58.2460   33.1580   43.7640 C   0  0  0  0  0  0  0  0  0  0  0  0
   57.8850   32.2610   42.7570 C   0  0  0  0  0  0  0  0  0  0  0  0
   57.2830   31.0440   43.0810 C   0  0  0  0  0  0  0  0  0  0  0  0
   57.0340   30.7070   44.4240 C   0  0  0  0  0  0  0  0  0  0  0  0
   56.3960   29.4140   44.7670 C   0  0  0  0  0  0  0  0  0  0  0  0
   55.1410   29.3390   44.8660 O   0  0  0  0  0  0  0  0  0  0  0  0
   57.2070   28.2620   45.0380 N   0  0  0  0  0  0  0  0  0  0  0  0
   58.2290   28.1500   46.0390 C   0  0  0  0  0  0  0  0  0  0  0  0
   58.2540   27.0070   46.8460 C   0  0  0  0  0  0  0  0  0  0  0  0
   59.2260   26.8650   47.8380 C   0  0  0  0  0  0  0  0  0  0  0  0
   60.1680   27.8740   48.0500 C   0  0  0  0  0  0  0  0  0  0  0  0
   60.1300   29.0500   47.2800 C   0  0  0  0  0  0  0  0  0  0  0  0
   61.0890   30.1040   47.4760 N   0  0  0  0  0  0  0  0  0  0  0  0
   60.7850   31.3580   48.1130 C   0  0  0  0  0  0  0  0  0  0  0  0
   59.5180   31.5540   48.6910 C   0  0  0  0  0  0  0  0  0  0  0  0
   59.1750   32.7870   49.2470 C   0  0  0  0  0  0  0  0  0  0  0  0
   60.0860   33.8410   49.2250 C   0  0  0  0  0  0  0  0  0  0  0  0
   61.3440   33.6680   48.6450 C   0  0  0  0  0  0  0  0  0  0  0  0
   61.7100   32.4320   48.0810 C   0  0  0  0  0  0  0  0  0  0  0  0
   63.0710   32.2670   47.5130 C   0  0  0  0  0  0  0  0  0  0  0  0
   64.0830   33.2500   47.7370 N   0  0  0  0  0  0  0  0  0  0  0  0
   63.3510   31.2430   46.8350 O   0  0  0  0  0  0  0  0  0  0  0  0
   59.1620   29.1780   46.2690 C   0  0  0  0  0  0  0  0  0  0  0  0
   57.4020   31.6160   45.4340 C   0  0  0  0  0  0  0  0  0  0  0  0
   60.3497   36.3631   46.7220 H   0  0  0  0  0  0  0  0  0  0  0  0
   60.1913   36.1545   44.8348 H   0  0  0  0  0  0  0  0  0  0  0  0
   57.9773   33.5783   47.2199 H   0  0  0  0  0  0  0  0  0  0  0  0
   58.7184   34.1158   43.5005 H   0  0  0  0  0  0  0  0  0  0  0  0
   58.0758   32.5144   41.7037 H   0  0  0  0  0  0  0  0  0  0  0  0
   57.0014   30.3437   42.2808 H   0  0  0  0  0  0  0  0  0  0  0  0
   57.5038   26.2162   46.6979 H   0  0  0  0  0  0  0  0  0  0  0  0
   59.2500   25.9547   48.4551 H   0  0  0  0  0  0  0  0  0  0  0  0
   60.9419   27.7484   48.8215 H   0  0  0  0  0  0  0  0  0  0  0  0
   62.0550   29.9700   47.1010 H   0  0  0  0  0  0  0  0  0  0  0  0
   58.7913   30.7284   48.7049 H   0  0  0  0  0  0  0  0  0  0  0  0
   58.1840   32.9271   49.7033 H   0  0  0  0  0  0  0  0  0  0  0  0
   59.8134   34.8114   49.6655 H   0  0  0  0  0  0  0  0  0  0  0  0
   62.0561   34.5062   48.6288 H   0  0  0  0  0  0  0  0  0  0  0  0
   63.8660   34.1550   48.2100 H   0  0  0  0  0  0  0  0  0  0  0  0
   65.0490   33.1000   47.3700 H   0  0  0  0  0  0  0  0  0  0  0  0
   59.1335   30.0888   45.6528 H   0  0  0  0  0  0  0  0  0  0  0  0
   57.2121   31.3622   46.4873 H   0  0  0  0  0  0  0  0  0  0  0  0
  1  2  2  0
  2  3  2  0
  3  4  1  0
  4  5  2  0
  5  6  1  0
  6  7  2  0
  7  8  1  0
  8  9  1  0
  9 10  2  0
  9 11  1  0
 11 12  1  0
 12 13  2  0
 13 14  1  0
 14 15  2  0
 15 16  1  0
 16 17  1  0
 17 18  1  0
 18 19  2  0
 19 20  1  0
 20 21  2  0
 21 22  1  0
 22 23  2  0
 23 24  1  0
 24 25  1  0
 24 26  2  0
 16 27  2  0
  8 28  2  0
 28  4  1  0
 27 12  1  0
 23 18  1  0
  1 29  1  0
  1 30  1  0
  3 31  1  0
  5 32  1  0
  6 33  1  0
  7 34  1  0
 13 35  1  0
 14 36  1  0
 15 37  1  0
 17 38  1  0
 19 39  1  0
 20 40  1  0
 21 41  1  0
 22 42  1  0
 25 43  1  0
 25 44  1  0
 27 45  1  0
 28 46  1  0
M  CHG  1  11  -1
M  END
>  <UniqueID>  (28) 
27

>  <SMILES>  (28) 
C=C=Cc1cccc(C(=O)[N-]c2cccc(Nc3ccccc3C(N)=O)c2)c1

>  <Energy>  (28) 
59.8977404212827

>  <Genealogy>  (28) 
C=C=Cc1cccc(C(=O)[N-]c2cccc(Nc3ccccc3C(N)=O)c2)c1 (protonated)
C=C=Cc1cccc(C(=O)[N-]c2cccc(Nc3ccccc3C(N)=O)c2)c1 (3D coordinates assigned)
C=C=Cc1cccc(C(=O)[N-]c2cccc(Nc3ccccc3C(N)=O)c2)c1 (optimized conformer: 59.8977404212827 kcal/mol)

>  <smiles>  (28) 
C=C=Cc1cccc(C(=O)Nc2cccc(Nc3ccccc3C(N)=O)c2)c1

>  <score_type>  (28) 
oracle

>  <origin>  (28) 
adg

>  <m_score__min__energy>  (28) 
-10.56

>  <m_primary>  (28) 
energy

$$$$
28:0
     RDKit          3D

 55 57  0  0  0  0  0  0  0  0999 V2000
   53.6597   28.9817   55.3249 H   0  0  0  0  0  0  0  0  0  0  0  0
   53.4160   29.3900   54.3330 C   0  0  0  0  0  0  0  0  0  0  0  0
   52.3757   29.3824   53.9755 H   0  0  0  0  0  0  0  0  0  0  0  0
   54.3890   29.8980   53.5580 C   0  0  0  0  0  0  0  0  0  0  0  0
   54.2360   30.4520   52.2760 C   0  0  0  0  0  0  0  0  0  0  0  0
   53.1340   30.7940   51.5820 C   0  0  0  0  0  0  0  0  0  0  0  0
   53.1159   30.5392   50.5121 H   0  0  0  0  0  0  0  0  0  0  0  0
   51.9510   31.4790   52.1290 C   0  0  0  0  0  0  0  0  0  0  0  0
   51.6090   31.4930   53.4300 N   0  0  0  0  0  0  0  0  0  0  0  0
   50.5740   32.3580   53.4700 C   0  0  0  0  0  0  0  0  0  0  0  0
   49.9590   32.6310   54.5330 O   0  0  0  0  0  0  0  0  0  0  0  0
   50.2570   32.9190   52.2830 N   0  0  0  0  0  0  0  0  0  0  0  0
   51.1490   32.3620   51.4490 C   0  0  0  0  0  0  0  0  0  0  0  0
   51.2330   32.6590   50.0950 O   0  0  0  0  0  0  0  0  0  0  0  0
   55.5130   30.6610   51.7910 C   0  0  0  0  0  0  0  0  0  0  0  0
   55.7802   31.0417   50.7942 H   0  0  0  0  0  0  0  0  0  0  0  0
   56.3880   30.3020   52.7930 C   0  0  0  0  0  0  0  0  0  0  0  0
   57.8530   30.4600   52.6920 C   0  0  0  0  0  0  0  0  0  0  0  0
   58.5940   29.8720   53.5260 O   0  0  0  0  0  0  0  0  0  0  0  0
   58.4450   31.2100   51.6130 N   0  0  0  0  0  0  0  0  0  0  0  0
   57.7770   32.3890   51.0450 C   0  0  0  0  0  0  0  0  0  0  0  0
   56.7235   32.3957   51.3614 H   0  0  0  0  0  0  0  0  0  0  0  0
   58.2868   33.2948   51.4052 H   0  0  0  0  0  0  0  0  0  0  0  0
   57.8440   32.3580   49.5080 C   0  0  0  0  0  0  0  0  0  0  0  0
   56.9626   31.8188   49.1306 H   0  0  0  0  0  0  0  0  0  0  0  0
   57.8703   33.4016   49.1612 H   0  0  0  0  0  0  0  0  0  0  0  0
   59.0620   31.6910   48.9890 N   0  0  0  0  0  0  0  0  0  0  0  0
   59.5400   32.3370   47.4350 S   0  0  0  0  0  0  0  0  0  0  0  0
   61.0380   32.4430   47.3670 O   0  0  0  0  0  0  0  0  0  0  0  0
   58.9610   33.7160   47.3020 O   0  0  0  0  0  0  0  0  0  0  0  0
   58.9550   31.3630   46.0460 C   0  0  0  0  0  0  0  0  0  0  0  0
   58.0760   31.8610   45.6108 H   0  0  0  0  0  0  0  0  0  0  0  0
   59.7774   31.2882   45.3193 H   0  0  0  0  0  0  0  0  0  0  0  0
   58.5640   29.9470   46.4520 C   0  0  0  0  0  0  0  0  0  0  0  0
   58.5435   29.8726   47.5493 H   0  0  0  0  0  0  0  0  0  0  0  0
   57.5674   29.7122   46.0499 H   0  0  0  0  0  0  0  0  0  0  0  0
   59.2989   29.2341   46.0499 H   0  0  0  0  0  0  0  0  0  0  0  0
   60.1900   31.7000   49.9330 C   0  0  0  0  0  0  0  0  0  0  0  0
   61.0727   31.2490   49.4562 H   0  0  0  0  0  0  0  0  0  0  0  0
   60.4229   32.7356   50.2215 H   0  0  0  0  0  0  0  0  0  0  0  0
   59.8100   30.8910   51.1780 C   0  0  0  0  0  0  0  0  0  0  0  0
   59.8717   29.8181   50.9431 H   0  0  0  0  0  0  0  0  0  0  0  0
   60.5066   31.1471   51.9899 H   0  0  0  0  0  0  0  0  0  0  0  0
   55.7130   29.8290   53.8690 N   0  0  0  0  0  0  0  0  0  0  0  0
   56.3010   29.4480   55.1650 C   0  0  0  0  0  0  0  0  0  0  0  0
   57.2694   29.9557   55.2854 H   0  0  0  0  0  0  0  0  0  0  0  0
   55.6110   29.7468   55.9679 H   0  0  0  0  0  0  0  0  0  0  0  0
   56.5150   27.9330   55.2380 C   0  0  0  0  0  0  0  0  0  0  0  0
   57.2977   27.7148   55.9795 H   0  0  0  0  0  0  0  0  0  0  0  0
   55.5672   27.4571   55.5298 H   0  0  0  0  0  0  0  0  0  0  0  0
   56.9120   27.4190   53.9790 O   0  0  0  0  0  0  0  0  0  0  0  0
   58.1560   26.7640   54.0850 C   0  0  0  0  0  0  0  0  0  0  0  0
   58.4105   26.6300   55.1467 H   0  0  0  0  0  0  0  0  0  0  0  0
   58.0956   25.7808   53.5955 H   0  0  0  0  0  0  0  0  0  0  0  0
   58.9325   27.3702   53.5955 H   0  0  0  0  0  0  0  0  0  0  0  0
  1  2  1  0
  2  3  1  0
  2  4  2  0
  4  5  1  0
  5  6  2  0
  6  7  1  0
  6  8  1  0
  8  9  1  0
  9 10  1  0
 10 11  2  0
 10 12  1  0
 12 13  1  0
 13 14  1  0
  5 15  1  0
 15 16  1  0
 15 17  2  0
 17 18  1  0
 18 19  2  0
 18 20  1  0
 20 21  1  0
 21 22  1  0
 21 23  1  0
 21 24  1  0
 24 25  1  0
 24 26  1  0
 24 27  1  0
 27 28  1  0
 28 29  2  0
 28 30  2  0
 28 31  1  0
 31 32  1  0
 31 33  1  0
 31 34  1  0
 34 35  1  0
 34 36  1  0
 34 37  1  0
 27 38  1  0
 38 39  1  0
 38 40  1  0
 38 41  1  0
 41 42  1  0
 41 43  1  0
 17 44  1  0
 44 45  1  0
 45 46  1  0
 45 47  1  0
 45 48  1  0
 48 49  1  0
 48 50  1  0
 48 51  1  0
 51 52  1  0
 52 53  1  0
 52 54  1  0
 52 55  1  0
 44  4  1  0
 13  8  2  0
 41 20  1  0
M  CHG  3   9  -1  12  -1  14  -1
M  END
>  <UniqueID>  (29) 
28

>  <SMILES>  (29) 
C=c1/c(=C\c2[n-]c(=O)[n-]c2[O-])cc(C(=O)N2CCN(S(=O)(=O)CC)CC2)n1CCOC

>  <Energy>  (29) 
127.57653125750967

>  <Genealogy>  (29) 
C=c1c(=Cc2[n-]c(=O)[n-]c2[O-])cc(C(=O)N2CCN(S(=O)(=O)CC)CC2)n1CCOC (protonated)
C=c1/c(=C\c2[n-]c(=O)[n-]c2[O-])cc(C(=O)N2CCN(S(=O)(=O)CC)CC2)n1CCOC (cis-trans isomerization)
C=c1/c(=C\c2[n-]c(=O)[n-]c2[O-])cc(C(=O)N2CCN(S(=O)(=O)CC)CC2)n1CCOC (3D coordinates assigned)
C=c1/c(=C\c2[n-]c(=O)[n-]c2[O-])cc(C(=O)N2CCN(S(=O)(=O)CC)CC2)n1CCOC (nonaromatic ring conformer: 127.57653125750967 kcal/mol)

>  <smiles>  (29) 
C=c1c(=Cc2[nH]c(=O)[nH]c2O)cc(C(=O)N2CCN(S(=O)(=O)CC)CC2)n1CCOC

>  <score_type>  (29) 
oracle

>  <origin>  (29) 
adg

>  <m_score__min__energy>  (29) 
-15.92

>  <m_primary>  (29) 
energy

$$$$
29:0
     RDKit          3D

 44 46  0  0  0  0  0  0  0  0999 V2000
   58.9410   31.3840   51.0030 O   0  0  0  0  0  0  0  0  0  0  0  0
   59.1050   31.5660   49.7670 C   0  0  0  0  0  0  0  0  0  0  0  0
   59.8410   30.5440   48.9550 C   0  0  0  0  0  0  0  0  0  0  0  0
   61.3360   30.5210   49.2980 C   0  0  0  0  0  0  0  0  0  0  0  0
   62.0700   31.7010   48.7030 C   0  0  0  0  0  0  0  0  0  0  0  0
   62.7940   31.5330   47.5100 C   0  0  0  0  0  0  0  0  0  0  0  0
   63.4290   32.6210   46.9090 C   0  0  0  0  0  0  0  0  0  0  0  0
   63.3450   33.8890   47.4880 C   0  0  0  0  0  0  0  0  0  0  0  0
   62.6280   34.0700   48.6720 C   0  0  0  0  0  0  0  0  0  0  0  0
   61.9890   32.9830   49.2860 C   0  0  0  0  0  0  0  0  0  0  0  0
   61.2740   33.1770   50.4670 O   0  0  0  0  0  0  0  0  0  0  0  0
   58.6010   32.7430   49.1240 N   0  0  0  0  0  0  0  0  0  0  0  0
   58.7050   33.0630   47.7300 C   0  0  0  0  0  0  0  0  0  0  0  0
   59.1520   34.3390   47.3650 C   0  0  0  0  0  0  0  0  0  0  0  0
   59.2360   34.7000   46.0180 C   0  0  0  0  0  0  0  0  0  0  0  0
   58.8560   33.7950   45.0250 C   0  0  0  0  0  0  0  0  0  0  0  0
   58.3800   32.5260   45.3750 C   0  0  0  0  0  0  0  0  0  0  0  0
   57.8920   31.4000   44.1120 S   0  0  0  0  0  0  0  0  0  0  0  0
   57.3940   32.1370   42.8990 O   0  0  0  0  0  0  0  0  0  0  0  0
   59.0790   30.5720   43.7120 O   0  0  0  0  0  0  0  0  0  0  0  0
   56.6420   30.3540   44.7050 N   0  0  0  0  0  0  0  0  0  0  0  0
   56.8530   29.1970   45.2520 C   0  0  0  0  0  0  0  0  0  0  0  0
   55.9270   28.2150   45.2380 N   0  0  0  0  0  0  0  0  0  0  0  0
   56.3720   27.0950   45.8700 C   0  0  0  0  0  0  0  0  0  0  0  0
   55.5330   25.8940   45.9820 C   0  0  0  0  0  0  0  0  0  0  0  0
   56.0310   24.7960   46.3470 O   0  0  0  0  0  0  0  0  0  0  0  0
   54.1780   25.9640   45.6830 O   0  0  0  0  0  0  0  0  0  0  0  0
   57.6640   27.1820   46.3910 C   0  0  0  0  0  0  0  0  0  0  0  0
   58.2620   28.7160   46.0460 S   0  0  0  0  0  0  0  0  0  0  0  0
   58.3040   32.1620   46.7270 C   0  0  0  0  0  0  0  0  0  0  0  0
   59.4129   29.5512   49.1575 H   0  0  0  0  0  0  0  0  0  0  0  0
   59.7356   30.8076   47.8923 H   0  0  0  0  0  0  0  0  0  0  0  0
   61.4502   30.5461   50.3918 H   0  0  0  0  0  0  0  0  0  0  0  0
   61.7684   29.6024   48.8747 H   0  0  0  0  0  0  0  0  0  0  0  0
   62.8606   30.5374   47.0469 H   0  0  0  0  0  0  0  0  0  0  0  0
   63.9967   32.4794   45.9775 H   0  0  0  0  0  0  0  0  0  0  0  0
   63.8440   34.7454   47.0110 H   0  0  0  0  0  0  0  0  0  0  0  0
   62.5639   35.0701   49.1256 H   0  0  0  0  0  0  0  0  0  0  0  0
   60.2670   33.0750   50.5020 H   0  0  0  0  0  0  0  0  0  0  0  0
   59.4387   35.0613   48.1435 H   0  0  0  0  0  0  0  0  0  0  0  0
   59.6022   35.6991   45.7392 H   0  0  0  0  0  0  0  0  0  0  0  0
   58.9308   34.0799   43.9652 H   0  0  0  0  0  0  0  0  0  0  0  0
   58.1976   26.3869   46.9323 H   0  0  0  0  0  0  0  0  0  0  0  0
   57.9286   31.1661   47.0049 H   0  0  0  0  0  0  0  0  0  0  0  0
  1  2  2  0
  2  3  1  0
  3  4  1  0
  4  5  1  0
  5  6  2  0
  6  7  1  0
  7  8  2  0
  8  9  1  0
  9 10  2  0
 10 11  1  0
  2 12  1  0
 12 13  1  0
 13 14  2  0
 14 15  1  0
 15 16  2  0
 16 17  1  0
 17 18  1  0
 18 19  2  0
 18 20  2  0
 18 21  1  0
 21 22  2  3
 22 23  1  0
 23 24  1  0
 24 25  1  0
 25 26  2  0
 25 27  1  0
 24 28  2  0
 28 29  1  0
 17 30  2  0
 10  5  1  0
 30 13  1  0
 29 22  1  0
  3 31  1  0
  3 32  1  0
  4 33  1  0
  4 34  1  0
  6 35  1  0
  7 36  1  0
  8 37  1  0
  9 38  1  0
 11 39  1  0
 14 40  1  0
 15 41  1  0
 16 42  1  0
 28 43  1  0
 30 44  1  0
M  CHG  3  12  -1  23  -1  27  -1
M  END
>  <UniqueID>  (30) 
29

>  <SMILES>  (30) 
O=C(CCc1ccccc1O)[N-]c1cccc(S(=O)(=O)N=c2[n-]c(C(=O)[O-])cs2)c1

>  <Energy>  (30) 
77.01467891892727

>  <Genealogy>  (30) 
O=C(CCc1ccccc1O)[N-]c1cccc(S(=O)(=O)N=c2[n-]c(C(=O)[O-])cs2)c1 (protonated)
O=C(CCc1ccccc1O)[N-]c1cccc(S(=O)(=O)N=c2[n-]c(C(=O)[O-])cs2)c1 (3D coordinates assigned)
O=C(CCc1ccccc1O)[N-]c1cccc(S(=O)(=O)N=c2[n-]c(C(=O)[O-])cs2)c1 (optimized conformer: 77.01467891892727 kcal/mol)

>  <smiles>  (30) 
O=C(CCc1ccccc1O)Nc1cccc(S(=O)(=O)N=c2[nH]c(C(=O)O)cs2)c1

>  <score_type>  (30) 
oracle

>  <origin>  (30) 
adg

>  <m_score__min__energy>  (30) 
-15.01

>  <m_primary>  (30) 
energy

$$$$
30:0
     RDKit          3D

 44 46  0  0  0  0  0  0  0  0999 V2000
   56.3310   30.8130   55.1700 C   0  0  0  0  0  0  0  0  0  0  0  0
   55.9740   30.1470   53.9130 N   0  0  0  0  0  0  0  0  0  0  0  0
   54.7410   29.3580   53.8130 C   0  0  0  0  0  0  0  0  0  0  0  0
   53.6490   30.2020   53.2130 C   0  0  0  0  0  0  0  0  0  0  0  0
   53.7280   30.6360   51.8800 C   0  0  0  0  0  0  0  0  0  0  0  0
   52.7380   31.4700   51.3500 C   0  0  0  0  0  0  0  0  0  0  0  0
   51.6690   31.8850   52.1520 C   0  0  0  0  0  0  0  0  0  0  0  0
   50.6890   32.7180   51.6260 O   0  0  0  0  0  0  0  0  0  0  0  0
   51.5910   31.4670   53.4830 C   0  0  0  0  0  0  0  0  0  0  0  0
   52.5790   30.6320   54.0140 C   0  0  0  0  0  0  0  0  0  0  0  0
   56.7950   30.3260   52.7440 C   0  0  0  0  0  0  0  0  0  0  0  0
   56.4420   29.8120   51.6480 O   0  0  0  0  0  0  0  0  0  0  0  0
   58.0070   31.2100   52.7740 C   0  0  0  0  0  0  0  0  0  0  0  0
   58.5460   31.3780   51.3850 C   0  0  0  0  0  0  0  0  0  0  0  0
   59.7660   30.8410   50.9790 C   0  0  0  0  0  0  0  0  0  0  0  0
   60.0020   31.2530   49.3660 S   0  0  0  0  0  0  0  0  0  0  0  0
   58.5450   32.0780   49.2560 C   0  0  0  0  0  0  0  0  0  0  0  0
   58.1720   32.7180   48.1890 N   0  0  0  0  0  0  0  0  0  0  0  0
   58.9780   33.4940   47.2860 C   0  0  0  0  0  0  0  0  0  0  0  0
   58.7850   33.3550   46.0490 O   0  0  0  0  0  0  0  0  0  0  0  0
   59.9520   34.5500   47.7430 C   0  0  0  0  0  0  0  0  0  0  0  0
   61.3700   34.0540   47.7760 C   0  0  0  0  0  0  0  0  0  0  0  0
   62.0900   33.4700   46.7350 C   0  0  0  0  0  0  0  0  0  0  0  0
   63.3440   32.9870   47.1280 C   0  0  0  0  0  0  0  0  0  0  0  0
   63.6110   33.1620   48.4790 C   0  0  0  0  0  0  0  0  0  0  0  0
   62.2820   33.9140   49.1810 S   0  0  0  0  0  0  0  0  0  0  0  0
   57.8670   32.0640   50.4250 N   0  0  0  0  0  0  0  0  0  0  0  0
   56.0003   30.1961   56.0186 H   0  0  0  0  0  0  0  0  0  0  0  0
   57.4218   30.9469   55.2171 H   0  0  0  0  0  0  0  0  0  0  0  0
   55.8386   31.7955   55.2171 H   0  0  0  0  0  0  0  0  0  0  0  0
   54.9186   28.4806   53.1738 H   0  0  0  0  0  0  0  0  0  0  0  0
   54.4369   29.0266   54.8168 H   0  0  0  0  0  0  0  0  0  0  0  0
   54.5720   30.3188   51.2498 H   0  0  0  0  0  0  0  0  0  0  0  0
   52.7998   31.7998   50.3024 H   0  0  0  0  0  0  0  0  0  0  0  0
   50.7516   31.7951   54.1137 H   0  0  0  0  0  0  0  0  0  0  0  0
   52.5176   30.3105   55.0642 H   0  0  0  0  0  0  0  0  0  0  0  0
   57.7314   32.1943   53.1806 H   0  0  0  0  0  0  0  0  0  0  0  0
   58.7774   30.7495   53.4099 H   0  0  0  0  0  0  0  0  0  0  0  0
   60.4534   30.2516   51.6035 H   0  0  0  0  0  0  0  0  0  0  0  0
   59.8939   35.4048   47.0531 H   0  0  0  0  0  0  0  0  0  0  0  0
   59.6756   34.8362   48.7685 H   0  0  0  0  0  0  0  0  0  0  0  0
   61.7101   33.3959   45.7054 H   0  0  0  0  0  0  0  0  0  0  0  0
   64.0514   32.5132   46.4315 H   0  0  0  0  0  0  0  0  0  0  0  0
   64.5321   32.8609   48.9995 H   0  0  0  0  0  0  0  0  0  0  0  0
  1  2  1  0
  2  3  1  0
  3  4  1  0
  4  5  2  0
  5  6  1  0
  6  7  2  0
  7  8  1  0
  7  9  1  0
  9 10  2  0
  2 11  1  0
 11 12  2  0
 11 13  1  0
 13 14  1  0
 14 15  2  0
 15 16  1  0
 16 17  1  0
 17 18  2  3
 18 19  1  0
 19 20  2  0
 19 21  1  0
 21 22  1  0
 22 23  2  0
 23 24  1  0
 24 25  2  0
 25 26  1  0
 17 27  1  0
 10  4  1  0
 27 14  1  0
 26 22  1  0
  1 28  1  0
  1 29  1  0
  1 30  1  0
  3 31  1  0
  3 32  1  0
  5 33  1  0
  6 34  1  0
  9 35  1  0
 10 36  1  0
 13 37  1  0
 13 38  1  0
 15 39  1  0
 21 40  1  0
 21 41  1  0
 23 42  1  0
 24 43  1  0
 25 44  1  0
M  CHG  2   8  -1  27  -1
M  END
>  <UniqueID>  (31) 
30

>  <SMILES>  (31) 
CN(Cc1ccc([O-])cc1)C(=O)Cc1csc(=NC(=O)Cc2cccs2)[n-]1

>  <Energy>  (31) 
95.46427516773878

>  <Genealogy>  (31) 
CN(Cc1ccc([O-])cc1)C(=O)Cc1csc(=NC(=O)Cc2cccs2)[n-]1 (protonated)
CN(Cc1ccc([O-])cc1)C(=O)Cc1csc(=NC(=O)Cc2cccs2)[n-]1 (3D coordinates assigned)
CN(Cc1ccc([O-])cc1)C(=O)Cc1csc(=NC(=O)Cc2cccs2)[n-]1 (optimized conformer: 95.46427516773878 kcal/mol)

>  <smiles>  (31) 
CN(Cc1ccc(O)cc1)C(=O)Cc1csc(=NC(=O)Cc2cccs2)[nH]1

>  <score_type>  (31) 
oracle

>  <origin>  (31) 
adg

>  <m_score__min__energy>  (31) 
-12.890000000000001

>  <m_primary>  (31) 
energy

$$$$
31:0
     RDKit          3D

 44 47  0  0  0  0  0  0  0  0999 V2000
   54.7690   27.4450   46.3330 H   0  0  0  0  0  0  0  0  0  0  0  0
   55.4480   26.7140   46.0280 N   0  0  0  0  0  0  0  0  0  0  0  0
   56.7250   26.9060   45.9020 C   0  0  0  0  0  0  0  0  0  0  0  0
   57.5700   25.9220   46.3160 N   0  0  0  0  0  0  0  0  0  0  0  0
   58.9210   26.0540   46.2620 C   0  0  0  0  0  0  0  0  0  0  0  0
   59.5673   25.2322   46.6040 H   0  0  0  0  0  0  0  0  0  0  0  0
   59.4890   27.2290   45.7740 C   0  0  0  0  0  0  0  0  0  0  0  0
   60.5823   27.3446   45.7373 H   0  0  0  0  0  0  0  0  0  0  0  0
   58.6570   28.2560   45.3330 C   0  0  0  0  0  0  0  0  0  0  0  0
   59.0968   29.1854   44.9421 H   0  0  0  0  0  0  0  0  0  0  0  0
   57.2610   28.1130   45.3840 C   0  0  0  0  0  0  0  0  0  0  0  0
   56.4100   29.2020   44.8480 C   0  0  0  0  0  0  0  0  0  0  0  0
   55.1580   29.0540   44.8580 O   0  0  0  0  0  0  0  0  0  0  0  0
   56.9940   30.4350   44.2590 C   0  0  0  0  0  0  0  0  0  0  0  0
   56.9390   30.6790   42.8760 C   0  0  0  0  0  0  0  0  0  0  0  0
   56.4387   29.9584   42.2124 H   0  0  0  0  0  0  0  0  0  0  0  0
   57.5010   31.8010   42.3550 N   0  0  0  0  0  0  0  0  0  0  0  0
   58.1200   32.7240   43.1360 C   0  0  0  0  0  0  0  0  0  0  0  0
   58.5681   33.6177   42.6771 H   0  0  0  0  0  0  0  0  0  0  0  0
   58.1900   32.5430   44.5210 C   0  0  0  0  0  0  0  0  0  0  0  0
   58.8630   33.5220   45.3310 N   0  0  0  0  0  0  0  0  0  0  0  0
   58.6350   34.5290   45.1690 H   0  0  0  0  0  0  0  0  0  0  0  0
   59.7150   33.1960   46.4420 C   0  0  0  0  0  0  0  0  0  0  0  0
   59.7850   32.0130   46.8730 O   0  0  0  0  0  0  0  0  0  0  0  0
   60.4560   34.2800   47.1620 C   0  0  0  0  0  0  0  0  0  0  0  0
   60.4549   35.1922   46.5472 H   0  0  0  0  0  0  0  0  0  0  0  0
   59.9610   34.4777   48.1242 H   0  0  0  0  0  0  0  0  0  0  0  0
   61.8700   33.8540   47.4150 C   0  0  0  0  0  0  0  0  0  0  0  0
   62.7940   33.4540   46.4540 C   0  0  0  0  0  0  0  0  0  0  0  0
   62.6108   33.4528   45.3694 H   0  0  0  0  0  0  0  0  0  0  0  0
   63.9490   33.0670   47.0420 N   0  0  0  0  0  0  0  0  0  0  0  0
   64.8070   32.7180   46.5620 H   0  0  0  0  0  0  0  0  0  0  0  0
   63.7580   33.2090   48.3650 C   0  0  0  0  0  0  0  0  0  0  0  0
   64.6660   32.9220   49.3840 C   0  0  0  0  0  0  0  0  0  0  0  0
   65.6727   32.5413   49.1567 H   0  0  0  0  0  0  0  0  0  0  0  0
   64.2530   33.1350   50.7120 C   0  0  0  0  0  0  0  0  0  0  0  0
   64.9446   32.9220   51.5404 H   0  0  0  0  0  0  0  0  0  0  0  0
   62.9550   33.6210   50.9880 C   0  0  0  0  0  0  0  0  0  0  0  0
   62.6429   33.7824   52.0304 H   0  0  0  0  0  0  0  0  0  0  0  0
   62.0590   33.9000   49.9400 C   0  0  0  0  0  0  0  0  0  0  0  0
   61.0459   34.2772   50.1434 H   0  0  0  0  0  0  0  0  0  0  0  0
   62.4990   33.6820   48.6330 C   0  0  0  0  0  0  0  0  0  0  0  0
   57.6430   31.3750   45.0760 C   0  0  0  0  0  0  0  0  0  0  0  0
   57.7234   31.1950   46.1582 H   0  0  0  0  0  0  0  0  0  0  0  0
  1  2  1  0
  2  3  2  0
  3  4  1  0
  4  5  1  0
  5  6  1  0
  5  7  2  0
  7  8  1  0
  7  9  1  0
  9 10  1  0
  9 11  2  0
 11 12  1  0
 12 13  2  0
 12 14  1  0
 14 15  2  0
 15 16  1  0
 15 17  1  0
 17 18  2  0
 18 19  1  0
 18 20  1  0
 20 21  1  0
 21 22  1  0
 21 23  1  0
 23 24  2  0
 23 25  1  0
 25 26  1  0
 25 27  1  0
 25 28  1  0
 28 29  2  0
 29 30  1  0
 29 31  1  0
 31 32  1  0
 31 33  1  0
 33 34  2  0
 34 35  1  0
 34 36  1  0
 36 37  1  0
 36 38  2  0
 38 39  1  0
 38 40  1  0
 40 41  1  0
 40 42  2  0
 20 43  2  0
 43 44  1  0
 11  3  1  0
 43 14  1  0
 42 28  1  0
 42 33  1  0
M  CHG  1   4  -1
M  END
>  <UniqueID>  (32) 
31

>  <SMILES>  (32) 
[H]/N=c1/[n-]cccc1C(=O)c1cncc(NC(=O)Cc2c[nH]c3ccccc23)c1

>  <Energy>  (32) 
93.90533995893931

>  <Genealogy>  (32) 
N=c1[n-]cccc1C(=O)c1cncc(NC(=O)Cc2c[nH]c3ccccc23)c1 (protonated)
[H]/N=c1/[n-]cccc1C(=O)c1cncc(NC(=O)Cc2c[nH]c3ccccc23)c1 (cis-trans isomerization)
[H]/N=c1/[n-]cccc1C(=O)c1cncc(NC(=O)Cc2c[nH]c3ccccc23)c1 (3D coordinates assigned)
[H]/N=c1/[n-]cccc1C(=O)c1cncc(NC(=O)Cc2c[nH]c3ccccc23)c1 (optimized conformer: 93.90533995893931 kcal/mol)

>  <smiles>  (32) 
N=c1[nH]cccc1C(=O)c1cncc(NC(=O)Cc2c[nH]c3ccccc23)c1

>  <score_type>  (32) 
oracle

>  <origin>  (32) 
adg

>  <m_score__min__energy>  (32) 
-12.460000000000001

>  <m_primary>  (32) 
energy

$$$$
32:0
     RDKit          3D

 72 77  0  0  0  0  0  0  0  0999 V2000
   54.4210   29.3660   45.1870 H   0  0  0  0  0  0  0  0  0  0  0  0
   55.3740   29.0680   44.8770 N   0  0  0  0  0  0  0  0  0  0  0  0
   56.1670   29.9040   44.0380 C   0  0  0  0  0  0  0  0  0  0  0  0
   56.0250   29.8310   42.7890 O   0  0  0  0  0  0  0  0  0  0  0  0
   57.1500   30.8440   44.6240 C   0  0  0  0  0  0  0  0  0  0  0  0
   57.0510   32.2370   44.3640 C   0  0  0  0  0  0  0  0  0  0  0  0
   56.2493   32.6127   43.7111 H   0  0  0  0  0  0  0  0  0  0  0  0
   57.9650   33.1400   44.9310 C   0  0  0  0  0  0  0  0  0  0  0  0
   57.8788   34.2214   44.7490 H   0  0  0  0  0  0  0  0  0  0  0  0
   58.9820   32.6280   45.7290 C   0  0  0  0  0  0  0  0  0  0  0  0
   59.1090   31.2830   45.9670 C   0  0  0  0  0  0  0  0  0  0  0  0
   58.1910   30.3660   45.4550 C   0  0  0  0  0  0  0  0  0  0  0  0
   58.2744   29.2951   45.6919 H   0  0  0  0  0  0  0  0  0  0  0  0
   60.1990   31.1210   46.8100 C   0  0  0  0  0  0  0  0  0  0  0  0
   60.7230   29.8350   47.3990 C   0  0  0  0  0  0  0  0  0  0  0  0
   60.7845   29.0804   46.6010 H   0  0  0  0  0  0  0  0  0  0  0  0
   61.7116   30.0439   47.8338 H   0  0  0  0  0  0  0  0  0  0  0  0
   59.8110   29.2870   48.5360 C   0  0  1  0  0  0  0  0  0  0  0  0
   59.1593   28.5384   48.0618 H   0  0  0  0  0  0  0  0  0  0  0  0
   60.6070   28.6290   49.5910 N   0  0  0  0  0  0  0  0  0  0  0  0
   61.1900   27.8670   49.1710 H   0  0  0  0  0  0  0  0  0  0  0  0
   61.4920   29.5660   50.3090 C   0  0  0  0  0  0  0  0  0  0  0  0
   62.3367   29.8248   49.6536 H   0  0  0  0  0  0  0  0  0  0  0  0
   61.8296   29.0660   51.2288 H   0  0  0  0  0  0  0  0  0  0  0  0
   60.7720   30.8650   50.7220 C   0  0  0  0  0  0  0  0  0  0  0  0
   61.1155   31.6853   50.0747 H   0  0  0  0  0  0  0  0  0  0  0  0
   61.0104   31.0715   51.7758 H   0  0  0  0  0  0  0  0  0  0  0  0
   59.2550   30.7310   50.5910 C   0  0  0  0  0  0  0  0  0  0  0  0
   58.7821   31.6873   50.8590 H   0  0  0  0  0  0  0  0  0  0  0  0
   58.9073   29.9353   51.2662 H   0  0  0  0  0  0  0  0  0  0  0  0
   58.8730   30.3640   49.1500 C   0  0  0  0  0  0  0  0  0  0  0  0
   58.9257   31.2712   48.5301 H   0  0  0  0  0  0  0  0  0  0  0  0
   57.8562   29.9449   49.1725 H   0  0  0  0  0  0  0  0  0  0  0  0
   60.6670   32.4200   47.0550 C   0  0  0  0  0  0  0  0  0  0  0  0
   61.7280   32.8090   48.0060 C   0  0  0  0  0  0  0  0  0  0  0  0
   61.4940   33.7730   48.9970 C   0  0  0  0  0  0  0  0  0  0  0  0
   60.5125   34.2657   49.0594 H   0  0  0  0  0  0  0  0  0  0  0  0
   62.4980   34.1110   49.9040 C   0  0  0  0  0  0  0  0  0  0  0  0
   62.3075   34.8804   50.6667 H   0  0  0  0  0  0  0  0  0  0  0  0
   63.7490   33.4780   49.8520 C   0  0  0  0  0  0  0  0  0  0  0  0
   64.8130   33.8010   50.8730 C   0  0  0  0  0  0  0  0  0  0  0  0
   64.3327   34.1724   51.7902 H   0  0  0  0  0  0  0  0  0  0  0  0
   65.4827   34.5677   50.4562 H   0  0  0  0  0  0  0  0  0  0  0  0
   65.6070   32.6010   51.1940 N   0  0  0  0  0  0  0  0  0  0  0  0
   66.9070   32.4240   50.8600 C   0  0  0  0  0  0  0  0  0  0  0  0
   67.7720   33.4430   50.1780 C   0  0  0  0  0  0  0  0  0  0  0  0
   68.2884   34.0513   50.9351 H   0  0  0  0  0  0  0  0  0  0  0  0
   68.5156   32.9311   49.5495 H   0  0  0  0  0  0  0  0  0  0  0  0
   67.1461   34.0936   49.5495 H   0  0  0  0  0  0  0  0  0  0  0  0
   67.3220   31.1480   51.1780 C   0  0  0  0  0  0  0  0  0  0  0  0
   68.3189   30.7195   50.9975 H   0  0  0  0  0  0  0  0  0  0  0  0
   66.2460   30.5100   51.7670 C   0  0  0  0  0  0  0  0  0  0  0  0
   66.3260   29.2520   52.2440 C   0  0  0  0  0  0  0  0  0  0  0  0
   66.0239   29.0945   53.2899 H   0  0  0  0  0  0  0  0  0  0  0  0
   66.7800   28.0700   51.4950 C   0  0  0  0  0  0  0  0  0  0  0  0
   67.8560   28.0380   50.6860 N   0  0  0  0  0  0  0  0  0  0  0  0
   67.7910   26.8070   50.1310 C   0  0  0  0  0  0  0  0  0  0  0  0
   68.6500   26.3860   49.3130 O   0  0  0  0  0  0  0  0  0  0  0  0
   66.7270   26.0680   50.5150 N   0  0  0  0  0  0  0  0  0  0  0  0
   66.0900   26.8890   51.3670 C   0  0  0  0  0  0  0  0  0  0  0  0
   64.9040   26.5690   52.0170 O   0  0  0  0  0  0  0  0  0  0  0  0
   64.4250   27.2560   52.5880 H   0  0  0  0  0  0  0  0  0  0  0  0
   65.1770   31.4230   51.7300 C   0  0  0  0  0  0  0  0  0  0  0  0
   63.8940   31.1650   52.0390 C   0  0  0  0  0  0  0  0  0  0  0  0
   63.1408   31.9639   51.9723 H   0  0  0  0  0  0  0  0  0  0  0  0
   63.5976   30.1550   52.3585 H   0  0  0  0  0  0  0  0  0  0  0  0
   63.9840   32.5140   48.8570 C   0  0  0  0  0  0  0  0  0  0  0  0
   64.9652   32.0208   48.7945 H   0  0  0  0  0  0  0  0  0  0  0  0
   62.9780   32.1780   47.9460 C   0  0  0  0  0  0  0  0  0  0  0  0
   63.1687   31.4141   47.1778 H   0  0  0  0  0  0  0  0  0  0  0  0
   59.9140   33.3300   46.3930 N   0  0  0  0  0  0  0  0  0  0  0  0
   60.0170   34.3690   46.4170 H   0  0  0  0  0  0  0  0  0  0  0  0
  1  2  1  0
  2  3  1  0
  3  4  2  0
  3  5  1  0
  5  6  2  0
  6  7  1  0
  6  8  1  0
  8  9  1  0
  8 10  2  0
 10 11  1  0
 11 12  2  0
 12 13  1  0
 11 14  1  0
 14 15  1  0
 15 16  1  0
 15 17  1  0
 15 18  1  0
 18 19  1  6
 18 20  1  0
 20 21  1  0
 20 22  1  0
 22 23  1  0
 22 24  1  0
 22 25  1  0
 25 26  1  0
 25 27  1  0
 25 28  1  0
 28 29  1  0
 28 30  1  0
 28 31  1  0
 31 32  1  0
 31 33  1  0
 14 34  2  0
 34 35  1  0
 35 36  2  0
 36 37  1  0
 36 38  1  0
 38 39  1  0
 38 40  2  0
 40 41  1  0
 41 42  1  0
 41 43  1  0
 41 44  1  0
 44 45  1  0
 45 46  1  0
 46 47  1  0
 46 48  1  0
 46 49  1  0
 45 50  2  0
 50 51  1  0
 50 52  1  0
 52 53  2  0
 53 54  1  0
 53 55  1  0
 55 56  1  0
 56 57  1  0
 57 58  2  0
 57 59  1  0
 59 60  1  0
 60 61  1  0
 61 62  1  0
 52 63  1  0
 63 64  2  0
 64 65  1  0
 64 66  1  0
 40 67  1  0
 67 68  1  0
 67 69  2  0
 69 70  1  0
 34 71  1  0
 71 72  1  0
 12  5  1  0
 31 18  1  0
 69 35  1  0
 71 10  1  0
 63 44  1  0
 60 55  2  0
M  CHG  3   2  -1  56  -1  59  -1
M  END
>  <UniqueID>  (33) 
32

>  <SMILES>  (33) 
C=c1/c(=C\c2[n-]c(=O)[n-]c2O)cc(C)n1Cc1ccc(-c2[nH]c3ccc(C([NH-])=O)cc3c2C[C@@H]2CCCCN2)cc1

>  <Energy>  (33) 
191.1971687122913

>  <Genealogy>  (33) 
C=c1c(=Cc2[n-]c(=O)[n-]c2O)cc(C)n1Cc1ccc(-c2[nH]c3ccc(C([NH-])=O)cc3c2CC2CCCCN2)cc1 (protonated)
C=c1c(=Cc2[n-]c(=O)[n-]c2O)cc(C)n1Cc1ccc(-c2[nH]c3ccc(C([NH-])=O)cc3c2C[C@@H]2CCCCN2)cc1 (chirality)
C=c1/c(=C\c2[n-]c(=O)[n-]c2O)cc(C)n1Cc1ccc(-c2[nH]c3ccc(C([NH-])=O)cc3c2C[C@@H]2CCCCN2)cc1 (cis-trans isomerization)
C=c1/c(=C\c2[n-]c(=O)[n-]c2O)cc(C)n1Cc1ccc(-c2[nH]c3ccc(C([NH-])=O)cc3c2C[C@@H]2CCCCN2)cc1 (3D coordinates assigned)
C=c1/c(=C\c2[n-]c(=O)[n-]c2O)cc(C)n1Cc1ccc(-c2[nH]c3ccc(C([NH-])=O)cc3c2C[C@@H]2CCCCN2)cc1 (nonaromatic ring conformer: 191.1971687122913 kcal/mol)

>  <smiles>  (33) 
C=c1c(=Cc2[nH]c(=O)[nH]c2O)cc(C)n1Cc1ccc(-c2[nH]c3ccc(C(N)=O)cc3c2CC2CCCCN2)cc1

>  <score_type>  (33) 
oracle

>  <origin>  (33) 
adg

>  <m_score__min__energy>  (33) 
-14.24

>  <m_primary>  (33) 
energy

$$$$
33:0
     RDKit          3D

 52 54  0  0  0  0  0  0  0  0999 V2000
   57.3344   28.5944   42.6842 H   0  0  0  0  0  0  0  0  0  0  0  0
   56.9500   29.4040   43.3220 C   0  0  0  0  0  0  0  0  0  0  0  0
   56.3970   29.0640   44.6510 C   0  0  0  0  0  0  0  0  0  0  0  0
   55.1690   29.2200   44.8830 O   0  0  0  0  0  0  0  0  0  0  0  0
   57.2220   28.4850   45.6700 N   0  0  0  0  0  0  0  0  0  0  0  0
   58.3050   29.1330   46.3520 C   0  0  0  0  0  0  0  0  0  0  0  0
   59.2320   29.8720   45.6070 C   0  0  0  0  0  0  0  0  0  0  0  0
   59.1150   29.9556   44.5164 H   0  0  0  0  0  0  0  0  0  0  0  0
   60.3050   30.5040   46.2410 C   0  0  0  0  0  0  0  0  0  0  0  0
   61.0184   31.0968   45.6497 H   0  0  0  0  0  0  0  0  0  0  0  0
   60.4760   30.3860   47.6250 C   0  0  0  0  0  0  0  0  0  0  0  0
   61.8160   31.2160   48.4120 S   0  0  0  0  0  0  0  0  0  0  0  0
   62.3240   30.3880   49.5600 O   0  0  0  0  0  0  0  0  0  0  0  0
   62.9250   31.3860   47.4130 O   0  0  0  0  0  0  0  0  0  0  0  0
   61.2630   32.7800   48.9750 N   0  0  0  0  0  0  0  0  0  0  0  0
   59.8480   33.0350   48.6200 C   0  0  0  0  0  0  0  0  0  0  0  0
   59.7540   34.0803   48.2905 H   0  0  0  0  0  0  0  0  0  0  0  0
   59.5789   32.3231   47.8257 H   0  0  0  0  0  0  0  0  0  0  0  0
   58.8730   32.8020   49.7890 C   0  0  0  0  0  0  0  0  0  0  0  0
   58.7788   33.7272   50.3765 H   0  0  0  0  0  0  0  0  0  0  0  0
   57.8885   32.5155   49.3906 H   0  0  0  0  0  0  0  0  0  0  0  0
   59.3800   31.7280   50.6490 N   0  0  0  0  0  0  0  0  0  0  0  0
   58.1800   31.2810   51.8360 S   0  0  0  0  0  0  0  0  0  0  0  0
   58.8390   30.6590   53.0360 O   0  0  0  0  0  0  0  0  0  0  0  0
   57.2200   30.2930   51.2330 O   0  0  0  0  0  0  0  0  0  0  0  0
   57.2620   32.7190   52.3450 C   0  0  0  0  0  0  0  0  0  0  0  0
   57.2325   32.7652   53.4436 H   0  0  0  0  0  0  0  0  0  0  0  0
   57.7502   33.6234   51.9529 H   0  0  0  0  0  0  0  0  0  0  0  0
   56.2361   32.6568   51.9529 H   0  0  0  0  0  0  0  0  0  0  0  0
   60.6280   32.1380   51.3230 C   0  0  0  0  0  0  0  0  0  0  0  0
   60.3704   32.7353   52.2100 H   0  0  0  0  0  0  0  0  0  0  0  0
   61.1764   31.2247   51.5969 H   0  0  0  0  0  0  0  0  0  0  0  0
   61.5440   32.9800   50.4070 C   0  0  0  0  0  0  0  0  0  0  0  0
   61.3992   34.0435   50.6479 H   0  0  0  0  0  0  0  0  0  0  0  0
   62.5795   32.6564   50.5884 H   0  0  0  0  0  0  0  0  0  0  0  0
   59.5680   29.6240   48.3720 C   0  0  0  0  0  0  0  0  0  0  0  0
   59.7010   29.5226   49.4592 H   0  0  0  0  0  0  0  0  0  0  0  0
   58.4930   28.9920   47.7390 C   0  0  0  0  0  0  0  0  0  0  0  0
   57.7918   28.3824   48.3278 H   0  0  0  0  0  0  0  0  0  0  0  0
   56.9990   30.6600   42.8690 C   0  0  0  0  0  0  0  0  0  0  0  0
   56.7356   30.8642   41.8207 H   0  0  0  0  0  0  0  0  0  0  0  0
   57.3970   31.7750   43.7400 C   0  0  0  0  0  0  0  0  0  0  0  0
   57.0120   31.9240   44.9880 O   0  0  0  0  0  0  0  0  0  0  0  0
   57.5520   33.0250   45.4560 C   0  0  0  0  0  0  0  0  0  0  0  0
   57.3570   33.5280   46.8470 C   0  0  0  0  0  0  0  0  0  0  0  0
   57.6586   32.7501   47.5639 H   0  0  0  0  0  0  0  0  0  0  0  0
   57.9717   34.4270   47.0014 H   0  0  0  0  0  0  0  0  0  0  0  0
   56.2969   33.7777   47.0014 H   0  0  0  0  0  0  0  0  0  0  0  0
   58.3260   33.6270   44.4840 C   0  0  0  0  0  0  0  0  0  0  0  0
   58.9036   34.5585   44.5777 H   0  0  0  0  0  0  0  0  0  0  0  0
   58.2250   32.8190   43.3720 C   0  0  0  0  0  0  0  0  0  0  0  0
   58.7042   32.9730   42.3939 H   0  0  0  0  0  0  0  0  0  0  0  0
  1  2  1  0
  2  3  1  0
  3  4  2  0
  3  5  1  0
  5  6  1  0
  6  7  2  0
  7  8  1  0
  7  9  1  0
  9 10  1  0
  9 11  2  0
 11 12  1  0
 12 13  2  0
 12 14  2  0
 12 15  1  0
 15 16  1  0
 16 17  1  0
 16 18  1  0
 16 19  1  0
 19 20  1  0
 19 21  1  0
 19 22  1  0
 22 23  1  0
 23 24  2  0
 23 25  2  0
 23 26  1  0
 26 27  1  0
 26 28  1  0
 26 29  1  0
 22 30  1  0
 30 31  1  0
 30 32  1  0
 30 33  1  0
 33 34  1  0
 33 35  1  0
 11 36  1  0
 36 37  1  0
 36 38  2  0
 38 39  1  0
  2 40  2  0
 40 41  1  0
 40 42  1  0
 42 43  1  0
 43 44  1  0
 44 45  1  0
 45 46  1  0
 45 47  1  0
 45 48  1  0
 44 49  2  0
 49 50  1  0
 49 51  1  0
 51 52  1  0
 38  6  1  0
 51 42  2  0
 33 15  1  0
M  CHG  1   5  -1
M  END
>  <UniqueID>  (34) 
33

>  <SMILES>  (34) 
Cc1ccc(/C=C/C(=O)[N-]c2ccc(S(=O)(=O)N3CCN(S(C)(=O)=O)CC3)cc2)o1

>  <Energy>  (34) 
83.63271459877271

>  <Genealogy>  (34) 
Cc1ccc(C=CC(=O)[N-]c2ccc(S(=O)(=O)N3CCN(S(C)(=O)=O)CC3)cc2)o1 (protonated)
Cc1ccc(/C=C/C(=O)[N-]c2ccc(S(=O)(=O)N3CCN(S(C)(=O)=O)CC3)cc2)o1 (cis-trans isomerization)
Cc1ccc(/C=C/C(=O)[N-]c2ccc(S(=O)(=O)N3CCN(S(C)(=O)=O)CC3)cc2)o1 (3D coordinates assigned)
Cc1ccc(/C=C/C(=O)[N-]c2ccc(S(=O)(=O)N3CCN(S(C)(=O)=O)CC3)cc2)o1 (nonaromatic ring conformer: 83.63271459877271 kcal/mol)

>  <smiles>  (34) 
Cc1ccc(C=CC(=O)Nc2ccc(S(=O)(=O)N3CCN(S(C)(=O)=O)CC3)cc2)o1

>  <score_type>  (34) 
oracle

>  <origin>  (34) 
adg

>  <m_score__min__energy>  (34) 
-10.880000000000001

>  <m_primary>  (34) 
energy

$$$$
34:0
     RDKit          3D

 67 70  0  0  0  0  0  0  0  0999 V2000
   58.2178   31.7152   42.6838 H   0  0  0  0  0  0  0  0  0  0  0  0
   57.7640   31.8130   43.6810 C   0  0  0  0  0  0  0  0  0  0  0  0
   57.2780   30.6020   44.3740 C   0  0  0  0  0  0  0  0  0  0  0  0
   56.0300   30.4670   44.5150 O   0  0  0  0  0  0  0  0  0  0  0  0
   58.1750   29.6210   44.9410 N   0  0  0  0  0  0  0  0  0  0  0  0
   59.5170   30.0280   45.4070 C   0  0  0  0  0  0  0  0  0  0  0  0
   59.9835   30.6727   44.6476 H   0  0  0  0  0  0  0  0  0  0  0  0
   59.4130   30.5736   46.3565 H   0  0  0  0  0  0  0  0  0  0  0  0
   60.4020   28.7990   45.6370 C   0  0  0  0  0  0  0  0  0  0  0  0
   60.6254   28.3271   44.6688 H   0  0  0  0  0  0  0  0  0  0  0  0
   61.3340   29.1176   46.1268 H   0  0  0  0  0  0  0  0  0  0  0  0
   59.7420   27.8630   46.4710 O   0  0  0  0  0  0  0  0  0  0  0  0
   58.6280   27.3300   45.7830 C   0  0  0  0  0  0  0  0  0  0  0  0
   58.9597   26.9289   44.8139 H   0  0  0  0  0  0  0  0  0  0  0  0
   58.1834   26.5305   46.3939 H   0  0  0  0  0  0  0  0  0  0  0  0
   57.5710   28.4150   45.5440 C   0  0  0  0  0  0  0  0  0  0  0  0
   56.7994   28.0219   44.8657 H   0  0  0  0  0  0  0  0  0  0  0  0
   57.1289   28.6921   46.5124 H   0  0  0  0  0  0  0  0  0  0  0  0
   57.6650   33.0290   44.2390 C   0  0  0  0  0  0  0  0  0  0  0  0
   57.0542   33.7940   43.7372 H   0  0  0  0  0  0  0  0  0  0  0  0
   58.3490   33.3800   45.5080 C   0  0  0  0  0  0  0  0  0  0  0  0
   59.3280   34.3820   45.5850 C   0  0  0  0  0  0  0  0  0  0  0  0
   59.6704   34.8828   44.6674 H   0  0  0  0  0  0  0  0  0  0  0  0
   59.8710   34.7480   46.8190 C   0  0  0  0  0  0  0  0  0  0  0  0
   60.6537   35.5195   46.8658 H   0  0  0  0  0  0  0  0  0  0  0  0
   59.4210   34.1340   48.0020 C   0  0  0  0  0  0  0  0  0  0  0  0
   59.8890   34.5230   49.2670 O   0  0  0  0  0  0  0  0  0  0  0  0
   61.1520   34.1670   49.8150 C   0  0  0  0  0  0  0  0  0  0  0  0
   61.7305   35.0769   50.0325 H   0  0  0  0  0  0  0  0  0  0  0  0
   61.0092   33.6018   50.7478 H   0  0  0  0  0  0  0  0  0  0  0  0
   61.8920   33.3250   48.8160 C   0  0  0  0  0  0  0  0  0  0  0  0
   61.5810   31.9620   48.6720 C   0  0  0  0  0  0  0  0  0  0  0  0
   60.7405   31.5284   49.2337 H   0  0  0  0  0  0  0  0  0  0  0  0
   62.3380   31.1560   47.8160 C   0  0  0  0  0  0  0  0  0  0  0  0
   62.0880   30.0911   47.7002 H   0  0  0  0  0  0  0  0  0  0  0  0
   63.4140   31.7030   47.1060 C   0  0  0  0  0  0  0  0  0  0  0  0
   64.0097   31.0675   46.4343 H   0  0  0  0  0  0  0  0  0  0  0  0
   63.7310   33.0570   47.2510 C   0  0  0  0  0  0  0  0  0  0  0  0
   64.5776   33.4858   46.6949 H   0  0  0  0  0  0  0  0  0  0  0  0
   62.9730   33.8660   48.1020 C   0  0  0  0  0  0  0  0  0  0  0  0
   63.2244   34.9311   48.2128 H   0  0  0  0  0  0  0  0  0  0  0  0
   58.4550   33.1190   47.9310 C   0  0  0  0  0  0  0  0  0  0  0  0
   57.9680   32.5710   49.1350 O   0  0  0  0  0  0  0  0  0  0  0  0
   58.6220   31.5510   49.8980 C   0  0  0  0  0  0  0  0  0  0  0  0
   59.6766   31.8299   50.0393 H   0  0  0  0  0  0  0  0  0  0  0  0
   58.5409   30.6011   49.3493 H   0  0  0  0  0  0  0  0  0  0  0  0
   57.9730   31.3770   51.2520 C   0  0  0  0  0  0  0  0  0  0  0  0
   57.0880   30.3620   51.4330 N   0  0  0  0  0  0  0  0  0  0  0  0
   56.5060   30.1050   52.6330 C   0  0  0  0  0  0  0  0  0  0  0  0
   55.5470   28.9540   52.7450 C   0  0  0  0  0  0  0  0  0  0  0  0
   55.3624   28.7325   53.8065 H   0  0  0  0  0  0  0  0  0  0  0  0
   54.5982   29.2183   52.2552 H   0  0  0  0  0  0  0  0  0  0  0  0
   55.9782   28.0685   52.2552 H   0  0  0  0  0  0  0  0  0  0  0  0
   56.8350   30.9170   53.7380 C   0  0  0  0  0  0  0  0  0  0  0  0
   56.2440   30.6540   55.0980 C   0  0  0  0  0  0  0  0  0  0  0  0
   56.9558   30.9707   55.8746 H   0  0  0  0  0  0  0  0  0  0  0  0
   55.3071   31.2201   55.2064 H   0  0  0  0  0  0  0  0  0  0  0  0
   56.0374   29.5790   55.2064 H   0  0  0  0  0  0  0  0  0  0  0  0
   57.6940   31.9630   53.5560 N   0  0  0  0  0  0  0  0  0  0  0  0
   57.9250   32.5790   54.3690 H   0  0  0  0  0  0  0  0  0  0  0  0
   58.2650   32.2260   52.3430 C   0  0  0  0  0  0  0  0  0  0  0  0
   59.2320   33.3720   52.2100 C   0  0  0  0  0  0  0  0  0  0  0  0
   59.5266   33.7212   53.2106 H   0  0  0  0  0  0  0  0  0  0  0  0
   60.1244   33.0369   51.6611 H   0  0  0  0  0  0  0  0  0  0  0  0
   58.7516   34.1953   51.6611 H   0  0  0  0  0  0  0  0  0  0  0  0
   57.9570   32.7190   46.6760 C   0  0  0  0  0  0  0  0  0  0  0  0
   57.2517   31.8771   46.6139 H   0  0  0  0  0  0  0  0  0  0  0  0
  1  2  1  0
  2  3  1  0
  3  4  2  0
  3  5  1  0
  5  6  1  0
  6  7  1  0
  6  8  1  0
  6  9  1  0
  9 10  1  0
  9 11  1  0
  9 12  1  0
 12 13  1  0
 13 14  1  0
 13 15  1  0
 13 16  1  0
 16 17  1  0
 16 18  1  0
  2 19  2  0
 19 20  1  0
 19 21  1  0
 21 22  2  0
 22 23  1  0
 22 24  1  0
 24 25  1  0
 24 26  2  0
 26 27  1  0
 27 28  1  0
 28 29  1  0
 28 30  1  0
 28 31  1  0
 31 32  2  0
 32 33  1  0
 32 34  1  0
 34 35  1  0
 34 36  2  0
 36 37  1  0
 36 38  1  0
 38 39  1  0
 38 40  2  0
 40 41  1  0
 26 42  1  0
 42 43  1  0
 43 44  1  0
 44 45  1  0
 44 46  1  0
 44 47  1  0
 47 48  2  0
 48 49  1  0
 49 50  1  0
 50 51  1  0
 50 52  1  0
 50 53  1  0
 49 54  2  0
 54 55  1  0
 55 56  1  0
 55 57  1  0
 55 58  1  0
 54 59  1  0
 59 60  1  0
 59 61  2  0
 61 62  1  0
 62 63  1  0
 62 64  1  0
 62 65  1  0
 42 66  2  0
 66 67  1  0
 16  5  1  0
 66 21  1  0
 40 31  1  0
 61 47  1  0
M  CHG  1  59   1
M  END
>  <UniqueID>  (35) 
34

>  <SMILES>  (35) 
Cc1nc(COc2cc(/C=C/C(=O)N3CCOCC3)ccc2OCc2ccccc2)c(C)[nH+]c1C

>  <Energy>  (35) 
78.2660602960058

>  <Genealogy>  (35) 
Cc1nc(COc2cc(C=CC(=O)N3CCOCC3)ccc2OCc2ccccc2)c(C)[nH+]c1C (protonated)
Cc1nc(COc2cc(/C=C/C(=O)N3CCOCC3)ccc2OCc2ccccc2)c(C)[nH+]c1C (cis-trans isomerization)
Cc1nc(COc2cc(/C=C/C(=O)N3CCOCC3)ccc2OCc2ccccc2)c(C)[nH+]c1C (3D coordinates assigned)
Cc1nc(COc2cc(/C=C/C(=O)N3CCOCC3)ccc2OCc2ccccc2)c(C)[nH+]c1C (nonaromatic ring conformer: 78.2660602960058 kcal/mol)

>  <smiles>  (35) 
Cc1nc(C)c(COc2cc(C=CC(=O)N3CCOCC3)ccc2OCc2ccccc2)nc1C

>  <score_type>  (35) 
oracle

>  <origin>  (35) 
adg

>  <m_score__min__energy>  (35) 
-9.2200000000000006

>  <m_primary>  (35) 
energy

$$$$
35:0
     RDKit          3D

 62 66  0  0  1  0  0  0  0  0999 V2000
   67.0030   32.7880   51.3560 Cl  0  0  0  0  0  0  0  0  0  0  0  0
   65.4030   33.0910   50.7060 C   0  0  0  0  0  0  0  0  0  0  0  0
   64.3610   33.5590   51.4810 C   0  0  0  0  0  0  0  0  0  0  0  0
   63.0970   33.8000   50.9730 C   0  0  0  0  0  0  0  0  0  0  0  0
   62.8970   33.5520   49.6270 C   0  0  0  0  0  0  0  0  0  0  0  0
   61.6510   33.7800   49.0810 C   0  0  0  0  0  0  0  0  0  0  0  0
   60.6440   34.2150   49.7590 N   0  0  0  0  0  0  0  0  0  0  0  0
   59.5940   33.3430   50.1890 C   0  0  0  0  0  0  0  0  0  0  0  0
   60.1760   32.0070   50.5850 C   0  0  0  0  0  0  0  0  0  0  0  0
   59.7690   30.9310   49.6420 C   0  0  0  0  0  0  0  0  0  0  0  0
   60.4960   29.8240   49.3370 C   0  0  0  0  0  0  0  0  0  0  0  0
   59.7690   29.0740   48.4210 C   0  0  0  0  0  0  0  0  0  0  0  0
   60.2400   27.7900   47.8480 C   0  0  0  0  0  0  0  0  0  0  0  0
   59.7670   27.5920   46.5000 N   0  0  0  0  0  0  0  0  0  0  0  0
   58.3420   27.5290   46.4050 C   0  0  0  0  0  0  0  0  0  0  0  0
   57.8300   28.3340   45.2040 C   0  0  0  0  0  0  0  0  0  0  0  0
   58.2420   29.6900   45.4300 N   0  0  0  0  0  0  0  0  0  0  0  0
   57.6090   30.6380   44.5540 C   0  0  0  0  0  0  0  0  0  0  0  0
   57.9460   32.0320   44.9360 C   0  0  0  0  0  0  0  0  0  0  0  0
   58.3540   32.9920   44.0400 C   0  0  0  0  0  0  0  0  0  0  0  0
   58.6330   34.2480   44.5430 C   0  0  0  0  0  0  0  0  0  0  0  0
   58.5190   34.5650   45.8830 C   0  0  0  0  0  0  0  0  0  0  0  0
   58.1120   33.5960   46.7590 C   0  0  0  0  0  0  0  0  0  0  0  0
   57.8260   32.3360   46.2960 C   0  0  0  0  0  0  0  0  0  0  0  0
   59.6720   29.7730   45.3400 C   0  0  0  0  0  0  0  0  0  0  0  0
   60.3730   28.4710   45.5500 C   0  0  0  0  0  0  0  0  0  0  0  0
   58.6290   29.7520   48.2050 N   0  0  0  0  0  0  0  0  0  0  0  0
   58.6270   30.8650   48.9370 N   0  0  0  0  0  0  0  0  0  0  0  0
   61.5260   33.5080   47.7170 C   0  0  0  0  0  0  0  0  0  0  0  0
   62.5720   33.0420   46.9580 C   0  0  0  0  0  0  0  0  0  0  0  0
   63.7830   32.8280   47.5200 N   0  0  0  0  0  0  0  0  0  0  0  0
   63.9310   33.0850   48.8410 C   0  0  0  0  0  0  0  0  0  0  0  0
   65.2050   32.8430   49.3650 C   0  0  0  0  0  0  0  0  0  0  0  0
   64.5436   33.7486   52.5490 H   0  0  0  0  0  0  0  0  0  0  0  0
   62.2843   34.1736   51.6133 H   0  0  0  0  0  0  0  0  0  0  0  0
   59.0787   33.7885   51.0528 H   0  0  0  0  0  0  0  0  0  0  0  0
   58.8776   33.2003   49.3666 H   0  0  0  0  0  0  0  0  0  0  0  0
   61.2734   32.0826   50.5882 H   0  0  0  0  0  0  0  0  0  0  0  0
   59.7969   31.7495   51.5850 H   0  0  0  0  0  0  0  0  0  0  0  0
   61.4853   29.5672   49.7436 H   0  0  0  0  0  0  0  0  0  0  0  0
   61.3400   27.7864   47.8421 H   0  0  0  0  0  0  0  0  0  0  0  0
   59.8418   26.9749   48.4701 H   0  0  0  0  0  0  0  0  0  0  0  0
   58.0362   26.4787   46.2896 H   0  0  0  0  0  0  0  0  0  0  0  0
   57.9124   27.9596   47.3216 H   0  0  0  0  0  0  0  0  0  0  0  0
   58.2709   27.9512   44.2717 H   0  0  0  0  0  0  0  0  0  0  0  0
   56.7372   28.2569   45.1045 H   0  0  0  0  0  0  0  0  0  0  0  0
   57.9487   30.4565   43.5236 H   0  0  0  0  0  0  0  0  0  0  0  0
   56.5193   30.5098   44.6321 H   0  0  0  0  0  0  0  0  0  0  0  0
   58.4540   32.7691   42.9675 H   0  0  0  0  0  0  0  0  0  0  0  0
   58.9610   35.0319   43.8445 H   0  0  0  0  0  0  0  0  0  0  0  0
   58.7515   35.5793   46.2395 H   0  0  0  0  0  0  0  0  0  0  0  0
   58.0144   33.8259   47.8303 H   0  0  0  0  0  0  0  0  0  0  0  0
   57.4992   31.5577   47.0013 H   0  0  0  0  0  0  0  0  0  0  0  0
   59.9339   30.1489   44.3400 H   0  0  0  0  0  0  0  0  0  0  0  0
   60.0020   30.4445   46.1463 H   0  0  0  0  0  0  0  0  0  0  0  0
   60.4141   27.9484   44.5829 H   0  0  0  0  0  0  0  0  0  0  0  0
   61.3620   28.7233   45.9602 H   0  0  0  0  0  0  0  0  0  0  0  0
   57.8640   29.4650   47.5730 H   0  0  0  0  0  0  0  0  0  0  0  0
   60.5528   33.6732   47.2317 H   0  0  0  0  0  0  0  0  0  0  0  0
   62.4234   32.8418   45.8866 H   0  0  0  0  0  0  0  0  0  0  0  0
   64.5740   32.4730   46.9330 H   0  0  0  0  0  0  0  0  0  0  0  0
   66.0203   32.4679   48.7290 H   0  0  0  0  0  0  0  0  0  0  0  0
  1  2  1  0
  2  3  2  0
  3  4  1  0
  4  5  2  0
  5  6  1  0
  6  7  2  0
  7  8  1  0
  8  9  1  0
  9 10  1  0
 10 11  1  0
 11 12  2  0
 12 13  1  0
 13 14  1  0
 14 15  1  0
 15 16  1  0
 16 17  1  0
 17 18  1  0
 18 19  1  0
 19 20  2  0
 20 21  1  0
 21 22  2  0
 22 23  1  0
 23 24  2  0
 17 25  1  0
 25 26  1  0
 12 27  1  0
 27 28  1  0
  6 29  1  0
 29 30  2  0
 30 31  1  0
 31 32  1  0
 32 33  2  0
 33  2  1  0
 32  5  1  0
 28 10  2  0
 26 14  1  0
 24 19  1  0
  3 34  1  0
  4 35  1  0
  8 36  1  0
  8 37  1  0
  9 38  1  0
  9 39  1  0
 11 40  1  0
 13 41  1  0
 13 42  1  0
 15 43  1  0
 15 44  1  0
 16 45  1  0
 16 46  1  0
 18 47  1  0
 18 48  1  0
 20 49  1  0
 21 50  1  0
 22 51  1  0
 23 52  1  0
 24 53  1  0
 25 54  1  0
 25 55  1  0
 26 56  1  0
 26 57  1  0
 27 58  1  0
 29 59  1  0
 30 60  1  0
 31 61  1  0
 33 62  1  0
M  END
>  <smiles>  (36) 
Clc1ccc2c(=NCCc3cc(CN4CCN(Cc5ccccc5)CC4)[nH]n3)cc[nH]c2c1

>  <score_type>  (36) 
oracle

>  <origin>  (36) 
adg

>  <m_score__min__energy>  (36) 
-9.4600000000000009

>  <m_primary>  (36) 
energy

$$$$
36:0
     RDKit          3D

 37 39  0  0  0  0  0  0  0  0999 V2000
   55.1400   29.3460   44.8810 N   0  0  0  0  0  0  0  0  0  0  0  0
   56.7210   29.4560   44.1920 S   0  0  0  0  0  0  0  0  0  0  0  0
   56.6100   29.5980   42.6990 O   0  0  0  0  0  0  0  0  0  0  0  0
   57.4880   28.2020   44.5000 O   0  0  0  0  0  0  0  0  0  0  0  0
   57.5600   30.8500   44.8620 C   0  0  0  0  0  0  0  0  0  0  0  0
   58.8170   30.6940   45.4620 C   0  0  0  0  0  0  0  0  0  0  0  0
   59.4900   31.8000   45.9860 C   0  0  0  0  0  0  0  0  0  0  0  0
   58.9110   33.0800   45.9230 C   0  0  0  0  0  0  0  0  0  0  0  0
   59.6420   34.2770   46.4810 C   0  0  0  0  0  0  0  0  0  0  0  0
   60.1630   34.0040   47.8690 C   0  0  0  0  0  0  0  0  0  0  0  0
   59.3820   34.3570   48.9260 N   0  0  0  0  0  0  0  0  0  0  0  0
   59.7670   34.1680   50.1870 N   0  0  0  0  0  0  0  0  0  0  0  0
   60.9680   33.6170   50.4890 C   0  0  0  0  0  0  0  0  0  0  0  0
   61.2850   33.4430   51.6960 O   0  0  0  0  0  0  0  0  0  0  0  0
   61.8370   33.2450   49.4530 C   0  0  0  0  0  0  0  0  0  0  0  0
   61.4340   33.4380   48.1210 C   0  0  0  0  0  0  0  0  0  0  0  0
   62.3750   32.9690   47.0350 C   0  0  0  0  0  0  0  0  0  0  0  0
   63.8130   33.4200   47.3380 C   0  0  0  0  0  0  0  0  0  0  0  0
   64.2640   33.1670   48.8000 C   0  0  0  0  0  0  0  0  0  0  0  0
   63.1700   32.5880   49.7160 C   0  0  0  0  0  0  0  0  0  0  0  0
   57.6640   33.2360   45.2940 C   0  0  0  0  0  0  0  0  0  0  0  0
   56.9930   32.1280   44.7710 C   0  0  0  0  0  0  0  0  0  0  0  0
   55.1850   28.6220   45.6320 H   0  0  0  0  0  0  0  0  0  0  0  0
   59.2756   29.6959   45.5205 H   0  0  0  0  0  0  0  0  0  0  0  0
   60.4785   31.6691   46.4506 H   0  0  0  0  0  0  0  0  0  0  0  0
   60.4887   34.5188   45.8218 H   0  0  0  0  0  0  0  0  0  0  0  0
   58.9370   35.1196   46.5349 H   0  0  0  0  0  0  0  0  0  0  0  0
   62.3442   31.8709   46.9785 H   0  0  0  0  0  0  0  0  0  0  0  0
   62.0590   33.4067   46.0766 H   0  0  0  0  0  0  0  0  0  0  0  0
   64.4939   32.8749   46.6677 H   0  0  0  0  0  0  0  0  0  0  0  0
   63.8423   34.5085   47.1821 H   0  0  0  0  0  0  0  0  0  0  0  0
   65.1064   32.4598   48.7819 H   0  0  0  0  0  0  0  0  0  0  0  0
   64.5340   34.1481   49.2177 H   0  0  0  0  0  0  0  0  0  0  0  0
   63.0808   31.5075   49.5303 H   0  0  0  0  0  0  0  0  0  0  0  0
   63.4531   32.7786   50.7617 H   0  0  0  0  0  0  0  0  0  0  0  0
   57.2137   34.2363   45.2130 H   0  0  0  0  0  0  0  0  0  0  0  0
   56.0148   32.2595   44.2854 H   0  0  0  0  0  0  0  0  0  0  0  0
  1  2  1  0
  2  3  2  0
  2  4  2  0
  2  5  1  0
  5  6  2  0
  6  7  1  0
  7  8  2  0
  8  9  1  0
  9 10  1  0
 10 11  2  0
 11 12  1  0
 12 13  1  0
 13 14  2  0
 13 15  1  0
 15 16  2  0
 16 17  1  0
 17 18  1  0
 18 19  1  0
 19 20  1  0
  8 21  1  0
 21 22  2  0
 22  5  1  0
 16 10  1  0
 20 15  1  0
  1 23  1  0
  6 24  1  0
  7 25  1  0
  9 26  1  0
  9 27  1  0
 17 28  1  0
 17 29  1  0
 18 30  1  0
 18 31  1  0
 19 32  1  0
 19 33  1  0
 20 34  1  0
 20 35  1  0
 21 36  1  0
 22 37  1  0
M  CHG  2   1  -1  12  -1
M  END
>  <UniqueID>  (37) 
35

>  <SMILES>  (37) 
[NH-]S(=O)(=O)c1ccc(Cc2n[n-]c(=O)c3c2CCCC3)cc1

>  <Energy>  (37) 
45.74963763460028

>  <Genealogy>  (37) 
[NH-]S(=O)(=O)c1ccc(Cc2n[n-]c(=O)c3c2CCCC3)cc1 (protonated)
[NH-]S(=O)(=O)c1ccc(Cc2n[n-]c(=O)c3c2CCCC3)cc1 (3D coordinates assigned)
[NH-]S(=O)(=O)c1ccc(Cc2n[n-]c(=O)c3c2CCCC3)cc1 (nonaromatic ring conformer: 45.74963763460028 kcal/mol)

>  <smiles>  (37) 
NS(=O)(=O)c1ccc(Cc2n[nH]c(=O)c3c2CCCC3)cc1

>  <score_type>  (37) 
oracle

>  <origin>  (37) 
adg

>  <m_score__min__energy>  (37) 
-11.99

>  <m_primary>  (37) 
energy

$$$$
37:0
     RDKit          3D

 60 63  0  0  0  0  0  0  0  0999 V2000
   56.1340   22.6240   41.7930 H   0  0  0  0  0  0  0  0  0  0  0  0
   56.0940   22.1600   42.7280 N   0  0  0  0  0  0  0  0  0  0  0  0
   57.0930   22.1940   43.5530 C   0  0  0  0  0  0  0  0  0  0  0  0
   57.5640   23.4950   44.0860 C   0  0  0  0  0  0  0  0  0  0  0  0
   58.2120   23.5610   45.3310 C   0  0  0  0  0  0  0  0  0  0  0  0
   58.3847   22.6386   45.9048 H   0  0  0  0  0  0  0  0  0  0  0  0
   58.6390   24.7870   45.8470 C   0  0  0  0  0  0  0  0  0  0  0  0
   59.1565   24.8228   46.8170 H   0  0  0  0  0  0  0  0  0  0  0  0
   58.4110   25.9690   45.1350 C   0  0  0  0  0  0  0  0  0  0  0  0
   58.8100   27.2340   45.6860 N   0  0  0  0  0  0  0  0  0  0  0  0
   59.7800   27.2710   46.7870 C   0  0  0  0  0  0  0  0  0  0  0  0
   59.2745   26.9848   47.7211 H   0  0  0  0  0  0  0  0  0  0  0  0
   60.5954   26.5690   46.5585 H   0  0  0  0  0  0  0  0  0  0  0  0
   60.3780   28.6790   46.9500 C   0  0  0  0  0  0  0  0  0  0  0  0
   60.9664   28.7024   47.8791 H   0  0  0  0  0  0  0  0  0  0  0  0
   60.9959   28.8740   46.0611 H   0  0  0  0  0  0  0  0  0  0  0  0
   59.3520   29.7530   47.0150 N   0  0  0  0  0  0  0  0  0  0  0  0
   59.2430   30.4050   48.3390 C   0  0  0  0  0  0  0  0  0  0  0  0
   59.2124   31.4946   48.1911 H   0  0  0  0  0  0  0  0  0  0  0  0
   58.3261   30.0279   48.8157 H   0  0  0  0  0  0  0  0  0  0  0  0
   60.3920   30.0780   49.2550 C   0  0  0  0  0  0  0  0  0  0  0  0
   60.3810   28.9970   49.9040 O   0  0  0  0  0  0  0  0  0  0  0  0
   61.4780   31.0110   49.3660 N   0  0  0  0  0  0  0  0  0  0  0  0
   61.9910   31.9590   48.4140 C   0  0  0  0  0  0  0  0  0  0  0  0
   63.3400   32.0010   48.0110 C   0  0  0  0  0  0  0  0  0  0  0  0
   64.0585   31.2763   48.4217 H   0  0  0  0  0  0  0  0  0  0  0  0
   63.7670   32.9610   47.0910 C   0  0  0  0  0  0  0  0  0  0  0  0
   64.8231   32.9932   46.7852 H   0  0  0  0  0  0  0  0  0  0  0  0
   62.8620   33.8800   46.5570 C   0  0  0  0  0  0  0  0  0  0  0  0
   63.2088   34.6381   45.8394 H   0  0  0  0  0  0  0  0  0  0  0  0
   61.5130   33.8390   46.9330 C   0  0  0  0  0  0  0  0  0  0  0  0
   60.5430   34.8570   46.3970 C   0  0  0  0  0  0  0  0  0  0  0  0
   60.2782   35.5636   47.1974 H   0  0  0  0  0  0  0  0  0  0  0  0
   61.0130   35.3961   45.5613 H   0  0  0  0  0  0  0  0  0  0  0  0
   59.2960   34.1750   45.9030 C   0  0  0  0  0  0  0  0  0  0  0  0
   58.2700   33.8300   46.7980 C   0  0  0  0  0  0  0  0  0  0  0  0
   58.3589   34.0968   47.8614 H   0  0  0  0  0  0  0  0  0  0  0  0
   57.1360   33.1490   46.3440 C   0  0  0  0  0  0  0  0  0  0  0  0
   56.3314   32.8912   47.0483 H   0  0  0  0  0  0  0  0  0  0  0  0
   57.0240   32.7960   44.9980 C   0  0  0  0  0  0  0  0  0  0  0  0
   56.1351   32.2537   44.6435 H   0  0  0  0  0  0  0  0  0  0  0  0
   58.0420   33.1320   44.1010 C   0  0  0  0  0  0  0  0  0  0  0  0
   57.9512   32.8575   43.0397 H   0  0  0  0  0  0  0  0  0  0  0  0
   59.1750   33.8160   44.5500 C   0  0  0  0  0  0  0  0  0  0  0  0
   59.9754   34.0744   43.8411 H   0  0  0  0  0  0  0  0  0  0  0  0
   61.0890   32.8820   47.8680 C   0  0  0  0  0  0  0  0  0  0  0  0
   60.0335   32.8561   48.1766 H   0  0  0  0  0  0  0  0  0  0  0  0
   58.0360   29.4400   46.4080 C   0  0  0  0  0  0  0  0  0  0  0  0
   57.3914   28.9779   47.1702 H   0  0  0  0  0  0  0  0  0  0  0  0
   57.5943   30.3771   46.0382 H   0  0  0  0  0  0  0  0  0  0  0  0
   58.1790   28.4770   45.2270 C   0  0  0  0  0  0  0  0  0  0  0  0
   57.1846   28.2530   44.8135 H   0  0  0  0  0  0  0  0  0  0  0  0
   58.8027   28.9402   44.4483 H   0  0  0  0  0  0  0  0  0  0  0  0
   57.7600   25.9110   43.8960 C   0  0  0  0  0  0  0  0  0  0  0  0
   57.5773   26.8369   43.3309 H   0  0  0  0  0  0  0  0  0  0  0  0
   57.3410   24.6840   43.3730 C   0  0  0  0  0  0  0  0  0  0  0  0
   56.8338   24.6498   42.3975 H   0  0  0  0  0  0  0  0  0  0  0  0
   57.7230   20.9720   43.9550 N   0  0  0  0  0  0  0  0  0  0  0  0
   57.4420   20.0610   43.5250 H   0  0  0  0  0  0  0  0  0  0  0  0
   58.3890   20.9470   44.7570 H   0  0  0  0  0  0  0  0  0  0  0  0
  1  2  1  0
  2  3  2  0
  3  4  1  0
  4  5  2  0
  5  6  1  0
  5  7  1  0
  7  8  1  0
  7  9  2  0
  9 10  1  0
 10 11  1  0
 11 12  1  0
 11 13  1  0
 11 14  1  0
 14 15  1  0
 14 16  1  0
 14 17  1  0
 17 18  1  0
 18 19  1  0
 18 20  1  0
 18 21  1  0
 21 22  2  0
 21 23  1  0
 23 24  1  0
 24 25  2  0
 25 26  1  0
 25 27  1  0
 27 28  1  0
 27 29  2  0
 29 30  1  0
 29 31  1  0
 31 32  1  0
 32 33  1  0
 32 34  1  0
 32 35  1  0
 35 36  2  0
 36 37  1  0
 36 38  1  0
 38 39  1  0
 38 40  2  0
 40 41  1  0
 40 42  1  0
 42 43  1  0
 42 44  2  0
 44 45  1  0
 31 46  2  0
 46 47  1  0
 17 48  1  0
 48 49  1  0
 48 50  1  0
 48 51  1  0
 51 52  1  0
 51 53  1  0
  9 54  1  0
 54 55  1  0
 54 56  2  0
 56 57  1  0
  3 58  1  0
 58 59  1  0
 58 60  1  0
 56  4  1  0
 51 10  1  0
 46 24  1  0
 44 35  1  0
M  CHG  1  23  -1
M  END
>  <UniqueID>  (38) 
36

>  <SMILES>  (38) 
[H]/N=C(\N)c1ccc(N2CCN(CC(=O)[N-]c3cccc(Cc4ccccc4)c3)CC2)cc1

>  <Energy>  (38) 
81.38343859378685

>  <Genealogy>  (38) 
N=C(N)c1ccc(N2CCN(CC(=O)[N-]c3cccc(Cc4ccccc4)c3)CC2)cc1 (protonated)
[H]/N=C(\N)c1ccc(N2CCN(CC(=O)[N-]c3cccc(Cc4ccccc4)c3)CC2)cc1 (cis-trans isomerization)
[H]/N=C(\N)c1ccc(N2CCN(CC(=O)[N-]c3cccc(Cc4ccccc4)c3)CC2)cc1 (3D coordinates assigned)
[H]/N=C(\N)c1ccc(N2CCN(CC(=O)[N-]c3cccc(Cc4ccccc4)c3)CC2)cc1 (nonaromatic ring conformer: 81.38343859378685 kcal/mol)

>  <smiles>  (38) 
N=C(N)c1ccc(N2CCN(CC(=O)Nc3cccc(Cc4ccccc4)c3)CC2)cc1

>  <score_type>  (38) 
oracle

>  <origin>  (38) 
adg

>  <m_score__min__energy>  (38) 
-10.57

>  <m_primary>  (38) 
energy

$$$$
38:0
     RDKit          3D

 55 58  0  0  0  0  0  0  0  0999 V2000
   57.7280   27.7370   43.7970 C   0  0  0  0  0  0  0  0  0  0  0  0
   58.1070   27.8930   45.0760 C   0  0  0  0  0  0  0  0  0  0  0  0
   58.0900   26.9000   46.0690 C   0  0  0  0  0  0  0  0  0  0  0  0
   57.9580   25.5610   45.9830 C   0  0  0  0  0  0  0  0  0  0  0  0
   56.6850   24.8250   45.9270 C   0  0  0  0  0  0  0  0  0  0  0  0
   56.5690   23.4850   45.9850 N   0  0  0  0  0  0  0  0  0  0  0  0
   55.2340   23.2900   46.0460 C   0  0  0  0  0  0  0  0  0  0  0  0
   54.7180   22.1450   46.0990 O   0  0  0  0  0  0  0  0  0  0  0  0
   54.4960   24.4210   46.0580 N   0  0  0  0  0  0  0  0  0  0  0  0
   55.4310   25.3820   45.9960 C   0  0  0  0  0  0  0  0  0  0  0  0
   55.1450   26.7410   46.0070 O   0  0  0  0  0  0  0  0  0  0  0  0
   58.2730   27.5530   47.2740 C   0  0  0  0  0  0  0  0  0  0  0  0
   58.4600   28.8860   46.9830 C   0  0  0  0  0  0  0  0  0  0  0  0
   58.7540   29.9330   48.0150 C   0  0  0  0  0  0  0  0  0  0  0  0
   58.4000   29.0980   45.6470 N   0  0  0  0  0  0  0  0  0  0  0  0
   58.5820   30.4070   44.9900 C   0  0  0  0  0  0  0  0  0  0  0  0
   57.2690   31.1360   44.8550 C   0  0  0  0  0  0  0  0  0  0  0  0
   56.2260   30.4750   44.6090 O   0  0  0  0  0  0  0  0  0  0  0  0
   57.1610   32.5520   45.0530 N   0  0  0  0  0  0  0  0  0  0  0  0
   58.1550   33.3880   45.6550 C   0  0  0  0  0  0  0  0  0  0  0  0
   58.5680   34.5470   44.9880 C   0  0  0  0  0  0  0  0  0  0  0  0
   59.5590   35.3620   45.5430 C   0  0  0  0  0  0  0  0  0  0  0  0
   60.1580   35.0100   46.7550 C   0  0  0  0  0  0  0  0  0  0  0  0
   59.7640   33.8420   47.4220 C   0  0  0  0  0  0  0  0  0  0  0  0
   60.5450   33.3620   48.9260 S   0  0  0  0  0  0  0  0  0  0  0  0
   61.1040   34.5710   49.6220 O   0  0  0  0  0  0  0  0  0  0  0  0
   59.5080   32.7420   49.8210 O   0  0  0  0  0  0  0  0  0  0  0  0
   61.8110   32.1920   48.6110 N   0  0  0  0  0  0  0  0  0  0  0  0
   62.2400   32.2130   47.2010 C   0  0  0  0  0  0  0  0  0  0  0  0
   63.0990   33.4550   46.8680 C   0  0  0  0  0  0  0  0  0  0  0  0
   63.6450   34.0920   48.0110 O   0  0  0  0  0  0  0  0  0  0  0  0
   64.1230   33.1300   48.9240 C   0  0  0  0  0  0  0  0  0  0  0  0
   62.9480   32.3500   49.5450 C   0  0  0  0  0  0  0  0  0  0  0  0
   58.7720   33.0270   46.8630 C   0  0  0  0  0  0  0  0  0  0  0  0
   57.7824   28.5861   43.0998 H   0  0  0  0  0  0  0  0  0  0  0  0
   57.3632   26.7602   43.4467 H   0  0  0  0  0  0  0  0  0  0  0  0
   58.8830   24.9666   45.9520 H   0  0  0  0  0  0  0  0  0  0  0  0
   58.2698   27.0951   48.2742 H   0  0  0  0  0  0  0  0  0  0  0  0
   58.6329   29.5018   49.0197 H   0  0  0  0  0  0  0  0  0  0  0  0
   59.7871   30.2899   47.8913 H   0  0  0  0  0  0  0  0  0  0  0  0
   58.0577   30.7755   47.8913 H   0  0  0  0  0  0  0  0  0  0  0  0
   59.2714   31.0177   45.5915 H   0  0  0  0  0  0  0  0  0  0  0  0
   58.9918   30.2377   43.9833 H   0  0  0  0  0  0  0  0  0  0  0  0
   58.1116   34.8174   44.0244 H   0  0  0  0  0  0  0  0  0  0  0  0
   59.8676   36.2818   45.0246 H   0  0  0  0  0  0  0  0  0  0  0  0
   60.9407   35.6510   47.1868 H   0  0  0  0  0  0  0  0  0  0  0  0
   62.8320   31.3085   46.9977 H   0  0  0  0  0  0  0  0  0  0  0  0
   61.3365   32.2506   46.5746 H   0  0  0  0  0  0  0  0  0  0  0  0
   63.9276   33.1400   46.2167 H   0  0  0  0  0  0  0  0  0  0  0  0
   62.4356   34.1837   46.3793 H   0  0  0  0  0  0  0  0  0  0  0  0
   64.7862   32.4281   48.3972 H   0  0  0  0  0  0  0  0  0  0  0  0
   64.6756   33.6418   49.7257 H   0  0  0  0  0  0  0  0  0  0  0  0
   63.3042   31.3514   49.8381 H   0  0  0  0  0  0  0  0  0  0  0  0
   62.5889   32.9241   50.4118 H   0  0  0  0  0  0  0  0  0  0  0  0
   58.4747   32.0990   47.3732 H   0  0  0  0  0  0  0  0  0  0  0  0
  1  2  2  0
  2  3  1  0
  3  4  2  3
  4  5  1  0
  5  6  1  0
  6  7  1  0
  7  8  2  0
  7  9  1  0
  9 10  1  0
 10 11  1  0
  3 12  1  0
 12 13  2  0
 13 14  1  0
 13 15  1  0
 15 16  1  0
 16 17  1  0
 17 18  2  0
 17 19  1  0
 19 20  1  0
 20 21  2  0
 21 22  1  0
 22 23  2  0
 23 24  1  0
 24 25  1  0
 25 26  2  0
 25 27  2  0
 25 28  1  0
 28 29  1  0
 29 30  1  0
 30 31  1  0
 31 32  1  0
 32 33  1  0
 24 34  2  0
 15  2  1  0
 34 20  1  0
 10  5  2  0
 33 28  1  0
  1 35  1  0
  1 36  1  0
  4 37  1  0
 12 38  1  0
 14 39  1  0
 14 40  1  0
 14 41  1  0
 16 42  1  0
 16 43  1  0
 21 44  1  0
 22 45  1  0
 23 46  1  0
 29 47  1  0
 29 48  1  0
 30 49  1  0
 30 50  1  0
 32 51  1  0
 32 52  1  0
 33 53  1  0
 33 54  1  0
 34 55  1  0
M  CHG  4   6  -1   9  -1  11  -1  19  -1
M  END
>  <UniqueID>  (39) 
37

>  <SMILES>  (39) 
C=c1c(=Cc2[n-]c(=O)[n-]c2[O-])cc(C)n1CC(=O)[N-]c1cccc(S(=O)(=O)N2CCOCC2)c1

>  <Energy>  (39) 
138.22259344848382

>  <Genealogy>  (39) 
C=c1c(=Cc2[n-]c(=O)[n-]c2[O-])cc(C)n1CC(=O)[N-]c1cccc(S(=O)(=O)N2CCOCC2)c1 (protonated)
C=c1c(=Cc2[n-]c(=O)[n-]c2[O-])cc(C)n1CC(=O)[N-]c1cccc(S(=O)(=O)N2CCOCC2)c1 (3D coordinates assigned)
C=c1c(=Cc2[n-]c(=O)[n-]c2[O-])cc(C)n1CC(=O)[N-]c1cccc(S(=O)(=O)N2CCOCC2)c1 (nonaromatic ring conformer: 138.22259344848382 kcal/mol)

>  <smiles>  (39) 
C=c1c(=Cc2[nH]c(=O)[nH]c2O)cc(C)n1CC(=O)Nc1cccc(S(=O)(=O)N2CCOCC2)c1

>  <score_type>  (39) 
oracle

>  <origin>  (39) 
adg

>  <m_score__min__energy>  (39) 
-19.329999999999998

>  <m_primary>  (39) 
energy

$$$$
39:0
     RDKit          3D

 44 46  0  0  0  0  0  0  0  0999 V2000
   55.1550   27.6240   45.2390 H   0  0  0  0  0  0  0  0  0  0  0  0
   55.5590   27.0280   45.9520 O   0  0  0  0  0  0  0  0  0  0  0  0
   56.9360   26.8400   46.0770 C   0  0  0  0  0  0  0  0  0  0  0  0
   57.4160   25.9420   47.0350 C   0  0  0  0  0  0  0  0  0  0  0  0
   56.7099   25.4004   47.6816 H   0  0  0  0  0  0  0  0  0  0  0  0
   58.7880   25.7310   47.1730 C   0  0  0  0  0  0  0  0  0  0  0  0
   59.1691   25.0227   47.9234 H   0  0  0  0  0  0  0  0  0  0  0  0
   59.6710   26.4280   46.3490 C   0  0  0  0  0  0  0  0  0  0  0  0
   60.7552   26.2688   46.4453 H   0  0  0  0  0  0  0  0  0  0  0  0
   59.1920   27.3040   45.4270 N   0  0  0  0  0  0  0  0  0  0  0  0
   57.8570   27.5350   45.2690 C   0  0  0  0  0  0  0  0  0  0  0  0
   57.4290   28.3620   44.3580 N   0  0  0  0  0  0  0  0  0  0  0  0
   56.6490   29.5420   44.6060 C   0  0  0  0  0  0  0  0  0  0  0  0
   55.5130   29.4190   45.1350 O   0  0  0  0  0  0  0  0  0  0  0  0
   57.1720   30.8950   44.3080 C   0  0  0  0  0  0  0  0  0  0  0  0
   57.6070   31.2180   43.0120 C   0  0  0  0  0  0  0  0  0  0  0  0
   57.5531   30.4647   42.2122 H   0  0  0  0  0  0  0  0  0  0  0  0
   58.1080   32.4930   42.7350 C   0  0  0  0  0  0  0  0  0  0  0  0
   58.4522   32.7382   41.7194 H   0  0  0  0  0  0  0  0  0  0  0  0
   58.1730   33.4570   43.7440 C   0  0  0  0  0  0  0  0  0  0  0  0
   58.5668   34.4593   43.5194 H   0  0  0  0  0  0  0  0  0  0  0  0
   57.7380   33.1520   45.0430 C   0  0  0  0  0  0  0  0  0  0  0  0
   57.7620   34.2110   46.1170 C   0  0  0  0  0  0  0  0  0  0  0  0
   56.7427   34.5995   46.2590 H   0  0  0  0  0  0  0  0  0  0  0  0
   58.4448   35.0120   45.7973 H   0  0  0  0  0  0  0  0  0  0  0  0
   58.2360   33.6860   47.3580 O   0  0  0  0  0  0  0  0  0  0  0  0
   59.4040   32.9240   47.5270 C   0  0  0  0  0  0  0  0  0  0  0  0
   59.2660   31.5600   47.7960 C   0  0  0  0  0  0  0  0  0  0  0  0
   58.2620   31.1156   47.8633 H   0  0  0  0  0  0  0  0  0  0  0  0
   60.3930   30.7570   47.9800 C   0  0  0  0  0  0  0  0  0  0  0  0
   60.2737   29.6854   48.1979 H   0  0  0  0  0  0  0  0  0  0  0  0
   61.6710   31.3110   47.8880 C   0  0  0  0  0  0  0  0  0  0  0  0
   62.5542   30.6722   48.0358 H   0  0  0  0  0  0  0  0  0  0  0  0
   61.8390   32.6790   47.6080 C   0  0  0  0  0  0  0  0  0  0  0  0
   63.2080   33.2480   47.4830 C   0  0  0  0  0  0  0  0  0  0  0  0
   63.5400   33.8570   46.4290 O   0  0  0  0  0  0  0  0  0  0  0  0
   64.2220   33.1220   48.5810 C   0  0  0  0  0  0  0  0  0  0  0  0
   63.7165   33.1848   49.5559 H   0  0  0  0  0  0  0  0  0  0  0  0
   64.7358   32.1531   48.4962 H   0  0  0  0  0  0  0  0  0  0  0  0
   64.9573   33.9357   48.4962 H   0  0  0  0  0  0  0  0  0  0  0  0
   60.6950   33.4820   47.4350 C   0  0  0  0  0  0  0  0  0  0  0  0
   60.8102   34.5558   47.2259 H   0  0  0  0  0  0  0  0  0  0  0  0
   57.2190   31.8760   45.3130 C   0  0  0  0  0  0  0  0  0  0  0  0
   56.8456   31.6418   46.3208 H   0  0  0  0  0  0  0  0  0  0  0  0
  1  2  1  0
  2  3  1  0
  3  4  2  0
  4  5  1  0
  4  6  1  0
  6  7  1  0
  6  8  2  0
  8  9  1  0
  8 10  1  0
 10 11  1  0
 11 12  2  0
 12 13  1  0
 13 14  2  0
 13 15  1  0
 15 16  2  0
 16 17  1  0
 16 18  1  0
 18 19  1  0
 18 20  2  0
 20 21  1  0
 20 22  1  0
 22 23  1  0
 23 24  1  0
 23 25  1  0
 23 26  1  0
 26 27  1  0
 27 28  2  0
 28 29  1  0
 28 30  1  0
 30 31  1  0
 30 32  2  0
 32 33  1  0
 32 34  1  0
 34 35  1  0
 35 36  2  0
 35 37  1  0
 37 38  1  0
 37 39  1  0
 37 40  1  0
 34 41  2  0
 41 42  1  0
 22 43  2  0
 43 44  1  0
 11  3  1  0
 43 15  1  0
 41 27  1  0
M  CHG  1  10  -1
M  END
>  <UniqueID>  (40) 
38

>  <SMILES>  (40) 
CC(=O)c1cccc(OCc2cccc(C(=O)/N=c3\[n-]cccc3O)c2)c1

>  <Energy>  (40) 
51.59824954879997

>  <Genealogy>  (40) 
CC(=O)c1cccc(OCc2cccc(C(=O)N=c3[n-]cccc3O)c2)c1 (protonated)
CC(=O)c1cccc(OCc2cccc(C(=O)/N=c3\[n-]cccc3O)c2)c1 (cis-trans isomerization)
CC(=O)c1cccc(OCc2cccc(C(=O)/N=c3\[n-]cccc3O)c2)c1 (3D coordinates assigned)
CC(=O)c1cccc(OCc2cccc(C(=O)/N=c3\[n-]cccc3O)c2)c1 (optimized conformer: 51.59824954879997 kcal/mol)

>  <smiles>  (40) 
CC(=O)c1cccc(OCc2cccc(C(=O)N=c3[nH]cccc3O)c2)c1

>  <score_type>  (40) 
oracle

>  <origin>  (40) 
adg

>  <m_score__min__energy>  (40) 
-11.289999999999999

>  <m_primary>  (40) 
energy

$$$$
40:0
     RDKit          3D

 98102  0  0  0  0  0  0  0  0999 V2000
   57.4910   29.3200   42.3070 H   0  0  0  0  0  0  0  0  0  0  0  0
   56.5630   29.4090   42.7790 N   0  0  0  0  0  0  0  0  0  0  0  0
   56.4580   29.8290   44.0010 C   0  0  0  0  0  0  0  0  0  0  0  0
   55.4370   29.3100   44.8570 N   0  0  0  0  0  0  0  0  0  0  0  0
   55.3410   29.6570   45.8400 H   0  0  0  0  0  0  0  0  0  0  0  0
   54.7740   28.5760   44.5170 H   0  0  0  0  0  0  0  0  0  0  0  0
   57.4010   30.8810   44.5080 C   0  0  0  0  0  0  0  0  0  0  0  0
   57.6115   31.5877   43.6918 H   0  0  0  0  0  0  0  0  0  0  0  0
   56.9166   31.3778   45.3615 H   0  0  0  0  0  0  0  0  0  0  0  0
   58.7310   30.2950   45.0060 C   0  0  0  0  0  0  0  0  0  0  0  0
   58.9090   29.3324   44.5043 H   0  0  0  0  0  0  0  0  0  0  0  0
   59.5347   31.0090   44.7729 H   0  0  0  0  0  0  0  0  0  0  0  0
   58.7070   30.0780   46.4760 N   0  0  0  0  0  0  0  0  0  0  0  0
   59.6220   30.9690   47.2350 C   0  0  0  0  0  0  0  0  0  0  0  0
   60.6539   30.7445   46.9270 H   0  0  0  0  0  0  0  0  0  0  0  0
   59.3184   32.0004   47.0025 H   0  0  0  0  0  0  0  0  0  0  0  0
   59.5350   30.8230   48.7440 C   0  0  0  0  0  0  0  0  0  0  0  0
   58.5680   31.5390   49.4730 C   0  0  0  0  0  0  0  0  0  0  0  0
   57.8781   32.2152   48.9468 H   0  0  0  0  0  0  0  0  0  0  0  0
   58.4770   31.3980   50.8600 C   0  0  0  0  0  0  0  0  0  0  0  0
   57.7275   31.9740   51.4226 H   0  0  0  0  0  0  0  0  0  0  0  0
   59.3360   30.5270   51.5330 C   0  0  0  0  0  0  0  0  0  0  0  0
   59.2716   30.4298   52.6268 H   0  0  0  0  0  0  0  0  0  0  0  0
   60.2790   29.7770   50.8200 C   0  0  0  0  0  0  0  0  0  0  0  0
   61.1290   28.7990   51.5260 C   0  0  0  0  0  0  0  0  0  0  0  0
   60.5170   27.7080   52.1640 C   0  0  0  0  0  0  0  0  0  0  0  0
   59.4240   27.5926   52.1187 H   0  0  0  0  0  0  0  0  0  0  0  0
   61.2840   26.7690   52.8550 C   0  0  0  0  0  0  0  0  0  0  0  0
   60.7950   25.9193   53.3539 H   0  0  0  0  0  0  0  0  0  0  0  0
   62.6710   26.9080   52.9130 C   0  0  0  0  0  0  0  0  0  0  0  0
   63.2743   26.1667   53.4574 H   0  0  0  0  0  0  0  0  0  0  0  0
   63.2960   27.9870   52.2810 C   0  0  0  0  0  0  0  0  0  0  0  0
   64.3898   28.0913   52.3341 H   0  0  0  0  0  0  0  0  0  0  0  0
   62.5380   28.9400   51.5780 C   0  0  0  0  0  0  0  0  0  0  0  0
   63.2560   30.0490   50.8370 C   0  0  0  0  0  0  0  0  0  0  0  0
   64.3413   29.9187   50.9604 H   0  0  0  0  0  0  0  0  0  0  0  0
   62.9767   29.9950   49.7744 H   0  0  0  0  0  0  0  0  0  0  0  0
   62.8670   31.3820   51.3570 N   0  0  0  0  0  0  0  0  0  0  0  0
   64.0060   31.9920   52.0720 C   0  0  0  0  0  0  0  0  0  0  0  0
   63.8461   31.9064   53.1569 H   0  0  0  0  0  0  0  0  0  0  0  0
   64.9342   31.4703   51.7958 H   0  0  0  0  0  0  0  0  0  0  0  0
   64.0861   33.0537   51.7958 H   0  0  0  0  0  0  0  0  0  0  0  0
   62.2670   32.2630   50.3120 C   0  0  0  0  0  0  0  0  0  0  0  0
   61.2061   31.9761   50.2643 H   0  0  0  0  0  0  0  0  0  0  0  0
   62.3780   33.7520   50.7120 C   0  0  0  0  0  0  0  0  0  0  0  0
   61.4911   34.0236   51.3033 H   0  0  0  0  0  0  0  0  0  0  0  0
   63.3070   33.8702   51.2891 H   0  0  0  0  0  0  0  0  0  0  0  0
   62.4660   34.6960   49.4950 C   0  0  0  0  0  0  0  0  0  0  0  0
   62.1133   35.6931   49.7974 H   0  0  0  0  0  0  0  0  0  0  0  0
   63.5158   34.7166   49.1671 H   0  0  0  0  0  0  0  0  0  0  0  0
   61.6520   34.2340   48.3520 N   0  0  0  0  0  0  0  0  0  0  0  0
   60.2030   34.3970   48.6020 C   0  0  0  0  0  0  0  0  0  0  0  0
   59.8584   33.5886   49.2636 H   0  0  0  0  0  0  0  0  0  0  0  0
   60.0355   35.3766   49.0734 H   0  0  0  0  0  0  0  0  0  0  0  0
   59.4260   34.3440   47.3120 C   0  0  0  0  0  0  0  0  0  0  0  0
   58.1140   33.8410   47.2910 C   0  0  0  0  0  0  0  0  0  0  0  0
   57.6460   33.4935   48.2239 H   0  0  0  0  0  0  0  0  0  0  0  0
   57.4000   33.7800   46.0890 C   0  0  0  0  0  0  0  0  0  0  0  0
   56.3742   33.3830   46.0781 H   0  0  0  0  0  0  0  0  0  0  0  0
   57.9910   34.2240   44.9010 C   0  0  0  0  0  0  0  0  0  0  0  0
   57.4300   34.1744   43.9561 H   0  0  0  0  0  0  0  0  0  0  0  0
   59.2950   34.7310   44.9140 C   0  0  0  0  0  0  0  0  0  0  0  0
   59.7582   35.0804   43.9794 H   0  0  0  0  0  0  0  0  0  0  0  0
   60.0110   34.7940   46.1160 C   0  0  0  0  0  0  0  0  0  0  0  0
   61.0345   35.1970   46.1240 H   0  0  0  0  0  0  0  0  0  0  0  0
   62.0270   32.8750   47.8690 C   0  0  0  0  0  0  0  0  0  0  0  0
   61.1039   32.3311   47.6199 H   0  0  0  0  0  0  0  0  0  0  0  0
   62.6856   33.0203   47.0000 H   0  0  0  0  0  0  0  0  0  0  0  0
   62.8220   32.0350   48.8900 C   0  0  0  0  0  0  0  0  0  0  0  0
   62.7337   30.9694   48.6316 H   0  0  0  0  0  0  0  0  0  0  0  0
   63.8783   32.3408   48.8627 H   0  0  0  0  0  0  0  0  0  0  0  0
   60.3670   29.9160   49.4280 C   0  0  0  0  0  0  0  0  0  0  0  0
   61.0927   29.3110   48.8647 H   0  0  0  0  0  0  0  0  0  0  0  0
   58.8410   28.6500   46.8490 C   0  0  0  0  0  0  0  0  0  0  0  0
   59.5424   28.5640   47.6920 H   0  0  0  0  0  0  0  0  0  0  0  0
   57.8478   28.2693   47.1293 H   0  0  0  0  0  0  0  0  0  0  0  0
   59.3670   27.8140   45.6730 C   0  0  0  0  0  0  0  0  0  0  0  0
   59.4350   28.4602   44.7854 H   0  0  0  0  0  0  0  0  0  0  0  0
   60.3497   27.4150   45.9646 H   0  0  0  0  0  0  0  0  0  0  0  0
   58.4820   26.6420   45.3470 C   0  0  0  0  0  0  0  0  0  0  0  0
   57.9990   25.8100   46.3670 C   0  0  0  0  0  0  0  0  0  0  0  0
   58.2574   26.0202   47.4154 H   0  0  0  0  0  0  0  0  0  0  0  0
   57.1890   24.7130   46.0540 C   0  0  0  0  0  0  0  0  0  0  0  0
   56.8213   24.0603   46.8595 H   0  0  0  0  0  0  0  0  0  0  0  0
   56.8410   24.4370   44.7230 C   0  0  0  0  0  0  0  0  0  0  0  0
   55.9990   23.3060   44.4410 N   0  0  0  0  0  0  0  0  0  0  0  0
   54.9740   23.3810   44.6220 H   0  0  0  0  0  0  0  0  0  0  0  0
   56.5540   21.8280   43.7160 S   0  0  0  0  0  0  0  0  0  0  0  0
   56.2360   21.8240   42.2460 O   0  0  0  0  0  0  0  0  0  0  0  0
   55.8480   20.6690   44.3620 O   0  0  0  0  0  0  0  0  0  0  0  0
   58.3060   21.6430   43.9700 C   0  0  0  0  0  0  0  0  0  0  0  0
   58.5197   21.6204   45.0488 H   0  0  0  0  0  0  0  0  0  0  0  0
   58.6462   20.7039   43.5091 H   0  0  0  0  0  0  0  0  0  0  0  0
   58.8348   22.4903   43.5091 H   0  0  0  0  0  0  0  0  0  0  0  0
   57.3350   25.2710   43.7030 C   0  0  0  0  0  0  0  0  0  0  0  0
   57.0844   25.0579   42.6533 H   0  0  0  0  0  0  0  0  0  0  0  0
   58.1410   26.3670   44.0150 C   0  0  0  0  0  0  0  0  0  0  0  0
   58.5112   27.0194   43.2105 H   0  0  0  0  0  0  0  0  0  0  0  0
  1  2  1  0
  2  3  2  0
  3  4  1  0
  4  5  1  0
  4  6  1  0
  3  7  1  0
  7  8  1  0
  7  9  1  0
  7 10  1  0
 10 11  1  0
 10 12  1  0
 10 13  1  0
 13 14  1  0
 14 15  1  0
 14 16  1  0
 14 17  1  0
 17 18  2  0
 18 19  1  0
 18 20  1  0
 20 21  1  0
 20 22  2  0
 22 23  1  0
 22 24  1  0
 24 25  1  0
 25 26  2  0
 26 27  1  0
 26 28  1  0
 28 29  1  0
 28 30  2  0
 30 31  1  0
 30 32  1  0
 32 33  1  0
 32 34  2  0
 34 35  1  0
 35 36  1  0
 35 37  1  0
 35 38  1  0
 38 39  1  0
 39 40  1  0
 39 41  1  0
 39 42  1  0
 38 43  1  0
 43 44  1  0
 43 45  1  0
 45 46  1  0
 45 47  1  0
 45 48  1  0
 48 49  1  0
 48 50  1  0
 48 51  1  0
 51 52  1  0
 52 53  1  0
 52 54  1  0
 52 55  1  0
 55 56  2  0
 56 57  1  0
 56 58  1  0
 58 59  1  0
 58 60  2  0
 60 61  1  0
 60 62  1  0
 62 63  1  0
 62 64  2  0
 64 65  1  0
 51 66  1  0
 66 67  1  0
 66 68  1  0
 66 69  1  0
 69 70  1  0
 69 71  1  0
 24 72  2  0
 72 73  1  0
 13 74  1  0
 74 75  1  0
 74 76  1  0
 74 77  1  0
 77 78  1  0
 77 79  1  0
 77 80  1  0
 80 81  2  0
 81 82  1  0
 81 83  1  0
 83 84  1  0
 83 85  2  0
 85 86  1  0
 86 87  1  0
 86 88  1  0
 88 89  2  0
 88 90  2  0
 88 91  1  0
 91 92  1  0
 91 93  1  0
 91 94  1  0
 85 95  1  0
 95 96  1  0
 95 97  2  0
 97 98  1  0
 72 17  1  0
 97 80  1  0
 34 25  1  0
 69 43  1  0
 64 55  1  0
M  END
>  <UniqueID>  (41) 
39

>  <SMILES>  (41) 
[H]/N=C(\N)CCN(CCc1ccc(NS(C)(=O)=O)cc1)Cc1cccc(-c2ccccc2CN(C)C2CCN(Cc3ccccc3)CC2)c1

>  <Energy>  (41) 
120.65415168460163

>  <Genealogy>  (41) 
[H]/N=C(\N)CCN(CCc1ccc(NS(C)(=O)=O)cc1)Cc1cccc(-c2ccccc2CN(C)C2CCN(Cc3ccccc3)CC2)c1 (cis-trans isomerization)
[H]/N=C(\N)CCN(CCc1ccc(NS(C)(=O)=O)cc1)Cc1cccc(-c2ccccc2CN(C)C2CCN(Cc3ccccc3)CC2)c1 (3D coordinates assigned)
[H]/N=C(\N)CCN(CCc1ccc(NS(C)(=O)=O)cc1)Cc1cccc(-c2ccccc2CN(C)C2CCN(Cc3ccccc3)CC2)c1 (nonaromatic ring conformer: 120.65415168460163 kcal/mol)

>  <smiles>  (41) 
CN(Cc1ccccc1-c1cccc(CN(CCC(=N)N)CCc2ccc(NS(C)(=O)=O)cc2)c1)C1CCN(Cc2ccccc2)CC1

>  <score_type>  (41) 
oracle

>  <origin>  (41) 
adg

>  <m_score__min__energy>  (41) 
-12.119999999999999

>  <m_primary>  (41) 
energy

$$$$
41:0
     RDKit          3D

 42 44  0  0  0  0  0  0  0  0999 V2000
   59.4195   34.6866   46.0838 H   0  0  0  0  0  0  0  0  0  0  0  0
   59.5780   34.1330   47.0210 C   0  0  0  0  0  0  0  0  0  0  0  0
   58.5570   33.3390   47.5410 C   0  0  0  0  0  0  0  0  0  0  0  0
   57.5931   33.2699   47.0154 H   0  0  0  0  0  0  0  0  0  0  0  0
   58.7560   32.6320   48.7270 C   0  0  0  0  0  0  0  0  0  0  0  0
   57.9430   32.0141   49.1360 H   0  0  0  0  0  0  0  0  0  0  0  0
   59.9870   32.7020   49.4050 C   0  0  0  0  0  0  0  0  0  0  0  0
   60.1680   31.9250   50.6900 C   0  0  0  0  0  0  0  0  0  0  0  0
   60.7983   31.0459   50.4902 H   0  0  0  0  0  0  0  0  0  0  0  0
   60.6418   32.5873   51.4294 H   0  0  0  0  0  0  0  0  0  0  0  0
   58.8350   31.4590   51.2530 C   0  0  0  0  0  0  0  0  0  0  0  0
   57.9830   32.3220   51.9850 C   0  0  0  0  0  0  0  0  0  0  0  0
   58.3490   33.7610   52.2420 C   0  0  0  0  0  0  0  0  0  0  0  0
   58.3945   33.9397   53.3264 H   0  0  0  0  0  0  0  0  0  0  0  0
   59.3303   33.9755   51.7936 H   0  0  0  0  0  0  0  0  0  0  0  0
   57.5894   34.4182   51.7936 H   0  0  0  0  0  0  0  0  0  0  0  0
   56.8120   31.8390   52.4950 N   0  0  0  0  0  0  0  0  0  0  0  0
   56.1850   32.4730   53.0410 H   0  0  0  0  0  0  0  0  0  0  0  0
   56.4390   30.5440   52.3180 C   0  0  0  0  0  0  0  0  0  0  0  0
   55.3020   30.1340   52.8030 N   0  0  0  0  0  0  0  0  0  0  0  0
   53.9980   30.6730   52.5240 C   0  0  0  0  0  0  0  0  0  0  0  0
   53.7270   31.1450   51.2340 C   0  0  0  0  0  0  0  0  0  0  0  0
   54.4982   31.0725   50.4530 H   0  0  0  0  0  0  0  0  0  0  0  0
   52.4830   31.7080   50.9310 C   0  0  0  0  0  0  0  0  0  0  0  0
   52.2734   32.0613   49.9106 H   0  0  0  0  0  0  0  0  0  0  0  0
   51.5060   31.8220   51.9240 C   0  0  0  0  0  0  0  0  0  0  0  0
   50.2700   32.3810   51.6220 O   0  0  0  0  0  0  0  0  0  0  0  0
   51.7770   31.3830   53.2230 C   0  0  0  0  0  0  0  0  0  0  0  0
   51.0112   31.4803   54.0066 H   0  0  0  0  0  0  0  0  0  0  0  0
   53.0210   30.8200   53.5280 C   0  0  0  0  0  0  0  0  0  0  0  0
   53.2368   30.4911   54.5552 H   0  0  0  0  0  0  0  0  0  0  0  0
   57.2390   29.7080   51.6050 N   0  0  0  0  0  0  0  0  0  0  0  0
   58.4150   30.1250   51.0790 C   0  0  0  0  0  0  0  0  0  0  0  0
   59.1210   29.3030   50.4360 O   0  0  0  0  0  0  0  0  0  0  0  0
   61.0190   33.5200   48.8870 C   0  0  0  0  0  0  0  0  0  0  0  0
   62.2380   33.6070   49.5790 O   0  0  0  0  0  0  0  0  0  0  0  0
   63.5230   33.4780   48.9790 C   0  0  0  0  0  0  0  0  0  0  0  0
   64.2886   33.4011   49.7651 H   0  0  0  0  0  0  0  0  0  0  0  0
   63.5468   32.5730   48.3542 H   0  0  0  0  0  0  0  0  0  0  0  0
   63.7262   34.3603   48.3542 H   0  0  0  0  0  0  0  0  0  0  0  0
   60.8010   34.2270   47.6870 C   0  0  0  0  0  0  0  0  0  0  0  0
   61.6011   34.8577   47.2723 H   0  0  0  0  0  0  0  0  0  0  0  0
  1  2  1  0
  2  3  2  0
  3  4  1  0
  3  5  1  0
  5  6  1  0
  5  7  2  0
  7  8  1  0
  8  9  1  0
  8 10  1  0
  8 11  1  0
 11 12  2  0
 12 13  1  0
 13 14  1  0
 13 15  1  0
 13 16  1  0
 12 17  1  0
 17 18  1  0
 17 19  1  0
 19 20  2  0
 20 21  1  0
 21 22  2  0
 22 23  1  0
 22 24  1  0
 24 25  1  0
 24 26  2  0
 26 27  1  0
 26 28  1  0
 28 29  1  0
 28 30  2  0
 30 31  1  0
 19 32  1  0
 32 33  1  0
 33 34  2  0
  7 35  1  0
 35 36  1  0
 36 37  1  0
 37 38  1  0
 37 39  1  0
 37 40  1  0
 35 41  2  0
 41 42  1  0
 41  2  1  0
 33 11  1  0
 30 21  1  0
M  CHG  2  27  -1  32  -1
M  END
>  <UniqueID>  (42) 
40

>  <SMILES>  (42) 
COc1ccccc1Cc1c(C)[nH]/c(=N/c2ccc([O-])cc2)[n-]c1=O

>  <Energy>  (42) 
53.34209049312797

>  <Genealogy>  (42) 
COc1ccccc1Cc1c(C)[nH]c(=Nc2ccc([O-])cc2)[n-]c1=O (protonated)
COc1ccccc1Cc1c(C)[nH]/c(=N/c2ccc([O-])cc2)[n-]c1=O (cis-trans isomerization)
COc1ccccc1Cc1c(C)[nH]/c(=N/c2ccc([O-])cc2)[n-]c1=O (3D coordinates assigned)
COc1ccccc1Cc1c(C)[nH]/c(=N/c2ccc([O-])cc2)[n-]c1=O (optimized conformer: 53.34209049312797 kcal/mol)

>  <smiles>  (42) 
COc1ccccc1Cc1c(C)[nH]c(=Nc2ccc(O)cc2)[nH]c1=O

>  <score_type>  (42) 
oracle

>  <origin>  (42) 
adg

>  <m_score__min__energy>  (42) 
-12.51

>  <m_primary>  (42) 
energy

$$$$
42:0
     RDKit          3D

 61 64  0  0  0  0  0  0  0  0999 V2000
   59.6138   28.6480   47.5445 H   0  0  0  0  0  0  0  0  0  0  0  0
   59.1790   27.9660   46.7990 C   0  0  0  0  0  0  0  0  0  0  0  0
   59.3106   26.8791   46.9051 H   0  0  0  0  0  0  0  0  0  0  0  0
   58.4880   28.4600   45.7600 C   0  0  0  0  0  0  0  0  0  0  0  0
   57.8720   27.7340   44.7260 C   0  0  0  0  0  0  0  0  0  0  0  0
   57.6480   26.4130   44.5790 C   0  0  0  0  0  0  0  0  0  0  0  0
   57.9159   25.9633   43.6116 H   0  0  0  0  0  0  0  0  0  0  0  0
   57.0760   25.5190   45.6000 C   0  0  0  0  0  0  0  0  0  0  0  0
   57.7270   24.4860   46.1670 N   0  0  0  0  0  0  0  0  0  0  0  0
   56.8720   24.0680   47.1250 C   0  0  0  0  0  0  0  0  0  0  0  0
   57.1210   23.0890   47.8750 O   0  0  0  0  0  0  0  0  0  0  0  0
   55.7340   24.7870   47.2230 N   0  0  0  0  0  0  0  0  0  0  0  0
   55.8880   25.7100   46.2600 C   0  0  0  0  0  0  0  0  0  0  0  0
   54.9640   26.7130   45.9960 O   0  0  0  0  0  0  0  0  0  0  0  0
   57.4580   28.6690   43.7910 C   0  0  0  0  0  0  0  0  0  0  0  0
   56.9709   28.4598   42.8272 H   0  0  0  0  0  0  0  0  0  0  0  0
   57.7730   29.9120   44.2990 C   0  0  0  0  0  0  0  0  0  0  0  0
   57.4640   31.2130   43.6230 C   0  0  0  0  0  0  0  0  0  0  0  0
   57.2803   31.9866   44.3831 H   0  0  0  0  0  0  0  0  0  0  0  0
   58.3163   31.5113   42.9948 H   0  0  0  0  0  0  0  0  0  0  0  0
   56.5686   31.0962   42.9948 H   0  0  0  0  0  0  0  0  0  0  0  0
   58.3850   29.7890   45.4970 N   0  0  0  0  0  0  0  0  0  0  0  0
   58.9010   30.8800   46.2790 C   0  0  0  0  0  0  0  0  0  0  0  0
   58.0410   31.8830   46.7410 C   0  0  0  0  0  0  0  0  0  0  0  0
   56.9634   31.8195   46.5295 H   0  0  0  0  0  0  0  0  0  0  0  0
   58.5430   32.9640   47.4690 C   0  0  0  0  0  0  0  0  0  0  0  0
   57.8580   33.7462   47.8281 H   0  0  0  0  0  0  0  0  0  0  0  0
   59.9190   33.0590   47.7460 C   0  0  0  0  0  0  0  0  0  0  0  0
   60.4590   34.2200   48.4890 C   0  0  0  0  0  0  0  0  0  0  0  0
   59.6880   34.9580   49.1590 O   0  0  0  0  0  0  0  0  0  0  0  0
   61.8500   34.5480   48.4100 N   0  0  0  0  0  0  0  0  0  0  0  0
   62.8740   34.2520   49.4180 C   0  0  0  0  0  0  0  0  0  0  0  0
   63.4479   35.1801   49.5569 H   0  0  0  0  0  0  0  0  0  0  0  0
   63.8400   33.1640   48.9220 C   0  0  0  0  0  0  0  0  0  0  0  0
   64.0186   33.3135   47.8469 H   0  0  0  0  0  0  0  0  0  0  0  0
   64.7709   33.2525   49.5013 H   0  0  0  0  0  0  0  0  0  0  0  0
   63.2890   31.7530   49.1370 C   0  0  0  0  0  0  0  0  0  0  0  0
   62.3753   31.6247   48.5381 H   0  0  0  0  0  0  0  0  0  0  0  0
   64.0482   31.0202   48.8260 H   0  0  0  0  0  0  0  0  0  0  0  0
   62.9710   31.5410   50.5630 N   0  0  0  0  0  0  0  0  0  0  0  0
   62.5950   30.1280   50.7990 C   0  0  0  0  0  0  0  0  0  0  0  0
   62.9449   29.5158   49.9547 H   0  0  0  0  0  0  0  0  0  0  0  0
   63.0620   29.7905   51.7360 H   0  0  0  0  0  0  0  0  0  0  0  0
   61.0750   29.9840   50.9280 C   0  0  0  0  0  0  0  0  0  0  0  0
   60.8433   29.0953   51.5334 H   0  0  0  0  0  0  0  0  0  0  0  0
   60.6669   30.8827   51.4136 H   0  0  0  0  0  0  0  0  0  0  0  0
   60.4920   29.8430   49.6460 O   0  0  0  0  0  0  0  0  0  0  0  0
   59.0960   30.0360   49.7130 C   0  0  0  0  0  0  0  0  0  0  0  0
   58.7820   30.0794   50.7663 H   0  0  0  0  0  0  0  0  0  0  0  0
   58.8318   30.9792   49.2125 H   0  0  0  0  0  0  0  0  0  0  0  0
   58.5858   29.1998   49.2125 H   0  0  0  0  0  0  0  0  0  0  0  0
   61.8770   32.4500   50.9660 C   0  0  0  0  0  0  0  0  0  0  0  0
   60.9981   32.2570   50.3334 H   0  0  0  0  0  0  0  0  0  0  0  0
   61.6400   32.2641   52.0240 H   0  0  0  0  0  0  0  0  0  0  0  0
   62.2950   33.9230   50.8100 C   0  0  0  0  0  0  0  0  0  0  0  0
   61.4112   34.5559   50.9784 H   0  0  0  0  0  0  0  0  0  0  0  0
   63.0900   34.1144   51.5457 H   0  0  0  0  0  0  0  0  0  0  0  0
   60.7790   32.0490   47.2790 C   0  0  0  0  0  0  0  0  0  0  0  0
   61.8569   32.1083   47.4903 H   0  0  0  0  0  0  0  0  0  0  0  0
   60.2730   30.9700   46.5480 C   0  0  0  0  0  0  0  0  0  0  0  0
   60.9551   30.1883   46.1825 H   0  0  0  0  0  0  0  0  0  0  0  0
  1  2  1  0
  2  3  1  0
  2  4  2  0
  4  5  1  0
  5  6  2  0
  6  7  1  0
  6  8  1  0
  8  9  1  0
  9 10  1  0
 10 11  2  0
 10 12  1  0
 12 13  1  0
 13 14  1  0
  5 15  1  0
 15 16  1  0
 15 17  2  0
 17 18  1  0
 18 19  1  0
 18 20  1  0
 18 21  1  0
 17 22  1  0
 22 23  1  0
 23 24  2  0
 24 25  1  0
 24 26  1  0
 26 27  1  0
 26 28  2  0
 28 29  1  0
 29 30  2  0
 29 31  1  0
 31 32  1  0
 32 33  1  0
 32 34  1  0
 34 35  1  0
 34 36  1  0
 34 37  1  0
 37 38  1  0
 37 39  1  0
 37 40  1  0
 40 41  1  0
 41 42  1  0
 41 43  1  0
 41 44  1  0
 44 45  1  0
 44 46  1  0
 44 47  1  0
 47 48  1  0
 48 49  1  0
 48 50  1  0
 48 51  1  0
 40 52  1  0
 52 53  1  0
 52 54  1  0
 52 55  1  0
 55 56  1  0
 55 57  1  0
 28 58  1  0
 58 59  1  0
 58 60  2  0
 60 61  1  0
 22  4  1  0
 60 23  1  0
 13  8  2  0
 55 32  1  0
M  CHG  4   9  -1  12  -1  14  -1  31  -1
M  END
>  <UniqueID>  (43) 
41

>  <SMILES>  (43) 
C=c1/c(=C\c2[n-]c(=O)[n-]c2[O-])cc(C)n1-c1ccc(C(=O)[N-]C2CCN(CCOC)CC2)cc1

>  <Energy>  (43) 
148.0166203216378

>  <Genealogy>  (43) 
C=c1c(=Cc2[n-]c(=O)[n-]c2[O-])cc(C)n1-c1ccc(C(=O)[N-]C2CCN(CCOC)CC2)cc1 (protonated)
C=c1/c(=C\c2[n-]c(=O)[n-]c2[O-])cc(C)n1-c1ccc(C(=O)[N-]C2CCN(CCOC)CC2)cc1 (cis-trans isomerization)
C=c1/c(=C\c2[n-]c(=O)[n-]c2[O-])cc(C)n1-c1ccc(C(=O)[N-]C2CCN(CCOC)CC2)cc1 (3D coordinates assigned)
C=c1/c(=C\c2[n-]c(=O)[n-]c2[O-])cc(C)n1-c1ccc(C(=O)[N-]C2CCN(CCOC)CC2)cc1 (nonaromatic ring conformer: 148.0166203216378 kcal/mol)

>  <smiles>  (43) 
C=c1c(=Cc2[nH]c(=O)[nH]c2O)cc(C)n1-c1ccc(C(=O)NC2CCN(CCOC)CC2)cc1

>  <score_type>  (43) 
oracle

>  <origin>  (43) 
adg

>  <m_score__min__energy>  (43) 
-16.809999999999999

>  <m_primary>  (43) 
energy

$$$$
43:0
     RDKit          3D

 45 48  0  0  1  0  0  0  0  0999 V2000
   57.2700   24.6260   45.0040 C   0  0  0  0  0  0  0  0  0  0  0  0
   56.6070   25.9600   45.9520 S   0  0  0  0  0  0  0  0  0  0  0  0
   57.1160   25.8500   47.3710 O   0  0  0  0  0  0  0  0  0  0  0  0
   55.1040   25.7820   46.0180 O   0  0  0  0  0  0  0  0  0  0  0  0
   56.9600   27.5030   45.3220 N   0  0  0  0  0  0  0  0  0  0  0  0
   58.2240   28.1340   45.3680 C   0  0  0  0  0  0  0  0  0  0  0  0
   59.3740   27.6180   44.8190 C   0  0  0  0  0  0  0  0  0  0  0  0
   60.5750   28.2890   44.9010 C   0  0  0  0  0  0  0  0  0  0  0  0
   60.6180   29.5030   45.5480 C   0  0  0  0  0  0  0  0  0  0  0  0
   59.4750   30.0770   46.1270 C   0  0  0  0  0  0  0  0  0  0  0  0
   59.6690   31.2690   46.9000 C   0  0  0  0  0  0  0  0  0  0  0  0
   60.1640   31.0180   48.2290 C   0  0  0  0  0  0  0  0  0  0  0  0
   60.2330   32.1330   48.9130 N   0  0  0  0  0  0  0  0  0  0  0  0
   59.8250   33.1210   48.1580 C   0  0  0  0  0  0  0  0  0  0  0  0
   59.7180   34.4320   48.4340 N   0  0  0  0  0  0  0  0  0  0  0  0
   59.2680   35.2640   47.4930 C   0  0  0  0  0  0  0  0  0  0  0  0
   58.9290   34.8240   46.2910 N   0  0  0  0  0  0  0  0  0  0  0  0
   59.0370   33.4910   46.0040 C   0  0  0  0  0  0  0  0  0  0  0  0
   58.7830   33.1520   44.8600 N   0  0  0  0  0  0  0  0  0  0  0  0
   57.9380   32.4000   44.1900 C   0  0  0  0  0  0  0  0  0  0  0  0
   58.0780   32.2250   42.7900 C   0  0  0  0  0  0  0  0  0  0  0  0
   57.2750   31.2840   42.1360 C   0  0  0  0  0  0  0  0  0  0  0  0
   56.3480   30.5200   42.8130 C   0  0  0  0  0  0  0  0  0  0  0  0
   56.2120   30.6900   44.1710 C   0  0  0  0  0  0  0  0  0  0  0  0
   55.2860   29.9400   44.9030 O   0  0  0  0  0  0  0  0  0  0  0  0
   56.9780   31.6030   44.8640 C   0  0  0  0  0  0  0  0  0  0  0  0
   59.4780   32.5860   46.9060 C   0  0  0  0  0  0  0  0  0  0  0  0
   58.3220   29.3520   46.0050 C   0  0  0  0  0  0  0  0  0  0  0  0
   57.6555   23.8504   45.6821 H   0  0  0  0  0  0  0  0  0  0  0  0
   56.4795   24.1986   44.3697 H   0  0  0  0  0  0  0  0  0  0  0  0
   58.0881   24.9980   44.3697 H   0  0  0  0  0  0  0  0  0  0  0  0
   56.1920   28.0670   44.8470 H   0  0  0  0  0  0  0  0  0  0  0  0
   59.3346   26.6476   44.3026 H   0  0  0  0  0  0  0  0  0  0  0  0
   61.4854   27.8608   44.4561 H   0  0  0  0  0  0  0  0  0  0  0  0
   61.5761   30.0394   45.6134 H   0  0  0  0  0  0  0  0  0  0  0  0
   60.4451   30.0274   48.6160 H   0  0  0  0  0  0  0  0  0  0  0  0
   60.5590   32.2170   49.8960 H   0  0  0  0  0  0  0  0  0  0  0  0
   59.9820   34.8120   49.3800 H   0  0  0  0  0  0  0  0  0  0  0  0
   59.1768   36.3364   47.7202 H   0  0  0  0  0  0  0  0  0  0  0  0
   58.8090   32.8217   42.2248 H   0  0  0  0  0  0  0  0  0  0  0  0
   57.3865   31.1498   41.0499 H   0  0  0  0  0  0  0  0  0  0  0  0
   55.7279   29.7871   42.2761 H   0  0  0  0  0  0  0  0  0  0  0  0
   54.7690   30.4530   45.6110 H   0  0  0  0  0  0  0  0  0  0  0  0
   56.8433   31.7143   45.9500 H   0  0  0  0  0  0  0  0  0  0  0  0
   57.4064   29.7715   46.4474 H   0  0  0  0  0  0  0  0  0  0  0  0
  1  2  1  0
  2  3  2  0
  2  4  2  0
  2  5  1  0
  5  6  1  0
  6  7  2  0
  7  8  1  0
  8  9  2  0
  9 10  1  0
 10 11  1  0
 11 12  2  0
 12 13  1  0
 13 14  1  0
 14 15  1  0
 15 16  1  0
 16 17  2  0
 17 18  1  0
 18 19  2  0
 19 20  1  0
 20 21  2  0
 21 22  1  0
 22 23  2  0
 23 24  1  0
 24 25  1  0
 24 26  2  0
 18 27  1  0
 10 28  2  0
 28  6  1  0
 27 11  1  0
 27 14  2  0
 26 20  1  0
  1 29  1  0
  1 30  1  0
  1 31  1  0
  5 32  1  0
  7 33  1  0
  8 34  1  0
  9 35  1  0
 12 36  1  0
 13 37  1  0
 15 38  1  0
 16 39  1  0
 21 40  1  0
 22 41  1  0
 23 42  1  0
 25 43  1  0
 26 44  1  0
 28 45  1  0
M  END
>  <smiles>  (44) 
CS(=O)(=O)Nc1cccc(-c2c[nH]c3[nH]cnc(=Nc4cccc(O)c4)c23)c1

>  <score_type>  (44) 
oracle

>  <origin>  (44) 
adg

>  <m_score__min__energy>  (44) 
-9.9800000000000004

>  <m_primary>  (44) 
energy

$$$$
44:0
     RDKit          3D

 49 51  0  0  0  0  0  0  0  0999 V2000
   57.0130   29.2450   43.0060 C   0  0  0  0  0  0  0  0  0  0  0  0
   57.7420   30.2040   43.8550 N   0  0  0  0  0  0  0  0  0  0  0  0
   56.8400   31.2160   44.4540 C   0  0  0  0  0  0  0  0  0  0  0  0
   57.5680   32.3840   45.0880 C   0  0  0  0  0  0  0  0  0  0  0  0
   58.0460   33.4390   44.2920 C   0  0  0  0  0  0  0  0  0  0  0  0
   58.7100   34.5210   44.8780 C   0  0  0  0  0  0  0  0  0  0  0  0
   58.9070   34.5560   46.2610 C   0  0  0  0  0  0  0  0  0  0  0  0
   58.4440   33.5080   47.0600 C   0  0  0  0  0  0  0  0  0  0  0  0
   57.7780   32.4250   46.4770 C   0  0  0  0  0  0  0  0  0  0  0  0
   58.5750   29.5210   44.8660 C   0  0  0  0  0  0  0  0  0  0  0  0
   58.0030   28.1660   45.1920 C   0  0  0  0  0  0  0  0  0  0  0  0
   58.8160   27.0230   45.1640 C   0  0  0  0  0  0  0  0  0  0  0  0
   58.2840   25.7720   45.4880 C   0  0  0  0  0  0  0  0  0  0  0  0
   56.9330   25.6440   45.8520 C   0  0  0  0  0  0  0  0  0  0  0  0
   56.3860   24.2760   46.1780 C   0  0  0  0  0  0  0  0  0  0  0  0
   55.4210   23.8370   45.1450 N   0  0  0  0  0  0  0  0  0  0  0  0
   55.9220   24.0830   43.7770 C   0  0  0  0  0  0  0  0  0  0  0  0
   56.9660   23.0830   43.3530 C   0  0  0  0  0  0  0  0  0  0  0  0
   57.0040   21.8450   43.8670 C   0  0  0  0  0  0  0  0  0  0  0  0
   56.1310   21.4280   45.0190 C   0  0  0  0  0  0  0  0  0  0  0  0
   54.9940   22.4290   45.2970 C   0  0  0  0  0  0  0  0  0  0  0  0
   56.1190   26.7940   45.8850 C   0  0  0  0  0  0  0  0  0  0  0  0
   54.7750   26.7050   46.2370 O   0  0  0  0  0  0  0  0  0  0  0  0
   56.6550   28.0430   45.5590 C   0  0  0  0  0  0  0  0  0  0  0  0
   56.4701   28.5308   43.6425 H   0  0  0  0  0  0  0  0  0  0  0  0
   56.2974   29.7877   42.3709 H   0  0  0  0  0  0  0  0  0  0  0  0
   57.7274   28.7007   42.3709 H   0  0  0  0  0  0  0  0  0  0  0  0
   56.1817   31.6053   43.6634 H   0  0  0  0  0  0  0  0  0  0  0  0
   56.2811   30.7125   45.2566 H   0  0  0  0  0  0  0  0  0  0  0  0
   57.8970   33.4134   43.2024 H   0  0  0  0  0  0  0  0  0  0  0  0
   59.0777   35.3456   44.2496 H   0  0  0  0  0  0  0  0  0  0  0  0
   59.4270   35.4094   46.7207 H   0  0  0  0  0  0  0  0  0  0  0  0
   58.6032   33.5344   48.1481 H   0  0  0  0  0  0  0  0  0  0  0  0
   57.4165   31.6007   47.1093 H   0  0  0  0  0  0  0  0  0  0  0  0
   59.5947   29.3984   44.4721 H   0  0  0  0  0  0  0  0  0  0  0  0
   58.5934   30.1295   45.7822 H   0  0  0  0  0  0  0  0  0  0  0  0
   59.8765   27.1119   44.8859 H   0  0  0  0  0  0  0  0  0  0  0  0
   58.9279   24.8807   45.4578 H   0  0  0  0  0  0  0  0  0  0  0  0
   57.2170   23.5568   46.2244 H   0  0  0  0  0  0  0  0  0  0  0  0
   55.8679   24.3247   47.1471 H   0  0  0  0  0  0  0  0  0  0  0  0
   55.0756   24.0269   43.0766 H   0  0  0  0  0  0  0  0  0  0  0  0
   56.3911   25.0779   43.7682 H   0  0  0  0  0  0  0  0  0  0  0  0
   57.7157   23.3756   42.6032 H   0  0  0  0  0  0  0  0  0  0  0  0
   57.6967   21.1097   43.4317 H   0  0  0  0  0  0  0  0  0  0  0  0
   55.6882   20.4479   44.7880 H   0  0  0  0  0  0  0  0  0  0  0  0
   56.7643   21.3871   45.9175 H   0  0  0  0  0  0  0  0  0  0  0  0
   54.1726   22.2327   44.5922 H   0  0  0  0  0  0  0  0  0  0  0  0
   54.6774   22.2895   46.3412 H   0  0  0  0  0  0  0  0  0  0  0  0
   56.0144   28.9367   45.5905 H   0  0  0  0  0  0  0  0  0  0  0  0
  1  2  1  0
  2  3  1  0
  3  4  1  0
  4  5  2  0
  5  6  1  0
  6  7  2  0
  7  8  1  0
  8  9  2  0
  2 10  1  0
 10 11  1  0
 11 12  2  0
 12 13  1  0
 13 14  2  0
 14 15  1  0
 15 16  1  0
 16 17  1  0
 17 18  1  0
 18 19  2  0
 19 20  1  0
 20 21  1  0
 14 22  1  0
 22 23  1  0
 22 24  2  0
  9  4  1  0
 24 11  1  0
 21 16  1  0
  1 25  1  0
  1 26  1  0
  1 27  1  0
  3 28  1  0
  3 29  1  0
  5 30  1  0
  6 31  1  0
  7 32  1  0
  8 33  1  0
  9 34  1  0
 10 35  1  0
 10 36  1  0
 12 37  1  0
 13 38  1  0
 15 39  1  0
 15 40  1  0
 17 41  1  0
 17 42  1  0
 18 43  1  0
 19 44  1  0
 20 45  1  0
 20 46  1  0
 21 47  1  0
 21 48  1  0
 24 49  1  0
M  CHG  1  23  -1
M  END
>  <UniqueID>  (45) 
42

>  <SMILES>  (45) 
CN(Cc1ccccc1)Cc1ccc(CN2CC=CCC2)c([O-])c1

>  <Energy>  (45) 
57.93819908404812

>  <Genealogy>  (45) 
CN(Cc1ccccc1)Cc1ccc(CN2CC=CCC2)c([O-])c1 (protonated)
CN(Cc1ccccc1)Cc1ccc(CN2CC=CCC2)c([O-])c1 (3D coordinates assigned)
CN(Cc1ccccc1)Cc1ccc(CN2CC=CCC2)c([O-])c1 (nonaromatic ring conformer: 57.93819908404812 kcal/mol)

>  <smiles>  (45) 
CN(Cc1ccccc1)Cc1ccc(CN2CC=CCC2)c(O)c1

>  <score_type>  (45) 
oracle

>  <origin>  (45) 
adg

>  <m_score__min__energy>  (45) 
-11.65

>  <m_primary>  (45) 
energy

$$$$
45:0
     RDKit          3D

 43 45  0  0  0  0  0  0  0  0999 V2000
   55.2280   29.3170   44.6740 N   0  0  0  0  0  0  0  0  0  0  0  0
   56.6780   29.9980   44.0230 S   0  0  0  0  0  0  0  0  0  0  0  0
   56.3480   30.7750   42.7800 O   0  0  0  0  0  0  0  0  0  0  0  0
   57.6330   28.8960   43.6660 O   0  0  0  0  0  0  0  0  0  0  0  0
   57.4200   31.0530   45.2210 C   0  0  0  0  0  0  0  0  0  0  0  0
   57.0720   32.4100   45.2630 C   0  0  0  0  0  0  0  0  0  0  0  0
   57.6730   33.2630   46.1950 C   0  0  0  0  0  0  0  0  0  0  0  0
   58.6280   32.7670   47.0960 C   0  0  0  0  0  0  0  0  0  0  0  0
   59.3020   33.7020   48.0660 C   0  0  0  0  0  0  0  0  0  0  0  0
   59.7750   32.9690   49.2390 N   0  0  0  0  0  0  0  0  0  0  0  0
   59.0130   32.2830   50.0420 C   0  0  0  0  0  0  0  0  0  0  0  0
   58.2930   32.9430   51.0420 C   0  0  0  0  0  0  0  0  0  0  0  0
   57.4670   32.2050   51.8930 C   0  0  0  0  0  0  0  0  0  0  0  0
   57.3710   30.8150   51.7470 C   0  0  0  0  0  0  0  0  0  0  0  0
   56.2850   29.9000   52.7880 S   0  0  0  0  0  0  0  0  0  0  0  0
   56.0490   30.6890   54.0470 O   0  0  0  0  0  0  0  0  0  0  0  0
   56.9040   28.5780   53.1530 O   0  0  0  0  0  0  0  0  0  0  0  0
   54.7530   29.6320   52.0170 N   0  0  0  0  0  0  0  0  0  0  0  0
   53.6240   30.5150   52.0610 C   0  0  0  0  0  0  0  0  0  0  0  0
   52.8620   30.7130   53.2310 C   0  0  0  0  0  0  0  0  0  0  0  0
   51.7530   31.5680   53.2090 C   0  0  0  0  0  0  0  0  0  0  0  0
   51.3940   32.2280   52.0280 C   0  0  0  0  0  0  0  0  0  0  0  0
   50.2920   33.0750   52.0080 O   0  0  0  0  0  0  0  0  0  0  0  0
   52.1460   32.0340   50.8650 C   0  0  0  0  0  0  0  0  0  0  0  0
   53.2560   31.1810   50.8810 C   0  0  0  0  0  0  0  0  0  0  0  0
   58.1020   30.1910   50.7290 C   0  0  0  0  0  0  0  0  0  0  0  0
   58.8970   30.9280   49.9110 N   0  0  0  0  0  0  0  0  0  0  0  0
   58.9780   31.4070   47.0490 C   0  0  0  0  0  0  0  0  0  0  0  0
   58.3800   30.5560   46.1160 C   0  0  0  0  0  0  0  0  0  0  0  0
   54.6520   30.1110   45.0350 H   0  0  0  0  0  0  0  0  0  0  0  0
   56.3236   32.8058   44.5607 H   0  0  0  0  0  0  0  0  0  0  0  0
   57.3958   34.3272   46.2217 H   0  0  0  0  0  0  0  0  0  0  0  0
   60.1581   34.1827   47.5700 H   0  0  0  0  0  0  0  0  0  0  0  0
   58.5760   34.4620   48.3904 H   0  0  0  0  0  0  0  0  0  0  0  0
   58.3761   34.0337   51.1577 H   0  0  0  0  0  0  0  0  0  0  0  0
   56.8912   32.7159   52.6788 H   0  0  0  0  0  0  0  0  0  0  0  0
   53.1388   30.1956   54.1614 H   0  0  0  0  0  0  0  0  0  0  0  0
   51.1616   31.7215   54.1237 H   0  0  0  0  0  0  0  0  0  0  0  0
   51.8650   32.5523   49.9364 H   0  0  0  0  0  0  0  0  0  0  0  0
   53.8436   31.0316   49.9632 H   0  0  0  0  0  0  0  0  0  0  0  0
   58.0323   29.1019   50.5915 H   0  0  0  0  0  0  0  0  0  0  0  0
   59.7267   31.0102   47.7504 H   0  0  0  0  0  0  0  0  0  0  0  0
   58.6625   29.4934   46.0829 H   0  0  0  0  0  0  0  0  0  0  0  0
  1  2  1  0
  2  3  2  0
  2  4  2  0
  2  5  1  0
  5  6  2  0
  6  7  1  0
  7  8  2  0
  8  9  1  0
  9 10  1  0
 10 11  2  3
 11 12  1  0
 12 13  2  0
 13 14  1  0
 14 15  1  0
 15 16  2  0
 15 17  2  0
 15 18  1  0
 18 19  1  0
 19 20  2  0
 20 21  1  0
 21 22  2  0
 22 23  1  0
 22 24  1  0
 24 25  2  0
 14 26  2  0
 26 27  1  0
  8 28  1  0
 28 29  2  0
 29  5  1  0
 27 11  1  0
 25 19  1  0
  1 30  1  0
  6 31  1  0
  7 32  1  0
  9 33  1  0
  9 34  1  0
 12 35  1  0
 13 36  1  0
 20 37  1  0
 21 38  1  0
 24 39  1  0
 25 40  1  0
 26 41  1  0
 28 42  1  0
 29 43  1  0
M  CHG  4   1  -1  18  -1  23  -1  27  -1
M  END
>  <UniqueID>  (46) 
43

>  <SMILES>  (46) 
[NH-]S(=O)(=O)c1ccc(CN=c2ccc(S(=O)(=O)[N-]c3ccc([O-])cc3)c[n-]2)cc1

>  <Energy>  (46) 
48.89475206390795

>  <Genealogy>  (46) 
[NH-]S(=O)(=O)c1ccc(CN=c2ccc(S(=O)(=O)[N-]c3ccc([O-])cc3)c[n-]2)cc1 (protonated)
[NH-]S(=O)(=O)c1ccc(CN=c2ccc(S(=O)(=O)[N-]c3ccc([O-])cc3)c[n-]2)cc1 (3D coordinates assigned)
[NH-]S(=O)(=O)c1ccc(CN=c2ccc(S(=O)(=O)[N-]c3ccc([O-])cc3)c[n-]2)cc1 (optimized conformer: 48.89475206390795 kcal/mol)

>  <smiles>  (46) 
NS(=O)(=O)c1ccc(CN=c2ccc(S(=O)(=O)Nc3ccc(O)cc3)c[nH]2)cc1

>  <score_type>  (46) 
oracle

>  <origin>  (46) 
adg

>  <m_score__min__energy>  (46) 
-17.550000000000001

>  <m_primary>  (46) 
energy

$$$$
46:0
     RDKit          3D

 73 76  0  0  0  0  0  0  0  0999 V2000
   59.1910   33.7550   52.3140 C   0  0  0  0  0  0  0  0  0  0  0  0
   59.5290   32.3700   51.8530 C   0  0  0  0  0  0  0  0  0  0  0  0
   58.8380   31.6760   50.8780 C   0  0  0  0  0  0  0  0  0  0  0  0
   59.4480   30.4380   50.7780 C   0  0  0  0  0  0  0  0  0  0  0  0
   59.0840   29.3470   49.8500 C   0  0  0  0  0  0  0  0  0  0  0  0
   59.9650   28.6710   49.0930 C   0  0  0  0  0  0  0  0  0  0  0  0
   60.5650   27.4360   49.5430 C   0  0  0  0  0  0  0  0  0  0  0  0
   61.0490   26.4500   49.9070 N   0  0  0  0  0  0  0  0  0  0  0  0
   60.3510   29.1720   47.7570 C   0  0  0  0  0  0  0  0  0  0  0  0
   61.1260   30.1640   47.6860 O   0  0  0  0  0  0  0  0  0  0  0  0
   59.8390   28.5880   46.5430 N   0  0  0  0  0  0  0  0  0  0  0  0
   60.3150   28.9900   45.2300 C   0  0  0  0  0  0  0  0  0  0  0  0
   59.4750   28.2110   44.2280 C   0  0  0  0  0  0  0  0  0  0  0  0
   58.2440   27.7450   44.9990 C   0  0  0  0  0  0  0  0  0  0  0  0
   58.6500   27.7490   46.4670 C   0  0  0  0  0  0  0  0  0  0  0  0
   60.5030   30.4350   51.6790 C   0  0  0  0  0  0  0  0  0  0  0  0
   61.3870   29.2560   51.9770 C   0  0  0  0  0  0  0  0  0  0  0  0
   60.5230   31.6040   52.3610 N   0  0  0  0  0  0  0  0  0  0  0  0
   61.4520   31.9850   53.4320 C   0  0  0  0  0  0  0  0  0  0  0  0
   62.7530   32.5430   52.8420 C   0  0  0  0  0  0  0  0  0  0  0  0
   62.5170   33.1730   51.4980 C   0  0  0  0  0  0  0  0  0  0  0  0
   62.3950   34.4250   51.4170 O   0  0  0  0  0  0  0  0  0  0  0  0
   62.4310   32.3480   50.3220 N   0  0  0  0  0  0  0  0  0  0  0  0
   62.3370   32.8490   48.9750 C   0  0  0  0  0  0  0  0  0  0  0  0
   63.4420   32.7190   48.1190 C   0  0  0  0  0  0  0  0  0  0  0  0
   63.3810   33.1880   46.8040 C   0  0  0  0  0  0  0  0  0  0  0  0
   62.2160   33.7960   46.3310 C   0  0  0  0  0  0  0  0  0  0  0  0
   61.1110   33.9530   47.1780 C   0  0  0  0  0  0  0  0  0  0  0  0
   59.6230   34.6890   46.5760 S   0  0  0  0  0  0  0  0  0  0  0  0
   58.8830   35.3170   47.7250 O   0  0  0  0  0  0  0  0  0  0  0  0
   59.9650   35.7750   45.5930 O   0  0  0  0  0  0  0  0  0  0  0  0
   58.5920   33.5070   45.8090 N   0  0  0  0  0  0  0  0  0  0  0  0
   58.9640   32.1460   46.2310 C   0  0  0  0  0  0  0  0  0  0  0  0
   57.9020   31.1330   45.7640 C   0  0  0  0  0  0  0  0  0  0  0  0
   57.1280   31.6220   44.5290 C   0  0  0  0  0  0  0  0  0  0  0  0
   58.0300   32.4410   43.6010 C   0  0  0  0  0  0  0  0  0  0  0  0
   58.6600   33.6460   44.3370 C   0  0  0  0  0  0  0  0  0  0  0  0
   61.1830   33.5020   48.5040 C   0  0  0  0  0  0  0  0  0  0  0  0
   59.1839   33.7839   53.4136 H   0  0  0  0  0  0  0  0  0  0  0  0
   59.9430   34.4619   51.9334 H   0  0  0  0  0  0  0  0  0  0  0  0
   58.1979   34.0360   51.9334 H   0  0  0  0  0  0  0  0  0  0  0  0
   57.9756   32.0357   50.2976 H   0  0  0  0  0  0  0  0  0  0  0  0
   58.0222   29.0700   49.7738 H   0  0  0  0  0  0  0  0  0  0  0  0
   60.1764   30.0718   45.0870 H   0  0  0  0  0  0  0  0  0  0  0  0
   61.3881   28.7818   45.1072 H   0  0  0  0  0  0  0  0  0  0  0  0
   59.1802   28.8582   43.3888 H   0  0  0  0  0  0  0  0  0  0  0  0
   60.0323   27.3643   43.8009 H   0  0  0  0  0  0  0  0  0  0  0  0
   57.4033   28.4344   44.8319 H   0  0  0  0  0  0  0  0  0  0  0  0
   57.9141   26.7478   44.6721 H   0  0  0  0  0  0  0  0  0  0  0  0
   57.8440   28.1684   47.0871 H   0  0  0  0  0  0  0  0  0  0  0  0
   58.8454   26.7320   46.8378 H   0  0  0  0  0  0  0  0  0  0  0  0
   61.4793   29.1329   53.0662 H   0  0  0  0  0  0  0  0  0  0  0  0
   60.9457   28.3474   51.5414 H   0  0  0  0  0  0  0  0  0  0  0  0
   62.3828   29.4250   51.5414 H   0  0  0  0  0  0  0  0  0  0  0  0
   60.9816   32.7538   54.0626 H   0  0  0  0  0  0  0  0  0  0  0  0
   61.6874   31.0938   54.0322 H   0  0  0  0  0  0  0  0  0  0  0  0
   63.1606   33.3014   53.5266 H   0  0  0  0  0  0  0  0  0  0  0  0
   63.4618   31.7113   52.7160 H   0  0  0  0  0  0  0  0  0  0  0  0
   62.2850   31.3250   50.4640 H   0  0  0  0  0  0  0  0  0  0  0  0
   64.3636   32.2440   48.4864 H   0  0  0  0  0  0  0  0  0  0  0  0
   64.2516   33.0782   46.1407 H   0  0  0  0  0  0  0  0  0  0  0  0
   62.1659   34.1523   45.2915 H   0  0  0  0  0  0  0  0  0  0  0  0
   59.9363   31.8821   45.7894 H   0  0  0  0  0  0  0  0  0  0  0  0
   59.0285   32.1166   47.3287 H   0  0  0  0  0  0  0  0  0  0  0  0
   58.4028   30.1859   45.5147 H   0  0  0  0  0  0  0  0  0  0  0  0
   57.1792   31.0036   46.5830 H   0  0  0  0  0  0  0  0  0  0  0  0
   56.7427   30.7511   43.9786 H   0  0  0  0  0  0  0  0  0  0  0  0
   56.3005   32.2632   44.8668 H   0  0  0  0  0  0  0  0  0  0  0  0
   58.8347   31.7935   43.2226 H   0  0  0  0  0  0  0  0  0  0  0  0
   57.4143   32.8262   42.7749 H   0  0  0  0  0  0  0  0  0  0  0  0
   59.7154   33.7297   44.0385 H   0  0  0  0  0  0  0  0  0  0  0  0
   58.0897   34.5444   44.0584 H   0  0  0  0  0  0  0  0  0  0  0  0
   60.3306   33.6600   49.1812 H   0  0  0  0  0  0  0  0  0  0  0  0
  1  2  1  0
  2  3  2  0
  3  4  1  0
  4  5  1  0
  5  6  2  3
  6  7  1  0
  7  8  3  0
  6  9  1  0
  9 10  2  0
  9 11  1  0
 11 12  1  0
 12 13  1  0
 13 14  1  0
 14 15  1  0
  4 16  2  0
 16 17  1  0
 16 18  1  0
 18 19  1  0
 19 20  1  0
 20 21  1  0
 21 22  2  0
 21 23  1  0
 23 24  1  0
 24 25  2  0
 25 26  1  0
 26 27  2  0
 27 28  1  0
 28 29  1  0
 29 30  2  0
 29 31  2  0
 29 32  1  0
 32 33  1  0
 33 34  1  0
 34 35  1  0
 35 36  1  0
 36 37  1  0
 28 38  2  0
 18  2  1  0
 38 24  1  0
 15 11  1  0
 37 32  1  0
  1 39  1  0
  1 40  1  0
  1 41  1  0
  3 42  1  0
  5 43  1  0
 12 44  1  0
 12 45  1  0
 13 46  1  0
 13 47  1  0
 14 48  1  0
 14 49  1  0
 15 50  1  0
 15 51  1  0
 17 52  1  0
 17 53  1  0
 17 54  1  0
 19 55  1  0
 19 56  1  0
 20 57  1  0
 20 58  1  0
 23 59  1  0
 25 60  1  0
 26 61  1  0
 27 62  1  0
 33 63  1  0
 33 64  1  0
 34 65  1  0
 34 66  1  0
 35 67  1  0
 35 68  1  0
 36 69  1  0
 36 70  1  0
 37 71  1  0
 37 72  1  0
 38 73  1  0
M  END
>  <UniqueID>  (47) 
44

>  <SMILES>  (47) 
Cc1cc(C=C(C#N)C(=O)N2CCCC2)c(C)n1CCC(=O)Nc1cccc(S(=O)(=O)N2CCCCC2)c1

>  <Energy>  (47) 
109.04560616489749

>  <Genealogy>  (47) 
Cc1cc(C=C(C#N)C(=O)N2CCCC2)c(C)n1CCC(=O)Nc1cccc(S(=O)(=O)N2CCCCC2)c1 (3D coordinates assigned)
Cc1cc(C=C(C#N)C(=O)N2CCCC2)c(C)n1CCC(=O)Nc1cccc(S(=O)(=O)N2CCCCC2)c1 (nonaromatic ring conformer: 109.04560616489749 kcal/mol)

>  <smiles>  (47) 
Cc1cc(C=C(C#N)C(=O)N2CCCC2)c(C)n1CCC(=O)Nc1cccc(S(=O)(=O)N2CCCCC2)c1

>  <score_type>  (47) 
oracle

>  <origin>  (47) 
adg

>  <m_score__min__energy>  (47) 
-10.460000000000001

>  <m_primary>  (47) 
energy

$$$$
47:0
     RDKit          3D

 41 43  0  0  0  0  0  0  0  0999 V2000
   56.2310   29.7240   42.9290 C   0  0  0  0  0  0  0  0  0  0  0  0
   56.9150   29.5690   44.0660 C   0  0  0  0  0  0  0  0  0  0  0  0
   56.9830   28.3880   44.7140 N   0  0  0  0  0  0  0  0  0  0  0  0
   57.7360   28.5880   45.8170 C   0  0  0  0  0  0  0  0  0  0  0  0
   58.0190   27.6640   46.7480 C   0  0  0  0  0  0  0  0  0  0  0  0
   57.4050   26.3250   46.8010 C   0  0  0  0  0  0  0  0  0  0  0  0
   57.9840   25.2130   47.2890 N   0  0  0  0  0  0  0  0  0  0  0  0
   57.0170   24.2760   47.2370 C   0  0  0  0  0  0  0  0  0  0  0  0
   57.1900   23.0890   47.6190 O   0  0  0  0  0  0  0  0  0  0  0  0
   55.8380   24.7260   46.7560 N   0  0  0  0  0  0  0  0  0  0  0  0
   56.0970   26.0220   46.4980 C   0  0  0  0  0  0  0  0  0  0  0  0
   55.1540   26.9130   45.9990 O   0  0  0  0  0  0  0  0  0  0  0  0
   58.1440   29.9080   45.8850 C   0  0  0  0  0  0  0  0  0  0  0  0
   57.6320   30.5410   44.7660 C   0  0  0  0  0  0  0  0  0  0  0  0
   57.8450   31.9690   44.4530 C   0  0  0  0  0  0  0  0  0  0  0  0
   57.4340   32.4620   43.3680 O   0  0  0  0  0  0  0  0  0  0  0  0
   58.5140   32.7750   45.3810 O   0  0  0  0  0  0  0  0  0  0  0  0
   57.8430   33.6370   46.2990 C   0  0  0  0  0  0  0  0  0  0  0  0
   58.6670   33.8290   47.5430 C   0  0  0  0  0  0  0  0  0  0  0  0
   59.5530   32.9330   47.9990 C   0  0  0  0  0  0  0  0  0  0  0  0
   60.9990   32.9660   47.6980 C   0  0  0  0  0  0  0  0  0  0  0  0
   61.5210   33.8530   46.7400 C   0  0  0  0  0  0  0  0  0  0  0  0
   62.8870   33.8490   46.4470 C   0  0  0  0  0  0  0  0  0  0  0  0
   63.7410   32.9510   47.0920 C   0  0  0  0  0  0  0  0  0  0  0  0
   63.2260   32.0460   48.0250 C   0  0  0  0  0  0  0  0  0  0  0  0
   61.8590   32.0450   48.3210 C   0  0  0  0  0  0  0  0  0  0  0  0
   61.3760   31.1570   49.2280 F   0  0  0  0  0  0  0  0  0  0  0  0
   56.2024   30.7058   42.4338 H   0  0  0  0  0  0  0  0  0  0  0  0
   55.6964   28.8698   42.4880 H   0  0  0  0  0  0  0  0  0  0  0  0
   56.4900   27.5110   44.4330 H   0  0  0  0  0  0  0  0  0  0  0  0
   58.7569   27.9225   47.5217 H   0  0  0  0  0  0  0  0  0  0  0  0
   58.9450   25.1050   47.6830 H   0  0  0  0  0  0  0  0  0  0  0  0
   58.7568   30.3659   46.6755 H   0  0  0  0  0  0  0  0  0  0  0  0
   57.6758   34.6138   45.8216 H   0  0  0  0  0  0  0  0  0  0  0  0
   56.8817   33.1802   46.5770 H   0  0  0  0  0  0  0  0  0  0  0  0
   58.5342   34.7607   48.1124 H   0  0  0  0  0  0  0  0  0  0  0  0
   59.1794   32.1201   48.6390 H   0  0  0  0  0  0  0  0  0  0  0  0
   60.8511   34.5529   46.2191 H   0  0  0  0  0  0  0  0  0  0  0  0
   63.2912   34.5548   45.7064 H   0  0  0  0  0  0  0  0  0  0  0  0
   64.8175   32.9560   46.8660 H   0  0  0  0  0  0  0  0  0  0  0  0
   63.8970   31.3336   48.5271 H   0  0  0  0  0  0  0  0  0  0  0  0
  1  2  2  0
  2  3  1  0
  3  4  1  0
  4  5  2  3
  5  6  1  0
  6  7  1  0
  7  8  1  0
  8  9  2  0
  8 10  1  0
 10 11  1  0
 11 12  1  0
  4 13  1  0
 13 14  2  0
 14 15  1  0
 15 16  2  0
 15 17  1  0
 17 18  1  0
 18 19  1  0
 19 20  2  3
 20 21  1  0
 21 22  2  0
 22 23  1  0
 23 24  2  0
 24 25  1  0
 25 26  2  0
 26 27  1  0
 14  2  1  0
 26 21  1  0
 11  6  2  0
  1 28  1  0
  1 29  1  0
  3 30  1  0
  5 31  1  0
  7 32  1  0
 13 33  1  0
 18 34  1  0
 18 35  1  0
 19 36  1  0
 20 37  1  0
 22 38  1  0
 23 39  1  0
 24 40  1  0
 25 41  1  0
M  CHG  2  10  -1  12  -1
M  END
>  <UniqueID>  (48) 
45

>  <SMILES>  (48) 
C=c1[nH]c(=Cc2[nH]c(=O)[n-]c2[O-])cc1C(=O)OCC=Cc1ccccc1F

>  <Energy>  (48) 
110.54871008233013

>  <Genealogy>  (48) 
C=c1[nH]c(=Cc2[nH]c(=O)[n-]c2[O-])cc1C(=O)OCC=Cc1ccccc1F (protonated)
C=c1[nH]c(=Cc2[nH]c(=O)[n-]c2[O-])cc1C(=O)OCC=Cc1ccccc1F (3D coordinates assigned)
C=c1[nH]c(=Cc2[nH]c(=O)[n-]c2[O-])cc1C(=O)OCC=Cc1ccccc1F (optimized conformer: 110.54871008233013 kcal/mol)

>  <smiles>  (48) 
C=c1[nH]c(=Cc2[nH]c(=O)[nH]c2O)cc1C(=O)OCC=Cc1ccccc1F

>  <score_type>  (48) 
oracle

>  <origin>  (48) 
adg

>  <m_score__min__energy>  (48) 
-15.029999999999999

>  <m_primary>  (48) 
energy

$$$$
48:0
     RDKit          3D

 64 67  0  0  0  0  0  0  0  0999 V2000
   55.9950   28.3570   44.1900 H   0  0  0  0  0  0  0  0  0  0  0  0
   55.9170   28.2750   45.1960 O   0  0  0  0  0  0  0  0  0  0  0  0
   56.1500   27.0540   45.8230 C   0  0  0  0  0  0  0  0  0  0  0  0
   55.2050   26.1180   46.0140 N   0  0  0  0  0  0  0  0  0  0  0  0
   55.8940   25.1120   46.5940 C   0  0  0  0  0  0  0  0  0  0  0  0
   55.3540   24.0280   46.9370 O   0  0  0  0  0  0  0  0  0  0  0  0
   57.2100   25.3570   46.7730 N   0  0  0  0  0  0  0  0  0  0  0  0
   57.3620   26.6070   46.2980 C   0  0  0  0  0  0  0  0  0  0  0  0
   58.6580   27.3060   46.2510 C   0  0  0  0  0  0  0  0  0  0  0  0
   59.4952   26.8157   45.7327 H   0  0  0  0  0  0  0  0  0  0  0  0
   58.8730   28.5140   46.8090 C   0  0  0  0  0  0  0  0  0  0  0  0
   58.8960   28.7920   48.1650 C   0  0  0  0  0  0  0  0  0  0  0  0
   58.7127   28.0828   48.9856 H   0  0  0  0  0  0  0  0  0  0  0  0
   59.1930   30.1290   48.2840 C   0  0  0  0  0  0  0  0  0  0  0  0
   59.2630   30.8420   49.5650 C   0  0  0  0  0  0  0  0  0  0  0  0
   58.3670   31.6940   49.8210 O   0  0  0  0  0  0  0  0  0  0  0  0
   60.3320   30.5960   50.5060 N   0  0  0  0  0  0  0  0  0  0  0  0
   61.3510   29.5680   50.2230 C   0  0  0  0  0  0  0  0  0  0  0  0
   60.8671   28.5802   50.2160 H   0  0  0  0  0  0  0  0  0  0  0  0
   61.8025   29.7958   49.2461 H   0  0  0  0  0  0  0  0  0  0  0  0
   62.4690   29.5650   51.2740 C   0  0  0  0  0  0  0  0  0  0  0  0
   62.1023   29.0833   52.1924 H   0  0  0  0  0  0  0  0  0  0  0  0
   63.3321   29.0109   50.8764 H   0  0  0  0  0  0  0  0  0  0  0  0
   62.8860   30.9450   51.5820 N   0  0  0  0  0  0  0  0  0  0  0  0
   64.2890   31.2880   51.6190 C   0  0  0  0  0  0  0  0  0  0  0  0
   65.0990   30.6680   50.8770 O   0  0  0  0  0  0  0  0  0  0  0  0
   64.8420   32.3240   52.5700 C   0  0  0  0  0  0  0  0  0  0  0  0
   64.0550   32.5637   53.3002 H   0  0  0  0  0  0  0  0  0  0  0  0
   65.7429   31.8705   53.0089 H   0  0  0  0  0  0  0  0  0  0  0  0
   65.3190   33.6640   51.9260 C   0  0  0  0  0  0  0  0  0  0  0  0
   65.9531   34.1242   52.6981 H   0  0  0  0  0  0  0  0  0  0  0  0
   64.1540   34.6160   51.6210 C   0  0  0  0  0  0  0  0  0  0  0  0
   63.7162   34.9738   52.5646 H   0  0  0  0  0  0  0  0  0  0  0  0
   64.5238   35.4737   51.0399 H   0  0  0  0  0  0  0  0  0  0  0  0
   63.3872   34.0827   51.0399 H   0  0  0  0  0  0  0  0  0  0  0  0
   66.2020   33.4840   50.6820 C   0  0  0  0  0  0  0  0  0  0  0  0
   67.2357   33.2733   50.9935 H   0  0  0  0  0  0  0  0  0  0  0  0
   65.8219   32.6449   50.0809 H   0  0  0  0  0  0  0  0  0  0  0  0
   66.1807   34.4050   50.0809 H   0  0  0  0  0  0  0  0  0  0  0  0
   61.8620   31.9780   51.8090 C   0  0  0  0  0  0  0  0  0  0  0  0
   62.0119   32.4159   52.8069 H   0  0  0  0  0  0  0  0  0  0  0  0
   61.9650   32.7423   51.0247 H   0  0  0  0  0  0  0  0  0  0  0  0
   60.4530   31.4000   51.7290 C   0  0  0  0  0  0  0  0  0  0  0  0
   60.2649   30.7650   52.6073 H   0  0  0  0  0  0  0  0  0  0  0  0
   59.7176   32.2178   51.7091 H   0  0  0  0  0  0  0  0  0  0  0  0
   59.3670   30.7010   47.0710 N   0  0  0  0  0  0  0  0  0  0  0  0
   59.6620   32.1260   46.8420 C   0  0  0  0  0  0  0  0  0  0  0  0
   59.6652   32.3246   45.7601 H   0  0  0  0  0  0  0  0  0  0  0  0
   58.8895   32.7310   47.3393 H   0  0  0  0  0  0  0  0  0  0  0  0
   61.0050   32.4910   47.4150 C   0  0  0  0  0  0  0  0  0  0  0  0
   61.1680   33.6810   48.1420 C   0  0  0  0  0  0  0  0  0  0  0  0
   60.3079   34.3477   48.3021 H   0  0  0  0  0  0  0  0  0  0  0  0
   62.4220   34.0220   48.6640 C   0  0  0  0  0  0  0  0  0  0  0  0
   62.5441   34.9557   49.2327 H   0  0  0  0  0  0  0  0  0  0  0  0
   63.5200   33.1780   48.4640 C   0  0  0  0  0  0  0  0  0  0  0  0
   64.5036   33.4472   48.8764 H   0  0  0  0  0  0  0  0  0  0  0  0
   63.3660   31.9930   47.7400 C   0  0  0  0  0  0  0  0  0  0  0  0
   64.2302   31.3319   47.5787 H   0  0  0  0  0  0  0  0  0  0  0  0
   62.1150   31.6460   47.2200 C   0  0  0  0  0  0  0  0  0  0  0  0
   61.9973   30.7089   46.6561 H   0  0  0  0  0  0  0  0  0  0  0  0
   59.1630   29.7170   46.1520 C   0  0  0  0  0  0  0  0  0  0  0  0
   59.2100   29.8960   44.8210 C   0  0  0  0  0  0  0  0  0  0  0  0
   59.4485   30.8870   44.4074 H   0  0  0  0  0  0  0  0  0  0  0  0
   59.0100   29.0515   44.1451 H   0  0  0  0  0  0  0  0  0  0  0  0
  1  2  1  0
  2  3  1  0
  3  4  1  0
  4  5  1  0
  5  6  2  0
  5  7  1  0
  7  8  1  0
  8  9  1  0
  9 10  1  0
  9 11  2  0
 11 12  1  0
 12 13  1  0
 12 14  2  0
 14 15  1  0
 15 16  2  0
 15 17  1  0
 17 18  1  0
 18 19  1  0
 18 20  1  0
 18 21  1  0
 21 22  1  0
 21 23  1  0
 21 24  1  0
 24 25  1  0
 25 26  2  0
 25 27  1  0
 27 28  1  0
 27 29  1  0
 27 30  1  0
 30 31  1  0
 30 32  1  0
 32 33  1  0
 32 34  1  0
 32 35  1  0
 30 36  1  0
 36 37  1  0
 36 38  1  0
 36 39  1  0
 24 40  1  0
 40 41  1  0
 40 42  1  0
 40 43  1  0
 43 44  1  0
 43 45  1  0
 14 46  1  0
 46 47  1  0
 47 48  1  0
 47 49  1  0
 47 50  1  0
 50 51  2  0
 51 52  1  0
 51 53  1  0
 53 54  1  0
 53 55  2  0
 55 56  1  0
 55 57  1  0
 57 58  1  0
 57 59  2  0
 59 60  1  0
 46 61  1  0
 61 62  2  0
 62 63  1  0
 62 64  1  0
  8  3  2  0
 61 11  1  0
 43 17  1  0
 59 50  1  0
M  CHG  2   4  -1   7  -1
M  END
>  <UniqueID>  (49) 
46

>  <SMILES>  (49) 
C=c1/c(=C/c2[n-]c(=O)[n-]c2O)cc(C(=O)N2CCN(C(=O)CC(C)C)CC2)n1Cc1ccccc1

>  <Energy>  (49) 
139.08470512015631

>  <Genealogy>  (49) 
C=c1c(=Cc2[n-]c(=O)[n-]c2O)cc(C(=O)N2CCN(C(=O)CC(C)C)CC2)n1Cc1ccccc1 (protonated)
C=c1/c(=C/c2[n-]c(=O)[n-]c2O)cc(C(=O)N2CCN(C(=O)CC(C)C)CC2)n1Cc1ccccc1 (cis-trans isomerization)
C=c1/c(=C/c2[n-]c(=O)[n-]c2O)cc(C(=O)N2CCN(C(=O)CC(C)C)CC2)n1Cc1ccccc1 (3D coordinates assigned)
C=c1/c(=C/c2[n-]c(=O)[n-]c2O)cc(C(=O)N2CCN(C(=O)CC(C)C)CC2)n1Cc1ccccc1 (nonaromatic ring conformer: 139.08470512015631 kcal/mol)

>  <smiles>  (49) 
C=c1c(=Cc2[nH]c(=O)[nH]c2O)cc(C(=O)N2CCN(C(=O)CC(C)C)CC2)n1Cc1ccccc1

>  <score_type>  (49) 
oracle

>  <origin>  (49) 
adg

>  <m_score__min__energy>  (49) 
-13.19

>  <m_primary>  (49) 
energy

$$$$
49:0
     RDKit          3D

 58 61  0  0  0  0  0  0  0  0999 V2000
   62.2990   30.8080   51.0920 C   0  0  0  0  0  0  0  0  0  0  0  0
   61.9160   29.6310   50.1940 C   0  0  0  0  0  0  0  0  0  0  0  0
   60.4910   29.7100   49.7020 C   0  0  0  0  0  0  0  0  0  0  0  0
   59.7710   30.6810   50.0600 O   0  0  0  0  0  0  0  0  0  0  0  0
   59.9380   28.7060   48.8180 N   0  0  0  0  0  0  0  0  0  0  0  0
   58.5150   28.8070   48.4460 C   0  0  0  0  0  0  0  0  0  0  0  0
   58.0280   27.5600   47.7020 C   0  0  0  0  0  0  0  0  0  0  0  0
   58.9730   27.2060   46.6360 N   0  0  0  0  0  0  0  0  0  0  0  0
   58.4880   26.8700   45.3200 C   0  0  0  0  0  0  0  0  0  0  0  0
   58.1390   25.5370   45.0370 C   0  0  0  0  0  0  0  0  0  0  0  0
   57.7640   25.1600   43.7460 C   0  0  0  0  0  0  0  0  0  0  0  0
   57.7410   26.1040   42.7200 C   0  0  0  0  0  0  0  0  0  0  0  0
   58.0770   27.4330   42.9850 C   0  0  0  0  0  0  0  0  0  0  0  0
   58.4310   27.8350   44.2800 C   0  0  0  0  0  0  0  0  0  0  0  0
   58.7330   29.2210   44.5100 N   0  0  0  0  0  0  0  0  0  0  0  0
   57.9810   30.0390   45.4200 C   0  0  0  0  0  0  0  0  0  0  0  0
   56.8600   29.6340   45.8380 O   0  0  0  0  0  0  0  0  0  0  0  0
   58.4700   31.3800   45.8330 C   0  0  0  0  0  0  0  0  0  0  0  0
   59.6940   31.4830   46.5220 C   0  0  0  0  0  0  0  0  0  0  0  0
   60.2040   32.7330   46.9120 C   0  0  0  0  0  0  0  0  0  0  0  0
   61.5010   32.8270   47.6230 C   0  0  0  0  0  0  0  0  0  0  0  0
   62.5170   31.8850   47.3770 C   0  0  0  0  0  0  0  0  0  0  0  0
   63.7380   31.9720   48.0500 C   0  0  0  0  0  0  0  0  0  0  0  0
   63.9630   33.0010   48.9690 C   0  0  0  0  0  0  0  0  0  0  0  0
   65.5010   33.1120   49.8030 Cl  0  0  0  0  0  0  0  0  0  0  0  0
   62.9610   33.9440   49.2180 C   0  0  0  0  0  0  0  0  0  0  0  0
   61.7360   33.8580   48.5510 C   0  0  0  0  0  0  0  0  0  0  0  0
   59.4720   33.8930   46.6120 C   0  0  0  0  0  0  0  0  0  0  0  0
   58.2600   33.8040   45.9280 C   0  0  0  0  0  0  0  0  0  0  0  0
   57.7600   32.5620   45.5270 C   0  0  0  0  0  0  0  0  0  0  0  0
   56.5710   32.5280   44.8050 O   0  0  0  0  0  0  0  0  0  0  0  0
   60.4210   27.2470   46.8910 C   0  0  0  0  0  0  0  0  0  0  0  0
   60.7250   27.5460   48.3630 C   0  0  0  0  0  0  0  0  0  0  0  0
   62.2024   30.5111   52.1468 H   0  0  0  0  0  0  0  0  0  0  0  0
   63.3391   31.1019   50.8876 H   0  0  0  0  0  0  0  0  0  0  0  0
   61.6310   31.6577   50.8876 H   0  0  0  0  0  0  0  0  0  0  0  0
   62.5883   29.6198   49.3234 H   0  0  0  0  0  0  0  0  0  0  0  0
   62.0091   28.7133   50.7932 H   0  0  0  0  0  0  0  0  0  0  0  0
   57.9166   28.9316   49.3605 H   0  0  0  0  0  0  0  0  0  0  0  0
   58.3991   29.6707   47.7748 H   0  0  0  0  0  0  0  0  0  0  0  0
   57.9482   26.7221   48.4102 H   0  0  0  0  0  0  0  0  0  0  0  0
   57.0445   27.7687   47.2558 H   0  0  0  0  0  0  0  0  0  0  0  0
   58.1617   24.7852   45.8397 H   0  0  0  0  0  0  0  0  0  0  0  0
   57.4862   24.1162   43.5379 H   0  0  0  0  0  0  0  0  0  0  0  0
   57.4579   25.8014   41.7010 H   0  0  0  0  0  0  0  0  0  0  0  0
   58.0637   28.1714   42.1697 H   0  0  0  0  0  0  0  0  0  0  0  0
   59.3340   29.7070   43.8090 H   0  0  0  0  0  0  0  0  0  0  0  0
   60.2601   30.5700   46.7587 H   0  0  0  0  0  0  0  0  0  0  0  0
   62.3489   31.0759   46.6510 H   0  0  0  0  0  0  0  0  0  0  0  0
   64.5250   31.2283   47.8561 H   0  0  0  0  0  0  0  0  0  0  0  0
   63.1373   34.7549   49.9401 H   0  0  0  0  0  0  0  0  0  0  0  0
   60.9505   34.6011   48.7528 H   0  0  0  0  0  0  0  0  0  0  0  0
   59.8565   34.8771   46.9181 H   0  0  0  0  0  0  0  0  0  0  0  0
   57.6927   34.7190   45.7022 H   0  0  0  0  0  0  0  0  0  0  0  0
   60.8580   26.2727   46.6267 H   0  0  0  0  0  0  0  0  0  0  0  0
   60.8561   28.0509   46.2791 H   0  0  0  0  0  0  0  0  0  0  0  0
   60.4655   26.6685   48.9734 H   0  0  0  0  0  0  0  0  0  0  0  0
   61.7959   27.7736   48.4701 H   0  0  0  0  0  0  0  0  0  0  0  0
  1  2  1  0
  2  3  1  0
  3  4  2  0
  3  5  1  0
  5  6  1  0
  6  7  1  0
  7  8  1  0
  8  9  1  0
  9 10  2  0
 10 11  1  0
 11 12  2  0
 12 13  1  0
 13 14  2  0
 14 15  1  0
 15 16  1  0
 16 17  2  0
 16 18  1  0
 18 19  2  0
 19 20  1  0
 20 21  1  0
 21 22  2  0
 22 23  1  0
 23 24  2  0
 24 25  1  0
 24 26  1  0
 26 27  2  0
 20 28  2  0
 28 29  1  0
 29 30  2  0
 30 31  1  0
  8 32  1  0
 32 33  1  0
 33  5  1  0
 14  9  1  0
 30 18  1  0
 27 21  1  0
  1 34  1  0
  1 35  1  0
  1 36  1  0
  2 37  1  0
  2 38  1  0
  6 39  1  0
  6 40  1  0
  7 41  1  0
  7 42  1  0
 10 43  1  0
 11 44  1  0
 12 45  1  0
 13 46  1  0
 15 47  1  0
 19 48  1  0
 22 49  1  0
 23 50  1  0
 26 51  1  0
 27 52  1  0
 28 53  1  0
 29 54  1  0
 32 55  1  0
 32 56  1  0
 33 57  1  0
 33 58  1  0
M  CHG  1  31  -1
M  END
>  <UniqueID>  (50) 
47

>  <SMILES>  (50) 
CCC(=O)N1CCN(c2ccccc2NC(=O)c2cc(-c3ccc(Cl)cc3)ccc2[O-])CC1

>  <Energy>  (50) 
78.53317508841167

>  <Genealogy>  (50) 
CCC(=O)N1CCN(c2ccccc2NC(=O)c2cc(-c3ccc(Cl)cc3)ccc2[O-])CC1 (protonated)
CCC(=O)N1CCN(c2ccccc2NC(=O)c2cc(-c3ccc(Cl)cc3)ccc2[O-])CC1 (3D coordinates assigned)
CCC(=O)N1CCN(c2ccccc2NC(=O)c2cc(-c3ccc(Cl)cc3)ccc2[O-])CC1 (nonaromatic ring conformer: 78.53317508841167 kcal/mol)

>  <smiles>  (50) 
CCC(=O)N1CCN(c2ccccc2NC(=O)c2cc(-c3ccc(Cl)cc3)ccc2O)CC1

>  <score_type>  (50) 
oracle

>  <origin>  (50) 
adg

>  <m_score__min__energy>  (50) 
-10.23

>  <m_primary>  (50) 
energy

$$$$
50:0
     RDKit          3D

 61 64  0  0  0  0  0  0  0  0999 V2000
   66.4790   32.2740   50.3910 C   0  0  0  0  0  0  0  0  0  0  0  0
   65.6960   33.3510   50.4770 C   0  0  0  0  0  0  0  0  0  0  0  0
   64.3420   33.4450   49.8800 C   0  0  0  0  0  0  0  0  0  0  0  0
   63.2610   34.0520   50.5460 C   0  0  0  0  0  0  0  0  0  0  0  0
   62.0030   34.1240   49.9380 C   0  0  0  0  0  0  0  0  0  0  0  0
   61.8040   33.6040   48.6490 C   0  0  0  0  0  0  0  0  0  0  0  0
   60.5060   33.6710   48.0240 N   0  0  0  0  0  0  0  0  0  0  0  0
   60.0900   34.8630   47.2770 C   0  0  0  0  0  0  0  0  0  0  0  0
   59.4950   34.4730   45.9070 C   0  0  0  0  0  0  0  0  0  0  0  0
   59.0400   33.0660   45.8560 N   0  0  0  0  0  0  0  0  0  0  0  0
   57.8900   32.8560   44.5610 S   0  0  0  0  0  0  0  0  0  0  0  0
   56.6420   33.6400   44.8550 O   0  0  0  0  0  0  0  0  0  0  0  0
   58.4740   33.3420   43.2620 O   0  0  0  0  0  0  0  0  0  0  0  0
   57.4680   31.1600   44.4150 C   0  0  0  0  0  0  0  0  0  0  0  0
   56.2240   30.6510   44.1110 C   0  0  0  0  0  0  0  0  0  0  0  0
   56.3030   29.3120   43.9900 N   0  0  0  0  0  0  0  0  0  0  0  0
   57.5920   28.9710   44.2110 C   0  0  0  0  0  0  0  0  0  0  0  0
   58.1310   27.5930   44.1360 C   0  0  0  0  0  0  0  0  0  0  0  0
   58.5290   27.1670   43.0150 O   0  0  0  0  0  0  0  0  0  0  0  0
   58.1470   26.7240   45.3030 N   0  0  0  0  0  0  0  0  0  0  0  0
   57.4870   27.3300   46.4900 C   0  0  0  0  0  0  0  0  0  0  0  0
   58.4600   28.1120   47.3990 C   0  0  0  0  0  0  0  0  0  0  0  0
   59.6190   28.5800   46.6240 N   0  0  0  0  0  0  0  0  0  0  0  0
   60.4560   29.4770   47.4340 C   0  0  0  0  0  0  0  0  0  0  0  0
   60.4150   27.4390   46.1250 C   0  0  0  0  0  0  0  0  0  0  0  0
   59.5230   26.2840   45.6120 C   0  0  0  0  0  0  0  0  0  0  0  0
   58.3460   30.1010   44.4760 C   0  0  0  0  0  0  0  0  0  0  0  0
   58.4440   32.6440   47.1320 C   0  0  0  0  0  0  0  0  0  0  0  0
   59.5440   32.5740   48.1970 C   0  0  0  0  0  0  0  0  0  0  0  0
   62.8830   33.0020   47.9840 C   0  0  0  0  0  0  0  0  0  0  0  0
   64.1400   32.9320   48.5900 C   0  0  0  0  0  0  0  0  0  0  0  0
   67.4737   32.2783   50.8605 H   0  0  0  0  0  0  0  0  0  0  0  0
   66.1297   31.3818   49.8506 H   0  0  0  0  0  0  0  0  0  0  0  0
   66.0791   34.2242   51.0254 H   0  0  0  0  0  0  0  0  0  0  0  0
   63.4062   34.4729   51.5519 H   0  0  0  0  0  0  0  0  0  0  0  0
   61.1636   34.5914   50.4737 H   0  0  0  0  0  0  0  0  0  0  0  0
   59.3303   35.4058   47.8585 H   0  0  0  0  0  0  0  0  0  0  0  0
   60.9717   35.4991   47.1097 H   0  0  0  0  0  0  0  0  0  0  0  0
   58.6358   35.1274   45.6984 H   0  0  0  0  0  0  0  0  0  0  0  0
   60.2906   34.5899   45.1564 H   0  0  0  0  0  0  0  0  0  0  0  0
   55.3076   31.2466   43.9864 H   0  0  0  0  0  0  0  0  0  0  0  0
   55.5090   28.6820   43.7480 H   0  0  0  0  0  0  0  0  0  0  0  0
   57.5870   25.8720   45.0640 H   0  0  0  0  0  0  0  0  0  0  0  0
   56.7054   28.0204   46.1400 H   0  0  0  0  0  0  0  0  0  0  0  0
   57.0744   26.5049   47.0892 H   0  0  0  0  0  0  0  0  0  0  0  0
   57.9371   28.9790   47.8290 H   0  0  0  0  0  0  0  0  0  0  0  0
   58.8116   27.4473   48.2018 H   0  0  0  0  0  0  0  0  0  0  0  0
   60.2749   29.2829   48.5015 H   0  0  0  0  0  0  0  0  0  0  0  0
   61.5163   29.2969   47.2033 H   0  0  0  0  0  0  0  0  0  0  0  0
   60.2030   30.5224   47.2033 H   0  0  0  0  0  0  0  0  0  0  0  0
   61.0537   27.7867   45.2997 H   0  0  0  0  0  0  0  0  0  0  0  0
   61.0163   27.0550   46.9622 H   0  0  0  0  0  0  0  0  0  0  0  0
   59.9740   25.8695   44.6983 H   0  0  0  0  0  0  0  0  0  0  0  0
   59.4607   25.5306   46.4111 H   0  0  0  0  0  0  0  0  0  0  0  0
   59.4239   30.1442   44.6909 H   0  0  0  0  0  0  0  0  0  0  0  0
   57.6782   33.3712   47.4399 H   0  0  0  0  0  0  0  0  0  0  0  0
   57.9763   31.6553   47.0150 H   0  0  0  0  0  0  0  0  0  0  0  0
   59.0861   32.6494   49.1943 H   0  0  0  0  0  0  0  0  0  0  0  0
   60.0766   31.6172   48.0925 H   0  0  0  0  0  0  0  0  0  0  0  0
   62.7381   32.5819   46.9778 H   0  0  0  0  0  0  0  0  0  0  0  0
   64.9797   32.4700   48.0502 H   0  0  0  0  0  0  0  0  0  0  0  0
  1  2  2  0
  2  3  1  0
  3  4  2  0
  4  5  1  0
  5  6  2  0
  6  7  1  0
  7  8  1  0
  8  9  1  0
  9 10  1  0
 10 11  1  0
 11 12  2  0
 11 13  2  0
 11 14  1  0
 14 15  2  0
 15 16  1  0
 16 17  1  0
 17 18  1  0
 18 19  2  0
 18 20  1  0
 20 21  1  0
 21 22  1  0
 22 23  1  0
 23 24  1  0
 23 25  1  0
 25 26  1  0
 17 27  2  0
 10 28  1  0
 28 29  1  0
  6 30  1  0
 30 31  2  0
 31  3  1  0
 29  7  1  0
 27 14  1  0
 26 20  1  0
  1 32  1  0
  1 33  1  0
  2 34  1  0
  4 35  1  0
  5 36  1  0
  8 37  1  0
  8 38  1  0
  9 39  1  0
  9 40  1  0
 15 41  1  0
 16 42  1  0
 20 43  1  0
 21 44  1  0
 21 45  1  0
 22 46  1  0
 22 47  1  0
 24 48  1  0
 24 49  1  0
 24 50  1  0
 25 51  1  0
 25 52  1  0
 26 53  1  0
 26 54  1  0
 27 55  1  0
 28 56  1  0
 28 57  1  0
 29 58  1  0
 29 59  1  0
 30 60  1  0
 31 61  1  0
M  CHG  1  20   1
M  END
>  <UniqueID>  (51) 
48

>  <SMILES>  (51) 
C=Cc1ccc(N2CCN(S(=O)(=O)c3c[nH]c(C(=O)[NH+]4CCN(C)CC4)c3)CC2)cc1

>  <Energy>  (51) 
109.96926322913662

>  <Genealogy>  (51) 
C=Cc1ccc(N2CCN(S(=O)(=O)c3c[nH]c(C(=O)[NH+]4CCN(C)CC4)c3)CC2)cc1 (protonated)
C=Cc1ccc(N2CCN(S(=O)(=O)c3c[nH]c(C(=O)[NH+]4CCN(C)CC4)c3)CC2)cc1 (3D coordinates assigned)
C=Cc1ccc(N2CCN(S(=O)(=O)c3c[nH]c(C(=O)[NH+]4CCN(C)CC4)c3)CC2)cc1 (nonaromatic ring conformer: 109.96926322913662 kcal/mol)

>  <smiles>  (51) 
C=Cc1ccc(N2CCN(S(=O)(=O)c3c[nH]c(C(=O)N4CCN(C)CC4)c3)CC2)cc1

>  <score_type>  (51) 
oracle

>  <origin>  (51) 
adg

>  <m_score__min__energy>  (51) 
-8.2799999999999994

>  <m_primary>  (51) 
energy

$$$$
51:0
     RDKit          3D

 51 54  0  0  0  0  0  0  0  0999 V2000
   57.0910   24.8620   43.7260 C   0  0  0  0  0  0  0  0  0  0  0  0
   57.2390   24.9030   45.2410 C   0  0  0  0  0  0  0  0  0  0  0  0
   56.6480   26.4580   45.9020 S   0  0  0  0  0  0  0  0  0  0  0  0
   55.1550   26.3750   46.0470 O   0  0  0  0  0  0  0  0  0  0  0  0
   57.2510   26.7240   47.2520 O   0  0  0  0  0  0  0  0  0  0  0  0
   57.0210   27.7660   44.8200 N   0  0  0  0  0  0  0  0  0  0  0  0
   56.5350   29.1090   44.9410 C   0  0  0  0  0  0  0  0  0  0  0  0
   55.3080   29.3270   44.7640 O   0  0  0  0  0  0  0  0  0  0  0  0
   57.4270   30.2390   45.2540 C   0  0  0  0  0  0  0  0  0  0  0  0
   58.7120   30.0120   45.7640 C   0  0  0  0  0  0  0  0  0  0  0  0
   59.4990   31.0980   46.1460 C   0  0  0  0  0  0  0  0  0  0  0  0
   59.0080   32.4090   46.0050 C   0  0  0  0  0  0  0  0  0  0  0  0
   59.7200   33.5330   46.4490 O   0  0  0  0  0  0  0  0  0  0  0  0
   61.1350   33.7120   46.3500 C   0  0  0  0  0  0  0  0  0  0  0  0
   61.8700   33.3230   47.6610 C   0  0  2  0  0  0  0  0  0  0  0  0
   61.1740   33.9760   48.8890 C   0  0  0  0  0  0  0  0  0  0  0  0
   61.9380   33.6180   50.1850 C   0  0  1  0  0  0  0  0  0  0  0  0
   61.9560   32.0850   50.3670 C   0  0  0  0  0  0  0  0  0  0  0  0
   62.6670   31.4300   49.1610 C   0  0  2  0  0  0  0  0  0  0  0  0
   64.1150   31.9550   49.0670 C   0  0  0  0  0  0  0  0  0  0  0  0
   64.0960   33.4880   48.8850 C   0  0  2  0  0  0  0  0  0  0  0  0
   63.3860   34.1430   50.0900 C   0  0  0  0  0  0  0  0  0  0  0  0
   63.3360   33.8400   47.5880 C   0  0  0  0  0  0  0  0  0  0  0  0
   61.9040   31.7800   47.8660 C   0  0  0  0  0  0  0  0  0  0  0  0
   57.7490   32.5910   45.4200 C   0  0  0  0  0  0  0  0  0  0  0  0
   57.0880   34.2000   45.1980 Cl  0  0  0  0  0  0  0  0  0  0  0  0
   56.9940   31.5140   45.0790 N   0  0  0  0  0  0  0  0  0  0  0  0
   56.0610   24.5767   43.4658 H   0  0  0  0  0  0  0  0  0  0  0  0
   57.3128   25.8554   43.3089 H   0  0  0  0  0  0  0  0  0  0  0  0
   57.7923   24.1243   43.3089 H   0  0  0  0  0  0  0  0  0  0  0  0
   56.6566   24.0804   45.6816 H   0  0  0  0  0  0  0  0  0  0  0  0
   58.3049   24.7983   45.4917 H   0  0  0  0  0  0  0  0  0  0  0  0
   59.0967   28.9862   45.8622 H   0  0  0  0  0  0  0  0  0  0  0  0
   60.5049   30.9295   46.5581 H   0  0  0  0  0  0  0  0  0  0  0  0
   61.5149   33.0832   45.5313 H   0  0  0  0  0  0  0  0  0  0  0  0
   61.3273   34.7781   46.1594 H   0  0  0  0  0  0  0  0  0  0  0  0
   61.1635   35.0687   48.7628 H   0  0  0  0  0  0  0  0  0  0  0  0
   60.1436   33.5979   48.9622 H   0  0  0  0  0  0  0  0  0  0  0  0
   61.4356   34.0822   51.0464 H   0  0  0  0  0  0  0  0  0  0  0  0
   62.4952   31.8321   51.2919 H   0  0  0  0  0  0  0  0  0  0  0  0
   60.9232   31.7116   50.4301 H   0  0  0  0  0  0  0  0  0  0  0  0
   62.6847   30.3381   49.2930 H   0  0  0  0  0  0  0  0  0  0  0  0
   64.6573   31.7021   49.9900 H   0  0  0  0  0  0  0  0  0  0  0  0
   64.6184   31.4899   48.2066 H   0  0  0  0  0  0  0  0  0  0  0  0
   65.1283   33.8625   48.8212 H   0  0  0  0  0  0  0  0  0  0  0  0
   63.9275   33.8930   51.0143 H   0  0  0  0  0  0  0  0  0  0  0  0
   63.3709   35.2347   49.9562 H   0  0  0  0  0  0  0  0  0  0  0  0
   63.3291   34.9322   47.4570 H   0  0  0  0  0  0  0  0  0  0  0  0
   63.8415   33.3604   46.7369 H   0  0  0  0  0  0  0  0  0  0  0  0
   62.4091   31.3108   47.0088 H   0  0  0  0  0  0  0  0  0  0  0  0
   60.8725   31.4061   47.9455 H   0  0  0  0  0  0  0  0  0  0  0  0
  1  2  1  0
  2  3  1  0
  3  4  2  0
  3  5  2  0
  3  6  1  0
  6  7  1  0
  7  8  2  0
  7  9  1  0
  9 10  2  0
 10 11  1  0
 11 12  2  0
 12 13  1  0
 13 14  1  0
 15 14  1  6
 15 16  1  0
 16 17  1  0
 17 18  1  0
 18 19  1  0
 19 20  1  0
 20 21  1  0
 21 22  1  0
 21 23  1  0
 19 24  1  0
 12 25  1  0
 25 26  1  0
 25 27  2  0
 27  9  1  0
 23 15  1  0
 24 15  1  0
 22 17  1  0
  1 28  1  0
  1 29  1  0
  1 30  1  0
  2 31  1  0
  2 32  1  0
 10 33  1  0
 11 34  1  0
 14 35  1  0
 14 36  1  0
 16 37  1  0
 16 38  1  0
 17 39  1  1
 18 40  1  0
 18 41  1  0
 19 42  1  1
 20 43  1  0
 20 44  1  0
 21 45  1  6
 22 46  1  0
 22 47  1  0
 23 48  1  0
 23 49  1  0
 24 50  1  0
 24 51  1  0
M  CHG  1   6  -1
M  END
>  <UniqueID>  (52) 
49

>  <SMILES>  (52) 
CCS(=O)(=O)[N-]C(=O)c1ccc(OCC23CC4CC(CC(C4)C2)C3)c(Cl)n1

>  <Energy>  (52) 
49.7178305276127

>  <Genealogy>  (52) 
CCS(=O)(=O)[N-]C(=O)c1ccc(OCC23CC4CC(CC(C4)C2)C3)c(Cl)n1 (protonated)
CCS(=O)(=O)[N-]C(=O)c1ccc(OCC23CC4CC(CC(C4)C2)C3)c(Cl)n1 (3D coordinates assigned)
CCS(=O)(=O)[N-]C(=O)c1ccc(OCC23CC4CC(CC(C4)C2)C3)c(Cl)n1 (nonaromatic ring conformer: 49.7178305276127 kcal/mol)

>  <smiles>  (52) 
CCS(=O)(=O)NC(=O)c1ccc(OCC23CC4CC(CC(C4)C2)C3)c(Cl)n1

>  <score_type>  (52) 
oracle

>  <origin>  (52) 
adg

>  <m_score__min__energy>  (52) 
-11.550000000000001

>  <m_primary>  (52) 
energy

$$$$
52:0
     RDKit          3D

 64 67  0  0  0  0  0  0  0  0999 V2000
   51.8060   30.8450   50.5570 C   0  0  0  0  0  0  0  0  0  0  0  0
   53.1800   31.1210   50.9580 N   0  0  0  0  0  0  0  0  0  0  0  0
   53.8810   30.2750   51.8800 C   0  0  0  0  0  0  0  0  0  0  0  0
   53.3040   29.2720   52.3790 O   0  0  0  0  0  0  0  0  0  0  0  0
   55.2730   30.5700   52.2500 C   0  0  0  0  0  0  0  0  0  0  0  0
   56.0230   29.8900   53.1940 C   0  0  0  0  0  0  0  0  0  0  0  0
   57.2430   30.5350   53.1850 C   0  0  0  0  0  0  0  0  0  0  0  0
   58.4270   30.1660   54.0250 C   0  0  0  0  0  0  0  0  0  0  0  0
   57.2030   31.5310   52.2730 N   0  0  0  0  0  0  0  0  0  0  0  0
   58.2640   32.4850   51.9490 C   0  0  0  0  0  0  0  0  0  0  0  0
   59.0070   32.0320   50.7200 C   0  0  0  0  0  0  0  0  0  0  0  0
   60.0440   31.0960   50.8180 C   0  0  0  0  0  0  0  0  0  0  0  0
   60.7160   30.6660   49.6730 C   0  0  0  0  0  0  0  0  0  0  0  0
   60.3600   31.1530   48.4030 C   0  0  0  0  0  0  0  0  0  0  0  0
   61.1150   30.6790   47.2180 C   0  0  0  0  0  0  0  0  0  0  0  0
   60.5990   29.8230   46.4490 O   0  0  0  0  0  0  0  0  0  0  0  0
   62.4300   31.1720   46.9530 N   0  0  0  0  0  0  0  0  0  0  0  0
   62.8600   32.8390   47.1270 S   0  0  0  0  0  0  0  0  0  0  0  0
   61.7930   33.7160   46.5360 O   0  0  0  0  0  0  0  0  0  0  0  0
   64.1450   33.0940   46.3930 O   0  0  0  0  0  0  0  0  0  0  0  0
   63.0670   33.1930   48.8370 C   0  0  0  0  0  0  0  0  0  0  0  0
   64.1580   32.6670   49.5420 C   0  0  0  0  0  0  0  0  0  0  0  0
   64.2760   32.8820   50.9180 C   0  0  0  0  0  0  0  0  0  0  0  0
   63.3090   33.6350   51.6030 C   0  0  0  0  0  0  0  0  0  0  0  0
   63.4020   33.8120   53.0900 C   0  0  0  0  0  0  0  0  0  0  0  0
   62.2120   34.1510   50.8970 C   0  0  0  0  0  0  0  0  0  0  0  0
   62.0960   33.9370   49.5200 C   0  0  0  0  0  0  0  0  0  0  0  0
   59.2860   32.0730   48.2980 C   0  0  0  0  0  0  0  0  0  0  0  0
   58.7580   32.5290   46.9920 C   0  0  0  0  0  0  0  0  0  0  0  0
   58.2280   31.5770   46.1070 C   0  0  0  0  0  0  0  0  0  0  0  0
   57.7190   31.9700   44.8680 C   0  0  0  0  0  0  0  0  0  0  0  0
   57.7460   33.3150   44.4970 C   0  0  0  0  0  0  0  0  0  0  0  0
   58.2850   34.2710   45.3610 C   0  0  0  0  0  0  0  0  0  0  0  0
   58.8010   33.8920   46.6120 C   0  0  0  0  0  0  0  0  0  0  0  0
   59.3590   34.9470   47.5300 C   0  0  0  0  0  0  0  0  0  0  0  0
   58.6360   32.5170   49.4590 C   0  0  0  0  0  0  0  0  0  0  0  0
   56.0070   31.5610   51.7050 N   0  0  0  0  0  0  0  0  0  0  0  0
   51.1807   30.7194   51.4532 H   0  0  0  0  0  0  0  0  0  0  0  0
   51.4234   31.6842   49.9576 H   0  0  0  0  0  0  0  0  0  0  0  0
   51.7771   29.9231   49.9576 H   0  0  0  0  0  0  0  0  0  0  0  0
   53.6540   31.9600   50.5580 H   0  0  0  0  0  0  0  0  0  0  0  0
   55.7167   29.0319   53.8103 H   0  0  0  0  0  0  0  0  0  0  0  0
   58.1616   30.2487   55.0893 H   0  0  0  0  0  0  0  0  0  0  0  0
   58.7272   29.1317   53.8013 H   0  0  0  0  0  0  0  0  0  0  0  0
   59.2617   30.8466   53.8013 H   0  0  0  0  0  0  0  0  0  0  0  0
   57.8200   33.4739   51.7623 H   0  0  0  0  0  0  0  0  0  0  0  0
   58.9661   32.5445   52.7937 H   0  0  0  0  0  0  0  0  0  0  0  0
   60.3303   30.6977   51.8026 H   0  0  0  0  0  0  0  0  0  0  0  0
   61.5345   29.9369   49.7652 H   0  0  0  0  0  0  0  0  0  0  0  0
   64.9240   32.0830   49.0107 H   0  0  0  0  0  0  0  0  0  0  0  0
   65.1305   32.4593   51.4668 H   0  0  0  0  0  0  0  0  0  0  0  0
   62.9466   32.9454   53.5916 H   0  0  0  0  0  0  0  0  0  0  0  0
   64.4588   33.8924   53.3843 H   0  0  0  0  0  0  0  0  0  0  0  0
   62.8687   34.7280   53.3843 H   0  0  0  0  0  0  0  0  0  0  0  0
   61.4399   34.7263   51.4288 H   0  0  0  0  0  0  0  0  0  0  0  0
   61.2391   34.3544   48.9709 H   0  0  0  0  0  0  0  0  0  0  0  0
   58.2137   30.5146   46.3916 H   0  0  0  0  0  0  0  0  0  0  0  0
   57.2965   31.2193   44.1839 H   0  0  0  0  0  0  0  0  0  0  0  0
   57.3417   33.6231   43.5215 H   0  0  0  0  0  0  0  0  0  0  0  0
   58.3057   35.3288   45.0599 H   0  0  0  0  0  0  0  0  0  0  0  0
   59.1993   34.6450   48.5756 H   0  0  0  0  0  0  0  0  0  0  0  0
   60.4366   35.0635   47.3425 H   0  0  0  0  0  0  0  0  0  0  0  0
   58.8488   35.9033   47.3425 H   0  0  0  0  0  0  0  0  0  0  0  0
   57.8246   33.2554   49.3784 H   0  0  0  0  0  0  0  0  0  0  0  0
  1  2  1  0
  2  3  1  0
  3  4  2  0
  3  5  1  0
  5  6  1  0
  6  7  2  0
  7  8  1  0
  7  9  1  0
  9 10  1  0
 10 11  1  0
 11 12  2  0
 12 13  1  0
 13 14  2  0
 14 15  1  0
 15 16  2  0
 15 17  1  0
 17 18  1  0
 18 19  2  0
 18 20  2  0
 18 21  1  0
 21 22  2  0
 22 23  1  0
 23 24  2  0
 24 25  1  0
 24 26  1  0
 26 27  2  0
 14 28  1  0
 28 29  1  0
 29 30  2  0
 30 31  1  0
 31 32  2  0
 32 33  1  0
 33 34  2  0
 34 35  1  0
 28 36  2  0
  9 37  1  0
 37  5  2  0
 36 11  1  0
 27 21  1  0
 34 29  1  0
  1 38  1  0
  1 39  1  0
  1 40  1  0
  2 41  1  0
  6 42  1  0
  8 43  1  0
  8 44  1  0
  8 45  1  0
 10 46  1  0
 10 47  1  0
 12 48  1  0
 13 49  1  0
 22 50  1  0
 23 51  1  0
 25 52  1  0
 25 53  1  0
 25 54  1  0
 26 55  1  0
 27 56  1  0
 30 57  1  0
 31 58  1  0
 32 59  1  0
 33 60  1  0
 35 61  1  0
 35 62  1  0
 35 63  1  0
 36 64  1  0
M  CHG  1  17  -1
M  END
>  <UniqueID>  (53) 
50

>  <SMILES>  (53) 
CNC(=O)c1cc(C)n(Cc2ccc(C(=O)[N-]S(=O)(=O)c3ccc(C)cc3)c(-c3ccccc3C)c2)n1

>  <Energy>  (53) 
100.1577934547134

>  <Genealogy>  (53) 
CNC(=O)c1cc(C)n(Cc2ccc(C(=O)[N-]S(=O)(=O)c3ccc(C)cc3)c(-c3ccccc3C)c2)n1 (protonated)
CNC(=O)c1cc(C)n(Cc2ccc(C(=O)[N-]S(=O)(=O)c3ccc(C)cc3)c(-c3ccccc3C)c2)n1 (3D coordinates assigned)
CNC(=O)c1cc(C)n(Cc2ccc(C(=O)[N-]S(=O)(=O)c3ccc(C)cc3)c(-c3ccccc3C)c2)n1 (optimized conformer: 100.1577934547134 kcal/mol)

>  <smiles>  (53) 
CNC(=O)c1cc(C)n(Cc2ccc(C(=O)NS(=O)(=O)c3ccc(C)cc3)c(-c3ccccc3C)c2)n1

>  <score_type>  (53) 
oracle

>  <origin>  (53) 
adg

>  <m_score__min__energy>  (53) 
-12.25

>  <m_primary>  (53) 
energy

$$$$
53:0
     RDKit          3D

 51 54  0  0  0  0  0  0  0  0999 V2000
   58.1710   34.3230   44.8890 C   0  0  0  0  0  0  0  0  0  0  0  0
   58.1540   32.8300   44.9790 C   0  0  0  0  0  0  0  0  0  0  0  0
   57.0750   32.0980   44.4450 C   0  0  0  0  0  0  0  0  0  0  0  0
   57.0350   30.6920   44.5630 C   0  0  0  0  0  0  0  0  0  0  0  0
   55.8200   29.9670   44.0560 C   0  0  0  0  0  0  0  0  0  0  0  0
   58.1310   30.0450   45.1880 C   0  0  0  0  0  0  0  0  0  0  0  0
   58.3730   28.6620   45.4090 C   0  0  0  0  0  0  0  0  0  0  0  0
   57.6080   27.5930   44.8350 N   0  0  0  0  0  0  0  0  0  0  0  0
   59.5440   28.4270   46.1520 C   0  0  0  0  0  0  0  0  0  0  0  0
   60.0440   27.1110   46.6010 C   0  0  0  0  0  0  0  0  0  0  0  0
   59.7120   26.0780   45.9630 O   0  0  0  0  0  0  0  0  0  0  0  0
   60.8970   26.9660   47.7430 N   0  0  0  0  0  0  0  0  0  0  0  0
   60.4620   27.0420   49.1310 C   0  0  0  0  0  0  0  0  0  0  0  0
   60.1420   28.4680   49.4750 C   0  0  0  0  0  0  0  0  0  0  0  0
   58.8560   28.9790   49.2470 C   0  0  0  0  0  0  0  0  0  0  0  0
   58.5490   30.2980   49.5920 C   0  0  0  0  0  0  0  0  0  0  0  0
   59.5210   31.1270   50.1830 C   0  0  0  0  0  0  0  0  0  0  0  0
   59.1960   32.5280   50.5430 C   0  0  0  0  0  0  0  0  0  0  0  0
   58.1380   32.7820   51.1800 O   0  0  0  0  0  0  0  0  0  0  0  0
   60.1100   33.5830   50.2130 N   0  0  0  0  0  0  0  0  0  0  0  0
   61.0300   33.6130   49.1110 C   0  0  0  0  0  0  0  0  0  0  0  0
   60.6050   33.8340   47.7860 C   0  0  0  0  0  0  0  0  0  0  0  0
   61.5340   33.8290   46.7400 C   0  0  0  0  0  0  0  0  0  0  0  0
   62.8850   33.5880   47.0020 C   0  0  0  0  0  0  0  0  0  0  0  0
   63.7810   33.5820   45.9840 F   0  0  0  0  0  0  0  0  0  0  0  0
   63.3100   33.3430   48.3120 C   0  0  0  0  0  0  0  0  0  0  0  0
   64.6200   33.0990   48.5670 F   0  0  0  0  0  0  0  0  0  0  0  0
   62.3840   33.3480   49.3600 C   0  0  0  0  0  0  0  0  0  0  0  0
   60.8040   30.6050   50.4250 C   0  0  0  0  0  0  0  0  0  0  0  0
   61.1090   29.2850   50.0810 C   0  0  0  0  0  0  0  0  0  0  0  0
   60.2890   29.9000   46.5070 S   0  0  0  0  0  0  0  0  0  0  0  0
   59.1400   30.8330   45.7290 C   0  0  0  0  0  0  0  0  0  0  0  0
   59.1560   32.1830   45.6320 N   0  0  0  0  0  0  0  0  0  0  0  0
   58.1759   34.7514   45.9022 H   0  0  0  0  0  0  0  0  0  0  0  0
   59.0729   34.6476   44.3493 H   0  0  0  0  0  0  0  0  0  0  0  0
   57.2767   34.6680   44.3493 H   0  0  0  0  0  0  0  0  0  0  0  0
   56.2576   32.6262   43.9323 H   0  0  0  0  0  0  0  0  0  0  0  0
   55.2232   29.6109   44.9086 H   0  0  0  0  0  0  0  0  0  0  0  0
   55.2136   30.6510   43.4442 H   0  0  0  0  0  0  0  0  0  0  0  0
   56.1340   29.1085   43.4442 H   0  0  0  0  0  0  0  0  0  0  0  0
   57.9000   26.5990   44.9350 H   0  0  0  0  0  0  0  0  0  0  0  0
   56.6310   27.7490   44.5030 H   0  0  0  0  0  0  0  0  0  0  0  0
   59.5648   26.4208   49.2691 H   0  0  0  0  0  0  0  0  0  0  0  0
   61.2644   26.6762   49.7885 H   0  0  0  0  0  0  0  0  0  0  0  0
   58.0850   28.3383   48.7943 H   0  0  0  0  0  0  0  0  0  0  0  0
   57.5398   30.6914   49.4002 H   0  0  0  0  0  0  0  0  0  0  0  0
   59.5403   34.0109   47.5735 H   0  0  0  0  0  0  0  0  0  0  0  0
   61.1999   34.0153   45.7087 H   0  0  0  0  0  0  0  0  0  0  0  0
   62.7204   33.1426   50.3870 H   0  0  0  0  0  0  0  0  0  0  0  0
   61.5733   31.2401   50.8884 H   0  0  0  0  0  0  0  0  0  0  0  0
   62.1126   28.8843   50.2864 H   0  0  0  0  0  0  0  0  0  0  0  0
  1  2  1  0
  2  3  2  0
  3  4  1  0
  4  5  1  0
  4  6  2  0
  6  7  1  0
  7  8  1  0
  7  9  2  0
  9 10  1  0
 10 11  2  0
 10 12  1  0
 12 13  1  0
 13 14  1  0
 14 15  2  0
 15 16  1  0
 16 17  2  0
 17 18  1  0
 18 19  2  0
 18 20  1  0
 20 21  1  0
 21 22  2  0
 22 23  1  0
 23 24  2  0
 24 25  1  0
 24 26  1  0
 26 27  1  0
 26 28  2  0
 17 29  1  0
 29 30  2  0
  9 31  1  0
 31 32  1  0
 32 33  2  0
 33  2  1  0
 32  6  1  0
 30 14  1  0
 28 21  1  0
  1 34  1  0
  1 35  1  0
  1 36  1  0
  3 37  1  0
  5 38  1  0
  5 39  1  0
  5 40  1  0
  8 41  1  0
  8 42  1  0
 13 43  1  0
 13 44  1  0
 15 45  1  0
 16 46  1  0
 22 47  1  0
 23 48  1  0
 28 49  1  0
 29 50  1  0
 30 51  1  0
M  CHG  2  12  -1  20  -1
M  END
>  <UniqueID>  (54) 
51

>  <SMILES>  (54) 
Cc1cc(C)c2c(N)c(C(=O)[N-]Cc3ccc(C(=O)[N-]c4ccc(F)c(F)c4)cc3)sc2n1

>  <Energy>  (54) 
99.95331962298806

>  <Genealogy>  (54) 
Cc1cc(C)c2c(N)c(C(=O)[N-]Cc3ccc(C(=O)[N-]c4ccc(F)c(F)c4)cc3)sc2n1 (protonated)
Cc1cc(C)c2c(N)c(C(=O)[N-]Cc3ccc(C(=O)[N-]c4ccc(F)c(F)c4)cc3)sc2n1 (3D coordinates assigned)
Cc1cc(C)c2c(N)c(C(=O)[N-]Cc3ccc(C(=O)[N-]c4ccc(F)c(F)c4)cc3)sc2n1 (optimized conformer: 99.95331962298806 kcal/mol)

>  <smiles>  (54) 
Cc1cc(C)c2c(N)c(C(=O)NCc3ccc(C(=O)Nc4ccc(F)c(F)c4)cc3)sc2n1

>  <score_type>  (54) 
oracle

>  <origin>  (54) 
adg

>  <m_score__min__energy>  (54) 
-11.06

>  <m_primary>  (54) 
energy

$$$$
54:0
     RDKit          3D

 57 60  0  0  0  0  0  0  0  0999 V2000
   56.5960   23.5270   43.0860 C   0  0  0  0  0  0  0  0  0  0  0  0
   56.7390   22.6790   44.3190 C   0  0  0  0  0  0  0  0  0  0  0  0
   57.6280   21.5910   44.3240 C   0  0  0  0  0  0  0  0  0  0  0  0
   57.7710   20.8000   45.4660 C   0  0  0  0  0  0  0  0  0  0  0  0
   57.0370   21.0920   46.6160 C   0  0  0  0  0  0  0  0  0  0  0  0
   56.1520   22.1720   46.6250 C   0  0  0  0  0  0  0  0  0  0  0  0
   55.9760   22.9600   45.4730 C   0  0  0  0  0  0  0  0  0  0  0  0
   55.0930   24.0910   45.4820 N   0  0  0  0  0  0  0  0  0  0  0  0
   55.4630   25.4440   45.7720 C   0  0  0  0  0  0  0  0  0  0  0  0
   54.5520   26.2840   45.9960 O   0  0  0  0  0  0  0  0  0  0  0  0
   56.8460   25.8330   45.8340 N   0  0  0  0  0  0  0  0  0  0  0  0
   57.2920   27.1790   46.0660 C   0  0  0  0  0  0  0  0  0  0  0  0
   56.8060   28.2120   45.2530 C   0  0  0  0  0  0  0  0  0  0  0  0
   57.2340   29.5280   45.4460 C   0  0  0  0  0  0  0  0  0  0  0  0
   58.1720   29.8290   46.4450 C   0  0  0  0  0  0  0  0  0  0  0  0
   58.6100   31.1880   46.6380 N   0  0  0  0  0  0  0  0  0  0  0  0
   59.4080   31.5340   47.8130 C   0  0  0  0  0  0  0  0  0  0  0  0
   59.0340   32.9330   48.3130 C   0  0  0  0  0  0  0  0  0  0  0  0
   58.9830   33.9350   47.2290 N   0  0  0  0  0  0  0  0  0  0  0  0
   60.1890   34.7660   47.0300 C   0  0  0  0  0  0  0  0  0  0  0  0
   61.4580   34.1300   47.5390 C   0  0  0  0  0  0  0  0  0  0  0  0
   61.8030   34.2210   48.8980 C   0  0  0  0  0  0  0  0  0  0  0  0
   62.9860   33.6400   49.3650 C   0  0  0  0  0  0  0  0  0  0  0  0
   63.8410   32.9810   48.4790 C   0  0  0  0  0  0  0  0  0  0  0  0
   63.5180   32.9070   47.1220 C   0  0  0  0  0  0  0  0  0  0  0  0
   62.3360   33.4860   46.6510 C   0  0  0  0  0  0  0  0  0  0  0  0
   58.2400   33.5350   46.0170 C   0  0  0  0  0  0  0  0  0  0  0  0
   58.6140   32.1330   45.5220 C   0  0  0  0  0  0  0  0  0  0  0  0
   58.6820   28.7910   47.2420 C   0  0  0  0  0  0  0  0  0  0  0  0
   58.2500   27.4750   47.0510 C   0  0  0  0  0  0  0  0  0  0  0  0
   56.4197   24.5726   43.3785 H   0  0  0  0  0  0  0  0  0  0  0  0
   57.5175   23.4638   42.4886 H   0  0  0  0  0  0  0  0  0  0  0  0
   55.7462   23.1651   42.4886 H   0  0  0  0  0  0  0  0  0  0  0  0
   58.2151   21.3608   43.4227 H   0  0  0  0  0  0  0  0  0  0  0  0
   58.4635   19.9453   45.4588 H   0  0  0  0  0  0  0  0  0  0  0  0
   57.1556   20.4710   47.5162 H   0  0  0  0  0  0  0  0  0  0  0  0
   55.5883   22.4084   47.5395 H   0  0  0  0  0  0  0  0  0  0  0  0
   57.5770   25.1170   45.6260 H   0  0  0  0  0  0  0  0  0  0  0  0
   56.0819   27.9849   44.4567 H   0  0  0  0  0  0  0  0  0  0  0  0
   56.8334   30.3322   44.8114 H   0  0  0  0  0  0  0  0  0  0  0  0
   59.2180   30.8003   48.6102 H   0  0  0  0  0  0  0  0  0  0  0  0
   60.4733   31.5235   47.5393 H   0  0  0  0  0  0  0  0  0  0  0  0
   58.0447   32.8822   48.7911 H   0  0  0  0  0  0  0  0  0  0  0  0
   59.8141   33.2507   49.0205 H   0  0  0  0  0  0  0  0  0  0  0  0
   60.3047   34.9567   45.9529 H   0  0  0  0  0  0  0  0  0  0  0  0
   60.0399   35.6900   47.6080 H   0  0  0  0  0  0  0  0  0  0  0  0
   61.1399   34.7514   49.5973 H   0  0  0  0  0  0  0  0  0  0  0  0
   63.2438   33.7021   50.4326 H   0  0  0  0  0  0  0  0  0  0  0  0
   64.7686   32.5203   48.8496 H   0  0  0  0  0  0  0  0  0  0  0  0
   64.1943   32.3927   46.4234 H   0  0  0  0  0  0  0  0  0  0  0  0
   62.0920   33.4372   45.5795 H   0  0  0  0  0  0  0  0  0  0  0  0
   57.1638   33.5513   46.2440 H   0  0  0  0  0  0  0  0  0  0  0  0
   58.5018   34.2466   45.2201 H   0  0  0  0  0  0  0  0  0  0  0  0
   57.8837   31.8071   44.7667 H   0  0  0  0  0  0  0  0  0  0  0  0
   59.6210   32.1640   45.0803 H   0  0  0  0  0  0  0  0  0  0  0  0
   59.4257   29.0147   48.0210 H   0  0  0  0  0  0  0  0  0  0  0  0
   58.6617   26.6677   47.6744 H   0  0  0  0  0  0  0  0  0  0  0  0
  1  2  1  0
  2  3  2  0
  3  4  1  0
  4  5  2  0
  5  6  1  0
  6  7  2  0
  7  8  1  0
  8  9  1  0
  9 10  2  0
  9 11  1  0
 11 12  1  0
 12 13  2  0
 13 14  1  0
 14 15  2  0
 15 16  1  0
 16 17  1  0
 17 18  1  0
 18 19  1  0
 19 20  1  0
 20 21  1  0
 21 22  2  0
 22 23  1  0
 23 24  2  0
 24 25  1  0
 25 26  2  0
 19 27  1  0
 27 28  1  0
 15 29  1  0
 29 30  2  0
  7  2  1  0
 30 12  1  0
 28 16  1  0
 26 21  1  0
  1 31  1  0
  1 32  1  0
  1 33  1  0
  3 34  1  0
  4 35  1  0
  5 36  1  0
  6 37  1  0
 11 38  1  0
 13 39  1  0
 14 40  1  0
 17 41  1  0
 17 42  1  0
 18 43  1  0
 18 44  1  0
 20 45  1  0
 20 46  1  0
 22 47  1  0
 23 48  1  0
 24 49  1  0
 25 50  1  0
 26 51  1  0
 27 52  1  0
 27 53  1  0
 28 54  1  0
 28 55  1  0
 29 56  1  0
 30 57  1  0
M  CHG  1   8  -1
M  END
>  <UniqueID>  (55) 
52

>  <SMILES>  (55) 
Cc1ccccc1[N-]C(=O)Nc1ccc(N2CCN(Cc3ccccc3)CC2)cc1

>  <Energy>  (55) 
81.0715971167452

>  <Genealogy>  (55) 
Cc1ccccc1[N-]C(=O)Nc1ccc(N2CCN(Cc3ccccc3)CC2)cc1 (protonated)
Cc1ccccc1[N-]C(=O)Nc1ccc(N2CCN(Cc3ccccc3)CC2)cc1 (3D coordinates assigned)
Cc1ccccc1[N-]C(=O)Nc1ccc(N2CCN(Cc3ccccc3)CC2)cc1 (nonaromatic ring conformer: 81.0715971167452 kcal/mol)

>  <smiles>  (55) 
Cc1ccccc1NC(=O)Nc1ccc(N2CCN(Cc3ccccc3)CC2)cc1

>  <score_type>  (55) 
oracle

>  <origin>  (55) 
adg

>  <m_score__min__energy>  (55) 
-10.82

>  <m_primary>  (55) 
energy

$$$$
55:0
     RDKit          3D

 51 54  0  0  0  0  0  0  0  0999 V2000
   56.4660   22.4520   47.9350 H   0  0  0  0  0  0  0  0  0  0  0  0
   57.3040   22.9100   47.5980 O   0  0  0  0  0  0  0  0  0  0  0  0
   57.2450   24.1200   46.9090 C   0  0  0  0  0  0  0  0  0  0  0  0
   58.4080   24.6470   46.3390 C   0  0  0  0  0  0  0  0  0  0  0  0
   59.3611   24.1071   46.4393 H   0  0  0  0  0  0  0  0  0  0  0  0
   58.3630   25.8580   45.6420 C   0  0  0  0  0  0  0  0  0  0  0  0
   59.2839   26.2745   45.2078 H   0  0  0  0  0  0  0  0  0  0  0  0
   57.1490   26.5440   45.4940 C   0  0  0  0  0  0  0  0  0  0  0  0
   57.1340   27.8380   44.7840 C   0  0  0  0  0  0  0  0  0  0  0  0
   56.6441   27.8623   43.7994 H   0  0  0  0  0  0  0  0  0  0  0  0
   57.6670   28.9950   45.2330 C   0  0  0  0  0  0  0  0  0  0  0  0
   58.3580   28.9440   46.3980 N   0  0  0  0  0  0  0  0  0  0  0  0
   58.9290   30.0370   46.9560 C   0  0  0  0  0  0  0  0  0  0  0  0
   59.5560   29.9070   48.0430 O   0  0  0  0  0  0  0  0  0  0  0  0
   58.8280   31.2590   46.3490 N   0  0  0  0  0  0  0  0  0  0  0  0
   59.4460   32.3920   46.9930 C   0  0  0  0  0  0  0  0  0  0  0  0
   58.6590   33.4520   47.4620 C   0  0  0  0  0  0  0  0  0  0  0  0
   57.5669   33.4239   47.3337 H   0  0  0  0  0  0  0  0  0  0  0  0
   59.2590   34.5440   48.0920 C   0  0  0  0  0  0  0  0  0  0  0  0
   58.6380   35.3723   48.4640 H   0  0  0  0  0  0  0  0  0  0  0  0
   60.6470   34.5870   48.2510 C   0  0  0  0  0  0  0  0  0  0  0  0
   61.1130   35.4453   48.7571 H   0  0  0  0  0  0  0  0  0  0  0  0
   61.4510   33.5400   47.7680 C   0  0  0  0  0  0  0  0  0  0  0  0
   62.9210   33.5710   47.9430 C   0  0  0  0  0  0  0  0  0  0  0  0
   63.6490   33.8080   46.9400 O   0  0  0  0  0  0  0  0  0  0  0  0
   63.5380   33.3550   49.2270 N   0  0  0  0  0  0  0  0  0  0  0  0
   64.7930   32.6040   49.3340 C   0  0  0  0  0  0  0  0  0  0  0  0
   64.5773   31.5731   49.6514 H   0  0  0  0  0  0  0  0  0  0  0  0
   65.2956   32.5894   48.3556 H   0  0  0  0  0  0  0  0  0  0  0  0
   65.7040   33.2750   50.3650 C   0  0  0  0  0  0  0  0  0  0  0  0
   66.5846   32.6383   50.5360 H   0  0  0  0  0  0  0  0  0  0  0  0
   66.0098   34.2577   49.9768 H   0  0  0  0  0  0  0  0  0  0  0  0
   65.0250   33.4650   51.5910 O   0  0  0  0  0  0  0  0  0  0  0  0
   63.9560   34.3760   51.4100 C   0  0  0  0  0  0  0  0  0  0  0  0
   63.4950   34.5889   52.3858 H   0  0  0  0  0  0  0  0  0  0  0  0
   64.3528   35.2995   50.9631 H   0  0  0  0  0  0  0  0  0  0  0  0
   62.8960   33.7940   50.4710 C   0  0  0  0  0  0  0  0  0  0  0  0
   62.4078   32.9354   50.9553 H   0  0  0  0  0  0  0  0  0  0  0  0
   62.1422   34.5626   50.2451 H   0  0  0  0  0  0  0  0  0  0  0  0
   60.8390   32.4360   47.1510 C   0  0  0  0  0  0  0  0  0  0  0  0
   61.4565   31.6005   46.7894 H   0  0  0  0  0  0  0  0  0  0  0  0
   58.1510   31.3840   45.1530 C   0  0  0  0  0  0  0  0  0  0  0  0
   58.0350   32.5810   44.5360 C   0  0  0  0  0  0  0  0  0  0  0  0
   58.4842   33.4781   44.9870 H   0  0  0  0  0  0  0  0  0  0  0  0
   57.4914   32.6581   43.5828 H   0  0  0  0  0  0  0  0  0  0  0  0
   57.5680   30.2360   44.5620 C   0  0  0  0  0  0  0  0  0  0  0  0
   56.9930   30.3240   43.4410 O   0  0  0  0  0  0  0  0  0  0  0  0
   55.9840   26.0260   46.0900 C   0  0  0  0  0  0  0  0  0  0  0  0
   54.7770   26.7130   45.9980 O   0  0  0  0  0  0  0  0  0  0  0  0
   56.0330   24.8130   46.7860 C   0  0  0  0  0  0  0  0  0  0  0  0
   55.1180   24.4023   47.2377 H   0  0  0  0  0  0  0  0  0  0  0  0
  1  2  1  0
  2  3  1  0
  3  4  2  0
  4  5  1  0
  4  6  1  0
  6  7  1  0
  6  8  2  0
  8  9  1  0
  9 10  1  0
  9 11  2  0
 11 12  1  0
 12 13  1  0
 13 14  2  0
 13 15  1  0
 15 16  1  0
 16 17  2  0
 17 18  1  0
 17 19  1  0
 19 20  1  0
 19 21  2  0
 21 22  1  0
 21 23  1  0
 23 24  1  0
 24 25  2  0
 24 26  1  0
 26 27  1  0
 27 28  1  0
 27 29  1  0
 27 30  1  0
 30 31  1  0
 30 32  1  0
 30 33  1  0
 33 34  1  0
 34 35  1  0
 34 36  1  0
 34 37  1  0
 37 38  1  0
 37 39  1  0
 23 40  2  0
 40 41  1  0
 15 42  1  0
 42 43  2  0
 43 44  1  0
 43 45  1  0
 42 46  1  0
 46 47  2  0
  8 48  1  0
 48 49  1  0
 48 50  2  0
 50 51  1  0
 50  3  1  0
 46 11  1  0
 40 16  1  0
 37 26  1  0
M  CHG  2  12  -1  49  -1
M  END
>  <UniqueID>  (56) 
53

>  <SMILES>  (56) 
C=c1c(=O)/c(=C\c2ccc(O)cc2[O-])[n-]c(=O)n1-c1cccc(C(=O)N2CCOCC2)c1

>  <Energy>  (56) 
90.36009500271156

>  <Genealogy>  (56) 
C=c1c(=O)c(=Cc2ccc(O)cc2[O-])[n-]c(=O)n1-c1cccc(C(=O)N2CCOCC2)c1 (protonated)
C=c1c(=O)/c(=C\c2ccc(O)cc2[O-])[n-]c(=O)n1-c1cccc(C(=O)N2CCOCC2)c1 (cis-trans isomerization)
C=c1c(=O)/c(=C\c2ccc(O)cc2[O-])[n-]c(=O)n1-c1cccc(C(=O)N2CCOCC2)c1 (3D coordinates assigned)
C=c1c(=O)/c(=C\c2ccc(O)cc2[O-])[n-]c(=O)n1-c1cccc(C(=O)N2CCOCC2)c1 (nonaromatic ring conformer: 90.36009500271156 kcal/mol)

>  <smiles>  (56) 
C=c1c(=O)c(=Cc2ccc(O)cc2O)[nH]c(=O)n1-c1cccc(C(=O)N2CCOCC2)c1

>  <score_type>  (56) 
oracle

>  <origin>  (56) 
adg

>  <m_score__min__energy>  (56) 
-14.93

>  <m_primary>  (56) 
energy

$$$$
56:0
     RDKit          3D

 46 48  0  0  0  0  0  0  0  0999 V2000
   55.1430   29.0540   44.5360 O   0  0  0  0  0  0  0  0  0  0  0  0
   56.2380   29.4250   45.0350 C   0  0  0  0  0  0  0  0  0  0  0  0
   57.0200   28.4780   45.9090 C   0  0  0  0  0  0  0  0  0  0  0  0
   56.6840   27.0820   45.6040 N   0  0  0  0  0  0  0  0  0  0  0  0
   55.4680   26.6310   45.9260 N   0  0  0  0  0  0  0  0  0  0  0  0
   55.0860   25.3590   45.6530 C   0  0  0  0  0  0  0  0  0  0  0  0
   53.9330   24.9630   45.9730 O   0  0  0  0  0  0  0  0  0  0  0  0
   55.9900   24.5070   45.0170 C   0  0  0  0  0  0  0  0  0  0  0  0
   55.6770   23.3170   44.7460 O   0  0  0  0  0  0  0  0  0  0  0  0
   57.2180   24.9750   44.6870 N   0  0  0  0  0  0  0  0  0  0  0  0
   57.5740   26.2540   44.9710 C   0  0  0  0  0  0  0  0  0  0  0  0
   58.7200   26.6650   44.6430 O   0  0  0  0  0  0  0  0  0  0  0  0
   56.6760   30.7700   44.8120 N   0  0  0  0  0  0  0  0  0  0  0  0
   58.0680   31.1620   44.6260 C   0  0  0  0  0  0  0  0  0  0  0  0
   58.6330   31.6230   45.9380 C   0  0  0  0  0  0  0  0  0  0  0  0
   59.3550   30.7340   46.7490 C   0  0  0  0  0  0  0  0  0  0  0  0
   59.8550   31.1550   47.9850 C   0  0  0  0  0  0  0  0  0  0  0  0
   59.6230   32.4620   48.4310 C   0  0  0  0  0  0  0  0  0  0  0  0
   60.2790   32.9880   49.9800 S   0  0  0  0  0  0  0  0  0  0  0  0
   60.0790   31.8900   50.9880 O   0  0  0  0  0  0  0  0  0  0  0  0
   59.5490   34.2140   50.4550 O   0  0  0  0  0  0  0  0  0  0  0  0
   61.9840   33.3340   49.8170 N   0  0  0  0  0  0  0  0  0  0  0  0
   62.7490   32.0710   49.7350 C   0  0  0  0  0  0  0  0  0  0  0  0
   64.1130   32.3010   49.0630 C   0  0  0  0  0  0  0  0  0  0  0  0
   64.0310   32.8100   47.7370 O   0  0  0  0  0  0  0  0  0  0  0  0
   62.8080   33.4740   47.4540 C   0  0  0  0  0  0  0  0  0  0  0  0
   62.2370   34.2350   48.6630 C   0  0  0  0  0  0  0  0  0  0  0  0
   58.8930   33.3490   47.6280 C   0  0  0  0  0  0  0  0  0  0  0  0
   58.3950   32.9300   46.3910 C   0  0  0  0  0  0  0  0  0  0  0  0
   58.0952   28.6350   45.7375 H   0  0  0  0  0  0  0  0  0  0  0  0
   56.7641   28.6786   46.9599 H   0  0  0  0  0  0  0  0  0  0  0  0
   58.6463   30.3012   44.2590 H   0  0  0  0  0  0  0  0  0  0  0  0
   58.1258   31.9795   43.8923 H   0  0  0  0  0  0  0  0  0  0  0  0
   59.5283   29.7017   46.4109 H   0  0  0  0  0  0  0  0  0  0  0  0
   60.4325   30.4572   48.6091 H   0  0  0  0  0  0  0  0  0  0  0  0
   62.2740   33.8350   50.6910 H   0  0  0  0  0  0  0  0  0  0  0  0
   62.9088   31.6796   50.7505 H   0  0  0  0  0  0  0  0  0  0  0  0
   62.1763   31.3505   49.1325 H   0  0  0  0  0  0  0  0  0  0  0  0
   64.6818   33.0180   49.6733 H   0  0  0  0  0  0  0  0  0  0  0  0
   64.6017   31.3179   48.9947 H   0  0  0  0  0  0  0  0  0  0  0  0
   62.9807   34.1921   46.6388 H   0  0  0  0  0  0  0  0  0  0  0  0
   62.0741   32.7028   47.1772 H   0  0  0  0  0  0  0  0  0  0  0  0
   62.9565   35.0093   48.9677 H   0  0  0  0  0  0  0  0  0  0  0  0
   61.2774   34.6808   48.3624 H   0  0  0  0  0  0  0  0  0  0  0  0
   58.7115   34.3778   47.9723 H   0  0  0  0  0  0  0  0  0  0  0  0
   57.8140   33.6276   45.7698 H   0  0  0  0  0  0  0  0  0  0  0  0
  1  2  2  0
  2  3  1  0
  3  4  1  0
  4  5  1  0
  5  6  1  0
  6  7  2  0
  6  8  1  0
  8  9  2  0
  8 10  1  0
 10 11  1  0
 11 12  2  0
  2 13  1  0
 13 14  1  0
 14 15  1  0
 15 16  2  0
 16 17  1  0
 17 18  2  0
 18 19  1  0
 19 20  2  0
 19 21  2  0
 19 22  1  0
 22 23  1  0
 23 24  1  0
 24 25  1  0
 25 26  1  0
 26 27  1  0
 18 28  1  0
 28 29  2  0
 11  4  1  0
 29 15  1  0
 27 22  1  0
  3 30  1  0
  3 31  1  0
 14 32  1  0
 14 33  1  0
 16 34  1  0
 17 35  1  0
 22 36  1  0
 23 37  1  0
 23 38  1  0
 24 39  1  0
 24 40  1  0
 26 41  1  0
 26 42  1  0
 27 43  1  0
 27 44  1  0
 28 45  1  0
 29 46  1  0
M  CHG  4   5  -1  10  -1  13  -1  22   1
M  END
>  <UniqueID>  (57) 
54

>  <SMILES>  (57) 
O=C(Cn1[n-]c(=O)c(=O)[n-]c1=O)[N-]Cc1ccc(S(=O)(=O)[NH+]2CCOCC2)cc1

>  <Energy>  (57) 
59.75816676961845

>  <Genealogy>  (57) 
O=C(Cn1[n-]c(=O)c(=O)[n-]c1=O)[N-]Cc1ccc(S(=O)(=O)[NH+]2CCOCC2)cc1 (protonated)
O=C(Cn1[n-]c(=O)c(=O)[n-]c1=O)[N-]Cc1ccc(S(=O)(=O)[NH+]2CCOCC2)cc1 (3D coordinates assigned)
O=C(Cn1[n-]c(=O)c(=O)[n-]c1=O)[N-]Cc1ccc(S(=O)(=O)[NH+]2CCOCC2)cc1 (nonaromatic ring conformer: 59.75816676961845 kcal/mol)

>  <smiles>  (57) 
O=C(Cn1[nH]c(=O)c(=O)[nH]c1=O)NCc1ccc(S(=O)(=O)N2CCOCC2)cc1

>  <score_type>  (57) 
oracle

>  <origin>  (57) 
adg

>  <m_score__min__energy>  (57) 
-12.789999999999999

>  <m_primary>  (57) 
energy

$$$$
57:0
     RDKit          3D

 52 55  0  0  0  0  0  0  0  0999 V2000
   57.0130   21.4210   43.0050 C   0  0  0  0  0  0  0  0  0  0  0  0
   56.9460   21.7610   44.4650 C   0  0  0  0  0  0  0  0  0  0  0  0
   57.4220   20.8500   45.4110 C   0  0  0  0  0  0  0  0  0  0  0  0
   57.3840   21.1860   46.7610 C   0  0  0  0  0  0  0  0  0  0  0  0
   56.9040   22.3960   47.1500 N   0  0  0  0  0  0  0  0  0  0  0  0
   56.4490   23.3240   46.2650 C   0  0  0  0  0  0  0  0  0  0  0  0
   56.0190   24.4580   46.7480 N   0  0  0  0  0  0  0  0  0  0  0  0
   55.8870   25.7590   46.1500 C   0  0  0  0  0  0  0  0  0  0  0  0
   54.7660   26.3120   46.0010 O   0  0  0  0  0  0  0  0  0  0  0  0
   57.1070   26.4320   45.6170 C   0  0  0  0  0  0  0  0  0  0  0  0
   57.3490   27.6510   46.3840 N   0  0  0  0  0  0  0  0  0  0  0  0
   58.3970   28.5900   46.1180 C   0  0  0  0  0  0  0  0  0  0  0  0
   59.5450   28.3620   46.5850 O   0  0  0  0  0  0  0  0  0  0  0  0
   58.1820   29.8000   45.2990 C   0  0  0  0  0  0  0  0  0  0  0  0
   57.5630   29.7110   44.0420 C   0  0  0  0  0  0  0  0  0  0  0  0
   57.3460   30.8610   43.2810 C   0  0  0  0  0  0  0  0  0  0  0  0
   57.7210   32.1120   43.7770 C   0  0  0  0  0  0  0  0  0  0  0  0
   58.3010   32.2180   45.0480 C   0  0  0  0  0  0  0  0  0  0  0  0
   58.7690   33.7930   45.6810 S   0  0  0  0  0  0  0  0  0  0  0  0
   57.5350   34.6200   45.9100 O   0  0  0  0  0  0  0  0  0  0  0  0
   59.6500   34.4950   44.6870 O   0  0  0  0  0  0  0  0  0  0  0  0
   59.6240   33.5960   47.1750 N   0  0  0  0  0  0  0  0  0  0  0  0
   58.9940   33.4500   48.4840 C   0  0  0  0  0  0  0  0  0  0  0  0
   60.1540   33.3500   49.5030 C   0  0  0  0  0  0  0  0  0  0  0  0
   61.3710   33.5020   48.6550 C   0  0  0  0  0  0  0  0  0  0  0  0
   62.7090   33.5340   49.0600 C   0  0  0  0  0  0  0  0  0  0  0  0
   63.7010   33.7040   48.0820 C   0  0  0  0  0  0  0  0  0  0  0  0
   63.3440   33.8430   46.7280 C   0  0  0  0  0  0  0  0  0  0  0  0
   61.9920   33.8120   46.3440 C   0  0  0  0  0  0  0  0  0  0  0  0
   61.0300   33.6420   47.3380 C   0  0  0  0  0  0  0  0  0  0  0  0
   58.5310   31.0610   45.8050 C   0  0  0  0  0  0  0  0  0  0  0  0
   56.4610   23.0090   44.8880 C   0  0  0  0  0  0  0  0  0  0  0  0
   57.2245   20.3479   42.8878 H   0  0  0  0  0  0  0  0  0  0  0  0
   56.0506   21.6593   42.5285 H   0  0  0  0  0  0  0  0  0  0  0  0
   57.8130   22.0066   42.5285 H   0  0  0  0  0  0  0  0  0  0  0  0
   57.8229   19.8766   45.0920 H   0  0  0  0  0  0  0  0  0  0  0  0
   57.7435   20.4702   47.5149 H   0  0  0  0  0  0  0  0  0  0  0  0
   57.9714   25.7584   45.7120 H   0  0  0  0  0  0  0  0  0  0  0  0
   56.9605   26.6826   44.5560 H   0  0  0  0  0  0  0  0  0  0  0  0
   57.2476   28.7308   43.6551 H   0  0  0  0  0  0  0  0  0  0  0  0
   56.8786   30.7820   42.2884 H   0  0  0  0  0  0  0  0  0  0  0  0
   57.5608   33.0147   43.1691 H   0  0  0  0  0  0  0  0  0  0  0  0
   58.3643   34.3243   48.7054 H   0  0  0  0  0  0  0  0  0  0  0  0
   58.3440   32.5635   48.5232 H   0  0  0  0  0  0  0  0  0  0  0  0
   60.0919   34.1545   50.2507 H   0  0  0  0  0  0  0  0  0  0  0  0
   60.1435   32.4109   50.0757 H   0  0  0  0  0  0  0  0  0  0  0  0
   62.9780   33.4283   50.1214 H   0  0  0  0  0  0  0  0  0  0  0  0
   64.7610   33.7287   48.3748 H   0  0  0  0  0  0  0  0  0  0  0  0
   64.1265   33.9765   45.9665 H   0  0  0  0  0  0  0  0  0  0  0  0
   61.7015   33.9189   45.2885 H   0  0  0  0  0  0  0  0  0  0  0  0
   58.9881   31.1423   46.8022 H   0  0  0  0  0  0  0  0  0  0  0  0
   56.0923   23.7376   44.1510 H   0  0  0  0  0  0  0  0  0  0  0  0
  1  2  1  0
  2  3  1  0
  3  4  2  0
  4  5  1  0
  5  6  1  0
  6  7  2  3
  7  8  1  0
  8  9  2  0
  8 10  1  0
 10 11  1  0
 11 12  1  0
 12 13  2  0
 12 14  1  0
 14 15  2  0
 15 16  1  0
 16 17  2  0
 17 18  1  0
 18 19  1  0
 19 20  2  0
 19 21  2  0
 19 22  1  0
 22 23  1  0
 23 24  1  0
 24 25  1  0
 25 26  2  0
 26 27  1  0
 27 28  2  0
 28 29  1  0
 29 30  2  0
 18 31  2  0
  6 32  1  0
 32  2  2  0
 31 14  1  0
 30 22  1  0
 30 25  1  0
  1 33  1  0
  1 34  1  0
  1 35  1  0
  3 36  1  0
  4 37  1  0
 10 38  1  0
 10 39  1  0
 15 40  1  0
 16 41  1  0
 17 42  1  0
 23 43  1  0
 23 44  1  0
 24 45  1  0
 24 46  1  0
 26 47  1  0
 27 48  1  0
 28 49  1  0
 29 50  1  0
 31 51  1  0
 32 52  1  0
M  CHG  2   5  -1  11  -1
M  END
>  <UniqueID>  (58) 
55

>  <SMILES>  (58) 
Cc1cc[n-]c(=NC(=O)C[N-]C(=O)c2cccc(S(=O)(=O)N3CCc4ccccc43)c2)c1

>  <Energy>  (58) 
82.52638966410974

>  <Genealogy>  (58) 
Cc1cc[n-]c(=NC(=O)C[N-]C(=O)c2cccc(S(=O)(=O)N3CCc4ccccc43)c2)c1 (protonated)
Cc1cc[n-]c(=NC(=O)C[N-]C(=O)c2cccc(S(=O)(=O)N3CCc4ccccc43)c2)c1 (3D coordinates assigned)
Cc1cc[n-]c(=NC(=O)C[N-]C(=O)c2cccc(S(=O)(=O)N3CCc4ccccc43)c2)c1 (nonaromatic ring conformer: 82.52638966410974 kcal/mol)

>  <smiles>  (58) 
Cc1cc[nH]c(=NC(=O)CNC(=O)c2cccc(S(=O)(=O)N3CCc4ccccc43)c2)c1

>  <score_type>  (58) 
oracle

>  <origin>  (58) 
adg

>  <m_score__min__energy>  (58) 
-14.449999999999999

>  <m_primary>  (58) 
energy

$$$$
58:0
     RDKit          3D

 35 37  0  0  0  0  0  0  0  0999 V2000
   58.3230   29.1930   47.3590 C   0  0  0  0  0  0  0  0  0  0  0  0
   58.2960   28.9970   46.0320 C   0  0  0  0  0  0  0  0  0  0  0  0
   58.1970   27.7680   45.3670 C   0  0  0  0  0  0  0  0  0  0  0  0
   58.1770   26.5440   45.9340 C   0  0  0  0  0  0  0  0  0  0  0  0
   56.9830   25.6830   46.0050 C   0  0  0  0  0  0  0  0  0  0  0  0
   55.6980   26.2260   45.8680 C   0  0  0  0  0  0  0  0  0  0  0  0
   55.5250   27.5840   45.6250 O   0  0  0  0  0  0  0  0  0  0  0  0
   54.6080   25.4210   45.9710 N   0  0  0  0  0  0  0  0  0  0  0  0
   54.7410   24.0910   46.2170 C   0  0  0  0  0  0  0  0  0  0  0  0
   53.7180   23.3650   46.3040 O   0  0  0  0  0  0  0  0  0  0  0  0
   55.9750   23.5480   46.3730 N   0  0  0  0  0  0  0  0  0  0  0  0
   57.0940   24.3120   46.2790 C   0  0  0  0  0  0  0  0  0  0  0  0
   58.2250   23.7770   46.4360 O   0  0  0  0  0  0  0  0  0  0  0  0
   58.1300   28.1150   44.0120 C   0  0  0  0  0  0  0  0  0  0  0  0
   58.0310   27.2120   42.8200 C   0  0  0  0  0  0  0  0  0  0  0  0
   58.1830   29.4570   43.9030 N   0  0  0  0  0  0  0  0  0  0  0  0
   58.2950   29.9910   45.1090 N   0  0  0  0  0  0  0  0  0  0  0  0
   58.4120   31.4080   45.3260 C   0  0  0  0  0  0  0  0  0  0  0  0
   57.4250   32.2900   44.8550 C   0  0  0  0  0  0  0  0  0  0  0  0
   57.5330   33.6620   45.0990 C   0  0  0  0  0  0  0  0  0  0  0  0
   58.6190   34.1630   45.8230 C   0  0  0  0  0  0  0  0  0  0  0  0
   59.5950   33.2890   46.3110 C   0  0  0  0  0  0  0  0  0  0  0  0
   59.4900   31.9150   46.0690 C   0  0  0  0  0  0  0  0  0  0  0  0
   58.4038   30.2130   47.7628 H   0  0  0  0  0  0  0  0  0  0  0  0
   58.2643   28.3337   48.0432 H   0  0  0  0  0  0  0  0  0  0  0  0
   59.1121   26.1642   46.3715 H   0  0  0  0  0  0  0  0  0  0  0  0
   57.9169   26.1711   43.1570 H   0  0  0  0  0  0  0  0  0  0  0  0
   57.1589   27.4989   42.2141 H   0  0  0  0  0  0  0  0  0  0  0  0
   58.9445   27.3032   42.2141 H   0  0  0  0  0  0  0  0  0  0  0  0
   58.1680   30.0020   43.0110 H   0  0  0  0  0  0  0  0  0  0  0  0
   56.5643   31.8994   44.2923 H   0  0  0  0  0  0  0  0  0  0  0  0
   56.7618   34.3491   44.7205 H   0  0  0  0  0  0  0  0  0  0  0  0
   58.7055   35.2438   46.0085 H   0  0  0  0  0  0  0  0  0  0  0  0
   60.4465   33.6821   46.8859 H   0  0  0  0  0  0  0  0  0  0  0  0
   60.2550   31.2293   46.4624 H   0  0  0  0  0  0  0  0  0  0  0  0
  1  2  2  0
  2  3  1  0
  3  4  2  3
  4  5  1  0
  5  6  2  0
  6  7  1  0
  6  8  1  0
  8  9  1  0
  9 10  2  0
  9 11  1  0
 11 12  1  0
 12 13  2  0
  3 14  1  0
 14 15  1  0
 14 16  2  0
 16 17  1  0
 17 18  1  0
 18 19  2  0
 19 20  1  0
 20 21  2  0
 21 22  1  0
 22 23  2  0
 17  2  1  0
 23 18  1  0
 12  5  1  0
  1 24  1  0
  1 25  1  0
  4 26  1  0
 15 27  1  0
 15 28  1  0
 15 29  1  0
 16 30  1  0
 19 31  1  0
 20 32  1  0
 21 33  1  0
 22 34  1  0
 23 35  1  0
M  CHG  4   7  -1   8  -1  11  -1  16   1
M  END
>  <UniqueID>  (59) 
56

>  <SMILES>  (59) 
C=c1c(=Cc2c([O-])[n-]c(=O)[n-]c2=O)c(C)[nH+]n1-c1ccccc1

>  <Energy>  (59) 
89.76236290175032

>  <Genealogy>  (59) 
C=c1c(=Cc2c([O-])[n-]c(=O)[n-]c2=O)c(C)[nH+]n1-c1ccccc1 (protonated)
C=c1c(=Cc2c([O-])[n-]c(=O)[n-]c2=O)c(C)[nH+]n1-c1ccccc1 (3D coordinates assigned)
C=c1c(=Cc2c([O-])[n-]c(=O)[n-]c2=O)c(C)[nH+]n1-c1ccccc1 (optimized conformer: 89.76236290175032 kcal/mol)

>  <smiles>  (59) 
C=c1c(=Cc2c(O)[nH]c(=O)[nH]c2=O)c(C)nn1-c1ccccc1

>  <score_type>  (59) 
oracle

>  <origin>  (59) 
adg

>  <m_score__min__energy>  (59) 
-14.039999999999999

>  <m_primary>  (59) 
energy

$$$$
59:0
     RDKit          3D

 49 52  0  0  0  0  0  0  0  0999 V2000
   53.3750   29.6800   55.3600 C   0  0  0  0  0  0  0  0  0  0  0  0
   53.9900   29.9630   54.2070 C   0  0  0  0  0  0  0  0  0  0  0  0
   55.3340   29.9280   54.0910 N   0  0  0  0  0  0  0  0  0  0  0  0
   55.6260   30.0620   52.7830 C   0  0  0  0  0  0  0  0  0  0  0  0
   57.0000   30.0920   52.2520 C   0  0  0  0  0  0  0  0  0  0  0  0
   57.4440   29.0790   51.6440 O   0  0  0  0  0  0  0  0  0  0  0  0
   57.8420   31.2470   52.4110 N   0  0  0  0  0  0  0  0  0  0  0  0
   57.3460   32.5690   51.9920 C   0  0  0  0  0  0  0  0  0  0  0  0
   58.4880   33.5860   51.8870 C   0  0  0  0  0  0  0  0  0  0  0  0
   59.6310   32.9760   51.1910 N   0  0  0  0  0  0  0  0  0  0  0  0
   60.0930   33.5290   49.9450 C   0  0  0  0  0  0  0  0  0  0  0  0
   59.2610   34.0320   49.1410 O   0  0  0  0  0  0  0  0  0  0  0  0
   61.5250   33.5000   49.5730 C   0  0  0  0  0  0  0  0  0  0  0  0
   61.9030   33.2510   48.2430 C   0  0  0  0  0  0  0  0  0  0  0  0
   63.2550   33.2290   47.8860 C   0  0  0  0  0  0  0  0  0  0  0  0
   64.2400   33.4670   48.8490 C   0  0  0  0  0  0  0  0  0  0  0  0
   63.8720   33.7370   50.1700 C   0  0  0  0  0  0  0  0  0  0  0  0
   64.8510   33.9900   51.1240 O   0  0  0  0  0  0  0  0  0  0  0  0
   62.5200   33.7600   50.5320 C   0  0  0  0  0  0  0  0  0  0  0  0
   60.1370   31.6660   51.6370 C   0  0  0  0  0  0  0  0  0  0  0  0
   59.2620   31.0750   52.7480 C   0  0  0  0  0  0  0  0  0  0  0  0
   54.4670   30.2170   52.0470 C   0  0  0  0  0  0  0  0  0  0  0  0
   53.4130   30.1870   52.9480 C   0  0  0  0  0  0  0  0  0  0  0  0
   52.1310   30.3730   52.5820 C   0  0  0  0  0  0  0  0  0  0  0  0
   51.3600   31.6140   52.7690 C   0  0  0  0  0  0  0  0  0  0  0  0
   51.0320   32.1310   53.9670 N   0  0  0  0  0  0  0  0  0  0  0  0
   50.4800   33.3210   53.6520 C   0  0  0  0  0  0  0  0  0  0  0  0
   50.0270   34.1090   54.5220 O   0  0  0  0  0  0  0  0  0  0  0  0
   50.4600   33.6060   52.3330 N   0  0  0  0  0  0  0  0  0  0  0  0
   51.0340   32.5210   51.7870 C   0  0  0  0  0  0  0  0  0  0  0  0
   51.2500   32.3750   50.4200 O   0  0  0  0  0  0  0  0  0  0  0  0
   52.2774   29.7176   55.4216 H   0  0  0  0  0  0  0  0  0  0  0  0
   53.9667   29.4096   56.2470 H   0  0  0  0  0  0  0  0  0  0  0  0
   56.0220   29.7700   54.8620 H   0  0  0  0  0  0  0  0  0  0  0  0
   56.8595   32.4742   51.0100 H   0  0  0  0  0  0  0  0  0  0  0  0
   56.6316   32.9268   52.7480 H   0  0  0  0  0  0  0  0  0  0  0  0
   58.1437   34.4658   51.3236 H   0  0  0  0  0  0  0  0  0  0  0  0
   58.7974   33.8927   52.8971 H   0  0  0  0  0  0  0  0  0  0  0  0
   61.1320   33.0725   47.4790 H   0  0  0  0  0  0  0  0  0  0  0  0
   63.5441   33.0239   46.8447 H   0  0  0  0  0  0  0  0  0  0  0  0
   65.3031   33.4418   48.5675 H   0  0  0  0  0  0  0  0  0  0  0  0
   62.2348   33.9824   51.5709 H   0  0  0  0  0  0  0  0  0  0  0  0
   60.1434   30.9750   50.7812 H   0  0  0  0  0  0  0  0  0  0  0  0
   61.1530   31.8055   52.0349 H   0  0  0  0  0  0  0  0  0  0  0  0
   59.4840   30.0031   52.8559 H   0  0  0  0  0  0  0  0  0  0  0  0
   59.4756   31.5959   53.6930 H   0  0  0  0  0  0  0  0  0  0  0  0
   54.3942   30.3404   50.9564 H   0  0  0  0  0  0  0  0  0  0  0  0
   51.6160   29.5272   52.1031 H   0  0  0  0  0  0  0  0  0  0  0  0
   52.1600   32.1180   50.0550 H   0  0  0  0  0  0  0  0  0  0  0  0
  1  2  2  0
  2  3  1  0
  3  4  1  0
  4  5  1  0
  5  6  2  0
  5  7  1  0
  7  8  1  0
  8  9  1  0
  9 10  1  0
 10 11  1  0
 11 12  2  0
 11 13  1  0
 13 14  2  0
 14 15  1  0
 15 16  2  0
 16 17  1  0
 17 18  1  0
 17 19  2  0
 10 20  1  0
 20 21  1  0
  4 22  2  0
 22 23  1  0
 23 24  2  3
 24 25  1  0
 25 26  1  0
 26 27  1  0
 27 28  2  0
 27 29  1  0
 29 30  1  0
 30 31  1  0
 23  2  1  0
 30 25  2  0
 21  7  1  0
 19 13  1  0
  1 32  1  0
  1 33  1  0
  3 34  1  0
  8 35  1  0
  8 36  1  0
  9 37  1  0
  9 38  1  0
 14 39  1  0
 15 40  1  0
 16 41  1  0
 19 42  1  0
 20 43  1  0
 20 44  1  0
 21 45  1  0
 21 46  1  0
 22 47  1  0
 24 48  1  0
 31 49  1  0
M  CHG  3  18  -1  26  -1  29  -1
M  END
>  <UniqueID>  (60) 
57

>  <SMILES>  (60) 
C=c1[nH]c(C(=O)N2CCN(C(=O)c3cccc([O-])c3)CC2)cc1=Cc1[n-]c(=O)[n-]c1O

>  <Energy>  (60) 
129.1449558214253

>  <Genealogy>  (60) 
C=c1[nH]c(C(=O)N2CCN(C(=O)c3cccc([O-])c3)CC2)cc1=Cc1[n-]c(=O)[n-]c1O (protonated)
C=c1[nH]c(C(=O)N2CCN(C(=O)c3cccc([O-])c3)CC2)cc1=Cc1[n-]c(=O)[n-]c1O (3D coordinates assigned)
C=c1[nH]c(C(=O)N2CCN(C(=O)c3cccc([O-])c3)CC2)cc1=Cc1[n-]c(=O)[n-]c1O (nonaromatic ring conformer: 129.1449558214253 kcal/mol)

>  <smiles>  (60) 
C=c1[nH]c(C(=O)N2CCN(C(=O)c3cccc(O)c3)CC2)cc1=Cc1[nH]c(=O)[nH]c1O

>  <score_type>  (60) 
oracle

>  <origin>  (60) 
adg

>  <m_score__min__energy>  (60) 
-14.609999999999999

>  <m_primary>  (60) 
energy

$$$$
60:0
     RDKit          3D

 57 60  0  0  0  0  0  0  0  0999 V2000
   57.7950   28.1060   47.8620 O   0  0  0  0  0  0  0  0  0  0  0  0
   58.6570   27.2000   47.7010 C   0  0  0  0  0  0  0  0  0  0  0  0
   58.2520   25.8340   47.5560 N   0  0  0  0  0  0  0  0  0  0  0  0
   58.0590   25.1330   46.3150 C   0  0  0  0  0  0  0  0  0  0  0  0
   58.8180   23.9880   46.0060 C   0  0  0  0  0  0  0  0  0  0  0  0
   58.6600   23.3450   44.7770 C   0  0  0  0  0  0  0  0  0  0  0  0
   57.7550   23.8390   43.8390 C   0  0  0  0  0  0  0  0  0  0  0  0
   57.0120   24.9860   44.1220 C   0  0  0  0  0  0  0  0  0  0  0  0
   57.1640   25.6510   45.3520 C   0  0  0  0  0  0  0  0  0  0  0  0
   56.3480   26.8570   45.6290 C   0  0  0  0  0  0  0  0  0  0  0  0
   55.2590   26.7300   46.2530 O   0  0  0  0  0  0  0  0  0  0  0  0
   56.7540   28.1610   45.1730 N   0  0  0  0  0  0  0  0  0  0  0  0
   58.1730   28.5150   45.0380 C   0  0  0  0  0  0  0  0  0  0  0  0
   58.4270   29.9270   45.5910 C   0  0  0  0  0  0  0  0  0  0  0  0
   57.3910   30.9300   45.2050 N   0  0  0  0  0  0  0  0  0  0  0  0
   57.8880   32.2610   44.7620 C   0  0  0  0  0  0  0  0  0  0  0  0
   59.0820   32.8130   45.5450 C   0  0  0  0  0  0  0  0  0  0  0  0
   58.2300   34.0020   45.9840 C   0  0  0  0  0  0  0  0  0  0  0  0
   57.0370   33.4510   45.2060 C   0  0  0  0  0  0  0  0  0  0  0  0
   56.3690   30.4250   44.2690 C   0  0  0  0  0  0  0  0  0  0  0  0
   55.7300   29.1480   44.8190 C   0  0  0  0  0  0  0  0  0  0  0  0
   60.0450   27.5330   47.5670 N   0  0  0  0  0  0  0  0  0  0  0  0
   60.6020   28.8240   47.8730 C   0  0  0  0  0  0  0  0  0  0  0  0
   60.7740   29.2540   49.2010 C   0  0  0  0  0  0  0  0  0  0  0  0
   61.3310   30.5070   49.4730 C   0  0  0  0  0  0  0  0  0  0  0  0
   61.7420   31.3470   48.4190 C   0  0  0  0  0  0  0  0  0  0  0  0
   62.3050   32.6150   48.6340 O   0  0  0  0  0  0  0  0  0  0  0  0
   63.5740   33.0460   48.1450 C   0  0  0  0  0  0  0  0  0  0  0  0
   64.5740   32.6800   49.0270 F   0  0  0  0  0  0  0  0  0  0  0  0
   63.8190   32.4950   46.9000 F   0  0  0  0  0  0  0  0  0  0  0  0
   63.5650   34.4220   48.0300 F   0  0  0  0  0  0  0  0  0  0  0  0
   61.5930   30.9040   47.1000 C   0  0  0  0  0  0  0  0  0  0  0  0
   61.0340   29.6510   46.8280 C   0  0  0  0  0  0  0  0  0  0  0  0
   59.5403   23.5975   46.7380 H   0  0  0  0  0  0  0  0  0  0  0  0
   59.2513   22.4461   44.5482 H   0  0  0  0  0  0  0  0  0  0  0  0
   57.6264   23.3246   42.8753 H   0  0  0  0  0  0  0  0  0  0  0  0
   56.3015   25.3732   43.3768 H   0  0  0  0  0  0  0  0  0  0  0  0
   58.7823   27.7909   45.5987 H   0  0  0  0  0  0  0  0  0  0  0  0
   58.4467   28.4939   43.9728 H   0  0  0  0  0  0  0  0  0  0  0  0
   58.4574   29.8673   46.6890 H   0  0  0  0  0  0  0  0  0  0  0  0
   59.3774   30.2707   45.1568 H   0  0  0  0  0  0  0  0  0  0  0  0
   57.9955   32.0233   43.6934 H   0  0  0  0  0  0  0  0  0  0  0  0
   59.4160   32.1683   46.3713 H   0  0  0  0  0  0  0  0  0  0  0  0
   60.0519   32.9707   45.0506 H   0  0  0  0  0  0  0  0  0  0  0  0
   58.0676   34.0589   47.0705 H   0  0  0  0  0  0  0  0  0  0  0  0
   58.5803   35.0291   45.8038 H   0  0  0  0  0  0  0  0  0  0  0  0
   56.1760   33.1795   45.8344 H   0  0  0  0  0  0  0  0  0  0  0  0
   56.5161   34.0744   44.4644 H   0  0  0  0  0  0  0  0  0  0  0  0
   55.5910   31.1908   44.1334 H   0  0  0  0  0  0  0  0  0  0  0  0
   56.8474   30.1991   43.3046 H   0  0  0  0  0  0  0  0  0  0  0  0
   55.1438   29.3962   45.7161 H   0  0  0  0  0  0  0  0  0  0  0  0
   55.0807   28.7175   44.0424 H   0  0  0  0  0  0  0  0  0  0  0  0
   60.6750   26.8100   47.1520 H   0  0  0  0  0  0  0  0  0  0  0  0
   60.4682   28.6001   50.0310 H   0  0  0  0  0  0  0  0  0  0  0  0
   61.4490   30.8389   50.5151 H   0  0  0  0  0  0  0  0  0  0  0  0
   61.9186   31.5473   46.2692 H   0  0  0  0  0  0  0  0  0  0  0  0
   60.9329   29.3126   45.7862 H   0  0  0  0  0  0  0  0  0  0  0  0
  1  2  2  0
  2  3  1  0
  3  4  1  0
  4  5  2  0
  5  6  1  0
  6  7  2  0
  7  8  1  0
  8  9  2  0
  9 10  1  0
 10 11  2  0
 10 12  1  0
 12 13  1  0
 13 14  1  0
 14 15  1  0
 15 16  1  0
 16 17  1  0
 17 18  1  0
 18 19  1  0
 15 20  1  0
 20 21  1  0
  2 22  1  0
 22 23  1  0
 23 24  2  0
 24 25  1  0
 25 26  2  0
 26 27  1  0
 27 28  1  0
 28 29  1  0
 28 30  1  0
 28 31  1  0
 26 32  1  0
 32 33  2  0
  9  4  1  0
 21 12  1  0
 33 23  1  0
 19 16  1  0
  5 34  1  0
  6 35  1  0
  7 36  1  0
  8 37  1  0
 13 38  1  0
 13 39  1  0
 14 40  1  0
 14 41  1  0
 16 42  1  0
 17 43  1  0
 17 44  1  0
 18 45  1  0
 18 46  1  0
 19 47  1  0
 19 48  1  0
 20 49  1  0
 20 50  1  0
 21 51  1  0
 21 52  1  0
 22 53  1  0
 24 54  1  0
 25 55  1  0
 32 56  1  0
 33 57  1  0
M  CHG  1   3  -1
M  END
>  <UniqueID>  (61) 
58

>  <SMILES>  (61) 
O=C([N-]c1ccccc1C(=O)N1CCN(C2CCC2)CC1)Nc1ccc(OC(F)(F)F)cc1

>  <Energy>  (61) 
143.70762568367508

>  <Genealogy>  (61) 
O=C([N-]c1ccccc1C(=O)N1CCN(C2CCC2)CC1)Nc1ccc(OC(F)(F)F)cc1 (protonated)
O=C([N-]c1ccccc1C(=O)N1CCN(C2CCC2)CC1)Nc1ccc(OC(F)(F)F)cc1 (3D coordinates assigned)
O=C([N-]c1ccccc1C(=O)N1CCN(C2CCC2)CC1)Nc1ccc(OC(F)(F)F)cc1 (nonaromatic ring conformer: 143.70762568367508 kcal/mol)

>  <smiles>  (61) 
O=C(Nc1ccc(OC(F)(F)F)cc1)Nc1ccccc1C(=O)N1CCN(C2CCC2)CC1

>  <score_type>  (61) 
oracle

>  <origin>  (61) 
adg

>  <m_score__min__energy>  (61) 
-10.359999999999999

>  <m_primary>  (61) 
energy

$$$$
61:0
     RDKit          3D

 51 54  0  0  0  0  0  0  0  0999 V2000
   58.4641   29.1999   43.5609 H   0  0  0  0  0  0  0  0  0  0  0  0
   58.1070   29.1470   44.6000 C   0  0  0  0  0  0  0  0  0  0  0  0
   56.6960   29.5160   44.8520 C   0  0  0  0  0  0  0  0  0  0  0  0
   55.8720   28.5980   45.0990 O   0  0  0  0  0  0  0  0  0  0  0  0
   56.2250   30.8720   44.8040 N   0  0  0  0  0  0  0  0  0  0  0  0
   56.9240   31.9740   44.7890 C   0  0  0  0  0  0  0  0  0  0  0  0
   56.7140   32.8820   45.7800 N   0  0  0  0  0  0  0  0  0  0  0  0
   57.3750   34.0680   45.8340 C   0  0  0  0  0  0  0  0  0  0  0  0
   57.1681   34.7761   46.6500 H   0  0  0  0  0  0  0  0  0  0  0  0
   58.3160   34.3880   44.8550 C   0  0  0  0  0  0  0  0  0  0  0  0
   58.8445   35.3523   44.8844 H   0  0  0  0  0  0  0  0  0  0  0  0
   58.5780   33.4700   43.8390 C   0  0  0  0  0  0  0  0  0  0  0  0
   59.3239   33.7044   43.0653 H   0  0  0  0  0  0  0  0  0  0  0  0
   57.8940   32.2530   43.8030 C   0  0  0  0  0  0  0  0  0  0  0  0
   58.1095   31.5185   43.0130 H   0  0  0  0  0  0  0  0  0  0  0  0
   58.9920   28.7510   45.5390 C   0  0  0  0  0  0  0  0  0  0  0  0
   59.5010   29.6270   46.6320 C   0  0  0  0  0  0  0  0  0  0  0  0
   59.8200   30.9800   46.4260 C   0  0  0  0  0  0  0  0  0  0  0  0
   59.6790   31.4287   45.4316 H   0  0  0  0  0  0  0  0  0  0  0  0
   60.3170   31.7630   47.4790 C   0  0  0  0  0  0  0  0  0  0  0  0
   60.7480   33.4550   47.2070 S   0  0  0  0  0  0  0  0  0  0  0  0
   59.6480   34.3370   47.7300 O   0  0  0  0  0  0  0  0  0  0  0  0
   60.8710   33.6980   45.7280 O   0  0  0  0  0  0  0  0  0  0  0  0
   62.2460   33.8830   48.0000 N   0  0  0  0  0  0  0  0  0  0  0  0
   62.0500   33.9300   49.4640 C   0  0  0  0  0  0  0  0  0  0  0  0
   61.4619   34.8239   49.7190 H   0  0  0  0  0  0  0  0  0  0  0  0
   61.5210   33.0170   49.7747 H   0  0  0  0  0  0  0  0  0  0  0  0
   63.3930   33.9880   50.2000 C   0  0  0  0  0  0  0  0  0  0  0  0
   63.9390   34.8865   49.8767 H   0  0  0  0  0  0  0  0  0  0  0  0
   63.1925   34.0188   51.2811 H   0  0  0  0  0  0  0  0  0  0  0  0
   64.2540   32.7460   49.9040 C   0  0  0  0  0  0  0  0  0  0  0  0
   65.3038   33.0608   49.8101 H   0  0  0  0  0  0  0  0  0  0  0  0
   64.1115   32.0396   50.7351 H   0  0  0  0  0  0  0  0  0  0  0  0
   63.8400   32.0260   48.6100 C   0  0  0  0  0  0  0  0  0  0  0  0
   64.7001   31.4616   48.2205 H   0  0  0  0  0  0  0  0  0  0  0  0
   63.0060   31.3456   48.8370 H   0  0  0  0  0  0  0  0  0  0  0  0
   63.3770   33.0340   47.5480 C   0  0  0  0  0  0  0  0  0  0  0  0
   64.2245   33.6874   47.2934 H   0  0  0  0  0  0  0  0  0  0  0  0
   63.0252   32.4561   46.6807 H   0  0  0  0  0  0  0  0  0  0  0  0
   60.5020   31.1850   48.7410 C   0  0  0  0  0  0  0  0  0  0  0  0
   60.8715   31.7994   49.5753 H   0  0  0  0  0  0  0  0  0  0  0  0
   60.2200   29.8330   48.9460 C   0  0  0  0  0  0  0  0  0  0  0  0
   60.3681   29.3867   49.9404 H   0  0  0  0  0  0  0  0  0  0  0  0
   59.7490   29.0430   47.8890 C   0  0  0  0  0  0  0  0  0  0  0  0
   59.5540   27.6330   48.0740 N   0  0  0  0  0  0  0  0  0  0  0  0
   59.5940   27.2200   49.0330 H   0  0  0  0  0  0  0  0  0  0  0  0
   59.3780   26.7660   46.9450 C   0  0  0  0  0  0  0  0  0  0  0  0
   59.2080   25.5310   47.1230 O   0  0  0  0  0  0  0  0  0  0  0  0
   59.4640   27.3180   45.5490 C   0  0  0  0  0  0  0  0  0  0  0  0
   58.8292   26.7192   44.8793 H   0  0  0  0  0  0  0  0  0  0  0  0
   60.5077   27.2757   45.2041 H   0  0  0  0  0  0  0  0  0  0  0  0
  1  2  1  0
  2  3  1  0
  3  4  2  0
  3  5  1  0
  5  6  2  0
  6  7  1  0
  7  8  1  0
  8  9  1  0
  8 10  2  0
 10 11  1  0
 10 12  1  0
 12 13  1  0
 12 14  2  0
 14 15  1  0
  2 16  2  3
 16 17  1  0
 17 18  2  0
 18 19  1  0
 18 20  1  0
 20 21  1  0
 21 22  2  0
 21 23  2  0
 21 24  1  0
 24 25  1  0
 25 26  1  0
 25 27  1  0
 25 28  1  0
 28 29  1  0
 28 30  1  0
 28 31  1  0
 31 32  1  0
 31 33  1  0
 31 34  1  0
 34 35  1  0
 34 36  1  0
 34 37  1  0
 37 38  1  0
 37 39  1  0
 20 40  2  0
 40 41  1  0
 40 42  1  0
 42 43  1  0
 42 44  2  0
 44 45  1  0
 45 46  1  0
 45 47  1  0
 47 48  2  0
 47 49  1  0
 49 50  1  0
 49 51  1  0
 14  6  1  0
 49 16  1  0
 44 17  1  0
 37 24  1  0
M  CHG  1   7  -1
M  END
>  <UniqueID>  (62) 
59

>  <SMILES>  (62) 
O=C(C=C1CC(=O)Nc2ccc(S(=O)(=O)N3CCCCC3)cc21)/N=c1\cccc[n-]1

>  <Energy>  (62) 
73.93171329107011

>  <Genealogy>  (62) 
O=C(C=C1CC(=O)Nc2ccc(S(=O)(=O)N3CCCCC3)cc21)N=c1cccc[n-]1 (protonated)
O=C(C=C1CC(=O)Nc2ccc(S(=O)(=O)N3CCCCC3)cc21)/N=c1\cccc[n-]1 (cis-trans isomerization)
O=C(C=C1CC(=O)Nc2ccc(S(=O)(=O)N3CCCCC3)cc21)/N=c1\cccc[n-]1 (3D coordinates assigned)
O=C(C=C1CC(=O)Nc2ccc(S(=O)(=O)N3CCCCC3)cc21)/N=c1\cccc[n-]1 (nonaromatic ring conformer: 73.93171329107011 kcal/mol)

>  <smiles>  (62) 
O=C(C=C1CC(=O)Nc2ccc(S(=O)(=O)N3CCCCC3)cc21)N=c1cccc[nH]1

>  <score_type>  (62) 
oracle

>  <origin>  (62) 
adg

>  <m_score__min__energy>  (62) 
-11.94

>  <m_primary>  (62) 
energy

$$$$
62:0
     RDKit          3D

 42 44  0  0  0  0  0  0  0  0999 V2000
   57.7200   24.5580   47.3260 O   0  0  0  0  0  0  0  0  0  0  0  0
   56.8580   25.2850   46.7670 C   0  0  0  0  0  0  0  0  0  0  0  0
   55.5050   24.8130   46.6810 N   0  0  0  0  0  0  0  0  0  0  0  0
   54.8370   24.3340   45.4720 C   0  0  0  0  0  0  0  0  0  0  0  0
   55.7020   23.3520   44.7260 C   0  0  0  0  0  0  0  0  0  0  0  0
   55.7850   23.4070   43.3250 C   0  0  0  0  0  0  0  0  0  0  0  0
   56.5750   22.4870   42.6300 C   0  0  0  0  0  0  0  0  0  0  0  0
   57.2940   21.5130   43.3270 C   0  0  0  0  0  0  0  0  0  0  0  0
   57.2270   21.4580   44.7210 C   0  0  0  0  0  0  0  0  0  0  0  0
   56.4370   22.3750   45.4210 C   0  0  0  0  0  0  0  0  0  0  0  0
   57.2780   26.5700   46.1780 C   0  0  0  0  0  0  0  0  0  0  0  0
   58.6260   26.9440   46.1460 C   0  0  0  0  0  0  0  0  0  0  0  0
   58.9970   28.1830   45.6240 C   0  0  0  0  0  0  0  0  0  0  0  0
   58.0050   29.0520   45.1250 C   0  0  0  0  0  0  0  0  0  0  0  0
   58.2800   30.2330   44.6450 N   0  0  0  0  0  0  0  0  0  0  0  0
   57.5700   31.4590   44.8770 C   0  0  0  0  0  0  0  0  0  0  0  0
   56.3120   31.4480   44.8140 O   0  0  0  0  0  0  0  0  0  0  0  0
   58.2750   32.6880   45.3250 C   0  0  0  0  0  0  0  0  0  0  0  0
   58.2480   33.8160   44.4900 C   0  0  0  0  0  0  0  0  0  0  0  0
   58.8990   34.9900   44.8600 C   0  0  0  0  0  0  0  0  0  0  0  0
   59.5810   35.0600   46.0710 C   0  0  0  0  0  0  0  0  0  0  0  0
   59.6130   33.9560   46.9420 C   0  0  0  0  0  0  0  0  0  0  0  0
   60.2990   34.0770   48.2000 N   0  0  0  0  0  0  0  0  0  0  0  0
   61.5420   33.9710   48.2470 O   0  0  0  0  0  0  0  0  0  0  0  0
   59.6290   34.4990   49.3250 O   0  0  0  0  0  0  0  0  0  0  0  0
   58.9650   32.7550   46.5630 C   0  0  0  0  0  0  0  0  0  0  0  0
   59.0210   31.3450   47.6270 Cl  0  0  0  0  0  0  0  0  0  0  0  0
   56.7090   28.6380   45.1190 N   0  0  0  0  0  0  0  0  0  0  0  0
   56.3270   27.4330   45.6210 C   0  0  0  0  0  0  0  0  0  0  0  0
   53.8949   23.8409   45.7537 H   0  0  0  0  0  0  0  0  0  0  0  0
   54.6421   25.1955   44.8164 H   0  0  0  0  0  0  0  0  0  0  0  0
   55.2262   24.1769   42.7727 H   0  0  0  0  0  0  0  0  0  0  0  0
   56.6307   22.5300   41.5323 H   0  0  0  0  0  0  0  0  0  0  0  0
   57.9134   20.7888   42.7775 H   0  0  0  0  0  0  0  0  0  0  0  0
   57.7963   20.6925   45.2687 H   0  0  0  0  0  0  0  0  0  0  0  0
   56.3902   22.3321   46.5192 H   0  0  0  0  0  0  0  0  0  0  0  0
   59.3948   26.2593   46.5334 H   0  0  0  0  0  0  0  0  0  0  0  0
   60.0559   28.4801   45.6017 H   0  0  0  0  0  0  0  0  0  0  0  0
   57.7069   33.7721   43.5333 H   0  0  0  0  0  0  0  0  0  0  0  0
   58.8741   35.8645   44.1932 H   0  0  0  0  0  0  0  0  0  0  0  0
   60.1006   35.9885   46.3500 H   0  0  0  0  0  0  0  0  0  0  0  0
   55.2683   27.1360   45.5892 H   0  0  0  0  0  0  0  0  0  0  0  0
  1  2  2  0
  2  3  1  0
  3  4  1  0
  4  5  1  0
  5  6  2  0
  6  7  1  0
  7  8  2  0
  8  9  1  0
  9 10  2  0
  2 11  1  0
 11 12  1  0
 12 13  2  0
 13 14  1  0
 14 15  2  3
 15 16  1  0
 16 17  2  0
 16 18  1  0
 18 19  2  0
 19 20  1  0
 20 21  2  0
 21 22  1  0
 22 23  1  0
 23 24  2  0
 23 25  1  0
 22 26  2  0
 26 27  1  0
 14 28  1  0
 28 29  1  0
 10  5  1  0
 29 11  2  0
 26 18  1  0
  4 30  1  0
  4 31  1  0
  6 32  1  0
  7 33  1  0
  8 34  1  0
  9 35  1  0
 10 36  1  0
 12 37  1  0
 13 38  1  0
 19 39  1  0
 20 40  1  0
 21 41  1  0
 29 42  1  0
M  CHG  4   3  -1  23   1  25  -1  28  -1
M  END
>  <UniqueID>  (63) 
60

>  <SMILES>  (63) 
O=C([N-]Cc1ccccc1)c1ccc(=NC(=O)c2cccc([N+](=O)[O-])c2Cl)[n-]c1

>  <Energy>  (63) 
65.30906607388026

>  <Genealogy>  (63) 
O=C([N-]Cc1ccccc1)c1ccc(=NC(=O)c2cccc([N+](=O)[O-])c2Cl)[n-]c1 (protonated)
O=C([N-]Cc1ccccc1)c1ccc(=NC(=O)c2cccc([N+](=O)[O-])c2Cl)[n-]c1 (3D coordinates assigned)
O=C([N-]Cc1ccccc1)c1ccc(=NC(=O)c2cccc([N+](=O)[O-])c2Cl)[n-]c1 (optimized conformer: 65.30906607388026 kcal/mol)

>  <smiles>  (63) 
O=C(NCc1ccccc1)c1ccc(=NC(=O)c2cccc([N+](=O)[O-])c2Cl)[nH]c1

>  <score_type>  (63) 
oracle

>  <origin>  (63) 
adg

>  <m_score__min__energy>  (63) 
-13.08

>  <m_primary>  (63) 
energy

$$$$
63:0
     RDKit          3D

 65 69  0  0  0  0  0  0  0  0999 V2000
   58.4960   26.7230   41.8700 C   0  0  0  0  0  0  0  0  0  0  0  0
   58.4830   26.9040   43.3530 C   0  0  0  0  0  0  0  0  0  0  0  0
   59.4440   27.5020   43.9140 O   0  0  0  0  0  0  0  0  0  0  0  0
   57.4090   26.3570   44.1340 N   0  0  0  0  0  0  0  0  0  0  0  0
   57.4260   26.3600   45.6000 C   0  0  2  0  0  0  0  0  0  0  0  0
   56.0830   25.9350   46.1340 C   0  0  0  0  0  0  0  0  0  0  0  0
   55.0870   26.6960   45.9960 O   0  0  0  0  0  0  0  0  0  0  0  0
   55.9300   24.6450   46.7360 N   0  0  0  0  0  0  0  0  0  0  0  0
   55.7700   23.4160   45.9640 C   0  0  0  0  0  0  0  0  0  0  0  0
   55.1480   23.6910   44.6010 C   0  0  0  0  0  0  0  0  0  0  0  0
   56.4500   23.2740   43.9270 C   0  0  0  0  0  0  0  0  0  0  0  0
   57.0670   22.9770   45.2880 C   0  0  0  0  0  0  0  0  0  0  0  0
   57.8660   27.7240   46.1060 C   0  0  0  0  0  0  0  0  0  0  0  0
   58.6570   27.8890   47.2620 C   0  0  0  0  0  0  0  0  0  0  0  0
   59.0290   29.1660   47.6910 C   0  0  0  0  0  0  0  0  0  0  0  0
   58.5760   30.3130   47.0080 C   0  0  0  0  0  0  0  0  0  0  0  0
   58.9670   31.7180   47.4310 C   0  0  0  0  0  0  0  0  0  0  0  0
   59.5870   31.8580   48.7920 C   0  0  0  0  0  0  0  0  0  0  0  0
   60.9170   32.2800   48.3100 N   0  0  0  0  0  0  0  0  0  0  0  0
   62.1700   32.6760   48.8730 C   0  0  0  0  0  0  0  0  0  0  0  0
   63.3190   32.7260   48.0750 C   0  0  0  0  0  0  0  0  0  0  0  0
   64.5470   33.1050   48.6310 C   0  0  0  0  0  0  0  0  0  0  0  0
   64.6420   33.4420   49.9860 C   0  0  0  0  0  0  0  0  0  0  0  0
   65.8960   33.8370   50.4780 O   0  0  0  0  0  0  0  0  0  0  0  0
   66.9030   32.9660   50.9910 C   0  0  0  0  0  0  0  0  0  0  0  0
   66.6080   31.5240   50.5630 C   0  0  0  0  0  0  0  0  0  0  0  0
   67.1990   30.4690   51.4870 C   0  0  0  0  0  0  0  0  0  0  0  0
   65.6940   30.7030   51.4620 C   0  0  0  0  0  0  0  0  0  0  0  0
   63.4830   33.3920   50.7870 C   0  0  0  0  0  0  0  0  0  0  0  0
   62.2550   33.0130   50.2300 C   0  0  0  0  0  0  0  0  0  0  0  0
   60.3250   32.1520   46.9660 C   0  0  0  0  0  0  0  0  0  0  0  0
   57.7670   30.1460   45.8740 C   0  0  0  0  0  0  0  0  0  0  0  0
   57.4160   28.8690   45.4290 C   0  0  0  0  0  0  0  0  0  0  0  0
   58.5729   25.6518   41.6320 H   0  0  0  0  0  0  0  0  0  0  0  0
   57.5665   27.1276   41.4431 H   0  0  0  0  0  0  0  0  0  0  0  0
   59.3582   27.2563   41.4431 H   0  0  0  0  0  0  0  0  0  0  0  0
   56.6740   25.7980   43.6410 H   0  0  0  0  0  0  0  0  0  0  0  0
   58.1580   25.6284   45.9728 H   0  0  0  0  0  0  0  0  0  0  0  0
   55.2750   22.7554   46.6911 H   0  0  0  0  0  0  0  0  0  0  0  0
   54.2902   23.0460   44.3598 H   0  0  0  0  0  0  0  0  0  0  0  0
   54.6944   24.6688   44.3817 H   0  0  0  0  0  0  0  0  0  0  0  0
   56.3552   22.3924   43.2759 H   0  0  0  0  0  0  0  0  0  0  0  0
   56.9546   23.9553   43.2261 H   0  0  0  0  0  0  0  0  0  0  0  0
   57.3208   21.9184   45.4458 H   0  0  0  0  0  0  0  0  0  0  0  0
   58.0281   23.4277   45.5765 H   0  0  0  0  0  0  0  0  0  0  0  0
   58.9837   27.0057   47.8304 H   0  0  0  0  0  0  0  0  0  0  0  0
   59.6813   29.2771   48.5697 H   0  0  0  0  0  0  0  0  0  0  0  0
   58.0207   32.2021   47.1479 H   0  0  0  0  0  0  0  0  0  0  0  0
   59.0942   32.6254   49.4070 H   0  0  0  0  0  0  0  0  0  0  0  0
   59.5474   30.9813   49.4552 H   0  0  0  0  0  0  0  0  0  0  0  0
   63.2570   32.4668   47.0078 H   0  0  0  0  0  0  0  0  0  0  0  0
   65.4452   33.1382   47.9969 H   0  0  0  0  0  0  0  0  0  0  0  0
   67.8842   33.2703   50.5978 H   0  0  0  0  0  0  0  0  0  0  0  0
   66.9098   33.0251   52.0894 H   0  0  0  0  0  0  0  0  0  0  0  0
   66.6223   31.7372   49.4839 H   0  0  0  0  0  0  0  0  0  0  0  0
   67.6187   29.5430   51.0671 H   0  0  0  0  0  0  0  0  0  0  0  0
   67.9727   30.4651   52.2689 H   0  0  0  0  0  0  0  0  0  0  0  0
   65.0268   29.9461   51.0240 H   0  0  0  0  0  0  0  0  0  0  0  0
   64.9305   30.9382   52.2181 H   0  0  0  0  0  0  0  0  0  0  0  0
   63.5433   33.6518   51.8542 H   0  0  0  0  0  0  0  0  0  0  0  0
   61.3542   32.9799   50.8604 H   0  0  0  0  0  0  0  0  0  0  0  0
   60.3017   33.1064   46.4196 H   0  0  0  0  0  0  0  0  0  0  0  0
   60.8429   31.4960   46.2508 H   0  0  0  0  0  0  0  0  0  0  0  0
   57.4050   31.0304   45.3292 H   0  0  0  0  0  0  0  0  0  0  0  0
   56.7800   28.7593   44.5383 H   0  0  0  0  0  0  0  0  0  0  0  0
  1  2  1  0
  2  3  2  0
  2  4  1  0
  4  5  1  0
  5  6  1  0
  6  7  2  0
  6  8  1  0
  8  9  1  0
  9 10  1  0
 10 11  1  0
 11 12  1  0
  5 13  1  0
 13 14  2  0
 14 15  1  0
 15 16  2  0
 16 17  1  0
 17 18  1  0
 18 19  1  0
 19 20  1  0
 20 21  2  0
 21 22  1  0
 22 23  2  0
 23 24  1  0
 24 25  1  0
 25 26  1  0
 26 27  1  0
 27 28  1  0
 23 29  1  0
 29 30  2  0
 19 31  1  0
 16 32  1  0
 32 33  2  0
 12  9  1  0
 33 13  1  0
 31 17  1  0
 30 20  1  0
 28 26  1  0
  1 34  1  0
  1 35  1  0
  1 36  1  0
  4 37  1  0
  5 38  1  6
  9 39  1  0
 10 40  1  0
 10 41  1  0
 11 42  1  0
 11 43  1  0
 12 44  1  0
 12 45  1  0
 14 46  1  0
 15 47  1  0
 17 48  1  0
 18 49  1  0
 18 50  1  0
 21 51  1  0
 22 52  1  0
 25 53  1  0
 25 54  1  0
 26 55  1  0
 27 56  1  0
 27 57  1  0
 28 58  1  0
 28 59  1  0
 29 60  1  0
 30 61  1  0
 31 62  1  0
 31 63  1  0
 32 64  1  0
 33 65  1  0
M  CHG  1   8  -1
M  END
>  <UniqueID>  (64) 
61

>  <SMILES>  (64) 
CC(=O)N[C@H](C(=O)[N-]C1CCC1)c1ccc(C2CN(c3ccc(OCC4CC4)cc3)C2)cc1

>  <Energy>  (64) 
434.3512702659846

>  <Genealogy>  (64) 
CC(=O)NC(C(=O)[N-]C1CCC1)c1ccc(C2CN(c3ccc(OCC4CC4)cc3)C2)cc1 (protonated)
CC(=O)N[C@H](C(=O)[N-]C1CCC1)c1ccc(C2CN(c3ccc(OCC4CC4)cc3)C2)cc1 (chirality)
CC(=O)N[C@H](C(=O)[N-]C1CCC1)c1ccc(C2CN(c3ccc(OCC4CC4)cc3)C2)cc1 (3D coordinates assigned)
CC(=O)N[C@H](C(=O)[N-]C1CCC1)c1ccc(C2CN(c3ccc(OCC4CC4)cc3)C2)cc1 (nonaromatic ring conformer: 434.3512702659846 kcal/mol)

>  <smiles>  (64) 
CC(=O)NC(C(=O)NC1CCC1)c1ccc(C2CN(c3ccc(OCC4CC4)cc3)C2)cc1

>  <score_type>  (64) 
oracle

>  <origin>  (64) 
adg

>  <m_score__min__energy>  (64) 
-11.24

>  <m_primary>  (64) 
energy

$$$$
64:0
     RDKit          3D

 62 66  0  0  0  0  0  0  0  0999 V2000
   59.4030   29.8990   45.3740 C   0  0  0  0  0  0  0  0  0  0  0  0
   59.0760   29.3840   46.5710 C   0  0  0  0  0  0  0  0  0  0  0  0
   58.4390   28.1590   46.7980 C   0  0  0  0  0  0  0  0  0  0  0  0
   58.0340   27.2630   45.8810 C   0  0  0  0  0  0  0  0  0  0  0  0
   57.3420   26.0070   46.2210 C   0  0  0  0  0  0  0  0  0  0  0  0
   57.9820   24.8530   46.4730 N   0  0  0  0  0  0  0  0  0  0  0  0
   56.9750   23.9840   46.7140 C   0  0  0  0  0  0  0  0  0  0  0  0
   57.1810   22.7800   47.0070 O   0  0  0  0  0  0  0  0  0  0  0  0
   55.7370   24.5050   46.6030 N   0  0  0  0  0  0  0  0  0  0  0  0
   55.9790   25.7850   46.2800 C   0  0  0  0  0  0  0  0  0  0  0  0
   54.9740   26.7100   46.0000 O   0  0  0  0  0  0  0  0  0  0  0  0
   58.3520   28.0170   48.1760 C   0  0  0  0  0  0  0  0  0  0  0  0
   58.8950   29.1550   48.7250 C   0  0  0  0  0  0  0  0  0  0  0  0
   59.0670   29.3670   50.1710 C   0  0  0  0  0  0  0  0  0  0  0  0
   58.0720   29.7460   50.8470 O   0  0  0  0  0  0  0  0  0  0  0  0
   60.3430   29.1470   50.8080 N   0  0  0  0  0  0  0  0  0  0  0  0
   60.4760   29.1870   52.2670 C   0  0  0  0  0  0  0  0  0  0  0  0
   61.2720   30.4330   52.7090 C   0  0  0  0  0  0  0  0  0  0  0  0
   61.6220   31.3170   51.5760 N   0  0  0  0  0  0  0  0  0  0  0  0
   61.7950   32.7260   51.8120 C   0  0  0  0  0  0  0  0  0  0  0  0
   62.8070   33.3190   51.3440 O   0  0  0  0  0  0  0  0  0  0  0  0
   60.7780   33.5040   52.5520 C   0  0  0  0  0  0  0  0  0  0  0  0
   61.0390   33.9110   53.8730 C   0  0  0  0  0  0  0  0  0  0  0  0
   60.0910   34.6610   54.5790 C   0  0  0  0  0  0  0  0  0  0  0  0
   58.8800   35.0110   53.9730 C   0  0  0  0  0  0  0  0  0  0  0  0
   58.6070   34.6020   52.6630 C   0  0  0  0  0  0  0  0  0  0  0  0
   59.5470   33.8430   51.9540 C   0  0  0  0  0  0  0  0  0  0  0  0
   59.2810   33.4960   50.6720 F   0  0  0  0  0  0  0  0  0  0  0  0
   62.0860   30.7640   50.2900 C   0  0  0  0  0  0  0  0  0  0  0  0
   61.5950   29.3270   50.0750 C   0  0  0  0  0  0  0  0  0  0  0  0
   59.3420   29.9900   47.7580 N   0  0  0  0  0  0  0  0  0  0  0  0
   60.0670   31.2530   47.9710 C   0  0  0  0  0  0  0  0  0  0  0  0
   59.4150   32.3860   47.2240 C   0  0  0  0  0  0  0  0  0  0  0  0
   60.2000   33.3610   46.5830 C   0  0  0  0  0  0  0  0  0  0  0  0
   59.5930   34.3820   45.8430 C   0  0  0  0  0  0  0  0  0  0  0  0
   58.2020   34.4340   45.7290 C   0  0  0  0  0  0  0  0  0  0  0  0
   57.4120   33.4720   46.3710 C   0  0  0  0  0  0  0  0  0  0  0  0
   58.0170   32.4420   47.0980 C   0  0  0  0  0  0  0  0  0  0  0  0
   59.9046   30.8761   45.3141 H   0  0  0  0  0  0  0  0  0  0  0  0
   59.1691   29.3435   44.4538 H   0  0  0  0  0  0  0  0  0  0  0  0
   58.2296   27.4790   44.8203 H   0  0  0  0  0  0  0  0  0  0  0  0
   55.1460   27.5150   45.4090 H   0  0  0  0  0  0  0  0  0  0  0  0
   57.9306   27.1606   48.7227 H   0  0  0  0  0  0  0  0  0  0  0  0
   59.4741   29.2193   52.7200 H   0  0  0  0  0  0  0  0  0  0  0  0
   61.0159   28.2873   52.5974 H   0  0  0  0  0  0  0  0  0  0  0  0
   60.6633   31.0036   53.4259 H   0  0  0  0  0  0  0  0  0  0  0  0
   62.2120   30.0841   53.1615 H   0  0  0  0  0  0  0  0  0  0  0  0
   61.9909   33.6391   54.3526 H   0  0  0  0  0  0  0  0  0  0  0  0
   60.2989   34.9757   55.6123 H   0  0  0  0  0  0  0  0  0  0  0  0
   58.1412   35.6086   54.5270 H   0  0  0  0  0  0  0  0  0  0  0  0
   57.6530   34.8768   52.1893 H   0  0  0  0  0  0  0  0  0  0  0  0
   61.7060   31.3956   49.4735 H   0  0  0  0  0  0  0  0  0  0  0  0
   63.1859   30.7503   50.3017 H   0  0  0  0  0  0  0  0  0  0  0  0
   61.4253   29.1500   49.0027 H   0  0  0  0  0  0  0  0  0  0  0  0
   62.3493   28.6139   50.4390 H   0  0  0  0  0  0  0  0  0  0  0  0
   60.0720   31.4873   49.0457 H   0  0  0  0  0  0  0  0  0  0  0  0
   61.0942   31.1332   47.5961 H   0  0  0  0  0  0  0  0  0  0  0  0
   61.2963   33.3209   46.6637 H   0  0  0  0  0  0  0  0  0  0  0  0
   60.2129   35.1453   45.3500 H   0  0  0  0  0  0  0  0  0  0  0  0
   57.7275   35.2295   45.1357 H   0  0  0  0  0  0  0  0  0  0  0  0
   56.3154   33.5267   46.3033 H   0  0  0  0  0  0  0  0  0  0  0  0
   57.3941   31.6706   47.5743 H   0  0  0  0  0  0  0  0  0  0  0  0
  1  2  2  0
  2  3  1  0
  3  4  2  3
  4  5  1  0
  5  6  1  0
  6  7  1  0
  7  8  2  0
  7  9  1  0
  9 10  1  0
 10 11  1  0
  3 12  1  0
 12 13  2  0
 13 14  1  0
 14 15  2  0
 14 16  1  0
 16 17  1  0
 17 18  1  0
 18 19  1  0
 19 20  1  0
 20 21  2  0
 20 22  1  0
 22 23  2  0
 23 24  1  0
 24 25  2  0
 25 26  1  0
 26 27  2  0
 27 28  1  0
 19 29  1  0
 29 30  1  0
 13 31  1  0
 31 32  1  0
 32 33  1  0
 33 34  2  0
 34 35  1  0
 35 36  2  0
 36 37  1  0
 37 38  2  0
 31  2  1  0
 38 33  1  0
 10  5  2  0
 30 16  1  0
 27 22  1  0
  1 39  1  0
  1 40  1  0
  4 41  1  0
 11 42  1  0
 12 43  1  0
 17 44  1  0
 17 45  1  0
 18 46  1  0
 18 47  1  0
 23 48  1  0
 24 49  1  0
 25 50  1  0
 26 51  1  0
 29 52  1  0
 29 53  1  0
 30 54  1  0
 30 55  1  0
 32 56  1  0
 32 57  1  0
 34 58  1  0
 35 59  1  0
 36 60  1  0
 37 61  1  0
 38 62  1  0
M  CHG  2   6  -1   9  -1
M  END
>  <UniqueID>  (65) 
62

>  <SMILES>  (65) 
C=c1c(=Cc2[n-]c(=O)[n-]c2O)cc(C(=O)N2CCN(C(=O)c3ccccc3F)CC2)n1Cc1ccccc1

>  <Energy>  (65) 
149.96869289833515

>  <Genealogy>  (65) 
C=c1c(=Cc2[n-]c(=O)[n-]c2O)cc(C(=O)N2CCN(C(=O)c3ccccc3F)CC2)n1Cc1ccccc1 (protonated)
C=c1c(=Cc2[n-]c(=O)[n-]c2O)cc(C(=O)N2CCN(C(=O)c3ccccc3F)CC2)n1Cc1ccccc1 (3D coordinates assigned)
C=c1c(=Cc2[n-]c(=O)[n-]c2O)cc(C(=O)N2CCN(C(=O)c3ccccc3F)CC2)n1Cc1ccccc1 (nonaromatic ring conformer: 149.96869289833515 kcal/mol)

>  <smiles>  (65) 
C=c1c(=Cc2[nH]c(=O)[nH]c2O)cc(C(=O)N2CCN(C(=O)c3ccccc3F)CC2)n1Cc1ccccc1

>  <score_type>  (65) 
oracle

>  <origin>  (65) 
adg

>  <m_score__min__energy>  (65) 
-13.74

>  <m_primary>  (65) 
energy

$$$$
65:0
     RDKit          3D

 54 58  0  0  0  0  0  0  0  0999 V2000
   58.6579   31.4272   44.8380 H   0  0  0  0  0  0  0  0  0  0  0  0
   58.1910   30.4560   45.0590 C   0  0  0  0  0  0  0  0  0  0  0  0
   57.4373   30.0396   44.3745 H   0  0  0  0  0  0  0  0  0  0  0  0
   58.5410   29.7790   46.1640 C   0  0  0  0  0  0  0  0  0  0  0  0
   58.0370   28.5400   46.5750 C   0  0  0  0  0  0  0  0  0  0  0  0
   57.1150   27.7850   45.9470 C   0  0  0  0  0  0  0  0  0  0  0  0
   56.6066   28.2132   45.0705 H   0  0  0  0  0  0  0  0  0  0  0  0
   56.7460   26.4200   46.3630 C   0  0  0  0  0  0  0  0  0  0  0  0
   57.6290   25.5380   46.8630 N   0  0  0  0  0  0  0  0  0  0  0  0
   56.8970   24.4150   47.0220 C   0  0  0  0  0  0  0  0  0  0  0  0
   57.3810   23.3510   47.4900 O   0  0  0  0  0  0  0  0  0  0  0  0
   55.6100   24.5170   46.6300 N   0  0  0  0  0  0  0  0  0  0  0  0
   55.5320   25.7880   46.2030 C   0  0  0  0  0  0  0  0  0  0  0  0
   54.3890   26.3390   45.6360 O   0  0  0  0  0  0  0  0  0  0  0  0
   58.7290   28.2030   47.7320 C   0  0  0  0  0  0  0  0  0  0  0  0
   58.6071   27.2859   48.3271 H   0  0  0  0  0  0  0  0  0  0  0  0
   59.5990   29.2430   47.9890 C   0  0  0  0  0  0  0  0  0  0  0  0
   60.5680   29.2810   49.1320 C   0  0  0  0  0  0  0  0  0  0  0  0
   60.0148   29.2593   50.0825 H   0  0  0  0  0  0  0  0  0  0  0  0
   61.2353   28.4083   49.0761 H   0  0  0  0  0  0  0  0  0  0  0  0
   61.1649   30.2032   49.0761 H   0  0  0  0  0  0  0  0  0  0  0  0
   59.4850   30.1990   47.0420 N   0  0  0  0  0  0  0  0  0  0  0  0
   60.2410   31.4200   46.9910 C   0  0  0  0  0  0  0  0  0  0  0  0
   61.6130   31.5230   47.0870 C   0  0  0  0  0  0  0  0  0  0  0  0
   62.3367   30.7027   47.2026 H   0  0  0  0  0  0  0  0  0  0  0  0
   61.8860   32.8770   47.0070 C   0  0  0  0  0  0  0  0  0  0  0  0
   63.2360   33.4630   47.0730 C   0  0  0  0  0  0  0  0  0  0  0  0
   63.7440   33.9430   46.0260 O   0  0  0  0  0  0  0  0  0  0  0  0
   63.9750   33.5520   48.3000 N   0  0  0  0  0  0  0  0  0  0  0  0
   63.4040   33.6310   49.6440 C   0  0  0  0  0  0  0  0  0  0  0  0
   64.1601   34.1168   50.2783 H   0  0  0  0  0  0  0  0  0  0  0  0
   63.0630   32.2280   50.2040 C   0  0  0  0  0  0  0  0  0  0  0  0
   63.0986   31.4691   49.4085 H   0  0  0  0  0  0  0  0  0  0  0  0
   63.7742   31.8921   50.9730 H   0  0  0  0  0  0  0  0  0  0  0  0
   61.6860   32.3820   50.7250 C   0  0  0  0  0  0  0  0  0  0  0  0
   60.9520   31.4330   51.4410 C   0  0  0  0  0  0  0  0  0  0  0  0
   61.3913   30.4560   51.6910 H   0  0  0  0  0  0  0  0  0  0  0  0
   59.6430   31.7510   51.8350 C   0  0  0  0  0  0  0  0  0  0  0  0
   59.0483   31.0207   52.4033 H   0  0  0  0  0  0  0  0  0  0  0  0
   59.0900   33.0010   51.5050 C   0  0  0  0  0  0  0  0  0  0  0  0
   58.0641   33.2465   51.8169 H   0  0  0  0  0  0  0  0  0  0  0  0
   59.8430   33.9360   50.7790 C   0  0  0  0  0  0  0  0  0  0  0  0
   59.4153   34.9135   50.5115 H   0  0  0  0  0  0  0  0  0  0  0  0
   61.1470   33.6020   50.4020 C   0  0  0  0  0  0  0  0  0  0  0  0
   62.0860   34.4360   49.6200 C   0  0  0  0  0  0  0  0  0  0  0  0
   61.7267   34.5683   48.5888 H   0  0  0  0  0  0  0  0  0  0  0  0
   62.1995   35.4491   50.0331 H   0  0  0  0  0  0  0  0  0  0  0  0
   60.7440   33.5890   46.9050 N   0  0  0  0  0  0  0  0  0  0  0  0
   60.6480   34.6280   46.8960 H   0  0  0  0  0  0  0  0  0  0  0  0
   59.7320   32.7010   46.9040 C   0  0  0  0  0  0  0  0  0  0  0  0
   58.2890   33.0850   46.8210 C   0  0  0  0  0  0  0  0  0  0  0  0
   57.8796   33.1939   47.8361 H   0  0  0  0  0  0  0  0  0  0  0  0
   58.1940   34.0397   46.2829 H   0  0  0  0  0  0  0  0  0  0  0  0
   57.7321   32.3038   46.2829 H   0  0  0  0  0  0  0  0  0  0  0  0
  1  2  1  0
  2  3  1  0
  2  4  2  0
  4  5  1  0
  5  6  2  0
  6  7  1  0
  6  8  1  0
  8  9  1  0
  9 10  1  0
 10 11  2  0
 10 12  1  0
 12 13  1  0
 13 14  1  0
  5 15  1  0
 15 16  1  0
 15 17  2  0
 17 18  1  0
 18 19  1  0
 18 20  1  0
 18 21  1  0
 17 22  1  0
 22 23  1  0
 23 24  1  0
 24 25  1  0
 24 26  2  0
 26 27  1  0
 27 28  2  0
 27 29  1  0
 29 30  1  0
 30 31  1  0
 30 32  1  0
 32 33  1  0
 32 34  1  0
 32 35  1  0
 35 36  2  0
 36 37  1  0
 36 38  1  0
 38 39  1  0
 38 40  2  0
 40 41  1  0
 40 42  1  0
 42 43  1  0
 42 44  2  0
 44 45  1  0
 45 46  1  0
 45 47  1  0
 26 48  1  0
 48 49  1  0
 48 50  1  0
 50 51  1  0
 51 52  1  0
 51 53  1  0
 51 54  1  0
 22  4  1  0
 50 23  2  0
 13  8  2  0
 45 30  1  0
 44 35  1  0
M  CHG  4   9  -1  12  -1  14  -1  29  -1
M  END
>  <UniqueID>  (66) 
63

>  <SMILES>  (66) 
C=c1/c(=C/c2[n-]c(=O)[n-]c2[O-])cc(C)n1-c1cc(C(=O)[N-]C2Cc3ccccc3C2)[nH]c1C

>  <Energy>  (66) 
165.6158240074727

>  <Genealogy>  (66) 
C=c1c(=Cc2[n-]c(=O)[n-]c2[O-])cc(C)n1-c1cc(C(=O)[N-]C2Cc3ccccc3C2)[nH]c1C (protonated)
C=c1/c(=C/c2[n-]c(=O)[n-]c2[O-])cc(C)n1-c1cc(C(=O)[N-]C2Cc3ccccc3C2)[nH]c1C (cis-trans isomerization)
C=c1/c(=C/c2[n-]c(=O)[n-]c2[O-])cc(C)n1-c1cc(C(=O)[N-]C2Cc3ccccc3C2)[nH]c1C (3D coordinates assigned)
C=c1/c(=C/c2[n-]c(=O)[n-]c2[O-])cc(C)n1-c1cc(C(=O)[N-]C2Cc3ccccc3C2)[nH]c1C (nonaromatic ring conformer: 165.6158240074727 kcal/mol)

>  <smiles>  (66) 
C=c1c(=Cc2[nH]c(=O)[nH]c2O)cc(C)n1-c1cc(C(=O)NC2Cc3ccccc3C2)[nH]c1C

>  <score_type>  (66) 
oracle

>  <origin>  (66) 
adg

>  <m_score__min__energy>  (66) 
-18.539999999999999

>  <m_primary>  (66) 
energy

$$$$
66:0
     RDKit          3D

 55 59  0  0  0  0  0  0  0  0999 V2000
   60.3610   35.4380   46.3360 O   0  0  0  0  0  0  0  0  0  0  0  0
   60.2640   34.4220   47.0800 C   0  0  0  0  0  0  0  0  0  0  0  0
   58.8900   33.9080   47.4280 C   0  0  0  0  0  0  0  0  0  0  0  0
   58.4460   32.9040   46.4480 N   0  0  0  0  0  0  0  0  0  0  0  0
   57.9800   33.3230   45.2240 C   0  0  0  0  0  0  0  0  0  0  0  0
   57.5800   32.4250   44.2840 N   0  0  0  0  0  0  0  0  0  0  0  0
   57.6620   31.1050   44.5590 C   0  0  0  0  0  0  0  0  0  0  0  0
   57.1920   29.8470   43.5530 S   0  0  0  0  0  0  0  0  0  0  0  0
   57.6210   28.6460   44.6610 C   0  0  0  0  0  0  0  0  0  0  0  0
   58.1370   29.2180   45.8180 C   0  0  0  0  0  0  0  0  0  0  0  0
   58.1410   30.6280   45.7630 C   0  0  0  0  0  0  0  0  0  0  0  0
   58.5370   31.5600   46.7340 C   0  0  0  0  0  0  0  0  0  0  0  0
   58.9660   31.1740   47.8550 O   0  0  0  0  0  0  0  0  0  0  0  0
   58.5290   28.3550   46.9780 C   0  0  0  0  0  0  0  0  0  0  0  0
   58.9830   26.9730   46.4910 C   0  0  0  0  0  0  0  0  0  0  0  0
   58.0240   26.3720   45.5430 N   0  0  0  0  0  0  0  0  0  0  0  0
   57.8500   24.9370   45.4740 C   0  0  0  0  0  0  0  0  0  0  0  0
   58.3650   24.2090   46.3660 O   0  0  0  0  0  0  0  0  0  0  0  0
   57.0170   24.2680   44.4090 C   0  0  0  0  0  0  0  0  0  0  0  0
   55.6290   24.0080   44.9110 C   0  0  0  0  0  0  0  0  0  0  0  0
   54.9570   22.8620   44.6920 N   0  0  0  0  0  0  0  0  0  0  0  0
   53.7610   23.0850   45.2790 C   0  0  0  0  0  0  0  0  0  0  0  0
   52.8420   22.2260   45.2930 O   0  0  0  0  0  0  0  0  0  0  0  0
   53.6270   24.3020   45.8480 N   0  0  0  0  0  0  0  0  0  0  0  0
   54.8170   24.8770   45.6040 C   0  0  0  0  0  0  0  0  0  0  0  0
   55.1540   26.1650   46.0070 O   0  0  0  0  0  0  0  0  0  0  0  0
   57.3910   27.1780   44.4800 C   0  0  0  0  0  0  0  0  0  0  0  0
   61.4570   33.8120   47.6160 N   0  0  0  0  0  0  0  0  0  0  0  0
   62.7650   34.1300   47.0230 C   0  0  0  0  0  0  0  0  0  0  0  0
   63.6890   32.9100   47.1000 C   0  0  0  0  0  0  0  0  0  0  0  0
   63.8450   32.3660   48.5350 C   0  0  0  0  0  0  0  0  0  0  0  0
   62.7560   32.8560   49.5050 C   0  0  0  0  0  0  0  0  0  0  0  0
   61.3880   32.9680   48.8220 C   0  0  0  0  0  0  0  0  0  0  0  0
   58.9187   33.4490   48.4273 H   0  0  0  0  0  0  0  0  0  0  0  0
   58.1835   34.7511   47.4150 H   0  0  0  0  0  0  0  0  0  0  0  0
   57.9300   34.3992   45.0020 H   0  0  0  0  0  0  0  0  0  0  0  0
   59.3543   28.8355   47.5239 H   0  0  0  0  0  0  0  0  0  0  0  0
   57.6585   28.2307   47.6388 H   0  0  0  0  0  0  0  0  0  0  0  0
   59.9575   27.0762   45.9912 H   0  0  0  0  0  0  0  0  0  0  0  0
   59.0501   26.3118   47.3675 H   0  0  0  0  0  0  0  0  0  0  0  0
   56.9655   24.9222   43.5262 H   0  0  0  0  0  0  0  0  0  0  0  0
   57.4841   23.3079   44.1443 H   0  0  0  0  0  0  0  0  0  0  0  0
   55.1440   26.4180   46.9880 H   0  0  0  0  0  0  0  0  0  0  0  0
   57.8086   26.8724   43.5093 H   0  0  0  0  0  0  0  0  0  0  0  0
   56.3063   27.0010   44.5269 H   0  0  0  0  0  0  0  0  0  0  0  0
   62.6271   34.4160   45.9698 H   0  0  0  0  0  0  0  0  0  0  0  0
   63.2202   34.9620   47.5804 H   0  0  0  0  0  0  0  0  0  0  0  0
   63.2726   32.1135   46.4658 H   0  0  0  0  0  0  0  0  0  0  0  0
   64.6847   33.2273   46.7567 H   0  0  0  0  0  0  0  0  0  0  0  0
   63.8062   31.2674   48.4959 H   0  0  0  0  0  0  0  0  0  0  0  0
   64.8067   32.7391   48.9170 H   0  0  0  0  0  0  0  0  0  0  0  0
   62.6787   32.1451   50.3409 H   0  0  0  0  0  0  0  0  0  0  0  0
   63.0420   33.8571   49.8599 H   0  0  0  0  0  0  0  0  0  0  0  0
   61.0474   31.9620   48.5358 H   0  0  0  0  0  0  0  0  0  0  0  0
   60.6846   33.4316   49.5294 H   0  0  0  0  0  0  0  0  0  0  0  0
  1  2  2  0
  2  3  1  0
  3  4  1  0
  4  5  1  0
  5  6  2  0
  6  7  1  0
  7  8  1  0
  8  9  1  0
  9 10  2  0
 10 11  1  0
 11 12  1  0
 12 13  2  0
 10 14  1  0
 14 15  1  0
 15 16  1  0
 16 17  1  0
 17 18  2  0
 17 19  1  0
 19 20  1  0
 20 21  1  0
 21 22  1  0
 22 23  2  0
 22 24  1  0
 24 25  1  0
 25 26  1  0
 16 27  1  0
  2 28  1  0
 28 29  1  0
 29 30  1  0
 30 31  1  0
 31 32  1  0
 32 33  1  0
 12  4  1  0
 25 20  2  0
 33 28  1  0
 11  7  2  0
 27  9  1  0
  3 34  1  0
  3 35  1  0
  5 36  1  0
 14 37  1  0
 14 38  1  0
 15 39  1  0
 15 40  1  0
 19 41  1  0
 19 42  1  0
 26 43  1  0
 27 44  1  0
 27 45  1  0
 29 46  1  0
 29 47  1  0
 30 48  1  0
 30 49  1  0
 31 50  1  0
 31 51  1  0
 32 52  1  0
 32 53  1  0
 33 54  1  0
 33 55  1  0
M  CHG  2  21  -1  24  -1
M  END
>  <UniqueID>  (67) 
64

>  <SMILES>  (67) 
O=C(Cn1cnc2sc3c(c2c1=O)CCN(C(=O)Cc1[n-]c(=O)[n-]c1O)C3)N1CCCCC1

>  <Energy>  (67) 
128.51513193749923

>  <Genealogy>  (67) 
O=C(Cn1cnc2sc3c(c2c1=O)CCN(C(=O)Cc1[n-]c(=O)[n-]c1O)C3)N1CCCCC1 (protonated)
O=C(Cn1cnc2sc3c(c2c1=O)CCN(C(=O)Cc1[n-]c(=O)[n-]c1O)C3)N1CCCCC1 (3D coordinates assigned)
O=C(Cn1cnc2sc3c(c2c1=O)CCN(C(=O)Cc1[n-]c(=O)[n-]c1O)C3)N1CCCCC1 (nonaromatic ring conformer: 128.51513193749923 kcal/mol)

>  <smiles>  (67) 
O=C(Cn1cnc2sc3c(c2c1=O)CCN(C(=O)Cc1[nH]c(=O)[nH]c1O)C3)N1CCCCC1

>  <score_type>  (67) 
oracle

>  <origin>  (67) 
adg

>  <m_score__min__energy>  (67) 
-14.17

>  <m_primary>  (67) 
energy

$$$$
67:0
     RDKit          3D

 71 74  0  0  0  0  0  0  0  0999 V2000
   58.0510   26.5380   42.7240 C   0  0  0  0  0  0  0  0  0  0  0  0
   57.7370   27.3230   43.8690 O   0  0  0  0  0  0  0  0  0  0  0  0
   57.5580   28.7160   43.8550 C   0  0  0  0  0  0  0  0  0  0  0  0
   56.8020   29.3580   42.8550 C   0  0  0  0  0  0  0  0  0  0  0  0
   56.6610   30.7490   42.8580 C   0  0  0  0  0  0  0  0  0  0  0  0
   57.2710   31.5110   43.8530 C   0  0  0  0  0  0  0  0  0  0  0  0
   58.0200   30.8870   44.8510 C   0  0  0  0  0  0  0  0  0  0  0  0
   58.1650   29.4900   44.8630 C   0  0  0  0  0  0  0  0  0  0  0  0
   58.9260   28.8650   45.9110 N   0  0  0  0  0  0  0  0  0  0  0  0
   60.3600   29.1380   46.0520 C   0  0  0  0  0  0  0  0  0  0  0  0
   60.6610   29.7290   47.4430 C   0  0  0  0  0  0  0  0  0  0  0  0
   59.7300   29.2550   48.4990 N   0  0  0  0  0  0  0  0  0  0  0  0
   60.5180   29.2110   50.0610 S   0  0  0  0  0  0  0  0  0  0  0  0
   61.4550   28.0370   50.0660 O   0  0  0  0  0  0  0  0  0  0  0  0
   59.4870   29.0040   51.1380 O   0  0  0  0  0  0  0  0  0  0  0  0
   61.4300   30.6840   50.4250 C   0  0  0  0  0  0  0  0  0  0  0  0
   62.7820   30.7660   50.7100 C   0  0  0  0  0  0  0  0  0  0  0  0
   63.1340   32.0560   50.8720 N   0  0  0  0  0  0  0  0  0  0  0  0
   64.4570   32.5410   51.2500 C   0  0  0  0  0  0  0  0  0  0  0  0
   65.2900   32.7570   50.0180 C   0  0  0  0  0  0  0  0  0  0  0  0
   66.7880   32.7870   50.0860 C   0  0  0  0  0  0  0  0  0  0  0  0
   64.7370   32.9350   48.9440 O   0  0  0  0  0  0  0  0  0  0  0  0
   62.0310   32.8090   50.6950 C   0  0  0  0  0  0  0  0  0  0  0  0
   60.9570   31.9910   50.4110 C   0  0  0  0  0  0  0  0  0  0  0  0
   59.3340   32.5470   50.0150 S   0  0  0  0  0  0  0  0  0  0  0  0
   58.3980   31.3720   50.0870 O   0  0  0  0  0  0  0  0  0  0  0  0
   58.8990   33.5990   50.9960 O   0  0  0  0  0  0  0  0  0  0  0  0
   59.3310   33.2090   48.3970 N   0  0  0  0  0  0  0  0  0  0  0  0
   60.5110   32.7410   47.6550 C   0  0  0  0  0  0  0  0  0  0  0  0
   60.3650   33.0780   46.1620 C   0  0  0  0  0  0  0  0  0  0  0  0
   59.5290   34.3590   45.9100 C   0  0  0  0  0  0  0  0  0  0  0  0
   58.0590   34.0270   45.6050 C   0  0  0  0  0  0  0  0  0  0  0  0
   59.6500   35.3380   47.0940 C   0  0  0  0  0  0  0  0  0  0  0  0
   59.2950   34.6850   48.4520 C   0  0  0  0  0  0  0  0  0  0  0  0
   59.1030   27.9520   48.1970 C   0  0  0  0  0  0  0  0  0  0  0  0
   58.2430   28.0610   46.9310 C   0  0  0  0  0  0  0  0  0  0  0  0
   58.4417   25.5612   43.0451 H   0  0  0  0  0  0  0  0  0  0  0  0
   57.1431   26.3895   42.1210 H   0  0  0  0  0  0  0  0  0  0  0  0
   58.8109   27.0566   42.1210 H   0  0  0  0  0  0  0  0  0  0  0  0
   56.3195   28.7614   42.0668 H   0  0  0  0  0  0  0  0  0  0  0  0
   56.0679   31.2427   42.0741 H   0  0  0  0  0  0  0  0  0  0  0  0
   57.1617   32.6056   43.8514 H   0  0  0  0  0  0  0  0  0  0  0  0
   58.5001   31.4930   45.6335 H   0  0  0  0  0  0  0  0  0  0  0  0
   60.9213   28.2002   45.9276 H   0  0  0  0  0  0  0  0  0  0  0  0
   60.6618   29.8645   45.2831 H   0  0  0  0  0  0  0  0  0  0  0  0
   61.6850   29.4458   47.7281 H   0  0  0  0  0  0  0  0  0  0  0  0
   60.5374   30.8193   47.3664 H   0  0  0  0  0  0  0  0  0  0  0  0
   58.9600   29.9610   48.5880 H   0  0  0  0  0  0  0  0  0  0  0  0
   63.4653   29.9079   50.7918 H   0  0  0  0  0  0  0  0  0  0  0  0
   64.3560   33.4917   51.7940 H   0  0  0  0  0  0  0  0  0  0  0  0
   64.9470   31.7961   51.8943 H   0  0  0  0  0  0  0  0  0  0  0  0
   67.1072   32.7934   51.1386 H   0  0  0  0  0  0  0  0  0  0  0  0
   67.1957   31.8968   49.5846 H   0  0  0  0  0  0  0  0  0  0  0  0
   67.1597   33.6928   49.5846 H   0  0  0  0  0  0  0  0  0  0  0  0
   61.9927   33.9060   50.7659 H   0  0  0  0  0  0  0  0  0  0  0  0
   61.4101   33.2342   48.0530 H   0  0  0  0  0  0  0  0  0  0  0  0
   60.5996   31.6507   47.7707 H   0  0  0  0  0  0  0  0  0  0  0  0
   61.3684   33.2246   45.7358 H   0  0  0  0  0  0  0  0  0  0  0  0
   59.8354   32.2399   45.6854 H   0  0  0  0  0  0  0  0  0  0  0  0
   59.9408   34.8544   45.0184 H   0  0  0  0  0  0  0  0  0  0  0  0
   57.5078   33.9025   46.5487 H   0  0  0  0  0  0  0  0  0  0  0  0
   57.6109   34.8466   45.0240 H   0  0  0  0  0  0  0  0  0  0  0  0
   58.0066   33.0944   45.0240 H   0  0  0  0  0  0  0  0  0  0  0  0
   60.6855   35.7060   47.1412 H   0  0  0  0  0  0  0  0  0  0  0  0
   58.9337   36.1549   46.9224 H   0  0  0  0  0  0  0  0  0  0  0  0
   60.0173   35.0275   49.2076 H   0  0  0  0  0  0  0  0  0  0  0  0
   58.2682   34.9848   48.7086 H   0  0  0  0  0  0  0  0  0  0  0  0
   59.8885   27.1982   48.0394 H   0  0  0  0  0  0  0  0  0  0  0  0
   58.4638   27.6558   49.0418 H   0  0  0  0  0  0  0  0  0  0  0  0
   58.0572   27.0528   46.5321 H   0  0  0  0  0  0  0  0  0  0  0  0
   57.2916   28.5491   47.1892 H   0  0  0  0  0  0  0  0  0  0  0  0
  1  2  1  0
  2  3  1  0
  3  4  2  0
  4  5  1  0
  5  6  2  0
  6  7  1  0
  7  8  2  0
  8  9  1  0
  9 10  1  0
 10 11  1  0
 11 12  1  0
 12 13  1  0
 13 14  2  0
 13 15  2  0
 13 16  1  0
 16 17  2  0
 17 18  1  0
 18 19  1  0
 19 20  1  0
 20 21  1  0
 20 22  2  0
 18 23  1  0
 23 24  2  0
 24 25  1  0
 25 26  2  0
 25 27  2  0
 25 28  1  0
 28 29  1  0
 29 30  1  0
 30 31  1  0
 31 32  1  0
 31 33  1  0
 33 34  1  0
 12 35  1  0
 35 36  1  0
  8  3  1  0
 36  9  1  0
 24 16  1  0
 34 28  1  0
  1 37  1  0
  1 38  1  0
  1 39  1  0
  4 40  1  0
  5 41  1  0
  6 42  1  0
  7 43  1  0
 10 44  1  0
 10 45  1  0
 11 46  1  0
 11 47  1  0
 12 48  1  0
 17 49  1  0
 19 50  1  0
 19 51  1  0
 21 52  1  0
 21 53  1  0
 21 54  1  0
 23 55  1  0
 29 56  1  0
 29 57  1  0
 30 58  1  0
 30 59  1  0
 31 60  1  0
 32 61  1  0
 32 62  1  0
 32 63  1  0
 33 64  1  0
 33 65  1  0
 34 66  1  0
 34 67  1  0
 35 68  1  0
 35 69  1  0
 36 70  1  0
 36 71  1  0
M  CHG  1  12   1
M  END
>  <UniqueID>  (68) 
65

>  <SMILES>  (68) 
COc1ccccc1N1CC[NH+](S(=O)(=O)c2cn(CC(C)=O)cc2S(=O)(=O)N2CCC(C)CC2)CC1

>  <Energy>  (68) 
107.35736211754667

>  <Genealogy>  (68) 
COc1ccccc1N1CC[NH+](S(=O)(=O)c2cn(CC(C)=O)cc2S(=O)(=O)N2CCC(C)CC2)CC1 (protonated)
COc1ccccc1N1CC[NH+](S(=O)(=O)c2cn(CC(C)=O)cc2S(=O)(=O)N2CCC(C)CC2)CC1 (3D coordinates assigned)
COc1ccccc1N1CC[NH+](S(=O)(=O)c2cn(CC(C)=O)cc2S(=O)(=O)N2CCC(C)CC2)CC1 (nonaromatic ring conformer: 107.35736211754667 kcal/mol)

>  <smiles>  (68) 
COc1ccccc1N1CCN(S(=O)(=O)c2cn(CC(C)=O)cc2S(=O)(=O)N2CCC(C)CC2)CC1

>  <score_type>  (68) 
oracle

>  <origin>  (68) 
adg

>  <m_score__min__energy>  (68) 
-7.6699999999999999

>  <m_primary>  (68) 
energy

$$$$
68:0
     RDKit          3D

 56 59  0  0  0  0  0  0  0  0999 V2000
   62.5020   29.0950   51.2650 C   0  0  0  0  0  0  0  0  0  0  0  0
   62.8110   30.3910   51.2700 C   0  0  0  0  0  0  0  0  0  0  0  0
   62.8360   31.2230   50.0460 C   0  0  0  0  0  0  0  0  0  0  0  0
   63.9830   31.9900   49.8060 C   0  0  0  0  0  0  0  0  0  0  0  0
   64.0600   32.8130   48.6880 C   0  0  0  0  0  0  0  0  0  0  0  0
   63.0140   32.8490   47.7710 C   0  0  0  0  0  0  0  0  0  0  0  0
   61.8770   32.0380   47.9370 C   0  0  0  0  0  0  0  0  0  0  0  0
   60.8220   32.0550   46.8380 C   0  0  0  0  0  0  0  0  0  0  0  0
   59.8520   30.9290   46.9030 N   0  0  0  0  0  0  0  0  0  0  0  0
   58.4520   31.3630   46.7130 C   0  0  0  0  0  0  0  0  0  0  0  0
   58.1760   31.6170   45.2540 C   0  0  0  0  0  0  0  0  0  0  0  0
   57.4730   30.6680   44.4970 C   0  0  0  0  0  0  0  0  0  0  0  0
   57.2170   30.8920   43.1410 C   0  0  0  0  0  0  0  0  0  0  0  0
   57.6710   32.0660   42.5220 C   0  0  0  0  0  0  0  0  0  0  0  0
   57.3600   32.3280   41.0780 C   0  0  0  0  0  0  0  0  0  0  0  0
   58.3560   33.0260   43.2820 C   0  0  0  0  0  0  0  0  0  0  0  0
   58.6130   32.8000   44.6370 C   0  0  0  0  0  0  0  0  0  0  0  0
   60.1900   29.7800   46.0300 C   0  0  0  0  0  0  0  0  0  0  0  0
   59.5050   28.5090   46.4790 C   0  0  0  0  0  0  0  0  0  0  0  0
   58.2480   28.1780   45.9480 C   0  0  0  0  0  0  0  0  0  0  0  0
   57.5960   27.0090   46.3560 C   0  0  0  0  0  0  0  0  0  0  0  0
   56.3600   26.6340   45.8060 C   0  0  0  0  0  0  0  0  0  0  0  0
   55.7370   25.4530   46.2260 C   0  0  0  0  0  0  0  0  0  0  0  0
   54.5170   25.0800   45.6770 O   0  0  0  0  0  0  0  0  0  0  0  0
   56.3420   24.6470   47.1970 C   0  0  0  0  0  0  0  0  0  0  0  0
   57.5720   25.0180   47.7530 C   0  0  0  0  0  0  0  0  0  0  0  0
   58.2030   26.1950   47.3340 C   0  0  0  0  0  0  0  0  0  0  0  0
   59.3960   26.5580   47.8740 N   0  0  0  0  0  0  0  0  0  0  0  0
   60.0490   27.6860   47.4860 C   0  0  0  0  0  0  0  0  0  0  0  0
   61.1420   27.9830   48.0390 O   0  0  0  0  0  0  0  0  0  0  0  0
   61.7730   31.2360   49.1110 C   0  0  0  0  0  0  0  0  0  0  0  0
   60.6530   30.4410   49.3750 O   0  0  0  0  0  0  0  0  0  0  0  0
   62.4998   28.5265   52.2067 H   0  0  0  0  0  0  0  0  0  0  0  0
   62.2491   28.5935   50.3192 H   0  0  0  0  0  0  0  0  0  0  0  0
   63.0597   30.8659   52.2306 H   0  0  0  0  0  0  0  0  0  0  0  0
   64.8292   31.9409   50.5071 H   0  0  0  0  0  0  0  0  0  0  0  0
   64.9510   33.4379   48.5278 H   0  0  0  0  0  0  0  0  0  0  0  0
   63.0774   33.5219   46.9032 H   0  0  0  0  0  0  0  0  0  0  0  0
   60.2607   32.9980   46.9138 H   0  0  0  0  0  0  0  0  0  0  0  0
   61.3596   31.9529   45.8837 H   0  0  0  0  0  0  0  0  0  0  0  0
   57.7756   30.5763   47.0785 H   0  0  0  0  0  0  0  0  0  0  0  0
   58.2868   32.2938   47.2754 H   0  0  0  0  0  0  0  0  0  0  0  0
   57.1208   29.7413   44.9736 H   0  0  0  0  0  0  0  0  0  0  0  0
   56.6579   30.1455   42.5578 H   0  0  0  0  0  0  0  0  0  0  0  0
   56.5205   33.0352   41.0062 H   0  0  0  0  0  0  0  0  0  0  0  0
   58.2444   32.7573   40.5845 H   0  0  0  0  0  0  0  0  0  0  0  0
   57.0871   31.3836   40.5845 H   0  0  0  0  0  0  0  0  0  0  0  0
   58.6922   33.9606   42.8093 H   0  0  0  0  0  0  0  0  0  0  0  0
   59.1605   33.5528   45.2231 H   0  0  0  0  0  0  0  0  0  0  0  0
   59.8741   30.0099   45.0017 H   0  0  0  0  0  0  0  0  0  0  0  0
   61.2767   29.6188   46.0848 H   0  0  0  0  0  0  0  0  0  0  0  0
   57.7740   28.8401   45.2085 H   0  0  0  0  0  0  0  0  0  0  0  0
   55.8813   27.2681   45.0452 H   0  0  0  0  0  0  0  0  0  0  0  0
   55.8497   23.7194   47.5242 H   0  0  0  0  0  0  0  0  0  0  0  0
   58.0426   24.3845   48.5192 H   0  0  0  0  0  0  0  0  0  0  0  0
   60.2250   29.8040   48.7210 H   0  0  0  0  0  0  0  0  0  0  0  0
  1  2  2  0
  2  3  1  0
  3  4  2  0
  4  5  1  0
  5  6  2  0
  6  7  1  0
  7  8  1  0
  8  9  1  0
  9 10  1  0
 10 11  1  0
 11 12  2  0
 12 13  1  0
 13 14  2  0
 14 15  1  0
 14 16  1  0
 16 17  2  0
  9 18  1  0
 18 19  1  0
 19 20  2  0
 20 21  1  0
 21 22  2  0
 22 23  1  0
 23 24  1  0
 23 25  2  0
 25 26  1  0
 26 27  2  0
 27 28  1  0
 28 29  1  0
 29 30  2  0
  7 31  2  0
 31 32  1  0
 31  3  1  0
 17 11  1  0
 29 19  1  0
 27 21  1  0
  1 33  1  0
  1 34  1  0
  2 35  1  0
  4 36  1  0
  5 37  1  0
  6 38  1  0
  8 39  1  0
  8 40  1  0
 10 41  1  0
 10 42  1  0
 12 43  1  0
 13 44  1  0
 15 45  1  0
 15 46  1  0
 15 47  1  0
 16 48  1  0
 17 49  1  0
 18 50  1  0
 18 51  1  0
 20 52  1  0
 22 53  1  0
 25 54  1  0
 26 55  1  0
 32 56  1  0
M  CHG  2  24  -1  28  -1
M  END
>  <UniqueID>  (69) 
66

>  <SMILES>  (69) 
C=Cc1cccc(CN(Cc2ccc(C)cc2)Cc2cc3cc([O-])ccc3[n-]c2=O)c1O

>  <Energy>  (69) 
75.71688445656963

>  <Genealogy>  (69) 
C=Cc1cccc(CN(Cc2ccc(C)cc2)Cc2cc3cc([O-])ccc3[n-]c2=O)c1O (protonated)
C=Cc1cccc(CN(Cc2ccc(C)cc2)Cc2cc3cc([O-])ccc3[n-]c2=O)c1O (3D coordinates assigned)
C=Cc1cccc(CN(Cc2ccc(C)cc2)Cc2cc3cc([O-])ccc3[n-]c2=O)c1O (optimized conformer: 75.71688445656963 kcal/mol)

>  <smiles>  (69) 
C=Cc1cccc(CN(Cc2ccc(C)cc2)Cc2cc3cc(O)ccc3[nH]c2=O)c1O

>  <score_type>  (69) 
oracle

>  <origin>  (69) 
adg

>  <m_score__min__energy>  (69) 
-13.17

>  <m_primary>  (69) 
energy

$$$$
69:0
     RDKit          3D

 25 26  0  0  0  0  0  0  0  0999 V2000
   55.9380   28.6050   45.2460 O   0  0  0  0  0  0  0  0  0  0  0  0
   57.0160   28.0580   45.5960 C   0  0  0  0  0  0  0  0  0  0  0  0
   57.0340   26.7500   46.2970 C   0  0  0  0  0  0  0  0  0  0  0  0
   58.1840   26.2500   46.9530 C   0  0  0  0  0  0  0  0  0  0  0  0
   59.3800   27.0340   47.0830 N   0  0  0  0  0  0  0  0  0  0  0  0
   59.4230   28.1530   48.0250 C   0  0  0  0  0  0  0  0  0  0  0  0
   59.4130   29.4660   47.2320 C   0  0  0  0  0  0  0  0  0  0  0  0
   60.4620   29.4860   46.2790 O   0  0  0  0  0  0  0  0  0  0  0  0
   60.2730   28.4590   45.3200 C   0  0  0  0  0  0  0  0  0  0  0  0
   60.3430   27.0770   45.9810 C   0  0  0  0  0  0  0  0  0  0  0  0
   58.1490   25.0120   47.5160 N   0  0  0  0  0  0  0  0  0  0  0  0
   57.0310   24.2480   47.4790 C   0  0  0  0  0  0  0  0  0  0  0  0
   57.0310   23.1070   48.0100 O   0  0  0  0  0  0  0  0  0  0  0  0
   55.9100   24.7150   46.8780 N   0  0  0  0  0  0  0  0  0  0  0  0
   55.8830   25.9390   46.2920 C   0  0  0  0  0  0  0  0  0  0  0  0
   54.8210   26.3280   45.7360 O   0  0  0  0  0  0  0  0  0  0  0  0
   57.9689   28.5620   45.3768 H   0  0  0  0  0  0  0  0  0  0  0  0
   58.5449   28.1137   48.6864 H   0  0  0  0  0  0  0  0  0  0  0  0
   60.3352   28.0923   48.6368 H   0  0  0  0  0  0  0  0  0  0  0  0
   58.4497   29.5649   46.7102 H   0  0  0  0  0  0  0  0  0  0  0  0
   59.5566   30.3021   47.9322 H   0  0  0  0  0  0  0  0  0  0  0  0
   59.2873   28.5834   44.8479 H   0  0  0  0  0  0  0  0  0  0  0  0
   61.0705   28.5298   44.5657 H   0  0  0  0  0  0  0  0  0  0  0  0
   60.0951   26.3005   45.2424 H   0  0  0  0  0  0  0  0  0  0  0  0
   61.3583   26.8956   46.3634 H   0  0  0  0  0  0  0  0  0  0  0  0
  1  2  2  0
  2  3  1  0
  3  4  2  0
  4  5  1  0
  5  6  1  0
  6  7  1  0
  7  8  1  0
  8  9  1  0
  9 10  1  0
  4 11  1  0
 11 12  1  0
 12 13  2  0
 12 14  1  0
 14 15  1  0
 15 16  2  0
 15  3  1  0
 10  5  1  0
  2 17  1  0
  6 18  1  0
  6 19  1  0
  7 20  1  0
  7 21  1  0
  9 22  1  0
  9 23  1  0
 10 24  1  0
 10 25  1  0
M  CHG  2  11  -1  14  -1
M  END
>  <UniqueID>  (70) 
67

>  <SMILES>  (70) 
O=Cc1c(N2CCOCC2)[n-]c(=O)[n-]c1=O

>  <Energy>  (70) 
36.25954274884388

>  <Genealogy>  (70) 
O=Cc1c(N2CCOCC2)[n-]c(=O)[n-]c1=O (protonated)
O=Cc1c(N2CCOCC2)[n-]c(=O)[n-]c1=O (3D coordinates assigned)
O=Cc1c(N2CCOCC2)[n-]c(=O)[n-]c1=O (nonaromatic ring conformer: 36.25954274884388 kcal/mol)

>  <smiles>  (70) 
O=Cc1c(N2CCOCC2)[nH]c(=O)[nH]c1=O

>  <score_type>  (70) 
oracle

>  <origin>  (70) 
adg

>  <m_score__min__energy>  (70) 
-8.8399999999999999

>  <m_primary>  (70) 
energy

$$$$
70:0
     RDKit          3D

 50 53  0  0  1  0  0  0  0  0999 V2000
   62.4930   33.9940   50.0070 N   0  0  0  0  0  0  0  0  0  0  0  0
   61.7270   33.9900   49.1200 C   0  0  0  0  0  0  0  0  0  0  0  0
   60.8050   33.9990   48.0200 C   0  0  0  0  0  0  0  0  0  0  0  0
   59.4340   34.1690   48.2090 C   0  0  0  0  0  0  0  0  0  0  0  0
   58.5630   34.1730   47.1150 C   0  0  0  0  0  0  0  0  0  0  0  0
   59.0730   34.0070   45.8600 C   0  0  0  0  0  0  0  0  0  0  0  0
   58.2800   33.9940   44.6750 N   0  0  0  0  0  0  0  0  0  0  0  0
   57.8600   32.8550   44.1920 C   0  0  0  0  0  0  0  0  0  0  0  0
   57.4690   31.8520   45.0750 C   0  0  0  0  0  0  0  0  0  0  0  0
   57.0360   30.6750   44.5030 C   0  0  0  0  0  0  0  0  0  0  0  0
   56.6010   29.5500   45.2470 N   0  0  0  0  0  0  0  0  0  0  0  0
   57.1090   28.2260   44.9750 C   0  0  0  0  0  0  0  0  0  0  0  0
   57.9430   28.1430   44.0570 O   0  0  0  0  0  0  0  0  0  0  0  0
   56.6570   27.1200   45.7330 N   0  0  0  0  0  0  0  0  0  0  0  0
   57.0680   25.7840   45.5740 C   0  0  0  0  0  0  0  0  0  0  0  0
   56.5800   24.8900   44.6650 C   0  0  0  0  0  0  0  0  0  0  0  0
   57.0290   23.5780   44.5560 C   0  0  0  0  0  0  0  0  0  0  0  0
   58.0230   23.1210   45.3990 C   0  0  0  0  0  0  0  0  0  0  0  0
   58.5140   24.0280   46.3180 C   0  0  0  0  0  0  0  0  0  0  0  0
   58.0670   25.3240   46.4230 C   0  0  0  0  0  0  0  0  0  0  0  0
   58.6280   26.1570   47.3810 O   0  0  0  0  0  0  0  0  0  0  0  0
   59.2810   27.2990   46.9430 C   0  0  0  0  0  0  0  0  0  0  0  0
   60.1510   27.3270   45.8810 C   0  0  0  0  0  0  0  0  0  0  0  0
   60.7570   28.5270   45.5200 C   0  0  0  0  0  0  0  0  0  0  0  0
   60.4840   29.6820   46.2270 C   0  0  0  0  0  0  0  0  0  0  0  0
   59.6130   29.6780   47.2980 C   0  0  0  0  0  0  0  0  0  0  0  0
   59.0260   28.4720   47.6340 C   0  0  0  0  0  0  0  0  0  0  0  0
   57.0090   30.5450   43.1440 N   0  0  0  0  0  0  0  0  0  0  0  0
   57.3920   31.5320   42.3140 C   0  0  0  0  0  0  0  0  0  0  0  0
   57.8210   32.6930   42.8560 N   0  0  0  0  0  0  0  0  0  0  0  0
   60.4500   33.8370   45.6830 C   0  0  0  0  0  0  0  0  0  0  0  0
   61.3250   33.8300   46.7500 C   0  0  0  0  0  0  0  0  0  0  0  0
   59.0349   34.3009   49.2255 H   0  0  0  0  0  0  0  0  0  0  0  0
   57.4815   34.3081   47.2639 H   0  0  0  0  0  0  0  0  0  0  0  0
   57.5036   31.9908   46.1657 H   0  0  0  0  0  0  0  0  0  0  0  0
   55.8850   29.7040   46.0140 H   0  0  0  0  0  0  0  0  0  0  0  0
   55.9410   27.3580   46.4830 H   0  0  0  0  0  0  0  0  0  0  0  0
   55.7873   25.2260   43.9804 H   0  0  0  0  0  0  0  0  0  0  0  0
   56.5939   22.9067   43.8010 H   0  0  0  0  0  0  0  0  0  0  0  0
   58.4032   22.0904   45.3417 H   0  0  0  0  0  0  0  0  0  0  0  0
   59.3067   23.6948   47.0040 H   0  0  0  0  0  0  0  0  0  0  0  0
   60.3678   26.4066   45.3189 H   0  0  0  0  0  0  0  0  0  0  0  0
   61.4547   28.5557   44.6700 H   0  0  0  0  0  0  0  0  0  0  0  0
   60.9701   30.6232   45.9308 H   0  0  0  0  0  0  0  0  0  0  0  0
   59.3947   30.5972   47.8614 H   0  0  0  0  0  0  0  0  0  0  0  0
   58.3286   28.4430   48.4841 H   0  0  0  0  0  0  0  0  0  0  0  0
   57.3568   31.3974   41.2228 H   0  0  0  0  0  0  0  0  0  0  0  0
   58.1090   33.4310   42.1740 H   0  0  0  0  0  0  0  0  0  0  0  0
   60.8463   33.7053   44.6654 H   0  0  0  0  0  0  0  0  0  0  0  0
   62.4054   33.6939   46.5946 H   0  0  0  0  0  0  0  0  0  0  0  0
  1  2  3  0
  2  3  1  0
  3  4  2  0
  4  5  1  0
  5  6  2  0
  6  7  1  0
  7  8  2  0
  8  9  1  0
  9 10  2  0
 10 11  1  0
 11 12  1  0
 12 13  2  0
 12 14  1  0
 14 15  1  0
 15 16  2  0
 16 17  1  0
 17 18  2  0
 18 19  1  0
 19 20  2  0
 20 21  1  0
 21 22  1  0
 22 23  2  0
 23 24  1  0
 24 25  2  0
 25 26  1  0
 26 27  2  0
 10 28  1  0
 28 29  2  0
 29 30  1  0
  6 31  1  0
 31 32  2  0
 32  3  1  0
 30  8  1  0
 20 15  1  0
 27 22  1  0
  4 33  1  0
  5 34  1  0
  9 35  1  0
 11 36  1  0
 14 37  1  0
 16 38  1  0
 17 39  1  0
 18 40  1  0
 19 41  1  0
 23 42  1  0
 24 43  1  0
 25 44  1  0
 26 45  1  0
 27 46  1  0
 29 47  1  0
 30 48  1  0
 31 49  1  0
 32 50  1  0
M  END
>  <smiles>  (71) 
N#Cc1ccc(N=c2cc(NC(=O)Nc3ccccc3Oc3ccccc3)nc[nH]2)cc1

>  <score_type>  (71) 
oracle

>  <origin>  (71) 
adg

>  <m_score__min__energy>  (71) 
-9.3900000000000006

>  <m_primary>  (71) 
energy

$$$$
71:0
     RDKit          3D

 66 70  0  0  0  0  0  0  0  0999 V2000
   59.5840   28.1380   49.1870 C   0  0  0  0  0  0  0  0  0  0  0  0
   59.3220   29.1340   48.3260 C   0  0  0  0  0  0  0  0  0  0  0  0
   58.8780   29.0140   46.9970 C   0  0  0  0  0  0  0  0  0  0  0  0
   58.7290   27.9350   46.2040 C   0  0  0  0  0  0  0  0  0  0  0  0
   57.4910   27.1660   46.0280 C   0  0  0  0  0  0  0  0  0  0  0  0
   57.3500   25.8810   46.3960 N   0  0  0  0  0  0  0  0  0  0  0  0
   56.0410   25.6340   46.1660 C   0  0  0  0  0  0  0  0  0  0  0  0
   55.5170   24.5090   46.3760 O   0  0  0  0  0  0  0  0  0  0  0  0
   55.3360   26.6900   45.7050 N   0  0  0  0  0  0  0  0  0  0  0  0
   56.2670   27.6570   45.6380 C   0  0  0  0  0  0  0  0  0  0  0  0
   56.0030   28.9670   45.2540 O   0  0  0  0  0  0  0  0  0  0  0  0
   58.5780   30.2950   46.5720 C   0  0  0  0  0  0  0  0  0  0  0  0
   58.8720   31.1450   47.6160 C   0  0  0  0  0  0  0  0  0  0  0  0
   58.6550   32.5960   47.5710 C   0  0  0  0  0  0  0  0  0  0  0  0
   58.9810   33.3070   48.5580 O   0  0  0  0  0  0  0  0  0  0  0  0
   58.1390   33.2150   46.3930 N   0  0  0  0  0  0  0  0  0  0  0  0
   57.7590   34.5720   45.9630 C   0  0  0  0  0  0  0  0  0  0  0  0
   57.4710   34.2130   44.5430 C   0  0  0  0  0  0  0  0  0  0  0  0
   57.8640   32.8460   44.9920 C   0  0  0  0  0  0  0  0  0  0  0  0
   59.3410   30.4480   48.6790 N   0  0  0  0  0  0  0  0  0  0  0  0
   59.8090   31.0200   49.9540 C   0  0  0  0  0  0  0  0  0  0  0  0
   58.7490   30.9130   51.0200 C   0  0  0  0  0  0  0  0  0  0  0  0
   58.7850   29.8650   51.9520 C   0  0  0  0  0  0  0  0  0  0  0  0
   57.7690   29.7270   52.9010 C   0  0  0  0  0  0  0  0  0  0  0  0
   56.6970   30.6330   52.9270 C   0  0  0  0  0  0  0  0  0  0  0  0
   55.6040   30.4690   53.9460 C   0  0  0  0  0  0  0  0  0  0  0  0
   54.2660   30.7860   53.3770 N   0  0  0  0  0  0  0  0  0  0  0  0
   53.2740   30.7340   54.4700 C   0  0  0  0  0  0  0  0  0  0  0  0
   53.9460   29.9020   52.2040 C   0  0  1  0  0  0  0  0  0  0  0  0
   52.6920   28.9890   52.3620 C   0  0  0  0  0  0  0  0  0  0  0  0
   51.4280   29.8090   52.1120 C   0  0  0  0  0  0  0  0  0  0  0  0
   51.9130   31.0340   50.9400 S   0  0  0  0  0  0  0  0  0  0  0  0
   51.5610   32.4170   51.4110 O   0  0  0  0  0  0  0  0  0  0  0  0
   51.3220   30.7650   49.5850 O   0  0  0  0  0  0  0  0  0  0  0  0
   53.6610   30.7660   50.9590 C   0  0  0  0  0  0  0  0  0  0  0  0
   56.6600   31.6830   51.9970 C   0  0  0  0  0  0  0  0  0  0  0  0
   57.6760   31.8180   51.0460 C   0  0  0  0  0  0  0  0  0  0  0  0
   59.9278   28.3682   50.2062 H   0  0  0  0  0  0  0  0  0  0  0  0
   59.4549   27.0916   48.8733 H   0  0  0  0  0  0  0  0  0  0  0  0
   59.6120   27.6012   45.6392 H   0  0  0  0  0  0  0  0  0  0  0  0
   55.8360   29.6820   45.9500 H   0  0  0  0  0  0  0  0  0  0  0  0
   58.1801   30.5813   45.5873 H   0  0  0  0  0  0  0  0  0  0  0  0
   56.8734   34.9529   46.4927 H   0  0  0  0  0  0  0  0  0  0  0  0
   58.4889   35.3760   46.1384 H   0  0  0  0  0  0  0  0  0  0  0  0
   56.4231   34.3261   44.2280 H   0  0  0  0  0  0  0  0  0  0  0  0
   57.9155   34.7264   43.6777 H   0  0  0  0  0  0  0  0  0  0  0  0
   57.0461   32.1165   44.8977 H   0  0  0  0  0  0  0  0  0  0  0  0
   58.6732   32.3494   44.4365 H   0  0  0  0  0  0  0  0  0  0  0  0
   60.7061   30.4756   50.2839 H   0  0  0  0  0  0  0  0  0  0  0  0
   60.0380   32.0842   49.7956 H   0  0  0  0  0  0  0  0  0  0  0  0
   59.6185   29.1474   51.9355 H   0  0  0  0  0  0  0  0  0  0  0  0
   57.8092   28.9050   53.6309 H   0  0  0  0  0  0  0  0  0  0  0  0
   55.6021   29.4281   54.3018 H   0  0  0  0  0  0  0  0  0  0  0  0
   55.7988   31.1688   54.7721 H   0  0  0  0  0  0  0  0  0  0  0  0
   53.7942   30.7613   55.4389 H   0  0  0  0  0  0  0  0  0  0  0  0
   52.5975   31.5979   54.3926 H   0  0  0  0  0  0  0  0  0  0  0  0
   52.6915   29.8041   54.3926 H   0  0  0  0  0  0  0  0  0  0  0  0
   54.8339   29.2582   52.1191 H   0  0  0  0  0  0  0  0  0  0  0  0
   52.7444   28.1656   51.6345 H   0  0  0  0  0  0  0  0  0  0  0  0
   52.6653   28.5774   53.3817 H   0  0  0  0  0  0  0  0  0  0  0  0
   50.6289   29.1743   51.7014 H   0  0  0  0  0  0  0  0  0  0  0  0
   51.0301   30.2524   53.0367 H   0  0  0  0  0  0  0  0  0  0  0  0
   53.9765   30.2379   50.0471 H   0  0  0  0  0  0  0  0  0  0  0  0
   54.2136   31.7165   50.9936 H   0  0  0  0  0  0  0  0  0  0  0  0
   55.8284   32.4028   52.0162 H   0  0  0  0  0  0  0  0  0  0  0  0
   57.6344   32.6380   50.3140 H   0  0  0  0  0  0  0  0  0  0  0  0
  1  2  2  0
  2  3  1  0
  3  4  2  3
  4  5  1  0
  5  6  1  0
  6  7  1  0
  7  8  2  0
  7  9  1  0
  9 10  1  0
 10 11  1  0
  3 12  1  0
 12 13  2  0
 13 14  1  0
 14 15  2  0
 14 16  1  0
 16 17  1  0
 17 18  1  0
 18 19  1  0
 13 20  1  0
 20 21  1  0
 21 22  1  0
 22 23  2  0
 23 24  1  0
 24 25  2  0
 25 26  1  0
 26 27  1  0
 27 28  1  0
 27 29  1  0
 29 30  1  0
 30 31  1  0
 31 32  1  0
 32 33  2  0
 32 34  2  0
 32 35  1  0
 25 36  1  0
 36 37  2  0
 20  2  1  0
 37 22  1  0
 10  5  2  0
 19 16  1  0
 35 29  1  0
  1 38  1  0
  1 39  1  0
  4 40  1  0
 11 41  1  0
 12 42  1  0
 17 43  1  0
 17 44  1  0
 18 45  1  0
 18 46  1  0
 19 47  1  0
 19 48  1  0
 21 49  1  0
 21 50  1  0
 23 51  1  0
 24 52  1  0
 26 53  1  0
 26 54  1  0
 28 55  1  0
 28 56  1  0
 28 57  1  0
 29 58  1  6
 30 59  1  0
 30 60  1  0
 31 61  1  0
 31 62  1  0
 35 63  1  0
 35 64  1  0
 36 65  1  0
 37 66  1  0
M  CHG  2   6  -1   9  -1
M  END
>  <UniqueID>  (72) 
68

>  <SMILES>  (72) 
C=c1c(=Cc2[n-]c(=O)[n-]c2O)cc(C(=O)N2CCC2)n1Cc1ccc(CN(C)[C@H]2CCS(=O)(=O)C2)cc1

>  <Energy>  (72) 
193.76084797792592

>  <Genealogy>  (72) 
C=c1c(=Cc2[n-]c(=O)[n-]c2O)cc(C(=O)N2CCC2)n1Cc1ccc(CN(C)C2CCS(=O)(=O)C2)cc1 (protonated)
C=c1c(=Cc2[n-]c(=O)[n-]c2O)cc(C(=O)N2CCC2)n1Cc1ccc(CN(C)[C@H]2CCS(=O)(=O)C2)cc1 (chirality)
C=c1c(=Cc2[n-]c(=O)[n-]c2O)cc(C(=O)N2CCC2)n1Cc1ccc(CN(C)[C@H]2CCS(=O)(=O)C2)cc1 (3D coordinates assigned)
C=c1c(=Cc2[n-]c(=O)[n-]c2O)cc(C(=O)N2CCC2)n1Cc1ccc(CN(C)[C@H]2CCS(=O)(=O)C2)cc1 (nonaromatic ring conformer: 193.76084797792592 kcal/mol)

>  <smiles>  (72) 
C=c1c(=Cc2[nH]c(=O)[nH]c2O)cc(C(=O)N2CCC2)n1Cc1ccc(CN(C)C2CCS(=O)(=O)C2)cc1

>  <score_type>  (72) 
oracle

>  <origin>  (72) 
adg

>  <m_score__min__energy>  (72) 
-14.74

>  <m_primary>  (72) 
energy

$$$$
72:0
     RDKit          3D

 42 44  0  0  0  0  0  0  0  0999 V2000
   57.2211   33.0870   43.1396 H   0  0  0  0  0  0  0  0  0  0  0  0
   57.6760   32.7650   44.0880 C   0  0  0  0  0  0  0  0  0  0  0  0
   58.3750   33.6860   44.8730 C   0  0  0  0  0  0  0  0  0  0  0  0
   58.4687   34.7300   44.5394 H   0  0  0  0  0  0  0  0  0  0  0  0
   58.9580   33.2850   46.0850 C   0  0  0  0  0  0  0  0  0  0  0  0
   59.7220   34.2480   46.9110 C   0  0  0  0  0  0  0  0  0  0  0  0
   59.2550   35.4060   47.0910 O   0  0  0  0  0  0  0  0  0  0  0  0
   60.9800   33.8920   47.5200 N   0  0  0  0  0  0  0  0  0  0  0  0
   61.9310   33.0080   46.8290 C   0  0  0  0  0  0  0  0  0  0  0  0
   61.8947   32.0069   47.2833 H   0  0  0  0  0  0  0  0  0  0  0  0
   61.6585   32.9435   45.7652 H   0  0  0  0  0  0  0  0  0  0  0  0
   63.3500   33.5710   46.9530 C   0  0  0  0  0  0  0  0  0  0  0  0
   64.0532   32.8546   46.5032 H   0  0  0  0  0  0  0  0  0  0  0  0
   63.3687   34.5407   46.4341 H   0  0  0  0  0  0  0  0  0  0  0  0
   63.7680   33.8190   48.4190 C   0  0  0  0  0  0  0  0  0  0  0  0
   64.4581   33.0182   48.7230 H   0  0  0  0  0  0  0  0  0  0  0  0
   64.2356   34.8140   48.4547 H   0  0  0  0  0  0  0  0  0  0  0  0
   62.5880   33.8430   49.4060 C   0  0  0  0  0  0  0  0  0  0  0  0
   62.3335   32.8089   49.6814 H   0  0  0  0  0  0  0  0  0  0  0  0
   62.8931   34.4244   50.2885 H   0  0  0  0  0  0  0  0  0  0  0  0
   61.3510   34.5130   48.8000 C   0  0  0  0  0  0  0  0  0  0  0  0
   60.5103   34.4154   49.5026 H   0  0  0  0  0  0  0  0  0  0  0  0
   61.5845   35.5723   48.6171 H   0  0  0  0  0  0  0  0  0  0  0  0
   58.8460   31.9440   46.4890 C   0  0  0  0  0  0  0  0  0  0  0  0
   59.3278   31.6153   47.4216 H   0  0  0  0  0  0  0  0  0  0  0  0
   58.1260   31.0180   45.7160 C   0  0  0  0  0  0  0  0  0  0  0  0
   58.0410   29.6500   46.1520 N   0  0  0  0  0  0  0  0  0  0  0  0
   58.5940   29.3650   46.9900 H   0  0  0  0  0  0  0  0  0  0  0  0
   57.1160   28.6940   45.6060 C   0  0  0  0  0  0  0  0  0  0  0  0
   56.0450   29.0880   45.0750 O   0  0  0  0  0  0  0  0  0  0  0  0
   57.3410   27.2820   45.7350 N   0  0  0  0  0  0  0  0  0  0  0  0
   56.4440   26.3480   45.6240 C   0  0  0  0  0  0  0  0  0  0  0  0
   55.1520   26.4780   46.0000 N   0  0  0  0  0  0  0  0  0  0  0  0
   54.4440   25.3650   45.8170 N   0  0  0  0  0  0  0  0  0  0  0  0
   55.1690   24.3530   45.2920 C   0  0  0  0  0  0  0  0  0  0  0  0
   54.6260   22.9840   45.0610 C   0  0  0  0  0  0  0  0  0  0  0  0
   54.4332   22.4979   46.0288 H   0  0  0  0  0  0  0  0  0  0  0  0
   53.6872   23.0531   44.4919 H   0  0  0  0  0  0  0  0  0  0  0  0
   55.3569   22.3908   44.4919 H   0  0  0  0  0  0  0  0  0  0  0  0
   56.7770   24.8010   45.0560 S   0  0  0  0  0  0  0  0  0  0  0  0
   57.5530   31.4380   44.5030 C   0  0  0  0  0  0  0  0  0  0  0  0
   57.0051   30.7175   43.8779 H   0  0  0  0  0  0  0  0  0  0  0  0
  1  2  1  0
  2  3  2  0
  3  4  1  0
  3  5  1  0
  5  6  1  0
  6  7  2  0
  6  8  1  0
  8  9  1  0
  9 10  1  0
  9 11  1  0
  9 12  1  0
 12 13  1  0
 12 14  1  0
 12 15  1  0
 15 16  1  0
 15 17  1  0
 15 18  1  0
 18 19  1  0
 18 20  1  0
 18 21  1  0
 21 22  1  0
 21 23  1  0
  5 24  2  0
 24 25  1  0
 24 26  1  0
 26 27  1  0
 27 28  1  0
 27 29  1  0
 29 30  2  0
 29 31  1  0
 31 32  2  0
 32 33  1  0
 33 34  1  0
 34 35  2  0
 35 36  1  0
 36 37  1  0
 36 38  1  0
 36 39  1  0
 35 40  1  0
 26 41  2  0
 41 42  1  0
 41  2  1  0
 21  8  1  0
 40 32  1  0
M  CHG  1  33  -1
M  END
>  <UniqueID>  (73) 
69

>  <SMILES>  (73) 
Cc1n[n-]/c(=N\C(=O)Nc2cccc(C(=O)N3CCCCC3)c2)s1

>  <Energy>  (73) 
87.86479688138996

>  <Genealogy>  (73) 
Cc1n[n-]c(=NC(=O)Nc2cccc(C(=O)N3CCCCC3)c2)s1 (protonated)
Cc1n[n-]/c(=N\C(=O)Nc2cccc(C(=O)N3CCCCC3)c2)s1 (cis-trans isomerization)
Cc1n[n-]/c(=N\C(=O)Nc2cccc(C(=O)N3CCCCC3)c2)s1 (3D coordinates assigned)
Cc1n[n-]/c(=N\C(=O)Nc2cccc(C(=O)N3CCCCC3)c2)s1 (nonaromatic ring conformer: 87.86479688138996 kcal/mol)

>  <smiles>  (73) 
Cc1n[nH]c(=NC(=O)Nc2cccc(C(=O)N3CCCCC3)c2)s1

>  <score_type>  (73) 
oracle

>  <origin>  (73) 
adg

>  <m_score__min__energy>  (73) 
-11.07

>  <m_primary>  (73) 
energy

$$$$
73:0
     RDKit          3D

 40 42  0  0  0  0  0  0  0  0999 V2000
   59.8280   29.5810   44.6710 O   0  0  0  0  0  0  0  0  0  0  0  0
   58.5840   29.6920   44.8430 C   0  0  0  0  0  0  0  0  0  0  0  0
   57.8530   30.8610   44.2380 C   0  0  0  0  0  0  0  0  0  0  0  0
   56.9450   31.4670   45.2140 N   0  0  0  0  0  0  0  0  0  0  0  0
   57.5250   33.0250   45.7280 S   0  0  0  0  0  0  0  0  0  0  0  0
   56.6480   33.5220   46.8430 O   0  0  0  0  0  0  0  0  0  0  0  0
   57.4180   33.9960   44.5840 O   0  0  0  0  0  0  0  0  0  0  0  0
   59.1910   32.9230   46.3200 C   0  0  0  0  0  0  0  0  0  0  0  0
   60.1030   33.9130   45.9240 C   0  0  0  0  0  0  0  0  0  0  0  0
   61.4230   33.8910   46.3820 C   0  0  0  0  0  0  0  0  0  0  0  0
   61.8510   32.8810   47.2440 C   0  0  0  0  0  0  0  0  0  0  0  0
   60.9570   31.8850   47.6570 C   0  0  0  0  0  0  0  0  0  0  0  0
   61.3650   30.8680   48.5310 C   0  0  0  0  0  0  0  0  0  0  0  0
   60.4510   29.8980   48.9420 C   0  0  0  0  0  0  0  0  0  0  0  0
   59.1380   29.9480   48.4700 C   0  0  0  0  0  0  0  0  0  0  0  0
   58.7560   30.9360   47.6190 N   0  0  0  0  0  0  0  0  0  0  0  0
   59.6180   31.9030   47.1970 C   0  0  0  0  0  0  0  0  0  0  0  0
   57.9220   28.7400   45.6830 N   0  0  0  0  0  0  0  0  0  0  0  0
   56.7150   28.0110   45.3150 C   0  0  0  0  0  0  0  0  0  0  0  0
   56.8600   26.5660   45.7040 C   0  0  0  0  0  0  0  0  0  0  0  0
   58.1330   25.9690   45.7390 C   0  0  0  0  0  0  0  0  0  0  0  0
   58.2730   24.6250   46.0950 C   0  0  0  0  0  0  0  0  0  0  0  0
   57.1470   23.8630   46.4120 C   0  0  0  0  0  0  0  0  0  0  0  0
   55.8760   24.4420   46.3710 C   0  0  0  0  0  0  0  0  0  0  0  0
   55.7280   25.7880   46.0150 C   0  0  0  0  0  0  0  0  0  0  0  0
   54.4530   26.3410   45.9670 O   0  0  0  0  0  0  0  0  0  0  0  0
   58.5850   31.6138   43.9103 H   0  0  0  0  0  0  0  0  0  0  0  0
   57.2628   30.5032   43.3815 H   0  0  0  0  0  0  0  0  0  0  0  0
   59.7755   34.7148   45.2459 H   0  0  0  0  0  0  0  0  0  0  0  0
   62.1272   34.6729   46.0617 H   0  0  0  0  0  0  0  0  0  0  0  0
   62.8918   32.8668   47.5997 H   0  0  0  0  0  0  0  0  0  0  0  0
   62.4036   30.8350   48.8919 H   0  0  0  0  0  0  0  0  0  0  0  0
   60.7621   29.1001   49.6324 H   0  0  0  0  0  0  0  0  0  0  0  0
   58.4112   29.1859   48.7877 H   0  0  0  0  0  0  0  0  0  0  0  0
   55.8508   28.4460   45.8383 H   0  0  0  0  0  0  0  0  0  0  0  0
   56.5619   28.0830   44.2281 H   0  0  0  0  0  0  0  0  0  0  0  0
   59.0231   26.5632   45.4848 H   0  0  0  0  0  0  0  0  0  0  0  0
   59.2724   24.1665   46.1255 H   0  0  0  0  0  0  0  0  0  0  0  0
   57.2605   22.8059   46.6943 H   0  0  0  0  0  0  0  0  0  0  0  0
   54.9899   23.8392   46.6189 H   0  0  0  0  0  0  0  0  0  0  0  0
  1  2  2  0
  2  3  1  0
  3  4  1  0
  4  5  1  0
  5  6  2  0
  5  7  2  0
  5  8  1  0
  8  9  2  0
  9 10  1  0
 10 11  2  0
 11 12  1  0
 12 13  2  0
 13 14  1  0
 14 15  2  0
 15 16  1  0
 16 17  2  0
  2 18  1  0
 18 19  1  0
 19 20  1  0
 20 21  2  0
 21 22  1  0
 22 23  2  0
 23 24  1  0
 24 25  2  0
 25 26  1  0
 17  8  1  0
 25 20  1  0
 17 12  1  0
  3 27  1  0
  3 28  1  0
  9 29  1  0
 10 30  1  0
 11 31  1  0
 13 32  1  0
 14 33  1  0
 15 34  1  0
 19 35  1  0
 19 36  1  0
 21 37  1  0
 22 38  1  0
 23 39  1  0
 24 40  1  0
M  CHG  3   4  -1  18  -1  26  -1
M  END
>  <UniqueID>  (74) 
70

>  <SMILES>  (74) 
O=C(C[N-]S(=O)(=O)c1cccc2cccnc12)[N-]Cc1ccccc1[O-]

>  <Energy>  (74) 
41.70984917053561

>  <Genealogy>  (74) 
O=C(C[N-]S(=O)(=O)c1cccc2cccnc12)[N-]Cc1ccccc1[O-] (protonated)
O=C(C[N-]S(=O)(=O)c1cccc2cccnc12)[N-]Cc1ccccc1[O-] (3D coordinates assigned)
O=C(C[N-]S(=O)(=O)c1cccc2cccnc12)[N-]Cc1ccccc1[O-] (optimized conformer: 41.70984917053561 kcal/mol)

>  <smiles>  (74) 
O=C(CNS(=O)(=O)c1cccc2cccnc12)NCc1ccccc1O

>  <score_type>  (74) 
oracle

>  <origin>  (74) 
adg

>  <m_score__min__energy>  (74) 
-15.380000000000001

>  <m_primary>  (74) 
energy

$$$$
74:0
     RDKit          3D

 59 64  0  0  0  0  0  0  0  0999 V2000
   59.5980   35.3060   45.9170 C   0  0  0  0  0  0  0  0  0  0  0  0
   59.3300   33.8380   45.5660 C   0  0  2  0  0  0  0  0  0  0  0  0
   57.9350   33.5990   45.1490 N   0  0  0  0  0  0  0  0  0  0  0  0
   57.7670   32.8330   43.8950 C   0  0  0  0  0  0  0  0  0  0  0  0
   57.5600   31.3570   44.1420 C   0  0  0  0  0  0  0  0  0  0  0  0
   56.2640   30.8200   44.2320 C   0  0  0  0  0  0  0  0  0  0  0  0
   56.0800   29.4540   44.4710 C   0  0  0  0  0  0  0  0  0  0  0  0
   57.1870   28.6170   44.6320 C   0  0  0  0  0  0  0  0  0  0  0  0
   57.0070   27.2930   44.8650 F   0  0  0  0  0  0  0  0  0  0  0  0
   58.4790   29.1440   44.5600 C   0  0  0  0  0  0  0  0  0  0  0  0
   58.6660   30.5090   44.3210 C   0  0  0  0  0  0  0  0  0  0  0  0
   59.7640   32.8470   46.6220 C   0  0  0  0  0  0  0  0  0  0  0  0
   58.9050   32.0480   47.1950 N   0  0  0  0  0  0  0  0  0  0  0  0
   59.5620   31.2600   48.2500 C   0  0  2  0  0  0  0  0  0  0  0  0
   59.4050   29.7810   48.0570 C   0  0  0  0  0  0  0  0  0  0  0  0
   59.8050   29.1520   47.0420 O   0  0  0  0  0  0  0  0  0  0  0  0
   58.7420   29.1380   49.1480 N   0  0  0  0  0  0  0  0  0  0  0  0
   58.4710   30.2120   50.0370 C   0  0  0  0  0  0  0  0  0  0  0  0
   57.8380   30.0880   51.2310 N   0  0  0  0  0  0  0  0  0  0  0  0
   57.6270   31.1950   52.0030 C   0  0  0  0  0  0  0  0  0  0  0  0
   58.0590   32.4640   51.5660 C   0  0  0  0  0  0  0  0  0  0  0  0
   58.7130   32.5880   50.3310 C   0  0  0  0  0  0  0  0  0  0  0  0
   58.9110   31.4320   49.5770 C   0  0  0  0  0  0  0  0  0  0  0  0
   60.9590   31.7440   48.1900 C   0  0  0  0  0  0  0  0  0  0  0  0
   61.0760   32.6810   47.2450 C   0  0  0  0  0  0  0  0  0  0  0  0
   62.3800   33.1400   47.2860 C   0  0  0  0  0  0  0  0  0  0  0  0
   62.9280   34.1260   46.4720 O   0  0  0  0  0  0  0  0  0  0  0  0
   63.0550   32.4760   48.2670 N   0  0  0  0  0  0  0  0  0  0  0  0
   64.4680   32.6110   48.6220 C   0  0  0  0  0  0  0  0  0  0  0  0
   64.6060   33.2900   49.9600 C   0  0  0  0  0  0  0  0  0  0  0  0
   65.8430   33.2910   50.6240 C   0  0  0  0  0  0  0  0  0  0  0  0
   65.9810   33.9320   51.8590 C   0  0  0  0  0  0  0  0  0  0  0  0
   64.8850   34.5760   52.4390 C   0  0  0  0  0  0  0  0  0  0  0  0
   63.6490   34.5780   51.7860 C   0  0  0  0  0  0  0  0  0  0  0  0
   63.5080   33.9380   50.5520 C   0  0  0  0  0  0  0  0  0  0  0  0
   62.1670   31.6150   48.8250 C   0  0  0  0  0  0  0  0  0  0  0  0
   62.4460   30.7540   49.8800 O   0  0  0  0  0  0  0  0  0  0  0  0
   59.6195   35.4235   47.0105 H   0  0  0  0  0  0  0  0  0  0  0  0
   60.5670   35.6126   45.4962 H   0  0  0  0  0  0  0  0  0  0  0  0
   58.7999   35.9352   45.4962 H   0  0  0  0  0  0  0  0  0  0  0  0
   59.9802   33.6496   44.6990 H   0  0  0  0  0  0  0  0  0  0  0  0
   57.4060   33.1660   45.9430 H   0  0  0  0  0  0  0  0  0  0  0  0
   56.8927   33.2264   43.3557 H   0  0  0  0  0  0  0  0  0  0  0  0
   58.6898   32.9474   43.3073 H   0  0  0  0  0  0  0  0  0  0  0  0
   55.3900   31.4774   44.1139 H   0  0  0  0  0  0  0  0  0  0  0  0
   55.0633   29.0387   44.5322 H   0  0  0  0  0  0  0  0  0  0  0  0
   59.3496   28.4847   44.6914 H   0  0  0  0  0  0  0  0  0  0  0  0
   59.6847   30.9213   44.2728 H   0  0  0  0  0  0  0  0  0  0  0  0
   57.1165   31.0957   52.9723 H   0  0  0  0  0  0  0  0  0  0  0  0
   57.8841   33.3526   52.1904 H   0  0  0  0  0  0  0  0  0  0  0  0
   59.0590   33.5673   49.9686 H   0  0  0  0  0  0  0  0  0  0  0  0
   63.7350   33.9500   45.8900 H   0  0  0  0  0  0  0  0  0  0  0  0
   64.9270   31.6126   48.6722 H   0  0  0  0  0  0  0  0  0  0  0  0
   64.9736   33.2189   47.8573 H   0  0  0  0  0  0  0  0  0  0  0  0
   66.7080   32.7850   50.1704 H   0  0  0  0  0  0  0  0  0  0  0  0
   66.9529   33.9293   52.3742 H   0  0  0  0  0  0  0  0  0  0  0  0
   64.9948   35.0816   53.4097 H   0  0  0  0  0  0  0  0  0  0  0  0
   62.7864   35.0840   52.2442 H   0  0  0  0  0  0  0  0  0  0  0  0
   62.5336   33.9412   50.0416 H   0  0  0  0  0  0  0  0  0  0  0  0
  1  2  1  0
  2  3  1  0
  3  4  1  0
  4  5  1  0
  5  6  2  0
  6  7  1  0
  7  8  2  0
  8  9  1  0
  8 10  1  0
 10 11  2  0
  2 12  1  0
 12 13  2  0
 14 13  1  6
 14 15  1  0
 15 16  2  0
 15 17  1  0
 17 18  1  0
 18 19  2  0
 19 20  1  0
 20 21  2  0
 21 22  1  0
 22 23  2  0
 14 24  1  0
 24 25  1  0
 25 26  2  0
 26 27  1  0
 26 28  1  0
 28 29  1  0
 29 30  1  0
 30 31  2  0
 31 32  1  0
 32 33  2  0
 33 34  1  0
 34 35  2  0
 28 36  1  0
 36 37  1  0
 11  5  1  0
 25 12  1  0
 35 30  1  0
 23 14  1  0
 36 24  2  0
 23 18  1  0
  1 38  1  0
  1 39  1  0
  1 40  1  0
  2 41  1  6
  3 42  1  0
  4 43  1  0
  4 44  1  0
  6 45  1  0
  7 46  1  0
 10 47  1  0
 11 48  1  0
 20 49  1  0
 21 50  1  0
 22 51  1  0
 27 52  1  0
 29 53  1  0
 29 54  1  0
 31 55  1  0
 32 56  1  0
 33 57  1  0
 34 58  1  0
 35 59  1  0
M  CHG  2  17  -1  37  -1
M  END
>  <UniqueID>  (75) 
71

>  <SMILES>  (75) 
C[C@H](NCc1ccc(F)cc1)C1=N[C@@]2(C(=O)[N-]c3ncccc32)c2c1c(O)n(Cc1ccccc1)c2[O-]

>  <Energy>  (75) 
163.45888968148114

>  <Genealogy>  (75) 
CC(NCc1ccc(F)cc1)C1=NC2(C(=O)[N-]c3ncccc32)c2c1c(O)n(Cc1ccccc1)c2[O-] (protonated)
C[C@H](NCc1ccc(F)cc1)C1=N[C@@]2(C(=O)[N-]c3ncccc32)c2c1c(O)n(Cc1ccccc1)c2[O-] (chirality)
C[C@H](NCc1ccc(F)cc1)C1=N[C@@]2(C(=O)[N-]c3ncccc32)c2c1c(O)n(Cc1ccccc1)c2[O-] (3D coordinates assigned)
C[C@H](NCc1ccc(F)cc1)C1=N[C@@]2(C(=O)[N-]c3ncccc32)c2c1c(O)n(Cc1ccccc1)c2[O-] (nonaromatic ring conformer: 163.45888968148114 kcal/mol)

>  <smiles>  (75) 
CC(NCc1ccc(F)cc1)C1=NC2(C(=O)Nc3ncccc32)c2c1c(O)n(Cc1ccccc1)c2O

>  <score_type>  (75) 
oracle

>  <origin>  (75) 
adg

>  <m_score__min__energy>  (75) 
-10.42

>  <m_primary>  (75) 
energy

$$$$
75:0
     RDKit          3D

 69 73  0  0  0  0  0  0  0  0999 V2000
   66.9010   27.5260   51.2730 C   0  0  0  0  0  0  0  0  0  0  0  0
   67.7770   28.6920   50.8270 C   0  0  0  0  0  0  0  0  0  0  0  0
   67.7930   29.7160   51.8190 O   0  0  0  0  0  0  0  0  0  0  0  0
   67.4120   31.0400   51.5710 C   0  0  0  0  0  0  0  0  0  0  0  0
   68.2730   31.9620   51.6140 O   0  0  0  0  0  0  0  0  0  0  0  0
   66.0380   31.3520   51.2590 N   0  0  0  0  0  0  0  0  0  0  0  0
   65.6590   32.7240   50.8810 C   0  0  0  0  0  0  0  0  0  0  0  0
   64.6510   32.7160   49.7220 C   0  0  0  0  0  0  0  0  0  0  0  0
   63.5470   31.7250   49.9690 C   0  0  0  0  0  0  0  0  0  0  0  0
   63.7300   30.6500   50.8330 C   0  0  0  0  0  0  0  0  0  0  0  0
   62.3430   29.6950   50.8630 S   0  0  0  0  0  0  0  0  0  0  0  0
   61.4980   30.6310   49.7400 C   0  0  0  0  0  0  0  0  0  0  0  0
   62.2860   31.6930   49.3310 C   0  0  0  0  0  0  0  0  0  0  0  0
   61.7810   32.5590   48.3570 C   0  0  0  0  0  0  0  0  0  0  0  0
   62.4880   33.5070   47.9160 O   0  0  0  0  0  0  0  0  0  0  0  0
   60.5170   32.3490   47.8630 N   0  0  0  0  0  0  0  0  0  0  0  0
   59.9890   33.2390   46.8570 C   0  0  0  0  0  0  0  0  0  0  0  0
   60.1310   34.6280   46.9980 C   0  0  0  0  0  0  0  0  0  0  0  0
   59.6190   35.4890   46.0250 C   0  0  0  0  0  0  0  0  0  0  0  0
   58.9640   34.9710   44.9050 C   0  0  0  0  0  0  0  0  0  0  0  0
   58.8120   33.5890   44.7470 C   0  0  0  0  0  0  0  0  0  0  0  0
   58.1430   33.1190   43.6070 O   0  0  0  0  0  0  0  0  0  0  0  0
   57.7680   31.7610   43.3960 C   0  0  0  0  0  0  0  0  0  0  0  0
   59.3290   32.7210   45.7300 C   0  0  0  0  0  0  0  0  0  0  0  0
   59.7520   31.2930   48.3100 C   0  0  0  0  0  0  0  0  0  0  0  0
   58.5840   31.1310   47.8530 O   0  0  0  0  0  0  0  0  0  0  0  0
   60.2430   30.4160   49.2480 N   0  0  0  0  0  0  0  0  0  0  0  0
   59.4390   29.2540   49.6740 C   0  0  0  0  0  0  0  0  0  0  0  0
   59.3140   28.2670   48.5500 C   0  0  0  0  0  0  0  0  0  0  0  0
   59.8880   27.1490   48.6450 O   0  0  0  0  0  0  0  0  0  0  0  0
   58.4870   28.5710   47.4130 N   0  0  0  0  0  0  0  0  0  0  0  0
   58.3670   27.7250   46.2580 C   0  0  0  0  0  0  0  0  0  0  0  0
   58.2620   28.2630   44.9650 C   0  0  0  0  0  0  0  0  0  0  0  0
   58.1270   27.4200   43.8620 C   0  0  0  0  0  0  0  0  0  0  0  0
   58.0820   26.0360   44.0360 C   0  0  0  0  0  0  0  0  0  0  0  0
   58.1620   25.4720   45.3240 C   0  0  0  0  0  0  0  0  0  0  0  0
   58.1030   23.9950   45.4950 C   0  0  0  0  0  0  0  0  0  0  0  0
   56.8020   23.2500   45.5200 C   0  0  0  0  0  0  0  0  0  0  0  0
   59.1720   23.3370   45.6240 O   0  0  0  0  0  0  0  0  0  0  0  0
   58.2970   26.3340   46.4310 C   0  0  0  0  0  0  0  0  0  0  0  0
   64.9840   30.3840   51.6070 C   0  0  0  0  0  0  0  0  0  0  0  0
   66.8726   27.4881   52.3720 H   0  0  0  0  0  0  0  0  0  0  0  0
   65.8812   27.6639   50.8844 H   0  0  0  0  0  0  0  0  0  0  0  0
   67.3174   26.5849   50.8844 H   0  0  0  0  0  0  0  0  0  0  0  0
   68.8032   28.3312   50.6633 H   0  0  0  0  0  0  0  0  0  0  0  0
   67.3665   29.1077   49.8950 H   0  0  0  0  0  0  0  0  0  0  0  0
   65.2052   33.2242   51.7493 H   0  0  0  0  0  0  0  0  0  0  0  0
   66.5626   33.2608   50.5565 H   0  0  0  0  0  0  0  0  0  0  0  0
   64.2150   33.7206   49.6186 H   0  0  0  0  0  0  0  0  0  0  0  0
   65.1799   32.4265   48.8020 H   0  0  0  0  0  0  0  0  0  0  0  0
   60.6472   35.0399   47.8777 H   0  0  0  0  0  0  0  0  0  0  0  0
   59.7316   36.5771   46.1407 H   0  0  0  0  0  0  0  0  0  0  0  0
   58.5647   35.6548   44.1415 H   0  0  0  0  0  0  0  0  0  0  0  0
   57.6306   31.2634   44.3673 H   0  0  0  0  0  0  0  0  0  0  0  0
   56.8262   31.7246   42.8289 H   0  0  0  0  0  0  0  0  0  0  0  0
   58.5577   31.2464   42.8289 H   0  0  0  0  0  0  0  0  0  0  0  0
   59.2152   31.6330   45.6142 H   0  0  0  0  0  0  0  0  0  0  0  0
   59.9289   28.7682   50.5308 H   0  0  0  0  0  0  0  0  0  0  0  0
   58.4347   29.5994   49.9604 H   0  0  0  0  0  0  0  0  0  0  0  0
   57.8490   29.3940   47.4820 H   0  0  0  0  0  0  0  0  0  0  0  0
   58.2863   29.3533   44.8216 H   0  0  0  0  0  0  0  0  0  0  0  0
   58.0557   27.8477   42.8511 H   0  0  0  0  0  0  0  0  0  0  0  0
   57.9831   25.3795   43.1589 H   0  0  0  0  0  0  0  0  0  0  0  0
   56.4989   23.0764   46.5631 H   0  0  0  0  0  0  0  0  0  0  0  0
   56.0300   23.8429   45.0076 H   0  0  0  0  0  0  0  0  0  0  0  0
   56.9227   22.2841   45.0076 H   0  0  0  0  0  0  0  0  0  0  0  0
   58.3482   25.9105   47.4449 H   0  0  0  0  0  0  0  0  0  0  0  0
   64.7657   30.4619   52.6823 H   0  0  0  0  0  0  0  0  0  0  0  0
   65.3411   29.3741   51.3568 H   0  0  0  0  0  0  0  0  0  0  0  0
  1  2  1  0
  2  3  1  0
  3  4  1  0
  4  5  2  0
  4  6  1  0
  6  7  1  0
  7  8  1  0
  8  9  1  0
  9 10  2  0
 10 11  1  0
 11 12  1  0
 12 13  2  0
 13 14  1  0
 14 15  2  0
 14 16  1  0
 16 17  1  0
 17 18  2  0
 18 19  1  0
 19 20  2  0
 20 21  1  0
 21 22  1  0
 22 23  1  0
 21 24  2  0
 16 25  1  0
 25 26  2  0
 25 27  1  0
 27 28  1  0
 28 29  1  0
 29 30  2  0
 29 31  1  0
 31 32  1  0
 32 33  2  0
 33 34  1  0
 34 35  2  0
 35 36  1  0
 36 37  1  0
 37 38  1  0
 37 39  2  0
 36 40  2  0
 10 41  1  0
 41  6  1  0
 13  9  1  0
 24 17  1  0
 40 32  1  0
 27 12  1  0
  1 42  1  0
  1 43  1  0
  1 44  1  0
  2 45  1  0
  2 46  1  0
  7 47  1  0
  7 48  1  0
  8 49  1  0
  8 50  1  0
 18 51  1  0
 19 52  1  0
 20 53  1  0
 23 54  1  0
 23 55  1  0
 23 56  1  0
 24 57  1  0
 28 58  1  0
 28 59  1  0
 31 60  1  0
 33 61  1  0
 34 62  1  0
 35 63  1  0
 38 64  1  0
 38 65  1  0
 38 66  1  0
 40 67  1  0
 41 68  1  0
 41 69  1  0
M  END
>  <UniqueID>  (76) 
72

>  <SMILES>  (76) 
CCOC(=O)N1CCc2c(sc3c2c(=O)n(-c2cccc(OC)c2)c(=O)n3CC(=O)Nc2cccc(C(C)=O)c2)C1

>  <Energy>  (76) 
120.21668779159764

>  <Genealogy>  (76) 
CCOC(=O)N1CCc2c(sc3c2c(=O)n(-c2cccc(OC)c2)c(=O)n3CC(=O)Nc2cccc(C(C)=O)c2)C1 (3D coordinates assigned)
CCOC(=O)N1CCc2c(sc3c2c(=O)n(-c2cccc(OC)c2)c(=O)n3CC(=O)Nc2cccc(C(C)=O)c2)C1 (nonaromatic ring conformer: 120.21668779159764 kcal/mol)

>  <smiles>  (76) 
CCOC(=O)N1CCc2c(sc3c2c(=O)n(-c2cccc(OC)c2)c(=O)n3CC(=O)Nc2cccc(C(C)=O)c2)C1

>  <score_type>  (76) 
oracle

>  <origin>  (76) 
adg

>  <m_score__min__energy>  (76) 
-9.1199999999999992

>  <m_primary>  (76) 
energy

$$$$
76:0
     RDKit          3D

 51 54  0  0  0  0  0  0  0  0999 V2000
   60.0545   30.2723   48.4046 H   0  0  0  0  0  0  0  0  0  0  0  0
   59.5800   29.4460   47.8550 C   0  0  0  0  0  0  0  0  0  0  0  0
   59.4940   28.4533   48.3210 H   0  0  0  0  0  0  0  0  0  0  0  0
   59.1060   29.6490   46.6160 C   0  0  0  0  0  0  0  0  0  0  0  0
   58.4770   28.7080   45.7840 C   0  0  0  0  0  0  0  0  0  0  0  0
   58.3650   27.3700   45.8920 C   0  0  0  0  0  0  0  0  0  0  0  0
   59.2979   26.7921   45.9681 H   0  0  0  0  0  0  0  0  0  0  0  0
   57.1030   26.6150   45.9170 C   0  0  0  0  0  0  0  0  0  0  0  0
   56.9990   25.3570   46.3780 N   0  0  0  0  0  0  0  0  0  0  0  0
   55.6720   25.1150   46.3290 C   0  0  0  0  0  0  0  0  0  0  0  0
   55.1690   24.0140   46.6730 O   0  0  0  0  0  0  0  0  0  0  0  0
   54.9220   26.1510   45.8940 N   0  0  0  0  0  0  0  0  0  0  0  0
   55.8420   27.0980   45.6520 C   0  0  0  0  0  0  0  0  0  0  0  0
   55.5320   28.3830   45.2230 O   0  0  0  0  0  0  0  0  0  0  0  0
   57.9430   29.4230   44.7240 C   0  0  0  0  0  0  0  0  0  0  0  0
   57.3357   29.0189   43.9007 H   0  0  0  0  0  0  0  0  0  0  0  0
   58.3190   30.7390   44.8990 C   0  0  0  0  0  0  0  0  0  0  0  0
   57.9700   31.8540   43.9590 C   0  0  0  0  0  0  0  0  0  0  0  0
   57.6905   32.7471   44.5372 H   0  0  0  0  0  0  0  0  0  0  0  0
   58.8389   32.0847   43.3251 H   0  0  0  0  0  0  0  0  0  0  0  0
   57.1246   31.5481   43.3251 H   0  0  0  0  0  0  0  0  0  0  0  0
   59.0220   30.8790   46.0450 N   0  0  0  0  0  0  0  0  0  0  0  0
   59.5630   32.1100   46.5560 C   0  0  0  0  0  0  0  0  0  0  0  0
   58.7130   33.1710   46.9000 C   0  0  0  0  0  0  0  0  0  0  0  0
   57.6246   33.0619   46.7837 H   0  0  0  0  0  0  0  0  0  0  0  0
   59.2450   34.3660   47.3900 C   0  0  0  0  0  0  0  0  0  0  0  0
   58.5750   35.1981   47.6522 H   0  0  0  0  0  0  0  0  0  0  0  0
   60.6270   34.5070   47.5480 C   0  0  0  0  0  0  0  0  0  0  0  0
   61.0416   35.4537   47.9247 H   0  0  0  0  0  0  0  0  0  0  0  0
   61.4870   33.4460   47.2280 C   0  0  0  0  0  0  0  0  0  0  0  0
   62.9490   33.6090   47.3910 C   0  0  0  0  0  0  0  0  0  0  0  0
   63.5390   34.3990   46.6040 O   0  0  0  0  0  0  0  0  0  0  0  0
   63.7280   32.7860   48.3040 N   0  0  2  0  0  0  0  0  0  0  0  0
   64.5620   32.4500   47.7640 H   0  0  0  0  0  0  0  0  0  0  0  0
   63.0250   31.6010   48.8270 C   0  0  0  0  0  0  0  0  0  0  0  0
   61.9589   31.8294   48.9726 H   0  0  0  0  0  0  0  0  0  0  0  0
   63.1000   30.7604   48.1214 H   0  0  0  0  0  0  0  0  0  0  0  0
   63.6710   31.2440   50.1650 C   0  0  0  0  0  0  0  0  0  0  0  0
   62.9071   31.1706   50.9531 H   0  0  0  0  0  0  0  0  0  0  0  0
   64.1838   30.2717   50.1236 H   0  0  0  0  0  0  0  0  0  0  0  0
   64.6370   32.3780   50.4660 C   0  0  0  0  0  0  0  0  0  0  0  0
   64.5368   32.7075   51.5107 H   0  0  0  0  0  0  0  0  0  0  0  0
   65.6875   32.0789   50.3359 H   0  0  0  0  0  0  0  0  0  0  0  0
   64.2270   33.4920   49.5070 C   0  0  2  0  0  0  0  0  0  0  0  0
   65.0463   34.1712   49.2287 H   0  0  0  0  0  0  0  0  0  0  0  0
   63.1670   34.3980   50.1880 C   0  0  0  0  0  0  0  0  0  0  0  0
   63.2625   34.3164   51.2808 H   0  0  0  0  0  0  0  0  0  0  0  0
   63.3271   35.4427   49.8830 H   0  0  0  0  0  0  0  0  0  0  0  0
   62.1600   34.0772   49.8830 H   0  0  0  0  0  0  0  0  0  0  0  0
   60.9500   32.2570   46.7100 C   0  0  0  0  0  0  0  0  0  0  0  0
   61.6214   31.4344   46.4227 H   0  0  0  0  0  0  0  0  0  0  0  0
  1  2  1  0
  2  3  1  0
  2  4  2  0
  4  5  1  0
  5  6  2  0
  6  7  1  0
  6  8  1  0
  8  9  1  0
  9 10  1  0
 10 11  2  0
 10 12  1  0
 12 13  1  0
 13 14  1  0
  5 15  1  0
 15 16  1  0
 15 17  2  0
 17 18  1  0
 18 19  1  0
 18 20  1  0
 18 21  1  0
 17 22  1  0
 22 23  1  0
 23 24  2  0
 24 25  1  0
 24 26  1  0
 26 27  1  0
 26 28  2  0
 28 29  1  0
 28 30  1  0
 30 31  1  0
 31 32  2  0
 31 33  1  0
 33 34  1  6
 33 35  1  0
 35 36  1  0
 35 37  1  0
 35 38  1  0
 38 39  1  0
 38 40  1  0
 38 41  1  0
 41 42  1  0
 41 43  1  0
 41 44  1  0
 44 45  1  6
 44 46  1  0
 46 47  1  0
 46 48  1  0
 46 49  1  0
 30 50  2  0
 50 51  1  0
 22  4  1  0
 50 23  1  0
 13  8  2  0
 44 33  1  0
M  CHG  4   9  -1  12  -1  14  -1  33   1
M  END
>  <UniqueID>  (77) 
73

>  <SMILES>  (77) 
C=c1/c(=C\c2[n-]c(=O)[n-]c2[O-])cc(C)n1-c1cccc(C(=O)[N@@H+]2CCC[C@@H]2C)c1

>  <Energy>  (77) 
143.69463694709606

>  <Genealogy>  (77) 
C=c1c(=Cc2[n-]c(=O)[n-]c2[O-])cc(C)n1-c1cccc(C(=O)[NH+]2CCCC2C)c1 (protonated)
C=c1c(=Cc2[n-]c(=O)[n-]c2[O-])cc(C)n1-c1cccc(C(=O)[N@@H+]2CCC[C@@H]2C)c1 (chirality)
C=c1/c(=C\c2[n-]c(=O)[n-]c2[O-])cc(C)n1-c1cccc(C(=O)[N@@H+]2CCC[C@@H]2C)c1 (cis-trans isomerization)
C=c1/c(=C\c2[n-]c(=O)[n-]c2[O-])cc(C)n1-c1cccc(C(=O)[N@@H+]2CCC[C@@H]2C)c1 (3D coordinates assigned)
C=c1/c(=C\c2[n-]c(=O)[n-]c2[O-])cc(C)n1-c1cccc(C(=O)[N@@H+]2CCC[C@@H]2C)c1 (nonaromatic ring conformer: 143.69463694709606 kcal/mol)

>  <smiles>  (77) 
C=c1c(=Cc2[nH]c(=O)[nH]c2O)cc(C)n1-c1cccc(C(=O)N2CCCC2C)c1

>  <score_type>  (77) 
oracle

>  <origin>  (77) 
adg

>  <m_score__min__energy>  (77) 
-15.91

>  <m_primary>  (77) 
energy

$$$$
77:0
     RDKit          3D

 61 64  0  0  0  0  0  0  0  0999 V2000
   59.9590   28.3160   48.5760 C   0  0  0  0  0  0  0  0  0  0  0  0
   60.2090   29.7510   48.4480 N   0  0  0  0  0  0  0  0  0  0  0  0
   59.6630   30.6270   49.2800 N   0  0  0  0  0  0  0  0  0  0  0  0
   59.9560   31.8690   48.8450 C   0  0  0  0  0  0  0  0  0  0  0  0
   59.4810   33.1180   49.4760 C   0  0  0  0  0  0  0  0  0  0  0  0
   59.2050   33.1040   50.7030 O   0  0  0  0  0  0  0  0  0  0  0  0
   59.3250   34.3550   48.7610 N   0  0  0  0  0  0  0  0  0  0  0  0
   58.7080   34.5550   47.4480 C   0  0  0  0  0  0  0  0  0  0  0  0
   57.6640   33.4430   47.1610 C   0  0  0  0  0  0  0  0  0  0  0  0
   57.3900   33.2280   45.6550 C   0  0  0  0  0  0  0  0  0  0  0  0
   57.7440   34.4590   44.8180 C   0  0  0  0  0  0  0  0  0  0  0  0
   59.2330   34.8270   44.9630 C   0  0  0  0  0  0  0  0  0  0  0  0
   59.8030   34.5520   46.3710 C   0  0  0  0  0  0  0  0  0  0  0  0
   60.7330   31.7910   47.7010 C   0  0  0  0  0  0  0  0  0  0  0  0
   60.8740   30.4360   47.4790 C   0  0  0  0  0  0  0  0  0  0  0  0
   61.4730   29.9450   46.4300 N   0  0  0  0  0  0  0  0  0  0  0  0
   60.8900   29.1650   45.3790 C   0  0  0  0  0  0  0  0  0  0  0  0
   61.6250   28.5610   44.5560 O   0  0  0  0  0  0  0  0  0  0  0  0
   59.4230   29.1230   45.2280 C   0  0  0  0  0  0  0  0  0  0  0  0
   58.7290   30.2420   44.7410 C   0  0  0  0  0  0  0  0  0  0  0  0
   57.3390   30.2100   44.6160 C   0  0  0  0  0  0  0  0  0  0  0  0
   56.6130   29.0710   44.9990 C   0  0  0  0  0  0  0  0  0  0  0  0
   55.2190   29.0760   44.8850 O   0  0  0  0  0  0  0  0  0  0  0  0
   57.2960   27.9420   45.5110 C   0  0  0  0  0  0  0  0  0  0  0  0
   56.5580   26.7470   45.9920 C   0  0  0  0  0  0  0  0  0  0  0  0
   55.3030   26.6990   45.9170 O   0  0  0  0  0  0  0  0  0  0  0  0
   57.2670   25.6480   46.5710 N   0  0  0  0  0  0  0  0  0  0  0  0
   58.3830   24.9830   45.9130 C   0  0  0  0  0  0  0  0  0  0  0  0
   57.8640   23.9040   45.0050 C   0  0  0  0  0  0  0  0  0  0  0  0
   56.6510   24.1050   44.3120 C   0  0  0  0  0  0  0  0  0  0  0  0
   56.1300   23.0990   43.5010 C   0  0  0  0  0  0  0  0  0  0  0  0
   56.8040   21.8810   43.3730 C   0  0  0  0  0  0  0  0  0  0  0  0
   56.2960   20.9050   42.5840 F   0  0  0  0  0  0  0  0  0  0  0  0
   58.0050   21.6690   44.0630 C   0  0  0  0  0  0  0  0  0  0  0  0
   58.5290   22.6710   44.8830 C   0  0  0  0  0  0  0  0  0  0  0  0
   59.6840   22.4350   45.5570 F   0  0  0  0  0  0  0  0  0  0  0  0
   58.7050   27.9780   45.6080 C   0  0  0  0  0  0  0  0  0  0  0  0
   59.9119   28.0456   49.6412 H   0  0  0  0  0  0  0  0  0  0  0  0
   59.0037   28.0656   48.0915 H   0  0  0  0  0  0  0  0  0  0  0  0
   60.7733   27.7573   48.0915 H   0  0  0  0  0  0  0  0  0  0  0  0
   58.1855   35.5229   47.4362 H   0  0  0  0  0  0  0  0  0  0  0  0
   58.0356   32.4987   47.5855 H   0  0  0  0  0  0  0  0  0  0  0  0
   56.7167   33.7626   47.6197 H   0  0  0  0  0  0  0  0  0  0  0  0
   57.9919   32.3768   45.3041 H   0  0  0  0  0  0  0  0  0  0  0  0
   56.3136   33.0368   45.5331 H   0  0  0  0  0  0  0  0  0  0  0  0
   57.5290   34.2467   43.7603 H   0  0  0  0  0  0  0  0  0  0  0  0
   57.1411   35.3066   45.1760 H   0  0  0  0  0  0  0  0  0  0  0  0
   59.8092   34.2389   44.2335 H   0  0  0  0  0  0  0  0  0  0  0  0
   59.3165   35.9096   44.7869 H   0  0  0  0  0  0  0  0  0  0  0  0
   60.2954   33.5684   46.3685 H   0  0  0  0  0  0  0  0  0  0  0  0
   60.5161   35.3545   46.6106 H   0  0  0  0  0  0  0  0  0  0  0  0
   61.1438   32.6196   47.1055 H   0  0  0  0  0  0  0  0  0  0  0  0
   59.2833   31.1485   44.4565 H   0  0  0  0  0  0  0  0  0  0  0  0
   56.8077   31.0852   44.2138 H   0  0  0  0  0  0  0  0  0  0  0  0
   54.7110   28.2890   44.4940 H   0  0  0  0  0  0  0  0  0  0  0  0
   58.9495   25.7175   45.3218 H   0  0  0  0  0  0  0  0  0  0  0  0
   59.0403   24.5354   46.6729 H   0  0  0  0  0  0  0  0  0  0  0  0
   56.1146   25.0601   44.4126 H   0  0  0  0  0  0  0  0  0  0  0  0
   55.1863   23.2635   42.9603 H   0  0  0  0  0  0  0  0  0  0  0  0
   58.5363   20.7115   43.9587 H   0  0  0  0  0  0  0  0  0  0  0  0
   59.2461   27.0980   45.9859 H   0  0  0  0  0  0  0  0  0  0  0  0
  1  2  1  0
  2  3  1  0
  3  4  1  0
  4  5  1  0
  5  6  2  0
  5  7  1  0
  7  8  1  0
  8  9  1  0
  9 10  1  0
 10 11  1  0
 11 12  1  0
 12 13  1  0
  4 14  2  0
 14 15  1  0
 15 16  2  3
 16 17  1  0
 17 18  2  0
 17 19  1  0
 19 20  2  0
 20 21  1  0
 21 22  2  0
 22 23  1  0
 22 24  1  0
 24 25  1  0
 25 26  2  0
 25 27  1  0
 27 28  1  0
 28 29  1  0
 29 30  2  0
 30 31  1  0
 31 32  2  0
 32 33  1  0
 32 34  1  0
 34 35  2  0
 35 36  1  0
 24 37  2  0
 15  2  1  0
 37 19  1  0
 13  8  1  0
 35 29  1  0
  1 38  1  0
  1 39  1  0
  1 40  1  0
  8 41  1  0
  9 42  1  0
  9 43  1  0
 10 44  1  0
 10 45  1  0
 11 46  1  0
 11 47  1  0
 12 48  1  0
 12 49  1  0
 13 50  1  0
 13 51  1  0
 14 52  1  0
 20 53  1  0
 21 54  1  0
 23 55  1  0
 28 56  1  0
 28 57  1  0
 30 58  1  0
 31 59  1  0
 34 60  1  0
 37 61  1  0
M  CHG  3   3  -1   7  -1  27  -1
M  END
>  <UniqueID>  (78) 
74

>  <SMILES>  (78) 
Cn1[n-]c(C(=O)[N-]C2CCCCC2)cc1=NC(=O)c1ccc(O)c(C(=O)[N-]Cc2ccc(F)cc2F)c1

>  <Energy>  (78) 
111.09585030842429

>  <Genealogy>  (78) 
Cn1[n-]c(C(=O)[N-]C2CCCCC2)cc1=NC(=O)c1ccc(O)c(C(=O)[N-]Cc2ccc(F)cc2F)c1 (protonated)
Cn1[n-]c(C(=O)[N-]C2CCCCC2)cc1=NC(=O)c1ccc(O)c(C(=O)[N-]Cc2ccc(F)cc2F)c1 (3D coordinates assigned)
Cn1[n-]c(C(=O)[N-]C2CCCCC2)cc1=NC(=O)c1ccc(O)c(C(=O)[N-]Cc2ccc(F)cc2F)c1 (nonaromatic ring conformer: 111.09585030842429 kcal/mol)

>  <smiles>  (78) 
Cn1[nH]c(C(=O)NC2CCCCC2)cc1=NC(=O)c1ccc(O)c(C(=O)NCc2ccc(F)cc2F)c1

>  <score_type>  (78) 
oracle

>  <origin>  (78) 
adg

>  <m_score__min__energy>  (78) 
-14.1

>  <m_primary>  (78) 
energy

$$$$
78:0
     RDKit          3D

 54 56  0  0  0  0  0  0  0  0999 V2000
   56.1080   29.6880   43.2160 C   0  0  0  0  0  0  0  0  0  0  0  0
   56.8020   30.9360   43.6440 C   0  0  0  0  0  0  0  0  0  0  0  0
   56.6390   31.5000   44.8600 N   0  0  0  0  0  0  0  0  0  0  0  0
   57.3240   32.6700   44.9710 C   0  0  0  0  0  0  0  0  0  0  0  0
   57.2520   33.5100   46.2120 C   0  0  0  0  0  0  0  0  0  0  0  0
   58.5180   34.3580   46.3810 C   0  0  0  0  0  0  0  0  0  0  0  0
   59.6650   33.5260   46.7470 N   0  0  0  0  0  0  0  0  0  0  0  0
   60.5040   33.8210   47.8730 C   0  0  0  0  0  0  0  0  0  0  0  0
   60.3290   34.8850   48.5310 O   0  0  0  0  0  0  0  0  0  0  0  0
   61.6420   32.8880   48.2220 C   0  0  1  0  0  0  0  0  0  0  0  0
   61.4470   32.2970   49.6450 C   0  0  0  0  0  0  0  0  0  0  0  0
   61.1800   30.7840   49.6580 C   0  0  0  0  0  0  0  0  0  0  0  0
   60.2430   30.3700   48.5220 C   0  0  0  0  0  0  0  0  0  0  0  0
   60.7820   30.7780   47.2160 N   0  0  0  0  0  0  0  0  0  0  0  0
   60.2680   30.1470   46.0270 C   0  0  0  0  0  0  0  0  0  0  0  0
   59.3640   30.7220   45.3640 O   0  0  0  0  0  0  0  0  0  0  0  0
   60.7640   28.8030   45.5630 C   0  0  0  0  0  0  0  0  0  0  0  0
   59.6060   27.8450   45.3890 C   0  0  0  0  0  0  0  0  0  0  0  0
   58.9480   27.7970   44.1460 C   0  0  0  0  0  0  0  0  0  0  0  0
   57.8530   26.9540   43.9540 C   0  0  0  0  0  0  0  0  0  0  0  0
   57.3950   26.1530   44.9990 C   0  0  0  0  0  0  0  0  0  0  0  0
   58.0260   26.1940   46.2410 C   0  0  0  0  0  0  0  0  0  0  0  0
   59.1310   27.0380   46.4560 C   0  0  0  0  0  0  0  0  0  0  0  0
   59.7650   27.0780   47.8240 C   0  0  0  0  0  0  0  0  0  0  0  0
   61.8360   31.8040   47.1390 C   0  0  0  0  0  0  0  0  0  0  0  0
   58.0100   33.0650   43.8240 C   0  0  0  0  0  0  0  0  0  0  0  0
   57.7570   31.8930   42.6460 S   0  0  0  0  0  0  0  0  0  0  0  0
   55.7926   29.1208   44.1042 H   0  0  0  0  0  0  0  0  0  0  0  0
   55.2247   29.9476   42.6140 H   0  0  0  0  0  0  0  0  0  0  0  0
   56.7946   29.0747   42.6140 H   0  0  0  0  0  0  0  0  0  0  0  0
   56.3798   34.1768   46.1440 H   0  0  0  0  0  0  0  0  0  0  0  0
   57.1618   32.8413   47.0808 H   0  0  0  0  0  0  0  0  0  0  0  0
   58.7351   34.8721   45.4331 H   0  0  0  0  0  0  0  0  0  0  0  0
   58.3448   35.0875   47.1859 H   0  0  0  0  0  0  0  0  0  0  0  0
   59.9030   32.7140   46.1350 H   0  0  0  0  0  0  0  0  0  0  0  0
   62.5773   33.4666   48.2416 H   0  0  0  0  0  0  0  0  0  0  0  0
   62.3579   32.4933   50.2296 H   0  0  0  0  0  0  0  0  0  0  0  0
   60.5580   32.7824   50.0739 H   0  0  0  0  0  0  0  0  0  0  0  0
   62.1358   30.2514   49.5449 H   0  0  0  0  0  0  0  0  0  0  0  0
   60.6988   30.5268   50.6132 H   0  0  0  0  0  0  0  0  0  0  0  0
   60.1232   29.2766   48.5355 H   0  0  0  0  0  0  0  0  0  0  0  0
   59.2730   30.8671   48.6704 H   0  0  0  0  0  0  0  0  0  0  0  0
   61.2845   28.9210   44.6011 H   0  0  0  0  0  0  0  0  0  0  0  0
   61.4530   28.3967   46.3181 H   0  0  0  0  0  0  0  0  0  0  0  0
   59.3002   28.4299   43.3182 H   0  0  0  0  0  0  0  0  0  0  0  0
   57.3501   26.9213   42.9762 H   0  0  0  0  0  0  0  0  0  0  0  0
   56.5335   25.4870   44.8429 H   0  0  0  0  0  0  0  0  0  0  0  0
   57.6566   25.5605   47.0609 H   0  0  0  0  0  0  0  0  0  0  0  0
   58.9804   27.0285   48.5934 H   0  0  0  0  0  0  0  0  0  0  0  0
   60.4451   26.2210   47.9382 H   0  0  0  0  0  0  0  0  0  0  0  0
   60.3320   28.0137   47.9382 H   0  0  0  0  0  0  0  0  0  0  0  0
   62.8151   31.3239   47.2835 H   0  0  0  0  0  0  0  0  0  0  0  0
   61.7814   32.2853   46.1514 H   0  0  0  0  0  0  0  0  0  0  0  0
   58.6097   33.9801   43.7100 H   0  0  0  0  0  0  0  0  0  0  0  0
  1  2  1  0
  2  3  2  0
  3  4  1  0
  4  5  1  0
  5  6  1  0
  6  7  1  0
  7  8  1  0
  8  9  2  0
  8 10  1  0
 10 11  1  0
 11 12  1  0
 12 13  1  0
 13 14  1  0
 14 15  1  0
 15 16  2  0
 15 17  1  0
 17 18  1  0
 18 19  2  0
 19 20  1  0
 20 21  2  0
 21 22  1  0
 22 23  2  0
 23 24  1  0
 14 25  1  0
  4 26  2  0
 26 27  1  0
 27  2  1  0
 25 10  1  0
 23 18  1  0
  1 28  1  0
  1 29  1  0
  1 30  1  0
  5 31  1  0
  5 32  1  0
  6 33  1  0
  6 34  1  0
  7 35  1  0
 10 36  1  1
 11 37  1  0
 11 38  1  0
 12 39  1  0
 12 40  1  0
 13 41  1  0
 13 42  1  0
 17 43  1  0
 17 44  1  0
 19 45  1  0
 20 46  1  0
 21 47  1  0
 22 48  1  0
 24 49  1  0
 24 50  1  0
 24 51  1  0
 25 52  1  0
 25 53  1  0
 26 54  1  0
M  END
>  <UniqueID>  (79) 
75

>  <SMILES>  (79) 
Cc1nc(CCNC(=O)[C@H]2CCCN(C(=O)Cc3ccccc3C)C2)cs1

>  <Energy>  (79) 
79.25836119273855

>  <Genealogy>  (79) 
Cc1nc(CCNC(=O)[C@H]2CCCN(C(=O)Cc3ccccc3C)C2)cs1 (chirality)
Cc1nc(CCNC(=O)[C@H]2CCCN(C(=O)Cc3ccccc3C)C2)cs1 (3D coordinates assigned)
Cc1nc(CCNC(=O)[C@H]2CCCN(C(=O)Cc3ccccc3C)C2)cs1 (nonaromatic ring conformer: 79.25836119273855 kcal/mol)

>  <smiles>  (79) 
Cc1nc(CCNC(=O)C2CCCN(C(=O)Cc3ccccc3C)C2)cs1

>  <score_type>  (79) 
oracle

>  <origin>  (79) 
adg

>  <m_score__min__energy>  (79) 
-9.2100000000000009

>  <m_primary>  (79) 
energy

$$$$
79:0
     RDKit          3D

 42 44  0  0  0  0  0  0  0  0999 V2000
   56.7440   20.9380   44.1500 H   0  0  0  0  0  0  0  0  0  0  0  0
   55.8990   21.4600   43.9560 O   0  0  0  0  0  0  0  0  0  0  0  0
   55.6170   22.7010   44.5300 C   0  0  0  0  0  0  0  0  0  0  0  0
   54.3300   22.9770   44.8630 N   0  0  0  0  0  0  0  0  0  0  0  0
   53.9790   24.1690   45.4050 C   0  0  0  0  0  0  0  0  0  0  0  0
   52.7800   24.3910   45.7120 O   0  0  0  0  0  0  0  0  0  0  0  0
   54.9180   25.1240   45.6070 N   0  0  0  0  0  0  0  0  0  0  0  0
   56.2230   24.9140   45.2900 C   0  0  0  0  0  0  0  0  0  0  0  0
   57.1660   25.9770   45.4950 N   0  0  0  0  0  0  0  0  0  0  0  0
   57.7320   26.1920   46.8340 C   0  0  0  0  0  0  0  0  0  0  0  0
   58.7033   25.6795   46.8967 H   0  0  0  0  0  0  0  0  0  0  0  0
   57.0245   25.7889   47.5736 H   0  0  0  0  0  0  0  0  0  0  0  0
   57.9380   27.6930   47.1340 C   0  0  0  0  0  0  0  0  0  0  0  0
   58.8736   27.8089   47.7008 H   0  0  0  0  0  0  0  0  0  0  0  0
   57.0591   28.0314   47.7024 H   0  0  0  0  0  0  0  0  0  0  0  0
   58.0230   28.5720   45.8670 C   0  0  0  0  0  0  0  0  0  0  0  0
   57.0112   28.8631   45.5483 H   0  0  0  0  0  0  0  0  0  0  0  0
   58.7990   29.7780   46.1720 N   0  0  0  0  0  0  0  0  0  0  0  0
   58.5360   31.0340   45.9290 C   0  0  0  0  0  0  0  0  0  0  0  0
   59.4180   31.9610   46.3950 N   0  0  0  0  0  0  0  0  0  0  0  0
   59.2460   33.2920   46.1980 C   0  0  0  0  0  0  0  0  0  0  0  0
   59.9808   34.0111   46.5891 H   0  0  0  0  0  0  0  0  0  0  0  0
   58.1320   33.7380   45.4970 C   0  0  0  0  0  0  0  0  0  0  0  0
   57.9777   34.8135   45.3251 H   0  0  0  0  0  0  0  0  0  0  0  0
   57.2370   32.8340   45.0270 N   0  0  0  0  0  0  0  0  0  0  0  0
   57.3940   31.4940   45.2190 C   0  0  0  0  0  0  0  0  0  0  0  0
   56.4300   30.6130   44.7210 O   0  0  0  0  0  0  0  0  0  0  0  0
   56.4390   30.1210   43.3860 C   0  0  0  0  0  0  0  0  0  0  0  0
   56.4591   29.0213   43.4006 H   0  0  0  0  0  0  0  0  0  0  0  0
   55.5344   30.4642   42.8626 H   0  0  0  0  0  0  0  0  0  0  0  0
   57.3304   30.4971   42.8626 H   0  0  0  0  0  0  0  0  0  0  0  0
   58.6810   27.7830   44.7220 C   0  0  0  0  0  0  0  0  0  0  0  0
   59.6551   27.3963   45.0562 H   0  0  0  0  0  0  0  0  0  0  0  0
   58.8259   28.4466   43.8567 H   0  0  0  0  0  0  0  0  0  0  0  0
   57.7770   26.6110   44.3200 C   0  0  0  0  0  0  0  0  0  0  0  0
   58.3785   25.8633   43.7823 H   0  0  0  0  0  0  0  0  0  0  0  0
   56.9720   26.9993   43.6788 H   0  0  0  0  0  0  0  0  0  0  0  0
   56.6220   23.6640   44.7650 C   0  0  0  0  0  0  0  0  0  0  0  0
   58.0700   23.3600   44.4740 C   0  0  0  0  0  0  0  0  0  0  0  0
   58.6180   23.2450   45.4208 H   0  0  0  0  0  0  0  0  0  0  0  0
   58.1396   22.4277   43.8944 H   0  0  0  0  0  0  0  0  0  0  0  0
   58.5087   24.1856   43.8944 H   0  0  0  0  0  0  0  0  0  0  0  0
  1  2  1  0
  2  3  1  0
  3  4  1  0
  4  5  1  0
  5  6  2  0
  5  7  1  0
  7  8  2  0
  8  9  1  0
  9 10  1  0
 10 11  1  0
 10 12  1  0
 10 13  1  0
 13 14  1  0
 13 15  1  0
 13 16  1  0
 16 17  1  0
 16 18  1  0
 18 19  2  0
 19 20  1  0
 20 21  1  0
 21 22  1  0
 21 23  2  0
 23 24  1  0
 23 25  1  0
 25 26  2  0
 26 27  1  0
 27 28  1  0
 28 29  1  0
 28 30  1  0
 28 31  1  0
 16 32  1  0
 32 33  1  0
 32 34  1  0
 32 35  1  0
 35 36  1  0
 35 37  1  0
  8 38  1  0
 38 39  1  0
 39 40  1  0
 39 41  1  0
 39 42  1  0
 38  3  2  0
 35  9  1  0
 26 19  1  0
M  CHG  2   4  -1  20  -1
M  END
>  <UniqueID>  (80) 
76

>  <SMILES>  (80) 
COc1ncc[n-]/c1=N/C1CCN(c2nc(=O)[n-]c(O)c2C)CC1

>  <Energy>  (80) 
58.11052586496548

>  <Genealogy>  (80) 
COc1ncc[n-]c1=NC1CCN(c2nc(=O)[n-]c(O)c2C)CC1 (protonated)
COc1ncc[n-]/c1=N/C1CCN(c2nc(=O)[n-]c(O)c2C)CC1 (cis-trans isomerization)
COc1ncc[n-]/c1=N/C1CCN(c2nc(=O)[n-]c(O)c2C)CC1 (3D coordinates assigned)
COc1ncc[n-]/c1=N/C1CCN(c2nc(=O)[n-]c(O)c2C)CC1 (nonaromatic ring conformer: 58.11052586496548 kcal/mol)

>  <smiles>  (80) 
COc1ncc[nH]c1=NC1CCN(c2nc(=O)[nH]c(O)c2C)CC1

>  <score_type>  (80) 
oracle

>  <origin>  (80) 
adg

>  <m_score__min__energy>  (80) 
-9.9199999999999999

>  <m_primary>  (80) 
energy

$$$$
80:0
     RDKit          3D

 46 49  0  0  0  0  0  0  0  0999 V2000
   57.2630   33.9280   43.8420 H   0  0  0  0  0  0  0  0  0  0  0  0
   57.6450   34.5690   44.5000 O   0  0  0  0  0  0  0  0  0  0  0  0
   58.4940   33.8660   45.3770 C   0  0  2  0  0  0  0  0  0  0  0  0
   59.3009   33.6185   44.6716 H   0  0  0  0  0  0  0  0  0  0  0  0
   57.7770   32.8140   46.2170 C   0  0  0  0  0  0  0  0  0  0  0  0
   58.2519   31.8225   46.1790 H   0  0  0  0  0  0  0  0  0  0  0  0
   56.7419   32.5412   45.9639 H   0  0  0  0  0  0  0  0  0  0  0  0
   58.0400   33.5450   47.4680 N   0  0  1  0  0  0  0  0  0  0  0  0
   57.1500   33.8960   47.8960 H   0  0  0  0  0  0  0  0  0  0  0  0
   58.9040   32.8410   48.3940 C   0  0  0  0  0  0  0  0  0  0  0  0
   58.4380   32.3730   49.4710 O   0  0  0  0  0  0  0  0  0  0  0  0
   60.3330   32.6210   48.0700 C   0  0  0  0  0  0  0  0  0  0  0  0
   61.2410   33.6900   48.1680 C   0  0  0  0  0  0  0  0  0  0  0  0
   60.8889   34.6757   48.5062 H   0  0  0  0  0  0  0  0  0  0  0  0
   62.5880   33.5100   47.8390 C   0  0  0  0  0  0  0  0  0  0  0  0
   63.4530   34.5500   47.9330 F   0  0  0  0  0  0  0  0  0  0  0  0
   63.0440   32.2630   47.4080 C   0  0  0  0  0  0  0  0  0  0  0  0
   64.1037   32.1247   47.1473 H   0  0  0  0  0  0  0  0  0  0  0  0
   62.1550   31.1920   47.3080 C   0  0  0  0  0  0  0  0  0  0  0  0
   62.5186   30.2100   46.9712 H   0  0  0  0  0  0  0  0  0  0  0  0
   60.8010   31.3590   47.6340 C   0  0  0  0  0  0  0  0  0  0  0  0
   59.9210   30.2220   47.5760 N   0  0  0  0  0  0  0  0  0  0  0  0
   59.6760   29.3710   48.5950 C   0  0  0  0  0  0  0  0  0  0  0  0
   60.2230   29.5160   49.9820 C   0  0  0  0  0  0  0  0  0  0  0  0
   59.4287   29.3054   50.7133 H   0  0  0  0  0  0  0  0  0  0  0  0
   61.0511   28.8064   50.1256 H   0  0  0  0  0  0  0  0  0  0  0  0
   60.5908   30.5427   50.1256 H   0  0  0  0  0  0  0  0  0  0  0  0
   58.8120   28.3750   48.1900 C   0  0  0  0  0  0  0  0  0  0  0  0
   58.4416   27.5395   48.8022 H   0  0  0  0  0  0  0  0  0  0  0  0
   58.5000   28.6290   46.8630 C   0  0  0  0  0  0  0  0  0  0  0  0
   57.6230   27.8820   46.1660 C   0  0  0  0  0  0  0  0  0  0  0  0
   57.1910   28.3309   45.2595 H   0  0  0  0  0  0  0  0  0  0  0  0
   57.1920   26.5190   46.5100 C   0  0  0  0  0  0  0  0  0  0  0  0
   57.9930   25.6110   47.0930 N   0  0  0  0  0  0  0  0  0  0  0  0
   57.1620   24.5760   47.3420 C   0  0  0  0  0  0  0  0  0  0  0  0
   57.5530   23.5060   47.8790 O   0  0  0  0  0  0  0  0  0  0  0  0
   55.8760   24.7800   46.9820 N   0  0  0  0  0  0  0  0  0  0  0  0
   55.9090   26.0220   46.4720 C   0  0  0  0  0  0  0  0  0  0  0  0
   54.7860   26.6950   46.0070 O   0  0  0  0  0  0  0  0  0  0  0  0
   59.2420   29.7650   46.4950 C   0  0  0  0  0  0  0  0  0  0  0  0
   59.3760   30.2900   45.2680 C   0  0  0  0  0  0  0  0  0  0  0  0
   59.9915   31.1894   45.1188 H   0  0  0  0  0  0  0  0  0  0  0  0
   58.8704   29.8212   44.4109 H   0  0  0  0  0  0  0  0  0  0  0  0
   58.7420   34.5830   46.7010 C   0  0  0  0  0  0  0  0  0  0  0  0
   59.8076   34.6741   46.9583 H   0  0  0  0  0  0  0  0  0  0  0  0
   58.4271   35.6315   46.8081 H   0  0  0  0  0  0  0  0  0  0  0  0
  1  2  1  0
  2  3  1  0
  3  4  1  1
  3  5  1  0
  5  6  1  0
  5  7  1  0
  5  8  1  0
  8  9  1  6
  8 10  1  0
 10 11  2  0
 10 12  1  0
 12 13  2  0
 13 14  1  0
 13 15  1  0
 15 16  1  0
 15 17  2  0
 17 18  1  0
 17 19  1  0
 19 20  1  0
 19 21  2  0
 21 22  1  0
 22 23  1  0
 23 24  1  0
 24 25  1  0
 24 26  1  0
 24 27  1  0
 23 28  2  0
 28 29  1  0
 28 30  1  0
 30 31  2  0
 31 32  1  0
 31 33  1  0
 33 34  1  0
 34 35  1  0
 35 36  2  0
 35 37  1  0
 37 38  1  0
 38 39  1  0
 30 40  1  0
 40 41  2  0
 41 42  1  0
 41 43  1  0
  8 44  1  0
 44 45  1  0
 44 46  1  0
 44  3  1  0
 21 12  1  0
 40 22  1  0
 38 33  2  0
M  CHG  4   8   1  34  -1  37  -1  39  -1
M  END
>  <UniqueID>  (81) 
77

>  <SMILES>  (81) 
C=c1/c(=C\c2[n-]c(=O)[n-]c2[O-])cc(C)n1-c1ccc(F)cc1C(=O)[NH+]1CC(O)C1

>  <Energy>  (81) 
205.38482441954048

>  <Genealogy>  (81) 
C=c1c(=Cc2[n-]c(=O)[n-]c2[O-])cc(C)n1-c1ccc(F)cc1C(=O)[NH+]1CC(O)C1 (protonated)
C=c1/c(=C\c2[n-]c(=O)[n-]c2[O-])cc(C)n1-c1ccc(F)cc1C(=O)[NH+]1CC(O)C1 (cis-trans isomerization)
C=c1/c(=C\c2[n-]c(=O)[n-]c2[O-])cc(C)n1-c1ccc(F)cc1C(=O)[NH+]1CC(O)C1 (3D coordinates assigned)
C=c1/c(=C\c2[n-]c(=O)[n-]c2[O-])cc(C)n1-c1ccc(F)cc1C(=O)[NH+]1CC(O)C1 (nonaromatic ring conformer: 205.38482441954048 kcal/mol)

>  <smiles>  (81) 
C=c1c(=Cc2[nH]c(=O)[nH]c2O)cc(C)n1-c1ccc(F)cc1C(=O)N1CC(O)C1

>  <score_type>  (81) 
oracle

>  <origin>  (81) 
adg

>  <m_score__min__energy>  (81) 
-14.220000000000001

>  <m_primary>  (81) 
energy

$$$$
81:0
     RDKit          3D

 62 65  0  0  0  0  0  0  0  0999 V2000
   58.7110   34.6120   46.5540 C   0  0  0  0  0  0  0  0  0  0  0  0
   58.0440   33.2710   46.4710 C   0  0  0  0  0  0  0  0  0  0  0  0
   57.6470   32.7350   47.5400 O   0  0  0  0  0  0  0  0  0  0  0  0
   57.8460   32.5700   45.1730 C   0  0  0  0  0  0  0  0  0  0  0  0
   58.1130   33.2400   43.9680 C   0  0  0  0  0  0  0  0  0  0  0  0
   57.9170   32.6010   42.7430 C   0  0  0  0  0  0  0  0  0  0  0  0
   57.4520   31.2860   42.7040 C   0  0  0  0  0  0  0  0  0  0  0  0
   57.1780   30.5960   43.8880 C   0  0  0  0  0  0  0  0  0  0  0  0
   56.6970   29.2790   43.7910 O   0  0  0  0  0  0  0  0  0  0  0  0
   57.3970   28.1060   44.2100 C   0  0  0  0  0  0  0  0  0  0  0  0
   58.0390   28.3170   45.5490 C   0  0  0  0  0  0  0  0  0  0  0  0
   57.5290   27.7820   46.5690 O   0  0  0  0  0  0  0  0  0  0  0  0
   59.2430   29.0930   45.6500 N   0  0  0  0  0  0  0  0  0  0  0  0
   59.9000   29.4080   46.8880 C   0  0  0  0  0  0  0  0  0  0  0  0
   59.9350   28.4920   47.9530 C   0  0  0  0  0  0  0  0  0  0  0  0
   60.5430   28.8410   49.1620 C   0  0  0  0  0  0  0  0  0  0  0  0
   61.1140   30.1120   49.3340 C   0  0  0  0  0  0  0  0  0  0  0  0
   61.7600   30.4570   50.5770 N   0  0  0  0  0  0  0  0  0  0  0  0
   60.9900   30.9020   51.7400 C   0  0  0  0  0  0  0  0  0  0  0  0
   61.3290   32.3650   52.0260 C   0  0  0  0  0  0  0  0  0  0  0  0
   62.7900   32.6360   51.9900 N   0  0  0  0  0  0  0  0  0  0  0  0
   63.1790   33.8690   51.2660 C   0  0  0  0  0  0  0  0  0  0  0  0
   62.9980   33.7740   49.7660 C   0  0  0  0  0  0  0  0  0  0  0  0
   64.0170   33.2600   48.9440 C   0  0  0  0  0  0  0  0  0  0  0  0
   63.8610   33.2370   47.5550 C   0  0  0  0  0  0  0  0  0  0  0  0
   62.6800   33.7010   46.9740 C   0  0  0  0  0  0  0  0  0  0  0  0
   61.6450   34.1760   47.7830 C   0  0  0  0  0  0  0  0  0  0  0  0
   61.7990   34.2110   49.1720 C   0  0  0  0  0  0  0  0  0  0  0  0
   63.6820   31.4690   51.7910 C   0  0  0  0  0  0  0  0  0  0  0  0
   63.2230   30.5560   50.6360 C   0  0  0  0  0  0  0  0  0  0  0  0
   61.0740   31.0270   48.2660 C   0  0  0  0  0  0  0  0  0  0  0  0
   60.4630   30.6800   47.0600 C   0  0  0  0  0  0  0  0  0  0  0  0
   57.3870   31.2390   45.1240 C   0  0  0  0  0  0  0  0  0  0  0  0
   58.8485   34.8884   47.6098 H   0  0  0  0  0  0  0  0  0  0  0  0
   59.6910   34.5655   46.0565 H   0  0  0  0  0  0  0  0  0  0  0  0
   58.0827   35.3655   46.0565 H   0  0  0  0  0  0  0  0  0  0  0  0
   58.4796   34.2769   43.9899 H   0  0  0  0  0  0  0  0  0  0  0  0
   58.1297   33.1355   41.8054 H   0  0  0  0  0  0  0  0  0  0  0  0
   57.3000   30.7890   41.7345 H   0  0  0  0  0  0  0  0  0  0  0  0
   56.6876   27.2681   44.2785 H   0  0  0  0  0  0  0  0  0  0  0  0
   58.1834   27.8835   43.4737 H   0  0  0  0  0  0  0  0  0  0  0  0
   59.7370   29.3440   44.7630 H   0  0  0  0  0  0  0  0  0  0  0  0
   59.4822   27.4965   47.8347 H   0  0  0  0  0  0  0  0  0  0  0  0
   60.5745   28.1133   49.9863 H   0  0  0  0  0  0  0  0  0  0  0  0
   59.9145   30.8061   51.5298 H   0  0  0  0  0  0  0  0  0  0  0  0
   61.2417   30.2828   52.6136 H   0  0  0  0  0  0  0  0  0  0  0  0
   60.8362   32.9941   51.2701 H   0  0  0  0  0  0  0  0  0  0  0  0
   60.9748   32.5943   53.0419 H   0  0  0  0  0  0  0  0  0  0  0  0
   62.5624   34.7002   51.6387 H   0  0  0  0  0  0  0  0  0  0  0  0
   64.2515   34.0274   51.4520 H   0  0  0  0  0  0  0  0  0  0  0  0
   64.9421   32.8738   49.3968 H   0  0  0  0  0  0  0  0  0  0  0  0
   64.6713   32.8522   46.9183 H   0  0  0  0  0  0  0  0  0  0  0  0
   62.5643   33.6927   45.8801 H   0  0  0  0  0  0  0  0  0  0  0  0
   60.7066   34.5233   47.3260 H   0  0  0  0  0  0  0  0  0  0  0  0
   60.9788   34.5820   49.8042 H   0  0  0  0  0  0  0  0  0  0  0  0
   64.6951   31.8350   51.5683 H   0  0  0  0  0  0  0  0  0  0  0  0
   63.6575   30.8722   52.7147 H   0  0  0  0  0  0  0  0  0  0  0  0
   63.5918   30.9692   49.6856 H   0  0  0  0  0  0  0  0  0  0  0  0
   63.6302   29.5490   50.8096 H   0  0  0  0  0  0  0  0  0  0  0  0
   61.5273   32.0225   48.3822 H   0  0  0  0  0  0  0  0  0  0  0  0
   60.4230   31.4103   46.2384 H   0  0  0  0  0  0  0  0  0  0  0  0
   57.1898   30.6963   46.0603 H   0  0  0  0  0  0  0  0  0  0  0  0
  1  2  1  0
  2  3  2  0
  2  4  1  0
  4  5  2  0
  5  6  1  0
  6  7  2  0
  7  8  1  0
  8  9  1  0
  9 10  1  0
 10 11  1  0
 11 12  2  0
 11 13  1  0
 13 14  1  0
 14 15  2  0
 15 16  1  0
 16 17  2  0
 17 18  1  0
 18 19  1  0
 19 20  1  0
 20 21  1  0
 21 22  1  0
 22 23  1  0
 23 24  2  0
 24 25  1  0
 25 26  2  0
 26 27  1  0
 27 28  2  0
 21 29  1  0
 29 30  1  0
 17 31  1  0
 31 32  2  0
  8 33  2  0
 33  4  1  0
 32 14  1  0
 30 18  1  0
 28 23  1  0
  1 34  1  0
  1 35  1  0
  1 36  1  0
  5 37  1  0
  6 38  1  0
  7 39  1  0
 10 40  1  0
 10 41  1  0
 13 42  1  0
 15 43  1  0
 16 44  1  0
 19 45  1  0
 19 46  1  0
 20 47  1  0
 20 48  1  0
 22 49  1  0
 22 50  1  0
 24 51  1  0
 25 52  1  0
 26 53  1  0
 27 54  1  0
 28 55  1  0
 29 56  1  0
 29 57  1  0
 30 58  1  0
 30 59  1  0
 31 60  1  0
 32 61  1  0
 33 62  1  0
M  END
>  <UniqueID>  (82) 
78

>  <SMILES>  (82) 
CC(=O)c1cccc(OCC(=O)Nc2ccc(N3CCN(Cc4ccccc4)CC3)cc2)c1

>  <Energy>  (82) 
81.4546226044373

>  <Genealogy>  (82) 
CC(=O)c1cccc(OCC(=O)Nc2ccc(N3CCN(Cc4ccccc4)CC3)cc2)c1 (3D coordinates assigned)
CC(=O)c1cccc(OCC(=O)Nc2ccc(N3CCN(Cc4ccccc4)CC3)cc2)c1 (nonaromatic ring conformer: 81.4546226044373 kcal/mol)

>  <smiles>  (82) 
CC(=O)c1cccc(OCC(=O)Nc2ccc(N3CCN(Cc4ccccc4)CC3)cc2)c1

>  <score_type>  (82) 
oracle

>  <origin>  (82) 
adg

>  <m_score__min__energy>  (82) 
-9.4100000000000001

>  <m_primary>  (82) 
energy

$$$$
82:0
     RDKit          3D

 27 28  0  0  0  0  0  0  0  0999 V2000
   61.8890   31.0290   48.1470 C   0  0  0  0  0  0  0  0  0  0  0  0
   61.1980   31.7120   47.2210 C   0  0  0  0  0  0  0  0  0  0  0  0
   59.9240   31.1850   46.6580 C   0  0  0  0  0  0  0  0  0  0  0  0
   59.7120   29.8050   46.5050 C   0  0  0  0  0  0  0  0  0  0  0  0
   58.5310   29.3260   45.9470 C   0  0  0  0  0  0  0  0  0  0  0  0
   57.5560   30.2170   45.4730 C   0  0  0  0  0  0  0  0  0  0  0  0
   56.3680   29.7680   44.8730 O   0  0  0  0  0  0  0  0  0  0  0  0
   56.1270   29.7520   43.4690 C   0  0  0  0  0  0  0  0  0  0  0  0
   57.7690   31.6000   45.5750 C   0  0  0  0  0  0  0  0  0  0  0  0
   56.8160   32.4360   44.9870 O   0  0  0  0  0  0  0  0  0  0  0  0
   58.9340   32.0990   46.2200 C   0  0  0  0  0  0  0  0  0  0  0  0
   59.1350   33.5520   46.5150 C   0  0  0  0  0  0  0  0  0  0  0  0
   58.1650   34.3560   46.4980 O   0  0  0  0  0  0  0  0  0  0  0  0
   60.4670   34.0740   46.9950 C   0  0  0  0  0  0  0  0  0  0  0  0
   61.6070   33.0870   46.7300 C   0  0  1  0  0  0  0  0  0  0  0  0
   63.2640   33.8130   47.4690 Br  0  0  0  0  0  0  0  0  0  0  0  0
   62.8276   31.4402   48.5471 H   0  0  0  0  0  0  0  0  0  0  0  0
   61.5168   30.0581   48.5058 H   0  0  0  0  0  0  0  0  0  0  0  0
   60.4876   29.0958   46.8297 H   0  0  0  0  0  0  0  0  0  0  0  0
   58.3604   28.2416   45.8769 H   0  0  0  0  0  0  0  0  0  0  0  0
   55.0451   29.6802   43.2835 H   0  0  0  0  0  0  0  0  0  0  0  0
   56.5154   30.6779   43.0197 H   0  0  0  0  0  0  0  0  0  0  0  0
   56.6344   28.8856   43.0197 H   0  0  0  0  0  0  0  0  0  0  0  0
   56.8110   33.4420   45.0860 H   0  0  0  0  0  0  0  0  0  0  0  0
   60.6866   35.0168   46.4726 H   0  0  0  0  0  0  0  0  0  0  0  0
   60.3977   34.2243   48.0825 H   0  0  0  0  0  0  0  0  0  0  0  0
   61.8110   32.9530   45.6574 H   0  0  0  0  0  0  0  0  0  0  0  0
  1  2  2  0
  2  3  1  0
  3  4  2  0
  4  5  1  0
  5  6  2  0
  6  7  1  0
  7  8  1  0
  6  9  1  0
  9 10  1  0
  9 11  2  0
 11 12  1  0
 12 13  2  0
 12 14  1  0
 14 15  1  0
 15 16  1  0
 15  2  1  0
 11  3  1  0
  1 17  1  0
  1 18  1  0
  4 19  1  0
  5 20  1  0
  8 21  1  0
  8 22  1  0
  8 23  1  0
 10 24  1  0
 14 25  1  0
 14 26  1  0
 15 27  1  6
M  END
>  <UniqueID>  (83) 
79

>  <SMILES>  (83) 
C=C1c2ccc(OC)c(O)c2C(=O)C[C@H]1Br

>  <Energy>  (83) 
41.38161718127392

>  <Genealogy>  (83) 
C=C1c2ccc(OC)c(O)c2C(=O)C[C@H]1Br (chirality)
C=C1c2ccc(OC)c(O)c2C(=O)C[C@H]1Br (3D coordinates assigned)
C=C1c2ccc(OC)c(O)c2C(=O)C[C@H]1Br (nonaromatic ring conformer: 41.38161718127392 kcal/mol)

>  <smiles>  (83) 
C=C1c2ccc(OC)c(O)c2C(=O)CC1Br

>  <score_type>  (83) 
oracle

>  <origin>  (83) 
adg

>  <m_score__min__energy>  (83) 
-6.21

>  <m_primary>  (83) 
energy

$$$$
83:0
     RDKit          3D

 40 42  0  0  1  0  0  0  0  0999 V2000
   63.7550   31.5810   46.9170 N   0  0  0  0  0  0  0  0  0  0  0  0
   63.3320   33.1810   47.3940 S   0  0  0  0  0  0  0  0  0  0  0  0
   63.3330   34.0900   46.1880 O   0  0  0  0  0  0  0  0  0  0  0  0
   64.3270   33.6190   48.4330 O   0  0  0  0  0  0  0  0  0  0  0  0
   61.7530   33.2240   48.1600 C   0  0  0  0  0  0  0  0  0  0  0  0
   61.6530   33.4350   49.5220 C   0  0  0  0  0  0  0  0  0  0  0  0
   60.4130   33.4700   50.1290 C   0  0  0  0  0  0  0  0  0  0  0  0
   59.2930   26.9070   46.3230 C   0  0  0  0  0  0  0  0  0  0  0  0
   58.6180   27.8980   45.6400 C   0  0  0  0  0  0  0  0  0  0  0  0
   58.1710   32.9020   47.2180 N   0  0  0  0  0  0  0  0  0  0  0  0
   58.2570   32.1420   46.1930 C   0  0  0  0  0  0  0  0  0  0  0  0
   58.8030   30.9120   46.2010 N   0  0  0  0  0  0  0  0  0  0  0  0
   58.8600   30.1610   45.0760 C   0  0  0  0  0  0  0  0  0  0  0  0
   59.3780   28.9770   45.0560 N   0  0  0  0  0  0  0  0  0  0  0  0
   59.3320   33.0860   48.0210 C   0  0  0  0  0  0  0  0  0  0  0  0
   59.2630   33.2970   49.3850 C   0  0  0  0  0  0  0  0  0  0  0  0
   58.6130   25.8500   46.9030 C   0  0  0  0  0  0  0  0  0  0  0  0
   57.2240   25.8090   46.7810 C   0  0  0  0  0  0  0  0  0  0  0  0
   56.5650   26.8140   46.0920 C   0  0  0  0  0  0  0  0  0  0  0  0
   55.1660   26.7150   46.0050 O   0  0  0  0  0  0  0  0  0  0  0  0
   57.2400   27.8770   45.5070 C   0  0  0  0  0  0  0  0  0  0  0  0
   58.3580   30.6660   43.9270 N   0  0  0  0  0  0  0  0  0  0  0  0
   57.7980   31.8860   43.8460 C   0  0  0  0  0  0  0  0  0  0  0  0
   57.7480   32.6370   45.0000 C   0  0  0  0  0  0  0  0  0  0  0  0
   57.0170   34.2270   44.8850 Cl  0  0  0  0  0  0  0  0  0  0  0  0
   60.5940   33.0540   47.4290 C   0  0  0  0  0  0  0  0  0  0  0  0
   62.9930   31.0750   46.4150 H   0  0  0  0  0  0  0  0  0  0  0  0
   64.6630   31.5430   46.4090 H   0  0  0  0  0  0  0  0  0  0  0  0
   62.5629   33.5754   50.1239 H   0  0  0  0  0  0  0  0  0  0  0  0
   60.3411   33.6370   51.2139 H   0  0  0  0  0  0  0  0  0  0  0  0
   60.3885   26.9578   46.4079 H   0  0  0  0  0  0  0  0  0  0  0  0
   59.1850   30.5400   47.0930 H   0  0  0  0  0  0  0  0  0  0  0  0
   58.2825   33.3274   49.8826 H   0  0  0  0  0  0  0  0  0  0  0  0
   59.1545   25.0619   47.4467 H   0  0  0  0  0  0  0  0  0  0  0  0
   56.6543   24.9821   47.2300 H   0  0  0  0  0  0  0  0  0  0  0  0
   54.7650   26.1140   46.7380 H   0  0  0  0  0  0  0  0  0  0  0  0
   56.7036   28.6677   44.9619 H   0  0  0  0  0  0  0  0  0  0  0  0
   58.3860   30.1100   43.0410 H   0  0  0  0  0  0  0  0  0  0  0  0
   57.3960   32.2690   42.8964 H   0  0  0  0  0  0  0  0  0  0  0  0
   60.6687   32.8879   46.3442 H   0  0  0  0  0  0  0  0  0  0  0  0
  1  2  1  0
  2  3  2  0
  2  4  2  0
  2  5  1  0
  5  6  2  0
  6  7  1  0
  7  8  2  0
  8  9  1  0
  9 10  1  0
 10 11  2  0
 11 12  1  0
 12 13  1  0
 13 14  2  0
 14 15  1  0
 15 16  2  0
 16 17  1  0
 17 18  2  0
 18 19  1  0
 19 20  1  0
 19 21  2  0
 13 22  1  0
 22 23  1  0
 23 24  2  0
 24 25  1  0
  9 26  2  0
 26  5  1  0
 24 11  1  0
 21 15  1  0
  1 27  1  0
  1 28  1  0
  6 29  1  0
  7 30  1  0
  8 31  1  0
 12 32  1  0
 16 33  1  0
 17 34  1  0
 18 35  1  0
 20 36  1  0
 21 37  1  0
 22 38  1  0
 23 39  1  0
 26 40  1  0
M  END
>  <smiles>  (84) 
NS(=O)(=O)c1cccc(N=c2[nH]c(=Nc3cccc(O)c3)[nH]cc2Cl)c1

>  <score_type>  (84) 
oracle

>  <origin>  (84) 
adg

>  <m_score__min__energy>  (84) 
-9.6400000000000006

>  <m_primary>  (84) 
energy

$$$$
84:0
     RDKit          3D

 51 54  0  0  0  0  0  0  0  0999 V2000
   53.9840   29.8010   55.1280 C   0  0  0  0  0  0  0  0  0  0  0  0
   54.5590   30.1120   53.9550 C   0  0  0  0  0  0  0  0  0  0  0  0
   53.9300   30.7120   52.8500 C   0  0  0  0  0  0  0  0  0  0  0  0
   52.6310   30.9690   52.5990 C   0  0  0  0  0  0  0  0  0  0  0  0
   52.0380   31.1940   51.2720 C   0  0  0  0  0  0  0  0  0  0  0  0
   52.0050   30.2600   50.3050 N   0  0  0  0  0  0  0  0  0  0  0  0
   51.2700   30.8440   49.3330 C   0  0  0  0  0  0  0  0  0  0  0  0
   51.0230   30.2770   48.2370 O   0  0  0  0  0  0  0  0  0  0  0  0
   50.8080   32.0770   49.6350 N   0  0  0  0  0  0  0  0  0  0  0  0
   51.2910   32.2770   50.8710 C   0  0  0  0  0  0  0  0  0  0  0  0
   51.0290   33.4140   51.6270 O   0  0  0  0  0  0  0  0  0  0  0  0
   54.9330   31.0140   51.9500 C   0  0  0  0  0  0  0  0  0  0  0  0
   56.1070   30.5330   52.4840 C   0  0  0  0  0  0  0  0  0  0  0  0
   57.4060   30.6010   51.7910 C   0  0  0  0  0  0  0  0  0  0  0  0
   57.7470   29.6430   51.0470 O   0  0  0  0  0  0  0  0  0  0  0  0
   58.3040   31.7080   51.9980 N   0  0  0  0  0  0  0  0  0  0  0  0
   58.1160   32.5940   53.1570 C   0  0  0  0  0  0  0  0  0  0  0  0
   58.2300   34.0470   52.7130 C   0  0  0  0  0  0  0  0  0  0  0  0
   59.5110   34.2560   52.0580 N   0  0  0  0  0  0  0  0  0  0  0  0
   60.0840   33.2520   51.2190 C   0  0  0  0  0  0  0  0  0  0  0  0
   61.1490   33.5020   50.5930 O   0  0  0  0  0  0  0  0  0  0  0  0
   59.4390   31.9000   51.0750 C   0  0  0  0  0  0  0  0  0  0  0  0
   55.8940   29.9880   53.7070 N   0  0  0  0  0  0  0  0  0  0  0  0
   56.9510   29.5840   54.6540 C   0  0  0  0  0  0  0  0  0  0  0  0
   57.6520   28.3390   54.1690 C   0  0  0  0  0  0  0  0  0  0  0  0
   58.9210   28.4280   53.5730 C   0  0  0  0  0  0  0  0  0  0  0  0
   59.5900   27.2740   53.1550 C   0  0  0  0  0  0  0  0  0  0  0  0
   59.0020   26.0160   53.3320 C   0  0  0  0  0  0  0  0  0  0  0  0
   59.8410   24.5650   52.7950 S   0  0  0  0  0  0  0  0  0  0  0  0
   58.8720   23.7370   51.6260 N   0  0  0  0  0  0  0  0  0  0  0  0
   60.0930   23.6570   53.9660 O   0  0  0  0  0  0  0  0  0  0  0  0
   61.1610   24.9370   52.1800 O   0  0  0  0  0  0  0  0  0  0  0  0
   57.7320   25.9220   53.9150 C   0  0  0  0  0  0  0  0  0  0  0  0
   57.0610   27.0750   54.3330 C   0  0  0  0  0  0  0  0  0  0  0  0
   54.5792   29.3312   55.9249 H   0  0  0  0  0  0  0  0  0  0  0  0
   52.9178   30.0161   55.2920 H   0  0  0  0  0  0  0  0  0  0  0  0
   51.9534   31.0146   53.4643 H   0  0  0  0  0  0  0  0  0  0  0  0
   54.8161   31.5385   50.9902 H   0  0  0  0  0  0  0  0  0  0  0  0
   57.1207   32.4212   53.5923 H   0  0  0  0  0  0  0  0  0  0  0  0
   58.8891   32.3802   53.9097 H   0  0  0  0  0  0  0  0  0  0  0  0
   57.4167   34.2802   52.0101 H   0  0  0  0  0  0  0  0  0  0  0  0
   58.1564   34.7050   53.5914 H   0  0  0  0  0  0  0  0  0  0  0  0
   59.0749   31.7922   50.0426 H   0  0  0  0  0  0  0  0  0  0  0  0
   60.1980   31.1426   51.3205 H   0  0  0  0  0  0  0  0  0  0  0  0
   57.6842   30.3988   54.7463 H   0  0  0  0  0  0  0  0  0  0  0  0
   56.4904   29.3736   55.6305 H   0  0  0  0  0  0  0  0  0  0  0  0
   59.3915   29.4126   53.4343 H   0  0  0  0  0  0  0  0  0  0  0  0
   60.5815   27.3547   52.6855 H   0  0  0  0  0  0  0  0  0  0  0  0
   59.5110   23.1030   51.0950 H   0  0  0  0  0  0  0  0  0  0  0  0
   57.2605   24.9367   54.0445 H   0  0  0  0  0  0  0  0  0  0  0  0
   56.0651   26.9922   54.7927 H   0  0  0  0  0  0  0  0  0  0  0  0
  1  2  2  0
  2  3  1  0
  3  4  2  3
  4  5  1  0
  5  6  1  0
  6  7  1  0
  7  8  2  0
  7  9  1  0
  9 10  1  0
 10 11  1  0
  3 12  1  0
 12 13  2  0
 13 14  1  0
 14 15  2  0
 14 16  1  0
 16 17  1  0
 17 18  1  0
 18 19  1  0
 19 20  1  0
 20 21  2  0
 20 22  1  0
 13 23  1  0
 23 24  1  0
 24 25  1  0
 25 26  2  0
 26 27  1  0
 27 28  2  0
 28 29  1  0
 29 30  1  0
 29 31  2  0
 29 32  2  0
 28 33  1  0
 33 34  2  0
 23  2  1  0
 34 25  1  0
 10  5  2  0
 22 16  1  0
  1 35  1  0
  1 36  1  0
  4 37  1  0
 12 38  1  0
 17 39  1  0
 17 40  1  0
 18 41  1  0
 18 42  1  0
 22 43  1  0
 22 44  1  0
 24 45  1  0
 24 46  1  0
 26 47  1  0
 27 48  1  0
 30 49  1  0
 33 50  1  0
 34 51  1  0
M  CHG  5   6  -1   9  -1  11  -1  19  -1  30  -1
M  END
>  <UniqueID>  (85) 
80

>  <SMILES>  (85) 
C=c1c(=Cc2[n-]c(=O)[n-]c2[O-])cc(C(=O)N2CC[N-]C(=O)C2)n1Cc1ccc(S([NH-])(=O)=O)cc1

>  <Energy>  (85) 
129.84715138463795

>  <Genealogy>  (85) 
C=c1c(=Cc2[n-]c(=O)[n-]c2[O-])cc(C(=O)N2CC[N-]C(=O)C2)n1Cc1ccc(S([NH-])(=O)=O)cc1 (protonated)
C=c1c(=Cc2[n-]c(=O)[n-]c2[O-])cc(C(=O)N2CC[N-]C(=O)C2)n1Cc1ccc(S([NH-])(=O)=O)cc1 (3D coordinates assigned)
C=c1c(=Cc2[n-]c(=O)[n-]c2[O-])cc(C(=O)N2CC[N-]C(=O)C2)n1Cc1ccc(S([NH-])(=O)=O)cc1 (nonaromatic ring conformer: 129.84715138463795 kcal/mol)

>  <smiles>  (85) 
C=c1c(=Cc2[nH]c(=O)[nH]c2O)cc(C(=O)N2CCNC(=O)C2)n1Cc1ccc(S(N)(=O)=O)cc1

>  <score_type>  (85) 
oracle

>  <origin>  (85) 
adg

>  <m_score__min__energy>  (85) 
-17.609999999999999

>  <m_primary>  (85) 
energy

$$$$
85:0
     RDKit          3D

 49 52  0  0  0  0  0  0  0  0999 V2000
   58.0680   29.0220   43.3999 H   0  0  0  0  0  0  0  0  0  0  0  0
   57.8330   28.0010   43.7350 C   0  0  0  0  0  0  0  0  0  0  0  0
   57.5373   27.2359   43.0020 H   0  0  0  0  0  0  0  0  0  0  0  0
   57.9070   27.6890   45.0370 C   0  0  0  0  0  0  0  0  0  0  0  0
   57.6440   26.4510   45.6240 C   0  0  0  0  0  0  0  0  0  0  0  0
   57.3400   25.3010   44.9950 C   0  0  0  0  0  0  0  0  0  0  0  0
   58.1284   24.7952   44.4184 H   0  0  0  0  0  0  0  0  0  0  0  0
   55.9950   24.6840   45.0420 C   0  0  0  0  0  0  0  0  0  0  0  0
   54.9110   25.4100   45.5620 C   0  0  0  0  0  0  0  0  0  0  0  0
   55.0820   26.7170   46.0070 O   0  0  0  0  0  0  0  0  0  0  0  0
   53.6790   24.8420   45.6260 N   0  0  0  0  0  0  0  0  0  0  0  0
   53.4720   23.5690   45.2050 C   0  0  0  0  0  0  0  0  0  0  0  0
   52.3190   23.0660   45.2680 O   0  0  0  0  0  0  0  0  0  0  0  0
   54.5060   22.8350   44.7220 N   0  0  0  0  0  0  0  0  0  0  0  0
   55.7580   23.3540   44.6390 C   0  0  0  0  0  0  0  0  0  0  0  0
   56.7000   22.6260   44.2250 O   0  0  0  0  0  0  0  0  0  0  0  0
   57.7720   26.5570   46.9650 N   0  0  0  0  0  0  0  0  0  0  0  0
   58.1020   27.8480   47.1650 C   0  0  0  0  0  0  0  0  0  0  0  0
   58.3170   28.3260   48.3110 O   0  0  0  0  0  0  0  0  0  0  0  0
   58.2000   28.5660   46.0260 N   0  0  0  0  0  0  0  0  0  0  0  0
   58.5600   29.9560   45.9230 C   0  0  0  0  0  0  0  0  0  0  0  0
   59.8030   30.4110   46.3860 C   0  0  0  0  0  0  0  0  0  0  0  0
   60.5205   29.6991   46.8201 H   0  0  0  0  0  0  0  0  0  0  0  0
   60.1240   31.7290   46.3000 N   0  0  0  0  0  0  0  0  0  0  0  0
   59.2630   32.6470   45.7740 C   0  0  0  0  0  0  0  0  0  0  0  0
   59.6150   34.0000   45.6940 O   0  0  0  0  0  0  0  0  0  0  0  0
   59.5530   34.8930   46.8060 C   0  0  0  0  0  0  0  0  0  0  0  0
   60.1864   35.7680   46.5984 H   0  0  0  0  0  0  0  0  0  0  0  0
   58.5052   35.1956   46.9497 H   0  0  0  0  0  0  0  0  0  0  0  0
   60.0330   34.2290   48.0700 C   0  0  0  0  0  0  0  0  0  0  0  0
   59.3340   34.3260   49.1150 O   0  0  0  0  0  0  0  0  0  0  0  0
   61.2850   33.5110   48.1100 N   0  0  0  0  0  0  0  0  0  0  0  0
   61.5850   32.6660   49.2730 C   0  0  0  0  0  0  0  0  0  0  0  0
   62.0033   33.2894   50.0770 H   0  0  0  0  0  0  0  0  0  0  0  0
   60.6574   32.1842   49.6157 H   0  0  0  0  0  0  0  0  0  0  0  0
   62.6000   31.5830   48.8920 C   0  0  0  0  0  0  0  0  0  0  0  0
   62.9160   31.0489   49.8003 H   0  0  0  0  0  0  0  0  0  0  0  0
   62.1251   30.8868   48.1850 H   0  0  0  0  0  0  0  0  0  0  0  0
   63.7350   32.1560   48.2720 O   0  0  0  0  0  0  0  0  0  0  0  0
   63.3580   32.7310   47.0360 C   0  0  0  0  0  0  0  0  0  0  0  0
   64.2590   33.0834   46.5125 H   0  0  0  0  0  0  0  0  0  0  0  0
   62.8400   31.9684   46.4359 H   0  0  0  0  0  0  0  0  0  0  0  0
   62.4080   33.9140   47.2530 C   0  0  0  0  0  0  0  0  0  0  0  0
   62.9562   34.7368   47.7352 H   0  0  0  0  0  0  0  0  0  0  0  0
   62.0166   34.2439   46.2793 H   0  0  0  0  0  0  0  0  0  0  0  0
   58.0100   32.2350   45.3110 C   0  0  0  0  0  0  0  0  0  0  0  0
   57.3071   32.9673   44.8872 H   0  0  0  0  0  0  0  0  0  0  0  0
   57.6580   30.8860   45.3910 C   0  0  0  0  0  0  0  0  0  0  0  0
   56.6714   30.5535   45.0359 H   0  0  0  0  0  0  0  0  0  0  0  0
  1  2  1  0
  2  3  1  0
  2  4  2  0
  4  5  1  0
  5  6  2  0
  6  7  1  0
  6  8  1  0
  8  9  2  0
  9 10  1  0
  9 11  1  0
 11 12  1  0
 12 13  2  0
 12 14  1  0
 14 15  1  0
 15 16  2  0
  5 17  1  0
 17 18  1  0
 18 19  2  0
 18 20  1  0
 20 21  1  0
 21 22  2  0
 22 23  1  0
 22 24  1  0
 24 25  2  0
 25 26  1  0
 26 27  1  0
 27 28  1  0
 27 29  1  0
 27 30  1  0
 30 31  2  0
 30 32  1  0
 32 33  1  0
 33 34  1  0
 33 35  1  0
 33 36  1  0
 36 37  1  0
 36 38  1  0
 36 39  1  0
 39 40  1  0
 40 41  1  0
 40 42  1  0
 40 43  1  0
 43 44  1  0
 43 45  1  0
 25 46  1  0
 46 47  1  0
 46 48  2  0
 48 49  1  0
 20  4  1  0
 48 21  1  0
 15  8  1  0
 43 32  1  0
M  CHG  4  10  -1  11  -1  14  -1  17  -1
M  END
>  <UniqueID>  (86) 
81

>  <SMILES>  (86) 
C=c1/c(=C/c2c([O-])[n-]c(=O)[n-]c2=O)[n-]c(=O)n1-c1ccc(OCC(=O)N2CCOCC2)nc1

>  <Energy>  (86) 
103.47937738019345

>  <Genealogy>  (86) 
C=c1c(=Cc2c([O-])[n-]c(=O)[n-]c2=O)[n-]c(=O)n1-c1ccc(OCC(=O)N2CCOCC2)nc1 (protonated)
C=c1/c(=C/c2c([O-])[n-]c(=O)[n-]c2=O)[n-]c(=O)n1-c1ccc(OCC(=O)N2CCOCC2)nc1 (cis-trans isomerization)
C=c1/c(=C/c2c([O-])[n-]c(=O)[n-]c2=O)[n-]c(=O)n1-c1ccc(OCC(=O)N2CCOCC2)nc1 (3D coordinates assigned)
C=c1/c(=C/c2c([O-])[n-]c(=O)[n-]c2=O)[n-]c(=O)n1-c1ccc(OCC(=O)N2CCOCC2)nc1 (nonaromatic ring conformer: 103.47937738019345 kcal/mol)

>  <smiles>  (86) 
C=c1c(=Cc2c(O)[nH]c(=O)[nH]c2=O)[nH]c(=O)n1-c1ccc(OCC(=O)N2CCOCC2)nc1

>  <score_type>  (86) 
oracle

>  <origin>  (86) 
adg

>  <m_score__min__energy>  (86) 
-16.829999999999998

>  <m_primary>  (86) 
energy

$$$$
86:0
     RDKit          3D

 57 60  0  0  0  0  0  0  0  0999 V2000
   60.5607   27.6006   47.7983 H   0  0  0  0  0  0  0  0  0  0  0  0
   59.7940   27.3310   47.0570 C   0  0  0  0  0  0  0  0  0  0  0  0
   59.5728   26.2726   46.8546 H   0  0  0  0  0  0  0  0  0  0  0  0
   59.1280   28.2940   46.3990 C   0  0  0  0  0  0  0  0  0  0  0  0
   58.1330   28.1060   45.4350 C   0  0  0  0  0  0  0  0  0  0  0  0
   57.6460   26.9350   44.9780 C   0  0  0  0  0  0  0  0  0  0  0  0
   57.5667   26.7934   43.8900 H   0  0  0  0  0  0  0  0  0  0  0  0
   57.2120   25.8290   45.8620 C   0  0  0  0  0  0  0  0  0  0  0  0
   55.8950   25.7460   46.3490 C   0  0  0  0  0  0  0  0  0  0  0  0
   54.9510   26.7130   46.0200 O   0  0  0  0  0  0  0  0  0  0  0  0
   55.5270   24.7000   47.1310 N   0  0  0  0  0  0  0  0  0  0  0  0
   56.4060   23.7130   47.4430 C   0  0  0  0  0  0  0  0  0  0  0  0
   56.0420   22.7550   48.1720 O   0  0  0  0  0  0  0  0  0  0  0  0
   57.6740   23.7560   46.9620 N   0  0  0  0  0  0  0  0  0  0  0  0
   58.0940   24.7820   46.1760 C   0  0  0  0  0  0  0  0  0  0  0  0
   59.2780   24.7860   45.7460 O   0  0  0  0  0  0  0  0  0  0  0  0
   57.7060   29.3720   45.0600 C   0  0  0  0  0  0  0  0  0  0  0  0
   56.9212   29.6105   44.3270 H   0  0  0  0  0  0  0  0  0  0  0  0
   58.4580   30.2740   45.7860 C   0  0  0  0  0  0  0  0  0  0  0  0
   58.3370   31.7640   45.6830 C   0  0  0  0  0  0  0  0  0  0  0  0
   58.3016   32.1996   46.6924 H   0  0  0  0  0  0  0  0  0  0  0  0
   59.2055   32.1658   45.1405 H   0  0  0  0  0  0  0  0  0  0  0  0
   57.4151   32.0204   45.1405 H   0  0  0  0  0  0  0  0  0  0  0  0
   59.3180   29.6220   46.6010 N   0  0  0  0  0  0  0  0  0  0  0  0
   60.2830   30.2410   47.4710 C   0  0  0  0  0  0  0  0  0  0  0  0
   60.2600   29.9990   48.8490 C   0  0  0  0  0  0  0  0  0  0  0  0
   59.5021   29.3256   49.2758 H   0  0  0  0  0  0  0  0  0  0  0  0
   61.1730   30.5950   49.6610 N   0  0  0  0  0  0  0  0  0  0  0  0
   62.1350   31.4330   49.1820 C   0  0  0  0  0  0  0  0  0  0  0  0
   63.0640   32.0480   50.0960 N   0  0  0  0  0  0  0  0  0  0  0  0
   63.2440   33.5030   50.0660 C   0  0  0  0  0  0  0  0  0  0  0  0
   63.4290   33.8219   49.0296 H   0  0  0  0  0  0  0  0  0  0  0  0
   62.3323   33.9784   50.4569 H   0  0  0  0  0  0  0  0  0  0  0  0
   64.4310   33.9250   50.9410 C   0  0  0  0  0  0  0  0  0  0  0  0
   64.7581   34.9354   50.6543 H   0  0  0  0  0  0  0  0  0  0  0  0
   64.1275   33.9266   51.9983 H   0  0  0  0  0  0  0  0  0  0  0  0
   65.5460   32.9700   50.7460 N   0  0  0  0  0  0  0  0  0  0  0  0
   66.8350   33.4670   51.3170 C   0  0  0  0  0  0  0  0  0  0  0  0
   67.1074   32.7621   52.1163 H   0  0  0  0  0  0  0  0  0  0  0  0
   66.6900   34.8900   51.9000 C   0  0  0  0  0  0  0  0  0  0  0  0
   66.6953   34.8384   52.9988 H   0  0  0  0  0  0  0  0  0  0  0  0
   67.5293   35.5136   51.5582 H   0  0  0  0  0  0  0  0  0  0  0  0
   65.7422   35.3315   51.5582 H   0  0  0  0  0  0  0  0  0  0  0  0
   67.9440   33.5120   50.2410 C   0  0  0  0  0  0  0  0  0  0  0  0
   68.9283   33.5519   50.7304 H   0  0  0  0  0  0  0  0  0  0  0  0
   67.8828   32.6106   49.6135 H   0  0  0  0  0  0  0  0  0  0  0  0
   67.8100   34.4054   49.6135 H   0  0  0  0  0  0  0  0  0  0  0  0
   65.1860   31.6310   51.2950 C   0  0  0  0  0  0  0  0  0  0  0  0
   65.7535   30.8670   50.7433 H   0  0  0  0  0  0  0  0  0  0  0  0
   65.4323   31.6499   52.3669 H   0  0  0  0  0  0  0  0  0  0  0  0
   63.6860   31.2920   51.1880 C   0  0  0  0  0  0  0  0  0  0  0  0
   63.5714   30.2154   50.9938 H   0  0  0  0  0  0  0  0  0  0  0  0
   63.1924   31.5621   52.1332 H   0  0  0  0  0  0  0  0  0  0  0  0
   62.1720   31.7180   47.8070 C   0  0  0  0  0  0  0  0  0  0  0  0
   62.9259   32.4111   47.4053 H   0  0  0  0  0  0  0  0  0  0  0  0
   61.2460   31.1160   46.9540 C   0  0  0  0  0  0  0  0  0  0  0  0
   61.2727   31.3290   45.8751 H   0  0  0  0  0  0  0  0  0  0  0  0
  1  2  1  0
  2  3  1  0
  2  4  2  0
  4  5  1  0
  5  6  2  0
  6  7  1  0
  6  8  1  0
  8  9  2  0
  9 10  1  0
  9 11  1  0
 11 12  1  0
 12 13  2  0
 12 14  1  0
 14 15  1  0
 15 16  2  0
  5 17  1  0
 17 18  1  0
 17 19  2  0
 19 20  1  0
 20 21  1  0
 20 22  1  0
 20 23  1  0
 19 24  1  0
 24 25  1  0
 25 26  2  0
 26 27  1  0
 26 28  1  0
 28 29  2  0
 29 30  1  0
 30 31  1  0
 31 32  1  0
 31 33  1  0
 31 34  1  0
 34 35  1  0
 34 36  1  0
 34 37  1  0
 37 38  1  0
 38 39  1  0
 38 40  1  0
 40 41  1  0
 40 42  1  0
 40 43  1  0
 38 44  1  0
 44 45  1  0
 44 46  1  0
 44 47  1  0
 37 48  1  0
 48 49  1  0
 48 50  1  0
 48 51  1  0
 51 52  1  0
 51 53  1  0
 29 54  1  0
 54 55  1  0
 54 56  2  0
 56 57  1  0
 24  4  1  0
 56 25  1  0
 15  8  1  0
 51 30  1  0
M  CHG  3  10  -1  11  -1  14  -1
M  END
>  <UniqueID>  (87) 
82

>  <SMILES>  (87) 
C=c1/c(=C/c2c([O-])[n-]c(=O)[n-]c2=O)cc(C)n1-c1ccc(N2CCN(C(C)C)CC2)nc1

>  <Energy>  (87) 
117.34224291713343

>  <Genealogy>  (87) 
C=c1c(=Cc2c([O-])[n-]c(=O)[n-]c2=O)cc(C)n1-c1ccc(N2CCN(C(C)C)CC2)nc1 (protonated)
C=c1/c(=C/c2c([O-])[n-]c(=O)[n-]c2=O)cc(C)n1-c1ccc(N2CCN(C(C)C)CC2)nc1 (cis-trans isomerization)
C=c1/c(=C/c2c([O-])[n-]c(=O)[n-]c2=O)cc(C)n1-c1ccc(N2CCN(C(C)C)CC2)nc1 (3D coordinates assigned)
C=c1/c(=C/c2c([O-])[n-]c(=O)[n-]c2=O)cc(C)n1-c1ccc(N2CCN(C(C)C)CC2)nc1 (nonaromatic ring conformer: 117.34224291713343 kcal/mol)

>  <smiles>  (87) 
C=c1c(=Cc2c(O)[nH]c(=O)[nH]c2=O)cc(C)n1-c1ccc(N2CCN(C(C)C)CC2)nc1

>  <score_type>  (87) 
oracle

>  <origin>  (87) 
adg

>  <m_score__min__energy>  (87) 
-15.76

>  <m_primary>  (87) 
energy

$$$$
87:0
     RDKit          3D

 50 53  0  0  0  0  0  0  0  0999 V2000
   57.6475   24.9454   46.6153 H   0  0  0  0  0  0  0  0  0  0  0  0
   57.9480   26.0030   46.6510 C   0  0  0  0  0  0  0  0  0  0  0  0
   57.5240   26.8620   45.6870 N   0  0  0  0  0  0  0  0  0  0  0  0
   57.8720   28.1790   45.6880 C   0  0  0  0  0  0  0  0  0  0  0  0
   57.4650   28.9900   44.7540 N   0  0  0  0  0  0  0  0  0  0  0  0
   56.3170   29.8530   44.7850 C   0  0  0  0  0  0  0  0  0  0  0  0
   55.1740   29.3310   44.8550 O   0  0  0  0  0  0  0  0  0  0  0  0
   56.4560   31.2780   44.6820 N   0  0  0  0  0  0  0  0  0  0  0  0
   57.5650   32.0690   45.1340 C   0  0  0  0  0  0  0  0  0  0  0  0
   58.1530   31.7570   46.3640 C   0  0  0  0  0  0  0  0  0  0  0  0
   57.7712   30.9093   46.9518 H   0  0  0  0  0  0  0  0  0  0  0  0
   59.2210   32.5130   46.8520 C   0  0  0  0  0  0  0  0  0  0  0  0
   59.6812   32.2481   47.8153 H   0  0  0  0  0  0  0  0  0  0  0  0
   59.7110   33.6050   46.1260 C   0  0  0  0  0  0  0  0  0  0  0  0
   60.7900   34.3270   46.6610 O   0  0  0  0  0  0  0  0  0  0  0  0
   62.0720   33.7850   46.9720 C   0  0  0  0  0  0  0  0  0  0  0  0
   62.9750   34.1930   46.0100 F   0  0  0  0  0  0  0  0  0  0  0  0
   62.0170   32.4030   46.9740 F   0  0  0  0  0  0  0  0  0  0  0  0
   62.4970   34.2420   48.2060 F   0  0  0  0  0  0  0  0  0  0  0  0
   59.1040   33.9380   44.8980 C   0  0  0  0  0  0  0  0  0  0  0  0
   59.4727   34.7982   44.3200 H   0  0  0  0  0  0  0  0  0  0  0  0
   58.0350   33.1790   44.4120 C   0  0  0  0  0  0  0  0  0  0  0  0
   57.5591   33.4525   43.4587 H   0  0  0  0  0  0  0  0  0  0  0  0
   58.6910   28.6740   46.7110 C   0  0  0  0  0  0  0  0  0  0  0  0
   58.9877   29.7332   46.7156 H   0  0  0  0  0  0  0  0  0  0  0  0
   59.1330   27.8140   47.7320 C   0  0  0  0  0  0  0  0  0  0  0  0
   60.0080   28.3060   48.8220 C   0  0  0  0  0  0  0  0  0  0  0  0
   61.0150   27.6220   49.1530 O   0  0  0  0  0  0  0  0  0  0  0  0
   59.7210   29.5610   49.5530 C   0  0  0  0  0  0  0  0  0  0  0  0
   58.5220   29.9050   50.1690 C   0  0  0  0  0  0  0  0  0  0  0  0
   57.6129   29.2858   50.1548 H   0  0  0  0  0  0  0  0  0  0  0  0
   58.6250   31.1060   50.7890 N   0  0  0  0  0  0  0  0  0  0  0  0
   57.5620   31.7680   51.5060 C   0  0  0  0  0  0  0  0  0  0  0  0
   57.6070   33.0080   51.7170 O   0  0  0  0  0  0  0  0  0  0  0  0
   56.3600   31.0050   51.9710 C   0  0  0  0  0  0  0  0  0  0  0  0
   56.3376   30.9908   53.0707 H   0  0  0  0  0  0  0  0  0  0  0  0
   55.4485   31.4902   51.5919 H   0  0  0  0  0  0  0  0  0  0  0  0
   56.4111   29.9736   51.5919 H   0  0  0  0  0  0  0  0  0  0  0  0
   59.8970   31.5250   50.5800 C   0  0  0  0  0  0  0  0  0  0  0  0
   60.5220   32.6940   51.0380 C   0  0  0  0  0  0  0  0  0  0  0  0
   59.9738   33.4241   51.6516 H   0  0  0  0  0  0  0  0  0  0  0  0
   61.8680   32.9080   50.6920 C   0  0  0  0  0  0  0  0  0  0  0  0
   62.3805   33.8191   51.0342 H   0  0  0  0  0  0  0  0  0  0  0  0
   62.5660   31.9660   49.9110 C   0  0  0  0  0  0  0  0  0  0  0  0
   63.6174   32.1485   49.6442 H   0  0  0  0  0  0  0  0  0  0  0  0
   61.9270   30.7950   49.4710 C   0  0  0  0  0  0  0  0  0  0  0  0
   62.4629   30.0535   48.8603 H   0  0  0  0  0  0  0  0  0  0  0  0
   60.5920   30.5990   49.8310 C   0  0  0  0  0  0  0  0  0  0  0  0
   58.7640   26.4610   47.6860 C   0  0  0  0  0  0  0  0  0  0  0  0
   59.1161   25.7651   48.4617 H   0  0  0  0  0  0  0  0  0  0  0  0
  1  2  1  0
  2  3  1  0
  3  4  1  0
  4  5  2  0
  5  6  1  0
  6  7  2  0
  6  8  1  0
  8  9  1  0
  9 10  2  0
 10 11  1  0
 10 12  1  0
 12 13  1  0
 12 14  2  0
 14 15  1  0
 15 16  1  0
 16 17  1  0
 16 18  1  0
 16 19  1  0
 14 20  1  0
 20 21  1  0
 20 22  2  0
 22 23  1  0
  4 24  1  0
 24 25  1  0
 24 26  2  0
 26 27  1  0
 27 28  2  0
 27 29  1  0
 29 30  2  0
 30 31  1  0
 30 32  1  0
 32 33  1  0
 33 34  2  0
 33 35  1  0
 35 36  1  0
 35 37  1  0
 35 38  1  0
 32 39  1  0
 39 40  2  0
 40 41  1  0
 40 42  1  0
 42 43  1  0
 42 44  2  0
 44 45  1  0
 44 46  1  0
 46 47  1  0
 46 48  2  0
 26 49  1  0
 49 50  1  0
 49  2  2  0
 22  9  1  0
 48 29  1  0
 48 39  1  0
M  CHG  2   3  -1   8  -1
M  END
>  <UniqueID>  (88) 
83

>  <SMILES>  (88) 
CC(=O)n1cc(C(=O)c2cc[n-]/c(=N\C(=O)[N-]c3ccc(OC(F)(F)F)cc3)c2)c2ccccc21

>  <Energy>  (88) 
102.06236395052919

>  <Genealogy>  (88) 
CC(=O)n1cc(C(=O)c2cc[n-]c(=NC(=O)[N-]c3ccc(OC(F)(F)F)cc3)c2)c2ccccc21 (protonated)
CC(=O)n1cc(C(=O)c2cc[n-]/c(=N\C(=O)[N-]c3ccc(OC(F)(F)F)cc3)c2)c2ccccc21 (cis-trans isomerization)
CC(=O)n1cc(C(=O)c2cc[n-]/c(=N\C(=O)[N-]c3ccc(OC(F)(F)F)cc3)c2)c2ccccc21 (3D coordinates assigned)
CC(=O)n1cc(C(=O)c2cc[n-]/c(=N\C(=O)[N-]c3ccc(OC(F)(F)F)cc3)c2)c2ccccc21 (optimized conformer: 102.06236395052919 kcal/mol)

>  <smiles>  (88) 
CC(=O)n1cc(C(=O)c2cc[nH]c(=NC(=O)Nc3ccc(OC(F)(F)F)cc3)c2)c2ccccc21

>  <score_type>  (88) 
oracle

>  <origin>  (88) 
adg

>  <m_score__min__energy>  (88) 
-11.039999999999999

>  <m_primary>  (88) 
energy

$$$$
88:0
     RDKit          3D

 57 60  0  0  0  0  0  0  0  0999 V2000
   60.8780   33.7680   50.2000 C   0  0  0  0  0  0  0  0  0  0  0  0
   61.8410   33.6780   49.0480 C   0  0  0  0  0  0  0  0  0  0  0  0
   63.2130   33.5270   49.3130 C   0  0  0  0  0  0  0  0  0  0  0  0
   64.1320   33.4450   48.2640 C   0  0  0  0  0  0  0  0  0  0  0  0
   63.6930   33.5040   46.9410 C   0  0  0  0  0  0  0  0  0  0  0  0
   62.3310   33.6340   46.6640 C   0  0  0  0  0  0  0  0  0  0  0  0
   61.3960   33.7070   47.7070 C   0  0  0  0  0  0  0  0  0  0  0  0
   60.0010   33.8210   47.3870 N   0  0  0  0  0  0  0  0  0  0  0  0
   59.5220   34.9410   46.5770 C   0  0  0  0  0  0  0  0  0  0  0  0
   58.7350   34.4350   45.3500 C   0  0  0  0  0  0  0  0  0  0  0  0
   58.0660   33.1210   45.5490 N   0  0  0  0  0  0  0  0  0  0  0  0
   58.7930   32.0260   44.8660 C   0  0  0  0  0  0  0  0  0  0  0  0
   58.1480   30.6890   45.1300 C   0  0  0  0  0  0  0  0  0  0  0  0
   57.1260   30.2130   44.2970 C   0  0  0  0  0  0  0  0  0  0  0  0
   56.5690   28.9500   44.5140 C   0  0  0  0  0  0  0  0  0  0  0  0
   57.0340   28.1360   45.5620 C   0  0  0  0  0  0  0  0  0  0  0  0
   56.4980   26.7730   45.7770 C   0  0  0  0  0  0  0  0  0  0  0  0
   55.2620   26.6230   45.9760 O   0  0  0  0  0  0  0  0  0  0  0  0
   57.3940   25.5700   45.8810 C   0  0  0  0  0  0  0  0  0  0  0  0
   57.0500   24.5800   44.8080 C   0  0  0  0  0  0  0  0  0  0  0  0
   56.5100   23.0100   45.1120 S   0  0  0  0  0  0  0  0  0  0  0  0
   56.4910   22.6020   43.4850 C   0  0  0  0  0  0  0  0  0  0  0  0
   56.1570   21.4740   43.0380 O   0  0  0  0  0  0  0  0  0  0  0  0
   56.8940   23.6210   42.7010 N   0  0  0  0  0  0  0  0  0  0  0  0
   57.2090   24.7340   43.4220 C   0  0  0  0  0  0  0  0  0  0  0  0
   57.7520   25.9650   42.7630 C   0  0  0  0  0  0  0  0  0  0  0  0
   58.0380   28.6300   46.4120 C   0  0  0  0  0  0  0  0  0  0  0  0
   58.5940   29.8930   46.1950 C   0  0  0  0  0  0  0  0  0  0  0  0
   57.7780   32.8390   46.9750 C   0  0  0  0  0  0  0  0  0  0  0  0
   59.0630   32.7800   47.8140 C   0  0  0  0  0  0  0  0  0  0  0  0
   61.4341   33.7160   51.1477 H   0  0  0  0  0  0  0  0  0  0  0  0
   60.3314   34.7211   50.1474 H   0  0  0  0  0  0  0  0  0  0  0  0
   60.1643   32.9326   50.1474 H   0  0  0  0  0  0  0  0  0  0  0  0
   63.5656   33.4730   50.3536 H   0  0  0  0  0  0  0  0  0  0  0  0
   65.2045   33.3336   48.4817 H   0  0  0  0  0  0  0  0  0  0  0  0
   64.4195   33.4481   46.1169 H   0  0  0  0  0  0  0  0  0  0  0  0
   61.9884   33.6795   45.6197 H   0  0  0  0  0  0  0  0  0  0  0  0
   58.8645   35.5742   47.1907 H   0  0  0  0  0  0  0  0  0  0  0  0
   60.3903   35.5172   46.2249 H   0  0  0  0  0  0  0  0  0  0  0  0
   57.9639   35.1801   45.1044 H   0  0  0  0  0  0  0  0  0  0  0  0
   59.4683   34.2952   44.5421 H   0  0  0  0  0  0  0  0  0  0  0  0
   58.7913   32.2165   43.7826 H   0  0  0  0  0  0  0  0  0  0  0  0
   59.8213   31.9973   45.2557 H   0  0  0  0  0  0  0  0  0  0  0  0
   56.7606   30.8370   43.4681 H   0  0  0  0  0  0  0  0  0  0  0  0
   55.7609   28.5899   43.8603 H   0  0  0  0  0  0  0  0  0  0  0  0
   58.4415   25.8847   45.7640 H   0  0  0  0  0  0  0  0  0  0  0  0
   57.2537   25.0992   46.8652 H   0  0  0  0  0  0  0  0  0  0  0  0
   56.9710   23.5560   41.6610 H   0  0  0  0  0  0  0  0  0  0  0  0
   58.0690   26.6837   43.5331 H   0  0  0  0  0  0  0  0  0  0  0  0
   58.6146   25.6951   42.1360 H   0  0  0  0  0  0  0  0  0  0  0  0
   56.9711   26.4201   42.1360 H   0  0  0  0  0  0  0  0  0  0  0  0
   58.3890   28.0171   47.2553 H   0  0  0  0  0  0  0  0  0  0  0  0
   59.3853   30.2649   46.8625 H   0  0  0  0  0  0  0  0  0  0  0  0
   57.1297   33.6342   47.3716 H   0  0  0  0  0  0  0  0  0  0  0  0
   57.2830   31.8586   47.0371 H   0  0  0  0  0  0  0  0  0  0  0  0
   58.8109   32.9321   48.8739 H   0  0  0  0  0  0  0  0  0  0  0  0
   59.5348   31.7962   47.6746 H   0  0  0  0  0  0  0  0  0  0  0  0
  1  2  1  0
  2  3  2  0
  3  4  1  0
  4  5  2  0
  5  6  1  0
  6  7  2  0
  7  8  1  0
  8  9  1  0
  9 10  1  0
 10 11  1  0
 11 12  1  0
 12 13  1  0
 13 14  2  0
 14 15  1  0
 15 16  2  0
 16 17  1  0
 17 18  2  0
 17 19  1  0
 19 20  1  0
 20 21  1  0
 21 22  1  0
 22 23  2  0
 22 24  1  0
 24 25  1  0
 25 26  1  0
 16 27  1  0
 27 28  2  0
 11 29  1  0
 29 30  1  0
  7  2  1  0
 30  8  1  0
 28 13  1  0
 25 20  2  0
  1 31  1  0
  1 32  1  0
  1 33  1  0
  3 34  1  0
  4 35  1  0
  5 36  1  0
  6 37  1  0
  9 38  1  0
  9 39  1  0
 10 40  1  0
 10 41  1  0
 12 42  1  0
 12 43  1  0
 14 44  1  0
 15 45  1  0
 19 46  1  0
 19 47  1  0
 24 48  1  0
 26 49  1  0
 26 50  1  0
 26 51  1  0
 27 52  1  0
 28 53  1  0
 29 54  1  0
 29 55  1  0
 30 56  1  0
 30 57  1  0
M  END
>  <UniqueID>  (89) 
84

>  <SMILES>  (89) 
Cc1ccccc1N1CCN(Cc2ccc(C(=O)Cc3sc(=O)[nH]c3C)cc2)CC1

>  <Energy>  (89) 
103.64104077696989

>  <Genealogy>  (89) 
Cc1ccccc1N1CCN(Cc2ccc(C(=O)Cc3sc(=O)[nH]c3C)cc2)CC1 (3D coordinates assigned)
Cc1ccccc1N1CCN(Cc2ccc(C(=O)Cc3sc(=O)[nH]c3C)cc2)CC1 (nonaromatic ring conformer: 103.64104077696989 kcal/mol)

>  <smiles>  (89) 
Cc1ccccc1N1CCN(Cc2ccc(C(=O)Cc3sc(=O)[nH]c3C)cc2)CC1

>  <score_type>  (89) 
oracle

>  <origin>  (89) 
adg

>  <m_score__min__energy>  (89) 
-11.31

>  <m_primary>  (89) 
energy

$$$$
89:0
     RDKit          3D

 55 58  0  0  0  0  0  0  0  0999 V2000
   59.2498   30.7939   44.4235 H   0  0  0  0  0  0  0  0  0  0  0  0
   58.8380   29.8000   44.6530 C   0  0  0  0  0  0  0  0  0  0  0  0
   58.2903   29.2399   43.8808 H   0  0  0  0  0  0  0  0  0  0  0  0
   59.0040   29.2700   45.8770 C   0  0  0  0  0  0  0  0  0  0  0  0
   58.5310   28.0200   46.2940 C   0  0  0  0  0  0  0  0  0  0  0  0
   57.8240   27.1280   45.5710 C   0  0  0  0  0  0  0  0  0  0  0  0
   57.7497   27.2885   44.4853 H   0  0  0  0  0  0  0  0  0  0  0  0
   57.1440   25.9510   46.1430 C   0  0  0  0  0  0  0  0  0  0  0  0
   57.8010   24.9150   46.6920 N   0  0  0  0  0  0  0  0  0  0  0  0
   56.8110   24.1340   47.1760 C   0  0  0  0  0  0  0  0  0  0  0  0
   57.0340   23.0440   47.7630 O   0  0  0  0  0  0  0  0  0  0  0  0
   55.5660   24.6190   46.9930 N   0  0  0  0  0  0  0  0  0  0  0  0
   55.7920   25.7750   46.3500 C   0  0  0  0  0  0  0  0  0  0  0  0
   54.7870   26.6750   46.0120 O   0  0  0  0  0  0  0  0  0  0  0  0
   58.8850   27.8950   47.6270 C   0  0  0  0  0  0  0  0  0  0  0  0
   58.6734   27.0393   48.2850 H   0  0  0  0  0  0  0  0  0  0  0  0
   59.5530   29.0490   47.9690 C   0  0  0  0  0  0  0  0  0  0  0  0
   60.0560   29.3270   49.3250 C   0  0  0  0  0  0  0  0  0  0  0  0
   60.9920   28.6160   49.7840 O   0  0  0  0  0  0  0  0  0  0  0  0
   59.4630   30.3550   50.1420 N   0  0  0  0  0  0  0  0  0  0  0  0
   58.1690   30.0960   50.7910 C   0  0  0  0  0  0  0  0  0  0  0  0
   58.2563   29.2004   51.4237 H   0  0  0  0  0  0  0  0  0  0  0  0
   57.4090   29.9426   50.0107 H   0  0  0  0  0  0  0  0  0  0  0  0
   57.7440   31.2890   51.6630 C   0  0  2  0  0  0  0  0  0  0  0  0
   58.3405   31.2756   52.5871 H   0  0  0  0  0  0  0  0  0  0  0  0
   56.2680   31.1910   52.0530 C   0  0  0  0  0  0  0  0  0  0  0  0
   56.1780   31.1850   53.1493 H   0  0  0  0  0  0  0  0  0  0  0  0
   55.7228   32.0549   51.6451 H   0  0  0  0  0  0  0  0  0  0  0  0
   55.8418   30.2626   51.6451 H   0  0  0  0  0  0  0  0  0  0  0  0
   57.9880   32.5400   50.9330 N   0  0  0  0  0  0  0  0  0  0  0  0
   57.5090   32.4770   50.0030 H   0  0  0  0  0  0  0  0  0  0  0  0
   59.4330   32.7950   50.7420 C   0  0  2  0  0  0  0  0  0  0  0  0
   59.7967   33.2715   51.6643 H   0  0  0  0  0  0  0  0  0  0  0  0
   59.6480   33.7500   49.5570 C   0  0  0  0  0  0  0  0  0  0  0  0
   59.8749   34.7579   49.9348 H   0  0  0  0  0  0  0  0  0  0  0  0
   60.4877   33.3905   48.9441 H   0  0  0  0  0  0  0  0  0  0  0  0
   58.7353   33.7851   48.9441 H   0  0  0  0  0  0  0  0  0  0  0  0
   60.2800   31.4960   50.5830 C   0  0  0  0  0  0  0  0  0  0  0  0
   60.7388   31.2505   51.5521 H   0  0  0  0  0  0  0  0  0  0  0  0
   61.0457   31.6819   49.8155 H   0  0  0  0  0  0  0  0  0  0  0  0
   59.6510   29.8860   46.9060 N   0  0  0  0  0  0  0  0  0  0  0  0
   60.4910   31.0970   46.8520 C   0  0  0  0  0  0  0  0  0  0  0  0
   61.0065   31.2232   47.8155 H   0  0  0  0  0  0  0  0  0  0  0  0
   61.2253   30.9846   46.0407 H   0  0  0  0  0  0  0  0  0  0  0  0
   59.6430   32.3180   46.5780 C   0  0  0  0  0  0  0  0  0  0  0  0
   58.2440   32.2400   46.7040 C   0  0  0  0  0  0  0  0  0  0  0  0
   57.7720   31.2811   46.9642 H   0  0  0  0  0  0  0  0  0  0  0  0
   57.4490   33.3720   46.5010 C   0  0  0  0  0  0  0  0  0  0  0  0
   56.3557   33.3001   46.5990 H   0  0  0  0  0  0  0  0  0  0  0  0
   58.0410   34.5940   46.1740 C   0  0  0  0  0  0  0  0  0  0  0  0
   57.4147   35.4853   46.0212 H   0  0  0  0  0  0  0  0  0  0  0  0
   59.4290   34.6840   46.0410 C   0  0  0  0  0  0  0  0  0  0  0  0
   60.0000   35.8730   45.7190 F   0  0  0  0  0  0  0  0  0  0  0  0
   60.2310   33.5540   46.2410 C   0  0  0  0  0  0  0  0  0  0  0  0
   61.5740   33.6680   46.0900 F   0  0  0  0  0  0  0  0  0  0  0  0
  1  2  1  0
  2  3  1  0
  2  4  2  0
  4  5  1  0
  5  6  2  0
  6  7  1  0
  6  8  1  0
  8  9  1  0
  9 10  1  0
 10 11  2  0
 10 12  1  0
 12 13  1  0
 13 14  1  0
  5 15  1  0
 15 16  1  0
 15 17  2  0
 17 18  1  0
 18 19  2  0
 18 20  1  0
 20 21  1  0
 21 22  1  0
 21 23  1  0
 21 24  1  0
 24 25  1  1
 24 26  1  0
 26 27  1  0
 26 28  1  0
 26 29  1  0
 24 30  1  0
 30 31  1  0
 30 32  1  0
 32 33  1  1
 32 34  1  0
 34 35  1  0
 34 36  1  0
 34 37  1  0
 32 38  1  0
 38 39  1  0
 38 40  1  0
 17 41  1  0
 41 42  1  0
 42 43  1  0
 42 44  1  0
 42 45  1  0
 45 46  2  0
 46 47  1  0
 46 48  1  0
 48 49  1  0
 48 50  2  0
 50 51  1  0
 50 52  1  0
 52 53  1  0
 52 54  2  0
 54 55  1  0
 41  4  1  0
 54 45  1  0
 13  8  2  0
 38 20  1  0
M  CHG  3   9  -1  12  -1  14  -1
M  END
>  <UniqueID>  (90) 
85

>  <SMILES>  (90) 
C=c1/c(=C/c2[n-]c(=O)[n-]c2[O-])cc(C(=O)N2C[C@@H](C)N[C@@H](C)C2)n1Cc1cccc(F)c1F

>  <Energy>  (90) 
130.46194134235301

>  <Genealogy>  (90) 
C=c1c(=Cc2[n-]c(=O)[n-]c2[O-])cc(C(=O)N2CC(C)NC(C)C2)n1Cc1cccc(F)c1F (protonated)
C=c1c(=Cc2[n-]c(=O)[n-]c2[O-])cc(C(=O)N2C[C@@H](C)N[C@@H](C)C2)n1Cc1cccc(F)c1F (chirality)
C=c1/c(=C/c2[n-]c(=O)[n-]c2[O-])cc(C(=O)N2C[C@@H](C)N[C@@H](C)C2)n1Cc1cccc(F)c1F (cis-trans isomerization)
C=c1/c(=C/c2[n-]c(=O)[n-]c2[O-])cc(C(=O)N2C[C@@H](C)N[C@@H](C)C2)n1Cc1cccc(F)c1F (3D coordinates assigned)
C=c1/c(=C/c2[n-]c(=O)[n-]c2[O-])cc(C(=O)N2C[C@@H](C)N[C@@H](C)C2)n1Cc1cccc(F)c1F (nonaromatic ring conformer: 130.46194134235301 kcal/mol)

>  <smiles>  (90) 
C=c1c(=Cc2[nH]c(=O)[nH]c2O)cc(C(=O)N2CC(C)NC(C)C2)n1Cc1cccc(F)c1F

>  <score_type>  (90) 
oracle

>  <origin>  (90) 
adg

>  <m_score__min__energy>  (90) 
-16.949999999999999

>  <m_primary>  (90) 
energy

$$$$
