0:0
     RDKit          3D

 61 64  0  0  0  0  0  0  0  0999 V2000
   59.9150   30.8840   48.2920 C   0  0  0  0  0  0  0  0  0  0  0  0
   61.0800   31.7920   48.0010 C   0  0  0  0  0  0  0  0  0  0  0  0
   62.2760   31.2310   47.5200 C   0  0  0  0  0  0  0  0  0  0  0  0
   63.3640   32.0440   47.2040 C   0  0  0  0  0  0  0  0  0  0  0  0
   63.2760   33.4260   47.3690 C   0  0  0  0  0  0  0  0  0  0  0  0
   62.1030   33.9990   47.8610 C   0  0  0  0  0  0  0  0  0  0  0  0
   60.9980   33.1960   48.1910 C   0  0  0  0  0  0  0  0  0  0  0  0
   59.7770   33.8520   48.7200 C   0  0  0  0  0  0  0  0  0  0  0  0
   59.7330   34.2120   49.9250 O   0  0  0  0  0  0  0  0  0  0  0  0
   58.6680   34.1590   47.8670 N   0  0  0  0  0  0  0  0  0  0  0  0
   58.5050   33.7170   46.5100 C   0  0  0  0  0  0  0  0  0  0  0  0
   59.0890   34.4610   45.4790 C   0  0  0  0  0  0  0  0  0  0  0  0
   58.9340   34.0670   44.1480 C   0  0  0  0  0  0  0  0  0  0  0  0
   58.1680   32.9410   43.8350 C   0  0  0  0  0  0  0  0  0  0  0  0
   57.5260   32.2120   44.8530 C   0  0  0  0  0  0  0  0  0  0  0  0
   56.6190   31.0410   44.5040 C   0  0  0  0  0  0  0  0  0  0  0  0
   57.0550   29.7300   45.0550 N   0  0  0  0  0  0  0  0  0  0  0  0
   57.0810   28.6400   44.0640 C   0  0  0  0  0  0  0  0  0  0  0  0
   58.5320   28.1950   43.8750 C   0  0  0  0  0  0  0  0  0  0  0  0
   59.3590   29.2030   44.6510 C   0  0  2  0  0  0  0  0  0  0  0  0
   60.6230   28.6350   45.2380 C   0  0  0  0  0  0  0  0  0  0  0  0
   61.7400   28.9900   44.7720 O   0  0  0  0  0  0  0  0  0  0  0  0
   60.5680   27.8370   46.4250 N   0  0  0  0  0  0  0  0  0  0  0  0
   60.4630   26.3850   46.3820 C   0  0  0  0  0  0  0  0  0  0  0  0
   59.0140   26.0030   46.2540 C   0  0  0  0  0  0  0  0  0  0  0  0
   58.6460   24.9340   45.4230 C   0  0  0  0  0  0  0  0  0  0  0  0
   57.2980   24.6290   45.2170 C   0  0  0  0  0  0  0  0  0  0  0  0
   56.2940   25.3930   45.8370 C   0  0  0  0  0  0  0  0  0  0  0  0
   54.8680   25.0680   45.6150 C   0  0  0  0  0  0  0  0  0  0  0  0
   53.9970   25.9770   45.6230 O   0  0  0  0  0  0  0  0  0  0  0  0
   54.4690   23.7520   45.4020 O   0  0  0  0  0  0  0  0  0  0  0  0
   56.6660   26.4690   46.6620 C   0  0  0  0  0  0  0  0  0  0  0  0
   58.0150   26.7740   46.8640 C   0  0  0  0  0  0  0  0  0  0  0  0
   58.3800   29.7490   45.6840 C   0  0  0  0  0  0  0  0  0  0  0  0
   57.7190   32.5950   46.1920 C   0  0  0  0  0  0  0  0  0  0  0  0
   59.7894   30.7861   49.3804 H   0  0  0  0  0  0  0  0  0  0  0  0
   59.0001   31.3096   47.8541 H   0  0  0  0  0  0  0  0  0  0  0  0
   60.1043   29.8928   47.8541 H   0  0  0  0  0  0  0  0  0  0  0  0
   62.3542   30.1413   47.3918 H   0  0  0  0  0  0  0  0  0  0  0  0
   64.2932   31.5945   46.8239 H   0  0  0  0  0  0  0  0  0  0  0  0
   64.1330   34.0654   47.1108 H   0  0  0  0  0  0  0  0  0  0  0  0
   62.0425   35.0895   47.9918 H   0  0  0  0  0  0  0  0  0  0  0  0
   59.6737   35.3616   45.7181 H   0  0  0  0  0  0  0  0  0  0  0  0
   59.4157   34.6440   43.3449 H   0  0  0  0  0  0  0  0  0  0  0  0
   58.0663   32.6227   42.7870 H   0  0  0  0  0  0  0  0  0  0  0  0
   55.6135   31.2588   44.8934 H   0  0  0  0  0  0  0  0  0  0  0  0
   56.6476   30.9422   43.4088 H   0  0  0  0  0  0  0  0  0  0  0  0
   56.4771   27.7946   44.4254 H   0  0  0  0  0  0  0  0  0  0  0  0
   56.6645   28.9885   43.1074 H   0  0  0  0  0  0  0  0  0  0  0  0
   58.6808   27.1820   44.2772 H   0  0  0  0  0  0  0  0  0  0  0  0
   58.8168   28.1585   42.8131 H   0  0  0  0  0  0  0  0  0  0  0  0
   59.7624   29.9968   44.0051 H   0  0  0  0  0  0  0  0  0  0  0  0
   61.0237   26.0000   45.5175 H   0  0  0  0  0  0  0  0  0  0  0  0
   60.8810   25.9545   47.3039 H   0  0  0  0  0  0  0  0  0  0  0  0
   59.4238   24.3320   44.9304 H   0  0  0  0  0  0  0  0  0  0  0  0
   57.0210   23.7866   44.5662 H   0  0  0  0  0  0  0  0  0  0  0  0
   55.8898   27.0752   47.1520 H   0  0  0  0  0  0  0  0  0  0  0  0
   58.2940   27.6234   47.5049 H   0  0  0  0  0  0  0  0  0  0  0  0
   58.3829   29.1145   46.5825 H   0  0  0  0  0  0  0  0  0  0  0  0
   58.6575   30.7670   45.9950 H   0  0  0  0  0  0  0  0  0  0  0  0
   57.2508   32.0115   46.9985 H   0  0  0  0  0  0  0  0  0  0  0  0
  1  2  1  0
  2  3  2  0
  3  4  1  0
  4  5  2  0
  5  6  1  0
  6  7  2  0
  7  8  1  0
  8  9  2  0
  8 10  1  0
 10 11  1  0
 11 12  2  0
 12 13  1  0
 13 14  2  0
 14 15  1  0
 15 16  1  0
 16 17  1  0
 17 18  1  0
 18 19  1  0
 19 20  1  0
 20 21  1  0
 21 22  2  0
 21 23  1  0
 23 24  1  0
 24 25  1  0
 25 26  2  0
 26 27  1  0
 27 28  2  0
 28 29  1  0
 29 30  2  0
 29 31  1  0
 28 32  1  0
 32 33  2  0
 20 34  1  0
 15 35  2  0
  7  2  1  0
 35 11  1  0
 34 17  1  0
 33 25  1  0
  1 36  1  0
  1 37  1  0
  1 38  1  0
  3 39  1  0
  4 40  1  0
  5 41  1  0
  6 42  1  0
 12 43  1  0
 13 44  1  0
 14 45  1  0
 16 46  1  0
 16 47  1  0
 18 48  1  0
 18 49  1  0
 19 50  1  0
 19 51  1  0
 20 52  1  6
 24 53  1  0
 24 54  1  0
 26 55  1  0
 27 56  1  0
 32 57  1  0
 33 58  1  0
 34 59  1  0
 34 60  1  0
 35 61  1  0
M  CHG  3  10  -1  23  -1  31  -1
M  END
>  <UniqueID>  (1) 
1

>  <SMILES>  (1) 
Cc1ccccc1C(=O)[N-]c1cccc(CN2CC[C@H](C(=O)[N-]Cc3ccc(C(=O)[O-])cc3)C2)c1

>  <Energy>  (1) 
79.7144150991524

>  <Genealogy>  (1) 
Cc1ccccc1C(=O)[N-]c1cccc(CN2CCC(C(=O)[N-]Cc3ccc(C(=O)[O-])cc3)C2)c1 (protonated)
Cc1ccccc1C(=O)[N-]c1cccc(CN2CC[C@H](C(=O)[N-]Cc3ccc(C(=O)[O-])cc3)C2)c1 (chirality)
Cc1ccccc1C(=O)[N-]c1cccc(CN2CC[C@H](C(=O)[N-]Cc3ccc(C(=O)[O-])cc3)C2)c1 (3D coordinates assigned)
Cc1ccccc1C(=O)[N-]c1cccc(CN2CC[C@H](C(=O)[N-]Cc3ccc(C(=O)[O-])cc3)C2)c1 (nonaromatic ring conformer: 79.7144150991524 kcal/mol)

>  <smiles>  (1) 
Cc1ccccc1C(=O)Nc1cccc(CN2CCC(C(=O)NCc3ccc(C(=O)O)cc3)C2)c1

>  <score_type>  (1) 
oracle

>  <origin>  (1) 
adg

>  <m_score__min__energy>  (1) 
-16.629999999999999

>  <m_primary>  (1) 
energy

$$$$
1:0
     RDKit          3D

 50 52  0  0  0  0  0  0  0  0999 V2000
   57.5894   32.8163   42.3315 H   0  0  0  0  0  0  0  0  0  0  0  0
   57.7940   32.6470   43.3990 C   0  0  0  0  0  0  0  0  0  0  0  0
   57.4350   31.4720   43.9800 N   0  0  0  0  0  0  0  0  0  0  0  0
   57.6730   31.2170   45.2980 C   0  0  0  0  0  0  0  0  0  0  0  0
   57.3500   30.0760   45.8390 N   0  0  0  0  0  0  0  0  0  0  0  0
   56.5680   29.0220   45.2520 C   0  0  0  0  0  0  0  0  0  0  0  0
   55.3940   29.2860   44.8740 O   0  0  0  0  0  0  0  0  0  0  0  0
   57.1370   27.6400   45.0200 C   0  0  0  0  0  0  0  0  0  0  0  0
   56.4909   27.1043   44.3090 H   0  0  0  0  0  0  0  0  0  0  0  0
   58.1562   27.7536   44.6222 H   0  0  0  0  0  0  0  0  0  0  0  0
   57.2220   26.8290   46.3220 C   0  0  0  0  0  0  0  0  0  0  0  0
   58.1349   26.2156   46.3069 H   0  0  0  0  0  0  0  0  0  0  0  0
   57.2458   27.5257   47.1729 H   0  0  0  0  0  0  0  0  0  0  0  0
   56.0300   25.9340   46.4640 C   0  0  0  0  0  0  0  0  0  0  0  0
   56.1380   24.8230   47.0470 O   0  0  0  0  0  0  0  0  0  0  0  0
   54.7910   26.3440   45.9800 O   0  0  0  0  0  0  0  0  0  0  0  0
   58.3140   32.1860   46.0780 C   0  0  0  0  0  0  0  0  0  0  0  0
   58.5375   31.9815   47.1355 H   0  0  0  0  0  0  0  0  0  0  0  0
   58.6720   33.4200   45.5100 C   0  0  0  0  0  0  0  0  0  0  0  0
   59.3260   34.4200   46.2500 O   0  0  0  0  0  0  0  0  0  0  0  0
   60.4410   34.2060   47.0710 C   0  0  0  0  0  0  0  0  0  0  0  0
   61.6440   33.7940   46.4870 C   0  0  0  0  0  0  0  0  0  0  0  0
   61.6963   33.6423   45.3988 H   0  0  0  0  0  0  0  0  0  0  0  0
   62.7800   33.5730   47.2710 C   0  0  0  0  0  0  0  0  0  0  0  0
   63.7128   33.2287   46.8006 H   0  0  0  0  0  0  0  0  0  0  0  0
   62.7330   33.7900   48.6610 C   0  0  0  0  0  0  0  0  0  0  0  0
   63.8570   33.5710   49.5280 N   0  0  0  0  0  0  0  0  0  0  0  0
   64.4700   32.3390   49.9300 C   0  0  0  0  0  0  0  0  0  0  0  0
   65.7190   32.1880   49.8840 O   0  0  0  0  0  0  0  0  0  0  0  0
   63.6570   31.2420   50.3600 N   0  0  0  0  0  0  0  0  0  0  0  0
   62.2690   31.0560   50.0370 C   0  0  0  0  0  0  0  0  0  0  0  0
   61.2960   31.4880   50.9460 C   0  0  0  0  0  0  0  0  0  0  0  0
   61.6016   31.9596   51.8916 H   0  0  0  0  0  0  0  0  0  0  0  0
   59.9370   31.3230   50.6580 C   0  0  0  0  0  0  0  0  0  0  0  0
   59.1787   31.6571   51.3815 H   0  0  0  0  0  0  0  0  0  0  0  0
   59.5390   30.7340   49.4520 C   0  0  0  0  0  0  0  0  0  0  0  0
   58.4691   30.6086   49.2294 H   0  0  0  0  0  0  0  0  0  0  0  0
   60.5020   30.3030   48.5260 C   0  0  0  0  0  0  0  0  0  0  0  0
   60.0680   29.7180   47.2120 C   0  0  0  0  0  0  0  0  0  0  0  0
   59.4216   28.8468   47.3941 H   0  0  0  0  0  0  0  0  0  0  0  0
   59.5110   30.4746   46.6399 H   0  0  0  0  0  0  0  0  0  0  0  0
   60.9536   29.4043   46.6399 H   0  0  0  0  0  0  0  0  0  0  0  0
   61.8660   30.4860   48.8120 C   0  0  0  0  0  0  0  0  0  0  0  0
   62.6242   30.1824   48.0751 H   0  0  0  0  0  0  0  0  0  0  0  0
   61.5310   34.2190   49.2420 C   0  0  0  0  0  0  0  0  0  0  0  0
   61.4836   34.3908   50.3275 H   0  0  0  0  0  0  0  0  0  0  0  0
   60.3930   34.4310   48.4600 C   0  0  0  0  0  0  0  0  0  0  0  0
   59.2660   34.9080   49.0450 F   0  0  0  0  0  0  0  0  0  0  0  0
   58.4220   33.6400   44.1540 C   0  0  0  0  0  0  0  0  0  0  0  0
   58.7178   34.5893   43.6835 H   0  0  0  0  0  0  0  0  0  0  0  0
  1  2  1  0
  2  3  1  0
  3  4  1  0
  4  5  2  0
  5  6  1  0
  6  7  2  0
  6  8  1  0
  8  9  1  0
  8 10  1  0
  8 11  1  0
 11 12  1  0
 11 13  1  0
 11 14  1  0
 14 15  2  0
 14 16  1  0
  4 17  1  0
 17 18  1  0
 17 19  2  0
 19 20  1  0
 20 21  1  0
 21 22  2  0
 22 23  1  0
 22 24  1  0
 24 25  1  0
 24 26  2  0
 26 27  1  0
 27 28  1  0
 28 29  2  0
 28 30  1  0
 30 31  1  0
 31 32  2  0
 32 33  1  0
 32 34  1  0
 34 35  1  0
 34 36  2  0
 36 37  1  0
 36 38  1  0
 38 39  1  0
 39 40  1  0
 39 41  1  0
 39 42  1  0
 38 43  2  0
 43 44  1  0
 26 45  1  0
 45 46  1  0
 45 47  2  0
 47 48  1  0
 19 49  1  0
 49 50  1  0
 49  2  2  0
 47 21  1  0
 43 31  1  0
M  CHG  4   3  -1  16  -1  27  -1  30  -1
M  END
>  <UniqueID>  (2) 
2

>  <SMILES>  (2) 
Cc1cccc([N-]C(=O)[N-]c2ccc(Oc3cc[n-]/c(=N\C(=O)CCC(=O)[O-])c3)c(F)c2)c1

>  <Energy>  (2) 
69.33366608172632

>  <Genealogy>  (2) 
Cc1cccc([N-]C(=O)[N-]c2ccc(Oc3cc[n-]c(=NC(=O)CCC(=O)[O-])c3)c(F)c2)c1 (protonated)
Cc1cccc([N-]C(=O)[N-]c2ccc(Oc3cc[n-]/c(=N\C(=O)CCC(=O)[O-])c3)c(F)c2)c1 (cis-trans isomerization)
Cc1cccc([N-]C(=O)[N-]c2ccc(Oc3cc[n-]/c(=N\C(=O)CCC(=O)[O-])c3)c(F)c2)c1 (3D coordinates assigned)
Cc1cccc([N-]C(=O)[N-]c2ccc(Oc3cc[n-]/c(=N\C(=O)CCC(=O)[O-])c3)c(F)c2)c1 (optimized conformer: 69.33366608172632 kcal/mol)

>  <smiles>  (2) 
Cc1cccc(NC(=O)Nc2ccc(Oc3cc[nH]c(=NC(=O)CCC(=O)O)c3)c(F)c2)c1

>  <score_type>  (2) 
oracle

>  <origin>  (2) 
adg

>  <m_score__min__energy>  (2) 
-15.48

>  <m_primary>  (2) 
energy

$$$$
2:0
     RDKit          3D

 24 25  0  0  0  0  0  0  0  0999 V2000
   57.2095   30.6365   41.9677 H   0  0  0  0  0  0  0  0  0  0  0  0
   57.3610   31.6400   42.3920 C   0  0  0  0  0  0  0  0  0  0  0  0
   57.1839   32.5315   41.7725 H   0  0  0  0  0  0  0  0  0  0  0  0
   57.7630   31.7770   43.6690 C   0  0  0  0  0  0  0  0  0  0  0  0
   57.9380   33.0910   44.1500 C   0  0  0  0  0  0  0  0  0  0  0  0
   57.9274   33.9323   43.4414 H   0  0  0  0  0  0  0  0  0  0  0  0
   58.1240   33.3410   45.5070 C   0  0  0  0  0  0  0  0  0  0  0  0
   58.2688   34.3725   45.8605 H   0  0  0  0  0  0  0  0  0  0  0  0
   58.1270   32.2900   46.4150 C   0  0  0  0  0  0  0  0  0  0  0  0
   58.2218   32.4948   47.4916 H   0  0  0  0  0  0  0  0  0  0  0  0
   58.0100   30.9750   45.9640 C   0  0  0  0  0  0  0  0  0  0  0  0
   58.0025   30.1531   46.6950 H   0  0  0  0  0  0  0  0  0  0  0  0
   57.9010   30.6780   44.5870 C   0  0  0  0  0  0  0  0  0  0  0  0
   57.9690   29.3660   44.2430 C   0  0  0  0  0  0  0  0  0  0  0  0
   58.4986   29.1274   43.3088 H   0  0  0  0  0  0  0  0  0  0  0  0
   57.4030   28.2230   44.9970 C   0  0  0  0  0  0  0  0  0  0  0  0
   56.0250   28.1200   45.2560 C   0  0  0  0  0  0  0  0  0  0  0  0
   55.1440   29.1060   44.8270 O   0  0  0  0  0  0  0  0  0  0  0  0
   55.5400   27.0410   45.9210 N   0  0  0  0  0  0  0  0  0  0  0  0
   56.3610   26.0400   46.3280 C   0  0  0  0  0  0  0  0  0  0  0  0
   55.8880   25.0520   46.9460 O   0  0  0  0  0  0  0  0  0  0  0  0
   57.6900   26.1010   46.0620 N   0  0  0  0  0  0  0  0  0  0  0  0
   58.2270   27.1590   45.4010 C   0  0  0  0  0  0  0  0  0  0  0  0
   59.4650   27.1800   45.1670 O   0  0  0  0  0  0  0  0  0  0  0  0
  1  2  1  0
  2  3  1  0
  2  4  2  0
  4  5  1  0
  5  6  1  0
  5  7  2  0
  7  8  1  0
  7  9  1  0
  9 10  1  0
  9 11  2  0
 11 12  1  0
 11 13  1  0
 13 14  2  0
 14 15  1  0
 14 16  1  0
 16 17  2  0
 17 18  1  0
 17 19  1  0
 19 20  1  0
 20 21  2  0
 20 22  1  0
 22 23  1  0
 23 24  2  0
 13  4  1  0
 23 16  1  0
M  CHG  3  18  -1  19  -1  22  -1
M  END
>  <UniqueID>  (3) 
3

>  <SMILES>  (3) 
C=c1cccc/c1=C/c1c([O-])[n-]c(=O)[n-]c1=O

>  <Energy>  (3) 
49.461017111358316

>  <Genealogy>  (3) 
C=c1ccccc1=Cc1c([O-])[n-]c(=O)[n-]c1=O (protonated)
C=c1cccc/c1=C/c1c([O-])[n-]c(=O)[n-]c1=O (cis-trans isomerization)
C=c1cccc/c1=C/c1c([O-])[n-]c(=O)[n-]c1=O (3D coordinates assigned)
C=c1cccc/c1=C/c1c([O-])[n-]c(=O)[n-]c1=O (optimized conformer: 49.461017111358316 kcal/mol)

>  <smiles>  (3) 
C=c1ccccc1=Cc1c(O)[nH]c(=O)[nH]c1=O

>  <score_type>  (3) 
oracle

>  <origin>  (3) 
adg

>  <m_score__min__energy>  (3) 
-14.210000000000001

>  <m_primary>  (3) 
energy

$$$$
3:0
     RDKit          3D

 45 47  0  0  0  0  0  0  0  0999 V2000
   55.8960   24.1160   44.3520 C   0  0  0  0  0  0  0  0  0  0  0  0
   54.8700   24.7350   45.6680 S   0  0  0  0  0  0  0  0  0  0  0  0
   53.4170   24.5230   45.3440 O   0  0  0  0  0  0  0  0  0  0  0  0
   55.1970   23.9860   46.9280 O   0  0  0  0  0  0  0  0  0  0  0  0
   55.1810   26.4220   45.9260 N   0  0  0  0  0  0  0  0  0  0  0  0
   56.4760   27.0360   45.9860 C   0  0  0  0  0  0  0  0  0  0  0  0
   56.6800   28.2340   45.2890 C   0  0  0  0  0  0  0  0  0  0  0  0
   57.9230   28.8700   45.3170 C   0  0  0  0  0  0  0  0  0  0  0  0
   58.9910   28.3040   46.0350 C   0  0  0  0  0  0  0  0  0  0  0  0
   60.2780   28.9370   46.0970 N   0  0  0  0  0  0  0  0  0  0  0  0
   60.6530   30.0080   46.9740 C   0  0  0  0  0  0  0  0  0  0  0  0
   61.7310   30.6190   46.7500 O   0  0  0  0  0  0  0  0  0  0  0  0
   59.7890   30.4470   48.0960 C   0  0  0  0  0  0  0  0  0  0  0  0
   59.4120   29.5330   49.0940 C   0  0  0  0  0  0  0  0  0  0  0  0
   58.5990   29.9400   50.1570 C   0  0  0  0  0  0  0  0  0  0  0  0
   58.1740   31.2680   50.2550 C   0  0  0  0  0  0  0  0  0  0  0  0
   57.3170   31.6430   51.3430 N   0  0  0  0  0  0  0  0  0  0  0  0
   56.2670   30.8440   51.9000 C   0  0  0  0  0  0  0  0  0  0  0  0
   56.5530   29.7100   52.3690 O   0  0  0  0  0  0  0  0  0  0  0  0
   54.9270   31.3540   52.0000 N   0  0  0  0  0  0  0  0  0  0  0  0
   53.7820   30.5450   52.2980 C   0  0  0  0  0  0  0  0  0  0  0  0
   53.8420   29.2580   52.3370 N   0  0  0  0  0  0  0  0  0  0  0  0
   52.5690   28.6000   52.5560 C   0  0  0  0  0  0  0  0  0  0  0  0
   51.4790   29.5970   52.1750 C   0  0  0  0  0  0  0  0  0  0  0  0
   52.1570   31.2620   52.4600 S   0  0  0  0  0  0  0  0  0  0  0  0
   58.5400   32.1830   49.2540 C   0  0  0  0  0  0  0  0  0  0  0  0
   59.3530   31.7800   48.1910 C   0  0  0  0  0  0  0  0  0  0  0  0
   58.7840   27.1200   46.7480 C   0  0  0  0  0  0  0  0  0  0  0  0
   57.5400   26.4820   46.7210 C   0  0  0  0  0  0  0  0  0  0  0  0
   56.7640   23.5923   44.7791 H   0  0  0  0  0  0  0  0  0  0  0  0
   55.3151   23.4175   43.7318 H   0  0  0  0  0  0  0  0  0  0  0  0
   56.2430   24.9556   43.7318 H   0  0  0  0  0  0  0  0  0  0  0  0
   55.8536   28.6777   44.7144 H   0  0  0  0  0  0  0  0  0  0  0  0
   58.0669   29.8167   44.7756 H   0  0  0  0  0  0  0  0  0  0  0  0
   59.7584   28.4904   49.0391 H   0  0  0  0  0  0  0  0  0  0  0  0
   58.2921   29.2103   50.9208 H   0  0  0  0  0  0  0  0  0  0  0  0
   54.7730   32.3800   51.8740 H   0  0  0  0  0  0  0  0  0  0  0  0
   52.4953   27.7011   51.9263 H   0  0  0  0  0  0  0  0  0  0  0  0
   52.4648   28.2871   53.6054 H   0  0  0  0  0  0  0  0  0  0  0  0
   51.2093   29.4752   51.1155 H   0  0  0  0  0  0  0  0  0  0  0  0
   50.5716   29.4348   52.7752 H   0  0  0  0  0  0  0  0  0  0  0  0
   58.1847   33.2227   49.3071 H   0  0  0  0  0  0  0  0  0  0  0  0
   59.6533   32.5098   47.4247 H   0  0  0  0  0  0  0  0  0  0  0  0
   59.6067   26.6863   47.3354 H   0  0  0  0  0  0  0  0  0  0  0  0
   57.3928   25.5439   47.2763 H   0  0  0  0  0  0  0  0  0  0  0  0
  1  2  1  0
  2  3  2  0
  2  4  2  0
  2  5  1  0
  5  6  1  0
  6  7  2  0
  7  8  1  0
  8  9  2  0
  9 10  1  0
 10 11  1  0
 11 12  2  0
 11 13  1  0
 13 14  2  0
 14 15  1  0
 15 16  2  0
 16 17  1  0
 17 18  1  0
 18 19  2  0
 18 20  1  0
 20 21  1  0
 21 22  2  0
 22 23  1  0
 23 24  1  0
 24 25  1  0
 16 26  1  0
 26 27  2  0
  9 28  1  0
 28 29  2  0
 29  6  1  0
 27 13  1  0
 25 21  1  0
  1 30  1  0
  1 31  1  0
  1 32  1  0
  7 33  1  0
  8 34  1  0
 14 35  1  0
 15 36  1  0
 20 37  1  0
 23 38  1  0
 23 39  1  0
 24 40  1  0
 24 41  1  0
 26 42  1  0
 27 43  1  0
 28 44  1  0
 29 45  1  0
M  CHG  3   5  -1  10  -1  17  -1
M  END
>  <UniqueID>  (4) 
4

>  <SMILES>  (4) 
CS(=O)(=O)[N-]c1ccc([N-]C(=O)c2ccc([N-]C(=O)NC3=NCCS3)cc2)cc1

>  <Energy>  (4) 
62.27021349070715

>  <Genealogy>  (4) 
CS(=O)(=O)[N-]c1ccc([N-]C(=O)c2ccc([N-]C(=O)NC3=NCCS3)cc2)cc1 (protonated)
CS(=O)(=O)[N-]c1ccc([N-]C(=O)c2ccc([N-]C(=O)NC3=NCCS3)cc2)cc1 (3D coordinates assigned)
CS(=O)(=O)[N-]c1ccc([N-]C(=O)c2ccc([N-]C(=O)NC3=NCCS3)cc2)cc1 (nonaromatic ring conformer: 62.27021349070715 kcal/mol)

>  <smiles>  (4) 
CS(=O)(=O)Nc1ccc(NC(=O)c2ccc(NC(=O)NC3=NCCS3)cc2)cc1

>  <score_type>  (4) 
oracle

>  <origin>  (4) 
adg

>  <m_score__min__energy>  (4) 
-12.619999999999999

>  <m_primary>  (4) 
energy

$$$$
4:0
     RDKit          3D

 47 48  0  0  0  0  0  0  0  0999 V2000
   59.3276   35.0653   46.5079 H   0  0  0  0  0  0  0  0  0  0  0  0
   58.8630   34.1980   46.0160 C   0  0  0  0  0  0  0  0  0  0  0  0
   58.3950   33.1270   46.7820 C   0  0  0  0  0  0  0  0  0  0  0  0
   58.4923   33.1514   47.8774 H   0  0  0  0  0  0  0  0  0  0  0  0
   57.8030   32.0240   46.1580 C   0  0  0  0  0  0  0  0  0  0  0  0
   57.4330   31.1841   46.7643 H   0  0  0  0  0  0  0  0  0  0  0  0
   57.6800   31.9860   44.7630 C   0  0  0  0  0  0  0  0  0  0  0  0
   56.8960   30.6100   43.9920 S   0  0  0  0  0  0  0  0  0  0  0  0
   56.8490   30.8470   42.5090 O   0  0  0  0  0  0  0  0  0  0  0  0
   55.4910   30.4440   44.4990 O   0  0  0  0  0  0  0  0  0  0  0  0
   56.6790   27.6990   45.8060 N   0  0  0  0  0  0  0  0  0  0  0  0
   57.7900   28.5480   45.4550 C   0  0  0  0  0  0  0  0  0  0  0  0
   57.7950   29.1610   44.3110 N   0  0  0  0  0  0  0  0  0  0  0  0
   56.5920   26.4000   45.7830 C   0  0  0  0  0  0  0  0  0  0  0  0
   55.4110   25.7580   45.9950 N   0  0  0  0  0  0  0  0  0  0  0  0
   55.3050   24.4030   45.9770 C   0  0  0  0  0  0  0  0  0  0  0  0
   53.9820   23.7630   46.2700 C   0  0  0  0  0  0  0  0  0  0  0  0
   53.3351   24.4844   46.7907 H   0  0  0  0  0  0  0  0  0  0  0  0
   54.1399   22.8791   46.9055 H   0  0  0  0  0  0  0  0  0  0  0  0
   53.3270   23.3410   44.9930 C   0  0  0  0  0  0  0  0  0  0  0  0
   53.8880   23.5860   43.8900 O   0  0  0  0  0  0  0  0  0  0  0  0
   52.1180   22.6420   45.0390 O   0  0  0  0  0  0  0  0  0  0  0  0
   50.8630   23.2930   45.2050 C   0  0  0  0  0  0  0  0  0  0  0  0
   50.8263   23.7691   46.1959 H   0  0  0  0  0  0  0  0  0  0  0  0
   50.0543   22.5520   45.1210 H   0  0  0  0  0  0  0  0  0  0  0  0
   50.6890   24.3520   44.1290 C   0  0  0  0  0  0  0  0  0  0  0  0
   50.5280   25.3321   44.6018 H   0  0  0  0  0  0  0  0  0  0  0  0
   51.5928   24.3908   43.5032 H   0  0  0  0  0  0  0  0  0  0  0  0
   49.8203   24.0996   43.5032 H   0  0  0  0  0  0  0  0  0  0  0  0
   56.4450   23.6220   45.7450 C   0  0  0  0  0  0  0  0  0  0  0  0
   56.3758   22.5242   45.7535 H   0  0  0  0  0  0  0  0  0  0  0  0
   57.6740   24.2500   45.5020 C   0  0  0  0  0  0  0  0  0  0  0  0
   58.9120   23.4330   45.2840 C   0  0  0  0  0  0  0  0  0  0  0  0
   59.3406   23.1501   46.2568 H   0  0  0  0  0  0  0  0  0  0  0  0
   58.6571   22.5251   44.7176 H   0  0  0  0  0  0  0  0  0  0  0  0
   59.6466   24.0243   44.7176 H   0  0  0  0  0  0  0  0  0  0  0  0
   57.7480   25.6490   45.5370 C   0  0  0  0  0  0  0  0  0  0  0  0
   58.7105   26.1553   45.3719 H   0  0  0  0  0  0  0  0  0  0  0  0
   59.1930   28.8210   46.5470 S   0  0  0  0  0  0  0  0  0  0  0  0
   60.3960   28.8650   45.1830 C   0  0  0  0  0  0  0  0  0  0  0  0
   61.4155   28.9023   45.5943 H   0  0  0  0  0  0  0  0  0  0  0  0
   60.2828   27.9621   44.5650 H   0  0  0  0  0  0  0  0  0  0  0  0
   60.2171   29.7572   44.5650 H   0  0  0  0  0  0  0  0  0  0  0  0
   58.1500   33.0640   43.9960 C   0  0  0  0  0  0  0  0  0  0  0  0
   58.0540   33.0417   42.9004 H   0  0  0  0  0  0  0  0  0  0  0  0
   58.7400   34.1660   44.6230 C   0  0  0  0  0  0  0  0  0  0  0  0
   59.1080   35.0090   44.0198 H   0  0  0  0  0  0  0  0  0  0  0  0
  1  2  1  0
  2  3  2  0
  3  4  1  0
  3  5  1  0
  5  6  1  0
  5  7  2  0
  7  8  1  0
  8  9  2  0
  8 10  2  0
  8 11  1  0
 11 12  2  0
 12 13  1  0
 13 14  2  0
 14 15  1  0
 15 16  1  0
 16 17  1  0
 17 18  1  0
 17 19  1  0
 17 20  1  0
 20 21  2  0
 20 22  1  0
 22 23  1  0
 23 24  1  0
 23 25  1  0
 23 26  1  0
 26 27  1  0
 26 28  1  0
 26 29  1  0
 16 30  2  0
 30 31  1  0
 30 32  1  0
 32 33  1  0
 33 34  1  0
 33 35  1  0
 33 36  1  0
 32 37  2  0
 37 38  1  0
 12 39  1  0
 39 40  1  0
 40 41  1  0
 40 42  1  0
 40 43  1  0
  7 44  1  0
 44 45  1  0
 44 46  2  0
 46 47  1  0
 46  2  1  0
 37 14  1  0
M  CHG  1  15  -1
M  END
>  <UniqueID>  (5) 
5

>  <SMILES>  (5) 
CCOC(=O)Cc1cc(C)cc(=N/C(=N\S(=O)(=O)c2ccccc2)SC)[n-]1

>  <Energy>  (5) 
38.79332504994438

>  <Genealogy>  (5) 
CCOC(=O)Cc1cc(C)cc(=NC(=NS(=O)(=O)c2ccccc2)SC)[n-]1 (protonated)
CCOC(=O)Cc1cc(C)cc(=N/C(=N\S(=O)(=O)c2ccccc2)SC)[n-]1 (cis-trans isomerization)
CCOC(=O)Cc1cc(C)cc(=N/C(=N\S(=O)(=O)c2ccccc2)SC)[n-]1 (3D coordinates assigned)
CCOC(=O)Cc1cc(C)cc(=N/C(=N\S(=O)(=O)c2ccccc2)SC)[n-]1 (optimized conformer: 38.79332504994438 kcal/mol)

>  <smiles>  (5) 
CCOC(=O)Cc1cc(C)cc(=NC(=NS(=O)(=O)c2ccccc2)SC)[nH]1

>  <score_type>  (5) 
oracle

>  <origin>  (5) 
adg

>  <m_score__min__energy>  (5) 
-10.390000000000001

>  <m_primary>  (5) 
energy

$$$$
5:0
     RDKit          3D

 45 47  0  0  0  0  0  0  0  0999 V2000
   55.3110   29.3660   44.6430 N   0  0  0  0  0  0  0  0  0  0  0  0
   56.6420   29.8120   43.6340 S   0  0  0  0  0  0  0  0  0  0  0  0
   57.6550   28.7040   43.6230 O   0  0  0  0  0  0  0  0  0  0  0  0
   56.1330   30.0380   42.2380 O   0  0  0  0  0  0  0  0  0  0  0  0
   57.3900   31.2840   44.2450 C   0  0  0  0  0  0  0  0  0  0  0  0
   57.9460   32.2160   43.3590 C   0  0  0  0  0  0  0  0  0  0  0  0
   58.5440   33.3800   43.8470 C   0  0  0  0  0  0  0  0  0  0  0  0
   58.5920   33.6280   45.2280 C   0  0  0  0  0  0  0  0  0  0  0  0
   59.2180   34.8910   45.7580 C   0  0  0  0  0  0  0  0  0  0  0  0
   59.4370   34.8140   47.2040 N   0  0  0  0  0  0  0  0  0  0  0  0
   60.9100   33.9680   47.5900 S   0  0  0  0  0  0  0  0  0  0  0  0
   61.9160   34.2010   46.4970 O   0  0  0  0  0  0  0  0  0  0  0  0
   61.4670   34.5170   48.8730 O   0  0  0  0  0  0  0  0  0  0  0  0
   60.6210   32.2410   47.7950 C   0  0  0  0  0  0  0  0  0  0  0  0
   60.0700   31.7430   48.9830 C   0  0  0  0  0  0  0  0  0  0  0  0
   59.8780   30.3680   49.1470 C   0  0  0  0  0  0  0  0  0  0  0  0
   60.2400   29.4720   48.1270 C   0  0  0  0  0  0  0  0  0  0  0  0
   60.0510   28.0110   48.3130 C   0  0  0  0  0  0  0  0  0  0  0  0
   60.0760   27.5260   49.4750 O   0  0  0  0  0  0  0  0  0  0  0  0
   59.7640   27.1390   47.2090 N   0  0  0  0  0  0  0  0  0  0  0  0
   58.6140   26.6040   46.9080 C   0  0  0  0  0  0  0  0  0  0  0  0
   57.5580   27.3410   46.3290 C   0  0  0  0  0  0  0  0  0  0  0  0
   56.3550   26.6990   46.0300 C   0  0  0  0  0  0  0  0  0  0  0  0
   56.2080   25.3380   46.2940 C   0  0  0  0  0  0  0  0  0  0  0  0
   57.2760   24.6310   46.8490 C   0  0  0  0  0  0  0  0  0  0  0  0
   58.4400   25.2730   47.1380 N   0  0  0  0  0  0  0  0  0  0  0  0
   60.7740   29.9810   46.9300 C   0  0  0  0  0  0  0  0  0  0  0  0
   60.9650   31.3560   46.7680 C   0  0  0  0  0  0  0  0  0  0  0  0
   58.0460   32.6870   46.1140 C   0  0  0  0  0  0  0  0  0  0  0  0
   57.4480   31.5210   45.6250 C   0  0  0  0  0  0  0  0  0  0  0  0
   55.1570   28.3420   44.5120 H   0  0  0  0  0  0  0  0  0  0  0  0
   57.9115   32.0304   42.2753 H   0  0  0  0  0  0  0  0  0  0  0  0
   58.9798   34.1065   43.1454 H   0  0  0  0  0  0  0  0  0  0  0  0
   60.1849   35.0482   45.2576 H   0  0  0  0  0  0  0  0  0  0  0  0
   58.5328   35.7276   45.5561 H   0  0  0  0  0  0  0  0  0  0  0  0
   59.7876   32.4361   49.7892 H   0  0  0  0  0  0  0  0  0  0  0  0
   59.4406   29.9850   50.0808 H   0  0  0  0  0  0  0  0  0  0  0  0
   57.6823   28.4128   46.1152 H   0  0  0  0  0  0  0  0  0  0  0  0
   55.5237   27.2666   45.5864 H   0  0  0  0  0  0  0  0  0  0  0  0
   55.2607   24.8268   46.0674 H   0  0  0  0  0  0  0  0  0  0  0  0
   57.1764   23.5546   47.0527 H   0  0  0  0  0  0  0  0  0  0  0  0
   61.0432   29.2924   46.1156 H   0  0  0  0  0  0  0  0  0  0  0  0
   61.3875   31.7436   45.8293 H   0  0  0  0  0  0  0  0  0  0  0  0
   58.0884   32.8671   47.1983 H   0  0  0  0  0  0  0  0  0  0  0  0
   57.0220   30.7878   46.3257 H   0  0  0  0  0  0  0  0  0  0  0  0
  1  2  1  0
  2  3  2  0
  2  4  2  0
  2  5  1  0
  5  6  2  0
  6  7  1  0
  7  8  2  0
  8  9  1  0
  9 10  1  0
 10 11  1  0
 11 12  2  0
 11 13  2  0
 11 14  1  0
 14 15  2  0
 15 16  1  0
 16 17  2  0
 17 18  1  0
 18 19  2  0
 18 20  1  0
 20 21  2  3
 21 22  1  0
 22 23  2  0
 23 24  1  0
 24 25  2  0
 25 26  1  0
 17 27  1  0
 27 28  2  0
  8 29  1  0
 29 30  2  0
 30  5  1  0
 28 14  1  0
 26 21  1  0
  1 31  1  0
  6 32  1  0
  7 33  1  0
  9 34  1  0
  9 35  1  0
 15 36  1  0
 16 37  1  0
 22 38  1  0
 23 39  1  0
 24 40  1  0
 25 41  1  0
 27 42  1  0
 28 43  1  0
 29 44  1  0
 30 45  1  0
M  CHG  3   1  -1  10  -1  26  -1
M  END
>  <UniqueID>  (6) 
6

>  <SMILES>  (6) 
[NH-]S(=O)(=O)c1ccc(C[N-]S(=O)(=O)c2ccc(C(=O)N=c3cccc[n-]3)cc2)cc1

>  <Energy>  (6) 
56.82732698229759

>  <Genealogy>  (6) 
[NH-]S(=O)(=O)c1ccc(C[N-]S(=O)(=O)c2ccc(C(=O)N=c3cccc[n-]3)cc2)cc1 (protonated)
[NH-]S(=O)(=O)c1ccc(C[N-]S(=O)(=O)c2ccc(C(=O)N=c3cccc[n-]3)cc2)cc1 (3D coordinates assigned)
[NH-]S(=O)(=O)c1ccc(C[N-]S(=O)(=O)c2ccc(C(=O)N=c3cccc[n-]3)cc2)cc1 (optimized conformer: 56.82732698229759 kcal/mol)

>  <smiles>  (6) 
NS(=O)(=O)c1ccc(CNS(=O)(=O)c2ccc(C(=O)N=c3cccc[nH]3)cc2)cc1

>  <score_type>  (6) 
oracle

>  <origin>  (6) 
adg

>  <m_score__min__energy>  (6) 
-13.279999999999999

>  <m_primary>  (6) 
energy

$$$$
6:0
     RDKit          3D

 41 43  0  0  0  0  0  0  0  0999 V2000
   58.6030   34.6390   47.2300 O   0  0  0  0  0  0  0  0  0  0  0  0
   59.3490   33.6880   47.5890 C   0  0  0  0  0  0  0  0  0  0  0  0
   59.3090   32.4330   46.8960 N   0  0  0  0  0  0  0  0  0  0  0  0
   58.6690   32.2340   45.6250 C   0  0  0  0  0  0  0  0  0  0  0  0
   58.7590   33.2340   44.6450 C   0  0  0  0  0  0  0  0  0  0  0  0
   58.1350   33.0690   43.4060 C   0  0  0  0  0  0  0  0  0  0  0  0
   57.4040   31.9090   43.1380 C   0  0  0  0  0  0  0  0  0  0  0  0
   57.2840   30.9130   44.1140 C   0  0  0  0  0  0  0  0  0  0  0  0
   56.3560   29.4570   43.7640 S   0  0  0  0  0  0  0  0  0  0  0  0
   55.0850   29.7930   43.0330 O   0  0  0  0  0  0  0  0  0  0  0  0
   57.1860   28.5470   42.9060 O   0  0  0  0  0  0  0  0  0  0  0  0
   55.9630   28.6450   45.2440 N   0  0  0  0  0  0  0  0  0  0  0  0
   56.6660   27.5120   45.7790 C   0  0  0  0  0  0  0  0  0  0  0  0
   58.0630   27.5180   45.9570 C   0  0  0  0  0  0  0  0  0  0  0  0
   58.7120   26.3930   46.4740 C   0  0  0  0  0  0  0  0  0  0  0  0
   57.9770   25.2560   46.8200 C   0  0  0  0  0  0  0  0  0  0  0  0
   56.5900   25.2430   46.6490 C   0  0  0  0  0  0  0  0  0  0  0  0
   55.9360   26.3660   46.1310 C   0  0  0  0  0  0  0  0  0  0  0  0
   54.5550   26.3390   45.9660 O   0  0  0  0  0  0  0  0  0  0  0  0
   57.9080   31.0800   45.3590 C   0  0  0  0  0  0  0  0  0  0  0  0
   60.1560   33.8070   48.7280 O   0  0  0  0  0  0  0  0  0  0  0  0
   61.5380   33.5670   48.7720 C   0  0  0  0  0  0  0  0  0  0  0  0
   62.2500   33.4930   49.9860 C   0  0  0  0  0  0  0  0  0  0  0  0
   63.6310   33.2630   49.9770 C   0  0  0  0  0  0  0  0  0  0  0  0
   64.3110   33.1200   48.7650 C   0  0  0  0  0  0  0  0  0  0  0  0
   63.6120   33.2120   47.5580 C   0  0  0  0  0  0  0  0  0  0  0  0
   62.2320   33.4420   47.5620 C   0  0  0  0  0  0  0  0  0  0  0  0
   59.7050   31.6010   47.3880 H   0  0  0  0  0  0  0  0  0  0  0  0
   59.3247   34.1541   44.8536 H   0  0  0  0  0  0  0  0  0  0  0  0
   58.2194   33.8539   42.6400 H   0  0  0  0  0  0  0  0  0  0  0  0
   56.9218   31.7782   42.1580 H   0  0  0  0  0  0  0  0  0  0  0  0
   58.6457   28.4114   45.6882 H   0  0  0  0  0  0  0  0  0  0  0  0
   59.8037   26.4028   46.6088 H   0  0  0  0  0  0  0  0  0  0  0  0
   58.4897   24.3718   47.2267 H   0  0  0  0  0  0  0  0  0  0  0  0
   56.0115   24.3482   46.9222 H   0  0  0  0  0  0  0  0  0  0  0  0
   57.8021   30.3047   46.1321 H   0  0  0  0  0  0  0  0  0  0  0  0
   61.7199   33.6161   50.9420 H   0  0  0  0  0  0  0  0  0  0  0  0
   64.1820   33.1947   50.9266 H   0  0  0  0  0  0  0  0  0  0  0  0
   65.3954   32.9352   48.7606 H   0  0  0  0  0  0  0  0  0  0  0  0
   64.1478   33.1034   46.6035 H   0  0  0  0  0  0  0  0  0  0  0  0
   61.6888   33.5252   46.6091 H   0  0  0  0  0  0  0  0  0  0  0  0
  1  2  2  0
  2  3  1  0
  3  4  1  0
  4  5  2  0
  5  6  1  0
  6  7  2  0
  7  8  1  0
  8  9  1  0
  9 10  2  0
  9 11  2  0
  9 12  1  0
 12 13  1  0
 13 14  2  0
 14 15  1  0
 15 16  2  0
 16 17  1  0
 17 18  2  0
 18 19  1  0
  8 20  2  0
  2 21  1  0
 21 22  1  0
 22 23  2  0
 23 24  1  0
 24 25  2  0
 25 26  1  0
 26 27  2  0
 20  4  1  0
 27 22  1  0
 18 13  1  0
  3 28  1  0
  5 29  1  0
  6 30  1  0
  7 31  1  0
 14 32  1  0
 15 33  1  0
 16 34  1  0
 17 35  1  0
 20 36  1  0
 23 37  1  0
 24 38  1  0
 25 39  1  0
 26 40  1  0
 27 41  1  0
M  CHG  2  12  -1  19  -1
M  END
>  <UniqueID>  (7) 
7

>  <SMILES>  (7) 
O=C(Nc1cccc(S(=O)(=O)[N-]c2ccccc2[O-])c1)Oc1ccccc1

>  <Energy>  (7) 
54.68522527343434

>  <Genealogy>  (7) 
O=C(Nc1cccc(S(=O)(=O)[N-]c2ccccc2[O-])c1)Oc1ccccc1 (protonated)
O=C(Nc1cccc(S(=O)(=O)[N-]c2ccccc2[O-])c1)Oc1ccccc1 (3D coordinates assigned)
O=C(Nc1cccc(S(=O)(=O)[N-]c2ccccc2[O-])c1)Oc1ccccc1 (optimized conformer: 54.68522527343434 kcal/mol)

>  <smiles>  (7) 
O=C(Nc1cccc(S(=O)(=O)Nc2ccccc2O)c1)Oc1ccccc1

>  <score_type>  (7) 
oracle

>  <origin>  (7) 
adg

>  <m_score__min__energy>  (7) 
-14.720000000000001

>  <m_primary>  (7) 
energy

$$$$
7:0
     RDKit          3D

 51 53  0  0  0  0  0  0  0  0999 V2000
   59.2010   31.3070   51.1350 O   0  0  0  0  0  0  0  0  0  0  0  0
   58.8320   31.0800   49.9530 C   0  0  0  0  0  0  0  0  0  0  0  0
   58.8990   29.7210   49.3800 C   0  0  0  0  0  0  0  0  0  0  0  0
   59.5200   29.3630   48.2440 C   0  0  0  0  0  0  0  0  0  0  0  0
   59.0370   29.5970   46.8670 C   0  0  0  0  0  0  0  0  0  0  0  0
   59.6150   28.9940   45.9220 O   0  0  0  0  0  0  0  0  0  0  0  0
   58.0360   30.5940   46.5820 N   0  0  0  0  0  0  0  0  0  0  0  0
   57.7860   31.0660   45.2470 C   0  0  0  0  0  0  0  0  0  0  0  0
   58.5040   32.1860   44.7970 C   0  0  0  0  0  0  0  0  0  0  0  0
   58.3790   32.6330   43.4820 C   0  0  0  0  0  0  0  0  0  0  0  0
   57.5260   31.9700   42.5990 C   0  0  0  0  0  0  0  0  0  0  0  0
   56.7790   30.8720   43.0360 C   0  0  0  0  0  0  0  0  0  0  0  0
   56.8800   30.4150   44.3640 C   0  0  0  0  0  0  0  0  0  0  0  0
   55.9940   29.3080   44.8050 C   0  0  0  0  0  0  0  0  0  0  0  0
   54.7710   29.3150   44.5030 O   0  0  0  0  0  0  0  0  0  0  0  0
   56.4840   28.2740   45.5930 O   0  0  0  0  0  0  0  0  0  0  0  0
   58.3570   32.1510   49.1260 N   0  0  0  0  0  0  0  0  0  0  0  0
   59.1550   32.9570   48.2460 C   0  0  0  0  0  0  0  0  0  0  0  0
   58.5300   33.9570   47.4900 C   0  0  0  0  0  0  0  0  0  0  0  0
   59.2790   34.7590   46.6240 C   0  0  0  0  0  0  0  0  0  0  0  0
   60.6580   34.5640   46.5000 C   0  0  0  0  0  0  0  0  0  0  0  0
   61.2910   33.5530   47.2350 C   0  0  0  0  0  0  0  0  0  0  0  0
   63.0300   33.2990   47.1150 S   0  0  0  0  0  0  0  0  0  0  0  0
   63.6050   34.1700   46.0290 O   0  0  0  0  0  0  0  0  0  0  0  0
   63.2840   31.8530   46.7750 O   0  0  0  0  0  0  0  0  0  0  0  0
   63.7820   33.6880   48.6470 N   0  0  0  0  0  0  0  0  0  0  0  0
   64.4680   32.5010   49.1930 C   0  0  0  0  0  0  0  0  0  0  0  0
   64.9190   32.7460   50.6510 C   0  0  0  0  0  0  0  0  0  0  0  0
   64.7940   34.1130   51.0000 O   0  0  0  0  0  0  0  0  0  0  0  0
   63.4270   34.4940   50.9580 C   0  0  0  0  0  0  0  0  0  0  0  0
   62.7680   34.1730   49.5950 C   0  0  0  0  0  0  0  0  0  0  0  0
   60.5350   32.7390   48.0870 C   0  0  0  0  0  0  0  0  0  0  0  0
   58.3897   28.9222   49.9390 H   0  0  0  0  0  0  0  0  0  0  0  0
   60.4841   28.8439   48.3491 H   0  0  0  0  0  0  0  0  0  0  0  0
   57.7430   31.2200   47.3660 H   0  0  0  0  0  0  0  0  0  0  0  0
   59.1730   32.7170   45.4902 H   0  0  0  0  0  0  0  0  0  0  0  0
   58.9524   33.5076   43.1411 H   0  0  0  0  0  0  0  0  0  0  0  0
   57.4411   32.3119   41.5569 H   0  0  0  0  0  0  0  0  0  0  0  0
   56.1046   30.3592   42.3343 H   0  0  0  0  0  0  0  0  0  0  0  0
   57.4445   34.1120   47.5782 H   0  0  0  0  0  0  0  0  0  0  0  0
   58.7818   35.5461   46.0381 H   0  0  0  0  0  0  0  0  0  0  0  0
   61.2457   35.2041   45.8256 H   0  0  0  0  0  0  0  0  0  0  0  0
   63.7790   31.6439   49.1684 H   0  0  0  0  0  0  0  0  0  0  0  0
   65.3580   32.2965   48.5797 H   0  0  0  0  0  0  0  0  0  0  0  0
   64.2936   32.1440   51.3266 H   0  0  0  0  0  0  0  0  0  0  0  0
   65.9763   32.4569   50.7432 H   0  0  0  0  0  0  0  0  0  0  0  0
   62.8851   33.9541   51.7485 H   0  0  0  0  0  0  0  0  0  0  0  0
   63.3770   35.5827   51.1072 H   0  0  0  0  0  0  0  0  0  0  0  0
   62.0004   33.3977   49.7353 H   0  0  0  0  0  0  0  0  0  0  0  0
   62.3066   35.0871   49.1932 H   0  0  0  0  0  0  0  0  0  0  0  0
   61.0248   31.9218   48.6368 H   0  0  0  0  0  0  0  0  0  0  0  0
  1  2  2  0
  2  3  1  0
  3  4  2  3
  4  5  1  0
  5  6  2  0
  5  7  1  0
  7  8  1  0
  8  9  2  0
  9 10  1  0
 10 11  2  0
 11 12  1  0
 12 13  2  0
 13 14  1  0
 14 15  2  0
 14 16  1  0
  2 17  1  0
 17 18  1  0
 18 19  2  0
 19 20  1  0
 20 21  2  0
 21 22  1  0
 22 23  1  0
 23 24  2  0
 23 25  2  0
 23 26  1  0
 26 27  1  0
 27 28  1  0
 28 29  1  0
 29 30  1  0
 30 31  1  0
 22 32  2  0
 13  8  1  0
 32 18  1  0
 31 26  1  0
  3 33  1  0
  4 34  1  0
  7 35  1  0
  9 36  1  0
 10 37  1  0
 11 38  1  0
 12 39  1  0
 19 40  1  0
 20 41  1  0
 21 42  1  0
 27 43  1  0
 27 44  1  0
 28 45  1  0
 28 46  1  0
 30 47  1  0
 30 48  1  0
 31 49  1  0
 31 50  1  0
 32 51  1  0
M  CHG  2  16  -1  17  -1
M  END
>  <UniqueID>  (8) 
8

>  <SMILES>  (8) 
O=C(C=CC(=O)Nc1ccccc1C(=O)[O-])[N-]c1cccc(S(=O)(=O)N2CCOCC2)c1

>  <Energy>  (8) 
77.87059277507679

>  <Genealogy>  (8) 
O=C(C=CC(=O)Nc1ccccc1C(=O)[O-])[N-]c1cccc(S(=O)(=O)N2CCOCC2)c1 (protonated)
O=C(C=CC(=O)Nc1ccccc1C(=O)[O-])[N-]c1cccc(S(=O)(=O)N2CCOCC2)c1 (3D coordinates assigned)
O=C(C=CC(=O)Nc1ccccc1C(=O)[O-])[N-]c1cccc(S(=O)(=O)N2CCOCC2)c1 (nonaromatic ring conformer: 77.87059277507679 kcal/mol)

>  <smiles>  (8) 
O=C(C=CC(=O)Nc1ccccc1C(=O)O)Nc1cccc(S(=O)(=O)N2CCOCC2)c1

>  <score_type>  (8) 
oracle

>  <origin>  (8) 
adg

>  <m_score__min__energy>  (8) 
-14.539999999999999

>  <m_primary>  (8) 
energy

$$$$
8:0
     RDKit          3D

 54 57  0  0  0  0  0  0  0  0999 V2000
   59.5400   30.8990   47.8190 O   0  0  0  0  0  0  0  0  0  0  0  0
   59.4000   29.8250   48.4630 C   0  0  0  0  0  0  0  0  0  0  0  0
   59.1900   29.8510   49.8840 N   0  0  0  0  0  0  0  0  0  0  0  0
   58.8460   31.0390   50.6180 C   0  0  0  0  0  0  0  0  0  0  0  0
   59.5780   32.2290   50.4440 C   0  0  0  0  0  0  0  0  0  0  0  0
   59.2220   33.3860   51.1370 C   0  0  0  0  0  0  0  0  0  0  0  0
   58.1280   33.3740   52.0020 C   0  0  0  0  0  0  0  0  0  0  0  0
   57.3810   32.2070   52.1720 C   0  0  0  0  0  0  0  0  0  0  0  0
   57.7300   31.0300   51.4780 C   0  0  0  0  0  0  0  0  0  0  0  0
   57.0010   29.8380   51.6230 O   0  0  0  0  0  0  0  0  0  0  0  0
   55.8190   29.6940   52.4050 C   0  0  0  0  0  0  0  0  0  0  0  0
   54.8270   30.5260   51.9200 F   0  0  0  0  0  0  0  0  0  0  0  0
   56.0980   30.0440   53.7130 F   0  0  0  0  0  0  0  0  0  0  0  0
   59.5300   28.5660   47.7800 N   0  0  0  0  0  0  0  0  0  0  0  0
   60.3870   27.5550   48.4180 C   0  0  0  0  0  0  0  0  0  0  0  0
   61.1050   26.6960   47.3870 C   0  0  0  0  0  0  0  0  0  0  0  0
   59.8660   25.6890   46.5390 S   0  0  0  0  0  0  0  0  0  0  0  0
   59.0360   27.1040   45.8090 C   0  0  0  0  0  0  0  0  0  0  0  0
   58.5150   26.9520   44.5190 C   0  0  0  0  0  0  0  0  0  0  0  0
   57.7530   27.9630   43.9380 C   0  0  0  0  0  0  0  0  0  0  0  0
   57.4940   29.1400   44.6460 C   0  0  0  0  0  0  0  0  0  0  0  0
   56.5280   30.4280   43.9300 S   0  0  0  0  0  0  0  0  0  0  0  0
   55.0930   29.9850   43.8900 O   0  0  0  0  0  0  0  0  0  0  0  0
   56.9820   30.7000   42.5220 O   0  0  0  0  0  0  0  0  0  0  0  0
   56.6420   31.8930   44.8660 N   0  0  0  0  0  0  0  0  0  0  0  0
   57.6150   32.8260   44.2950 C   0  0  0  0  0  0  0  0  0  0  0  0
   58.3590   33.5700   45.3710 C   0  0  0  0  0  0  0  0  0  0  0  0
   59.2270   34.6240   45.0400 C   0  0  0  0  0  0  0  0  0  0  0  0
   59.9030   35.3230   46.0460 C   0  0  0  0  0  0  0  0  0  0  0  0
   59.7200   34.9720   47.3860 C   0  0  0  0  0  0  0  0  0  0  0  0
   58.8600   33.9210   47.7230 C   0  0  0  0  0  0  0  0  0  0  0  0
   58.1820   33.2220   46.7200 C   0  0  0  0  0  0  0  0  0  0  0  0
   58.0350   29.3130   45.9260 C   0  0  0  0  0  0  0  0  0  0  0  0
   58.8480   28.3190   46.5160 C   0  0  0  0  0  0  0  0  0  0  0  0
   59.3340   28.9650   50.4160 H   0  0  0  0  0  0  0  0  0  0  0  0
   60.4367   32.2465   49.7567 H   0  0  0  0  0  0  0  0  0  0  0  0
   59.8048   34.3090   51.0011 H   0  0  0  0  0  0  0  0  0  0  0  0
   57.8531   34.2863   52.5516 H   0  0  0  0  0  0  0  0  0  0  0  0
   56.5155   32.2055   52.8509 H   0  0  0  0  0  0  0  0  0  0  0  0
   55.4761   28.6500   52.3543 H   0  0  0  0  0  0  0  0  0  0  0  0
   61.1362   28.0646   49.0417 H   0  0  0  0  0  0  0  0  0  0  0  0
   59.7485   26.8985   49.0274 H   0  0  0  0  0  0  0  0  0  0  0  0
   61.6237   27.3394   46.6610 H   0  0  0  0  0  0  0  0  0  0  0  0
   61.8500   26.0524   47.8777 H   0  0  0  0  0  0  0  0  0  0  0  0
   58.7091   26.0255   43.9587 H   0  0  0  0  0  0  0  0  0  0  0  0
   57.3546   27.8349   42.9207 H   0  0  0  0  0  0  0  0  0  0  0  0
   58.3365   32.2622   43.6854 H   0  0  0  0  0  0  0  0  0  0  0  0
   57.0723   33.5585   43.6794 H   0  0  0  0  0  0  0  0  0  0  0  0
   59.3757   34.9008   43.9858 H   0  0  0  0  0  0  0  0  0  0  0  0
   60.5791   36.1495   45.7818 H   0  0  0  0  0  0  0  0  0  0  0  0
   60.2521   35.5220   48.1761 H   0  0  0  0  0  0  0  0  0  0  0  0
   58.7173   33.6445   48.7781 H   0  0  0  0  0  0  0  0  0  0  0  0
   57.5071   32.3960   46.9885 H   0  0  0  0  0  0  0  0  0  0  0  0
   57.8235   30.2384   46.4817 H   0  0  0  0  0  0  0  0  0  0  0  0
  1  2  2  0
  2  3  1  0
  3  4  1  0
  4  5  2  0
  5  6  1  0
  6  7  2  0
  7  8  1  0
  8  9  2  0
  9 10  1  0
 10 11  1  0
 11 12  1  0
 11 13  1  0
  2 14  1  0
 14 15  1  0
 15 16  1  0
 16 17  1  0
 17 18  1  0
 18 19  2  0
 19 20  1  0
 20 21  2  0
 21 22  1  0
 22 23  2  0
 22 24  2  0
 22 25  1  0
 25 26  1  0
 26 27  1  0
 27 28  2  0
 28 29  1  0
 29 30  2  0
 30 31  1  0
 31 32  2  0
 21 33  1  0
 33 34  2  0
  9  4  1  0
 34 14  1  0
 34 18  1  0
 32 27  1  0
  3 35  1  0
  5 36  1  0
  6 37  1  0
  7 38  1  0
  8 39  1  0
 11 40  1  0
 15 41  1  0
 15 42  1  0
 16 43  1  0
 16 44  1  0
 19 45  1  0
 20 46  1  0
 26 47  1  0
 26 48  1  0
 28 49  1  0
 29 50  1  0
 30 51  1  0
 31 52  1  0
 32 53  1  0
 33 54  1  0
M  CHG  1  25  -1
M  END
>  <UniqueID>  (9) 
9

>  <SMILES>  (9) 
O=C(Nc1ccccc1OC(F)F)N1CCSc2ccc(S(=O)(=O)[N-]Cc3ccccc3)cc21

>  <Energy>  (9) 
72.55754972508593

>  <Genealogy>  (9) 
O=C(Nc1ccccc1OC(F)F)N1CCSc2ccc(S(=O)(=O)[N-]Cc3ccccc3)cc21 (protonated)
O=C(Nc1ccccc1OC(F)F)N1CCSc2ccc(S(=O)(=O)[N-]Cc3ccccc3)cc21 (3D coordinates assigned)
O=C(Nc1ccccc1OC(F)F)N1CCSc2ccc(S(=O)(=O)[N-]Cc3ccccc3)cc21 (nonaromatic ring conformer: 72.55754972508593 kcal/mol)

>  <smiles>  (9) 
O=C(Nc1ccccc1OC(F)F)N1CCSc2ccc(S(=O)(=O)NCc3ccccc3)cc21

>  <score_type>  (9) 
oracle

>  <origin>  (9) 
adg

>  <m_score__min__energy>  (9) 
-10.869999999999999

>  <m_primary>  (9) 
energy

$$$$
9:0
     RDKit          3D

 50 52  0  0  0  0  0  0  0  0999 V2000
   58.2468   32.9931   45.4666 H   0  0  0  0  0  0  0  0  0  0  0  0
   57.4060   32.6240   44.8610 C   0  0  0  0  0  0  0  0  0  0  0  0
   56.8085   33.3276   44.2628 H   0  0  0  0  0  0  0  0  0  0  0  0
   57.1100   31.3190   44.8520 C   0  0  0  0  0  0  0  0  0  0  0  0
   56.0560   30.9420   44.0780 N   0  0  0  0  0  0  0  0  0  0  0  0
   55.5270   29.6990   44.1400 C   0  0  0  0  0  0  0  0  0  0  0  0
   54.5560   29.3900   43.4020 O   0  0  0  0  0  0  0  0  0  0  0  0
   56.0250   28.7970   45.0150 N   0  0  0  0  0  0  0  0  0  0  0  0
   57.0920   29.0870   45.7990 C   0  0  0  0  0  0  0  0  0  0  0  0
   57.5150   28.1980   46.5880 O   0  0  0  0  0  0  0  0  0  0  0  0
   57.7370   30.3480   45.6970 C   0  0  0  0  0  0  0  0  0  0  0  0
   58.9010   30.5410   46.3780 C   0  0  0  0  0  0  0  0  0  0  0  0
   59.8243   30.5672   45.7806 H   0  0  0  0  0  0  0  0  0  0  0  0
   59.0500   30.7190   47.8400 C   0  0  0  0  0  0  0  0  0  0  0  0
   58.8650   29.6450   48.7280 C   0  0  0  0  0  0  0  0  0  0  0  0
   58.7038   28.6305   48.3346 H   0  0  0  0  0  0  0  0  0  0  0  0
   58.8850   29.8610   50.1090 C   0  0  0  0  0  0  0  0  0  0  0  0
   58.7467   29.0117   50.7942 H   0  0  0  0  0  0  0  0  0  0  0  0
   59.0790   31.1460   50.6300 C   0  0  0  0  0  0  0  0  0  0  0  0
   59.0400   31.3050   52.0250 O   0  0  0  0  0  0  0  0  0  0  0  0
   57.9390   31.8070   52.7880 C   0  0  0  0  0  0  0  0  0  0  0  0
   57.9805   31.3875   53.8040 H   0  0  0  0  0  0  0  0  0  0  0  0
   58.0038   32.9043   52.8302 H   0  0  0  0  0  0  0  0  0  0  0  0
   56.6050   31.4090   52.1280 C   0  0  0  0  0  0  0  0  0  0  0  0
   55.8781   32.2173   52.2961 H   0  0  0  0  0  0  0  0  0  0  0  0
   56.8074   31.2472   51.0589 H   0  0  0  0  0  0  0  0  0  0  0  0
   56.0150   30.0990   52.6820 C   0  0  0  0  0  0  0  0  0  0  0  0
   55.6913   29.4775   51.8341 H   0  0  0  0  0  0  0  0  0  0  0  0
   56.8040   29.6162   53.2774 H   0  0  0  0  0  0  0  0  0  0  0  0
   54.8130   30.3120   53.6150 C   0  0  0  0  0  0  0  0  0  0  0  0
   54.9732   29.7386   54.5399 H   0  0  0  0  0  0  0  0  0  0  0  0
   54.7302   31.3879   53.8286 H   0  0  0  0  0  0  0  0  0  0  0  0
   53.5330   29.8610   52.9790 C   0  0  0  0  0  0  0  0  0  0  0  0
   53.2300   28.6380   52.9870 O   0  0  0  0  0  0  0  0  0  0  0  0
   52.6170   30.8370   52.4690 N   0  0  0  0  0  0  0  0  0  0  0  0
   52.0750   30.8500   51.1420 C   0  0  0  0  0  0  0  0  0  0  0  0
   52.2600   29.7210   50.3330 C   0  0  0  0  0  0  0  0  0  0  0  0
   52.8104   28.8527   50.7242 H   0  0  0  0  0  0  0  0  0  0  0  0
   51.7500   29.6910   49.0330 C   0  0  0  0  0  0  0  0  0  0  0  0
   51.9114   28.8064   48.3994 H   0  0  0  0  0  0  0  0  0  0  0  0
   51.0350   30.7840   48.5370 C   0  0  0  0  0  0  0  0  0  0  0  0
   50.6443   30.7648   47.5089 H   0  0  0  0  0  0  0  0  0  0  0  0
   50.8160   31.9020   49.3470 C   0  0  0  0  0  0  0  0  0  0  0  0
   50.2469   32.7589   48.9572 H   0  0  0  0  0  0  0  0  0  0  0  0
   51.3190   31.9340   50.6530 C   0  0  0  0  0  0  0  0  0  0  0  0
   51.0310   33.0270   51.4630 O   0  0  0  0  0  0  0  0  0  0  0  0
   59.2500   32.2230   49.7390 C   0  0  0  0  0  0  0  0  0  0  0  0
   59.4026   33.2389   50.1323 H   0  0  0  0  0  0  0  0  0  0  0  0
   59.2270   32.0090   48.3580 C   0  0  0  0  0  0  0  0  0  0  0  0
   59.3489   32.8602   47.6720 H   0  0  0  0  0  0  0  0  0  0  0  0
  1  2  1  0
  2  3  1  0
  2  4  2  0
  4  5  1  0
  5  6  1  0
  6  7  2  0
  6  8  1  0
  8  9  1  0
  9 10  2  0
  9 11  1  0
 11 12  2  0
 12 13  1  0
 12 14  1  0
 14 15  2  0
 15 16  1  0
 15 17  1  0
 17 18  1  0
 17 19  2  0
 19 20  1  0
 20 21  1  0
 21 22  1  0
 21 23  1  0
 21 24  1  0
 24 25  1  0
 24 26  1  0
 24 27  1  0
 27 28  1  0
 27 29  1  0
 27 30  1  0
 30 31  1  0
 30 32  1  0
 30 33  1  0
 33 34  2  0
 33 35  1  0
 35 36  1  0
 36 37  2  0
 37 38  1  0
 37 39  1  0
 39 40  1  0
 39 41  2  0
 41 42  1  0
 41 43  1  0
 43 44  1  0
 43 45  2  0
 45 46  1  0
 19 47  1  0
 47 48  1  0
 47 49  2  0
 49 50  1  0
 11  4  1  0
 49 14  1  0
 45 36  1  0
M  CHG  4   5  -1   8  -1  35  -1  46  -1
M  END
>  <UniqueID>  (10) 
10

>  <SMILES>  (10) 
C=c1[n-]c(=O)[n-]c(=O)/c1=C/c1ccc(OCCCCC(=O)[N-]c2ccccc2[O-])cc1

>  <Energy>  (10) 
77.4115083343995

>  <Genealogy>  (10) 
C=c1[n-]c(=O)[n-]c(=O)c1=Cc1ccc(OCCCCC(=O)[N-]c2ccccc2[O-])cc1 (protonated)
C=c1[n-]c(=O)[n-]c(=O)/c1=C/c1ccc(OCCCCC(=O)[N-]c2ccccc2[O-])cc1 (cis-trans isomerization)
C=c1[n-]c(=O)[n-]c(=O)/c1=C/c1ccc(OCCCCC(=O)[N-]c2ccccc2[O-])cc1 (3D coordinates assigned)
C=c1[n-]c(=O)[n-]c(=O)/c1=C/c1ccc(OCCCCC(=O)[N-]c2ccccc2[O-])cc1 (optimized conformer: 77.4115083343995 kcal/mol)

>  <smiles>  (10) 
C=c1[nH]c(=O)[nH]c(=O)c1=Cc1ccc(OCCCCC(=O)Nc2ccccc2O)cc1

>  <score_type>  (10) 
oracle

>  <origin>  (10) 
adg

>  <m_score__min__energy>  (10) 
-17.489999999999998

>  <m_primary>  (10) 
energy

$$$$
10:0
     RDKit          3D

 32 34  0  0  0  0  0  0  0  0999 V2000
   56.7910   28.6350   44.0970 H   0  0  0  0  0  0  0  0  0  0  0  0
   56.4730   29.5950   44.1370 O   0  0  0  0  0  0  0  0  0  0  0  0
   57.1740   30.6070   44.7930 C   0  0  0  0  0  0  0  0  0  0  0  0
   56.6050   31.8370   44.8650 N   0  0  0  0  0  0  0  0  0  0  0  0
   57.2160   32.8980   45.4450 C   0  0  0  0  0  0  0  0  0  0  0  0
   56.6200   34.0080   45.4740 O   0  0  0  0  0  0  0  0  0  0  0  0
   58.5010   32.7520   45.9980 C   0  0  0  0  0  0  0  0  0  0  0  0
   59.1630   33.8410   46.5980 C   0  0  0  0  0  0  0  0  0  0  0  0
   58.6763   34.8269   46.6307 H   0  0  0  0  0  0  0  0  0  0  0  0
   60.4330   33.6750   47.1510 C   0  0  0  0  0  0  0  0  0  0  0  0
   60.9443   34.5306   47.6163 H   0  0  0  0  0  0  0  0  0  0  0  0
   61.0560   32.4290   47.1160 C   0  0  0  0  0  0  0  0  0  0  0  0
   62.0567   32.3040   47.5552 H   0  0  0  0  0  0  0  0  0  0  0  0
   60.4140   31.3380   46.5250 C   0  0  0  0  0  0  0  0  0  0  0  0
   60.9124   30.3576   46.5057 H   0  0  0  0  0  0  0  0  0  0  0  0
   59.1310   31.4820   45.9520 C   0  0  0  0  0  0  0  0  0  0  0  0
   58.4510   30.3880   45.3600 C   0  0  0  0  0  0  0  0  0  0  0  0
   59.0720   29.0420   45.3220 C   0  0  0  0  0  0  0  0  0  0  0  0
   59.6780   28.7793   44.4424 H   0  0  0  0  0  0  0  0  0  0  0  0
   58.9420   28.1240   46.2920 C   0  0  0  0  0  0  0  0  0  0  0  0
   59.5606   28.2442   47.1936 H   0  0  0  0  0  0  0  0  0  0  0  0
   58.0270   26.9610   46.2380 C   0  0  0  0  0  0  0  0  0  0  0  0
   58.5090   25.6380   46.2480 C   0  0  0  0  0  0  0  0  0  0  0  0
   59.5909   25.4499   46.3112 H   0  0  0  0  0  0  0  0  0  0  0  0
   57.6190   24.5630   46.1780 C   0  0  0  0  0  0  0  0  0  0  0  0
   58.0012   23.5318   46.2001 H   0  0  0  0  0  0  0  0  0  0  0  0
   56.2450   24.7950   46.0800 C   0  0  0  0  0  0  0  0  0  0  0  0
   55.5456   23.9472   46.0343 H   0  0  0  0  0  0  0  0  0  0  0  0
   55.7590   26.1060   46.0400 C   0  0  0  0  0  0  0  0  0  0  0  0
   54.3930   26.3370   45.9300 O   0  0  0  0  0  0  0  0  0  0  0  0
   56.6480   27.1850   46.1090 C   0  0  0  0  0  0  0  0  0  0  0  0
   56.2633   28.2144   46.0618 H   0  0  0  0  0  0  0  0  0  0  0  0
  1  2  1  0
  2  3  1  0
  3  4  1  0
  4  5  1  0
  5  6  2  0
  5  7  1  0
  7  8  2  0
  8  9  1  0
  8 10  1  0
 10 11  1  0
 10 12  2  0
 12 13  1  0
 12 14  1  0
 14 15  1  0
 14 16  2  0
 16 17  1  0
 17 18  1  0
 18 19  1  0
 18 20  2  0
 20 21  1  0
 20 22  1  0
 22 23  2  0
 23 24  1  0
 23 25  1  0
 25 26  1  0
 25 27  2  0
 27 28  1  0
 27 29  1  0
 29 30  1  0
 29 31  2  0
 31 32  1  0
 17  3  2  0
 31 22  1  0
 16  7  1  0
M  CHG  2   4  -1  30  -1
M  END
>  <UniqueID>  (11) 
11

>  <SMILES>  (11) 
O=c1[n-]c(O)c(/C=C\c2cccc([O-])c2)c2ccccc12

>  <Energy>  (11) 
54.00480242336053

>  <Genealogy>  (11) 
O=c1[n-]c(O)c(C=Cc2cccc([O-])c2)c2ccccc12 (protonated)
O=c1[n-]c(O)c(/C=C\c2cccc([O-])c2)c2ccccc12 (cis-trans isomerization)
O=c1[n-]c(O)c(/C=C\c2cccc([O-])c2)c2ccccc12 (3D coordinates assigned)
O=c1[n-]c(O)c(/C=C\c2cccc([O-])c2)c2ccccc12 (optimized conformer: 54.00480242336053 kcal/mol)

>  <smiles>  (11) 
O=c1[nH]c(O)c(C=Cc2cccc(O)c2)c2ccccc12

>  <score_type>  (11) 
oracle

>  <origin>  (11) 
adg

>  <m_score__min__energy>  (11) 
-12.98

>  <m_primary>  (11) 
energy

$$$$
11:0
     RDKit          3D

 52 55  0  0  0  0  0  0  0  0999 V2000
   55.1420   29.3410   44.8210 N   0  0  0  0  0  0  0  0  0  0  0  0
   56.8440   29.1760   45.0690 S   0  0  0  0  0  0  0  0  0  0  0  0
   57.5370   29.1860   43.7360 O   0  0  0  0  0  0  0  0  0  0  0  0
   57.3540   30.3370   45.8760 O   0  0  0  0  0  0  0  0  0  0  0  0
   57.1780   27.6520   45.9080 C   0  0  0  0  0  0  0  0  0  0  0  0
   56.3700   26.5380   45.6250 C   0  0  0  0  0  0  0  0  0  0  0  0
   56.6270   25.3030   46.2220 C   0  0  0  0  0  0  0  0  0  0  0  0
   57.6960   25.1600   47.1050 C   0  0  0  0  0  0  0  0  0  0  0  0
   58.5030   26.2590   47.4070 C   0  0  0  0  0  0  0  0  0  0  0  0
   58.2480   27.5130   46.8290 C   0  0  0  0  0  0  0  0  0  0  0  0
   59.1080   28.6500   47.2160 C   0  0  0  0  0  0  0  0  0  0  0  0
   60.2680   28.9350   46.4820 C   0  0  0  0  0  0  0  0  0  0  0  0
   61.1020   29.9880   46.8650 C   0  0  0  0  0  0  0  0  0  0  0  0
   60.7930   30.7730   47.9860 C   0  0  0  0  0  0  0  0  0  0  0  0
   61.7220   31.7920   48.4030 N   0  0  0  0  0  0  0  0  0  0  0  0
   61.3480   33.0050   49.0700 C   0  0  0  0  0  0  0  0  0  0  0  0
   60.4330   33.7280   48.5910 O   0  0  0  0  0  0  0  0  0  0  0  0
   62.0820   33.4450   50.2790 C   0  0  0  0  0  0  0  0  0  0  0  0
   63.2780   34.1690   50.1260 C   0  0  0  0  0  0  0  0  0  0  0  0
   64.0200   34.5570   51.2450 C   0  0  0  0  0  0  0  0  0  0  0  0
   63.5740   34.2360   52.5270 C   0  0  0  0  0  0  0  0  0  0  0  0
   62.3780   33.5370   52.6980 C   0  0  0  0  0  0  0  0  0  0  0  0
   61.6190   33.1430   51.5860 C   0  0  0  0  0  0  0  0  0  0  0  0
   60.3080   32.4960   51.8130 C   0  0  0  0  0  0  0  0  0  0  0  0
   59.1610   33.2960   51.9110 C   0  0  0  0  0  0  0  0  0  0  0  0
   57.8990   32.7130   52.0490 C   0  0  0  0  0  0  0  0  0  0  0  0
   57.7620   31.3160   52.0900 C   0  0  0  0  0  0  0  0  0  0  0  0
   56.4210   30.7030   52.1980 C   0  0  0  0  0  0  0  0  0  0  0  0
   55.4000   31.4200   52.3790 O   0  0  0  0  0  0  0  0  0  0  0  0
   56.2680   29.3240   52.1040 O   0  0  0  0  0  0  0  0  0  0  0  0
   58.9150   30.5150   52.0140 C   0  0  0  0  0  0  0  0  0  0  0  0
   60.1830   31.0960   51.8820 C   0  0  0  0  0  0  0  0  0  0  0  0
   61.5850   30.0420   51.7430 Cl  0  0  0  0  0  0  0  0  0  0  0  0
   59.6310   30.4790   48.7260 C   0  0  0  0  0  0  0  0  0  0  0  0
   58.8020   29.4210   48.3460 C   0  0  0  0  0  0  0  0  0  0  0  0
   54.6950   29.3400   45.7640 H   0  0  0  0  0  0  0  0  0  0  0  0
   55.5267   26.6402   44.9261 H   0  0  0  0  0  0  0  0  0  0  0  0
   55.9840   24.4398   45.9950 H   0  0  0  0  0  0  0  0  0  0  0  0
   57.9038   24.1820   47.5637 H   0  0  0  0  0  0  0  0  0  0  0  0
   59.3459   26.1412   48.1039 H   0  0  0  0  0  0  0  0  0  0  0  0
   60.5223   28.3271   45.6012 H   0  0  0  0  0  0  0  0  0  0  0  0
   62.0096   30.2038   46.2822 H   0  0  0  0  0  0  0  0  0  0  0  0
   62.7440   31.5810   48.3430 H   0  0  0  0  0  0  0  0  0  0  0  0
   63.6320   34.4318   49.1182 H   0  0  0  0  0  0  0  0  0  0  0  0
   64.9578   35.1168   51.1144 H   0  0  0  0  0  0  0  0  0  0  0  0
   64.1659   34.5343   53.4049 H   0  0  0  0  0  0  0  0  0  0  0  0
   62.0281   33.2933   53.7120 H   0  0  0  0  0  0  0  0  0  0  0  0
   59.2554   34.3915   51.8790 H   0  0  0  0  0  0  0  0  0  0  0  0
   57.0071   33.3522   52.1260 H   0  0  0  0  0  0  0  0  0  0  0  0
   58.8205   29.4200   52.0587 H   0  0  0  0  0  0  0  0  0  0  0  0
   59.3752   31.0855   49.6073 H   0  0  0  0  0  0  0  0  0  0  0  0
   57.9033   29.1914   48.9372 H   0  0  0  0  0  0  0  0  0  0  0  0
  1  2  1  0
  2  3  2  0
  2  4  2  0
  2  5  1  0
  5  6  2  0
  6  7  1  0
  7  8  2  0
  8  9  1  0
  9 10  2  0
 10 11  1  0
 11 12  2  0
 12 13  1  0
 13 14  2  0
 14 15  1  0
 15 16  1  0
 16 17  2  0
 16 18  1  0
 18 19  2  0
 19 20  1  0
 20 21  2  0
 21 22  1  0
 22 23  2  0
 23 24  1  0
 24 25  2  0
 25 26  1  0
 26 27  2  0
 27 28  1  0
 28 29  2  0
 28 30  1  0
 27 31  1  0
 31 32  2  0
 32 33  1  0
 14 34  1  0
 34 35  2  0
 10  5  1  0
 35 11  1  0
 23 18  1  0
 32 24  1  0
  1 36  1  0
  6 37  1  0
  7 38  1  0
  8 39  1  0
  9 40  1  0
 12 41  1  0
 13 42  1  0
 15 43  1  0
 19 44  1  0
 20 45  1  0
 21 46  1  0
 22 47  1  0
 25 48  1  0
 26 49  1  0
 31 50  1  0
 34 51  1  0
 35 52  1  0
M  CHG  2   1  -1  30  -1
M  END
>  <UniqueID>  (12) 
12

>  <SMILES>  (12) 
[NH-]S(=O)(=O)c1ccccc1-c1ccc(NC(=O)c2ccccc2-c2ccc(C(=O)[O-])cc2Cl)cc1

>  <Energy>  (12) 
78.73455864561012

>  <Genealogy>  (12) 
[NH-]S(=O)(=O)c1ccccc1-c1ccc(NC(=O)c2ccccc2-c2ccc(C(=O)[O-])cc2Cl)cc1 (protonated)
[NH-]S(=O)(=O)c1ccccc1-c1ccc(NC(=O)c2ccccc2-c2ccc(C(=O)[O-])cc2Cl)cc1 (3D coordinates assigned)
[NH-]S(=O)(=O)c1ccccc1-c1ccc(NC(=O)c2ccccc2-c2ccc(C(=O)[O-])cc2Cl)cc1 (optimized conformer: 78.73455864561012 kcal/mol)

>  <smiles>  (12) 
NS(=O)(=O)c1ccccc1-c1ccc(NC(=O)c2ccccc2-c2ccc(C(=O)O)cc2Cl)cc1

>  <score_type>  (12) 
oracle

>  <origin>  (12) 
adg

>  <m_score__min__energy>  (12) 
-13.800000000000001

>  <m_primary>  (12) 
energy

$$$$
12:0
     RDKit          3D

 41 43  0  0  0  0  0  0  0  0999 V2000
   62.4050   34.1440   46.4400 N   0  0  0  0  0  0  0  0  0  0  0  0
   61.2640   33.9570   46.3840 C   0  0  0  0  0  0  0  0  0  0  0  0
   59.8430   33.7220   46.3160 C   0  0  0  0  0  0  0  0  0  0  0  0
   59.2420   33.5560   45.0600 C   0  0  0  0  0  0  0  0  0  0  0  0
   57.8630   33.3550   44.9600 C   0  0  0  0  0  0  0  0  0  0  0  0
   57.0750   33.3290   46.1120 C   0  0  0  0  0  0  0  0  0  0  0  0
   57.6650   33.4960   47.3680 C   0  0  0  0  0  0  0  0  0  0  0  0
   59.0500   33.6780   47.4810 C   0  0  0  0  0  0  0  0  0  0  0  0
   59.7700   33.8780   49.1200 S   0  0  0  0  0  0  0  0  0  0  0  0
   59.1640   32.2870   49.7120 C   0  0  0  0  0  0  0  0  0  0  0  0
   58.2080   32.2820   50.7370 C   0  0  0  0  0  0  0  0  0  0  0  0
   57.7620   31.0790   51.2850 C   0  0  0  0  0  0  0  0  0  0  0  0
   58.2680   29.8670   50.8160 C   0  0  0  0  0  0  0  0  0  0  0  0
   59.2060   29.8560   49.7810 C   0  0  0  0  0  0  0  0  0  0  0  0
   59.6450   31.0570   49.2000 C   0  0  0  0  0  0  0  0  0  0  0  0
   60.6000   30.9870   48.0710 C   0  0  0  0  0  0  0  0  0  0  0  0
   61.7270   31.5370   48.1890 O   0  0  0  0  0  0  0  0  0  0  0  0
   60.2800   30.3300   46.8380 N   0  0  0  0  0  0  0  0  0  0  0  0
   59.3380   29.2610   46.6590 C   0  0  0  0  0  0  0  0  0  0  0  0
   58.1620   29.4260   45.9070 C   0  0  0  0  0  0  0  0  0  0  0  0
   57.2680   28.3630   45.7560 C   0  0  0  0  0  0  0  0  0  0  0  0
   57.5280   27.1290   46.3680 C   0  0  0  0  0  0  0  0  0  0  0  0
   56.4190   25.7740   46.1800 S   0  0  0  0  0  0  0  0  0  0  0  0
   54.7930   26.3340   46.0000 N   0  0  0  0  0  0  0  0  0  0  0  0
   56.4910   24.8990   47.4000 O   0  0  0  0  0  0  0  0  0  0  0  0
   56.8060   24.9760   44.9670 O   0  0  0  0  0  0  0  0  0  0  0  0
   58.6890   26.9720   47.1370 C   0  0  0  0  0  0  0  0  0  0  0  0
   59.5820   28.0360   47.2900 C   0  0  0  0  0  0  0  0  0  0  0  0
   59.8588   33.5841   44.1497 H   0  0  0  0  0  0  0  0  0  0  0  0
   57.3979   33.2171   43.9728 H   0  0  0  0  0  0  0  0  0  0  0  0
   55.9886   33.1769   46.0312 H   0  0  0  0  0  0  0  0  0  0  0  0
   57.0390   33.4845   48.2725 H   0  0  0  0  0  0  0  0  0  0  0  0
   57.8060   33.2346   51.1125 H   0  0  0  0  0  0  0  0  0  0  0  0
   57.0103   31.0865   52.0880 H   0  0  0  0  0  0  0  0  0  0  0  0
   57.9286   28.9200   51.2610 H   0  0  0  0  0  0  0  0  0  0  0  0
   59.6047   28.8974   49.4174 H   0  0  0  0  0  0  0  0  0  0  0  0
   57.9447   30.3958   45.4356 H   0  0  0  0  0  0  0  0  0  0  0  0
   56.3565   28.4950   45.1545 H   0  0  0  0  0  0  0  0  0  0  0  0
   54.6440   27.0840   46.7110 H   0  0  0  0  0  0  0  0  0  0  0  0
   58.8983   26.0072   47.6222 H   0  0  0  0  0  0  0  0  0  0  0  0
   60.4818   27.9099   47.9100 H   0  0  0  0  0  0  0  0  0  0  0  0
  1  2  3  0
  2  3  1  0
  3  4  2  0
  4  5  1  0
  5  6  2  0
  6  7  1  0
  7  8  2  0
  8  9  1  0
  9 10  1  0
 10 11  2  0
 11 12  1  0
 12 13  2  0
 13 14  1  0
 14 15  2  0
 15 16  1  0
 16 17  2  0
 16 18  1  0
 18 19  1  0
 19 20  2  0
 20 21  1  0
 21 22  2  0
 22 23  1  0
 23 24  1  0
 23 25  2  0
 23 26  2  0
 22 27  1  0
 27 28  2  0
  8  3  1  0
 15 10  1  0
 28 19  1  0
  4 29  1  0
  5 30  1  0
  6 31  1  0
  7 32  1  0
 11 33  1  0
 12 34  1  0
 13 35  1  0
 14 36  1  0
 20 37  1  0
 21 38  1  0
 24 39  1  0
 27 40  1  0
 28 41  1  0
M  CHG  2  18  -1  24  -1
M  END
>  <UniqueID>  (13) 
13

>  <SMILES>  (13) 
N#Cc1ccccc1Sc1ccccc1C(=O)[N-]c1ccc(S([NH-])(=O)=O)cc1

>  <Energy>  (13) 
48.621927808467284

>  <Genealogy>  (13) 
N#Cc1ccccc1Sc1ccccc1C(=O)[N-]c1ccc(S([NH-])(=O)=O)cc1 (protonated)
N#Cc1ccccc1Sc1ccccc1C(=O)[N-]c1ccc(S([NH-])(=O)=O)cc1 (3D coordinates assigned)
N#Cc1ccccc1Sc1ccccc1C(=O)[N-]c1ccc(S([NH-])(=O)=O)cc1 (optimized conformer: 48.621927808467284 kcal/mol)

>  <smiles>  (13) 
N#Cc1ccccc1Sc1ccccc1C(=O)Nc1ccc(S(N)(=O)=O)cc1

>  <score_type>  (13) 
oracle

>  <origin>  (13) 
adg

>  <m_score__min__energy>  (13) 
-12.82

>  <m_primary>  (13) 
energy

$$$$
13:0
     RDKit          3D

 55 59  0  0  0  0  0  0  0  0999 V2000
   57.5323   33.4404   53.6052 H   0  0  0  0  0  0  0  0  0  0  0  0
   57.4110   32.6870   52.8130 C   0  0  0  0  0  0  0  0  0  0  0  0
   56.3530   31.8380   52.8400 N   0  0  0  0  0  0  0  0  0  0  0  0
   56.1760   30.9030   51.8660 C   0  0  0  0  0  0  0  0  0  0  0  0
   55.1740   30.0730   51.8990 N   0  0  0  0  0  0  0  0  0  0  0  0
   53.7980   30.3890   52.1670 C   0  0  0  0  0  0  0  0  0  0  0  0
   53.0880   29.7970   53.2310 C   0  0  0  0  0  0  0  0  0  0  0  0
   53.5797   29.0468   53.8677 H   0  0  0  0  0  0  0  0  0  0  0  0
   51.7610   30.1600   53.4800 C   0  0  0  0  0  0  0  0  0  0  0  0
   51.2070   29.6842   54.3026 H   0  0  0  0  0  0  0  0  0  0  0  0
   51.1370   31.1260   52.6860 C   0  0  0  0  0  0  0  0  0  0  0  0
   50.0897   31.4028   52.8773 H   0  0  0  0  0  0  0  0  0  0  0  0
   51.8440   31.7400   51.6490 C   0  0  0  0  0  0  0  0  0  0  0  0
   51.2280   32.7110   50.8690 O   0  0  0  0  0  0  0  0  0  0  0  0
   53.1730   31.3790   51.3980 C   0  0  0  0  0  0  0  0  0  0  0  0
   53.7307   31.8765   50.5908 H   0  0  0  0  0  0  0  0  0  0  0  0
   57.0850   30.8030   50.8610 N   0  0  0  0  0  0  0  0  0  0  0  0
   58.1650   31.6250   50.7910 C   0  0  0  0  0  0  0  0  0  0  0  0
   59.0600   31.4690   49.7220 O   0  0  0  0  0  0  0  0  0  0  0  0
   59.2800   30.2600   49.0500 C   0  0  0  0  0  0  0  0  0  0  0  0
   58.9060   30.1710   47.7080 C   0  0  0  0  0  0  0  0  0  0  0  0
   58.4355   31.0346   47.2152 H   0  0  0  0  0  0  0  0  0  0  0  0
   59.1230   28.9990   46.9870 C   0  0  0  0  0  0  0  0  0  0  0  0
   58.8401   28.9534   45.9250 H   0  0  0  0  0  0  0  0  0  0  0  0
   59.6970   27.8790   47.5990 C   0  0  0  0  0  0  0  0  0  0  0  0
   59.8660   26.6860   46.8190 N   0  0  0  0  0  0  0  0  0  0  0  0
   60.6560   26.6580   46.1360 H   0  0  0  0  0  0  0  0  0  0  0  0
   58.8180   25.7130   46.6790 C   0  0  0  0  0  0  0  0  0  0  0  0
   57.6480   25.9930   47.0540 O   0  0  0  0  0  0  0  0  0  0  0  0
   59.0590   24.4410   46.0580 N   0  0  0  0  0  0  0  0  0  0  0  0
   58.1650   23.5470   45.7550 C   0  0  0  0  0  0  0  0  0  0  0  0
   57.5630   22.7920   46.7200 N   0  0  0  0  0  0  0  0  0  0  0  0
   56.6070   21.8740   46.4230 C   0  0  0  0  0  0  0  0  0  0  0  0
   56.1462   21.2815   47.2271 H   0  0  0  0  0  0  0  0  0  0  0  0
   56.2080   21.6810   45.0990 C   0  0  0  0  0  0  0  0  0  0  0  0
   55.4276   20.9447   44.8566 H   0  0  0  0  0  0  0  0  0  0  0  0
   56.8100   22.4330   44.0820 C   0  0  0  0  0  0  0  0  0  0  0  0
   56.3650   22.2760   42.6590 C   0  0  0  0  0  0  0  0  0  0  0  0
   55.3279   21.9101   42.6374 H   0  0  0  0  0  0  0  0  0  0  0  0
   56.4215   23.2483   42.1478 H   0  0  0  0  0  0  0  0  0  0  0  0
   57.0191   21.5544   42.1478 H   0  0  0  0  0  0  0  0  0  0  0  0
   57.7820   23.3860   44.4180 C   0  0  0  0  0  0  0  0  0  0  0  0
   58.2421   24.0051   43.6338 H   0  0  0  0  0  0  0  0  0  0  0  0
   60.0950   27.9500   48.9560 C   0  0  0  0  0  0  0  0  0  0  0  0
   60.7430   26.8700   49.5910 C   0  0  0  0  0  0  0  0  0  0  0  0
   60.9700   25.9581   49.0192 H   0  0  0  0  0  0  0  0  0  0  0  0
   61.0990   26.9480   50.9390 C   0  0  0  0  0  0  0  0  0  0  0  0
   61.6007   26.0974   51.4235 H   0  0  0  0  0  0  0  0  0  0  0  0
   60.8210   28.0990   51.6720 C   0  0  0  0  0  0  0  0  0  0  0  0
   61.0877   28.1473   52.7381 H   0  0  0  0  0  0  0  0  0  0  0  0
   60.2050   29.1920   51.0590 C   0  0  0  0  0  0  0  0  0  0  0  0
   59.9887   30.0971   51.6455 H   0  0  0  0  0  0  0  0  0  0  0  0
   59.8590   29.1430   49.6950 C   0  0  0  0  0  0  0  0  0  0  0  0
   58.3440   32.6040   51.7810 C   0  0  0  0  0  0  0  0  0  0  0  0
   59.2023   33.2909   51.7431 H   0  0  0  0  0  0  0  0  0  0  0  0
  1  2  1  0
  2  3  1  0
  3  4  1  0
  4  5  2  3
  5  6  1  0
  6  7  2  0
  7  8  1  0
  7  9  1  0
  9 10  1  0
  9 11  2  0
 11 12  1  0
 11 13  1  0
 13 14  1  0
 13 15  2  0
 15 16  1  0
  4 17  1  0
 17 18  2  0
 18 19  1  0
 19 20  1  0
 20 21  2  0
 21 22  1  0
 21 23  1  0
 23 24  1  0
 23 25  2  0
 25 26  1  0
 26 27  1  0
 26 28  1  0
 28 29  2  0
 28 30  1  0
 30 31  2  0
 31 32  1  0
 32 33  1  0
 33 34  1  0
 33 35  2  0
 35 36  1  0
 35 37  1  0
 37 38  1  0
 38 39  1  0
 38 40  1  0
 38 41  1  0
 37 42  2  0
 42 43  1  0
 25 44  1  0
 44 45  2  0
 45 46  1  0
 45 47  1  0
 47 48  1  0
 47 49  2  0
 49 50  1  0
 49 51  1  0
 51 52  1  0
 51 53  2  0
 18 54  1  0
 54 55  1  0
 54  2  2  0
 15  6  1  0
 53 20  1  0
 42 31  1  0
 53 44  1  0
M  CHG  3   3  -1  14  -1  32  -1
M  END
>  <UniqueID>  (14) 
14

>  <SMILES>  (14) 
Cc1cc[n-]/c(=N\C(=O)Nc2ccc(Oc3cc[n-]c(=Nc4cccc([O-])c4)n3)c3ccccc23)c1

>  <Energy>  (14) 
93.07645806085421

>  <Genealogy>  (14) 
Cc1cc[n-]c(=NC(=O)Nc2ccc(Oc3cc[n-]c(=Nc4cccc([O-])c4)n3)c3ccccc23)c1 (protonated)
Cc1cc[n-]/c(=N\C(=O)Nc2ccc(Oc3cc[n-]c(=Nc4cccc([O-])c4)n3)c3ccccc23)c1 (cis-trans isomerization)
Cc1cc[n-]/c(=N\C(=O)Nc2ccc(Oc3cc[n-]c(=Nc4cccc([O-])c4)n3)c3ccccc23)c1 (3D coordinates assigned)
Cc1cc[n-]/c(=N\C(=O)Nc2ccc(Oc3cc[n-]c(=Nc4cccc([O-])c4)n3)c3ccccc23)c1 (optimized conformer: 93.07645806085421 kcal/mol)

>  <smiles>  (14) 
Cc1cc[nH]c(=NC(=O)Nc2ccc(Oc3cc[nH]c(=Nc4cccc(O)c4)n3)c3ccccc23)c1

>  <score_type>  (14) 
oracle

>  <origin>  (14) 
adg

>  <m_score__min__energy>  (14) 
-16.010000000000002

>  <m_primary>  (14) 
energy

$$$$
14:0
     RDKit          3D

 60 63  0  0  0  0  0  0  0  0999 V2000
   56.4420   22.1190   47.8360 C   0  0  0  0  0  0  0  0  0  0  0  0
   57.3590   22.5320   46.8310 O   0  0  0  0  0  0  0  0  0  0  0  0
   57.1490   22.3800   45.4510 C   0  0  0  0  0  0  0  0  0  0  0  0
   57.8720   21.4440   44.6810 C   0  0  0  0  0  0  0  0  0  0  0  0
   57.6160   21.3060   43.3170 C   0  0  0  0  0  0  0  0  0  0  0  0
   56.6440   22.0940   42.7070 C   0  0  0  0  0  0  0  0  0  0  0  0
   55.9200   23.0250   43.4580 C   0  0  0  0  0  0  0  0  0  0  0  0
   56.1750   23.1850   44.8330 C   0  0  0  0  0  0  0  0  0  0  0  0
   55.4050   24.0750   45.6590 N   0  0  0  0  0  0  0  0  0  0  0  0
   55.7100   25.4270   46.0250 C   0  0  0  0  0  0  0  0  0  0  0  0
   54.8210   26.3230   45.9950 O   0  0  0  0  0  0  0  0  0  0  0  0
   57.1060   25.7480   46.4820 C   0  0  0  0  0  0  0  0  0  0  0  0
   57.4060   27.2530   46.6030 C   0  0  0  0  0  0  0  0  0  0  0  0
   57.8590   27.9050   45.2830 C   0  0  0  0  0  0  0  0  0  0  0  0
   58.1400   29.3520   45.4340 N   0  0  0  0  0  0  0  0  0  0  0  0
   57.2220   30.3030   45.0350 C   0  0  0  0  0  0  0  0  0  0  0  0
   55.7760   29.9060   44.3610 S   0  0  0  0  0  0  0  0  0  0  0  0
   57.4900   31.6230   45.1980 N   0  0  0  0  0  0  0  0  0  0  0  0
   58.6480   32.0560   45.7480 C   0  0  0  0  0  0  0  0  0  0  0  0
   58.8780   33.4270   45.9050 C   0  0  0  0  0  0  0  0  0  0  0  0
   60.0720   33.8760   46.4750 C   0  0  0  0  0  0  0  0  0  0  0  0
   61.0410   32.9600   46.8970 C   0  0  0  0  0  0  0  0  0  0  0  0
   62.5520   33.5440   47.5890 S   0  0  0  0  0  0  0  0  0  0  0  0
   63.3200   34.3370   46.5660 O   0  0  0  0  0  0  0  0  0  0  0  0
   63.3880   32.3680   48.0040 O   0  0  0  0  0  0  0  0  0  0  0  0
   62.2330   34.5380   48.9760 N   0  0  0  0  0  0  0  0  0  0  0  0
   62.1710   33.7050   50.1730 C   0  0  0  0  0  0  0  0  0  0  0  0
   61.0300   32.7410   50.0470 C   0  0  0  0  0  0  0  0  0  0  0  0
   59.7160   33.2090   49.9160 C   0  0  0  0  0  0  0  0  0  0  0  0
   58.6570   32.3080   49.7620 C   0  0  0  0  0  0  0  0  0  0  0  0
   58.9020   30.9350   49.7720 C   0  0  0  0  0  0  0  0  0  0  0  0
   60.2020   30.4600   49.9510 C   0  0  0  0  0  0  0  0  0  0  0  0
   61.2650   31.3580   50.0940 C   0  0  0  0  0  0  0  0  0  0  0  0
   60.8180   31.5840   46.7340 C   0  0  0  0  0  0  0  0  0  0  0  0
   59.6130   31.1250   46.1630 C   0  0  0  0  0  0  0  0  0  0  0  0
   59.3340   29.7570   45.9910 C   0  0  0  0  0  0  0  0  0  0  0  0
   60.1920   28.9030   46.3510 O   0  0  0  0  0  0  0  0  0  0  0  0
   56.8739   22.3135   48.8288 H   0  0  0  0  0  0  0  0  0  0  0  0
   55.5025   22.6809   47.7284 H   0  0  0  0  0  0  0  0  0  0  0  0
   56.2401   21.0430   47.7284 H   0  0  0  0  0  0  0  0  0  0  0  0
   58.6415   20.8200   45.1591 H   0  0  0  0  0  0  0  0  0  0  0  0
   58.1826   20.5740   42.7228 H   0  0  0  0  0  0  0  0  0  0  0  0
   56.4449   21.9839   41.6308 H   0  0  0  0  0  0  0  0  0  0  0  0
   55.1460   23.6364   42.9711 H   0  0  0  0  0  0  0  0  0  0  0  0
   57.2596   25.2863   47.4685 H   0  0  0  0  0  0  0  0  0  0  0  0
   57.7863   25.3535   45.7129 H   0  0  0  0  0  0  0  0  0  0  0  0
   56.4931   27.7621   46.9458 H   0  0  0  0  0  0  0  0  0  0  0  0
   58.2388   27.3574   47.3141 H   0  0  0  0  0  0  0  0  0  0  0  0
   58.7738   27.4020   44.9364 H   0  0  0  0  0  0  0  0  0  0  0  0
   57.0394   27.7968   44.5574 H   0  0  0  0  0  0  0  0  0  0  0  0
   58.1179   34.1524   45.5793 H   0  0  0  0  0  0  0  0  0  0  0  0
   60.2508   34.9550   46.5924 H   0  0  0  0  0  0  0  0  0  0  0  0
   63.1129   33.1473   50.2818 H   0  0  0  0  0  0  0  0  0  0  0  0
   62.0199   34.3414   51.0574 H   0  0  0  0  0  0  0  0  0  0  0  0
   59.5160   34.2905   49.9343 H   0  0  0  0  0  0  0  0  0  0  0  0
   57.6308   32.6825   49.6330 H   0  0  0  0  0  0  0  0  0  0  0  0
   58.0709   30.2268   49.6388 H   0  0  0  0  0  0  0  0  0  0  0  0
   60.3912   29.3768   49.9797 H   0  0  0  0  0  0  0  0  0  0  0  0
   62.2870   30.9796   50.2436 H   0  0  0  0  0  0  0  0  0  0  0  0
   61.5846   30.8622   47.0522 H   0  0  0  0  0  0  0  0  0  0  0  0
  1  2  1  0
  2  3  1  0
  3  4  2  0
  4  5  1  0
  5  6  2  0
  6  7  1  0
  7  8  2  0
  8  9  1  0
  9 10  1  0
 10 11  2  0
 10 12  1  0
 12 13  1  0
 13 14  1  0
 14 15  1  0
 15 16  1  0
 16 17  2  0
 16 18  1  0
 18 19  1  0
 19 20  2  0
 20 21  1  0
 21 22  2  0
 22 23  1  0
 23 24  2  0
 23 25  2  0
 23 26  1  0
 26 27  1  0
 27 28  1  0
 28 29  2  0
 29 30  1  0
 30 31  2  0
 31 32  1  0
 32 33  2  0
 22 34  1  0
 34 35  2  0
 35 36  1  0
 36 37  2  0
  8  3  1  0
 36 15  1  0
 35 19  1  0
 33 28  1  0
  1 38  1  0
  1 39  1  0
  1 40  1  0
  4 41  1  0
  5 42  1  0
  6 43  1  0
  7 44  1  0
 12 45  1  0
 12 46  1  0
 13 47  1  0
 13 48  1  0
 14 49  1  0
 14 50  1  0
 20 51  1  0
 21 52  1  0
 27 53  1  0
 27 54  1  0
 29 55  1  0
 30 56  1  0
 31 57  1  0
 32 58  1  0
 33 59  1  0
 34 60  1  0
M  CHG  3   9  -1  18  -1  26  -1
M  END
>  <UniqueID>  (15) 
15

>  <SMILES>  (15) 
COc1ccccc1[N-]C(=O)CCCn1c(=S)[n-]c2ccc(S(=O)(=O)[N-]Cc3ccccc3)cc2c1=O

>  <Energy>  (15) 
66.50485596095898

>  <Genealogy>  (15) 
COc1ccccc1[N-]C(=O)CCCn1c(=S)[n-]c2ccc(S(=O)(=O)[N-]Cc3ccccc3)cc2c1=O (protonated)
COc1ccccc1[N-]C(=O)CCCn1c(=S)[n-]c2ccc(S(=O)(=O)[N-]Cc3ccccc3)cc2c1=O (3D coordinates assigned)
COc1ccccc1[N-]C(=O)CCCn1c(=S)[n-]c2ccc(S(=O)(=O)[N-]Cc3ccccc3)cc2c1=O (optimized conformer: 66.50485596095898 kcal/mol)

>  <smiles>  (15) 
COc1ccccc1NC(=O)CCCn1c(=S)[nH]c2ccc(S(=O)(=O)NCc3ccccc3)cc2c1=O

>  <score_type>  (15) 
oracle

>  <origin>  (15) 
adg

>  <m_score__min__energy>  (15) 
-14.359999999999999

>  <m_primary>  (15) 
energy

$$$$
15:0
     RDKit          3D

 29 30  0  0  0  0  0  0  0  0999 V2000
   56.0990   30.8325   42.7975 H   0  0  0  0  0  0  0  0  0  0  0  0
   56.7720   30.5010   43.6020 C   0  0  0  0  0  0  0  0  0  0  0  0
   56.3440   29.3840   44.4680 C   0  0  0  0  0  0  0  0  0  0  0  0
   55.1490   29.3670   44.8690 O   0  0  0  0  0  0  0  0  0  0  0  0
   57.2540   28.3070   44.9050 C   0  0  0  0  0  0  0  0  0  0  0  0
   56.8370   27.0750   45.9730 S   0  0  0  0  0  0  0  0  0  0  0  0
   58.3510   26.3460   46.0260 C   0  0  0  0  0  0  0  0  0  0  0  0
   58.6149   25.4472   46.6026 H   0  0  0  0  0  0  0  0  0  0  0  0
   59.2110   27.0760   45.2150 C   0  0  0  0  0  0  0  0  0  0  0  0
   60.2701   26.8149   45.0735 H   0  0  0  0  0  0  0  0  0  0  0  0
   58.6050   28.1740   44.5950 C   0  0  0  0  0  0  0  0  0  0  0  0
   59.1427   28.8642   43.9283 H   0  0  0  0  0  0  0  0  0  0  0  0
   57.9460   31.1270   43.7560 C   0  0  0  0  0  0  0  0  0  0  0  0
   58.7848   30.8408   43.1044 H   0  0  0  0  0  0  0  0  0  0  0  0
   58.1630   32.1880   44.7660 C   0  0  0  0  0  0  0  0  0  0  0  0
   58.2530   33.5150   44.3180 C   0  0  0  0  0  0  0  0  0  0  0  0
   58.1587   33.7354   43.2444 H   0  0  0  0  0  0  0  0  0  0  0  0
   58.4610   34.5570   45.2220 C   0  0  0  0  0  0  0  0  0  0  0  0
   58.5391   35.5922   44.8585 H   0  0  0  0  0  0  0  0  0  0  0  0
   58.5700   34.2880   46.5850 C   0  0  0  0  0  0  0  0  0  0  0  0
   58.7469   35.1098   47.2944 H   0  0  0  0  0  0  0  0  0  0  0  0
   58.4550   32.9760   47.0520 C   0  0  0  0  0  0  0  0  0  0  0  0
   58.5375   32.7708   48.1295 H   0  0  0  0  0  0  0  0  0  0  0  0
   58.2340   31.9130   46.1520 C   0  0  0  0  0  0  0  0  0  0  0  0
   58.0550   30.5950   46.6050 O   0  0  0  0  0  0  0  0  0  0  0  0
   58.9000   29.9390   47.5450 C   0  0  0  0  0  0  0  0  0  0  0  0
   58.5768   30.1899   48.5661 H   0  0  0  0  0  0  0  0  0  0  0  0
   58.8372   28.8507   47.3975 H   0  0  0  0  0  0  0  0  0  0  0  0
   59.9387   30.2696   47.3975 H   0  0  0  0  0  0  0  0  0  0  0  0
  1  2  1  0
  2  3  1  0
  3  4  2  0
  3  5  1  0
  5  6  1  0
  6  7  1  0
  7  8  1  0
  7  9  2  0
  9 10  1  0
  9 11  1  0
 11 12  1  0
  2 13  2  0
 13 14  1  0
 13 15  1  0
 15 16  2  0
 16 17  1  0
 16 18  1  0
 18 19  1  0
 18 20  2  0
 20 21  1  0
 20 22  1  0
 22 23  1  0
 22 24  2  0
 24 25  1  0
 25 26  1  0
 26 27  1  0
 26 28  1  0
 26 29  1  0
 11  5  2  0
 24 15  1  0
M  END
>  <UniqueID>  (16) 
16

>  <SMILES>  (16) 
COc1ccccc1/C=C/C(=O)c1cccs1

>  <Energy>  (16) 
62.39923582844795

>  <Genealogy>  (16) 
COc1ccccc1/C=C/C(=O)c1cccs1 (cis-trans isomerization)
COc1ccccc1/C=C/C(=O)c1cccs1 (3D coordinates assigned)
COc1ccccc1/C=C/C(=O)c1cccs1 (optimized conformer: 62.39923582844795 kcal/mol)

>  <smiles>  (16) 
COc1ccccc1C=CC(=O)c1cccs1

>  <score_type>  (16) 
oracle

>  <origin>  (16) 
adg

>  <m_score__min__energy>  (16) 
-6.5899999999999999

>  <m_primary>  (16) 
energy

$$$$
16:0
     RDKit          3D

 68 71  0  0  0  0  0  0  0  0999 V2000
   54.4370   22.9140   47.1740 C   0  0  0  0  0  0  0  0  0  0  0  0
   55.3020   22.8960   45.9370 C   0  0  0  0  0  0  0  0  0  0  0  0
   55.5270   21.6690   45.2920 C   0  0  0  0  0  0  0  0  0  0  0  0
   56.3030   21.6070   44.1370 C   0  0  0  0  0  0  0  0  0  0  0  0
   56.8670   22.7650   43.6100 C   0  0  0  0  0  0  0  0  0  0  0  0
   56.6620   24.0120   44.2260 C   0  0  0  0  0  0  0  0  0  0  0  0
   57.3540   25.2200   43.6270 C   0  0  0  0  0  0  0  0  0  0  0  0
   58.0410   26.0280   44.6860 C   0  0  0  0  0  0  0  0  0  0  0  0
   59.0670   25.5620   45.2550 O   0  0  0  0  0  0  0  0  0  0  0  0
   57.5370   27.3230   45.0470 N   0  0  0  0  0  0  0  0  0  0  0  0
   58.3560   28.3610   45.6170 C   0  0  0  0  0  0  0  0  0  0  0  0
   58.7960   29.4120   44.8110 C   0  0  0  0  0  0  0  0  0  0  0  0
   59.6390   30.3940   45.3260 C   0  0  0  0  0  0  0  0  0  0  0  0
   60.0840   30.3340   46.6530 C   0  0  0  0  0  0  0  0  0  0  0  0
   60.9640   31.4210   47.1320 C   0  0  0  0  0  0  0  0  0  0  0  0
   62.3230   31.1360   47.3400 C   0  0  0  0  0  0  0  0  0  0  0  0
   63.1940   32.1260   47.7990 C   0  0  0  0  0  0  0  0  0  0  0  0
   62.7160   33.4100   48.0570 C   0  0  0  0  0  0  0  0  0  0  0  0
   61.3650   33.7090   47.8580 C   0  0  0  0  0  0  0  0  0  0  0  0
   60.4760   32.7250   47.3960 C   0  0  0  0  0  0  0  0  0  0  0  0
   58.7690   33.1500   47.1780 S   0  0  0  0  0  0  0  0  0  0  0  0
   58.5650   34.8440   47.4440 N   0  0  0  0  0  0  0  0  0  0  0  0
   58.3220   32.8100   45.7830 O   0  0  0  0  0  0  0  0  0  0  0  0
   57.9090   32.3830   48.1410 O   0  0  0  0  0  0  0  0  0  0  0  0
   59.6460   29.2760   47.4940 C   0  0  0  0  0  0  0  0  0  0  0  0
   60.0930   29.1170   48.9090 C   0  0  0  0  0  0  0  0  0  0  0  0
   61.1470   28.4660   49.1590 O   0  0  0  0  0  0  0  0  0  0  0  0
   59.3770   29.7460   49.9810 N   0  0  0  0  0  0  0  0  0  0  0  0
   59.3740   31.1750   50.3090 C   0  0  2  0  0  0  0  0  0  0  0  0
   60.7860   31.6580   50.7180 C   0  0  0  0  0  0  0  0  0  0  0  0
   60.7580   32.9280   51.5950 C   0  0  0  0  0  0  0  0  0  0  0  0
   59.5310   33.8210   51.3100 C   0  0  1  0  0  0  0  0  0  0  0  0
   59.5750   34.2900   49.9860 O   0  0  0  0  0  0  0  0  0  0  0  0
   58.2020   33.0560   51.5440 C   0  0  0  0  0  0  0  0  0  0  0  0
   58.3260   31.5270   51.3790 C   0  0  0  0  0  0  0  0  0  0  0  0
   58.7890   28.2950   46.9510 C   0  0  0  0  0  0  0  0  0  0  0  0
   55.8870   24.0810   45.4170 C   0  0  0  0  0  0  0  0  0  0  0  0
   55.6810   25.3700   46.1170 C   0  0  0  0  0  0  0  0  0  0  0  0
   56.3630   25.6630   47.1310 O   0  0  0  0  0  0  0  0  0  0  0  0
   54.7730   26.2980   45.6180 O   0  0  0  0  0  0  0  0  0  0  0  0
   55.0766   22.9007   48.0689 H   0  0  0  0  0  0  0  0  0  0  0  0
   53.8207   23.8252   47.1773 H   0  0  0  0  0  0  0  0  0  0  0  0
   53.7834   22.0293   47.1773 H   0  0  0  0  0  0  0  0  0  0  0  0
   55.0864   20.7485   45.7027 H   0  0  0  0  0  0  0  0  0  0  0  0
   56.4705   20.6401   43.6400 H   0  0  0  0  0  0  0  0  0  0  0  0
   57.4812   22.7038   42.6995 H   0  0  0  0  0  0  0  0  0  0  0  0
   58.1002   24.8798   42.8939 H   0  0  0  0  0  0  0  0  0  0  0  0
   56.5959   25.8522   43.1417 H   0  0  0  0  0  0  0  0  0  0  0  0
   56.5120   27.5010   44.9410 H   0  0  0  0  0  0  0  0  0  0  0  0
   58.4744   29.4653   43.7604 H   0  0  0  0  0  0  0  0  0  0  0  0
   59.9593   31.2269   44.6828 H   0  0  0  0  0  0  0  0  0  0  0  0
   62.7048   30.1240   47.1396 H   0  0  0  0  0  0  0  0  0  0  0  0
   64.2573   31.8929   47.9571 H   0  0  0  0  0  0  0  0  0  0  0  0
   63.4033   34.1894   48.4179 H   0  0  0  0  0  0  0  0  0  0  0  0
   60.9950   34.7240   48.0651 H   0  0  0  0  0  0  0  0  0  0  0  0
   58.9140   35.0390   48.4100 H   0  0  0  0  0  0  0  0  0  0  0  0
   59.0841   31.7137   49.3948 H   0  0  0  0  0  0  0  0  0  0  0  0
   61.2822   30.8539   51.2812 H   0  0  0  0  0  0  0  0  0  0  0  0
   61.3289   31.9076   49.7945 H   0  0  0  0  0  0  0  0  0  0  0  0
   60.7352   32.6253   52.6523 H   0  0  0  0  0  0  0  0  0  0  0  0
   61.6582   33.5147   51.3596 H   0  0  0  0  0  0  0  0  0  0  0  0
   59.5664   34.6702   52.0083 H   0  0  0  0  0  0  0  0  0  0  0  0
   58.8690   33.8030   49.4860 H   0  0  0  0  0  0  0  0  0  0  0  0
   57.8555   33.2675   52.5664 H   0  0  0  0  0  0  0  0  0  0  0  0
   57.4929   33.4043   50.7785 H   0  0  0  0  0  0  0  0  0  0  0  0
   58.6287   31.0842   52.3394 H   0  0  0  0  0  0  0  0  0  0  0  0
   57.3515   31.1268   51.0624 H   0  0  0  0  0  0  0  0  0  0  0  0
   58.4534   27.4617   47.5858 H   0  0  0  0  0  0  0  0  0  0  0  0
  1  2  1  0
  2  3  2  0
  3  4  1  0
  4  5  2  0
  5  6  1  0
  6  7  1  0
  7  8  1  0
  8  9  2  0
  8 10  1  0
 10 11  1  0
 11 12  2  0
 12 13  1  0
 13 14  2  0
 14 15  1  0
 15 16  2  0
 16 17  1  0
 17 18  2  0
 18 19  1  0
 19 20  2  0
 20 21  1  0
 21 22  1  0
 21 23  2  0
 21 24  2  0
 14 25  1  0
 25 26  1  0
 26 27  2  0
 26 28  1  0
 28 29  1  0
 29 30  1  0
 30 31  1  0
 31 32  1  0
 32 33  1  0
 32 34  1  0
 34 35  1  0
 25 36  2  0
  6 37  2  0
 37 38  1  0
 38 39  2  0
 38 40  1  0
 37  2  1  0
 36 11  1  0
 20 15  1  0
 35 29  1  0
  1 41  1  0
  1 42  1  0
  1 43  1  0
  3 44  1  0
  4 45  1  0
  5 46  1  0
  7 47  1  0
  7 48  1  0
 10 49  1  0
 12 50  1  0
 13 51  1  0
 16 52  1  0
 17 53  1  0
 18 54  1  0
 19 55  1  0
 22 56  1  0
 29 57  1  6
 30 58  1  0
 30 59  1  0
 31 60  1  0
 31 61  1  0
 32 62  1  1
 33 63  1  0
 34 64  1  0
 34 65  1  0
 35 66  1  0
 35 67  1  0
 36 68  1  0
M  CHG  3  22  -1  28  -1  40  -1
M  END
>  <UniqueID>  (17) 
17

>  <SMILES>  (17) 
Cc1cccc(CC(=O)Nc2ccc(-c3ccccc3S([NH-])(=O)=O)c(C(=O)[N-]C3CCC(O)CC3)c2)c1C(=O)[O-]

>  <Energy>  (17) 
97.58688451693165

>  <Genealogy>  (17) 
Cc1cccc(CC(=O)Nc2ccc(-c3ccccc3S([NH-])(=O)=O)c(C(=O)[N-]C3CCC(O)CC3)c2)c1C(=O)[O-] (protonated)
Cc1cccc(CC(=O)Nc2ccc(-c3ccccc3S([NH-])(=O)=O)c(C(=O)[N-]C3CCC(O)CC3)c2)c1C(=O)[O-] (3D coordinates assigned)
Cc1cccc(CC(=O)Nc2ccc(-c3ccccc3S([NH-])(=O)=O)c(C(=O)[N-]C3CCC(O)CC3)c2)c1C(=O)[O-] (nonaromatic ring conformer: 97.58688451693165 kcal/mol)

>  <smiles>  (17) 
Cc1cccc(CC(=O)Nc2ccc(-c3ccccc3S(N)(=O)=O)c(C(=O)NC3CCC(O)CC3)c2)c1C(=O)O

>  <score_type>  (17) 
oracle

>  <origin>  (17) 
adg

>  <m_score__min__energy>  (17) 
-14.58

>  <m_primary>  (17) 
energy

$$$$
17:0
     RDKit          3D

 53 56  0  0  0  0  0  0  0  0999 V2000
   56.0120   30.1140   43.5200 C   0  0  0  0  0  0  0  0  0  0  0  0
   56.5070   30.0560   44.8540 O   0  0  0  0  0  0  0  0  0  0  0  0
   57.7230   29.4600   45.2220 C   0  0  0  0  0  0  0  0  0  0  0  0
   58.5790   28.8510   44.2840 C   0  0  0  0  0  0  0  0  0  0  0  0
   59.7810   28.2770   44.7020 C   0  0  0  0  0  0  0  0  0  0  0  0
   60.1410   28.2990   46.0520 C   0  0  0  0  0  0  0  0  0  0  0  0
   59.2910   28.8890   47.0010 C   0  0  0  0  0  0  0  0  0  0  0  0
   59.6750   28.9190   48.4590 C   0  0  0  0  0  0  0  0  0  0  0  0
   59.6930   30.3330   48.9890 C   0  0  0  0  0  0  0  0  0  0  0  0
   58.6530   30.7260   49.7700 N   0  0  0  0  0  0  0  0  0  0  0  0
   58.5740   31.9370   50.3230 N   0  0  0  0  0  0  0  0  0  0  0  0
   57.3880   32.2550   51.1240 C   0  0  0  0  0  0  0  0  0  0  0  0
   57.1730   31.1980   52.1750 C   0  0  0  0  0  0  0  0  0  0  0  0
   57.7370   31.3310   53.2920 O   0  0  0  0  0  0  0  0  0  0  0  0
   56.3400   30.0530   51.9580 N   0  0  0  0  0  0  0  0  0  0  0  0
   55.2560   29.6260   52.8330 C   0  0  0  0  0  0  0  0  0  0  0  0
   54.0190   30.4120   52.5100 C   0  0  0  0  0  0  0  0  0  0  0  0
   53.8450   30.9660   51.2310 C   0  0  0  0  0  0  0  0  0  0  0  0
   52.7090   31.7290   50.9420 C   0  0  0  0  0  0  0  0  0  0  0  0
   51.7460   31.9550   51.9310 C   0  0  0  0  0  0  0  0  0  0  0  0
   50.6190   32.7140   51.6430 O   0  0  0  0  0  0  0  0  0  0  0  0
   51.9190   31.4180   53.2100 C   0  0  0  0  0  0  0  0  0  0  0  0
   53.0540   30.6540   53.5020 C   0  0  0  0  0  0  0  0  0  0  0  0
   59.5590   32.8650   50.1150 C   0  0  0  0  0  0  0  0  0  0  0  0
   59.4670   34.0140   50.6300 O   0  0  0  0  0  0  0  0  0  0  0  0
   60.6730   32.5320   49.3250 C   0  0  0  0  0  0  0  0  0  0  0  0
   61.7100   33.4580   49.0990 C   0  0  0  0  0  0  0  0  0  0  0  0
   62.8100   33.1090   48.3150 C   0  0  0  0  0  0  0  0  0  0  0  0
   62.8890   31.8380   47.7460 C   0  0  0  0  0  0  0  0  0  0  0  0
   61.8690   30.9090   47.9570 C   0  0  0  0  0  0  0  0  0  0  0  0
   60.7490   31.2400   48.7490 C   0  0  0  0  0  0  0  0  0  0  0  0
   58.0890   29.4780   46.5730 C   0  0  0  0  0  0  0  0  0  0  0  0
   54.9196   30.2420   43.5395 H   0  0  0  0  0  0  0  0  0  0  0  0
   56.4715   30.9644   42.9950 H   0  0  0  0  0  0  0  0  0  0  0  0
   56.2625   29.1804   42.9950 H   0  0  0  0  0  0  0  0  0  0  0  0
   58.3000   28.8276   43.2202 H   0  0  0  0  0  0  0  0  0  0  0  0
   60.4478   27.8052   43.9652 H   0  0  0  0  0  0  0  0  0  0  0  0
   61.0939   27.8524   46.3724 H   0  0  0  0  0  0  0  0  0  0  0  0
   58.9462   28.3292   49.0344 H   0  0  0  0  0  0  0  0  0  0  0  0
   60.6847   28.4949   48.5625 H   0  0  0  0  0  0  0  0  0  0  0  0
   57.5302   33.2301   51.6128 H   0  0  0  0  0  0  0  0  0  0  0  0
   56.5081   32.2907   50.4649 H   0  0  0  0  0  0  0  0  0  0  0  0
   55.0608   28.5543   52.6801 H   0  0  0  0  0  0  0  0  0  0  0  0
   55.5391   29.7990   53.8818 H   0  0  0  0  0  0  0  0  0  0  0  0
   54.6052   30.7991   50.4536 H   0  0  0  0  0  0  0  0  0  0  0  0
   52.5727   32.1519   49.9357 H   0  0  0  0  0  0  0  0  0  0  0  0
   51.1618   31.5964   53.9877 H   0  0  0  0  0  0  0  0  0  0  0  0
   53.1914   30.2411   54.5123 H   0  0  0  0  0  0  0  0  0  0  0  0
   61.6522   34.4626   49.5434 H   0  0  0  0  0  0  0  0  0  0  0  0
   63.6165   33.8376   48.1453 H   0  0  0  0  0  0  0  0  0  0  0  0
   63.7582   31.5669   47.1288 H   0  0  0  0  0  0  0  0  0  0  0  0
   61.9388   29.9100   47.5019 H   0  0  0  0  0  0  0  0  0  0  0  0
   57.4276   29.9591   47.3086 H   0  0  0  0  0  0  0  0  0  0  0  0
  1  2  1  0
  2  3  1  0
  3  4  2  0
  4  5  1  0
  5  6  2  0
  6  7  1  0
  7  8  1  0
  8  9  1  0
  9 10  2  0
 10 11  1  0
 11 12  1  0
 12 13  1  0
 13 14  2  0
 13 15  1  0
 15 16  1  0
 16 17  1  0
 17 18  2  0
 18 19  1  0
 19 20  2  0
 20 21  1  0
 20 22  1  0
 22 23  2  0
 11 24  1  0
 24 25  2  0
 24 26  1  0
 26 27  2  0
 27 28  1  0
 28 29  2  0
 29 30  1  0
 30 31  2  0
  7 32  2  0
 32  3  1  0
 31  9  1  0
 23 17  1  0
 31 26  1  0
  1 33  1  0
  1 34  1  0
  1 35  1  0
  4 36  1  0
  5 37  1  0
  6 38  1  0
  8 39  1  0
  8 40  1  0
 12 41  1  0
 12 42  1  0
 16 43  1  0
 16 44  1  0
 18 45  1  0
 19 46  1  0
 22 47  1  0
 23 48  1  0
 27 49  1  0
 28 50  1  0
 29 51  1  0
 30 52  1  0
 32 53  1  0
M  CHG  2  15  -1  21  -1
M  END
>  <UniqueID>  (18) 
18

>  <SMILES>  (18) 
COc1cccc(Cc2nn(CC(=O)[N-]Cc3ccc([O-])cc3)c(=O)c3ccccc23)c1

>  <Energy>  (18) 
61.090068529620076

>  <Genealogy>  (18) 
COc1cccc(Cc2nn(CC(=O)[N-]Cc3ccc([O-])cc3)c(=O)c3ccccc23)c1 (protonated)
COc1cccc(Cc2nn(CC(=O)[N-]Cc3ccc([O-])cc3)c(=O)c3ccccc23)c1 (3D coordinates assigned)
COc1cccc(Cc2nn(CC(=O)[N-]Cc3ccc([O-])cc3)c(=O)c3ccccc23)c1 (optimized conformer: 61.090068529620076 kcal/mol)

>  <smiles>  (18) 
COc1cccc(Cc2nn(CC(=O)NCc3ccc(O)cc3)c(=O)c3ccccc23)c1

>  <score_type>  (18) 
oracle

>  <origin>  (18) 
adg

>  <m_score__min__energy>  (18) 
-14.76

>  <m_primary>  (18) 
energy

$$$$
18:0
     RDKit          3D

 37 38  0  0  0  0  0  0  0  0999 V2000
   57.0550   32.5550   45.1400 C   0  0  0  0  0  0  0  0  0  0  0  0
   57.9670   31.3960   45.4200 C   0  0  0  0  0  0  0  0  0  0  0  0
   59.1210   31.6390   46.0960 N   0  0  0  0  0  0  0  0  0  0  0  0
   59.9870   30.6430   46.4040 C   0  0  0  0  0  0  0  0  0  0  0  0
   61.0440   30.9010   47.0340 O   0  0  0  0  0  0  0  0  0  0  0  0
   59.7140   29.3690   46.0320 N   0  0  0  0  0  0  0  0  0  0  0  0
   58.5850   29.0590   45.3460 C   0  0  0  0  0  0  0  0  0  0  0  0
   58.3460   27.3430   44.8520 S   0  0  0  0  0  0  0  0  0  0  0  0
   58.9780   26.6400   46.4130 C   0  0  0  0  0  0  0  0  0  0  0  0
   60.0560   25.6400   46.1440 C   0  0  0  0  0  0  0  0  0  0  0  0
   61.2590   26.0140   46.1210 O   0  0  0  0  0  0  0  0  0  0  0  0
   59.7120   24.2560   46.0010 N   0  0  0  0  0  0  0  0  0  0  0  0
   58.5170   23.7290   45.4070 C   0  0  0  0  0  0  0  0  0  0  0  0
   58.5530   22.7180   44.4290 C   0  0  0  0  0  0  0  0  0  0  0  0
   57.3650   22.2520   43.8590 C   0  0  0  0  0  0  0  0  0  0  0  0
   56.1370   22.7930   44.2490 C   0  0  0  0  0  0  0  0  0  0  0  0
   56.0920   23.8090   45.2100 C   0  0  0  0  0  0  0  0  0  0  0  0
   54.5460   24.5090   45.6800 S   0  0  0  0  0  0  0  0  0  0  0  0
   54.7420   26.1970   45.9980 N   0  0  0  0  0  0  0  0  0  0  0  0
   53.5490   24.3400   44.5670 O   0  0  0  0  0  0  0  0  0  0  0  0
   54.0390   23.8190   46.9140 O   0  0  0  0  0  0  0  0  0  0  0  0
   57.2840   24.2840   45.7750 C   0  0  0  0  0  0  0  0  0  0  0  0
   57.6610   30.0740   45.0120 C   0  0  0  0  0  0  0  0  0  0  0  0
   56.4210   29.7620   44.2640 C   0  0  0  0  0  0  0  0  0  0  0  0
   55.3830   29.0010   44.8750 N   0  0  0  0  0  0  0  0  0  0  0  0
   56.2720   30.1750   43.0840 O   0  0  0  0  0  0  0  0  0  0  0  0
   56.7126   32.9901   46.0905 H   0  0  0  0  0  0  0  0  0  0  0  0
   57.5979   33.3175   44.5622 H   0  0  0  0  0  0  0  0  0  0  0  0
   56.1862   32.2067   44.5622 H   0  0  0  0  0  0  0  0  0  0  0  0
   59.3846   27.4506   47.0355 H   0  0  0  0  0  0  0  0  0  0  0  0
   58.1507   26.1365   46.9346 H   0  0  0  0  0  0  0  0  0  0  0  0
   59.5174   22.2939   44.1127 H   0  0  0  0  0  0  0  0  0  0  0  0
   57.3968   21.4561   43.1003 H   0  0  0  0  0  0  0  0  0  0  0  0
   55.2048   22.4197   43.8000 H   0  0  0  0  0  0  0  0  0  0  0  0
   54.7740   26.6800   45.0730 H   0  0  0  0  0  0  0  0  0  0  0  0
   57.2511   25.0989   46.5131 H   0  0  0  0  0  0  0  0  0  0  0  0
   55.5110   27.9850   45.0790 H   0  0  0  0  0  0  0  0  0  0  0  0
  1  2  1  0
  2  3  2  0
  3  4  1  0
  4  5  2  0
  4  6  1  0
  6  7  1  0
  7  8  1  0
  8  9  1  0
  9 10  1  0
 10 11  2  0
 10 12  1  0
 12 13  1  0
 13 14  2  0
 14 15  1  0
 15 16  2  0
 16 17  1  0
 17 18  1  0
 18 19  1  0
 18 20  2  0
 18 21  2  0
 17 22  2  0
  7 23  2  0
 23 24  1  0
 24 25  1  0
 24 26  2  0
 23  2  1  0
 22 13  1  0
  1 27  1  0
  1 28  1  0
  1 29  1  0
  9 30  1  0
  9 31  1  0
 14 32  1  0
 15 33  1  0
 16 34  1  0
 19 35  1  0
 22 36  1  0
 25 37  1  0
M  CHG  4   6  -1  12  -1  19  -1  25  -1
M  END
>  <UniqueID>  (19) 
19

>  <SMILES>  (19) 
Cc1nc(=O)[n-]c(SCC(=O)[N-]c2cccc(S([NH-])(=O)=O)c2)c1C([NH-])=O

>  <Energy>  (19) 
42.645534256672065

>  <Genealogy>  (19) 
Cc1nc(=O)[n-]c(SCC(=O)[N-]c2cccc(S([NH-])(=O)=O)c2)c1C([NH-])=O (protonated)
Cc1nc(=O)[n-]c(SCC(=O)[N-]c2cccc(S([NH-])(=O)=O)c2)c1C([NH-])=O (3D coordinates assigned)
Cc1nc(=O)[n-]c(SCC(=O)[N-]c2cccc(S([NH-])(=O)=O)c2)c1C([NH-])=O (optimized conformer: 42.645534256672065 kcal/mol)

>  <smiles>  (19) 
Cc1nc(=O)[nH]c(SCC(=O)Nc2cccc(S(N)(=O)=O)c2)c1C(N)=O

>  <score_type>  (19) 
oracle

>  <origin>  (19) 
adg

>  <m_score__min__energy>  (19) 
-16.109999999999999

>  <m_primary>  (19) 
energy

$$$$
19:0
     RDKit          3D

 35 38  0  0  0  0  0  0  0  0999 V2000
   59.7100   22.6350   44.9500 C   0  0  0  0  0  0  0  0  0  0  0  0
   59.2520   23.9070   45.4990 N   0  0  0  0  0  0  0  0  0  0  0  0
   60.0350   24.8880   46.0040 C   0  0  0  0  0  0  0  0  0  0  0  0
   59.2550   25.9740   46.3980 C   0  0  0  0  0  0  0  0  0  0  0  0
   59.7420   27.2590   46.9400 C   0  0  0  0  0  0  0  0  0  0  0  0
   60.4880   27.2560   47.9560 O   0  0  0  0  0  0  0  0  0  0  0  0
   59.3630   28.5510   46.3370 C   0  0  0  0  0  0  0  0  0  0  0  0
   58.7600   28.6960   45.0860 C   0  0  0  0  0  0  0  0  0  0  0  0
   58.5500   30.0500   44.9520 C   0  0  0  0  0  0  0  0  0  0  0  0
   57.9810   30.7920   43.9220 C   0  0  0  0  0  0  0  0  0  0  0  0
   57.8900   32.1480   44.0770 N   0  0  0  0  0  0  0  0  0  0  0  0
   58.3410   32.7770   45.2100 C   0  0  0  0  0  0  0  0  0  0  0  0
   58.9150   32.0360   46.2580 C   0  0  0  0  0  0  0  0  0  0  0  0
   59.0050   30.6580   46.0860 C   0  0  0  0  0  0  0  0  0  0  0  0
   59.5030   29.7550   46.9480 N   0  0  0  0  0  0  0  0  0  0  0  0
   57.9480   25.6250   46.0920 C   0  0  0  0  0  0  0  0  0  0  0  0
   56.7450   26.3160   46.2550 C   0  0  0  0  0  0  0  0  0  0  0  0
   55.5590   25.6840   45.8390 C   0  0  0  0  0  0  0  0  0  0  0  0
   54.3420   26.3380   45.9830 O   0  0  0  0  0  0  0  0  0  0  0  0
   55.5990   24.3910   45.2740 C   0  0  0  0  0  0  0  0  0  0  0  0
   56.8230   23.7150   45.1240 C   0  0  0  0  0  0  0  0  0  0  0  0
   57.9860   24.3630   45.5510 C   0  0  0  0  0  0  0  0  0  0  0  0
   59.9573   21.9482   45.7729 H   0  0  0  0  0  0  0  0  0  0  0  0
   58.9140   22.1947   44.3316 H   0  0  0  0  0  0  0  0  0  0  0  0
   60.6040   22.8032   44.3316 H   0  0  0  0  0  0  0  0  0  0  0  0
   61.1303   24.8360   46.0912 H   0  0  0  0  0  0  0  0  0  0  0  0
   58.5083   27.9032   44.3662 H   0  0  0  0  0  0  0  0  0  0  0  0
   57.6144   30.3018   43.0081 H   0  0  0  0  0  0  0  0  0  0  0  0
   57.4660   32.7190   43.3130 H   0  0  0  0  0  0  0  0  0  0  0  0
   58.2528   33.8698   45.2991 H   0  0  0  0  0  0  0  0  0  0  0  0
   59.2774   32.5245   47.1745 H   0  0  0  0  0  0  0  0  0  0  0  0
   59.8770   29.9480   47.9030 H   0  0  0  0  0  0  0  0  0  0  0  0
   56.7256   27.3238   46.6953 H   0  0  0  0  0  0  0  0  0  0  0  0
   54.6656   23.9085   44.9485 H   0  0  0  0  0  0  0  0  0  0  0  0
   56.8641   22.7075   44.6843 H   0  0  0  0  0  0  0  0  0  0  0  0
  1  2  1  0
  2  3  1  0
  3  4  2  0
  4  5  1  0
  5  6  2  0
  5  7  1  0
  7  8  2  0
  8  9  1  0
  9 10  2  0
 10 11  1  0
 11 12  2  0
 12 13  1  0
 13 14  2  0
 14 15  1  0
  4 16  1  0
 16 17  2  0
 17 18  1  0
 18 19  1  0
 18 20  2  0
 20 21  1  0
 21 22  2  0
 22  2  1  0
 15  7  1  0
 22 16  1  0
 14  9  1  0
  1 23  1  0
  1 24  1  0
  1 25  1  0
  3 26  1  0
  8 27  1  0
 10 28  1  0
 11 29  1  0
 12 30  1  0
 13 31  1  0
 15 32  1  0
 17 33  1  0
 20 34  1  0
 21 35  1  0
M  CHG  2  11   1  19  -1
M  END
>  <UniqueID>  (20) 
20

>  <SMILES>  (20) 
Cn1cc(C(=O)c2cc3c[nH+]ccc3[nH]2)c2cc([O-])ccc21

>  <Energy>  (20) 
109.30658266231106

>  <Genealogy>  (20) 
Cn1cc(C(=O)c2cc3c[nH+]ccc3[nH]2)c2cc([O-])ccc21 (protonated)
Cn1cc(C(=O)c2cc3c[nH+]ccc3[nH]2)c2cc([O-])ccc21 (3D coordinates assigned)
Cn1cc(C(=O)c2cc3c[nH+]ccc3[nH]2)c2cc([O-])ccc21 (optimized conformer: 109.30658266231106 kcal/mol)

>  <smiles>  (20) 
Cn1cc(C(=O)c2cc3cnccc3[nH]2)c2cc(O)ccc21

>  <score_type>  (20) 
oracle

>  <origin>  (20) 
adg

>  <m_score__min__energy>  (20) 
-9.5600000000000005

>  <m_primary>  (20) 
energy

$$$$
20:0
     RDKit          3D

 55 58  0  0  0  0  0  0  0  0999 V2000
   51.3180   30.8530   48.1170 H   0  0  0  0  0  0  0  0  0  0  0  0
   51.4510   30.1260   48.8120 O   0  0  0  0  0  0  0  0  0  0  0  0
   51.6990   30.4330   50.1490 C   0  0  0  0  0  0  0  0  0  0  0  0
   52.1720   29.4490   51.0300 C   0  0  0  0  0  0  0  0  0  0  0  0
   52.3622   28.4301   50.6616 H   0  0  0  0  0  0  0  0  0  0  0  0
   52.4040   29.7590   52.3810 C   0  0  0  0  0  0  0  0  0  0  0  0
   52.9450   28.7490   53.3140 C   0  0  0  0  0  0  0  0  0  0  0  0
   52.2439   27.9960   53.7031 H   0  0  0  0  0  0  0  0  0  0  0  0
   54.2210   28.6730   53.7270 C   0  0  0  0  0  0  0  0  0  0  0  0
   54.8028   27.7942   53.4120 H   0  0  0  0  0  0  0  0  0  0  0  0
   54.9100   29.6800   54.5750 C   0  0  0  0  0  0  0  0  0  0  0  0
   54.5470   29.8520   55.7710 O   0  0  0  0  0  0  0  0  0  0  0  0
   56.0120   30.5200   54.0430 C   0  0  0  0  0  0  0  0  0  0  0  0
   55.9990   31.0130   52.7250 C   0  0  0  0  0  0  0  0  0  0  0  0
   55.1587   30.7671   52.0591 H   0  0  0  0  0  0  0  0  0  0  0  0
   57.0440   31.8120   52.2550 C   0  0  0  0  0  0  0  0  0  0  0  0
   57.0221   32.1885   51.2217 H   0  0  0  0  0  0  0  0  0  0  0  0
   58.1240   32.1380   53.0950 C   0  0  0  0  0  0  0  0  0  0  0  0
   59.2010   32.9360   52.6730 O   0  0  0  0  0  0  0  0  0  0  0  0
   59.1480   33.9000   51.6210 C   0  0  0  0  0  0  0  0  0  0  0  0
   58.1476   34.3570   51.6019 H   0  0  0  0  0  0  0  0  0  0  0  0
   59.9172   34.6641   51.8067 H   0  0  0  0  0  0  0  0  0  0  0  0
   59.4200   33.2620   50.2950 C   0  0  0  0  0  0  0  0  0  0  0  0
   59.4580   31.9330   50.0810 N   0  0  0  0  0  0  0  0  0  0  0  0
   59.6620   31.7640   48.7800 N   0  0  0  0  0  0  0  0  0  0  0  0
   59.7550   32.9350   48.1690 N   0  0  0  0  0  0  0  0  0  0  0  0
   59.9300   33.0880   46.7200 C   0  0  0  0  0  0  0  0  0  0  0  0
   60.9482   32.7727   46.4481 H   0  0  0  0  0  0  0  0  0  0  0  0
   58.9660   32.1540   45.9550 C   0  0  0  0  0  0  0  0  0  0  0  0
   59.3689   31.9852   44.9455 H   0  0  0  0  0  0  0  0  0  0  0  0
   58.8900   31.2184   46.5285 H   0  0  0  0  0  0  0  0  0  0  0  0
   57.5470   32.7310   45.8260 C   0  0  0  0  0  0  0  0  0  0  0  0
   56.9943   32.1296   45.0892 H   0  0  0  0  0  0  0  0  0  0  0  0
   57.0945   32.6923   46.8279 H   0  0  0  0  0  0  0  0  0  0  0  0
   57.5100   34.2090   45.3740 C   0  0  0  0  0  0  0  0  0  0  0  0
   56.9095   34.2775   44.4549 H   0  0  0  0  0  0  0  0  0  0  0  0
   57.0743   34.7901   46.2001 H   0  0  0  0  0  0  0  0  0  0  0  0
   58.8980   34.7950   45.0920 C   0  0  0  0  0  0  0  0  0  0  0  0
   59.3260   34.3005   44.2075 H   0  0  0  0  0  0  0  0  0  0  0  0
   58.7964   35.8755   44.9128 H   0  0  0  0  0  0  0  0  0  0  0  0
   59.8300   34.5790   46.2900 C   0  0  0  0  0  0  0  0  0  0  0  0
   60.8355   34.9344   46.0206 H   0  0  0  0  0  0  0  0  0  0  0  0
   59.4106   35.1391   47.1387 H   0  0  0  0  0  0  0  0  0  0  0  0
   59.5860   33.9040   49.0900 C   0  0  0  0  0  0  0  0  0  0  0  0
   59.5817   34.9898   48.9136 H   0  0  0  0  0  0  0  0  0  0  0  0
   58.1340   31.6560   54.4080 C   0  0  0  0  0  0  0  0  0  0  0  0
   58.9727   31.9065   55.0742 H   0  0  0  0  0  0  0  0  0  0  0  0
   57.0880   30.8590   54.8810 C   0  0  0  0  0  0  0  0  0  0  0  0
   57.1071   30.4938   55.9184 H   0  0  0  0  0  0  0  0  0  0  0  0
   52.2110   31.0730   52.8280 C   0  0  0  0  0  0  0  0  0  0  0  0
   52.4319   31.3337   53.8736 H   0  0  0  0  0  0  0  0  0  0  0  0
   51.7390   32.0540   51.9510 C   0  0  0  0  0  0  0  0  0  0  0  0
   51.5725   33.0793   52.3129 H   0  0  0  0  0  0  0  0  0  0  0  0
   51.4780   31.7350   50.6150 C   0  0  0  0  0  0  0  0  0  0  0  0
   51.0060   32.7160   49.7510 O   0  0  0  0  0  0  0  0  0  0  0  0
  1  2  1  0
  2  3  1  0
  3  4  2  0
  4  5  1  0
  4  6  1  0
  6  7  1  0
  7  8  1  0
  7  9  2  0
  9 10  1  0
  9 11  1  0
 11 12  2  0
 11 13  1  0
 13 14  2  0
 14 15  1  0
 14 16  1  0
 16 17  1  0
 16 18  2  0
 18 19  1  0
 19 20  1  0
 20 21  1  0
 20 22  1  0
 20 23  1  0
 23 24  1  0
 24 25  2  0
 25 26  1  0
 26 27  1  0
 27 28  1  0
 27 29  1  0
 29 30  1  0
 29 31  1  0
 29 32  1  0
 32 33  1  0
 32 34  1  0
 32 35  1  0
 35 36  1  0
 35 37  1  0
 35 38  1  0
 38 39  1  0
 38 40  1  0
 38 41  1  0
 41 42  1  0
 41 43  1  0
 26 44  1  0
 44 45  1  0
 18 46  1  0
 46 47  1  0
 46 48  2  0
 48 49  1  0
  6 50  2  0
 50 51  1  0
 50 52  1  0
 52 53  1  0
 52 54  2  0
 54 55  1  0
 54  3  1  0
 48 13  1  0
 44 23  2  0
 41 27  1  0
M  CHG  1  55  -1
M  END
>  <UniqueID>  (21) 
21

>  <SMILES>  (21) 
O=C(/C=C\c1ccc([O-])c(O)c1)c1ccc(OCc2cn(C3CCCCC3)nn2)cc1

>  <Energy>  (21) 
107.08118660076327

>  <Genealogy>  (21) 
O=C(C=Cc1ccc([O-])c(O)c1)c1ccc(OCc2cn(C3CCCCC3)nn2)cc1 (protonated)
O=C(/C=C\c1ccc([O-])c(O)c1)c1ccc(OCc2cn(C3CCCCC3)nn2)cc1 (cis-trans isomerization)
O=C(/C=C\c1ccc([O-])c(O)c1)c1ccc(OCc2cn(C3CCCCC3)nn2)cc1 (3D coordinates assigned)
O=C(/C=C\c1ccc([O-])c(O)c1)c1ccc(OCc2cn(C3CCCCC3)nn2)cc1 (nonaromatic ring conformer: 107.08118660076327 kcal/mol)

>  <smiles>  (21) 
O=C(C=Cc1ccc(O)c(O)c1)c1ccc(OCc2cn(C3CCCCC3)nn2)cc1

>  <score_type>  (21) 
oracle

>  <origin>  (21) 
adg

>  <m_score__min__energy>  (21) 
-13.529999999999999

>  <m_primary>  (21) 
energy

$$$$
21:0
     RDKit          3D

 59 63  0  0  0  0  0  0  0  0999 V2000
   57.6150   23.2820   47.6840 O   0  0  0  0  0  0  0  0  0  0  0  0
   56.8390   24.1610   47.2230 C   0  0  0  0  0  0  0  0  0  0  0  0
   55.4350   24.0530   47.5110 N   0  0  0  0  0  0  0  0  0  0  0  0
   54.5110   23.4550   46.8080 C   0  0  0  0  0  0  0  0  0  0  0  0
   53.9500   24.1440   45.7250 C   0  0  0  0  0  0  0  0  0  0  0  0
   52.9450   23.5420   44.9640 C   0  0  0  0  0  0  0  0  0  0  0  0
   52.5190   22.2890   45.2650 N   0  0  0  0  0  0  0  0  0  0  0  0
   53.0560   21.5840   46.2950 C   0  0  0  0  0  0  0  0  0  0  0  0
   54.0660   22.1450   47.0800 C   0  0  0  0  0  0  0  0  0  0  0  0
   57.3990   25.2300   46.3520 C   0  0  0  0  0  0  0  0  0  0  0  0
   57.7950   26.4340   46.9560 C   0  0  0  0  0  0  0  0  0  0  0  0
   58.2680   27.5130   46.1940 C   0  0  0  0  0  0  0  0  0  0  0  0
   58.6540   28.7290   46.8680 N   0  0  0  0  0  0  0  0  0  0  0  0
   59.4230   28.7950   48.1110 C   0  0  0  0  0  0  0  0  0  0  0  0
   59.1860   30.0940   48.8500 C   0  0  0  0  0  0  0  0  0  0  0  0
   58.5530   30.0530   50.1070 C   0  0  0  0  0  0  0  0  0  0  0  0
   58.4280   31.2080   50.8800 C   0  0  0  0  0  0  0  0  0  0  0  0
   58.9590   32.4130   50.4280 C   0  0  0  0  0  0  0  0  0  0  0  0
   59.6080   32.4700   49.1950 C   0  0  0  0  0  0  0  0  0  0  0  0
   59.7040   31.3290   48.3850 C   0  0  0  0  0  0  0  0  0  0  0  0
   60.5580   31.4680   46.8000 S   0  0  0  0  0  0  0  0  0  0  0  0
   59.3140   32.5350   46.0580 C   0  0  0  0  0  0  0  0  0  0  0  0
   58.0220   32.0400   45.8360 C   0  0  0  0  0  0  0  0  0  0  0  0
   57.0510   32.8520   45.2420 C   0  0  0  0  0  0  0  0  0  0  0  0
   57.3670   34.1650   44.8750 C   0  0  0  0  0  0  0  0  0  0  0  0
   58.6490   34.6700   45.1150 C   0  0  0  0  0  0  0  0  0  0  0  0
   59.6180   33.8570   45.7090 C   0  0  0  0  0  0  0  0  0  0  0  0
   58.3380   27.3780   44.7990 C   0  0  0  0  0  0  0  0  0  0  0  0
   57.9660   26.1820   44.1840 C   0  0  0  0  0  0  0  0  0  0  0  0
   57.5090   25.0930   44.9440 C   0  0  0  0  0  0  0  0  0  0  0  0
   57.1920   23.8280   44.2430 C   0  0  0  0  0  0  0  0  0  0  0  0
   56.1580   23.7740   43.2980 C   0  0  0  0  0  0  0  0  0  0  0  0
   55.8960   22.5740   42.6320 C   0  0  0  0  0  0  0  0  0  0  0  0
   56.6350   21.4670   42.9050 N   0  0  0  0  0  0  0  0  0  0  0  0
   57.6340   21.4870   43.8270 C   0  0  0  0  0  0  0  0  0  0  0  0
   57.9260   22.6630   44.5190 C   0  0  0  0  0  0  0  0  0  0  0  0
   54.2999   25.1563   45.4745 H   0  0  0  0  0  0  0  0  0  0  0  0
   52.4976   24.0850   44.1184 H   0  0  0  0  0  0  0  0  0  0  0  0
   52.6941   20.5680   46.5114 H   0  0  0  0  0  0  0  0  0  0  0  0
   54.5111   21.5689   47.9046 H   0  0  0  0  0  0  0  0  0  0  0  0
   57.7331   26.5335   48.0497 H   0  0  0  0  0  0  0  0  0  0  0  0
   58.4450   29.6390   46.3970 H   0  0  0  0  0  0  0  0  0  0  0  0
   59.1252   27.9573   48.7588 H   0  0  0  0  0  0  0  0  0  0  0  0
   60.4914   28.7369   47.8556 H   0  0  0  0  0  0  0  0  0  0  0  0
   58.1527   29.1002   50.4837 H   0  0  0  0  0  0  0  0  0  0  0  0
   57.9087   31.1663   51.8488 H   0  0  0  0  0  0  0  0  0  0  0  0
   58.8666   33.3200   51.0434 H   0  0  0  0  0  0  0  0  0  0  0  0
   60.0487   33.4186   48.8545 H   0  0  0  0  0  0  0  0  0  0  0  0
   57.7711   31.0101   46.1298 H   0  0  0  0  0  0  0  0  0  0  0  0
   56.0393   32.4590   45.0633 H   0  0  0  0  0  0  0  0  0  0  0  0
   56.6065   34.8003   44.3974 H   0  0  0  0  0  0  0  0  0  0  0  0
   58.8941   35.7056   44.8366 H   0  0  0  0  0  0  0  0  0  0  0  0
   60.6241   34.2571   45.9034 H   0  0  0  0  0  0  0  0  0  0  0  0
   58.6887   28.2212   44.1858 H   0  0  0  0  0  0  0  0  0  0  0  0
   58.0315   26.0909   43.0897 H   0  0  0  0  0  0  0  0  0  0  0  0
   55.5572   24.6699   43.0824 H   0  0  0  0  0  0  0  0  0  0  0  0
   55.0898   22.5254   41.8852 H   0  0  0  0  0  0  0  0  0  0  0  0
   58.2135   20.5739   44.0279 H   0  0  0  0  0  0  0  0  0  0  0  0
   58.7250   22.6774   45.2749 H   0  0  0  0  0  0  0  0  0  0  0  0
  1  2  2  0
  2  3  1  0
  3  4  2  3
  4  5  1  0
  5  6  2  0
  6  7  1  0
  7  8  1  0
  8  9  2  0
  2 10  1  0
 10 11  2  0
 11 12  1  0
 12 13  1  0
 13 14  1  0
 14 15  1  0
 15 16  2  0
 16 17  1  0
 17 18  2  0
 18 19  1  0
 19 20  2  0
 20 21  1  0
 21 22  1  0
 22 23  2  0
 23 24  1  0
 24 25  2  0
 25 26  1  0
 26 27  2  0
 12 28  2  0
 28 29  1  0
 29 30  2  0
 30 31  1  0
 31 32  2  0
 32 33  1  0
 33 34  2  0
 34 35  1  0
 35 36  2  0
  9  4  1  0
 30 10  1  0
 36 31  1  0
 20 15  1  0
 27 22  1  0
  5 37  1  0
  6 38  1  0
  8 39  1  0
  9 40  1  0
 11 41  1  0
 13 42  1  0
 14 43  1  0
 14 44  1  0
 16 45  1  0
 17 46  1  0
 18 47  1  0
 19 48  1  0
 23 49  1  0
 24 50  1  0
 25 51  1  0
 26 52  1  0
 27 53  1  0
 28 54  1  0
 29 55  1  0
 32 56  1  0
 33 57  1  0
 35 58  1  0
 36 59  1  0
M  CHG  1   7  -1
M  END
>  <UniqueID>  (22) 
22

>  <SMILES>  (22) 
O=C(N=c1cc[n-]cc1)c1cc(NCc2ccccc2Sc2ccccc2)ccc1-c1ccncc1

>  <Energy>  (22) 
83.35297716466197

>  <Genealogy>  (22) 
O=C(N=c1cc[n-]cc1)c1cc(NCc2ccccc2Sc2ccccc2)ccc1-c1ccncc1 (protonated)
O=C(N=c1cc[n-]cc1)c1cc(NCc2ccccc2Sc2ccccc2)ccc1-c1ccncc1 (3D coordinates assigned)
O=C(N=c1cc[n-]cc1)c1cc(NCc2ccccc2Sc2ccccc2)ccc1-c1ccncc1 (optimized conformer: 83.35297716466197 kcal/mol)

>  <smiles>  (22) 
O=C(N=c1cc[nH]cc1)c1cc(NCc2ccccc2Sc2ccccc2)ccc1-c1ccncc1

>  <score_type>  (22) 
oracle

>  <origin>  (22) 
adg

>  <m_score__min__energy>  (22) 
-12.33

>  <m_primary>  (22) 
energy

$$$$
22:0
     RDKit          3D

 35 36  0  0  0  0  0  0  0  0999 V2000
   63.8560   31.2440   49.7950 N   0  0  0  0  0  0  0  0  0  0  0  0
   63.1030   31.8600   49.1670 C   0  0  0  0  0  0  0  0  0  0  0  0
   62.1630   32.6280   48.3850 C   0  0  0  0  0  0  0  0  0  0  0  0
   60.8190   32.6530   48.7780 C   0  0  0  0  0  0  0  0  0  0  0  0
   59.9100   33.3710   48.0660 N   0  0  0  0  0  0  0  0  0  0  0  0
   60.2630   34.0800   46.9630 C   0  0  0  0  0  0  0  0  0  0  0  0
   59.0240   35.0190   46.0710 S   0  0  0  0  0  0  0  0  0  0  0  0
   59.2680   34.1430   44.4850 C   0  0  0  0  0  0  0  0  0  0  0  0
   58.5320   32.8370   44.4620 C   0  0  0  0  0  0  0  0  0  0  0  0
   58.0280   32.4330   43.3800 O   0  0  0  0  0  0  0  0  0  0  0  0
   58.3580   32.0870   45.6750 N   0  0  0  0  0  0  0  0  0  0  0  0
   57.9610   30.7050   45.7220 C   0  0  0  0  0  0  0  0  0  0  0  0
   56.9700   30.1920   44.8640 C   0  0  0  0  0  0  0  0  0  0  0  0
   56.6280   28.8380   44.9100 C   0  0  0  0  0  0  0  0  0  0  0  0
   57.2800   27.9740   45.7980 C   0  0  0  0  0  0  0  0  0  0  0  0
   56.8410   26.2710   45.8660 S   0  0  0  0  0  0  0  0  0  0  0  0
   55.1410   26.1240   46.1380 N   0  0  0  0  0  0  0  0  0  0  0  0
   57.1990   25.5980   44.5700 O   0  0  0  0  0  0  0  0  0  0  0  0
   57.5900   25.5960   46.9820 O   0  0  0  0  0  0  0  0  0  0  0  0
   58.2760   28.4780   46.6450 C   0  0  0  0  0  0  0  0  0  0  0  0
   58.6200   29.8310   46.6000 C   0  0  0  0  0  0  0  0  0  0  0  0
   61.5900   34.0730   46.5240 C   0  0  0  0  0  0  0  0  0  0  0  0
   62.5550   33.3520   47.2350 C   0  0  0  0  0  0  0  0  0  0  0  0
   63.7850   33.3710   46.8180 N   0  0  0  0  0  0  0  0  0  0  0  0
   60.4975   32.0895   49.6663 H   0  0  0  0  0  0  0  0  0  0  0  0
   58.8979   34.7767   43.6656 H   0  0  0  0  0  0  0  0  0  0  0  0
   60.3419   33.9371   44.3651 H   0  0  0  0  0  0  0  0  0  0  0  0
   58.4900   32.5930   46.5810 H   0  0  0  0  0  0  0  0  0  0  0  0
   56.4621   30.8607   44.1534 H   0  0  0  0  0  0  0  0  0  0  0  0
   55.8426   28.4490   44.2453 H   0  0  0  0  0  0  0  0  0  0  0  0
   54.7900   27.0740   46.3950 H   0  0  0  0  0  0  0  0  0  0  0  0
   58.7890   27.8054   47.3482 H   0  0  0  0  0  0  0  0  0  0  0  0
   59.4137   30.2144   47.2580 H   0  0  0  0  0  0  0  0  0  0  0  0
   61.8749   34.6333   45.6213 H   0  0  0  0  0  0  0  0  0  0  0  0
   64.5240   32.7180   47.1580 H   0  0  0  0  0  0  0  0  0  0  0  0
  1  2  3  0
  2  3  1  0
  3  4  2  0
  4  5  1  0
  5  6  1  0
  6  7  1  0
  7  8  1  0
  8  9  1  0
  9 10  2  0
  9 11  1  0
 11 12  1  0
 12 13  2  0
 13 14  1  0
 14 15  2  0
 15 16  1  0
 16 17  1  0
 16 18  2  0
 16 19  2  0
 15 20  1  0
 20 21  2  0
  6 22  2  0
 22 23  1  0
 23 24  2  3
 23  3  1  0
 21 12  1  0
  4 25  1  0
  8 26  1  0
  8 27  1  0
 11 28  1  0
 13 29  1  0
 14 30  1  0
 17 31  1  0
 20 32  1  0
 21 33  1  0
 22 34  1  0
 24 35  1  0
M  CHG  2   5  -1  17  -1
M  END
>  <UniqueID>  (23) 
23

>  <SMILES>  (23) 
N#Cc1c[n-]c(SCC(=O)Nc2ccc(S([NH-])(=O)=O)cc2)cc1=N

>  <Energy>  (23) 
34.77499338065534

>  <Genealogy>  (23) 
N#Cc1c[n-]c(SCC(=O)Nc2ccc(S([NH-])(=O)=O)cc2)cc1=N (protonated)
N#Cc1c[n-]c(SCC(=O)Nc2ccc(S([NH-])(=O)=O)cc2)cc1=N (3D coordinates assigned)
N#Cc1c[n-]c(SCC(=O)Nc2ccc(S([NH-])(=O)=O)cc2)cc1=N (optimized conformer: 34.77499338065534 kcal/mol)

>  <smiles>  (23) 
N#Cc1c[nH]c(SCC(=O)Nc2ccc(S(N)(=O)=O)cc2)cc1=N

>  <score_type>  (23) 
oracle

>  <origin>  (23) 
adg

>  <m_score__min__energy>  (23) 
-11.390000000000001

>  <m_primary>  (23) 
energy

$$$$
23:0
     RDKit          3D

 54 56  0  0  0  0  0  0  0  0999 V2000
   51.3350   23.9500   44.4000 C   0  0  0  0  0  0  0  0  0  0  0  0
   52.2870   22.9910   44.8470 O   0  0  0  0  0  0  0  0  0  0  0  0
   53.5720   23.3080   45.3110 C   0  0  0  0  0  0  0  0  0  0  0  0
   54.5140   22.3210   45.6550 C   0  0  0  0  0  0  0  0  0  0  0  0
   55.7770   22.6900   46.1230 C   0  0  0  0  0  0  0  0  0  0  0  0
   56.1130   24.0380   46.2420 C   0  0  0  0  0  0  0  0  0  0  0  0
   55.1930   25.0340   45.8760 C   0  0  0  0  0  0  0  0  0  0  0  0
   55.4930   26.4330   46.0090 N   0  0  0  0  0  0  0  0  0  0  0  0
   56.7700   27.0160   46.3040 C   0  0  0  0  0  0  0  0  0  0  0  0
   57.5270   26.4290   47.1190 O   0  0  0  0  0  0  0  0  0  0  0  0
   57.2140   28.2950   45.7010 C   0  0  0  0  0  0  0  0  0  0  0  0
   56.6370   28.7290   44.5080 C   0  0  0  0  0  0  0  0  0  0  0  0
   56.9810   29.9290   43.9870 N   0  0  0  0  0  0  0  0  0  0  0  0
   57.9080   30.7220   44.5790 C   0  0  0  0  0  0  0  0  0  0  0  0
   58.2190   32.3380   43.8380 S   0  0  0  0  0  0  0  0  0  0  0  0
   57.0150   33.2280   44.8850 C   0  0  0  0  0  0  0  0  0  0  0  0
   57.7180   33.9840   45.9700 C   0  0  0  0  0  0  0  0  0  0  0  0
   57.3670   33.8120   47.1680 O   0  0  0  0  0  0  0  0  0  0  0  0
   58.8000   34.8710   45.6490 N   0  0  0  0  0  0  0  0  0  0  0  0
   59.6680   35.4460   46.6730 C   0  0  0  0  0  0  0  0  0  0  0  0
   60.4250   34.3560   47.3720 C   0  0  0  0  0  0  0  0  0  0  0  0
   59.9350   33.7950   48.5580 C   0  0  0  0  0  0  0  0  0  0  0  0
   60.6920   32.8270   49.2210 C   0  0  0  0  0  0  0  0  0  0  0  0
   61.9280   32.4340   48.7020 C   0  0  0  0  0  0  0  0  0  0  0  0
   62.3910   33.0160   47.5160 C   0  0  0  0  0  0  0  0  0  0  0  0
   63.7380   32.6610   46.9750 C   0  0  0  0  0  0  0  0  0  0  0  0
   61.6370   33.9630   46.8910 N   0  0  0  0  0  0  0  0  0  0  0  0
   58.5600   30.2980   45.7110 N   0  0  0  0  0  0  0  0  0  0  0  0
   59.5930   31.1440   46.3330 C   0  0  0  0  0  0  0  0  0  0  0  0
   58.2040   29.1030   46.2900 C   0  0  0  0  0  0  0  0  0  0  0  0
   58.7700   28.7150   47.3500 O   0  0  0  0  0  0  0  0  0  0  0  0
   53.9200   24.6590   45.4330 C   0  0  0  0  0  0  0  0  0  0  0  0
   50.8603   24.4282   45.2695 H   0  0  0  0  0  0  0  0  0  0  0  0
   51.8419   24.7142   43.7925 H   0  0  0  0  0  0  0  0  0  0  0  0
   50.5671   23.4487   43.7925 H   0  0  0  0  0  0  0  0  0  0  0  0
   54.2551   21.2566   45.5551 H   0  0  0  0  0  0  0  0  0  0  0  0
   56.5082   21.9157   46.3983 H   0  0  0  0  0  0  0  0  0  0  0  0
   57.1042   24.3229   46.6247 H   0  0  0  0  0  0  0  0  0  0  0  0
   55.9018   28.0953   43.9904 H   0  0  0  0  0  0  0  0  0  0  0  0
   56.4467   33.9343   44.2620 H   0  0  0  0  0  0  0  0  0  0  0  0
   56.3358   32.4955   45.3457 H   0  0  0  0  0  0  0  0  0  0  0  0
   59.1140   34.9230   44.6520 H   0  0  0  0  0  0  0  0  0  0  0  0
   60.3797   36.1391   46.2006 H   0  0  0  0  0  0  0  0  0  0  0  0
   59.0527   35.9874   47.4068 H   0  0  0  0  0  0  0  0  0  0  0  0
   58.9633   34.1138   48.9632 H   0  0  0  0  0  0  0  0  0  0  0  0
   60.3157   32.3746   50.1504 H   0  0  0  0  0  0  0  0  0  0  0  0
   62.5317   31.6745   49.2203 H   0  0  0  0  0  0  0  0  0  0  0  0
   64.4316   32.4782   47.8090 H   0  0  0  0  0  0  0  0  0  0  0  0
   63.6581   31.7532   46.3589 H   0  0  0  0  0  0  0  0  0  0  0  0
   64.1159   33.4902   46.3589 H   0  0  0  0  0  0  0  0  0  0  0  0
   59.5113   31.0771   47.4279 H   0  0  0  0  0  0  0  0  0  0  0  0
   60.5886   30.7985   46.0178 H   0  0  0  0  0  0  0  0  0  0  0  0
   59.4505   32.1882   46.0178 H   0  0  0  0  0  0  0  0  0  0  0  0
   53.1834   25.4349   45.1774 H   0  0  0  0  0  0  0  0  0  0  0  0
  1  2  1  0
  2  3  1  0
  3  4  2  0
  4  5  1  0
  5  6  2  0
  6  7  1  0
  7  8  1  0
  8  9  1  0
  9 10  2  0
  9 11  1  0
 11 12  2  0
 12 13  1  0
 13 14  2  0
 14 15  1  0
 15 16  1  0
 16 17  1  0
 17 18  2  0
 17 19  1  0
 19 20  1  0
 20 21  1  0
 21 22  2  0
 22 23  1  0
 23 24  2  0
 24 25  1  0
 25 26  1  0
 25 27  2  0
 14 28  1  0
 28 29  1  0
 28 30  1  0
 30 31  2  0
  7 32  2  0
 32  3  1  0
 30 11  1  0
 27 21  1  0
  1 33  1  0
  1 34  1  0
  1 35  1  0
  4 36  1  0
  5 37  1  0
  6 38  1  0
 12 39  1  0
 16 40  1  0
 16 41  1  0
 19 42  1  0
 20 43  1  0
 20 44  1  0
 22 45  1  0
 23 46  1  0
 24 47  1  0
 26 48  1  0
 26 49  1  0
 26 50  1  0
 29 51  1  0
 29 52  1  0
 29 53  1  0
 32 54  1  0
M  CHG  1   8  -1
M  END
>  <UniqueID>  (24) 
24

>  <SMILES>  (24) 
COc1cccc([N-]C(=O)c2cnc(SCC(=O)NCc3cccc(C)n3)n(C)c2=O)c1

>  <Energy>  (24) 
55.23186451498884

>  <Genealogy>  (24) 
COc1cccc([N-]C(=O)c2cnc(SCC(=O)NCc3cccc(C)n3)n(C)c2=O)c1 (protonated)
COc1cccc([N-]C(=O)c2cnc(SCC(=O)NCc3cccc(C)n3)n(C)c2=O)c1 (3D coordinates assigned)
COc1cccc([N-]C(=O)c2cnc(SCC(=O)NCc3cccc(C)n3)n(C)c2=O)c1 (optimized conformer: 55.23186451498884 kcal/mol)

>  <smiles>  (24) 
COc1cccc(NC(=O)c2cnc(SCC(=O)NCc3cccc(C)n3)n(C)c2=O)c1

>  <score_type>  (24) 
oracle

>  <origin>  (24) 
adg

>  <m_score__min__energy>  (24) 
-10.029999999999999

>  <m_primary>  (24) 
energy

$$$$
24:0
     RDKit          3D

 63 68  0  0  0  0  0  0  0  0999 V2000
   66.0250   27.2480   52.0640 C   0  0  0  0  0  0  0  0  0  0  0  0
   65.2180   28.3970   52.3030 O   0  0  0  0  0  0  0  0  0  0  0  0
   65.3540   29.6170   51.6230 C   0  0  0  0  0  0  0  0  0  0  0  0
   66.6450   30.0940   51.3730 C   0  0  0  0  0  0  0  0  0  0  0  0
   66.8350   31.2980   50.6910 C   0  0  0  0  0  0  0  0  0  0  0  0
   65.7340   32.0420   50.2620 C   0  0  0  0  0  0  0  0  0  0  0  0
   64.4270   31.5930   50.5160 C   0  0  0  0  0  0  0  0  0  0  0  0
   63.2700   32.3950   50.0490 C   0  0  0  0  0  0  0  0  0  0  0  0
   63.2990   32.9790   48.8190 N   0  0  0  0  0  0  0  0  0  0  0  0
   62.2600   33.7240   48.3330 C   0  0  0  0  0  0  0  0  0  0  0  0
   62.3630   34.2260   47.1810 O   0  0  0  0  0  0  0  0  0  0  0  0
   61.1170   33.9150   49.0830 N   0  0  0  0  0  0  0  0  0  0  0  0
   59.9640   34.6090   48.4820 C   0  0  0  0  0  0  0  0  0  0  0  0
   59.2440   33.7420   47.4730 C   0  0  0  0  0  0  0  0  0  0  0  0
   59.2020   32.3440   47.6030 C   0  0  0  0  0  0  0  0  0  0  0  0
   58.5680   31.5590   46.6350 C   0  0  0  0  0  0  0  0  0  0  0  0
   57.9630   32.1550   45.5150 C   0  0  0  0  0  0  0  0  0  0  0  0
   57.2950   31.3210   44.4890 C   0  0  0  0  0  0  0  0  0  0  0  0
   57.6280   31.4210   43.2770 O   0  0  0  0  0  0  0  0  0  0  0  0
   56.2640   30.4030   44.8660 N   0  0  0  0  0  0  0  0  0  0  0  0
   56.3390   28.9740   44.5940 C   0  0  0  0  0  0  0  0  0  0  0  0
   57.5780   28.4090   45.2250 C   0  0  0  0  0  0  0  0  0  0  0  0
   58.8350   28.6210   44.6320 C   0  0  0  0  0  0  0  0  0  0  0  0
   59.9860   28.0620   45.2000 C   0  0  0  0  0  0  0  0  0  0  0  0
   59.8870   27.2820   46.3540 C   0  0  0  0  0  0  0  0  0  0  0  0
   61.0020   26.7400   46.9030 F   0  0  0  0  0  0  0  0  0  0  0  0
   58.6380   27.0540   46.9410 C   0  0  0  0  0  0  0  0  0  0  0  0
   57.4860   27.6100   46.3760 C   0  0  0  0  0  0  0  0  0  0  0  0
   58.0100   33.5530   45.3830 C   0  0  0  0  0  0  0  0  0  0  0  0
   58.6490   34.3370   46.3480 C   0  0  0  0  0  0  0  0  0  0  0  0
   61.1020   33.3910   50.3520 C   0  0  0  0  0  0  0  0  0  0  0  0
   62.1450   32.6290   50.8350 C   0  0  0  0  0  0  0  0  0  0  0  0
   61.9230   32.2330   52.0700 O   0  0  0  0  0  0  0  0  0  0  0  0
   60.7570   32.7260   52.4230 C   0  0  0  0  0  0  0  0  0  0  0  0
   60.1380   32.5750   53.6600 C   0  0  0  0  0  0  0  0  0  0  0  0
   58.9120   33.2270   53.8700 C   0  0  0  0  0  0  0  0  0  0  0  0
   58.3460   34.0230   52.8550 C   0  0  0  0  0  0  0  0  0  0  0  0
   58.9850   34.1640   51.6110 C   0  0  0  0  0  0  0  0  0  0  0  0
   60.1890   33.4720   51.4040 C   0  0  0  0  0  0  0  0  0  0  0  0
   64.2450   30.3670   51.1850 C   0  0  0  0  0  0  0  0  0  0  0  0
   66.3328   26.8098   53.0249 H   0  0  0  0  0  0  0  0  0  0  0  0
   65.4478   26.5072   51.4913 H   0  0  0  0  0  0  0  0  0  0  0  0
   66.9177   27.5396   51.4913 H   0  0  0  0  0  0  0  0  0  0  0  0
   67.5165   29.5170   51.7158 H   0  0  0  0  0  0  0  0  0  0  0  0
   67.8541   31.6609   50.4914 H   0  0  0  0  0  0  0  0  0  0  0  0
   65.8911   32.9868   49.7211 H   0  0  0  0  0  0  0  0  0  0  0  0
   59.2595   34.8844   49.2806 H   0  0  0  0  0  0  0  0  0  0  0  0
   60.3393   35.5003   47.9578 H   0  0  0  0  0  0  0  0  0  0  0  0
   59.6717   31.8628   48.4735 H   0  0  0  0  0  0  0  0  0  0  0  0
   58.5425   30.4654   46.7510 H   0  0  0  0  0  0  0  0  0  0  0  0
   55.4534   28.4740   45.0131 H   0  0  0  0  0  0  0  0  0  0  0  0
   56.3732   28.8089   43.5070 H   0  0  0  0  0  0  0  0  0  0  0  0
   58.9144   29.2284   43.7183 H   0  0  0  0  0  0  0  0  0  0  0  0
   60.9684   28.2372   44.7372 H   0  0  0  0  0  0  0  0  0  0  0  0
   58.5619   26.4366   47.8482 H   0  0  0  0  0  0  0  0  0  0  0  0
   56.5043   27.4208   46.8348 H   0  0  0  0  0  0  0  0  0  0  0  0
   57.5400   34.0347   44.5129 H   0  0  0  0  0  0  0  0  0  0  0  0
   58.6863   35.4295   46.2254 H   0  0  0  0  0  0  0  0  0  0  0  0
   60.5958   31.9625   54.4507 H   0  0  0  0  0  0  0  0  0  0  0  0
   58.3909   33.1155   54.8323 H   0  0  0  0  0  0  0  0  0  0  0  0
   57.3927   34.5404   53.0381 H   0  0  0  0  0  0  0  0  0  0  0  0
   58.5542   34.7983   50.8223 H   0  0  0  0  0  0  0  0  0  0  0  0
   63.2272   29.9916   51.3672 H   0  0  0  0  0  0  0  0  0  0  0  0
  1  2  1  0
  2  3  1  0
  3  4  2  0
  4  5  1  0
  5  6  2  0
  6  7  1  0
  7  8  1  0
  8  9  2  0
  9 10  1  0
 10 11  2  0
 10 12  1  0
 12 13  1  0
 13 14  1  0
 14 15  2  0
 15 16  1  0
 16 17  2  0
 17 18  1  0
 18 19  2  0
 18 20  1  0
 20 21  1  0
 21 22  1  0
 22 23  2  0
 23 24  1  0
 24 25  2  0
 25 26  1  0
 25 27  1  0
 27 28  2  0
 17 29  1  0
 29 30  2  0
 12 31  1  0
 31 32  2  0
 32 33  1  0
 33 34  1  0
 34 35  2  0
 35 36  1  0
 36 37  2  0
 37 38  1  0
 38 39  2  0
  7 40  2  0
 40  3  1  0
 32  8  1  0
 39 34  1  0
 30 14  1  0
 39 31  1  0
 28 22  1  0
  1 41  1  0
  1 42  1  0
  1 43  1  0
  4 44  1  0
  5 45  1  0
  6 46  1  0
 13 47  1  0
 13 48  1  0
 15 49  1  0
 16 50  1  0
 21 51  1  0
 21 52  1  0
 23 53  1  0
 24 54  1  0
 27 55  1  0
 28 56  1  0
 29 57  1  0
 30 58  1  0
 35 59  1  0
 36 60  1  0
 37 61  1  0
 38 62  1  0
 40 63  1  0
M  CHG  1  20  -1
M  END
>  <UniqueID>  (25) 
25

>  <SMILES>  (25) 
COc1cccc(-c2nc(=O)n(Cc3ccc(C(=O)[N-]Cc4ccc(F)cc4)cc3)c3c2oc2ccccc23)c1

>  <Energy>  (25) 
125.03287025093543

>  <Genealogy>  (25) 
COc1cccc(-c2nc(=O)n(Cc3ccc(C(=O)[N-]Cc4ccc(F)cc4)cc3)c3c2oc2ccccc23)c1 (protonated)
COc1cccc(-c2nc(=O)n(Cc3ccc(C(=O)[N-]Cc4ccc(F)cc4)cc3)c3c2oc2ccccc23)c1 (3D coordinates assigned)
COc1cccc(-c2nc(=O)n(Cc3ccc(C(=O)[N-]Cc4ccc(F)cc4)cc3)c3c2oc2ccccc23)c1 (optimized conformer: 125.03287025093543 kcal/mol)

>  <smiles>  (25) 
COc1cccc(-c2nc(=O)n(Cc3ccc(C(=O)NCc4ccc(F)cc4)cc3)c3c2oc2ccccc23)c1

>  <score_type>  (25) 
oracle

>  <origin>  (25) 
adg

>  <m_score__min__energy>  (25) 
-10.710000000000001

>  <m_primary>  (25) 
energy

$$$$
25:0
     RDKit          3D

 27 28  0  0  0  0  0  0  0  0999 V2000
   56.3800   29.9820   43.1790 C   0  0  0  0  0  0  0  0  0  0  0  0
   57.3850   30.0080   44.2440 N   0  0  0  0  0  0  0  0  0  0  0  0
   58.0310   28.7990   44.7090 C   0  0  0  0  0  0  0  0  0  0  0  0
   59.2910   28.7270   44.7000 O   0  0  0  0  0  0  0  0  0  0  0  0
   57.2610   27.6200   45.1720 C   0  0  0  0  0  0  0  0  0  0  0  0
   57.8230   26.3350   45.1370 C   0  0  0  0  0  0  0  0  0  0  0  0
   57.0620   25.2440   45.5530 C   0  0  0  0  0  0  0  0  0  0  0  0
   55.7540   25.4540   45.9860 C   0  0  0  0  0  0  0  0  0  0  0  0
   55.0450   24.4870   46.3680 O   0  0  0  0  0  0  0  0  0  0  0  0
   55.2460   26.7130   45.9920 N   0  0  0  0  0  0  0  0  0  0  0  0
   55.9740   27.7590   45.5950 N   0  0  0  0  0  0  0  0  0  0  0  0
   57.7640   31.2830   44.7930 C   0  0  0  0  0  0  0  0  0  0  0  0
   57.7440   32.4320   43.9850 C   0  0  0  0  0  0  0  0  0  0  0  0
   58.0970   33.6750   44.5170 C   0  0  0  0  0  0  0  0  0  0  0  0
   58.4620   33.7820   45.8620 C   0  0  0  0  0  0  0  0  0  0  0  0
   58.4730   32.6470   46.6770 C   0  0  0  0  0  0  0  0  0  0  0  0
   58.1230   31.4010   46.1470 C   0  0  0  0  0  0  0  0  0  0  0  0
   55.3745   29.9560   43.6243 H   0  0  0  0  0  0  0  0  0  0  0  0
   56.4821   30.8831   42.5564 H   0  0  0  0  0  0  0  0  0  0  0  0
   56.5286   29.0874   42.5564 H   0  0  0  0  0  0  0  0  0  0  0  0
   58.8548   26.1899   44.7845 H   0  0  0  0  0  0  0  0  0  0  0  0
   57.4883   24.2301   45.5398 H   0  0  0  0  0  0  0  0  0  0  0  0
   57.4490   32.3528   42.9283 H   0  0  0  0  0  0  0  0  0  0  0  0
   58.0876   34.5696   43.8770 H   0  0  0  0  0  0  0  0  0  0  0  0
   58.7409   34.7608   46.2794 H   0  0  0  0  0  0  0  0  0  0  0  0
   58.7571   32.7336   47.7361 H   0  0  0  0  0  0  0  0  0  0  0  0
   58.1287   30.5100   46.7920 H   0  0  0  0  0  0  0  0  0  0  0  0
  1  2  1  0
  2  3  1  0
  3  4  2  0
  3  5  1  0
  5  6  1  0
  6  7  2  0
  7  8  1  0
  8  9  2  0
  8 10  1  0
 10 11  1  0
  2 12  1  0
 12 13  2  0
 13 14  1  0
 14 15  2  0
 15 16  1  0
 16 17  2  0
 11  5  2  0
 17 12  1  0
  1 18  1  0
  1 19  1  0
  1 20  1  0
  6 21  1  0
  7 22  1  0
 13 23  1  0
 14 24  1  0
 15 25  1  0
 16 26  1  0
 17 27  1  0
M  CHG  1  10  -1
M  END
>  <UniqueID>  (26) 
26

>  <SMILES>  (26) 
CN(C(=O)c1ccc(=O)[n-]n1)c1ccccc1

>  <Energy>  (26) 
38.81454516368878

>  <Genealogy>  (26) 
CN(C(=O)c1ccc(=O)[n-]n1)c1ccccc1 (protonated)
CN(C(=O)c1ccc(=O)[n-]n1)c1ccccc1 (3D coordinates assigned)
CN(C(=O)c1ccc(=O)[n-]n1)c1ccccc1 (optimized conformer: 38.81454516368878 kcal/mol)

>  <smiles>  (26) 
CN(C(=O)c1ccc(=O)[nH]n1)c1ccccc1

>  <score_type>  (26) 
oracle

>  <origin>  (26) 
adg

>  <m_score__min__energy>  (26) 
-9.0399999999999991

>  <m_primary>  (26) 
energy

$$$$
26:0
     RDKit          3D

 57 60  0  0  0  0  0  0  0  0999 V2000
   59.9920   28.1700   45.9710 C   0  0  0  0  0  0  0  0  0  0  0  0
   58.7490   27.3330   45.9210 C   0  0  0  0  0  0  0  0  0  0  0  0
   57.4570   27.8150   45.9870 C   0  0  0  0  0  0  0  0  0  0  0  0
   57.0890   29.1940   46.1270 N   0  0  0  0  0  0  0  0  0  0  0  0
   57.0220   30.3670   44.8460 S   0  0  0  0  0  0  0  0  0  0  0  0
   57.7670   29.8200   43.6600 O   0  0  0  0  0  0  0  0  0  0  0  0
   55.5850   30.5960   44.4610 O   0  0  0  0  0  0  0  0  0  0  0  0
   57.7870   31.8910   45.2990 C   0  0  0  0  0  0  0  0  0  0  0  0
   57.0300   33.0620   45.3980 C   0  0  0  0  0  0  0  0  0  0  0  0
   57.6340   34.2540   45.8020 C   0  0  0  0  0  0  0  0  0  0  0  0
   58.9900   34.2800   46.1310 C   0  0  0  0  0  0  0  0  0  0  0  0
   59.7630   33.1100   46.0490 C   0  0  0  0  0  0  0  0  0  0  0  0
   61.1810   33.1280   46.4740 C   0  0  0  0  0  0  0  0  0  0  0  0
   61.8340   34.2070   46.4010 O   0  0  0  0  0  0  0  0  0  0  0  0
   61.8030   31.9460   47.0130 N   0  0  0  0  0  0  0  0  0  0  0  0
   63.1920   31.9210   47.4650 C   0  0  0  0  0  0  0  0  0  0  0  0
   63.3170   32.6700   48.7650 C   0  0  0  0  0  0  0  0  0  0  0  0
   62.1740   33.1840   49.4010 C   0  0  0  0  0  0  0  0  0  0  0  0
   62.2900   33.8570   50.6230 C   0  0  0  0  0  0  0  0  0  0  0  0
   63.5420   34.0030   51.2260 C   0  0  0  0  0  0  0  0  0  0  0  0
   64.6820   33.4820   50.6050 C   0  0  0  0  0  0  0  0  0  0  0  0
   64.5720   32.8160   49.3800 C   0  0  0  0  0  0  0  0  0  0  0  0
   59.1580   31.9250   45.5920 C   0  0  0  0  0  0  0  0  0  0  0  0
   56.6560   26.6910   46.0050 C   0  0  0  0  0  0  0  0  0  0  0  0
   55.3950   26.6730   45.9880 O   0  0  0  0  0  0  0  0  0  0  0  0
   57.4330   25.5880   45.9970 N   0  0  0  0  0  0  0  0  0  0  0  0
   56.9640   24.2320   46.0950 C   0  0  0  0  0  0  0  0  0  0  0  0
   57.0270   23.3840   44.9770 C   0  0  0  0  0  0  0  0  0  0  0  0
   56.5750   22.0640   45.0640 C   0  0  0  0  0  0  0  0  0  0  0  0
   56.0560   21.5830   46.2700 C   0  0  0  0  0  0  0  0  0  0  0  0
   55.9990   22.4180   47.3900 C   0  0  0  0  0  0  0  0  0  0  0  0
   56.4550   23.7380   47.3060 C   0  0  0  0  0  0  0  0  0  0  0  0
   58.7070   25.9790   45.9640 N   0  0  0  0  0  0  0  0  0  0  0  0
   59.8780   25.0930   45.9890 C   0  0  0  0  0  0  0  0  0  0  0  0
   60.2673   28.3554   47.0197 H   0  0  0  0  0  0  0  0  0  0  0  0
   60.8120   27.6394   45.4650 H   0  0  0  0  0  0  0  0  0  0  0  0
   59.8087   29.1293   45.4650 H   0  0  0  0  0  0  0  0  0  0  0  0
   55.9568   33.0442   45.1572 H   0  0  0  0  0  0  0  0  0  0  0  0
   57.0384   35.1769   45.8613 H   0  0  0  0  0  0  0  0  0  0  0  0
   59.4560   35.2218   46.4563 H   0  0  0  0  0  0  0  0  0  0  0  0
   61.2170   31.1090   47.2370 H   0  0  0  0  0  0  0  0  0  0  0  0
   63.5098   30.8782   47.6120 H   0  0  0  0  0  0  0  0  0  0  0  0
   63.8301   32.3987   46.7069 H   0  0  0  0  0  0  0  0  0  0  0  0
   61.1848   33.0570   48.9370 H   0  0  0  0  0  0  0  0  0  0  0  0
   61.3945   34.2714   51.1091 H   0  0  0  0  0  0  0  0  0  0  0  0
   63.6311   34.5275   52.1888 H   0  0  0  0  0  0  0  0  0  0  0  0
   65.6670   33.5963   51.0811 H   0  0  0  0  0  0  0  0  0  0  0  0
   65.4706   32.4053   48.8965 H   0  0  0  0  0  0  0  0  0  0  0  0
   59.7657   31.0171   45.4634 H   0  0  0  0  0  0  0  0  0  0  0  0
   57.4345   23.7608   44.0273 H   0  0  0  0  0  0  0  0  0  0  0  0
   56.6276   21.4047   44.1850 H   0  0  0  0  0  0  0  0  0  0  0  0
   55.6923   20.5471   46.3376 H   0  0  0  0  0  0  0  0  0  0  0  0
   55.5948   22.0363   48.3392 H   0  0  0  0  0  0  0  0  0  0  0  0
   56.4145   24.3900   48.1910 H   0  0  0  0  0  0  0  0  0  0  0  0
   60.1563   24.8824   47.0322 H   0  0  0  0  0  0  0  0  0  0  0  0
   59.6355   24.1502   45.4768 H   0  0  0  0  0  0  0  0  0  0  0  0
   60.7193   25.5827   45.4768 H   0  0  0  0  0  0  0  0  0  0  0  0
  1  2  1  0
  2  3  2  0
  3  4  1  0
  4  5  1  0
  5  6  2  0
  5  7  2  0
  5  8  1  0
  8  9  2  0
  9 10  1  0
 10 11  2  0
 11 12  1  0
 12 13  1  0
 13 14  2  0
 13 15  1  0
 15 16  1  0
 16 17  1  0
 17 18  2  0
 18 19  1  0
 19 20  2  0
 20 21  1  0
 21 22  2  0
 12 23  2  0
  3 24  1  0
 24 25  2  0
 24 26  1  0
 26 27  1  0
 27 28  2  0
 28 29  1  0
 29 30  2  0
 30 31  1  0
 31 32  2  0
 26 33  1  0
 33 34  1  0
 33  2  1  0
 23  8  1  0
 32 27  1  0
 22 17  1  0
  1 35  1  0
  1 36  1  0
  1 37  1  0
  9 38  1  0
 10 39  1  0
 11 40  1  0
 15 41  1  0
 16 42  1  0
 16 43  1  0
 18 44  1  0
 19 45  1  0
 20 46  1  0
 21 47  1  0
 22 48  1  0
 23 49  1  0
 28 50  1  0
 29 51  1  0
 30 52  1  0
 31 53  1  0
 32 54  1  0
 34 55  1  0
 34 56  1  0
 34 57  1  0
M  CHG  1   4  -1
M  END
>  <UniqueID>  (27) 
27

>  <SMILES>  (27) 
Cc1c([N-]S(=O)(=O)c2cccc(C(=O)NCc3ccccc3)c2)c(=O)n(-c2ccccc2)n1C

>  <Energy>  (27) 
101.65093752338507

>  <Genealogy>  (27) 
Cc1c([N-]S(=O)(=O)c2cccc(C(=O)NCc3ccccc3)c2)c(=O)n(-c2ccccc2)n1C (protonated)
Cc1c([N-]S(=O)(=O)c2cccc(C(=O)NCc3ccccc3)c2)c(=O)n(-c2ccccc2)n1C (3D coordinates assigned)
Cc1c([N-]S(=O)(=O)c2cccc(C(=O)NCc3ccccc3)c2)c(=O)n(-c2ccccc2)n1C (optimized conformer: 101.65093752338507 kcal/mol)

>  <smiles>  (27) 
Cc1c(NS(=O)(=O)c2cccc(C(=O)NCc3ccccc3)c2)c(=O)n(-c2ccccc2)n1C

>  <score_type>  (27) 
oracle

>  <origin>  (27) 
adg

>  <m_score__min__energy>  (27) 
-11.300000000000001

>  <m_primary>  (27) 
energy

$$$$
27:0
     RDKit          3D

 63 67  0  0  0  0  0  0  0  0999 V2000
   57.2270   25.0210   47.5120 C   0  0  0  0  0  0  0  0  0  0  0  0
   57.1230   24.6770   46.0470 C   0  0  0  0  0  0  0  0  0  0  0  0
   57.5240   25.5790   45.0290 C   0  0  0  0  0  0  0  0  0  0  0  0
   58.0460   26.8780   45.3450 N   0  0  0  0  0  0  0  0  0  0  0  0
   59.5070   27.0760   45.2450 C   0  0  0  0  0  0  0  0  0  0  0  0
   59.9810   28.3680   45.9310 C   0  0  0  0  0  0  0  0  0  0  0  0
   59.0560   29.4480   45.6340 N   0  0  0  0  0  0  0  0  0  0  0  0
   59.2800   30.7710   45.6140 C   0  0  0  0  0  0  0  0  0  0  0  0
   58.0500   31.3910   45.4760 C   0  0  0  0  0  0  0  0  0  0  0  0
   57.7960   32.8380   45.4820 C   0  0  0  0  0  0  0  0  0  0  0  0
   56.6530   33.2470   45.1410 O   0  0  0  0  0  0  0  0  0  0  0  0
   58.8200   33.7910   45.8420 N   0  0  0  0  0  0  0  0  0  0  0  0
   59.2690   34.7970   44.8720 C   0  0  0  0  0  0  0  0  0  0  0  0
   59.3320   33.8200   47.2210 C   0  0  0  0  0  0  0  0  0  0  0  0
   60.7300   33.2650   47.2520 C   0  0  0  0  0  0  0  0  0  0  0  0
   61.0140   32.1010   47.9820 C   0  0  0  0  0  0  0  0  0  0  0  0
   62.3230   31.6190   48.0450 C   0  0  0  0  0  0  0  0  0  0  0  0
   63.3400   32.3090   47.3810 C   0  0  0  0  0  0  0  0  0  0  0  0
   63.0520   33.4390   46.6820 N   0  0  0  0  0  0  0  0  0  0  0  0
   61.7850   33.9300   46.6060 C   0  0  0  0  0  0  0  0  0  0  0  0
   57.0650   30.4630   45.4620 N   0  0  0  0  0  0  0  0  0  0  0  0
   57.7300   29.2930   45.5450 C   0  0  0  0  0  0  0  0  0  0  0  0
   57.0860   27.9510   45.6590 C   0  0  0  0  0  0  0  0  0  0  0  0
   57.3900   25.2010   43.6770 C   0  0  0  0  0  0  0  0  0  0  0  0
   56.8600   23.9500   43.3340 C   0  0  0  0  0  0  0  0  0  0  0  0
   56.4670   23.1060   44.3690 C   0  0  0  0  0  0  0  0  0  0  0  0
   55.9130   21.8850   44.2160 N   0  0  0  0  0  0  0  0  0  0  0  0
   55.6950   21.4870   45.4930 C   0  0  0  0  0  0  0  0  0  0  0  0
   55.0700   20.1770   45.8600 C   0  0  0  0  0  0  0  0  0  0  0  0
   53.6280   20.2040   45.6150 N   0  0  0  0  0  0  0  0  0  0  0  0
   52.8980   21.6220   46.3120 S   0  0  0  0  0  0  0  0  0  0  0  0
   51.1980   21.2690   46.6940 C   0  0  0  0  0  0  0  0  0  0  0  0
   52.9530   22.7710   45.3430 O   0  0  0  0  0  0  0  0  0  0  0  0
   53.6190   21.9970   47.5760 O   0  0  0  0  0  0  0  0  0  0  0  0
   56.1190   22.4580   46.3850 C   0  0  0  0  0  0  0  0  0  0  0  0
   56.6030   23.4770   45.6550 N   0  0  0  0  0  0  0  0  0  0  0  0
   56.9608   24.1405   48.1152 H   0  0  0  0  0  0  0  0  0  0  0  0
   58.2577   25.3268   47.7446 H   0  0  0  0  0  0  0  0  0  0  0  0
   56.5383   25.8466   47.7446 H   0  0  0  0  0  0  0  0  0  0  0  0
   60.0109   26.2209   45.7192 H   0  0  0  0  0  0  0  0  0  0  0  0
   59.7582   27.1564   44.1771 H   0  0  0  0  0  0  0  0  0  0  0  0
   60.0220   28.2105   47.0189 H   0  0  0  0  0  0  0  0  0  0  0  0
   60.9815   28.6325   45.5580 H   0  0  0  0  0  0  0  0  0  0  0  0
   60.2575   31.2693   45.6925 H   0  0  0  0  0  0  0  0  0  0  0  0
   59.6605   35.6741   45.4081 H   0  0  0  0  0  0  0  0  0  0  0  0
   60.0617   34.3693   44.2405 H   0  0  0  0  0  0  0  0  0  0  0  0
   58.4213   35.1014   44.2405 H   0  0  0  0  0  0  0  0  0  0  0  0
   59.3419   34.8576   47.5861 H   0  0  0  0  0  0  0  0  0  0  0  0
   58.6821   33.2092   47.8649 H   0  0  0  0  0  0  0  0  0  0  0  0
   60.2058   31.5683   48.5045 H   0  0  0  0  0  0  0  0  0  0  0  0
   62.5512   30.7045   48.6122 H   0  0  0  0  0  0  0  0  0  0  0  0
   64.3746   31.9378   47.4237 H   0  0  0  0  0  0  0  0  0  0  0  0
   61.5867   34.8503   46.0370 H   0  0  0  0  0  0  0  0  0  0  0  0
   56.7171   27.8148   46.6863 H   0  0  0  0  0  0  0  0  0  0  0  0
   56.2538   27.8987   44.9415 H   0  0  0  0  0  0  0  0  0  0  0  0
   57.7047   25.8951   42.8838 H   0  0  0  0  0  0  0  0  0  0  0  0
   56.7579   23.6450   42.2821 H   0  0  0  0  0  0  0  0  0  0  0  0
   55.5240   19.3785   45.2548 H   0  0  0  0  0  0  0  0  0  0  0  0
   55.2429   19.9908   46.9302 H   0  0  0  0  0  0  0  0  0  0  0  0
   51.0656   21.2415   47.7857 H   0  0  0  0  0  0  0  0  0  0  0  0
   50.5557   22.0529   46.2664 H   0  0  0  0  0  0  0  0  0  0  0  0
   50.9209   20.2942   46.2664 H   0  0  0  0  0  0  0  0  0  0  0  0
   56.0690   22.4050   47.4826 H   0  0  0  0  0  0  0  0  0  0  0  0
  1  2  1  0
  2  3  2  0
  3  4  1  0
  4  5  1  0
  5  6  1  0
  6  7  1  0
  7  8  1  0
  8  9  2  0
  9 10  1  0
 10 11  2  0
 10 12  1  0
 12 13  1  0
 12 14  1  0
 14 15  1  0
 15 16  2  0
 16 17  1  0
 17 18  2  0
 18 19  1  0
 19 20  2  0
  9 21  1  0
 21 22  2  0
 22 23  1  0
  3 24  1  0
 24 25  2  0
 25 26  1  0
 26 27  2  0
 27 28  1  0
 28 29  1  0
 29 30  1  0
 30 31  1  0
 31 32  1  0
 31 33  2  0
 31 34  2  0
 28 35  2  0
 35 36  1  0
 36  2  1  0
 23  4  1  0
 36 26  1  0
 22  7  1  0
 20 15  1  0
  1 37  1  0
  1 38  1  0
  1 39  1  0
  5 40  1  0
  5 41  1  0
  6 42  1  0
  6 43  1  0
  8 44  1  0
 13 45  1  0
 13 46  1  0
 13 47  1  0
 14 48  1  0
 14 49  1  0
 16 50  1  0
 17 51  1  0
 18 52  1  0
 20 53  1  0
 23 54  1  0
 23 55  1  0
 24 56  1  0
 25 57  1  0
 29 58  1  0
 29 59  1  0
 32 60  1  0
 32 61  1  0
 32 62  1  0
 35 63  1  0
M  CHG  1  30  -1
M  END
>  <UniqueID>  (28) 
28

>  <SMILES>  (28) 
Cc1c(N2CCn3cc(C(=O)N(C)Cc4cccnc4)nc3C2)ccc2nc(C[N-]S(C)(=O)=O)cn12

>  <Energy>  (28) 
136.26561923604712

>  <Genealogy>  (28) 
Cc1c(N2CCn3cc(C(=O)N(C)Cc4cccnc4)nc3C2)ccc2nc(C[N-]S(C)(=O)=O)cn12 (protonated)
Cc1c(N2CCn3cc(C(=O)N(C)Cc4cccnc4)nc3C2)ccc2nc(C[N-]S(C)(=O)=O)cn12 (3D coordinates assigned)
Cc1c(N2CCn3cc(C(=O)N(C)Cc4cccnc4)nc3C2)ccc2nc(C[N-]S(C)(=O)=O)cn12 (nonaromatic ring conformer: 136.26561923604712 kcal/mol)

>  <smiles>  (28) 
Cc1c(N2CCn3cc(C(=O)N(C)Cc4cccnc4)nc3C2)ccc2nc(CNS(C)(=O)=O)cn12

>  <score_type>  (28) 
oracle

>  <origin>  (28) 
adg

>  <m_score__min__energy>  (28) 
-11.550000000000001

>  <m_primary>  (28) 
energy

$$$$
28:0
     RDKit          3D

 55 59  0  0  0  0  0  0  0  0999 V2000
   60.1313   36.3046   45.5099 H   0  0  0  0  0  0  0  0  0  0  0  0
   59.6320   35.3610   45.7750 C   0  0  0  0  0  0  0  0  0  0  0  0
   59.6630   34.9140   47.0580 N   0  0  0  0  0  0  0  0  0  0  0  0
   59.0570   33.7530   47.4380 C   0  0  0  0  0  0  0  0  0  0  0  0
   59.1360   33.3330   48.8580 C   0  0  0  0  0  0  0  0  0  0  0  0
   59.6580   34.1880   49.8390 C   0  0  0  0  0  0  0  0  0  0  0  0
   60.0075   35.1926   49.5585 H   0  0  0  0  0  0  0  0  0  0  0  0
   59.7370   33.7730   51.1680 C   0  0  0  0  0  0  0  0  0  0  0  0
   60.1354   34.4587   51.9302 H   0  0  0  0  0  0  0  0  0  0  0  0
   59.3140   32.4920   51.5410 C   0  0  0  0  0  0  0  0  0  0  0  0
   59.3710   32.0920   53.2530 Cl  0  0  0  0  0  0  0  0  0  0  0  0
   58.8120   31.6030   50.5620 C   0  0  0  0  0  0  0  0  0  0  0  0
   58.3760   30.2210   50.8800 C   0  0  0  0  0  0  0  0  0  0  0  0
   57.5070   30.0430   51.7770 O   0  0  0  0  0  0  0  0  0  0  0  0
   58.9290   29.0970   50.1770 N   0  0  0  0  0  0  0  0  0  0  0  0
   59.4900   29.1120   48.9980 C   0  0  0  0  0  0  0  0  0  0  0  0
   58.9410   28.6630   47.8080 C   0  0  0  0  0  0  0  0  0  0  0  0
   57.9857   28.1390   47.6567 H   0  0  0  0  0  0  0  0  0  0  0  0
   59.8760   29.0280   46.8530 C   0  0  0  0  0  0  0  0  0  0  0  0
   59.7590   28.8420   45.3960 C   0  0  0  0  0  0  0  0  0  0  0  0
   60.8090   28.8410   44.6980 O   0  0  0  0  0  0  0  0  0  0  0  0
   58.4810   28.6690   44.7560 N   0  0  0  0  0  0  0  0  0  0  0  0
   57.7320   29.8240   44.2410 C   0  0  0  0  0  0  0  0  0  0  0  0
   57.7846   29.8265   43.1423 H   0  0  0  0  0  0  0  0  0  0  0  0
   58.1785   30.7428   44.6491 H   0  0  0  0  0  0  0  0  0  0  0  0
   56.2900   29.7610   44.6650 C   0  0  0  0  0  0  0  0  0  0  0  0
   55.5460   30.7620   44.4940 O   0  0  0  0  0  0  0  0  0  0  0  0
   55.7340   28.5520   45.1940 N   0  0  0  0  0  0  0  0  0  0  0  0
   56.5690   27.4320   45.6170 C   0  0  0  0  0  0  0  0  0  0  0  0
   56.0007   26.4959   45.5134 H   0  0  0  0  0  0  0  0  0  0  0  0
   56.8620   27.5798   46.6669 H   0  0  0  0  0  0  0  0  0  0  0  0
   57.8260   27.3560   44.7560 C   0  0  0  0  0  0  0  0  0  0  0  0
   57.5528   27.0794   43.7270 H   0  0  0  0  0  0  0  0  0  0  0  0
   58.5111   26.5973   45.1621 H   0  0  0  0  0  0  0  0  0  0  0  0
   60.9090   29.6670   47.4390 N   0  0  0  0  0  0  0  0  0  0  0  0
   60.6770   29.7040   48.7410 N   0  0  0  0  0  0  0  0  0  0  0  0
   61.5800   30.3100   49.6820 C   0  0  0  0  0  0  0  0  0  0  0  0
   61.9160   29.6570   50.8800 C   0  0  0  0  0  0  0  0  0  0  0  0
   61.4745   28.6764   51.1112 H   0  0  0  0  0  0  0  0  0  0  0  0
   62.8080   30.2470   51.7790 C   0  0  0  0  0  0  0  0  0  0  0  0
   63.0598   29.7346   52.7192 H   0  0  0  0  0  0  0  0  0  0  0  0
   63.3810   31.4880   51.4850 C   0  0  0  0  0  0  0  0  0  0  0  0
   64.0787   31.9544   52.1961 H   0  0  0  0  0  0  0  0  0  0  0  0
   63.0670   32.1350   50.2880 C   0  0  0  0  0  0  0  0  0  0  0  0
   63.5230   33.1083   50.0541 H   0  0  0  0  0  0  0  0  0  0  0  0
   62.1740   31.5480   49.3860 C   0  0  0  0  0  0  0  0  0  0  0  0
   61.9358   32.0578   48.4408 H   0  0  0  0  0  0  0  0  0  0  0  0
   58.7250   32.0410   49.2260 C   0  0  0  0  0  0  0  0  0  0  0  0
   58.3287   31.3602   48.4582 H   0  0  0  0  0  0  0  0  0  0  0  0
   58.3910   32.9780   46.4680 C   0  0  0  0  0  0  0  0  0  0  0  0
   57.8300   31.7820   46.7810 F   0  0  0  0  0  0  0  0  0  0  0  0
   58.3490   33.4260   45.1440 C   0  0  0  0  0  0  0  0  0  0  0  0
   57.8275   32.8323   44.3787 H   0  0  0  0  0  0  0  0  0  0  0  0
   58.9680   34.6250   44.7940 C   0  0  0  0  0  0  0  0  0  0  0  0
   58.9331   34.9865   43.7557 H   0  0  0  0  0  0  0  0  0  0  0  0
  1  2  1  0
  2  3  2  0
  3  4  1  0
  4  5  1  0
  5  6  2  0
  6  7  1  0
  6  8  1  0
  8  9  1  0
  8 10  2  0
 10 11  1  0
 10 12  1  0
 12 13  1  0
 13 14  2  0
 13 15  1  0
 15 16  2  0
 16 17  1  0
 17 18  1  0
 17 19  2  0
 19 20  1  0
 20 21  2  0
 20 22  1  0
 22 23  1  0
 23 24  1  0
 23 25  1  0
 23 26  1  0
 26 27  2  0
 26 28  1  0
 28 29  1  0
 29 30  1  0
 29 31  1  0
 29 32  1  0
 32 33  1  0
 32 34  1  0
 19 35  1  0
 35 36  1  0
 36 37  1  0
 37 38  2  0
 38 39  1  0
 38 40  1  0
 40 41  1  0
 40 42  2  0
 42 43  1  0
 42 44  1  0
 44 45  1  0
 44 46  2  0
 46 47  1  0
 12 48  2  0
 48 49  1  0
  4 50  2  0
 50 51  1  0
 50 52  1  0
 52 53  1  0
 52 54  2  0
 54 55  1  0
 54  2  1  0
 48  5  1  0
 36 16  1  0
 46 37  1  0
 32 22  1  0
M  CHG  2  28  -1  35  -1
M  END
>  <UniqueID>  (29) 
29

>  <SMILES>  (29) 
O=C1CN(C(=O)c2c/c(=N\C(=O)c3cc(-c4ncccc4F)ccc3Cl)n(-c3ccccc3)[n-]2)CC[N-]1

>  <Energy>  (29) 
115.33489109321398

>  <Genealogy>  (29) 
O=C1CN(C(=O)c2cc(=NC(=O)c3cc(-c4ncccc4F)ccc3Cl)n(-c3ccccc3)[n-]2)CC[N-]1 (protonated)
O=C1CN(C(=O)c2c/c(=N\C(=O)c3cc(-c4ncccc4F)ccc3Cl)n(-c3ccccc3)[n-]2)CC[N-]1 (cis-trans isomerization)
O=C1CN(C(=O)c2c/c(=N\C(=O)c3cc(-c4ncccc4F)ccc3Cl)n(-c3ccccc3)[n-]2)CC[N-]1 (3D coordinates assigned)
O=C1CN(C(=O)c2c/c(=N\C(=O)c3cc(-c4ncccc4F)ccc3Cl)n(-c3ccccc3)[n-]2)CC[N-]1 (nonaromatic ring conformer: 115.33489109321398 kcal/mol)

>  <smiles>  (29) 
O=C1CN(C(=O)c2cc(=NC(=O)c3cc(-c4ncccc4F)ccc3Cl)n(-c3ccccc3)[nH]2)CCN1

>  <score_type>  (29) 
oracle

>  <origin>  (29) 
adg

>  <m_score__min__energy>  (29) 
-13.33

>  <m_primary>  (29) 
energy

$$$$
29:0
     RDKit          3D

 45 48  0  0  0  0  0  0  0  0999 V2000
   55.6150   29.4890   45.1350 N   0  0  0  0  0  0  0  0  0  0  0  0
   57.3350   29.4560   45.3160 S   0  0  0  0  0  0  0  0  0  0  0  0
   57.7120   30.2420   46.5390 O   0  0  0  0  0  0  0  0  0  0  0  0
   57.9470   30.0920   44.1000 O   0  0  0  0  0  0  0  0  0  0  0  0
   57.9010   27.7850   45.4860 C   0  0  0  0  0  0  0  0  0  0  0  0
   57.4460   26.8250   44.5670 C   0  0  0  0  0  0  0  0  0  0  0  0
   57.9040   25.5080   44.6300 C   0  0  0  0  0  0  0  0  0  0  0  0
   58.8220   25.1320   45.6100 C   0  0  0  0  0  0  0  0  0  0  0  0
   59.2740   26.0690   46.5390 C   0  0  0  0  0  0  0  0  0  0  0  0
   58.8130   27.3960   46.4990 C   0  0  0  0  0  0  0  0  0  0  0  0
   59.2950   28.3370   47.5300 C   0  0  0  0  0  0  0  0  0  0  0  0
   60.5270   28.9860   47.3890 C   0  0  0  0  0  0  0  0  0  0  0  0
   60.9650   29.8810   48.3660 C   0  0  0  0  0  0  0  0  0  0  0  0
   60.1500   30.1370   49.4870 C   0  0  0  0  0  0  0  0  0  0  0  0
   60.4980   30.9640   50.4320 N   0  0  0  0  0  0  0  0  0  0  0  0
   60.8290   32.3840   50.2930 C   0  0  0  0  0  0  0  0  0  0  0  0
   60.5780   32.8650   48.8810 C   0  0  0  0  0  0  0  0  0  0  0  0
   61.6520   33.1390   48.0130 C   0  0  0  0  0  0  0  0  0  0  0  0
   62.9370   32.9780   48.4220 F   0  0  0  0  0  0  0  0  0  0  0  0
   61.4110   33.5880   46.7110 C   0  0  0  0  0  0  0  0  0  0  0  0
   60.1020   33.7700   46.2620 C   0  0  0  0  0  0  0  0  0  0  0  0
   59.0230   33.5290   47.1240 C   0  0  0  0  0  0  0  0  0  0  0  0
   59.2600   33.0830   48.4340 C   0  0  0  0  0  0  0  0  0  0  0  0
   58.2120   32.8700   49.2720 F   0  0  0  0  0  0  0  0  0  0  0  0
   57.6910   33.7920   46.6630 N   0  0  0  0  0  0  0  0  0  0  0  0
   57.4700   34.1920   45.3070 C   0  0  0  0  0  0  0  0  0  0  0  0
   56.3170   34.5330   44.9320 O   0  0  0  0  0  0  0  0  0  0  0  0
   58.5950   34.1250   44.3150 C   0  0  0  0  0  0  0  0  0  0  0  0
   59.8700   34.2230   44.9570 O   0  0  0  0  0  0  0  0  0  0  0  0
   58.9510   29.5020   49.5900 N   0  0  0  0  0  0  0  0  0  0  0  0
   58.5070   28.6260   48.6510 C   0  0  0  0  0  0  0  0  0  0  0  0
   55.2400   28.6450   45.6240 H   0  0  0  0  0  0  0  0  0  0  0  0
   56.7222   27.1138   43.7907 H   0  0  0  0  0  0  0  0  0  0  0  0
   57.5400   24.7651   43.9050 H   0  0  0  0  0  0  0  0  0  0  0  0
   59.1898   24.0961   45.6504 H   0  0  0  0  0  0  0  0  0  0  0  0
   59.9979   25.7666   47.3100 H   0  0  0  0  0  0  0  0  0  0  0  0
   61.1520   28.7900   46.5053 H   0  0  0  0  0  0  0  0  0  0  0  0
   61.9384   30.3826   48.2621 H   0  0  0  0  0  0  0  0  0  0  0  0
   60.2069   32.9677   50.9875 H   0  0  0  0  0  0  0  0  0  0  0  0
   61.8960   32.5187   50.5239 H   0  0  0  0  0  0  0  0  0  0  0  0
   62.2556   33.7985   46.0384 H   0  0  0  0  0  0  0  0  0  0  0  0
   56.8780   33.7220   47.3150 H   0  0  0  0  0  0  0  0  0  0  0  0
   58.5393   33.1676   43.7762 H   0  0  0  0  0  0  0  0  0  0  0  0
   58.4930   34.9727   43.6214 H   0  0  0  0  0  0  0  0  0  0  0  0
   57.5263   28.1427   48.7716 H   0  0  0  0  0  0  0  0  0  0  0  0
  1  2  1  0
  2  3  2  0
  2  4  2  0
  2  5  1  0
  5  6  2  0
  6  7  1  0
  7  8  2  0
  8  9  1  0
  9 10  2  0
 10 11  1  0
 11 12  1  0
 12 13  2  0
 13 14  1  0
 14 15  2  3
 15 16  1  0
 16 17  1  0
 17 18  2  0
 18 19  1  0
 18 20  1  0
 20 21  2  0
 21 22  1  0
 22 23  2  0
 23 24  1  0
 22 25  1  0
 25 26  1  0
 26 27  2  0
 26 28  1  0
 28 29  1  0
 14 30  1  0
 30 31  1  0
 10  5  1  0
 31 11  2  0
 23 17  1  0
 29 21  1  0
  1 32  1  0
  6 33  1  0
  7 34  1  0
  8 35  1  0
  9 36  1  0
 12 37  1  0
 13 38  1  0
 16 39  1  0
 16 40  1  0
 20 41  1  0
 25 42  1  0
 28 43  1  0
 28 44  1  0
 31 45  1  0
M  CHG  2   1  -1  30  -1
M  END
>  <UniqueID>  (30) 
30

>  <SMILES>  (30) 
[NH-]S(=O)(=O)c1ccccc1-c1ccc(=NCc2c(F)cc3c(c2F)NC(=O)CO3)[n-]c1

>  <Energy>  (30) 
62.9875682734691

>  <Genealogy>  (30) 
[NH-]S(=O)(=O)c1ccccc1-c1ccc(=NCc2c(F)cc3c(c2F)NC(=O)CO3)[n-]c1 (protonated)
[NH-]S(=O)(=O)c1ccccc1-c1ccc(=NCc2c(F)cc3c(c2F)NC(=O)CO3)[n-]c1 (3D coordinates assigned)
[NH-]S(=O)(=O)c1ccccc1-c1ccc(=NCc2c(F)cc3c(c2F)NC(=O)CO3)[n-]c1 (nonaromatic ring conformer: 62.9875682734691 kcal/mol)

>  <smiles>  (30) 
NS(=O)(=O)c1ccccc1-c1ccc(=NCc2c(F)cc3c(c2F)NC(=O)CO3)[nH]c1

>  <score_type>  (30) 
oracle

>  <origin>  (30) 
adg

>  <m_score__min__energy>  (30) 
-11.77

>  <m_primary>  (30) 
energy

$$$$
30:0
     RDKit          3D

 42 45  0  0  0  0  0  0  0  0999 V2000
   60.4000   27.6900   46.8650 C   0  0  0  0  0  0  0  0  0  0  0  0
   59.5390   26.5830   46.3590 C   0  0  0  0  0  0  0  0  0  0  0  0
   60.0350   25.3720   46.0660 N   0  0  0  0  0  0  0  0  0  0  0  0
   59.0390   24.5990   45.6140 N   0  0  0  0  0  0  0  0  0  0  0  0
   59.2150   23.2230   45.2560 C   0  0  0  0  0  0  0  0  0  0  0  0
   57.8940   25.3490   45.6230 C   0  0  0  0  0  0  0  0  0  0  0  0
   58.1590   26.6090   46.0870 C   0  0  0  0  0  0  0  0  0  0  0  0
   57.1680   27.6360   46.3780 C   0  0  0  0  0  0  0  0  0  0  0  0
   57.6420   28.9750   46.0460 N   0  0  0  0  0  0  0  0  0  0  0  0
   58.2990   29.8870   46.7070 N   0  0  0  0  0  0  0  0  0  0  0  0
   58.4490   31.0130   45.9850 C   0  0  0  0  0  0  0  0  0  0  0  0
   59.0670   32.2770   46.3820 C   0  0  0  0  0  0  0  0  0  0  0  0
   58.3560   33.4180   46.6620 C   0  0  0  0  0  0  0  0  0  0  0  0
   58.9610   34.5860   47.1030 C   0  0  0  0  0  0  0  0  0  0  0  0
   60.3190   34.5890   47.2610 C   0  0  0  0  0  0  0  0  0  0  0  0
   61.1090   33.4580   46.9940 C   0  0  0  0  0  0  0  0  0  0  0  0
   62.5270   33.4880   47.1850 C   0  0  0  0  0  0  0  0  0  0  0  0
   63.6500   33.5010   47.3290 N   0  0  0  0  0  0  0  0  0  0  0  0
   60.4230   32.3290   46.5540 C   0  0  0  0  0  0  0  0  0  0  0  0
   57.8320   30.7910   44.7650 C   0  0  0  0  0  0  0  0  0  0  0  0
   57.6340   31.5190   43.6100 C   0  0  0  0  0  0  0  0  0  0  0  0
   57.9590   32.6990   43.4370 N   0  0  0  0  0  0  0  0  0  0  0  0
   56.9550   30.9350   42.5670 N   0  0  0  0  0  0  0  0  0  0  0  0
   56.4760   29.6890   42.6250 C   0  0  0  0  0  0  0  0  0  0  0  0
   56.6760   29.0020   43.7550 N   0  0  0  0  0  0  0  0  0  0  0  0
   57.3410   29.5190   44.8280 C   0  0  0  0  0  0  0  0  0  0  0  0
   60.3957   27.6844   47.9650 H   0  0  0  0  0  0  0  0  0  0  0  0
   61.4288   27.5498   46.5017 H   0  0  0  0  0  0  0  0  0  0  0  0
   60.0108   28.6526   46.5017 H   0  0  0  0  0  0  0  0  0  0  0  0
   59.2929   22.6138   46.1686 H   0  0  0  0  0  0  0  0  0  0  0  0
   58.3527   22.8854   44.6623 H   0  0  0  0  0  0  0  0  0  0  0  0
   60.1345   23.1133   44.6623 H   0  0  0  0  0  0  0  0  0  0  0  0
   56.9042   24.9909   45.3036 H   0  0  0  0  0  0  0  0  0  0  0  0
   56.2603   27.4272   45.7927 H   0  0  0  0  0  0  0  0  0  0  0  0
   56.9650   27.6101   47.4588 H   0  0  0  0  0  0  0  0  0  0  0  0
   57.2638   33.4054   46.5315 H   0  0  0  0  0  0  0  0  0  0  0  0
   58.3647   35.4846   47.3195 H   0  0  0  0  0  0  0  0  0  0  0  0
   60.8106   35.5093   47.6095 H   0  0  0  0  0  0  0  0  0  0  0  0
   61.0070   31.4239   46.3312 H   0  0  0  0  0  0  0  0  0  0  0  0
   58.0340   33.3040   42.6800 H   0  0  0  0  0  0  0  0  0  0  0  0
   55.9372   29.2448   41.7751 H   0  0  0  0  0  0  0  0  0  0  0  0
   56.2860   28.0250   43.7640 H   0  0  0  0  0  0  0  0  0  0  0  0
  1  2  1  0
  2  3  2  0
  3  4  1  0
  4  5  1  0
  4  6  1  0
  6  7  2  0
  7  8  1  0
  8  9  1  0
  9 10  1  0
 10 11  2  0
 11 12  1  0
 12 13  2  0
 13 14  1  0
 14 15  2  0
 15 16  1  0
 16 17  1  0
 17 18  3  0
 16 19  2  0
 11 20  1  0
 20 21  1  0
 21 22  2  3
 21 23  1  0
 23 24  2  0
 24 25  1  0
 25 26  1  0
  7  2  1  0
 26  9  1  0
 19 12  1  0
 26 20  2  0
  1 27  1  0
  1 28  1  0
  1 29  1  0
  5 30  1  0
  5 31  1  0
  5 32  1  0
  6 33  1  0
  8 34  1  0
  8 35  1  0
 13 36  1  0
 14 37  1  0
 15 38  1  0
 19 39  1  0
 22 40  1  0
 24 41  1  0
 25 42  1  0
M  END
>  <smiles>  (31) 
Cc1nn(C)cc1Cn1nc(-c2cccc(C#N)c2)c2c(=N)nc[nH]c21

>  <score_type>  (31) 
oracle

>  <origin>  (31) 
adg

>  <m_score__min__energy>  (31) 
-7.6699999999999999

>  <m_primary>  (31) 
energy

$$$$
31:0
     RDKit          3D

 60 64  0  0  0  0  0  0  0  0999 V2000
   58.8168   25.8648   44.4138 H   0  0  0  0  0  0  0  0  0  0  0  0
   58.5470   26.7830   44.9560 C   0  0  0  0  0  0  0  0  0  0  0  0
   57.7340   27.7400   44.3430 C   0  0  0  0  0  0  0  0  0  0  0  0
   57.3660   27.5710   43.3202 H   0  0  0  0  0  0  0  0  0  0  0  0
   57.3840   28.9170   45.0260 C   0  0  0  0  0  0  0  0  0  0  0  0
   56.5380   29.9370   44.3580 C   0  0  0  0  0  0  0  0  0  0  0  0
   55.9410   29.6380   43.2900 O   0  0  0  0  0  0  0  0  0  0  0  0
   56.3970   31.2710   44.8680 N   0  0  0  0  0  0  0  0  0  0  0  0
   57.4690   32.1990   45.0910 C   0  0  0  0  0  0  0  0  0  0  0  0
   57.8780   32.4300   46.4100 C   0  0  0  0  0  0  0  0  0  0  0  0
   57.4012   31.8741   47.2307 H   0  0  0  0  0  0  0  0  0  0  0  0
   58.8880   33.3610   46.7000 C   0  0  0  0  0  0  0  0  0  0  0  0
   59.2620   33.6410   48.1080 C   0  0  0  0  0  0  0  0  0  0  0  0
   59.2600   34.8300   48.5240 O   0  0  0  0  0  0  0  0  0  0  0  0
   59.6930   32.6050   49.0030 N   0  0  0  0  0  0  0  0  0  0  0  0
   58.9290   31.9350   49.8140 C   0  0  0  0  0  0  0  0  0  0  0  0
   58.6100   30.6420   49.5970 N   0  0  0  0  0  0  0  0  0  0  0  0
   57.8490   30.1210   50.5590 N   0  0  0  0  0  0  0  0  0  0  0  0
   57.5740   30.9940   51.5550 C   0  0  0  0  0  0  0  0  0  0  0  0
   56.6940   30.6680   52.7210 C   0  0  0  0  0  0  0  0  0  0  0  0
   57.2092   31.3152   53.4460 H   0  0  0  0  0  0  0  0  0  0  0  0
   55.2420   30.3920   52.3590 C   0  0  0  0  0  0  0  0  0  0  0  0
   54.4370   30.6981   53.0433 H   0  0  0  0  0  0  0  0  0  0  0  0
   54.5980   30.6232   51.4977 H   0  0  0  0  0  0  0  0  0  0  0  0
   56.1610   29.2430   52.7340 C   0  0  0  0  0  0  0  0  0  0  0  0
   56.0215   28.7169   53.6899 H   0  0  0  0  0  0  0  0  0  0  0  0
   56.4581   28.2975   52.2566 H   0  0  0  0  0  0  0  0  0  0  0  0
   58.2670   32.5020   51.2650 S   0  0  0  0  0  0  0  0  0  0  0  0
   59.4950   34.0590   45.6450 C   0  0  0  0  0  0  0  0  0  0  0  0
   60.2697   34.8096   45.8606 H   0  0  0  0  0  0  0  0  0  0  0  0
   59.1220   33.8070   44.3230 C   0  0  0  0  0  0  0  0  0  0  0  0
   59.6126   34.3551   43.5052 H   0  0  0  0  0  0  0  0  0  0  0  0
   58.1280   32.8620   44.0270 C   0  0  0  0  0  0  0  0  0  0  0  0
   57.7880   32.5940   42.5870 C   0  0  0  0  0  0  0  0  0  0  0  0
   56.9251   31.9138   42.5345 H   0  0  0  0  0  0  0  0  0  0  0  0
   57.5391   33.5414   42.0866 H   0  0  0  0  0  0  0  0  0  0  0  0
   58.6511   32.1307   42.0866 H   0  0  0  0  0  0  0  0  0  0  0  0
   57.8790   29.1250   46.3260 C   0  0  0  0  0  0  0  0  0  0  0  0
   57.6432   30.0601   46.8551 H   0  0  0  0  0  0  0  0  0  0  0  0
   58.6720   28.1500   46.9560 C   0  0  0  0  0  0  0  0  0  0  0  0
   59.1730   28.3500   48.2880 N   0  0  0  0  0  0  0  0  0  0  0  0
   58.7620   29.1240   48.8560 H   0  0  0  0  0  0  0  0  0  0  0  0
   60.3370   27.6800   48.7980 C   0  0  0  0  0  0  0  0  0  0  0  0
   61.1370   27.1140   48.0060 O   0  0  0  0  0  0  0  0  0  0  0  0
   60.6360   27.6830   50.2410 C   0  0  0  0  0  0  0  0  0  0  0  0
   61.2850   26.6690   50.9210 C   0  0  0  0  0  0  0  0  0  0  0  0
   61.6712   25.7300   50.4977 H   0  0  0  0  0  0  0  0  0  0  0  0
   61.3500   27.0750   52.2410 C   0  0  0  0  0  0  0  0  0  0  0  0
   61.9710   26.3270   53.3510 C   0  0  0  0  0  0  0  0  0  0  0  0
   61.7690   26.6960   54.5400 O   0  0  0  0  0  0  0  0  0  0  0  0
   62.8560   25.1490   53.0890 C   0  0  0  0  0  0  0  0  0  0  0  0
   63.1819   24.7152   54.0459 H   0  0  0  0  0  0  0  0  0  0  0  0
   62.3002   24.3935   52.5143 H   0  0  0  0  0  0  0  0  0  0  0  0
   63.7364   25.4724   52.5143 H   0  0  0  0  0  0  0  0  0  0  0  0
   60.7290   28.3100   52.3110 C   0  0  0  0  0  0  0  0  0  0  0  0
   60.6061   28.9049   53.2280 H   0  0  0  0  0  0  0  0  0  0  0  0
   60.2980   28.6740   51.0890 N   0  0  0  0  0  0  0  0  0  0  0  0
   59.7840   29.5530   50.8610 H   0  0  0  0  0  0  0  0  0  0  0  0
   59.0180   26.9880   46.2540 C   0  0  0  0  0  0  0  0  0  0  0  0
   59.6637   26.2339   46.7277 H   0  0  0  0  0  0  0  0  0  0  0  0
  1  2  1  0
  2  3  2  0
  3  4  1  0
  3  5  1  0
  5  6  1  0
  6  7  2  0
  6  8  1  0
  8  9  1  0
  9 10  2  0
 10 11  1  0
 10 12  1  0
 12 13  1  0
 13 14  2  0
 13 15  1  0
 15 16  2  0
 16 17  1  0
 17 18  1  0
 18 19  2  0
 19 20  1  0
 20 21  1  0
 20 22  1  0
 22 23  1  0
 22 24  1  0
 22 25  1  0
 25 26  1  0
 25 27  1  0
 19 28  1  0
 12 29  2  0
 29 30  1  0
 29 31  1  0
 31 32  1  0
 31 33  2  0
 33 34  1  0
 34 35  1  0
 34 36  1  0
 34 37  1  0
  5 38  2  0
 38 39  1  0
 38 40  1  0
 40 41  1  0
 41 42  1  0
 41 43  1  0
 43 44  2  0
 43 45  1  0
 45 46  2  0
 46 47  1  0
 46 48  1  0
 48 49  1  0
 49 50  2  0
 49 51  1  0
 51 52  1  0
 51 53  1  0
 51 54  1  0
 48 55  2  0
 55 56  1  0
 55 57  1  0
 57 58  1  0
 40 59  2  0
 59 60  1  0
 59  2  1  0
 33  9  1  0
 57 45  1  0
 28 16  1  0
 25 20  1  0
M  CHG  2   8  -1  17  -1
M  END
>  <UniqueID>  (32) 
31

>  <SMILES>  (32) 
CC(=O)c1c[nH]c(C(=O)Nc2cccc(C(=O)[N-]c3cc(C(=O)/N=c4/[n-]nc(C5CC5)s4)ccc3C)c2)c1

>  <Energy>  (32) 
405.3651358687623

>  <Genealogy>  (32) 
CC(=O)c1c[nH]c(C(=O)Nc2cccc(C(=O)[N-]c3cc(C(=O)N=c4[n-]nc(C5CC5)s4)ccc3C)c2)c1 (protonated)
CC(=O)c1c[nH]c(C(=O)Nc2cccc(C(=O)[N-]c3cc(C(=O)/N=c4/[n-]nc(C5CC5)s4)ccc3C)c2)c1 (cis-trans isomerization)
CC(=O)c1c[nH]c(C(=O)Nc2cccc(C(=O)[N-]c3cc(C(=O)/N=c4/[n-]nc(C5CC5)s4)ccc3C)c2)c1 (3D coordinates assigned)
CC(=O)c1c[nH]c(C(=O)Nc2cccc(C(=O)[N-]c3cc(C(=O)/N=c4/[n-]nc(C5CC5)s4)ccc3C)c2)c1 (nonaromatic ring conformer: 405.3651358687623 kcal/mol)

>  <smiles>  (32) 
CC(=O)c1c[nH]c(C(=O)Nc2cccc(C(=O)Nc3cc(C(=O)N=c4[nH]nc(C5CC5)s4)ccc3C)c2)c1

>  <score_type>  (32) 
oracle

>  <origin>  (32) 
adg

>  <m_score__min__energy>  (32) 
-13.15

>  <m_primary>  (32) 
energy

$$$$
32:0
     RDKit          3D

 42 44  0  0  0  0  0  0  0  0999 V2000
   55.5530   27.0830   45.6730 O   0  0  0  0  0  0  0  0  0  0  0  0
   56.2890   28.0500   45.3440 C   0  0  0  0  0  0  0  0  0  0  0  0
   55.7150   29.2780   44.8740 N   0  0  0  0  0  0  0  0  0  0  0  0
   56.3950   30.3370   44.1850 C   0  0  0  0  0  0  0  0  0  0  0  0
   56.4800   30.2820   42.7870 C   0  0  0  0  0  0  0  0  0  0  0  0
   57.1510   31.2830   42.0790 C   0  0  0  0  0  0  0  0  0  0  0  0
   57.7570   32.3390   42.7630 C   0  0  0  0  0  0  0  0  0  0  0  0
   57.7010   32.3900   44.1590 C   0  0  0  0  0  0  0  0  0  0  0  0
   58.5580   33.8180   45.0960 Br  0  0  0  0  0  0  0  0  0  0  0  0
   57.0290   31.3900   44.8710 C   0  0  0  0  0  0  0  0  0  0  0  0
   57.7090   27.9070   45.4540 N   0  0  0  0  0  0  0  0  0  0  0  0
   58.5180   28.3080   46.5700 C   0  0  0  0  0  0  0  0  0  0  0  0
   59.3680   27.4040   47.2330 C   0  0  0  0  0  0  0  0  0  0  0  0
   60.1300   27.8290   48.3240 C   0  0  0  0  0  0  0  0  0  0  0  0
   60.0330   29.1460   48.7790 C   0  0  0  0  0  0  0  0  0  0  0  0
   59.1510   30.0440   48.1590 C   0  0  0  0  0  0  0  0  0  0  0  0
   59.0400   31.4400   48.6280 C   0  0  0  0  0  0  0  0  0  0  0  0
   58.5830   32.3140   47.8450 O   0  0  0  0  0  0  0  0  0  0  0  0
   59.3990   31.8270   49.9610 N   0  0  0  0  0  0  0  0  0  0  0  0
   60.6350   32.5090   50.3260 C   0  0  0  0  0  0  0  0  0  0  0  0
   61.4970   32.6580   49.1060 C   0  0  0  0  0  0  0  0  0  0  0  0
   62.5180   31.7300   48.8420 C   0  0  0  0  0  0  0  0  0  0  0  0
   63.2990   31.8520   47.6880 C   0  0  0  0  0  0  0  0  0  0  0  0
   63.0580   32.8910   46.7850 C   0  0  0  0  0  0  0  0  0  0  0  0
   62.0320   33.8080   47.0330 C   0  0  0  0  0  0  0  0  0  0  0  0
   61.2490   33.6900   48.1860 C   0  0  0  0  0  0  0  0  0  0  0  0
   58.4040   29.6190   47.0480 C   0  0  0  0  0  0  0  0  0  0  0  0
   56.0157   29.4458   42.2437 H   0  0  0  0  0  0  0  0  0  0  0  0
   57.2018   31.2389   40.9811 H   0  0  0  0  0  0  0  0  0  0  0  0
   58.2780   33.1301   42.2038 H   0  0  0  0  0  0  0  0  0  0  0  0
   56.9962   31.4270   45.9699 H   0  0  0  0  0  0  0  0  0  0  0  0
   59.4327   26.3603   46.8916 H   0  0  0  0  0  0  0  0  0  0  0  0
   60.8087   27.1241   48.8264 H   0  0  0  0  0  0  0  0  0  0  0  0
   60.6500   29.4802   49.6261 H   0  0  0  0  0  0  0  0  0  0  0  0
   60.3997   33.5032   50.7336 H   0  0  0  0  0  0  0  0  0  0  0  0
   61.1701   31.9211   51.0863 H   0  0  0  0  0  0  0  0  0  0  0  0
   62.7039   30.9047   49.5451 H   0  0  0  0  0  0  0  0  0  0  0  0
   64.1042   31.1289   47.4909 H   0  0  0  0  0  0  0  0  0  0  0  0
   63.6752   32.9874   45.8796 H   0  0  0  0  0  0  0  0  0  0  0  0
   61.8403   34.6236   46.3202 H   0  0  0  0  0  0  0  0  0  0  0  0
   60.4365   34.4076   48.3728 H   0  0  0  0  0  0  0  0  0  0  0  0
   57.7225   30.3233   46.5484 H   0  0  0  0  0  0  0  0  0  0  0  0
  1  2  2  0
  2  3  1  0
  3  4  1  0
  4  5  2  0
  5  6  1  0
  6  7  2  0
  7  8  1  0
  8  9  1  0
  8 10  2  0
  2 11  1  0
 11 12  1  0
 12 13  2  0
 13 14  1  0
 14 15  2  0
 15 16  1  0
 16 17  1  0
 17 18  2  0
 17 19  1  0
 19 20  1  0
 20 21  1  0
 21 22  2  0
 22 23  1  0
 23 24  2  0
 24 25  1  0
 25 26  2  0
 16 27  2  0
 10  4  1  0
 27 12  1  0
 26 21  1  0
  5 28  1  0
  6 29  1  0
  7 30  1  0
 10 31  1  0
 13 32  1  0
 14 33  1  0
 15 34  1  0
 20 35  1  0
 20 36  1  0
 22 37  1  0
 23 38  1  0
 24 39  1  0
 25 40  1  0
 26 41  1  0
 27 42  1  0
M  CHG  3   3  -1  11  -1  19  -1
M  END
>  <UniqueID>  (33) 
32

>  <SMILES>  (33) 
O=C([N-]c1cccc(Br)c1)[N-]c1cccc(C(=O)[N-]Cc2ccccc2)c1

>  <Energy>  (33) 
54.9312010408731

>  <Genealogy>  (33) 
O=C([N-]c1cccc(Br)c1)[N-]c1cccc(C(=O)[N-]Cc2ccccc2)c1 (protonated)
O=C([N-]c1cccc(Br)c1)[N-]c1cccc(C(=O)[N-]Cc2ccccc2)c1 (3D coordinates assigned)
O=C([N-]c1cccc(Br)c1)[N-]c1cccc(C(=O)[N-]Cc2ccccc2)c1 (optimized conformer: 54.9312010408731 kcal/mol)

>  <smiles>  (33) 
O=C(Nc1cccc(Br)c1)Nc1cccc(C(=O)NCc2ccccc2)c1

>  <score_type>  (33) 
oracle

>  <origin>  (33) 
adg

>  <m_score__min__energy>  (33) 
-13.52

>  <m_primary>  (33) 
energy

$$$$
33:0
     RDKit          3D

 52 55  0  0  0  0  0  0  0  0999 V2000
   60.3860   33.7560   50.3680 C   0  0  0  0  0  0  0  0  0  0  0  0
   61.2850   33.3740   49.2230 C   0  0  0  0  0  0  0  0  0  0  0  0
   62.4180   34.1660   48.9590 C   0  0  0  0  0  0  0  0  0  0  0  0
   63.2880   33.8370   47.9190 C   0  0  0  0  0  0  0  0  0  0  0  0
   63.0430   32.7140   47.1320 C   0  0  0  0  0  0  0  0  0  0  0  0
   61.9260   31.9160   47.3790 C   0  0  0  0  0  0  0  0  0  0  0  0
   61.0310   32.2310   48.4200 C   0  0  0  0  0  0  0  0  0  0  0  0
   59.8220   31.3380   48.6340 C   0  0  0  0  0  0  0  0  0  0  0  0
   60.1140   29.9320   48.2800 N   0  0  0  0  0  0  0  0  0  0  0  0
   61.1430   29.2540   49.0870 C   0  0  0  0  0  0  0  0  0  0  0  0
   60.5850   27.9910   49.7190 C   0  0  0  0  0  0  0  0  0  0  0  0
   60.3940   26.7590   48.4140 S   0  0  0  0  0  0  0  0  0  0  0  0
   59.2360   27.7320   47.4380 C   0  0  0  0  0  0  0  0  0  0  0  0
   58.3240   27.0120   46.6570 C   0  0  0  0  0  0  0  0  0  0  0  0
   57.4840   27.6650   45.7600 C   0  0  0  0  0  0  0  0  0  0  0  0
   57.5400   29.0520   45.6340 C   0  0  0  0  0  0  0  0  0  0  0  0
   56.5390   29.8780   44.4400 S   0  0  0  0  0  0  0  0  0  0  0  0
   55.1370   29.3360   44.4900 O   0  0  0  0  0  0  0  0  0  0  0  0
   57.0930   29.6270   43.0660 O   0  0  0  0  0  0  0  0  0  0  0  0
   56.5220   31.5890   44.7370 N   0  0  0  0  0  0  0  0  0  0  0  0
   57.7120   32.2100   44.1600 C   0  0  0  0  0  0  0  0  0  0  0  0
   58.2980   33.1720   45.1500 C   0  0  0  0  0  0  0  0  0  0  0  0
   57.9210   33.1140   46.5020 C   0  0  0  0  0  0  0  0  0  0  0  0
   58.4450   34.0310   47.4200 C   0  0  0  0  0  0  0  0  0  0  0  0
   59.3380   35.0170   46.9910 C   0  0  0  0  0  0  0  0  0  0  0  0
   59.7060   35.0910   45.6450 C   0  0  0  0  0  0  0  0  0  0  0  0
   59.1840   34.1760   44.7250 C   0  0  0  0  0  0  0  0  0  0  0  0
   58.4190   29.7870   46.4380 C   0  0  0  0  0  0  0  0  0  0  0  0
   59.2680   29.1540   47.3750 C   0  0  0  0  0  0  0  0  0  0  0  0
   60.8931   33.5405   51.3200 H   0  0  0  0  0  0  0  0  0  0  0  0
   60.1551   34.8300   50.3104 H   0  0  0  0  0  0  0  0  0  0  0  0
   59.4527   33.1767   50.3104 H   0  0  0  0  0  0  0  0  0  0  0  0
   62.6195   35.0525   49.5782 H   0  0  0  0  0  0  0  0  0  0  0  0
   64.1687   34.4654   47.7202 H   0  0  0  0  0  0  0  0  0  0  0  0
   63.7318   32.4560   46.3141 H   0  0  0  0  0  0  0  0  0  0  0  0
   61.7419   31.0302   46.7534 H   0  0  0  0  0  0  0  0  0  0  0  0
   59.5260   31.3855   49.6924 H   0  0  0  0  0  0  0  0  0  0  0  0
   59.0108   31.6954   47.9827 H   0  0  0  0  0  0  0  0  0  0  0  0
   61.9923   28.9890   48.4401 H   0  0  0  0  0  0  0  0  0  0  0  0
   61.4697   29.9346   49.8870 H   0  0  0  0  0  0  0  0  0  0  0  0
   61.2793   27.6185   50.4866 H   0  0  0  0  0  0  0  0  0  0  0  0
   59.6163   28.1967   50.1980 H   0  0  0  0  0  0  0  0  0  0  0  0
   58.2708   25.9175   46.7535 H   0  0  0  0  0  0  0  0  0  0  0  0
   56.7752   27.0860   45.1498 H   0  0  0  0  0  0  0  0  0  0  0  0
   58.4525   31.4328   43.9202 H   0  0  0  0  0  0  0  0  0  0  0  0
   57.4380   32.7483   43.2407 H   0  0  0  0  0  0  0  0  0  0  0  0
   57.2112   32.3448   46.8403 H   0  0  0  0  0  0  0  0  0  0  0  0
   58.1541   33.9759   48.4794 H   0  0  0  0  0  0  0  0  0  0  0  0
   59.7516   35.7356   47.7139 H   0  0  0  0  0  0  0  0  0  0  0  0
   60.4067   35.8694   45.3088 H   0  0  0  0  0  0  0  0  0  0  0  0
   59.4683   34.2427   43.6645 H   0  0  0  0  0  0  0  0  0  0  0  0
   58.4500   30.8821   46.3386 H   0  0  0  0  0  0  0  0  0  0  0  0
  1  2  1  0
  2  3  2  0
  3  4  1  0
  4  5  2  0
  5  6  1  0
  6  7  2  0
  7  8  1  0
  8  9  1  0
  9 10  1  0
 10 11  1  0
 11 12  1  0
 12 13  1  0
 13 14  2  0
 14 15  1  0
 15 16  2  0
 16 17  1  0
 17 18  2  0
 17 19  2  0
 17 20  1  0
 20 21  1  0
 21 22  1  0
 22 23  2  0
 23 24  1  0
 24 25  2  0
 25 26  1  0
 26 27  2  0
 16 28  1  0
 28 29  2  0
  7  2  1  0
 29  9  1  0
 29 13  1  0
 27 22  1  0
  1 30  1  0
  1 31  1  0
  1 32  1  0
  3 33  1  0
  4 34  1  0
  5 35  1  0
  6 36  1  0
  8 37  1  0
  8 38  1  0
 10 39  1  0
 10 40  1  0
 11 41  1  0
 11 42  1  0
 14 43  1  0
 15 44  1  0
 21 45  1  0
 21 46  1  0
 23 47  1  0
 24 48  1  0
 25 49  1  0
 26 50  1  0
 27 51  1  0
 28 52  1  0
M  CHG  1  20  -1
M  END
>  <UniqueID>  (34) 
33

>  <SMILES>  (34) 
Cc1ccccc1CN1CCSc2ccc(S(=O)(=O)[N-]Cc3ccccc3)cc21

>  <Energy>  (34) 
64.11654157918963

>  <Genealogy>  (34) 
Cc1ccccc1CN1CCSc2ccc(S(=O)(=O)[N-]Cc3ccccc3)cc21 (protonated)
Cc1ccccc1CN1CCSc2ccc(S(=O)(=O)[N-]Cc3ccccc3)cc21 (3D coordinates assigned)
Cc1ccccc1CN1CCSc2ccc(S(=O)(=O)[N-]Cc3ccccc3)cc21 (nonaromatic ring conformer: 64.11654157918963 kcal/mol)

>  <smiles>  (34) 
Cc1ccccc1CN1CCSc2ccc(S(=O)(=O)NCc3ccccc3)cc21

>  <score_type>  (34) 
oracle

>  <origin>  (34) 
adg

>  <m_score__min__energy>  (34) 
-11.25

>  <m_primary>  (34) 
energy

$$$$
34:0
     RDKit          3D

 57 61  0  0  0  0  0  0  0  0999 V2000
   55.8980   25.6410   46.3900 O   0  0  0  0  0  0  0  0  0  0  0  0
   57.0450   26.0880   46.1110 C   0  0  0  0  0  0  0  0  0  0  0  0
   58.1380   25.1710   45.9330 N   0  0  0  0  0  0  0  0  0  0  0  0
   58.0010   23.7380   46.1790 C   0  0  0  0  0  0  0  0  0  0  0  0
   57.5380   23.0380   44.9320 C   0  0  0  0  0  0  0  0  0  0  0  0
   56.5070   23.5950   44.1560 C   0  0  0  0  0  0  0  0  0  0  0  0
   56.0650   22.9450   43.0000 C   0  0  0  0  0  0  0  0  0  0  0  0
   56.6400   21.7290   42.6170 C   0  0  0  0  0  0  0  0  0  0  0  0
   57.6570   21.1620   43.3910 C   0  0  0  0  0  0  0  0  0  0  0  0
   58.1050   21.8120   44.5450 C   0  0  0  0  0  0  0  0  0  0  0  0
   57.2370   27.5510   45.9610 C   0  0  0  0  0  0  0  0  0  0  0  0
   56.4390   28.3030   45.0860 C   0  0  0  0  0  0  0  0  0  0  0  0
   56.6480   29.6770   44.9410 C   0  0  0  0  0  0  0  0  0  0  0  0
   57.6530   30.3330   45.6670 C   0  0  0  0  0  0  0  0  0  0  0  0
   58.4640   29.5840   46.5370 C   0  0  0  0  0  0  0  0  0  0  0  0
   58.2550   28.2030   46.6780 C   0  0  0  0  0  0  0  0  0  0  0  0
   59.4770   30.2240   47.3110 N   0  0  0  0  0  0  0  0  0  0  0  0
   60.8930   29.9050   47.1260 C   0  0  0  0  0  0  0  0  0  0  0  0
   61.7460   30.9220   47.8300 C   0  0  0  0  0  0  0  0  0  0  0  0
   62.3280   31.9790   47.1110 C   0  0  0  0  0  0  0  0  0  0  0  0
   63.1820   32.8800   47.7530 C   0  0  0  0  0  0  0  0  0  0  0  0
   63.4580   32.7330   49.1140 C   0  0  0  0  0  0  0  0  0  0  0  0
   62.8840   31.6810   49.8350 C   0  0  0  0  0  0  0  0  0  0  0  0
   62.0340   30.7760   49.1960 C   0  0  0  0  0  0  0  0  0  0  0  0
   59.0800   31.2340   48.2340 C   0  0  0  0  0  0  0  0  0  0  0  0
   58.7680   30.9070   49.4110 O   0  0  0  0  0  0  0  0  0  0  0  0
   59.0910   32.6490   47.8390 C   0  0  0  0  0  0  0  0  0  0  0  0
   59.5550   33.5940   48.7710 C   0  0  0  0  0  0  0  0  0  0  0  0
   59.6730   34.9380   48.4220 C   0  0  0  0  0  0  0  0  0  0  0  0
   59.3240   35.3590   47.1420 C   0  0  0  0  0  0  0  0  0  0  0  0
   58.8390   34.4400   46.2140 C   0  0  0  0  0  0  0  0  0  0  0  0
   58.7040   33.0810   46.5450 C   0  0  0  0  0  0  0  0  0  0  0  0
   57.9800   32.0360   45.3000 S   0  0  0  0  0  0  0  0  0  0  0  0
   56.6640   32.6690   44.9350 O   0  0  0  0  0  0  0  0  0  0  0  0
   58.8760   32.0690   44.0930 O   0  0  0  0  0  0  0  0  0  0  0  0
   59.0420   25.5090   45.5360 H   0  0  0  0  0  0  0  0  0  0  0  0
   58.9744   23.3275   46.4857 H   0  0  0  0  0  0  0  0  0  0  0  0
   57.2585   23.5804   46.9752 H   0  0  0  0  0  0  0  0  0  0  0  0
   56.0459   24.5464   44.4596 H   0  0  0  0  0  0  0  0  0  0  0  0
   55.2643   23.3903   42.3912 H   0  0  0  0  0  0  0  0  0  0  0  0
   56.2921   21.2186   41.7068 H   0  0  0  0  0  0  0  0  0  0  0  0
   58.1053   20.2032   43.0916 H   0  0  0  0  0  0  0  0  0  0  0  0
   58.9043   21.3619   45.1521 H   0  0  0  0  0  0  0  0  0  0  0  0
   55.6434   27.8077   44.5101 H   0  0  0  0  0  0  0  0  0  0  0  0
   56.0159   30.2519   44.2482 H   0  0  0  0  0  0  0  0  0  0  0  0
   58.8963   27.6236   47.3585 H   0  0  0  0  0  0  0  0  0  0  0  0
   61.0987   28.9073   47.5410 H   0  0  0  0  0  0  0  0  0  0  0  0
   61.1284   29.9184   46.0516 H   0  0  0  0  0  0  0  0  0  0  0  0
   62.1109   32.0980   46.0392 H   0  0  0  0  0  0  0  0  0  0  0  0
   63.6370   33.7054   47.1859 H   0  0  0  0  0  0  0  0  0  0  0  0
   64.1272   33.4450   49.6192 H   0  0  0  0  0  0  0  0  0  0  0  0
   63.1024   31.5663   50.9070 H   0  0  0  0  0  0  0  0  0  0  0  0
   61.5888   29.9463   49.7647 H   0  0  0  0  0  0  0  0  0  0  0  0
   59.8276   33.2691   49.7860 H   0  0  0  0  0  0  0  0  0  0  0  0
   60.0422   35.6667   49.1586 H   0  0  0  0  0  0  0  0  0  0  0  0
   59.4312   36.4176   46.8631 H   0  0  0  0  0  0  0  0  0  0  0  0
   58.5576   34.7832   45.2075 H   0  0  0  0  0  0  0  0  0  0  0  0
  1  2  2  0
  2  3  1  0
  3  4  1  0
  4  5  1  0
  5  6  2  0
  6  7  1  0
  7  8  2  0
  8  9  1  0
  9 10  2  0
  2 11  1  0
 11 12  2  0
 12 13  1  0
 13 14  2  0
 14 15  1  0
 15 16  2  0
 15 17  1  0
 17 18  1  0
 18 19  1  0
 19 20  2  0
 20 21  1  0
 21 22  2  0
 22 23  1  0
 23 24  2  0
 17 25  1  0
 25 26  2  0
 25 27  1  0
 27 28  2  0
 28 29  1  0
 29 30  2  0
 30 31  1  0
 31 32  2  0
 32 33  1  0
 33 34  2  0
 33 35  2  0
 10  5  1  0
 16 11  1  0
 24 19  1  0
 32 27  1  0
 33 14  1  0
  3 36  1  0
  4 37  1  0
  4 38  1  0
  6 39  1  0
  7 40  1  0
  8 41  1  0
  9 42  1  0
 10 43  1  0
 12 44  1  0
 13 45  1  0
 16 46  1  0
 18 47  1  0
 18 48  1  0
 20 49  1  0
 21 50  1  0
 22 51  1  0
 23 52  1  0
 24 53  1  0
 28 54  1  0
 29 55  1  0
 30 56  1  0
 31 57  1  0
M  END
>  <UniqueID>  (35) 
34

>  <SMILES>  (35) 
O=C(NCc1ccccc1)c1ccc2c(c1)N(Cc1ccccc1)C(=O)c1ccccc1S2(=O)=O

>  <Energy>  (35) 
86.98079770452144

>  <Genealogy>  (35) 
O=C(NCc1ccccc1)c1ccc2c(c1)N(Cc1ccccc1)C(=O)c1ccccc1S2(=O)=O (3D coordinates assigned)
O=C(NCc1ccccc1)c1ccc2c(c1)N(Cc1ccccc1)C(=O)c1ccccc1S2(=O)=O (nonaromatic ring conformer: 86.98079770452144 kcal/mol)

>  <smiles>  (35) 
O=C(NCc1ccccc1)c1ccc2c(c1)N(Cc1ccccc1)C(=O)c1ccccc1S2(=O)=O

>  <score_type>  (35) 
oracle

>  <origin>  (35) 
adg

>  <m_score__min__energy>  (35) 
-9.8599999999999994

>  <m_primary>  (35) 
energy

$$$$
35:0
     RDKit          3D

 40 42  0  0  0  0  0  0  0  0999 V2000
   59.8944   31.3804   45.1612 H   0  0  0  0  0  0  0  0  0  0  0  0
   59.0720   30.6500   45.1750 C   0  0  0  0  0  0  0  0  0  0  0  0
   59.2060   29.5070   45.9010 N   0  0  0  0  0  0  0  0  0  0  0  0
   58.2180   28.5800   45.9400 C   0  0  0  0  0  0  0  0  0  0  0  0
   58.3510   27.4430   46.6590 N   0  0  0  0  0  0  0  0  0  0  0  0
   57.3580   26.5130   46.7020 C   0  0  0  0  0  0  0  0  0  0  0  0
   57.5670   25.4490   47.3410 O   0  0  0  0  0  0  0  0  0  0  0  0
   56.1360   26.7350   45.9940 C   0  0  0  0  0  0  0  0  0  0  0  0
   55.1330   25.8990   45.9950 N   0  0  0  0  0  0  0  0  0  0  0  0
   55.0470   24.5790   45.4330 C   0  0  0  0  0  0  0  0  0  0  0  0
   53.9300   24.0070   45.3030 O   0  0  0  0  0  0  0  0  0  0  0  0
   56.2800   23.9240   44.8930 C   0  0  0  0  0  0  0  0  0  0  0  0
   56.4238   22.9574   45.3981 H   0  0  0  0  0  0  0  0  0  0  0  0
   57.1373   24.5881   45.0772 H   0  0  0  0  0  0  0  0  0  0  0  0
   56.1640   23.6880   43.3880 C   0  0  0  0  0  0  0  0  0  0  0  0
   55.6855   22.7145   43.2053 H   0  0  0  0  0  0  0  0  0  0  0  0
   55.5554   24.4860   42.9376 H   0  0  0  0  0  0  0  0  0  0  0  0
   57.1675   23.6936   42.9376 H   0  0  0  0  0  0  0  0  0  0  0  0
   56.0060   27.8660   45.2430 N   0  0  0  0  0  0  0  0  0  0  0  0
   56.9830   28.8010   45.1850 C   0  0  0  0  0  0  0  0  0  0  0  0
   56.8480   29.9760   44.4500 C   0  0  0  0  0  0  0  0  0  0  0  0
   55.9265   30.1686   43.8810 H   0  0  0  0  0  0  0  0  0  0  0  0
   57.8950   30.9160   44.4380 C   0  0  0  0  0  0  0  0  0  0  0  0
   57.7620   32.1780   43.6740 C   0  0  0  0  0  0  0  0  0  0  0  0
   58.0040   32.1960   42.4350 O   0  0  0  0  0  0  0  0  0  0  0  0
   57.3770   33.3850   44.3440 N   0  0  0  0  0  0  0  0  0  0  0  0
   56.9790   33.4480   45.7450 C   0  0  0  0  0  0  0  0  0  0  0  0
   56.3361   34.3263   45.9042 H   0  0  0  0  0  0  0  0  0  0  0  0
   56.4256   32.5350   46.0099 H   0  0  0  0  0  0  0  0  0  0  0  0
   58.2030   33.5600   46.6100 C   0  0  0  0  0  0  0  0  0  0  0  0
   58.2510   32.8990   47.8520 C   0  0  0  0  0  0  0  0  0  0  0  0
   57.4172   32.2506   48.1590 H   0  0  0  0  0  0  0  0  0  0  0  0
   59.3520   33.0620   48.6970 C   0  0  0  0  0  0  0  0  0  0  0  0
   59.3850   32.5385   49.6639 H   0  0  0  0  0  0  0  0  0  0  0  0
   60.4130   33.8910   48.3140 C   0  0  0  0  0  0  0  0  0  0  0  0
   61.4690   34.0660   49.1440 F   0  0  0  0  0  0  0  0  0  0  0  0
   60.3710   34.5580   47.0820 C   0  0  0  0  0  0  0  0  0  0  0  0
   61.2040   35.2109   46.7824 H   0  0  0  0  0  0  0  0  0  0  0  0
   59.2730   34.3950   46.2340 C   0  0  0  0  0  0  0  0  0  0  0  0
   59.2440   34.9211   45.2684 H   0  0  0  0  0  0  0  0  0  0  0  0
  1  2  1  0
  2  3  1  0
  3  4  1  0
  4  5  2  0
  5  6  1  0
  6  7  2  0
  6  8  1  0
  8  9  2  0
  9 10  1  0
 10 11  2  0
 10 12  1  0
 12 13  1  0
 12 14  1  0
 12 15  1  0
 15 16  1  0
 15 17  1  0
 15 18  1  0
  8 19  1  0
 19 20  1  0
 20 21  2  0
 21 22  1  0
 21 23  1  0
 23 24  1  0
 24 25  2  0
 24 26  1  0
 26 27  1  0
 27 28  1  0
 27 29  1  0
 27 30  1  0
 30 31  2  0
 31 32  1  0
 31 33  1  0
 33 34  1  0
 33 35  2  0
 35 36  1  0
 35 37  1  0
 37 38  1  0
 37 39  2  0
 39 40  1  0
 23  2  2  0
 39 30  1  0
 20  4  1  0
M  CHG  3   3  -1  19  -1  26  -1
M  END
>  <UniqueID>  (36) 
35

>  <SMILES>  (36) 
CCC(=O)/N=c1/[n-]c2cc(C(=O)[N-]Cc3ccc(F)cc3)c[n-]c-2nc1=O

>  <Energy>  (36) 
53.77676530950857

>  <Genealogy>  (36) 
CCC(=O)N=c1[n-]c2cc(C(=O)[N-]Cc3ccc(F)cc3)c[n-]c-2nc1=O (protonated)
CCC(=O)/N=c1/[n-]c2cc(C(=O)[N-]Cc3ccc(F)cc3)c[n-]c-2nc1=O (cis-trans isomerization)
CCC(=O)/N=c1/[n-]c2cc(C(=O)[N-]Cc3ccc(F)cc3)c[n-]c-2nc1=O (3D coordinates assigned)
CCC(=O)/N=c1/[n-]c2cc(C(=O)[N-]Cc3ccc(F)cc3)c[n-]c-2nc1=O (optimized conformer: 53.77676530950857 kcal/mol)

>  <smiles>  (36) 
CCC(=O)N=c1[nH]c2cc(C(=O)NCc3ccc(F)cc3)c[nH]c-2nc1=O

>  <score_type>  (36) 
oracle

>  <origin>  (36) 
adg

>  <m_score__min__energy>  (36) 
-12.26

>  <m_primary>  (36) 
energy

$$$$
36:0
     RDKit          3D

 37 39  0  0  0  0  0  0  0  0999 V2000
   55.6700   26.6470   46.0080 O   0  0  0  0  0  0  0  0  0  0  0  0
   56.6330   27.4540   45.9260 C   0  0  0  0  0  0  0  0  0  0  0  0
   57.9000   27.1190   46.5000 N   0  0  0  0  0  0  0  0  0  0  0  0
   58.8100   26.1290   45.9320 C   0  0  0  0  0  0  0  0  0  0  0  0
   58.0440   25.1240   45.1050 C   0  0  0  0  0  0  0  0  0  0  0  0
   57.6610   23.9120   45.7080 C   0  0  0  0  0  0  0  0  0  0  0  0
   56.9660   22.9430   44.9810 C   0  0  0  0  0  0  0  0  0  0  0  0
   56.6450   23.1720   43.6420 C   0  0  0  0  0  0  0  0  0  0  0  0
   57.0180   24.3690   43.0290 C   0  0  0  0  0  0  0  0  0  0  0  0
   57.7160   25.3480   43.7480 C   0  0  0  0  0  0  0  0  0  0  0  0
   58.1480   26.8340   42.9050 Cl  0  0  0  0  0  0  0  0  0  0  0  0
   56.4620   28.7660   45.2790 C   0  0  0  0  0  0  0  0  0  0  0  0
   55.3420   29.1030   44.6150 N   0  0  0  0  0  0  0  0  0  0  0  0
   55.6040   30.3300   44.1190 C   0  0  0  0  0  0  0  0  0  0  0  0
   56.8310   30.7900   44.4360 N   0  0  0  0  0  0  0  0  0  0  0  0
   57.3760   29.8030   45.1700 C   0  0  0  0  0  0  0  0  0  0  0  0
   58.7110   29.9160   45.7930 C   0  0  0  0  0  0  0  0  0  0  0  0
   59.6360   29.1410   45.4350 O   0  0  0  0  0  0  0  0  0  0  0  0
   58.9490   30.8120   46.8860 N   0  0  0  0  0  0  0  0  0  0  0  0
   59.0500   32.2410   46.8030 C   0  0  0  0  0  0  0  0  0  0  0  0
   59.5290   32.9510   47.9130 C   0  0  0  0  0  0  0  0  0  0  0  0
   59.6610   34.3420   47.8580 C   0  0  0  0  0  0  0  0  0  0  0  0
   59.3310   35.0310   46.6880 C   0  0  0  0  0  0  0  0  0  0  0  0
   58.8780   34.3280   45.5680 C   0  0  0  0  0  0  0  0  0  0  0  0
   58.7450   32.9370   45.6190 C   0  0  0  0  0  0  0  0  0  0  0  0
   59.5466   26.6381   45.2931 H   0  0  0  0  0  0  0  0  0  0  0  0
   59.3208   25.6020   46.7513 H   0  0  0  0  0  0  0  0  0  0  0  0
   57.9115   23.7257   46.7628 H   0  0  0  0  0  0  0  0  0  0  0  0
   56.6716   21.9994   45.4636 H   0  0  0  0  0  0  0  0  0  0  0  0
   56.0977   22.4085   43.0696 H   0  0  0  0  0  0  0  0  0  0  0  0
   56.7621   24.5450   41.9738 H   0  0  0  0  0  0  0  0  0  0  0  0
   54.8848   30.9009   43.5134 H   0  0  0  0  0  0  0  0  0  0  0  0
   59.8023   32.4112   48.8316 H   0  0  0  0  0  0  0  0  0  0  0  0
   60.0250   34.8945   48.7368 H   0  0  0  0  0  0  0  0  0  0  0  0
   59.4277   36.1260   46.6484 H   0  0  0  0  0  0  0  0  0  0  0  0
   58.6256   34.8701   44.6447 H   0  0  0  0  0  0  0  0  0  0  0  0
   58.4011   32.3857   44.7314 H   0  0  0  0  0  0  0  0  0  0  0  0
  1  2  2  0
  2  3  1  0
  3  4  1  0
  4  5  1  0
  5  6  2  0
  6  7  1  0
  7  8  2  0
  8  9  1  0
  9 10  2  0
 10 11  1  0
  2 12  1  0
 12 13  1  0
 13 14  2  0
 14 15  1  0
 15 16  1  0
 16 17  1  0
 17 18  2  0
 17 19  1  0
 19 20  1  0
 20 21  2  0
 21 22  1  0
 22 23  2  0
 23 24  1  0
 24 25  2  0
 10  5  1  0
 16 12  2  0
 25 20  1  0
  4 26  1  0
  4 27  1  0
  6 28  1  0
  7 29  1  0
  8 30  1  0
  9 31  1  0
 14 32  1  0
 21 33  1  0
 22 34  1  0
 23 35  1  0
 24 36  1  0
 25 37  1  0
M  CHG  3   3  -1  15  -1  19  -1
M  END
>  <UniqueID>  (37) 
36

>  <SMILES>  (37) 
O=C([N-]Cc1ccccc1Cl)c1nc[n-]c1C(=O)[N-]c1ccccc1

>  <Energy>  (37) 
74.43478591094357

>  <Genealogy>  (37) 
O=C([N-]Cc1ccccc1Cl)c1nc[n-]c1C(=O)[N-]c1ccccc1 (protonated)
O=C([N-]Cc1ccccc1Cl)c1nc[n-]c1C(=O)[N-]c1ccccc1 (3D coordinates assigned)
O=C([N-]Cc1ccccc1Cl)c1nc[n-]c1C(=O)[N-]c1ccccc1 (optimized conformer: 74.43478591094357 kcal/mol)

>  <smiles>  (37) 
O=C(NCc1ccccc1Cl)c1nc[nH]c1C(=O)Nc1ccccc1

>  <score_type>  (37) 
oracle

>  <origin>  (37) 
adg

>  <m_score__min__energy>  (37) 
-12.99

>  <m_primary>  (37) 
energy

$$$$
37:0
     RDKit          3D

 33 34  0  0  1  0  0  0  0  0999 V2000
   56.0720   22.9160   43.0270 C   0  0  0  0  0  0  0  0  0  0  0  0
   57.0390   23.4630   43.7670 C   0  0  0  0  0  0  0  0  0  0  0  0
   57.6200   22.6430   44.8750 C   0  0  0  0  0  0  0  0  0  0  0  0
   57.0680   23.4120   46.4190 S   0  0  0  0  0  0  0  0  0  0  0  0
   56.8710   25.1500   46.1390 C   0  0  0  0  0  0  0  0  0  0  0  0
   55.6960   25.7960   46.2440 N   0  0  0  0  0  0  0  0  0  0  0  0
   55.8450   27.0780   45.9770 N   0  0  0  0  0  0  0  0  0  0  0  0
   57.1420   27.3020   45.6860 C   0  0  0  0  0  0  0  0  0  0  0  0
   57.7520   28.3740   45.3690 N   0  0  0  0  0  0  0  0  0  0  0  0
   57.0570   29.4620   44.7690 C   0  0  0  0  0  0  0  0  0  0  0  0
   55.8220   29.5310   44.9810 O   0  0  0  0  0  0  0  0  0  0  0  0
   57.7320   30.4840   43.9210 C   0  0  0  0  0  0  0  0  0  0  0  0
   57.8590   31.7170   44.7780 C   0  0  0  0  0  0  0  0  0  0  0  0
   58.1360   31.5980   46.1260 C   0  0  0  0  0  0  0  0  0  0  0  0
   58.2380   32.7690   46.8450 C   0  0  0  0  0  0  0  0  0  0  0  0
   58.0750   34.0120   46.2630 C   0  0  0  0  0  0  0  0  0  0  0  0
   57.7970   34.0910   44.9080 C   0  0  0  0  0  0  0  0  0  0  0  0
   57.6880   32.9330   44.1600 C   0  0  0  0  0  0  0  0  0  0  0  0
   57.7640   26.0910   45.7920 N   0  0  0  0  0  0  0  0  0  0  0  0
   55.6199   23.4877   42.2031 H   0  0  0  0  0  0  0  0  0  0  0  0
   55.7273   21.8936   43.2411 H   0  0  0  0  0  0  0  0  0  0  0  0
   57.3971   24.4839   43.5684 H   0  0  0  0  0  0  0  0  0  0  0  0
   57.2554   21.6070   44.8138 H   0  0  0  0  0  0  0  0  0  0  0  0
   58.7179   22.6098   44.8148 H   0  0  0  0  0  0  0  0  0  0  0  0
   55.1410   27.8450   45.9680 H   0  0  0  0  0  0  0  0  0  0  0  0
   58.7264   30.1286   43.6129 H   0  0  0  0  0  0  0  0  0  0  0  0
   57.1599   30.6881   43.0039 H   0  0  0  0  0  0  0  0  0  0  0  0
   58.2688   30.6156   46.6026 H   0  0  0  0  0  0  0  0  0  0  0  0
   58.4571   32.7125   47.9215 H   0  0  0  0  0  0  0  0  0  0  0  0
   58.1648   34.9265   46.8677 H   0  0  0  0  0  0  0  0  0  0  0  0
   57.6634   35.0720   44.4286 H   0  0  0  0  0  0  0  0  0  0  0  0
   57.4672   32.9843   43.0836 H   0  0  0  0  0  0  0  0  0  0  0  0
   58.7790   25.9220   45.6300 H   0  0  0  0  0  0  0  0  0  0  0  0
  1  2  2  0
  2  3  1  0
  3  4  1  0
  4  5  1  0
  5  6  2  0
  6  7  1  0
  7  8  1  0
  8  9  2  0
  9 10  1  0
 10 11  2  0
 10 12  1  0
 12 13  1  0
 13 14  2  0
 14 15  1  0
 15 16  2  0
 16 17  1  0
 17 18  2  0
  8 19  1  0
 19  5  1  0
 18 13  1  0
  1 20  1  0
  1 21  1  0
  2 22  1  0
  3 23  1  0
  3 24  1  0
  7 25  1  0
 12 26  1  0
 12 27  1  0
 14 28  1  0
 15 29  1  0
 16 30  1  0
 17 31  1  0
 18 32  1  0
 19 33  1  0
M  END
>  <smiles>  (38) 
C=CCSc1n[nH]c(=NC(=O)Cc2ccccc2)[nH]1

>  <score_type>  (38) 
oracle

>  <origin>  (38) 
adg

>  <m_score__min__energy>  (38) 
-7.5099999999999998

>  <m_primary>  (38) 
energy

$$$$
38:0
     RDKit          3D

 87 92  0  0  0  0  0  0  0  0999 V2000
   64.2017   31.1234   46.8848 H   0  0  0  0  0  0  0  0  0  0  0  0
   63.3050   31.7080   47.1380 C   0  0  0  0  0  0  0  0  0  0  0  0
   63.3950   33.0950   47.2940 C   0  0  0  0  0  0  0  0  0  0  0  0
   64.3626   33.6009   47.1606 H   0  0  0  0  0  0  0  0  0  0  0  0
   62.2580   33.8390   47.6190 C   0  0  0  0  0  0  0  0  0  0  0  0
   62.3353   34.9283   47.7509 H   0  0  0  0  0  0  0  0  0  0  0  0
   61.0160   33.2010   47.7780 C   0  0  0  0  0  0  0  0  0  0  0  0
   59.8040   34.0020   48.1690 C   0  0  0  0  0  0  0  0  0  0  0  0
   58.9004   33.3934   48.0166 H   0  0  0  0  0  0  0  0  0  0  0  0
   59.7533   34.9075   47.5464 H   0  0  0  0  0  0  0  0  0  0  0  0
   59.8940   34.3900   49.5720 N   0  0  0  0  0  0  0  0  0  0  0  0
   59.3570   33.6080   50.6470 C   0  0  0  0  0  0  0  0  0  0  0  0
   58.7600   34.1760   51.6020 O   0  0  0  0  0  0  0  0  0  0  0  0
   59.5300   32.1140   50.6820 C   0  0  0  0  0  0  0  0  0  0  0  0
   60.3500   31.8444   50.0002 H   0  0  0  0  0  0  0  0  0  0  0  0
   59.7419   31.8419   51.7265 H   0  0  0  0  0  0  0  0  0  0  0  0
   58.2660   31.3250   50.2600 C   0  0  1  0  0  0  0  0  0  0  0  0
   57.4952   32.0716   50.0182 H   0  0  0  0  0  0  0  0  0  0  0  0
   58.5300   30.5130   49.0620 N   0  0  0  0  0  0  0  0  0  0  0  0
   59.1860   29.3900   49.0070 C   0  0  0  0  0  0  0  0  0  0  0  0
   58.9640   28.5430   47.9720 N   0  0  0  0  0  0  0  0  0  0  0  0
   59.6150   27.3550   47.9030 C   0  0  0  0  0  0  0  0  0  0  0  0
   59.3870   26.5600   46.8990 N   0  0  0  0  0  0  0  0  0  0  0  0
   58.9200   26.9960   45.5810 C   0  0  0  0  0  0  0  0  0  0  0  0
   59.1535   26.1848   44.8757 H   0  0  0  0  0  0  0  0  0  0  0  0
   59.6200   28.3050   45.1380 C   0  0  0  0  0  0  0  0  0  0  0  0
   60.1839   28.7488   45.9717 H   0  0  0  0  0  0  0  0  0  0  0  0
   60.3495   28.1438   44.3307 H   0  0  0  0  0  0  0  0  0  0  0  0
   58.5020   29.1860   44.7300 C   0  0  0  0  0  0  0  0  0  0  0  0
   58.6020   30.4580   44.1580 C   0  0  0  0  0  0  0  0  0  0  0  0
   59.5864   30.9023   43.9492 H   0  0  0  0  0  0  0  0  0  0  0  0
   57.4230   31.1580   43.8550 C   0  0  0  0  0  0  0  0  0  0  0  0
   57.4795   32.1595   43.4036 H   0  0  0  0  0  0  0  0  0  0  0  0
   56.1690   30.5800   44.1280 C   0  0  0  0  0  0  0  0  0  0  0  0
   55.2472   31.1283   43.8837 H   0  0  0  0  0  0  0  0  0  0  0  0
   56.0920   29.3060   44.7110 C   0  0  0  0  0  0  0  0  0  0  0  0
   55.1161   28.8516   44.9372 H   0  0  0  0  0  0  0  0  0  0  0  0
   57.2780   28.6250   44.9990 C   0  0  0  0  0  0  0  0  0  0  0  0
   57.4020   27.2850   45.6190 C   0  0  0  0  0  0  0  0  0  0  0  0
   57.0319   27.2974   46.6548 H   0  0  0  0  0  0  0  0  0  0  0  0
   56.8114   26.5191   45.0949 H   0  0  0  0  0  0  0  0  0  0  0  0
   60.4890   27.0090   48.8850 N   0  0  0  0  0  0  0  0  0  0  0  0
   60.7180   27.8470   49.9250 C   0  0  0  0  0  0  0  0  0  0  0  0
   61.5520   27.4910   50.8560 N   0  0  0  0  0  0  0  0  0  0  0  0
   61.9310   28.3100   52.0080 C   0  0  0  0  0  0  0  0  0  0  0  0
   61.3429   29.2395   51.9961 H   0  0  0  0  0  0  0  0  0  0  0  0
   61.7307   27.7352   52.9243 H   0  0  0  0  0  0  0  0  0  0  0  0
   63.4230   28.6620   51.9730 C   0  0  0  0  0  0  0  0  0  0  0  0
   63.8293   28.5980   52.9932 H   0  0  0  0  0  0  0  0  0  0  0  0
   63.9297   27.9507   51.3042 H   0  0  0  0  0  0  0  0  0  0  0  0
   63.6500   30.0540   51.4420 C   0  0  0  0  0  0  0  0  0  0  0  0
   62.5570   30.8760   51.1130 C   0  0  0  0  0  0  0  0  0  0  0  0
   61.5314   30.4917   51.2150 H   0  0  0  0  0  0  0  0  0  0  0  0
   62.7710   32.1820   50.6560 C   0  0  0  0  0  0  0  0  0  0  0  0
   61.9145   32.8182   50.3881 H   0  0  0  0  0  0  0  0  0  0  0  0
   64.0740   32.6780   50.5400 C   0  0  0  0  0  0  0  0  0  0  0  0
   64.2406   33.7050   50.1829 H   0  0  0  0  0  0  0  0  0  0  0  0
   65.1650   31.8710   50.8770 C   0  0  0  0  0  0  0  0  0  0  0  0
   66.1884   32.2642   50.7874 H   0  0  0  0  0  0  0  0  0  0  0  0
   64.9550   30.5640   51.3280 C   0  0  0  0  0  0  0  0  0  0  0  0
   65.8150   29.9321   51.5948 H   0  0  0  0  0  0  0  0  0  0  0  0
   60.0680   29.0400   49.9820 N   0  0  0  0  0  0  0  0  0  0  0  0
   57.7060   30.4690   51.3800 C   0  0  0  0  0  0  0  0  0  0  0  0
   56.4770   30.5070   51.6560 O   0  0  0  0  0  0  0  0  0  0  0  0
   58.5720   29.5940   52.1100 N   0  0  0  0  0  0  0  0  0  0  0  0
   59.5750   29.5230   51.8220 H   0  0  0  0  0  0  0  0  0  0  0  0
   58.1050   28.8800   53.2970 C   0  0  0  0  0  0  0  0  0  0  0  0
   57.0278   29.0619   53.4259 H   0  0  0  0  0  0  0  0  0  0  0  0
   58.3002   27.8062   53.1600 H   0  0  0  0  0  0  0  0  0  0  0  0
   58.8460   29.3550   54.5480 C   0  0  0  0  0  0  0  0  0  0  0  0
   58.1533   29.3503   55.4025 H   0  0  0  0  0  0  0  0  0  0  0  0
   59.6903   28.6766   54.7401 H   0  0  0  0  0  0  0  0  0  0  0  0
   59.3780   30.7500   54.3490 C   0  0  0  0  0  0  0  0  0  0  0  0
   58.5400   31.8600   54.5520 C   0  0  0  0  0  0  0  0  0  0  0  0
   57.4880   31.7090   54.8357 H   0  0  0  0  0  0  0  0  0  0  0  0
   59.0410   33.1560   54.3940 C   0  0  0  0  0  0  0  0  0  0  0  0
   58.3809   34.0227   54.5458 H   0  0  0  0  0  0  0  0  0  0  0  0
   60.3810   33.3510   54.0430 C   0  0  0  0  0  0  0  0  0  0  0  0
   60.7729   34.3710   53.9165 H   0  0  0  0  0  0  0  0  0  0  0  0
   61.2220   32.2520   53.8530 C   0  0  0  0  0  0  0  0  0  0  0  0
   62.2757   32.4075   53.5780 H   0  0  0  0  0  0  0  0  0  0  0  0
   60.7260   30.9550   54.0120 C   0  0  0  0  0  0  0  0  0  0  0  0
   61.3936   30.0919   53.8727 H   0  0  0  0  0  0  0  0  0  0  0  0
   60.9330   31.8070   47.6210 C   0  0  0  0  0  0  0  0  0  0  0  0
   59.9663   31.2978   47.7479 H   0  0  0  0  0  0  0  0  0  0  0  0
   62.0750   31.0650   47.3040 C   0  0  0  0  0  0  0  0  0  0  0  0
   62.0053   29.9737   47.1851 H   0  0  0  0  0  0  0  0  0  0  0  0
  1  2  1  0
  2  3  2  0
  3  4  1  0
  3  5  1  0
  5  6  1  0
  5  7  2  0
  7  8  1  0
  8  9  1  0
  8 10  1  0
  8 11  1  0
 11 12  1  0
 12 13  2  0
 12 14  1  0
 14 15  1  0
 14 16  1  0
 14 17  1  0
 17 18  1  6
 17 19  1  0
 19 20  2  3
 20 21  1  0
 21 22  1  0
 22 23  2  3
 23 24  1  0
 24 25  1  0
 24 26  1  0
 26 27  1  0
 26 28  1  0
 26 29  1  0
 29 30  2  0
 30 31  1  0
 30 32  1  0
 32 33  1  0
 32 34  2  0
 34 35  1  0
 34 36  1  0
 36 37  1  0
 36 38  2  0
 38 39  1  0
 39 40  1  0
 39 41  1  0
 22 42  1  0
 42 43  1  0
 43 44  2  0
 44 45  1  0
 45 46  1  0
 45 47  1  0
 45 48  1  0
 48 49  1  0
 48 50  1  0
 48 51  1  0
 51 52  2  0
 52 53  1  0
 52 54  1  0
 54 55  1  0
 54 56  2  0
 56 57  1  0
 56 58  1  0
 58 59  1  0
 58 60  2  0
 60 61  1  0
 43 62  1  0
 17 63  1  0
 63 64  2  0
 63 65  1  0
 65 66  1  0
 65 67  1  0
 67 68  1  0
 67 69  1  0
 67 70  1  0
 70 71  1  0
 70 72  1  0
 70 73  1  0
 73 74  2  0
 74 75  1  0
 74 76  1  0
 76 77  1  0
 76 78  2  0
 78 79  1  0
 78 80  1  0
 80 81  1  0
 80 82  2  0
 82 83  1  0
  7 84  1  0
 84 85  1  0
 84 86  2  0
 86 87  1  0
 86  2  1  0
 62 20  1  0
 82 73  1  0
 39 24  1  0
 60 51  1  0
 38 29  1  0
M  CHG  4  11  -1  21  -1  42  -1  62  -1
M  END
>  <UniqueID>  (39) 
37

>  <SMILES>  (39) 
O=C(C[C@@H](N=c1[n-]c(=NC2Cc3ccccc3C2)[n-]/c(=N/CCc2ccccc2)[n-]1)C(=O)NCCc1ccccc1)[N-]Cc1ccccc1

>  <Energy>  (39) 
91.6525945510596

>  <Genealogy>  (39) 
O=C(CC(N=c1[n-]c(=NCCc2ccccc2)[n-]c(=NC2Cc3ccccc3C2)[n-]1)C(=O)NCCc1ccccc1)[N-]Cc1ccccc1 (protonated)
O=C(C[C@@H](N=c1[n-]c(=NCCc2ccccc2)[n-]c(=NC2Cc3ccccc3C2)[n-]1)C(=O)NCCc1ccccc1)[N-]Cc1ccccc1 (chirality)
O=C(C[C@@H](N=c1[n-]c(=NC2Cc3ccccc3C2)[n-]/c(=N/CCc2ccccc2)[n-]1)C(=O)NCCc1ccccc1)[N-]Cc1ccccc1 (cis-trans isomerization)
O=C(C[C@@H](N=c1[n-]c(=NC2Cc3ccccc3C2)[n-]/c(=N/CCc2ccccc2)[n-]1)C(=O)NCCc1ccccc1)[N-]Cc1ccccc1 (3D coordinates assigned)
O=C(C[C@@H](N=c1[n-]c(=NC2Cc3ccccc3C2)[n-]/c(=N/CCc2ccccc2)[n-]1)C(=O)NCCc1ccccc1)[N-]Cc1ccccc1 (nonaromatic ring conformer: 91.6525945510596 kcal/mol)

>  <smiles>  (39) 
O=C(CC(N=c1[nH]c(=NCCc2ccccc2)[nH]c(=NC2Cc3ccccc3C2)[nH]1)C(=O)NCCc1ccccc1)NCc1ccccc1

>  <score_type>  (39) 
oracle

>  <origin>  (39) 
adg

>  <m_score__min__energy>  (39) 
-16.390000000000001

>  <m_primary>  (39) 
energy

$$$$
39:0
     RDKit          3D

 43 46  0  0  0  0  0  0  0  0999 V2000
   64.8650   32.7910   47.0770 H   0  0  0  0  0  0  0  0  0  0  0  0
   64.4950   33.3970   47.8450 N   0  0  0  0  0  0  0  0  0  0  0  0
   63.2530   33.3540   48.2000 C   0  0  0  0  0  0  0  0  0  0  0  0
   62.4460   32.3770   47.7120 N   0  0  0  0  0  0  0  0  0  0  0  0
   61.1320   32.2940   48.0650 C   0  0  0  0  0  0  0  0  0  0  0  0
   60.2920   31.2080   47.4970 C   0  0  0  0  0  0  0  0  0  0  0  0
   60.3700   29.8920   47.9850 C   0  0  0  0  0  0  0  0  0  0  0  0
   61.0682   29.6542   48.8011 H   0  0  0  0  0  0  0  0  0  0  0  0
   59.5700   28.8840   47.4440 C   0  0  0  0  0  0  0  0  0  0  0  0
   59.6482   27.8590   47.8354 H   0  0  0  0  0  0  0  0  0  0  0  0
   58.6650   29.1640   46.4040 C   0  0  0  0  0  0  0  0  0  0  0  0
   58.6280   30.4690   45.8690 C   0  0  0  0  0  0  0  0  0  0  0  0
   59.4220   31.4820   46.4290 C   0  0  0  0  0  0  0  0  0  0  0  0
   59.3621   32.5038   46.0261 H   0  0  0  0  0  0  0  0  0  0  0  0
   57.7000   30.7900   44.7310 C   0  0  0  0  0  0  0  0  0  0  0  0
   56.7251   31.1007   45.1348 H   0  0  0  0  0  0  0  0  0  0  0  0
   58.1373   31.6025   44.1322 H   0  0  0  0  0  0  0  0  0  0  0  0
   57.5080   29.5650   43.8390 C   0  0  0  0  0  0  0  0  0  0  0  0
   56.7869   29.8047   43.0437 H   0  0  0  0  0  0  0  0  0  0  0  0
   58.4770   29.2880   43.3981 H   0  0  0  0  0  0  0  0  0  0  0  0
   56.9800   28.3870   44.6610 C   0  0  0  0  0  0  0  0  0  0  0  0
   55.9543   28.6127   44.9881 H   0  0  0  0  0  0  0  0  0  0  0  0
   57.0047   27.4893   44.0258 H   0  0  0  0  0  0  0  0  0  0  0  0
   57.8120   28.1300   45.8470 N   0  0  0  0  0  0  0  0  0  0  0  0
   57.5760   26.8960   46.5490 C   0  0  0  0  0  0  0  0  0  0  0  0
   57.8000   26.8470   47.7890 O   0  0  0  0  0  0  0  0  0  0  0  0
   57.1250   25.6770   45.8280 C   0  0  0  0  0  0  0  0  0  0  0  0
   58.0730   24.7410   45.3760 C   0  0  0  0  0  0  0  0  0  0  0  0
   59.1430   24.9162   45.5613 H   0  0  0  0  0  0  0  0  0  0  0  0
   57.6680   23.5910   44.6940 C   0  0  0  0  0  0  0  0  0  0  0  0
   58.4198   22.8692   44.3421 H   0  0  0  0  0  0  0  0  0  0  0  0
   56.3100   23.3540   44.4570 C   0  0  0  0  0  0  0  0  0  0  0  0
   55.8950   22.2100   43.7790 O   0  0  0  0  0  0  0  0  0  0  0  0
   55.0840   22.2200   43.1710 H   0  0  0  0  0  0  0  0  0  0  0  0
   55.3580   24.2740   44.9050 C   0  0  0  0  0  0  0  0  0  0  0  0
   54.2894   24.0877   44.7221 H   0  0  0  0  0  0  0  0  0  0  0  0
   55.7560   25.4310   45.5850 C   0  0  0  0  0  0  0  0  0  0  0  0
   54.7820   26.3330   46.0000 O   0  0  0  0  0  0  0  0  0  0  0  0
   60.6050   33.2540   48.9430 C   0  0  0  0  0  0  0  0  0  0  0  0
   59.5459   33.2211   49.2384 H   0  0  0  0  0  0  0  0  0  0  0  0
   61.4480   34.2500   49.4340 C   0  0  0  0  0  0  0  0  0  0  0  0
   61.0564   35.0100   50.1262 H   0  0  0  0  0  0  0  0  0  0  0  0
   62.7520   34.2820   49.0580 N   0  0  0  0  0  0  0  0  0  0  0  0
  1  2  1  0
  2  3  2  0
  3  4  1  0
  4  5  2  0
  5  6  1  0
  6  7  2  0
  7  8  1  0
  7  9  1  0
  9 10  1  0
  9 11  2  0
 11 12  1  0
 12 13  2  0
 13 14  1  0
 12 15  1  0
 15 16  1  0
 15 17  1  0
 15 18  1  0
 18 19  1  0
 18 20  1  0
 18 21  1  0
 21 22  1  0
 21 23  1  0
 21 24  1  0
 24 25  1  0
 25 26  2  0
 25 27  1  0
 27 28  2  0
 28 29  1  0
 28 30  1  0
 30 31  1  0
 30 32  2  0
 32 33  1  0
 33 34  1  0
 32 35  1  0
 35 36  1  0
 35 37  2  0
 37 38  1  0
  5 39  1  0
 39 40  1  0
 39 41  2  0
 41 42  1  0
 41 43  1  0
 43  3  1  0
 13  6  1  0
 37 27  1  0
 24 11  1  0
M  CHG  2  38  -1  43  -1
M  END
>  <UniqueID>  (40) 
38

>  <SMILES>  (40) 
[H]/N=c1/nc(-c2ccc3c(c2)CCCN3C(=O)c2ccc(O)cc2[O-])cc[n-]1

>  <Energy>  (40) 
60.60917649424932

>  <Genealogy>  (40) 
N=c1nc(-c2ccc3c(c2)CCCN3C(=O)c2ccc(O)cc2[O-])cc[n-]1 (protonated)
[H]/N=c1/nc(-c2ccc3c(c2)CCCN3C(=O)c2ccc(O)cc2[O-])cc[n-]1 (cis-trans isomerization)
[H]/N=c1/nc(-c2ccc3c(c2)CCCN3C(=O)c2ccc(O)cc2[O-])cc[n-]1 (3D coordinates assigned)
[H]/N=c1/nc(-c2ccc3c(c2)CCCN3C(=O)c2ccc(O)cc2[O-])cc[n-]1 (nonaromatic ring conformer: 60.60917649424932 kcal/mol)

>  <smiles>  (40) 
N=c1nc(-c2ccc3c(c2)CCCN3C(=O)c2ccc(O)cc2O)cc[nH]1

>  <score_type>  (40) 
oracle

>  <origin>  (40) 
adg

>  <m_score__min__energy>  (40) 
-13.27

>  <m_primary>  (40) 
energy

$$$$
40:0
     RDKit          3D

 53 55  0  0  0  0  0  0  0  0999 V2000
   60.6540   28.9040   48.8630 C   0  0  0  0  0  0  0  0  0  0  0  0
   60.8380   29.4200   47.5100 N   0  0  0  0  0  0  0  0  0  0  0  0
   61.1850   30.7950   47.3070 C   0  0  0  0  0  0  0  0  0  0  0  0
   62.5140   31.2130   47.4630 C   0  0  0  0  0  0  0  0  0  0  0  0
   62.8550   32.5560   47.2640 C   0  0  0  0  0  0  0  0  0  0  0  0
   61.8720   33.4820   46.9040 C   0  0  0  0  0  0  0  0  0  0  0  0
   60.5460   33.0680   46.7410 C   0  0  0  0  0  0  0  0  0  0  0  0
   60.2010   31.7280   46.9430 C   0  0  0  0  0  0  0  0  0  0  0  0
   60.4650   28.4150   46.1420 S   0  0  0  0  0  0  0  0  0  0  0  0
   61.3450   28.7690   44.9770 O   0  0  0  0  0  0  0  0  0  0  0  0
   60.7040   26.9720   46.4940 O   0  0  0  0  0  0  0  0  0  0  0  0
   58.7810   28.6740   45.7050 C   0  0  0  0  0  0  0  0  0  0  0  0
   58.4050   29.8020   44.9650 C   0  0  0  0  0  0  0  0  0  0  0  0
   57.0750   29.9690   44.5690 C   0  0  0  0  0  0  0  0  0  0  0  0
   56.1160   29.0040   44.8970 C   0  0  0  0  0  0  0  0  0  0  0  0
   54.7930   29.1980   44.5190 O   0  0  0  0  0  0  0  0  0  0  0  0
   56.4930   27.8560   45.6160 C   0  0  0  0  0  0  0  0  0  0  0  0
   55.5340   26.8480   45.9550 N   0  0  0  0  0  0  0  0  0  0  0  0
   55.8700   25.4930   46.2760 C   0  0  0  0  0  0  0  0  0  0  0  0
   56.7880   25.2730   47.1100 O   0  0  0  0  0  0  0  0  0  0  0  0
   55.2310   24.3320   45.5580 C   0  0  0  0  0  0  0  0  0  0  0  0
   54.1540   23.6710   46.4250 C   0  0  0  0  0  0  0  0  0  0  0  0
   54.6110   22.3560   46.8570 N   0  0  0  0  0  0  0  0  0  0  0  0
   55.0790   21.3470   45.9600 C   0  0  0  0  0  0  0  0  0  0  0  0
   54.3200   20.3950   45.6350 O   0  0  0  0  0  0  0  0  0  0  0  0
   56.4300   21.4540   45.3640 C   0  0  0  0  0  0  0  0  0  0  0  0
   56.6560   20.9020   44.0870 C   0  0  0  0  0  0  0  0  0  0  0  0
   57.8780   21.0940   43.4330 C   0  0  0  0  0  0  0  0  0  0  0  0
   58.8860   21.8440   44.0410 C   0  0  0  0  0  0  0  0  0  0  0  0
   58.6890   22.3780   45.3170 C   0  0  0  0  0  0  0  0  0  0  0  0
   57.4830   22.1660   46.0000 C   0  0  0  0  0  0  0  0  0  0  0  0
   57.3840   22.6440   47.3110 O   0  0  0  0  0  0  0  0  0  0  0  0
   57.8200   27.7070   46.0370 C   0  0  0  0  0  0  0  0  0  0  0  0
   60.9307   29.6798   49.5921 H   0  0  0  0  0  0  0  0  0  0  0  0
   59.6004   28.6233   49.0083 H   0  0  0  0  0  0  0  0  0  0  0  0
   61.2923   28.0200   49.0083 H   0  0  0  0  0  0  0  0  0  0  0  0
   63.2898   30.4848   47.7421 H   0  0  0  0  0  0  0  0  0  0  0  0
   63.8976   32.8828   47.3911 H   0  0  0  0  0  0  0  0  0  0  0  0
   62.1414   34.5371   46.7487 H   0  0  0  0  0  0  0  0  0  0  0  0
   59.7740   33.7970   46.4537 H   0  0  0  0  0  0  0  0  0  0  0  0
   59.1573   31.4045   46.8166 H   0  0  0  0  0  0  0  0  0  0  0  0
   59.1574   30.5576   44.6950 H   0  0  0  0  0  0  0  0  0  0  0  0
   56.7811   30.8619   43.9977 H   0  0  0  0  0  0  0  0  0  0  0  0
   54.7701   24.6950   44.6275 H   0  0  0  0  0  0  0  0  0  0  0  0
   56.0092   23.5860   45.3392 H   0  0  0  0  0  0  0  0  0  0  0  0
   53.9586   24.2984   47.3072 H   0  0  0  0  0  0  0  0  0  0  0  0
   53.2300   23.5614   45.8382 H   0  0  0  0  0  0  0  0  0  0  0  0
   55.8639   20.3145   43.5997 H   0  0  0  0  0  0  0  0  0  0  0  0
   58.0444   20.6535   42.4389 H   0  0  0  0  0  0  0  0  0  0  0  0
   59.8368   22.0149   43.5149 H   0  0  0  0  0  0  0  0  0  0  0  0
   59.4868   22.9697   45.7897 H   0  0  0  0  0  0  0  0  0  0  0  0
   56.5780   23.1450   47.6550 H   0  0  0  0  0  0  0  0  0  0  0  0
   58.1105   26.8278   46.6308 H   0  0  0  0  0  0  0  0  0  0  0  0
  1  2  1  0
  2  3  1  0
  3  4  2  0
  4  5  1  0
  5  6  2  0
  6  7  1  0
  7  8  2  0
  2  9  1  0
  9 10  2  0
  9 11  2  0
  9 12  1  0
 12 13  2  0
 13 14  1  0
 14 15  2  0
 15 16  1  0
 15 17  1  0
 17 18  1  0
 18 19  1  0
 19 20  2  0
 19 21  1  0
 21 22  1  0
 22 23  1  0
 23 24  1  0
 24 25  2  0
 24 26  1  0
 26 27  2  0
 27 28  1  0
 28 29  2  0
 29 30  1  0
 30 31  2  0
 31 32  1  0
 17 33  2  0
  8  3  1  0
 33 12  1  0
 31 26  1  0
  1 34  1  0
  1 35  1  0
  1 36  1  0
  4 37  1  0
  5 38  1  0
  6 39  1  0
  7 40  1  0
  8 41  1  0
 13 42  1  0
 14 43  1  0
 21 44  1  0
 21 45  1  0
 22 46  1  0
 22 47  1  0
 27 48  1  0
 28 49  1  0
 29 50  1  0
 30 51  1  0
 32 52  1  0
 33 53  1  0
M  CHG  3  16  -1  18  -1  23  -1
M  END
>  <UniqueID>  (41) 
39

>  <SMILES>  (41) 
CN(c1ccccc1)S(=O)(=O)c1ccc([O-])c([N-]C(=O)CC[N-]C(=O)c2ccccc2O)c1

>  <Energy>  (41) 
66.8665684420616

>  <Genealogy>  (41) 
CN(c1ccccc1)S(=O)(=O)c1ccc([O-])c([N-]C(=O)CC[N-]C(=O)c2ccccc2O)c1 (protonated)
CN(c1ccccc1)S(=O)(=O)c1ccc([O-])c([N-]C(=O)CC[N-]C(=O)c2ccccc2O)c1 (3D coordinates assigned)
CN(c1ccccc1)S(=O)(=O)c1ccc([O-])c([N-]C(=O)CC[N-]C(=O)c2ccccc2O)c1 (optimized conformer: 66.8665684420616 kcal/mol)

>  <smiles>  (41) 
CN(c1ccccc1)S(=O)(=O)c1ccc(O)c(NC(=O)CCNC(=O)c2ccccc2O)c1

>  <score_type>  (41) 
oracle

>  <origin>  (41) 
adg

>  <m_score__min__energy>  (41) 
-15.130000000000001

>  <m_primary>  (41) 
energy

$$$$
41:0
     RDKit          3D

 38 39  0  0  0  0  0  0  0  0999 V2000
   61.1940   32.7050   47.2300 C   0  0  0  0  0  0  0  0  0  0  0  0
   59.9130   32.0730   47.5660 N   0  0  0  0  0  0  0  0  0  0  0  0
   59.8620   30.7060   47.0150 C   0  0  0  0  0  0  0  0  0  0  0  0
   59.0660   29.8000   47.9120 C   0  0  0  0  0  0  0  0  0  0  0  0
   59.0400   30.0360   49.1500 O   0  0  0  0  0  0  0  0  0  0  0  0
   58.2990   28.7010   47.4060 N   0  0  0  0  0  0  0  0  0  0  0  0
   58.2980   28.2050   46.0610 C   0  0  0  0  0  0  0  0  0  0  0  0
   59.3400   28.6940   44.8310 S   0  0  0  0  0  0  0  0  0  0  0  0
   58.8070   27.5820   43.6910 C   0  0  0  0  0  0  0  0  0  0  0  0
   57.8210   26.7960   44.2710 C   0  0  0  0  0  0  0  0  0  0  0  0
   57.5370   27.1280   45.6070 C   0  0  0  0  0  0  0  0  0  0  0  0
   56.5310   26.4050   46.4140 C   0  0  0  0  0  0  0  0  0  0  0  0
   55.1400   26.5370   46.1370 N   0  0  0  0  0  0  0  0  0  0  0  0
   56.9030   25.6530   47.3550 O   0  0  0  0  0  0  0  0  0  0  0  0
   58.5980   33.0450   46.9360 S   0  0  0  0  0  0  0  0  0  0  0  0
   59.0350   34.4810   46.8420 O   0  0  0  0  0  0  0  0  0  0  0  0
   57.4290   32.9820   47.8790 O   0  0  0  0  0  0  0  0  0  0  0  0
   58.0870   32.4980   45.3360 C   0  0  0  0  0  0  0  0  0  0  0  0
   58.5390   33.1640   44.1910 C   0  0  0  0  0  0  0  0  0  0  0  0
   58.1570   32.7210   42.9240 C   0  0  0  0  0  0  0  0  0  0  0  0
   57.3150   31.6150   42.7900 C   0  0  0  0  0  0  0  0  0  0  0  0
   56.8400   30.9410   43.9300 C   0  0  0  0  0  0  0  0  0  0  0  0
   55.9320   29.7810   43.7930 C   0  0  0  0  0  0  0  0  0  0  0  0
   55.8280   29.1760   42.6930 O   0  0  0  0  0  0  0  0  0  0  0  0
   55.1730   29.3500   44.8730 O   0  0  0  0  0  0  0  0  0  0  0  0
   57.2350   31.3890   45.2030 C   0  0  0  0  0  0  0  0  0  0  0  0
   61.7270   32.9680   48.1556 H   0  0  0  0  0  0  0  0  0  0  0  0
   61.8050   32.0049   46.6413 H   0  0  0  0  0  0  0  0  0  0  0  0
   61.0102   33.6158   46.6413 H   0  0  0  0  0  0  0  0  0  0  0  0
   59.3910   30.7347   46.0213 H   0  0  0  0  0  0  0  0  0  0  0  0
   60.8881   30.3167   46.9404 H   0  0  0  0  0  0  0  0  0  0  0  0
   59.1768   27.4918   42.6590 H   0  0  0  0  0  0  0  0  0  0  0  0
   57.3075   25.9854   43.7331 H   0  0  0  0  0  0  0  0  0  0  0  0
   54.7990   26.7110   45.1650 H   0  0  0  0  0  0  0  0  0  0  0  0
   59.1975   34.0395   44.2901 H   0  0  0  0  0  0  0  0  0  0  0  0
   58.5204   33.2449   42.0276 H   0  0  0  0  0  0  0  0  0  0  0  0
   57.0216   31.2690   41.7879 H   0  0  0  0  0  0  0  0  0  0  0  0
   56.8741   30.8671   46.1015 H   0  0  0  0  0  0  0  0  0  0  0  0
  1  2  1  0
  2  3  1  0
  3  4  1  0
  4  5  2  0
  4  6  1  0
  6  7  1  0
  7  8  1  0
  8  9  1  0
  9 10  2  0
 10 11  1  0
 11 12  1  0
 12 13  1  0
 12 14  2  0
  2 15  1  0
 15 16  2  0
 15 17  2  0
 15 18  1  0
 18 19  2  0
 19 20  1  0
 20 21  2  0
 21 22  1  0
 22 23  1  0
 23 24  2  0
 23 25  1  0
 22 26  2  0
 11  7  2  0
 26 18  1  0
  1 27  1  0
  1 28  1  0
  1 29  1  0
  3 30  1  0
  3 31  1  0
  9 32  1  0
 10 33  1  0
 13 34  1  0
 19 35  1  0
 20 36  1  0
 21 37  1  0
 26 38  1  0
M  CHG  3   6  -1  13  -1  25  -1
M  END
>  <UniqueID>  (42) 
40

>  <SMILES>  (42) 
CN(CC(=O)[N-]c1sccc1C([NH-])=O)S(=O)(=O)c1cccc(C(=O)[O-])c1

>  <Energy>  (42) 
64.77989200876553

>  <Genealogy>  (42) 
CN(CC(=O)[N-]c1sccc1C([NH-])=O)S(=O)(=O)c1cccc(C(=O)[O-])c1 (protonated)
CN(CC(=O)[N-]c1sccc1C([NH-])=O)S(=O)(=O)c1cccc(C(=O)[O-])c1 (3D coordinates assigned)
CN(CC(=O)[N-]c1sccc1C([NH-])=O)S(=O)(=O)c1cccc(C(=O)[O-])c1 (optimized conformer: 64.77989200876553 kcal/mol)

>  <smiles>  (42) 
CN(CC(=O)Nc1sccc1C(N)=O)S(=O)(=O)c1cccc(C(=O)O)c1

>  <score_type>  (42) 
oracle

>  <origin>  (42) 
adg

>  <m_score__min__energy>  (42) 
-15.75

>  <m_primary>  (42) 
energy

$$$$
42:0
     RDKit          3D

 42 45  0  0  0  0  0  0  0  0999 V2000
   58.5050   22.9946   45.9238 H   0  0  0  0  0  0  0  0  0  0  0  0
   57.7360   23.7810   45.9100 C   0  0  0  0  0  0  0  0  0  0  0  0
   58.0120   25.0100   46.4190 N   0  0  0  0  0  0  0  0  0  0  0  0
   57.1040   26.0240   46.4270 C   0  0  0  0  0  0  0  0  0  0  0  0
   57.4820   27.1670   46.9330 N   0  0  0  0  0  0  0  0  0  0  0  0
   58.4930   28.0750   46.4710 C   0  0  0  0  0  0  0  0  0  0  0  0
   59.7070   27.8650   46.7340 O   0  0  0  0  0  0  0  0  0  0  0  0
   58.0900   29.2930   45.7410 C   0  0  0  0  0  0  0  0  0  0  0  0
   56.8200   29.2990   45.1390 C   0  0  0  0  0  0  0  0  0  0  0  0
   56.1522   28.4347   45.2693 H   0  0  0  0  0  0  0  0  0  0  0  0
   56.3970   30.3890   44.3780 C   0  0  0  0  0  0  0  0  0  0  0  0
   55.4003   30.3807   43.9127 H   0  0  0  0  0  0  0  0  0  0  0  0
   57.2350   31.4870   44.2070 C   0  0  0  0  0  0  0  0  0  0  0  0
   56.9063   32.3377   43.5920 H   0  0  0  0  0  0  0  0  0  0  0  0
   58.4910   31.5110   44.8140 C   0  0  0  0  0  0  0  0  0  0  0  0
   59.1464   32.3830   44.6720 H   0  0  0  0  0  0  0  0  0  0  0  0
   58.9300   30.4330   45.6060 C   0  0  0  0  0  0  0  0  0  0  0  0
   60.2560   30.5780   46.3240 C   0  0  0  0  0  0  0  0  0  0  0  0
   61.0632   30.6605   45.5813 H   0  0  0  0  0  0  0  0  0  0  0  0
   60.4159   29.6946   46.9596 H   0  0  0  0  0  0  0  0  0  0  0  0
   60.2520   31.7750   47.1670 N   0  0  0  0  0  0  0  0  0  0  0  0
   60.7740   32.9830   46.8450 C   0  0  0  0  0  0  0  0  0  0  0  0
   61.3040   33.2070   45.9075 H   0  0  0  0  0  0  0  0  0  0  0  0
   60.5460   33.9010   47.8660 C   0  0  0  0  0  0  0  0  0  0  0  0
   60.8523   34.9571   47.8961 H   0  0  0  0  0  0  0  0  0  0  0  0
   59.8540   33.2020   48.8310 C   0  0  0  0  0  0  0  0  0  0  0  0
   59.3500   33.6020   50.0630 C   0  0  0  0  0  0  0  0  0  0  0  0
   59.4843   34.6340   50.4192 H   0  0  0  0  0  0  0  0  0  0  0  0
   58.6830   32.6800   50.8210 N   0  0  0  0  0  0  0  0  0  0  0  0
   58.3020   32.9780   51.7470 H   0  0  0  0  0  0  0  0  0  0  0  0
   58.5050   31.3860   50.3930 C   0  0  0  0  0  0  0  0  0  0  0  0
   57.7950   30.4440   51.2200 C   0  0  0  0  0  0  0  0  0  0  0  0
   57.2260   29.6880   51.8860 N   0  0  0  0  0  0  0  0  0  0  0  0
   59.0120   30.9720   49.1470 C   0  0  0  0  0  0  0  0  0  0  0  0
   58.8793   29.9402   48.7896 H   0  0  0  0  0  0  0  0  0  0  0  0
   59.6890   31.9220   48.3840 C   0  0  0  0  0  0  0  0  0  0  0  0
   55.7990   25.7720   45.9290 C   0  0  0  0  0  0  0  0  0  0  0  0
   54.7740   26.7070   46.0090 O   0  0  0  0  0  0  0  0  0  0  0  0
   55.5090   24.5160   45.3850 C   0  0  0  0  0  0  0  0  0  0  0  0
   54.5112   24.3167   44.9670 H   0  0  0  0  0  0  0  0  0  0  0  0
   56.4800   23.5170   45.3710 C   0  0  0  0  0  0  0  0  0  0  0  0
   56.2566   22.5305   44.9388 H   0  0  0  0  0  0  0  0  0  0  0  0
  1  2  1  0
  2  3  1  0
  3  4  1  0
  4  5  2  0
  5  6  1  0
  6  7  2  0
  6  8  1  0
  8  9  2  0
  9 10  1  0
  9 11  1  0
 11 12  1  0
 11 13  2  0
 13 14  1  0
 13 15  1  0
 15 16  1  0
 15 17  2  0
 17 18  1  0
 18 19  1  0
 18 20  1  0
 18 21  1  0
 21 22  1  0
 22 23  1  0
 22 24  2  0
 24 25  1  0
 24 26  1  0
 26 27  2  0
 27 28  1  0
 27 29  1  0
 29 30  1  0
 29 31  2  0
 31 32  1  0
 32 33  3  0
 31 34  1  0
 34 35  1  0
 34 36  2  0
  4 37  1  0
 37 38  1  0
 37 39  2  0
 39 40  1  0
 39 41  1  0
 41 42  1  0
 41  2  2  0
 17  8  1  0
 36 21  1  0
 36 26  1  0
M  CHG  3   3  -1  29   1  38  -1
M  END
>  <UniqueID>  (43) 
41

>  <SMILES>  (43) 
N#Cc1cc2c(ccn2Cc2ccccc2C(=O)/N=c2/[n-]cccc2[O-])c[nH+]1

>  <Energy>  (43) 
98.68613189128058

>  <Genealogy>  (43) 
N#Cc1cc2c(ccn2Cc2ccccc2C(=O)N=c2[n-]cccc2[O-])c[nH+]1 (protonated)
N#Cc1cc2c(ccn2Cc2ccccc2C(=O)/N=c2/[n-]cccc2[O-])c[nH+]1 (cis-trans isomerization)
N#Cc1cc2c(ccn2Cc2ccccc2C(=O)/N=c2/[n-]cccc2[O-])c[nH+]1 (3D coordinates assigned)
N#Cc1cc2c(ccn2Cc2ccccc2C(=O)/N=c2/[n-]cccc2[O-])c[nH+]1 (optimized conformer: 98.68613189128058 kcal/mol)

>  <smiles>  (43) 
N#Cc1cc2c(ccn2Cc2ccccc2C(=O)N=c2[nH]cccc2O)cn1

>  <score_type>  (43) 
oracle

>  <origin>  (43) 
adg

>  <m_score__min__energy>  (43) 
-11.84

>  <m_primary>  (43) 
energy

$$$$
43:0
     RDKit          3D

 33 35  0  0  0  0  0  0  0  0999 V2000
   59.2700   35.6360   44.8680 N   0  0  0  0  0  0  0  0  0  0  0  0
   59.0990   34.4950   44.9590 C   0  0  0  0  0  0  0  0  0  0  0  0
   58.8840   33.0690   45.0720 C   0  0  0  0  0  0  0  0  0  0  0  0
   59.4210   32.3290   46.1500 C   0  0  0  0  0  0  0  0  0  0  0  0
   60.2860   32.9550   47.1800 C   0  0  0  0  0  0  0  0  0  0  0  0
   59.7090   33.6380   48.2640 C   0  0  0  0  0  0  0  0  0  0  0  0
   60.5190   34.2180   49.2440 C   0  0  0  0  0  0  0  0  0  0  0  0
   61.9100   34.1150   49.1570 C   0  0  0  0  0  0  0  0  0  0  0  0
   62.7080   34.6960   50.1350 O   0  0  0  0  0  0  0  0  0  0  0  0
   62.4980   33.4260   48.0880 C   0  0  0  0  0  0  0  0  0  0  0  0
   63.8850   33.3220   48.0110 O   0  0  0  0  0  0  0  0  0  0  0  0
   61.6850   32.8440   47.1040 C   0  0  0  0  0  0  0  0  0  0  0  0
   59.1320   30.9600   46.2480 C   0  0  0  0  0  0  0  0  0  0  0  0
   58.3270   30.3370   45.2800 C   0  0  0  0  0  0  0  0  0  0  0  0
   58.0070   28.8880   45.3460 C   0  0  0  0  0  0  0  0  0  0  0  0
   59.0010   27.9070   45.1560 C   0  0  0  0  0  0  0  0  0  0  0  0
   58.6810   26.5480   45.2310 C   0  0  0  0  0  0  0  0  0  0  0  0
   57.3700   26.1510   45.5020 C   0  0  0  0  0  0  0  0  0  0  0  0
   56.3760   27.1120   45.7040 C   0  0  0  0  0  0  0  0  0  0  0  0
   55.0730   26.7150   45.9780 O   0  0  0  0  0  0  0  0  0  0  0  0
   56.6920   28.4730   45.6320 C   0  0  0  0  0  0  0  0  0  0  0  0
   57.8430   31.0780   44.2460 N   0  0  0  0  0  0  0  0  0  0  0  0
   58.0930   32.4060   44.1190 C   0  0  0  0  0  0  0  0  0  0  0  0
   57.6040   33.0340   43.1420 O   0  0  0  0  0  0  0  0  0  0  0  0
   58.6145   33.7165   48.3416 H   0  0  0  0  0  0  0  0  0  0  0  0
   60.0605   34.7571   50.0861 H   0  0  0  0  0  0  0  0  0  0  0  0
   64.4840   33.6850   48.7430 H   0  0  0  0  0  0  0  0  0  0  0  0
   62.1453   32.2974   46.2677 H   0  0  0  0  0  0  0  0  0  0  0  0
   59.5369   30.3726   47.0852 H   0  0  0  0  0  0  0  0  0  0  0  0
   60.0367   28.2130   44.9471 H   0  0  0  0  0  0  0  0  0  0  0  0
   59.4633   25.7903   45.0763 H   0  0  0  0  0  0  0  0  0  0  0  0
   57.1196   25.0813   45.5565 H   0  0  0  0  0  0  0  0  0  0  0  0
   55.9070   29.2250   45.8001 H   0  0  0  0  0  0  0  0  0  0  0  0
  1  2  3  0
  2  3  1  0
  3  4  2  0
  4  5  1  0
  5  6  2  0
  6  7  1  0
  7  8  2  0
  8  9  1  0
  8 10  1  0
 10 11  1  0
 10 12  2  0
  4 13  1  0
 13 14  2  0
 14 15  1  0
 15 16  2  0
 16 17  1  0
 17 18  2  0
 18 19  1  0
 19 20  1  0
 19 21  2  0
 14 22  1  0
 22 23  1  0
 23 24  2  0
 23  3  1  0
 12  5  1  0
 21 15  1  0
  6 25  1  0
  7 26  1  0
 11 27  1  0
 12 28  1  0
 13 29  1  0
 16 30  1  0
 17 31  1  0
 18 32  1  0
 21 33  1  0
M  CHG  3   9  -1  20  -1  22  -1
M  END
>  <UniqueID>  (44) 
42

>  <SMILES>  (44) 
N#Cc1c(-c2ccc([O-])c(O)c2)cc(-c2cccc([O-])c2)[n-]c1=O

>  <Energy>  (44) 
48.693298369958846

>  <Genealogy>  (44) 
N#Cc1c(-c2ccc([O-])c(O)c2)cc(-c2cccc([O-])c2)[n-]c1=O (protonated)
N#Cc1c(-c2ccc([O-])c(O)c2)cc(-c2cccc([O-])c2)[n-]c1=O (3D coordinates assigned)
N#Cc1c(-c2ccc([O-])c(O)c2)cc(-c2cccc([O-])c2)[n-]c1=O (optimized conformer: 48.693298369958846 kcal/mol)

>  <smiles>  (44) 
N#Cc1c(-c2ccc(O)c(O)c2)cc(-c2cccc(O)c2)[nH]c1=O

>  <score_type>  (44) 
oracle

>  <origin>  (44) 
adg

>  <m_score__min__energy>  (44) 
-12.77

>  <m_primary>  (44) 
energy

$$$$
44:0
     RDKit          3D

 76 79  0  0  0  0  0  0  0  0999 V2000
   59.5380   33.5700   50.8950 C   0  0  0  0  0  0  0  0  0  0  0  0
   60.9270   33.7960   50.6740 O   0  0  0  0  0  0  0  0  0  0  0  0
   61.6430   33.3300   49.5590 C   0  0  0  0  0  0  0  0  0  0  0  0
   61.7450   34.0850   48.3730 C   0  0  0  0  0  0  0  0  0  0  0  0
   62.4620   33.5930   47.2810 C   0  0  0  0  0  0  0  0  0  0  0  0
   63.0890   32.3490   47.3570 C   0  0  0  0  0  0  0  0  0  0  0  0
   63.0000   31.5920   48.5260 C   0  0  0  0  0  0  0  0  0  0  0  0
   62.2760   32.0690   49.6310 C   0  0  0  0  0  0  0  0  0  0  0  0
   62.1540   31.2120   50.8680 C   0  0  0  0  0  0  0  0  0  0  0  0
   61.8210   29.7560   50.5190 C   0  0  0  0  0  0  0  0  0  0  0  0
   60.4520   29.4180   50.8970 N   0  0  0  0  0  0  0  0  0  0  0  0
   59.2930   29.9200   50.2250 C   0  0  0  0  0  0  0  0  0  0  0  0
   58.1360   29.6080   50.6250 O   0  0  0  0  0  0  0  0  0  0  0  0
   59.4600   30.8720   49.0790 C   0  0  0  0  0  0  0  0  0  0  0  0
   59.2010   30.1830   47.7580 C   0  0  0  0  0  0  0  0  0  0  0  0
   58.2090   30.6670   46.9140 C   0  0  0  0  0  0  0  0  0  0  0  0
   57.9040   30.0100   45.7220 C   0  0  0  0  0  0  0  0  0  0  0  0
   56.8770   30.6250   44.8470 C   0  0  0  0  0  0  0  0  0  0  0  0
   56.2790   29.9130   43.9950 O   0  0  0  0  0  0  0  0  0  0  0  0
   56.6370   32.0380   44.8590 N   0  0  0  0  0  0  0  0  0  0  0  0
   57.6170   33.0300   45.1970 C   0  0  0  0  0  0  0  0  0  0  0  0
   58.5440   33.4310   44.2270 C   0  0  0  0  0  0  0  0  0  0  0  0
   59.5130   34.3940   44.5300 C   0  0  0  0  0  0  0  0  0  0  0  0
   59.5480   34.9740   45.8000 C   0  0  0  0  0  0  0  0  0  0  0  0
   58.6110   34.6000   46.7650 C   0  0  0  0  0  0  0  0  0  0  0  0
   57.6450   33.6330   46.4690 C   0  0  0  0  0  0  0  0  0  0  0  0
   56.7000   33.3390   47.3940 F   0  0  0  0  0  0  0  0  0  0  0  0
   58.5980   28.8170   45.3890 C   0  0  0  0  0  0  0  0  0  0  0  0
   58.1200   27.9730   44.2210 C   0  0  0  0  0  0  0  0  0  0  0  0
   59.6430   28.3880   46.1940 N   0  0  0  0  0  0  0  0  0  0  0  0
   60.4890   27.2200   45.8350 C   0  0  0  0  0  0  0  0  0  0  0  0
   59.8870   25.8960   46.3470 C   0  0  0  0  0  0  0  0  0  0  0  0
   58.8940   26.0690   47.5070 C   0  0  0  0  0  0  0  0  0  0  0  0
   57.5430   25.6180   47.0960 N   0  0  0  0  0  0  0  0  0  0  0  0
   57.4520   25.3760   45.6430 C   0  0  0  0  0  0  0  0  0  0  0  0
   56.0880   24.7610   45.2720 C   0  0  0  0  0  0  0  0  0  0  0  0
   55.1950   24.8040   46.3670 O   0  0  0  0  0  0  0  0  0  0  0  0
   55.6960   24.0000   47.4180 C   0  0  0  0  0  0  0  0  0  0  0  0
   57.1220   24.4140   47.8360 C   0  0  0  0  0  0  0  0  0  0  0  0
   59.9200   29.0410   47.3770 C   0  0  0  0  0  0  0  0  0  0  0  0
   60.8280   28.6130   48.1430 O   0  0  0  0  0  0  0  0  0  0  0  0
   59.3393   33.5377   51.9764 H   0  0  0  0  0  0  0  0  0  0  0  0
   58.9568   34.3854   50.4396 H   0  0  0  0  0  0  0  0  0  0  0  0
   59.2453   32.6124   50.4396 H   0  0  0  0  0  0  0  0  0  0  0  0
   61.2564   35.0683   48.3076 H   0  0  0  0  0  0  0  0  0  0  0  0
   62.5328   34.1876   46.3583 H   0  0  0  0  0  0  0  0  0  0  0  0
   63.6539   31.9646   46.4949 H   0  0  0  0  0  0  0  0  0  0  0  0
   63.5007   30.6142   48.5825 H   0  0  0  0  0  0  0  0  0  0  0  0
   63.1078   31.2382   51.4153 H   0  0  0  0  0  0  0  0  0  0  0  0
   61.3352   31.6129   51.4835 H   0  0  0  0  0  0  0  0  0  0  0  0
   61.9391   29.6117   49.4349 H   0  0  0  0  0  0  0  0  0  0  0  0
   62.5062   29.1006   51.0766 H   0  0  0  0  0  0  0  0  0  0  0  0
   58.7495   31.7036   49.1960 H   0  0  0  0  0  0  0  0  0  0  0  0
   60.4948   31.2450   49.0820 H   0  0  0  0  0  0  0  0  0  0  0  0
   57.6580   31.5785   47.1890 H   0  0  0  0  0  0  0  0  0  0  0  0
   58.5103   32.9865   43.2214 H   0  0  0  0  0  0  0  0  0  0  0  0
   60.2472   34.6942   43.7679 H   0  0  0  0  0  0  0  0  0  0  0  0
   60.3142   35.7259   46.0401 H   0  0  0  0  0  0  0  0  0  0  0  0
   58.6326   35.0671   47.7607 H   0  0  0  0  0  0  0  0  0  0  0  0
   57.6114   27.0749   44.6015 H   0  0  0  0  0  0  0  0  0  0  0  0
   57.4196   28.5589   43.6076 H   0  0  0  0  0  0  0  0  0  0  0  0
   58.9827   27.6737   43.6076 H   0  0  0  0  0  0  0  0  0  0  0  0
   60.5797   27.1696   44.7399 H   0  0  0  0  0  0  0  0  0  0  0  0
   61.4730   27.3530   46.3083 H   0  0  0  0  0  0  0  0  0  0  0  0
   59.3622   25.4087   45.5120 H   0  0  0  0  0  0  0  0  0  0  0  0
   60.7233   25.2932   46.7307 H   0  0  0  0  0  0  0  0  0  0  0  0
   59.2311   25.4705   48.3662 H   0  0  0  0  0  0  0  0  0  0  0  0
   58.8483   27.1324   47.7848 H   0  0  0  0  0  0  0  0  0  0  0  0
   57.5733   26.3309   45.1106 H   0  0  0  0  0  0  0  0  0  0  0  0
   58.2455   24.6713   45.3538 H   0  0  0  0  0  0  0  0  0  0  0  0
   55.6554   25.3262   44.4333 H   0  0  0  0  0  0  0  0  0  0  0  0
   56.2443   23.7093   44.9901 H   0  0  0  0  0  0  0  0  0  0  0  0
   55.0293   24.0969   48.2875 H   0  0  0  0  0  0  0  0  0  0  0  0
   55.7362   22.9607   47.0599 H   0  0  0  0  0  0  0  0  0  0  0  0
   57.1362   24.6277   48.9149 H   0  0  0  0  0  0  0  0  0  0  0  0
   57.8153   23.5917   47.6056 H   0  0  0  0  0  0  0  0  0  0  0  0
  1  2  1  0
  2  3  1  0
  3  4  2  0
  4  5  1  0
  5  6  2  0
  6  7  1  0
  7  8  2  0
  8  9  1  0
  9 10  1  0
 10 11  1  0
 11 12  1  0
 12 13  2  0
 12 14  1  0
 14 15  1  0
 15 16  2  0
 16 17  1  0
 17 18  1  0
 18 19  2  0
 18 20  1  0
 20 21  1  0
 21 22  2  0
 22 23  1  0
 23 24  2  0
 24 25  1  0
 25 26  2  0
 26 27  1  0
 17 28  2  0
 28 29  1  0
 28 30  1  0
 30 31  1  0
 31 32  1  0
 32 33  1  0
 33 34  1  0
 34 35  1  0
 35 36  1  0
 36 37  1  0
 37 38  1  0
 38 39  1  0
 30 40  1  0
 40 41  2  0
  8  3  1  0
 40 15  1  0
 26 21  1  0
 39 34  1  0
  1 42  1  0
  1 43  1  0
  1 44  1  0
  4 45  1  0
  5 46  1  0
  6 47  1  0
  7 48  1  0
  9 49  1  0
  9 50  1  0
 10 51  1  0
 10 52  1  0
 14 53  1  0
 14 54  1  0
 16 55  1  0
 22 56  1  0
 23 57  1  0
 24 58  1  0
 25 59  1  0
 29 60  1  0
 29 61  1  0
 29 62  1  0
 31 63  1  0
 31 64  1  0
 32 65  1  0
 32 66  1  0
 33 67  1  0
 33 68  1  0
 35 69  1  0
 35 70  1  0
 36 71  1  0
 36 72  1  0
 38 73  1  0
 38 74  1  0
 39 75  1  0
 39 76  1  0
M  CHG  2  11  -1  20  -1
M  END
>  <UniqueID>  (45) 
43

>  <SMILES>  (45) 
COc1ccccc1CC[N-]C(=O)Cc1cc(C(=O)[N-]c2ccccc2F)c(C)n(CCCN2CCOCC2)c1=O

>  <Energy>  (45) 
102.37342689622628

>  <Genealogy>  (45) 
COc1ccccc1CC[N-]C(=O)Cc1cc(C(=O)[N-]c2ccccc2F)c(C)n(CCCN2CCOCC2)c1=O (protonated)
COc1ccccc1CC[N-]C(=O)Cc1cc(C(=O)[N-]c2ccccc2F)c(C)n(CCCN2CCOCC2)c1=O (3D coordinates assigned)
COc1ccccc1CC[N-]C(=O)Cc1cc(C(=O)[N-]c2ccccc2F)c(C)n(CCCN2CCOCC2)c1=O (nonaromatic ring conformer: 102.37342689622628 kcal/mol)

>  <smiles>  (45) 
COc1ccccc1CCNC(=O)Cc1cc(C(=O)Nc2ccccc2F)c(C)n(CCCN2CCOCC2)c1=O

>  <score_type>  (45) 
oracle

>  <origin>  (45) 
adg

>  <m_score__min__energy>  (45) 
-12.93

>  <m_primary>  (45) 
energy

$$$$
45:0
     RDKit          3D

 83 83  0  0  0  0  0  0  0  0999 V2000
   56.6430   28.0800   43.5220 H   0  0  0  0  0  0  0  0  0  0  0  0
   57.0320   28.5920   42.7690 O   0  0  0  0  0  0  0  0  0  0  0  0
   56.3530   29.8180   42.7260 C   0  0  0  0  0  0  0  0  0  0  0  0
   55.6492   29.8117   41.8807 H   0  0  0  0  0  0  0  0  0  0  0  0
   57.0891   30.6262   42.6033 H   0  0  0  0  0  0  0  0  0  0  0  0
   55.5790   30.0510   44.0210 C   0  0  0  0  0  0  0  0  0  0  0  0
   54.5029   30.1120   43.8012 H   0  0  0  0  0  0  0  0  0  0  0  0
   55.9075   30.9926   44.4851 H   0  0  0  0  0  0  0  0  0  0  0  0
   55.8210   28.9770   44.9020 O   0  0  0  0  0  0  0  0  0  0  0  0
   57.0210   29.2020   45.6130 C   0  0  0  0  0  0  0  0  0  0  0  0
   56.7909   29.6344   46.5979 H   0  0  0  0  0  0  0  0  0  0  0  0
   57.6600   29.9007   45.0530 H   0  0  0  0  0  0  0  0  0  0  0  0
   57.7470   27.8700   45.7950 C   0  0  1  0  0  0  0  0  0  0  0  0
   57.7301   27.5773   46.8552 H   0  0  0  0  0  0  0  0  0  0  0  0
   57.0800   26.8780   45.0140 O   0  0  0  0  0  0  0  0  0  0  0  0
   56.3110   25.8400   45.5590 C   0  0  0  0  0  0  0  0  0  0  0  0
   55.3170   26.1040   46.2920 O   0  0  0  0  0  0  0  0  0  0  0  0
   56.7080   24.4030   45.3200 C   0  0  0  0  0  0  0  0  0  0  0  0
   56.3559   23.8169   46.1817 H   0  0  0  0  0  0  0  0  0  0  0  0
   56.0290   23.8480   44.0360 C   0  0  0  0  0  0  0  0  0  0  0  0
   55.0173   23.5050   44.2983 H   0  0  0  0  0  0  0  0  0  0  0  0
   56.0164   24.6649   43.2994 H   0  0  0  0  0  0  0  0  0  0  0  0
   56.7920   22.6700   43.3920 C   0  0  0  0  0  0  0  0  0  0  0  0
   56.0672   21.9974   42.9101 H   0  0  0  0  0  0  0  0  0  0  0  0
   57.4990   23.0820   42.6568 H   0  0  0  0  0  0  0  0  0  0  0  0
   57.5930   21.8750   44.4290 C   0  0  0  0  0  0  0  0  0  0  0  0
   56.9023   21.4816   45.1894 H   0  0  0  0  0  0  0  0  0  0  0  0
   58.1119   21.0555   43.9103 H   0  0  0  0  0  0  0  0  0  0  0  0
   58.6520   22.7570   45.1220 C   0  0  0  0  0  0  0  0  0  0  0  0
   58.8260   22.3615   46.1336 H   0  0  0  0  0  0  0  0  0  0  0  0
   59.5575   22.7239   44.4984 H   0  0  0  0  0  0  0  0  0  0  0  0
   58.2390   24.2390   45.2420 C   0  0  0  0  0  0  0  0  0  0  0  0
   58.6890   24.6613   46.1526 H   0  0  0  0  0  0  0  0  0  0  0  0
   58.5937   24.7662   44.3441 H   0  0  0  0  0  0  0  0  0  0  0  0
   59.1960   27.9960   45.3760 C   0  0  0  0  0  0  0  0  0  0  0  0
   59.5090   28.7920   44.5010 O   0  0  0  0  0  0  0  0  0  0  0  0
   60.2620   27.1480   46.0320 C   0  0  0  0  0  0  0  0  0  0  0  0
   61.1894   27.7363   46.0934 H   0  0  0  0  0  0  0  0  0  0  0  0
   60.3887   26.2448   45.4170 H   0  0  0  0  0  0  0  0  0  0  0  0
   59.8770   26.6890   47.4510 C   0  0  0  0  0  0  0  0  0  0  0  0
   60.2373   25.6603   47.5990 H   0  0  0  0  0  0  0  0  0  0  0  0
   58.7820   26.7500   47.5366 H   0  0  0  0  0  0  0  0  0  0  0  0
   60.4810   27.5840   48.5420 C   0  0  0  0  0  0  0  0  0  0  0  0
   61.5315   27.7913   48.2902 H   0  0  0  0  0  0  0  0  0  0  0  0
   60.3997   27.0525   49.5016 H   0  0  0  0  0  0  0  0  0  0  0  0
   59.7440   28.8920   48.6700 C   0  0  0  0  0  0  0  0  0  0  0  0
   58.7221   28.8890   49.0770 H   0  0  0  0  0  0  0  0  0  0  0  0
   60.2930   30.0600   48.3040 C   0  0  0  0  0  0  0  0  0  0  0  0
   61.3092   30.0697   47.8830 H   0  0  0  0  0  0  0  0  0  0  0  0
   59.5460   31.3570   48.4580 C   0  0  0  0  0  0  0  0  0  0  0  0
   60.2593   32.1928   48.4056 H   0  0  0  0  0  0  0  0  0  0  0  0
   59.0308   31.3548   49.4299 H   0  0  0  0  0  0  0  0  0  0  0  0
   58.5190   31.5140   47.3660 C   0  0  0  0  0  0  0  0  0  0  0  0
   57.4690   31.3100   47.6228 H   0  0  0  0  0  0  0  0  0  0  0  0
   58.7890   31.8850   46.1000 C   0  0  0  0  0  0  0  0  0  0  0  0
   59.8024   31.6994   45.7145 H   0  0  0  0  0  0  0  0  0  0  0  0
   57.7910   32.5390   45.1760 C   0  0  0  0  0  0  0  0  0  0  0  0
   56.7849   32.4516   45.6119 H   0  0  0  0  0  0  0  0  0  0  0  0
   57.8306   32.0336   44.1998 H   0  0  0  0  0  0  0  0  0  0  0  0
   58.1190   33.9960   44.9790 C   0  0  0  0  0  0  0  0  0  0  0  0
   57.3390   34.6837   44.6204 H   0  0  0  0  0  0  0  0  0  0  0  0
   59.3500   34.4670   45.2350 C   0  0  0  0  0  0  0  0  0  0  0  0
   60.1774   34.2003   44.5610 H   0  0  0  0  0  0  0  0  0  0  0  0
   59.6250   35.3490   46.4190 C   0  0  0  0  0  0  0  0  0  0  0  0
   58.6983   35.8673   46.7063 H   0  0  0  0  0  0  0  0  0  0  0  0
   60.4007   36.0788   46.1440 H   0  0  0  0  0  0  0  0  0  0  0  0
   60.1190   34.5330   47.5880 C   0  0  0  0  0  0  0  0  0  0  0  0
   59.4332   34.3888   48.4359 H   0  0  0  0  0  0  0  0  0  0  0  0
   61.3380   33.9690   47.6680 C   0  0  0  0  0  0  0  0  0  0  0  0
   61.6538   33.5800   48.6472 H   0  0  0  0  0  0  0  0  0  0  0  0
   62.3040   33.8290   46.5200 C   0  0  0  0  0  0  0  0  0  0  0  0
   62.5423   34.8298   46.1307 H   0  0  0  0  0  0  0  0  0  0  0  0
   61.8291   33.2075   45.7465 H   0  0  0  0  0  0  0  0  0  0  0  0
   63.6080   33.1400   46.9540 C   0  0  0  0  0  0  0  0  0  0  0  0
   64.2971   33.9042   47.3427 H   0  0  0  0  0  0  0  0  0  0  0  0
   64.0224   32.6285   46.0727 H   0  0  0  0  0  0  0  0  0  0  0  0
   63.3850   32.0790   48.0440 C   0  0  0  0  0  0  0  0  0  0  0  0
   63.7975   31.1218   47.6924 H   0  0  0  0  0  0  0  0  0  0  0  0
   62.3022   32.0143   48.2266 H   0  0  0  0  0  0  0  0  0  0  0  0
   64.0530   32.4410   49.3670 C   0  0  0  0  0  0  0  0  0  0  0  0
   63.4228   32.0995   50.2014 H   0  0  0  0  0  0  0  0  0  0  0  0
   65.0368   31.9526   49.4267 H   0  0  0  0  0  0  0  0  0  0  0  0
   64.1810   33.5319   49.4267 H   0  0  0  0  0  0  0  0  0  0  0  0
  1  2  1  0
  2  3  1  0
  3  4  1  0
  3  5  1  0
  3  6  1  0
  6  7  1  0
  6  8  1  0
  6  9  1  0
  9 10  1  0
 10 11  1  0
 10 12  1  0
 10 13  1  0
 13 14  1  1
 13 15  1  0
 15 16  1  0
 16 17  2  0
 16 18  1  0
 18 19  1  0
 18 20  1  0
 20 21  1  0
 20 22  1  0
 20 23  1  0
 23 24  1  0
 23 25  1  0
 23 26  1  0
 26 27  1  0
 26 28  1  0
 26 29  1  0
 29 30  1  0
 29 31  1  0
 29 32  1  0
 32 33  1  0
 32 34  1  0
 13 35  1  0
 35 36  2  0
 35 37  1  0
 37 38  1  0
 37 39  1  0
 37 40  1  0
 40 41  1  0
 40 42  1  0
 40 43  1  0
 43 44  1  0
 43 45  1  0
 43 46  1  0
 46 47  1  0
 46 48  2  3
 48 49  1  0
 48 50  1  0
 50 51  1  0
 50 52  1  0
 50 53  1  0
 53 54  1  0
 53 55  2  3
 55 56  1  0
 55 57  1  0
 57 58  1  0
 57 59  1  0
 57 60  1  0
 60 61  1  0
 60 62  2  0
 62 63  1  0
 62 64  1  0
 64 65  1  0
 64 66  1  0
 64 67  1  0
 67 68  1  0
 67 69  2  3
 69 70  1  0
 69 71  1  0
 71 72  1  0
 71 73  1  0
 71 74  1  0
 74 75  1  0
 74 76  1  0
 74 77  1  0
 77 78  1  0
 77 79  1  0
 77 80  1  0
 80 81  1  0
 80 82  1  0
 80 83  1  0
 32 18  1  0
M  END
>  <UniqueID>  (46) 
44

>  <SMILES>  (46) 
CCCCC=CC/C=C/CC=CCC=CCCCC(=O)[C@@H](COCCO)OC(=O)C1CCCCC1

>  <Energy>  (46) 
53.001492143298535

>  <Genealogy>  (46) 
CCCCC=CCC=CCC=CCC=CCCCC(=O)[C@@H](COCCO)OC(=O)C1CCCCC1 (chirality)
CCCCC=CC/C=C/CC=CCC=CCCCC(=O)[C@@H](COCCO)OC(=O)C1CCCCC1 (cis-trans isomerization)
CCCCC=CC/C=C/CC=CCC=CCCCC(=O)[C@@H](COCCO)OC(=O)C1CCCCC1 (3D coordinates assigned)
CCCCC=CC/C=C/CC=CCC=CCCCC(=O)[C@@H](COCCO)OC(=O)C1CCCCC1 (nonaromatic ring conformer: 53.001492143298535 kcal/mol)

>  <smiles>  (46) 
CCCCC=CCC=CCC=CCC=CCCCC(=O)C(COCCO)OC(=O)C1CCCCC1

>  <score_type>  (46) 
oracle

>  <origin>  (46) 
adg

>  <m_score__min__energy>  (46) 
-8.0299999999999994

>  <m_primary>  (46) 
energy

$$$$
46:0
     RDKit          3D

 52 54  0  0  0  0  0  0  0  0999 V2000
   58.6770   34.2990   52.3290 C   0  0  0  0  0  0  0  0  0  0  0  0
   58.6290   32.9420   51.6760 C   0  0  0  0  0  0  0  0  0  0  0  0
   57.4860   32.1430   51.8580 C   0  0  0  0  0  0  0  0  0  0  0  0
   57.3940   30.8840   51.2610 C   0  0  0  0  0  0  0  0  0  0  0  0
   58.4380   30.4090   50.4710 C   0  0  0  0  0  0  0  0  0  0  0  0
   59.5780   31.1880   50.2740 C   0  0  0  0  0  0  0  0  0  0  0  0
   59.6920   32.4580   50.8680 C   0  0  0  0  0  0  0  0  0  0  0  0
   60.9730   33.2380   50.6500 C   0  0  0  0  0  0  0  0  0  0  0  0
   60.9250   34.0600   49.3560 C   0  0  0  0  0  0  0  0  0  0  0  0
   60.3860   33.2670   48.2530 N   0  0  0  0  0  0  0  0  0  0  0  0
   59.3630   33.7540   47.3720 C   0  0  0  0  0  0  0  0  0  0  0  0
   58.9120   34.9240   47.4950 O   0  0  0  0  0  0  0  0  0  0  0  0
   58.7780   32.8600   46.3620 C   0  0  0  0  0  0  0  0  0  0  0  0
   57.5680   33.2680   45.7840 C   0  0  0  0  0  0  0  0  0  0  0  0
   56.9060   32.4520   44.8700 C   0  0  0  0  0  0  0  0  0  0  0  0
   57.4620   31.2240   44.5330 C   0  0  0  0  0  0  0  0  0  0  0  0
   58.6420   30.8390   45.0790 N   0  0  0  0  0  0  0  0  0  0  0  0
   59.3330   31.6030   45.9710 C   0  0  0  0  0  0  0  0  0  0  0  0
   60.4800   31.1340   46.3850 N   0  0  0  0  0  0  0  0  0  0  0  0
   60.7820   29.9470   47.1790 C   0  0  0  0  0  0  0  0  0  0  0  0
   59.7900   28.8710   46.8460 C   0  0  0  0  0  0  0  0  0  0  0  0
   59.8560   28.2020   45.6120 C   0  0  0  0  0  0  0  0  0  0  0  0
   58.9100   27.2260   45.2880 C   0  0  0  0  0  0  0  0  0  0  0  0
   57.8830   26.9120   46.1890 C   0  0  0  0  0  0  0  0  0  0  0  0
   56.6810   25.6950   45.7710 S   0  0  0  0  0  0  0  0  0  0  0  0
   55.0970   26.3470   45.9930 N   0  0  0  0  0  0  0  0  0  0  0  0
   56.8530   24.4860   46.6470 O   0  0  0  0  0  0  0  0  0  0  0  0
   56.8540   25.2790   44.3370 O   0  0  0  0  0  0  0  0  0  0  0  0
   57.8000   27.5940   47.4090 C   0  0  0  0  0  0  0  0  0  0  0  0
   58.7460   28.5710   47.7350 C   0  0  0  0  0  0  0  0  0  0  0  0
   58.6728   34.1800   53.4225 H   0  0  0  0  0  0  0  0  0  0  0  0
   59.5942   34.8221   52.0206 H   0  0  0  0  0  0  0  0  0  0  0  0
   57.7990   34.8856   52.0206 H   0  0  0  0  0  0  0  0  0  0  0  0
   56.6558   32.5137   52.4771 H   0  0  0  0  0  0  0  0  0  0  0  0
   56.4964   30.2670   51.4148 H   0  0  0  0  0  0  0  0  0  0  0  0
   58.3633   29.4171   50.0013 H   0  0  0  0  0  0  0  0  0  0  0  0
   60.3969   30.8051   49.6473 H   0  0  0  0  0  0  0  0  0  0  0  0
   61.1239   33.9199   51.4998 H   0  0  0  0  0  0  0  0  0  0  0  0
   61.8017   32.5193   50.5685 H   0  0  0  0  0  0  0  0  0  0  0  0
   60.2849   34.9407   49.5126 H   0  0  0  0  0  0  0  0  0  0  0  0
   61.9487   34.3694   49.0985 H   0  0  0  0  0  0  0  0  0  0  0  0
   60.7050   32.2770   48.1540 H   0  0  0  0  0  0  0  0  0  0  0  0
   57.1368   34.2429   46.0552 H   0  0  0  0  0  0  0  0  0  0  0  0
   55.9554   32.7754   44.4208 H   0  0  0  0  0  0  0  0  0  0  0  0
   56.9442   30.5632   43.8222 H   0  0  0  0  0  0  0  0  0  0  0  0
   61.7984   29.5964   46.9463 H   0  0  0  0  0  0  0  0  0  0  0  0
   60.7205   30.1907   48.2499 H   0  0  0  0  0  0  0  0  0  0  0  0
   60.6559   28.4477   44.8980 H   0  0  0  0  0  0  0  0  0  0  0  0
   58.9714   26.7023   44.3226 H   0  0  0  0  0  0  0  0  0  0  0  0
   55.1930   27.3870   45.9970 H   0  0  0  0  0  0  0  0  0  0  0  0
   56.9880   27.3605   48.1134 H   0  0  0  0  0  0  0  0  0  0  0  0
   58.6716   29.1070   48.6927 H   0  0  0  0  0  0  0  0  0  0  0  0
  1  2  1  0
  2  3  2  0
  3  4  1  0
  4  5  2  0
  5  6  1  0
  6  7  2  0
  7  8  1  0
  8  9  1  0
  9 10  1  0
 10 11  1  0
 11 12  2  0
 11 13  1  0
 13 14  2  0
 14 15  1  0
 15 16  2  0
 16 17  1  0
 17 18  1  0
 18 19  2  3
 19 20  1  0
 20 21  1  0
 21 22  2  0
 22 23  1  0
 23 24  2  0
 24 25  1  0
 25 26  1  0
 25 27  2  0
 25 28  2  0
 24 29  1  0
 29 30  2  0
  7  2  1  0
 18 13  1  0
 30 21  1  0
  1 31  1  0
  1 32  1  0
  1 33  1  0
  3 34  1  0
  4 35  1  0
  5 36  1  0
  6 37  1  0
  8 38  1  0
  8 39  1  0
  9 40  1  0
  9 41  1  0
 10 42  1  0
 14 43  1  0
 15 44  1  0
 16 45  1  0
 20 46  1  0
 20 47  1  0
 22 48  1  0
 23 49  1  0
 26 50  1  0
 29 51  1  0
 30 52  1  0
M  CHG  2  17  -1  26  -1
M  END
>  <UniqueID>  (47) 
45

>  <SMILES>  (47) 
Cc1ccccc1CCNC(=O)c1ccc[n-]c1=NCc1ccc(S([NH-])(=O)=O)cc1

>  <Energy>  (47) 
63.71211127575597

>  <Genealogy>  (47) 
Cc1ccccc1CCNC(=O)c1ccc[n-]c1=NCc1ccc(S([NH-])(=O)=O)cc1 (protonated)
Cc1ccccc1CCNC(=O)c1ccc[n-]c1=NCc1ccc(S([NH-])(=O)=O)cc1 (3D coordinates assigned)
Cc1ccccc1CCNC(=O)c1ccc[n-]c1=NCc1ccc(S([NH-])(=O)=O)cc1 (optimized conformer: 63.71211127575597 kcal/mol)

>  <smiles>  (47) 
Cc1ccccc1CCNC(=O)c1ccc[nH]c1=NCc1ccc(S(N)(=O)=O)cc1

>  <score_type>  (47) 
oracle

>  <origin>  (47) 
adg

>  <m_score__min__energy>  (47) 
-12.1

>  <m_primary>  (47) 
energy

$$$$
47:0
     RDKit          3D

 23 25  0  0  0  0  0  0  0  0999 V2000
   60.0260   28.0340   46.9660 C   0  0  0  0  0  0  0  0  0  0  0  0
   58.6780   28.0520   46.4050 N   0  0  0  0  0  0  0  0  0  0  0  0
   58.0860   29.0060   45.6270 C   0  0  0  0  0  0  0  0  0  0  0  0
   58.6270   30.2140   45.1680 C   0  0  0  0  0  0  0  0  0  0  0  0
   59.9270   30.5890   45.4900 O   0  0  0  0  0  0  0  0  0  0  0  0
   57.8130   31.0490   44.3660 C   0  0  0  0  0  0  0  0  0  0  0  0
   58.2940   32.2640   43.8800 O   0  0  0  0  0  0  0  0  0  0  0  0
   56.4910   30.6610   44.0430 C   0  0  0  0  0  0  0  0  0  0  0  0
   55.9600   29.4460   44.5090 C   0  0  0  0  0  0  0  0  0  0  0  0
   56.7820   28.6480   45.2940 C   0  0  0  0  0  0  0  0  0  0  0  0
   56.5840   27.4340   45.8960 C   0  0  0  0  0  0  0  0  0  0  0  0
   55.6960   26.4090   46.1080 C   0  0  0  0  0  0  0  0  0  0  0  0
   54.4000   26.3380   45.6170 O   0  0  0  0  0  0  0  0  0  0  0  0
   56.2760   25.4490   46.8850 N   0  0  0  0  0  0  0  0  0  0  0  0
   57.5330   25.9040   47.1430 C   0  0  0  0  0  0  0  0  0  0  0  0
   58.4670   25.2210   47.9100 O   0  0  0  0  0  0  0  0  0  0  0  0
   57.7080   27.1210   46.5320 C   0  0  0  0  0  0  0  0  0  0  0  0
   59.9661   28.0348   48.0644 H   0  0  0  0  0  0  0  0  0  0  0  0
   60.5517   27.1288   46.6281 H   0  0  0  0  0  0  0  0  0  0  0  0
   60.5757   28.9249   46.6281 H   0  0  0  0  0  0  0  0  0  0  0  0
   59.2140   32.6130   44.1220 H   0  0  0  0  0  0  0  0  0  0  0  0
   55.8700   31.3198   43.4182 H   0  0  0  0  0  0  0  0  0  0  0  0
   54.9331   29.1390   44.2615 H   0  0  0  0  0  0  0  0  0  0  0  0
  1  2  1  0
  2  3  1  0
  3  4  2  0
  4  5  1  0
  4  6  1  0
  6  7  1  0
  6  8  2  0
  8  9  1  0
  9 10  2  0
 10 11  1  0
 11 12  2  0
 12 13  1  0
 12 14  1  0
 14 15  1  0
 15 16  1  0
 15 17  2  0
 17  2  1  0
 10  3  1  0
 17 11  1  0
  1 18  1  0
  1 19  1  0
  1 20  1  0
  7 21  1  0
  8 22  1  0
  9 23  1  0
M  CHG  4   5  -1  13  -1  14  -1  16  -1
M  END
>  <UniqueID>  (48) 
46

>  <SMILES>  (48) 
Cn1c2c([O-])c(O)ccc2c2c([O-])[n-]c([O-])c21

>  <Energy>  (48) 
121.17192098773994

>  <Genealogy>  (48) 
Cn1c2c([O-])c(O)ccc2c2c([O-])[n-]c([O-])c21 (protonated)
Cn1c2c([O-])c(O)ccc2c2c([O-])[n-]c([O-])c21 (3D coordinates assigned)
Cn1c2c([O-])c(O)ccc2c2c([O-])[n-]c([O-])c21 (optimized conformer: 121.17192098773994 kcal/mol)

>  <smiles>  (48) 
Cn1c2c(O)c(O)ccc2c2c(O)[nH]c(O)c21

>  <score_type>  (48) 
oracle

>  <origin>  (48) 
adg

>  <m_score__min__energy>  (48) 
-14.359999999999999

>  <m_primary>  (48) 
energy

$$$$
48:0
     RDKit          3D

 42 43  0  0  0  0  0  0  0  0999 V2000
   55.1280   26.4370   46.0000 N   0  0  0  0  0  0  0  0  0  0  0  0
   56.5200   26.1340   46.0690 C   0  0  0  0  0  0  0  0  0  0  0  0
   56.8800   24.9690   46.3890 O   0  0  0  0  0  0  0  0  0  0  0  0
   57.5320   27.1740   45.7690 C   0  0  0  0  0  0  0  0  0  0  0  0
   58.8920   26.8310   45.6440 C   0  0  0  0  0  0  0  0  0  0  0  0
   59.8450   27.8090   45.3520 C   0  0  0  0  0  0  0  0  0  0  0  0
   59.4570   29.1390   45.1820 C   0  0  0  0  0  0  0  0  0  0  0  0
   58.1120   29.5010   45.3100 C   0  0  0  0  0  0  0  0  0  0  0  0
   57.6250   31.1770   45.0650 S   0  0  0  0  0  0  0  0  0  0  0  0
   58.5380   31.8390   44.0690 O   0  0  0  0  0  0  0  0  0  0  0  0
   56.2250   31.2080   44.5180 O   0  0  0  0  0  0  0  0  0  0  0  0
   57.6680   32.0470   46.5680 N   0  0  0  0  0  0  0  0  0  0  0  0
   57.5330   33.4780   46.3150 C   0  0  0  0  0  0  0  0  0  0  0  0
   58.8810   34.1160   46.3720 C   0  0  0  0  0  0  0  0  0  0  0  0
   58.9810   35.3260   46.7160 O   0  0  0  0  0  0  0  0  0  0  0  0
   60.0480   33.3640   46.0110 N   0  0  0  0  0  0  0  0  0  0  0  0
   61.4060   33.8330   46.2910 C   0  0  0  0  0  0  0  0  0  0  0  0
   62.0450   33.0050   47.4120 C   0  0  0  0  0  0  0  0  0  0  0  0
   61.0330   32.1230   48.0950 C   0  0  0  0  0  0  0  0  0  0  0  0
   60.1380   32.6680   49.0330 C   0  0  0  0  0  0  0  0  0  0  0  0
   59.1660   31.8590   49.6300 C   0  0  0  0  0  0  0  0  0  0  0  0
   59.0720   30.5080   49.2890 C   0  0  0  0  0  0  0  0  0  0  0  0
   59.9520   29.9610   48.3510 C   0  0  0  0  0  0  0  0  0  0  0  0
   60.9300   30.7640   47.7550 C   0  0  0  0  0  0  0  0  0  0  0  0
   57.1520   28.5190   45.5980 C   0  0  0  0  0  0  0  0  0  0  0  0
   54.6790   27.0680   46.7000 H   0  0  0  0  0  0  0  0  0  0  0  0
   59.2059   25.7852   45.7773 H   0  0  0  0  0  0  0  0  0  0  0  0
   60.9048   27.5304   45.2557 H   0  0  0  0  0  0  0  0  0  0  0  0
   60.2110   29.9045   44.9467 H   0  0  0  0  0  0  0  0  0  0  0  0
   57.0932   33.6356   45.3191 H   0  0  0  0  0  0  0  0  0  0  0  0
   56.8789   33.9277   47.0765 H   0  0  0  0  0  0  0  0  0  0  0  0
   59.9290   32.3780   45.6890 H   0  0  0  0  0  0  0  0  0  0  0  0
   62.0155   33.7388   45.3802 H   0  0  0  0  0  0  0  0  0  0  0  0
   61.3581   34.8843   46.6112 H   0  0  0  0  0  0  0  0  0  0  0  0
   62.8369   32.3737   46.9826 H   0  0  0  0  0  0  0  0  0  0  0  0
   62.4578   33.6983   48.1597 H   0  0  0  0  0  0  0  0  0  0  0  0
   60.2027   33.7337   49.2978 H   0  0  0  0  0  0  0  0  0  0  0  0
   58.4740   32.2877   50.3698 H   0  0  0  0  0  0  0  0  0  0  0  0
   58.3053   29.8743   49.7587 H   0  0  0  0  0  0  0  0  0  0  0  0
   59.8754   28.8974   48.0811 H   0  0  0  0  0  0  0  0  0  0  0  0
   61.6209   30.3297   47.0174 H   0  0  0  0  0  0  0  0  0  0  0  0
   56.0932   28.8024   45.6910 H   0  0  0  0  0  0  0  0  0  0  0  0
  1  2  1  0
  2  3  2  0
  2  4  1  0
  4  5  2  0
  5  6  1  0
  6  7  2  0
  7  8  1  0
  8  9  1  0
  9 10  2  0
  9 11  2  0
  9 12  1  0
 12 13  1  0
 13 14  1  0
 14 15  2  0
 14 16  1  0
 16 17  1  0
 17 18  1  0
 18 19  1  0
 19 20  2  0
 20 21  1  0
 21 22  2  0
 22 23  1  0
 23 24  2  0
  8 25  2  0
 25  4  1  0
 24 19  1  0
  1 26  1  0
  5 27  1  0
  6 28  1  0
  7 29  1  0
 13 30  1  0
 13 31  1  0
 16 32  1  0
 17 33  1  0
 17 34  1  0
 18 35  1  0
 18 36  1  0
 20 37  1  0
 21 38  1  0
 22 39  1  0
 23 40  1  0
 24 41  1  0
 25 42  1  0
M  CHG  2   1  -1  12  -1
M  END
>  <UniqueID>  (49) 
47

>  <SMILES>  (49) 
[NH-]C(=O)c1cccc(S(=O)(=O)[N-]CC(=O)NCCc2ccccc2)c1

>  <Energy>  (49) 
34.06019702720226

>  <Genealogy>  (49) 
[NH-]C(=O)c1cccc(S(=O)(=O)[N-]CC(=O)NCCc2ccccc2)c1 (protonated)
[NH-]C(=O)c1cccc(S(=O)(=O)[N-]CC(=O)NCCc2ccccc2)c1 (3D coordinates assigned)
[NH-]C(=O)c1cccc(S(=O)(=O)[N-]CC(=O)NCCc2ccccc2)c1 (optimized conformer: 34.06019702720226 kcal/mol)

>  <smiles>  (49) 
NC(=O)c1cccc(S(=O)(=O)NCC(=O)NCCc2ccccc2)c1

>  <score_type>  (49) 
oracle

>  <origin>  (49) 
adg

>  <m_score__min__energy>  (49) 
-12.75

>  <m_primary>  (49) 
energy

$$$$
49:0
     RDKit          3D

 36 37  0  0  0  0  0  0  0  0999 V2000
   56.9220   21.0770   42.9830 C   0  0  0  0  0  0  0  0  0  0  0  0
   55.9140   22.0740   43.1190 O   0  0  0  0  0  0  0  0  0  0  0  0
   56.0480   23.2390   43.8920 C   0  0  0  0  0  0  0  0  0  0  0  0
   57.1500   24.1040   43.7560 C   0  0  0  0  0  0  0  0  0  0  0  0
   57.2510   25.2490   44.5470 C   0  0  0  0  0  0  0  0  0  0  0  0
   56.2600   25.5550   45.4820 C   0  0  0  0  0  0  0  0  0  0  0  0
   56.4160   26.7320   46.2870 N   0  0  0  0  0  0  0  0  0  0  0  0
   57.8930   27.6230   46.4780 S   0  0  0  0  0  0  0  0  0  0  0  0
   59.0160   26.8070   45.9020 O   0  0  0  0  0  0  0  0  0  0  0  0
   58.1590   27.8290   47.9420 O   0  0  0  0  0  0  0  0  0  0  0  0
   57.7610   29.2150   45.6910 C   0  0  0  0  0  0  0  0  0  0  0  0
   58.8340   30.1370   45.6980 C   0  0  0  0  0  0  0  0  0  0  0  0
   60.1480   29.8230   46.3660 C   0  0  0  0  0  0  0  0  0  0  0  0
   58.6690   31.3640   45.1240 N   0  0  0  0  0  0  0  0  0  0  0  0
   57.5030   31.7090   44.5190 C   0  0  0  0  0  0  0  0  0  0  0  0
   57.3750   32.8450   43.9910 O   0  0  0  0  0  0  0  0  0  0  0  0
   56.4730   30.8310   44.4800 N   0  0  0  0  0  0  0  0  0  0  0  0
   56.5710   29.6020   45.0440 C   0  0  0  0  0  0  0  0  0  0  0  0
   55.5840   28.8240   44.9790 O   0  0  0  0  0  0  0  0  0  0  0  0
   55.1510   24.7020   45.6140 C   0  0  0  0  0  0  0  0  0  0  0  0
   55.0450   23.5380   44.8280 C   0  0  0  0  0  0  0  0  0  0  0  0
   53.9600   22.6550   44.9490 O   0  0  0  0  0  0  0  0  0  0  0  0
   53.3630   22.2760   46.1840 C   0  0  0  0  0  0  0  0  0  0  0  0
   57.2519   20.7507   43.9803 H   0  0  0  0  0  0  0  0  0  0  0  0
   56.5147   20.2166   42.4318 H   0  0  0  0  0  0  0  0  0  0  0  0
   57.7779   21.4937   42.4318 H   0  0  0  0  0  0  0  0  0  0  0  0
   57.9365   23.8759   43.0216 H   0  0  0  0  0  0  0  0  0  0  0  0
   58.1183   25.9160   44.4331 H   0  0  0  0  0  0  0  0  0  0  0  0
   60.0206   29.8534   47.4582 H   0  0  0  0  0  0  0  0  0  0  0  0
   60.4825   28.8196   46.0637 H   0  0  0  0  0  0  0  0  0  0  0  0
   60.9000   30.5667   46.0637 H   0  0  0  0  0  0  0  0  0  0  0  0
   59.4500   32.0610   45.1450 H   0  0  0  0  0  0  0  0  0  0  0  0
   54.3589   24.9455   46.3374 H   0  0  0  0  0  0  0  0  0  0  0  0
   53.9690   22.6607   47.0175 H   0  0  0  0  0  0  0  0  0  0  0  0
   52.3479   22.6954   46.2445 H   0  0  0  0  0  0  0  0  0  0  0  0
   53.3106   21.1789   46.2445 H   0  0  0  0  0  0  0  0  0  0  0  0
  1  2  1  0
  2  3  1  0
  3  4  2  0
  4  5  1  0
  5  6  2  0
  6  7  1  0
  7  8  1  0
  8  9  2  0
  8 10  2  0
  8 11  1  0
 11 12  2  0
 12 13  1  0
 12 14  1  0
 14 15  1  0
 15 16  2  0
 15 17  1  0
 17 18  1  0
 18 19  2  0
  6 20  1  0
 20 21  2  0
 21 22  1  0
 22 23  1  0
 21  3  1  0
 18 11  1  0
  1 24  1  0
  1 25  1  0
  1 26  1  0
  4 27  1  0
  5 28  1  0
 13 29  1  0
 13 30  1  0
 13 31  1  0
 14 32  1  0
 20 33  1  0
 23 34  1  0
 23 35  1  0
 23 36  1  0
M  CHG  2   7  -1  17  -1
M  END
>  <UniqueID>  (50) 
48

>  <SMILES>  (50) 
COc1ccc([N-]S(=O)(=O)c2c(C)[nH]c(=O)[n-]c2=O)cc1OC

>  <Energy>  (50) 
41.34762627729906

>  <Genealogy>  (50) 
COc1ccc([N-]S(=O)(=O)c2c(C)[nH]c(=O)[n-]c2=O)cc1OC (protonated)
COc1ccc([N-]S(=O)(=O)c2c(C)[nH]c(=O)[n-]c2=O)cc1OC (3D coordinates assigned)
COc1ccc([N-]S(=O)(=O)c2c(C)[nH]c(=O)[n-]c2=O)cc1OC (optimized conformer: 41.34762627729906 kcal/mol)

>  <smiles>  (50) 
COc1ccc(NS(=O)(=O)c2c(C)[nH]c(=O)[nH]c2=O)cc1OC

>  <score_type>  (50) 
oracle

>  <origin>  (50) 
adg

>  <m_score__min__energy>  (50) 
-9.9399999999999995

>  <m_primary>  (50) 
energy

$$$$
50:0
     RDKit          3D

 36 38  0  0  0  0  0  0  0  0999 V2000
   64.3490   34.6890   51.0440 H   0  0  0  0  0  0  0  0  0  0  0  0
   64.2320   33.8400   50.4460 N   0  0  0  0  0  0  0  0  0  0  0  0
   63.3720   33.8050   49.4820 C   0  0  0  0  0  0  0  0  0  0  0  0
   63.8010   33.8390   48.1930 N   0  0  0  0  0  0  0  0  0  0  0  0
   62.9260   33.8050   47.1540 C   0  0  0  0  0  0  0  0  0  0  0  0
   63.3680   33.8380   45.9740 O   0  0  0  0  0  0  0  0  0  0  0  0
   61.5460   33.7330   47.4070 C   0  0  0  0  0  0  0  0  0  0  0  0
   60.5910   33.6920   46.3780 C   0  0  0  0  0  0  0  0  0  0  0  0
   60.9148   33.7250   45.3273 H   0  0  0  0  0  0  0  0  0  0  0  0
   59.2250   33.6090   46.6870 C   0  0  0  0  0  0  0  0  0  0  0  0
   58.0350   33.5310   45.3910 S   0  0  0  0  0  0  0  0  0  0  0  0
   58.1550   34.7700   44.5500 O   0  0  0  0  0  0  0  0  0  0  0  0
   56.6420   33.4530   45.9530 O   0  0  0  0  0  0  0  0  0  0  0  0
   58.3240   32.1370   44.3980 N   0  0  0  0  0  0  0  0  0  0  0  0
   58.8930   32.2820   43.5340 H   0  0  0  0  0  0  0  0  0  0  0  0
   57.9380   30.7990   44.7630 C   0  0  0  0  0  0  0  0  0  0  0  0
   58.8900   29.9470   45.3450 C   0  0  0  0  0  0  0  0  0  0  0  0
   59.9172   30.3060   45.5065 H   0  0  0  0  0  0  0  0  0  0  0  0
   58.5430   28.6460   45.7210 C   0  0  0  0  0  0  0  0  0  0  0  0
   59.2983   27.9865   46.1733 H   0  0  0  0  0  0  0  0  0  0  0  0
   57.2370   28.1790   45.5240 C   0  0  0  0  0  0  0  0  0  0  0  0
   56.8060   26.5360   45.9890 S   0  0  0  0  0  0  0  0  0  0  0  0
   57.3430   26.2380   47.3610 O   0  0  0  0  0  0  0  0  0  0  0  0
   57.4010   25.5580   45.0160 O   0  0  0  0  0  0  0  0  0  0  0  0
   55.0860   26.3720   45.9960 N   0  0  0  0  0  0  0  0  0  0  0  0
   54.7160   27.0750   46.6740 H   0  0  0  0  0  0  0  0  0  0  0  0
   56.2870   29.0170   44.9280 C   0  0  0  0  0  0  0  0  0  0  0  0
   55.2641   28.6503   44.7572 H   0  0  0  0  0  0  0  0  0  0  0  0
   56.6320   30.3170   44.5490 C   0  0  0  0  0  0  0  0  0  0  0  0
   55.8790   30.9679   44.0807 H   0  0  0  0  0  0  0  0  0  0  0  0
   58.8140   33.5790   48.0270 C   0  0  0  0  0  0  0  0  0  0  0  0
   57.7427   33.5213   48.2698 H   0  0  0  0  0  0  0  0  0  0  0  0
   59.7590   33.6220   49.0560 C   0  0  0  0  0  0  0  0  0  0  0  0
   59.4299   33.5976   50.1053 H   0  0  0  0  0  0  0  0  0  0  0  0
   61.1230   33.6960   48.7530 C   0  0  0  0  0  0  0  0  0  0  0  0
   62.0410   33.7340   49.7530 N   0  0  0  0  0  0  0  0  0  0  0  0
  1  2  1  0
  2  3  2  0
  3  4  1  0
  4  5  1  0
  5  6  2  0
  5  7  1  0
  7  8  2  0
  8  9  1  0
  8 10  1  0
 10 11  1  0
 11 12  2  0
 11 13  2  0
 11 14  1  0
 14 15  1  0
 14 16  1  0
 16 17  2  0
 17 18  1  0
 17 19  1  0
 19 20  1  0
 19 21  2  0
 21 22  1  0
 22 23  2  0
 22 24  2  0
 22 25  1  0
 25 26  1  0
 21 27  1  0
 27 28  1  0
 27 29  2  0
 29 30  1  0
 10 31  2  0
 31 32  1  0
 31 33  1  0
 33 34  1  0
 33 35  2  0
 35 36  1  0
 36  3  1  0
 35  7  1  0
 29 16  1  0
M  CHG  3   4  -1  25  -1  36  -1
M  END
>  <UniqueID>  (51) 
49

>  <SMILES>  (51) 
[H]/N=c1/[n-]c(=O)c2cc(S(=O)(=O)Nc3ccc(S([NH-])(=O)=O)cc3)ccc2[n-]1

>  <Energy>  (51) 
45.29969759498222

>  <Genealogy>  (51) 
N=c1[n-]c(=O)c2cc(S(=O)(=O)Nc3ccc(S([NH-])(=O)=O)cc3)ccc2[n-]1 (protonated)
[H]/N=c1/[n-]c(=O)c2cc(S(=O)(=O)Nc3ccc(S([NH-])(=O)=O)cc3)ccc2[n-]1 (cis-trans isomerization)
[H]/N=c1/[n-]c(=O)c2cc(S(=O)(=O)Nc3ccc(S([NH-])(=O)=O)cc3)ccc2[n-]1 (3D coordinates assigned)
[H]/N=c1/[n-]c(=O)c2cc(S(=O)(=O)Nc3ccc(S([NH-])(=O)=O)cc3)ccc2[n-]1 (optimized conformer: 45.29969759498222 kcal/mol)

>  <smiles>  (51) 
N=c1[nH]c(=O)c2cc(S(=O)(=O)Nc3ccc(S(N)(=O)=O)cc3)ccc2[nH]1

>  <score_type>  (51) 
oracle

>  <origin>  (51) 
adg

>  <m_score__min__energy>  (51) 
-12.85

>  <m_primary>  (51) 
energy

$$$$
51:0
     RDKit          3D

 41 43  0  0  0  0  0  0  0  0999 V2000
   61.0110   28.4788   47.8934 H   0  0  0  0  0  0  0  0  0  0  0  0
   60.1130   29.0550   48.1610 C   0  0  0  0  0  0  0  0  0  0  0  0
   60.1750   29.8550   49.2360 C   0  0  0  0  0  0  0  0  0  0  0  0
   60.7497   30.7904   49.1671 H   0  0  0  0  0  0  0  0  0  0  0  0
   59.4980   29.5260   50.5140 C   0  0  0  0  0  0  0  0  0  0  0  0
   60.0110   28.5710   51.4060 C   0  0  0  0  0  0  0  0  0  0  0  0
   61.1980   27.8990   51.1380 O   0  0  0  0  0  0  0  0  0  0  0  0
   59.3650   28.3180   52.5680 N   0  0  0  0  0  0  0  0  0  0  0  0
   58.2270   28.9710   52.9080 C   0  0  0  0  0  0  0  0  0  0  0  0
   57.6740   28.6990   54.0080 O   0  0  0  0  0  0  0  0  0  0  0  0
   57.6940   29.9190   52.0710 N   0  0  0  0  0  0  0  0  0  0  0  0
   56.4750   30.6530   52.4620 C   0  0  0  0  0  0  0  0  0  0  0  0
   56.6141   31.0783   53.4669 H   0  0  0  0  0  0  0  0  0  0  0  0
   56.2928   31.4575   51.7343 H   0  0  0  0  0  0  0  0  0  0  0  0
   55.2680   29.7100   52.4750 C   0  0  0  0  0  0  0  0  0  0  0  0
   55.3805   28.9679   51.6709 H   0  0  0  0  0  0  0  0  0  0  0  0
   55.2210   29.2081   53.4527 H   0  0  0  0  0  0  0  0  0  0  0  0
   53.9920   30.4790   52.2630 C   0  0  0  0  0  0  0  0  0  0  0  0
   53.6230   30.8980   50.9730 C   0  0  0  0  0  0  0  0  0  0  0  0
   54.2566   30.6410   50.1113 H   0  0  0  0  0  0  0  0  0  0  0  0
   52.4540   31.6400   50.7810 C   0  0  0  0  0  0  0  0  0  0  0  0
   52.1660   31.9592   49.7685 H   0  0  0  0  0  0  0  0  0  0  0  0
   51.6500   31.9770   51.8750 C   0  0  0  0  0  0  0  0  0  0  0  0
   50.4890   32.7150   51.6820 O   0  0  0  0  0  0  0  0  0  0  0  0
   52.0180   31.5750   53.1620 C   0  0  0  0  0  0  0  0  0  0  0  0
   51.3873   31.8433   54.0224 H   0  0  0  0  0  0  0  0  0  0  0  0
   53.1870   30.8320   53.3580 C   0  0  0  0  0  0  0  0  0  0  0  0
   53.4765   30.5233   54.3733 H   0  0  0  0  0  0  0  0  0  0  0  0
   58.3320   30.2170   50.8910 C   0  0  0  0  0  0  0  0  0  0  0  0
   57.8690   31.1110   50.1280 O   0  0  0  0  0  0  0  0  0  0  0  0
   58.9070   28.9000   47.3110 C   0  0  0  0  0  0  0  0  0  0  0  0
   58.4820   30.0000   46.5440 C   0  0  0  0  0  0  0  0  0  0  0  0
   59.0409   30.9462   46.5922 H   0  0  0  0  0  0  0  0  0  0  0  0
   57.3560   29.9020   45.7210 C   0  0  0  0  0  0  0  0  0  0  0  0
   57.0286   30.7717   45.1324 H   0  0  0  0  0  0  0  0  0  0  0  0
   56.6460   28.7010   45.6450 C   0  0  0  0  0  0  0  0  0  0  0  0
   55.5280   28.6060   44.8270 O   0  0  0  0  0  0  0  0  0  0  0  0
   57.0650   27.5960   46.3890 C   0  0  0  0  0  0  0  0  0  0  0  0
   56.5085   26.6493   46.3253 H   0  0  0  0  0  0  0  0  0  0  0  0
   58.1900   27.6890   47.2150 C   0  0  0  0  0  0  0  0  0  0  0  0
   58.5176   26.8125   47.7932 H   0  0  0  0  0  0  0  0  0  0  0  0
  1  2  1  0
  2  3  2  0
  3  4  1  0
  3  5  1  0
  5  6  2  0
  6  7  1  0
  6  8  1  0
  8  9  1  0
  9 10  2  0
  9 11  1  0
 11 12  1  0
 12 13  1  0
 12 14  1  0
 12 15  1  0
 15 16  1  0
 15 17  1  0
 15 18  1  0
 18 19  2  0
 19 20  1  0
 19 21  1  0
 21 22  1  0
 21 23  2  0
 23 24  1  0
 23 25  1  0
 25 26  1  0
 25 27  2  0
 27 28  1  0
 11 29  1  0
 29 30  2  0
  2 31  1  0
 31 32  2  0
 32 33  1  0
 32 34  1  0
 34 35  1  0
 34 36  2  0
 36 37  1  0
 36 38  1  0
 38 39  1  0
 38 40  2  0
 40 41  1  0
 29  5  1  0
 40 31  1  0
 27 18  1  0
M  CHG  4   7  -1   8  -1  24  -1  37  -1
M  END
>  <UniqueID>  (52) 
50

>  <SMILES>  (52) 
O=c1[n-]c([O-])c(/C=C/c2ccc([O-])cc2)c(=O)n1CCc1ccc([O-])cc1

>  <Energy>  (52) 
53.918627176461776

>  <Genealogy>  (52) 
O=c1[n-]c([O-])c(C=Cc2ccc([O-])cc2)c(=O)n1CCc1ccc([O-])cc1 (protonated)
O=c1[n-]c([O-])c(/C=C/c2ccc([O-])cc2)c(=O)n1CCc1ccc([O-])cc1 (cis-trans isomerization)
O=c1[n-]c([O-])c(/C=C/c2ccc([O-])cc2)c(=O)n1CCc1ccc([O-])cc1 (3D coordinates assigned)
O=c1[n-]c([O-])c(/C=C/c2ccc([O-])cc2)c(=O)n1CCc1ccc([O-])cc1 (optimized conformer: 53.918627176461776 kcal/mol)

>  <smiles>  (52) 
O=c1[nH]c(O)c(C=Cc2ccc(O)cc2)c(=O)n1CCc1ccc(O)cc1

>  <score_type>  (52) 
oracle

>  <origin>  (52) 
adg

>  <m_score__min__energy>  (52) 
-15.880000000000001

>  <m_primary>  (52) 
energy

$$$$
52:0
     RDKit          3D

 40 42  0  0  0  0  0  0  0  0999 V2000
   57.0210   34.5030   45.2860 N   0  0  0  0  0  0  0  0  0  0  0  0
   58.1280   33.9770   46.0300 C   0  0  0  0  0  0  0  0  0  0  0  0
   58.5410   34.6440   47.1940 C   0  0  0  0  0  0  0  0  0  0  0  0
   59.6550   34.2020   47.9100 C   0  0  0  0  0  0  0  0  0  0  0  0
   60.3680   33.0860   47.4730 C   0  0  0  0  0  0  0  0  0  0  0  0
   59.9670   32.4060   46.3230 C   0  0  0  0  0  0  0  0  0  0  0  0
   58.8440   32.8350   45.5920 C   0  0  0  0  0  0  0  0  0  0  0  0
   58.4370   32.0610   44.3950 C   0  0  0  0  0  0  0  0  0  0  0  0
   57.7920   32.6340   43.4780 O   0  0  0  0  0  0  0  0  0  0  0  0
   58.6750   30.6510   44.2940 N   0  0  0  0  0  0  0  0  0  0  0  0
   57.7850   29.6170   44.7460 C   0  0  0  0  0  0  0  0  0  0  0  0
   58.2700   28.4190   45.2920 C   0  0  0  0  0  0  0  0  0  0  0  0
   57.3810   27.4490   45.7650 C   0  0  0  0  0  0  0  0  0  0  0  0
   57.9160   26.2140   46.3720 C   0  0  0  0  0  0  0  0  0  0  0  0
   58.5130   25.2260   45.6860 C   0  0  0  0  0  0  0  0  0  0  0  0
   57.8100   24.0880   45.0510 C   0  0  0  0  0  0  0  0  0  0  0  0
   58.5400   22.9370   44.7180 C   0  0  0  0  0  0  0  0  0  0  0  0
   57.9000   21.8380   44.1350 C   0  0  0  0  0  0  0  0  0  0  0  0
   56.5230   21.8730   43.8970 C   0  0  0  0  0  0  0  0  0  0  0  0
   55.8940   20.7790   43.3130 O   0  0  0  0  0  0  0  0  0  0  0  0
   55.7810   23.0050   44.2530 C   0  0  0  0  0  0  0  0  0  0  0  0
   54.4090   23.0390   44.0310 O   0  0  0  0  0  0  0  0  0  0  0  0
   56.4180   24.1040   44.8370 C   0  0  0  0  0  0  0  0  0  0  0  0
   55.9990   27.6640   45.6120 C   0  0  0  0  0  0  0  0  0  0  0  0
   55.0800   26.7040   46.0190 O   0  0  0  0  0  0  0  0  0  0  0  0
   55.5520   28.8140   45.0440 N   0  0  0  0  0  0  0  0  0  0  0  0
   56.4000   29.7840   44.6110 C   0  0  0  0  0  0  0  0  0  0  0  0
   55.9320   30.8350   44.0990 O   0  0  0  0  0  0  0  0  0  0  0  0
   56.2390   35.0180   45.7450 H   0  0  0  0  0  0  0  0  0  0  0  0
   56.9310   34.3080   44.2640 H   0  0  0  0  0  0  0  0  0  0  0  0
   57.9815   35.5235   47.5454 H   0  0  0  0  0  0  0  0  0  0  0  0
   59.9705   34.7343   48.8194 H   0  0  0  0  0  0  0  0  0  0  0  0
   61.2479   32.7415   48.0360 H   0  0  0  0  0  0  0  0  0  0  0  0
   60.5340   31.5262   45.9845 H   0  0  0  0  0  0  0  0  0  0  0  0
   59.3542   28.2421   45.3482 H   0  0  0  0  0  0  0  0  0  0  0  0
   57.8189   26.0950   47.4612 H   0  0  0  0  0  0  0  0  0  0  0  0
   59.6080   25.2650   45.5883 H   0  0  0  0  0  0  0  0  0  0  0  0
   59.6213   22.8985   44.9164 H   0  0  0  0  0  0  0  0  0  0  0  0
   58.4815   20.9446   43.8634 H   0  0  0  0  0  0  0  0  0  0  0  0
   55.8292   24.9855   45.1308 H   0  0  0  0  0  0  0  0  0  0  0  0
  1  2  1  0
  2  3  2  0
  3  4  1  0
  4  5  2  0
  5  6  1  0
  6  7  2  0
  7  8  1  0
  8  9  2  0
  8 10  1  0
 10 11  1  0
 11 12  2  0
 12 13  1  0
 13 14  1  0
 14 15  2  3
 15 16  1  0
 16 17  2  0
 17 18  1  0
 18 19  2  0
 19 20  1  0
 19 21  1  0
 21 22  1  0
 21 23  2  0
 13 24  2  0
 24 25  1  0
 24 26  1  0
 26 27  1  0
 27 28  2  0
  7  2  1  0
 27 11  1  0
 23 16  1  0
  1 29  1  0
  1 30  1  0
  3 31  1  0
  4 32  1  0
  5 33  1  0
  6 34  1  0
 12 35  1  0
 14 36  1  0
 15 37  1  0
 17 38  1  0
 18 39  1  0
 23 40  1  0
M  CHG  5  10  -1  20  -1  22  -1  25  -1  26  -1
M  END
>  <UniqueID>  (53) 
51

>  <SMILES>  (53) 
Nc1ccccc1C(=O)[N-]c1cc(C=Cc2ccc([O-])c([O-])c2)c([O-])[n-]c1=O

>  <Energy>  (53) 
62.972488140956855

>  <Genealogy>  (53) 
Nc1ccccc1C(=O)[N-]c1cc(C=Cc2ccc([O-])c([O-])c2)c([O-])[n-]c1=O (protonated)
Nc1ccccc1C(=O)[N-]c1cc(C=Cc2ccc([O-])c([O-])c2)c([O-])[n-]c1=O (3D coordinates assigned)
Nc1ccccc1C(=O)[N-]c1cc(C=Cc2ccc([O-])c([O-])c2)c([O-])[n-]c1=O (optimized conformer: 62.972488140956855 kcal/mol)

>  <smiles>  (53) 
Nc1ccccc1C(=O)Nc1cc(C=Cc2ccc(O)c(O)c2)c(O)[nH]c1=O

>  <score_type>  (53) 
oracle

>  <origin>  (53) 
adg

>  <m_score__min__energy>  (53) 
-18.550000000000001

>  <m_primary>  (53) 
energy

$$$$
53:0
     RDKit          3D

 50 53  0  0  0  0  0  0  0  0999 V2000
   56.2560   30.4680   43.9750 O   0  0  0  0  0  0  0  0  0  0  0  0
   57.0550   30.1130   44.8830 C   0  0  0  0  0  0  0  0  0  0  0  0
   57.6580   28.7420   44.8530 C   0  0  0  0  0  0  0  0  0  0  0  0
   57.8370   28.0320   46.5340 S   0  0  0  0  0  0  0  0  0  0  0  0
   56.9750   26.5030   46.1740 C   0  0  0  0  0  0  0  0  0  0  0  0
   55.6530   26.3460   46.3560 N   0  0  0  0  0  0  0  0  0  0  0  0
   55.3460   25.1580   45.8690 N   0  0  0  0  0  0  0  0  0  0  0  0
   56.4910   24.6230   45.4030 C   0  0  0  0  0  0  0  0  0  0  0  0
   56.5630   23.3220   44.7120 C   0  0  0  0  0  0  0  0  0  0  0  0
   56.6220   22.1280   45.4520 C   0  0  0  0  0  0  0  0  0  0  0  0
   56.6660   20.8940   44.7960 C   0  0  0  0  0  0  0  0  0  0  0  0
   56.6650   20.8430   43.4000 C   0  0  0  0  0  0  0  0  0  0  0  0
   56.6140   22.0240   42.6570 C   0  0  0  0  0  0  0  0  0  0  0  0
   56.5560   23.2600   43.3080 C   0  0  0  0  0  0  0  0  0  0  0  0
   57.5510   25.4400   45.5790 N   0  0  0  0  0  0  0  0  0  0  0  0
   57.4070   31.0020   45.9500 N   0  0  0  0  0  0  0  0  0  0  0  0
   57.9370   32.3350   45.8620 C   0  0  0  0  0  0  0  0  0  0  0  0
   57.8410   33.0810   44.6700 C   0  0  0  0  0  0  0  0  0  0  0  0
   58.4650   34.3250   44.5580 C   0  0  0  0  0  0  0  0  0  0  0  0
   59.2110   34.8330   45.6200 C   0  0  0  0  0  0  0  0  0  0  0  0
   59.3350   34.0990   46.8000 C   0  0  0  0  0  0  0  0  0  0  0  0
   58.6980   32.8520   46.9390 C   0  0  0  0  0  0  0  0  0  0  0  0
   58.8520   32.1070   48.2110 C   0  0  0  0  0  0  0  0  0  0  0  0
   58.1410   32.4120   49.2070 O   0  0  0  0  0  0  0  0  0  0  0  0
   59.7790   31.0180   48.3020 N   0  0  0  0  0  0  0  0  0  0  0  0
   60.8660   30.8010   47.3550 C   0  0  0  0  0  0  0  0  0  0  0  0
   62.0090   31.7320   47.6480 C   0  0  0  0  0  0  0  0  0  0  0  0
   62.7900   31.5650   48.8040 C   0  0  0  0  0  0  0  0  0  0  0  0
   63.8590   32.4310   49.0600 C   0  0  0  0  0  0  0  0  0  0  0  0
   64.1440   33.4750   48.1750 C   0  0  0  0  0  0  0  0  0  0  0  0
   63.3580   33.6570   47.0330 C   0  0  0  0  0  0  0  0  0  0  0  0
   62.2970   32.7880   46.7670 C   0  0  0  0  0  0  0  0  0  0  0  0
   57.0107   28.0825   44.2562 H   0  0  0  0  0  0  0  0  0  0  0  0
   58.6616   28.8224   44.4100 H   0  0  0  0  0  0  0  0  0  0  0  0
   56.6336   22.1648   46.5513 H   0  0  0  0  0  0  0  0  0  0  0  0
   56.7014   19.9624   45.3798 H   0  0  0  0  0  0  0  0  0  0  0  0
   56.7044   19.8715   42.8856 H   0  0  0  0  0  0  0  0  0  0  0  0
   56.6195   21.9820   41.5578 H   0  0  0  0  0  0  0  0  0  0  0  0
   56.5047   24.1876   42.7189 H   0  0  0  0  0  0  0  0  0  0  0  0
   57.2693   32.6795   43.8203 H   0  0  0  0  0  0  0  0  0  0  0  0
   58.3675   34.9058   43.6289 H   0  0  0  0  0  0  0  0  0  0  0  0
   59.7022   35.8129   45.5278 H   0  0  0  0  0  0  0  0  0  0  0  0
   59.9365   34.4989   47.6296 H   0  0  0  0  0  0  0  0  0  0  0  0
   61.2154   29.7611   47.4362 H   0  0  0  0  0  0  0  0  0  0  0  0
   60.4975   30.9972   46.3373 H   0  0  0  0  0  0  0  0  0  0  0  0
   62.5608   30.7522   49.5089 H   0  0  0  0  0  0  0  0  0  0  0  0
   64.4763   32.2900   49.9595 H   0  0  0  0  0  0  0  0  0  0  0  0
   64.9863   34.1530   48.3770 H   0  0  0  0  0  0  0  0  0  0  0  0
   63.5754   34.4857   46.3430 H   0  0  0  0  0  0  0  0  0  0  0  0
   61.6847   32.9310   45.8644 H   0  0  0  0  0  0  0  0  0  0  0  0
  1  2  2  0
  2  3  1  0
  3  4  1  0
  4  5  1  0
  5  6  2  0
  6  7  1  0
  7  8  1  0
  8  9  1  0
  9 10  2  0
 10 11  1  0
 11 12  2  0
 12 13  1  0
 13 14  2  0
  8 15  2  0
  2 16  1  0
 16 17  1  0
 17 18  2  0
 18 19  1  0
 19 20  2  0
 20 21  1  0
 21 22  2  0
 22 23  1  0
 23 24  2  0
 23 25  1  0
 25 26  1  0
 26 27  1  0
 27 28  2  0
 28 29  1  0
 29 30  2  0
 30 31  1  0
 31 32  2  0
 15  5  1  0
 22 17  1  0
 32 27  1  0
 14  9  1  0
  3 33  1  0
  3 34  1  0
 10 35  1  0
 11 36  1  0
 12 37  1  0
 13 38  1  0
 14 39  1  0
 18 40  1  0
 19 41  1  0
 20 42  1  0
 21 43  1  0
 26 44  1  0
 26 45  1  0
 28 46  1  0
 29 47  1  0
 30 48  1  0
 31 49  1  0
 32 50  1  0
M  CHG  3   7  -1  16  -1  25  -1
M  END
>  <UniqueID>  (54) 
52

>  <SMILES>  (54) 
O=C(CSc1n[n-]c(-c2ccccc2)n1)[N-]c1ccccc1C(=O)[N-]Cc1ccccc1

>  <Energy>  (54) 
81.25220421272911

>  <Genealogy>  (54) 
O=C(CSc1n[n-]c(-c2ccccc2)n1)[N-]c1ccccc1C(=O)[N-]Cc1ccccc1 (protonated)
O=C(CSc1n[n-]c(-c2ccccc2)n1)[N-]c1ccccc1C(=O)[N-]Cc1ccccc1 (3D coordinates assigned)
O=C(CSc1n[n-]c(-c2ccccc2)n1)[N-]c1ccccc1C(=O)[N-]Cc1ccccc1 (optimized conformer: 81.25220421272911 kcal/mol)

>  <smiles>  (54) 
O=C(CSc1n[nH]c(-c2ccccc2)n1)Nc1ccccc1C(=O)NCc1ccccc1

>  <score_type>  (54) 
oracle

>  <origin>  (54) 
adg

>  <m_score__min__energy>  (54) 
-14.27

>  <m_primary>  (54) 
energy

$$$$
54:0
     RDKit          3D

 42 43  0  0  0  0  0  0  0  0999 V2000
   57.7610   32.2540   42.2140 C   0  0  0  0  0  0  0  0  0  0  0  0
   58.0480   31.9870   43.6180 N   0  0  0  0  0  0  0  0  0  0  0  0
   58.2730   33.0500   44.5540 C   0  0  0  0  0  0  0  0  0  0  0  0
   58.2530   34.2460   44.1620 O   0  0  0  0  0  0  0  0  0  0  0  0
   58.5070   32.7520   45.9850 C   0  0  0  0  0  0  0  0  0  0  0  0
   58.6370   33.8300   46.8800 C   0  0  0  0  0  0  0  0  0  0  0  0
   58.9900   33.6110   48.2120 C   0  0  0  0  0  0  0  0  0  0  0  0
   59.2300   32.3170   48.6680 C   0  0  0  0  0  0  0  0  0  0  0  0
   59.0960   31.2330   47.7980 C   0  0  0  0  0  0  0  0  0  0  0  0
   58.7070   31.4300   46.4660 C   0  0  0  0  0  0  0  0  0  0  0  0
   58.5690   30.2640   45.6390 N   0  0  0  0  0  0  0  0  0  0  0  0
   57.3650   29.5290   45.3900 C   0  0  0  0  0  0  0  0  0  0  0  0
   56.3660   30.0890   44.8630 O   0  0  0  0  0  0  0  0  0  0  0  0
   57.2890   28.0870   45.7880 C   0  0  0  0  0  0  0  0  0  0  0  0
   55.9380   27.5630   45.6000 N   0  0  0  0  0  0  0  0  0  0  0  0
   55.5180   26.2700   46.0450 C   0  0  0  0  0  0  0  0  0  0  0  0
   56.2570   25.6130   46.8240 O   0  0  0  0  0  0  0  0  0  0  0  0
   54.2540   25.7450   45.6320 N   0  0  0  0  0  0  0  0  0  0  0  0
   53.9170   24.3300   45.6330 C   0  0  0  0  0  0  0  0  0  0  0  0
   55.0350   23.5700   44.9810 C   0  0  0  0  0  0  0  0  0  0  0  0
   55.9070   22.7910   45.7590 C   0  0  0  0  0  0  0  0  0  0  0  0
   57.0000   22.1510   45.1650 C   0  0  0  0  0  0  0  0  0  0  0  0
   57.2350   22.2920   43.7940 C   0  0  0  0  0  0  0  0  0  0  0  0
   56.3790   23.0740   43.0150 C   0  0  0  0  0  0  0  0  0  0  0  0
   55.2850   23.7150   43.6050 C   0  0  0  0  0  0  0  0  0  0  0  0
   56.9575   33.0015   42.1397 H   0  0  0  0  0  0  0  0  0  0  0  0
   58.6662   32.6386   41.7214 H   0  0  0  0  0  0  0  0  0  0  0  0
   57.4427   31.3234   41.7214 H   0  0  0  0  0  0  0  0  0  0  0  0
   58.1210   30.9930   43.9320 H   0  0  0  0  0  0  0  0  0  0  0  0
   58.4585   34.8560   46.5259 H   0  0  0  0  0  0  0  0  0  0  0  0
   59.0789   34.4620   48.9033 H   0  0  0  0  0  0  0  0  0  0  0  0
   59.5253   32.1489   49.7142 H   0  0  0  0  0  0  0  0  0  0  0  0
   59.2977   30.2146   48.1616 H   0  0  0  0  0  0  0  0  0  0  0  0
   57.9895   27.5058   45.1703 H   0  0  0  0  0  0  0  0  0  0  0  0
   57.5529   28.0026   46.8525 H   0  0  0  0  0  0  0  0  0  0  0  0
   53.7862   23.9811   46.6680 H   0  0  0  0  0  0  0  0  0  0  0  0
   52.9800   24.1669   45.0804 H   0  0  0  0  0  0  0  0  0  0  0  0
   55.7299   22.6837   46.8393 H   0  0  0  0  0  0  0  0  0  0  0  0
   57.6756   21.5359   45.7776 H   0  0  0  0  0  0  0  0  0  0  0  0
   58.0943   21.7869   43.3286 H   0  0  0  0  0  0  0  0  0  0  0  0
   56.5655   23.1857   41.9367 H   0  0  0  0  0  0  0  0  0  0  0  0
   54.6170   24.3355   42.9897 H   0  0  0  0  0  0  0  0  0  0  0  0
  1  2  1  0
  2  3  1  0
  3  4  2  0
  3  5  1  0
  5  6  2  0
  6  7  1  0
  7  8  2  0
  8  9  1  0
  9 10  2  0
 10 11  1  0
 11 12  1  0
 12 13  2  0
 12 14  1  0
 14 15  1  0
 15 16  1  0
 16 17  2  0
 16 18  1  0
 18 19  1  0
 19 20  1  0
 20 21  2  0
 21 22  1  0
 22 23  2  0
 23 24  1  0
 24 25  2  0
 10  5  1  0
 25 20  1  0
  1 26  1  0
  1 27  1  0
  1 28  1  0
  2 29  1  0
  6 30  1  0
  7 31  1  0
  8 32  1  0
  9 33  1  0
 14 34  1  0
 14 35  1  0
 19 36  1  0
 19 37  1  0
 21 38  1  0
 22 39  1  0
 23 40  1  0
 24 41  1  0
 25 42  1  0
M  CHG  3  11  -1  15  -1  18  -1
M  END
>  <UniqueID>  (55) 
53

>  <SMILES>  (55) 
CNC(=O)c1ccccc1[N-]C(=O)C[N-]C(=O)[N-]Cc1ccccc1

>  <Energy>  (55) 
39.152367936619335

>  <Genealogy>  (55) 
CNC(=O)c1ccccc1[N-]C(=O)C[N-]C(=O)[N-]Cc1ccccc1 (protonated)
CNC(=O)c1ccccc1[N-]C(=O)C[N-]C(=O)[N-]Cc1ccccc1 (3D coordinates assigned)
CNC(=O)c1ccccc1[N-]C(=O)C[N-]C(=O)[N-]Cc1ccccc1 (optimized conformer: 39.152367936619335 kcal/mol)

>  <smiles>  (55) 
CNC(=O)c1ccccc1NC(=O)CNC(=O)NCc1ccccc1

>  <score_type>  (55) 
oracle

>  <origin>  (55) 
adg

>  <m_score__min__energy>  (55) 
-13.27

>  <m_primary>  (55) 
energy

$$$$
55:0
     RDKit          3D

 53 56  0  0  0  0  0  0  0  0999 V2000
   58.2790   29.2633   48.7131 H   0  0  0  0  0  0  0  0  0  0  0  0
   58.8680   29.7490   49.5050 C   0  0  0  0  0  0  0  0  0  0  0  0
   58.7140   31.0780   49.7490 N   0  0  0  0  0  0  0  0  0  0  0  0
   59.4200   31.7220   50.7220 C   0  0  0  0  0  0  0  0  0  0  0  0
   59.2130   33.1700   50.9400 C   0  0  0  0  0  0  0  0  0  0  0  0
   58.7100   33.5760   52.0200 O   0  0  0  0  0  0  0  0  0  0  0  0
   59.6610   34.1410   49.9810 N   0  0  0  0  0  0  0  0  0  0  0  0
   60.2090   33.9070   48.8210 C   0  0  0  0  0  0  0  0  0  0  0  0
   61.5540   34.0650   48.6980 N   0  0  0  0  0  0  0  0  0  0  0  0
   62.2060   33.8580   47.5230 C   0  0  0  0  0  0  0  0  0  0  0  0
   63.2969   33.9890   47.4696 H   0  0  0  0  0  0  0  0  0  0  0  0
   61.4940   33.4800   46.3860 C   0  0  0  0  0  0  0  0  0  0  0  0
   62.0203   33.2968   45.4376 H   0  0  0  0  0  0  0  0  0  0  0  0
   60.1000   33.3350   46.4610 C   0  0  0  0  0  0  0  0  0  0  0  0
   59.3350   32.9510   45.3500 O   0  0  0  0  0  0  0  0  0  0  0  0
   58.5330   31.8010   45.2780 C   0  0  0  0  0  0  0  0  0  0  0  0
   57.3470   31.7710   44.5240 C   0  0  0  0  0  0  0  0  0  0  0  0
   57.0390   32.6590   43.9526 H   0  0  0  0  0  0  0  0  0  0  0  0
   56.5580   30.6190   44.4970 C   0  0  0  0  0  0  0  0  0  0  0  0
   55.6433   30.5969   43.8863 H   0  0  0  0  0  0  0  0  0  0  0  0
   56.9260   29.4870   45.2460 C   0  0  0  0  0  0  0  0  0  0  0  0
   56.1350   28.2860   45.2310 N   0  0  0  0  0  0  0  0  0  0  0  0
   55.3520   28.2210   44.5410 H   0  0  0  0  0  0  0  0  0  0  0  0
   56.4420   27.1070   45.9880 C   0  0  0  0  0  0  0  0  0  0  0  0
   57.5140   27.0300   46.6460 O   0  0  0  0  0  0  0  0  0  0  0  0
   55.5060   26.0210   45.9960 N   0  0  0  0  0  0  0  0  0  0  0  0
   55.8190   24.6220   45.9380 C   0  0  0  0  0  0  0  0  0  0  0  0
   55.6170   23.9400   44.7320 C   0  0  0  0  0  0  0  0  0  0  0  0
   55.2115   24.4769   43.8618 H   0  0  0  0  0  0  0  0  0  0  0  0
   55.9270   22.5830   44.6270 C   0  0  0  0  0  0  0  0  0  0  0  0
   55.7557   22.0528   43.6785 H   0  0  0  0  0  0  0  0  0  0  0  0
   56.4540   21.8970   45.7230 C   0  0  0  0  0  0  0  0  0  0  0  0
   56.6871   20.8255   45.6355 H   0  0  0  0  0  0  0  0  0  0  0  0
   56.6880   22.5620   46.9320 C   0  0  0  0  0  0  0  0  0  0  0  0
   57.2280   21.8240   47.9990 O   0  0  0  0  0  0  0  0  0  0  0  0
   56.5720   21.5640   49.2390 C   0  0  0  0  0  0  0  0  0  0  0  0
   56.2890   20.2160   49.3560 F   0  0  0  0  0  0  0  0  0  0  0  0
   55.3880   22.2730   49.2750 F   0  0  0  0  0  0  0  0  0  0  0  0
   57.3690   21.9730   50.2940 F   0  0  0  0  0  0  0  0  0  0  0  0
   56.3780   23.9340   47.0330 C   0  0  0  0  0  0  0  0  0  0  0  0
   56.5740   24.4706   47.9730 H   0  0  0  0  0  0  0  0  0  0  0  0
   58.1150   29.5180   45.9880 C   0  0  0  0  0  0  0  0  0  0  0  0
   58.4292   28.6278   46.5527 H   0  0  0  0  0  0  0  0  0  0  0  0
   58.9050   30.6720   46.0160 C   0  0  0  0  0  0  0  0  0  0  0  0
   60.0420   30.6880   46.7550 F   0  0  0  0  0  0  0  0  0  0  0  0
   59.4570   33.5400   47.6840 C   0  0  0  0  0  0  0  0  0  0  0  0
   58.3668   33.4157   47.7610 H   0  0  0  0  0  0  0  0  0  0  0  0
   60.3490   31.0000   51.4900 C   0  0  0  0  0  0  0  0  0  0  0  0
   60.9385   31.5064   52.2685 H   0  0  0  0  0  0  0  0  0  0  0  0
   60.5170   29.6340   51.2560 C   0  0  0  0  0  0  0  0  0  0  0  0
   61.2353   29.0571   51.8571 H   0  0  0  0  0  0  0  0  0  0  0  0
   59.7740   29.0010   50.2600 C   0  0  0  0  0  0  0  0  0  0  0  0
   59.9001   27.9247   50.0712 H   0  0  0  0  0  0  0  0  0  0  0  0
  1  2  1  0
  2  3  2  0
  3  4  1  0
  4  5  1  0
  5  6  2  0
  5  7  1  0
  7  8  2  0
  8  9  1  0
  9 10  1  0
 10 11  1  0
 10 12  2  0
 12 13  1  0
 12 14  1  0
 14 15  1  0
 15 16  1  0
 16 17  2  0
 17 18  1  0
 17 19  1  0
 19 20  1  0
 19 21  2  0
 21 22  1  0
 22 23  1  0
 22 24  1  0
 24 25  2  0
 24 26  1  0
 26 27  1  0
 27 28  2  0
 28 29  1  0
 28 30  1  0
 30 31  1  0
 30 32  2  0
 32 33  1  0
 32 34  1  0
 34 35  1  0
 35 36  1  0
 36 37  1  0
 36 38  1  0
 36 39  1  0
 34 40  2  0
 40 41  1  0
 21 42  1  0
 42 43  1  0
 42 44  2  0
 44 45  1  0
 14 46  2  0
 46 47  1  0
  4 48  2  0
 48 49  1  0
 48 50  1  0
 50 51  1  0
 50 52  2  0
 52 53  1  0
 52  2  1  0
 46  8  1  0
 44 16  1  0
 40 27  1  0
M  CHG  2   9  -1  26  -1
M  END
>  <UniqueID>  (56) 
54

>  <SMILES>  (56) 
O=C([N-]c1cccc(OC(F)(F)F)c1)Nc1ccc(Oc2cc[n-]/c(=N/C(=O)c3ccccn3)c2)c(F)c1

>  <Energy>  (56) 
82.61563069049295

>  <Genealogy>  (56) 
O=C([N-]c1cccc(OC(F)(F)F)c1)Nc1ccc(Oc2cc[n-]c(=NC(=O)c3ccccn3)c2)c(F)c1 (protonated)
O=C([N-]c1cccc(OC(F)(F)F)c1)Nc1ccc(Oc2cc[n-]/c(=N/C(=O)c3ccccn3)c2)c(F)c1 (cis-trans isomerization)
O=C([N-]c1cccc(OC(F)(F)F)c1)Nc1ccc(Oc2cc[n-]/c(=N/C(=O)c3ccccn3)c2)c(F)c1 (3D coordinates assigned)
O=C([N-]c1cccc(OC(F)(F)F)c1)Nc1ccc(Oc2cc[n-]/c(=N/C(=O)c3ccccn3)c2)c(F)c1 (optimized conformer: 82.61563069049295 kcal/mol)

>  <smiles>  (56) 
O=C(Nc1cccc(OC(F)(F)F)c1)Nc1ccc(Oc2cc[nH]c(=NC(=O)c3ccccn3)c2)c(F)c1

>  <score_type>  (56) 
oracle

>  <origin>  (56) 
adg

>  <m_score__min__energy>  (56) 
-11.66

>  <m_primary>  (56) 
energy

$$$$
56:0
     RDKit          3D

 33 35  0  0  0  0  0  0  0  0999 V2000
   55.2110   27.0850   45.0540 H   0  0  0  0  0  0  0  0  0  0  0  0
   55.1450   26.6640   46.0080 N   0  0  0  0  0  0  0  0  0  0  0  0
   56.5240   25.6420   46.2060 S   0  0  0  0  0  0  0  0  0  0  0  0
   56.2780   24.6730   47.3270 O   0  0  0  0  0  0  0  0  0  0  0  0
   56.7530   24.8660   44.9390 O   0  0  0  0  0  0  0  0  0  0  0  0
   57.9370   26.6280   46.5730 C   0  0  0  0  0  0  0  0  0  0  0  0
   58.8650   26.2070   47.5360 C   0  0  0  0  0  0  0  0  0  0  0  0
   58.7186   25.2504   48.0589 H   0  0  0  0  0  0  0  0  0  0  0  0
   59.9750   27.0010   47.8320 C   0  0  0  0  0  0  0  0  0  0  0  0
   60.6935   26.6759   48.5988 H   0  0  0  0  0  0  0  0  0  0  0  0
   60.1750   28.2080   47.1560 C   0  0  0  0  0  0  0  0  0  0  0  0
   61.0419   28.8373   47.4059 H   0  0  0  0  0  0  0  0  0  0  0  0
   59.2790   28.6210   46.1630 C   0  0  0  0  0  0  0  0  0  0  0  0
   59.5050   29.8830   45.5100 N   0  0  0  0  0  0  0  0  0  0  0  0
   58.7330   30.9330   45.5480 C   0  0  0  0  0  0  0  0  0  0  0  0
   57.4340   30.8690   45.1420 N   0  0  0  0  0  0  0  0  0  0  0  0
   56.6380   31.9400   45.1520 N   0  0  0  0  0  0  0  0  0  0  0  0
   57.0840   33.1550   45.5620 C   0  0  0  0  0  0  0  0  0  0  0  0
   56.4078   34.0226   45.5651 H   0  0  0  0  0  0  0  0  0  0  0  0
   58.4100   33.2930   45.9800 C   0  0  0  0  0  0  0  0  0  0  0  0
   58.9230   34.5240   46.4050 C   0  0  0  0  0  0  0  0  0  0  0  0
   58.2789   35.4156   46.4198 H   0  0  0  0  0  0  0  0  0  0  0  0
   60.2560   34.6150   46.8100 C   0  0  0  0  0  0  0  0  0  0  0  0
   60.6672   35.5785   47.1455 H   0  0  0  0  0  0  0  0  0  0  0  0
   61.0680   33.4720   46.7870 C   0  0  0  0  0  0  0  0  0  0  0  0
   62.5030   33.5520   47.2190 C   0  0  0  0  0  0  0  0  0  0  0  0
   63.2410   34.2180   46.2580 F   0  0  0  0  0  0  0  0  0  0  0  0
   62.5890   34.2390   48.4180 F   0  0  0  0  0  0  0  0  0  0  0  0
   63.0320   32.2850   47.3920 F   0  0  0  0  0  0  0  0  0  0  0  0
   60.5470   32.2840   46.3700 N   0  0  0  0  0  0  0  0  0  0  0  0
   59.2510   32.1650   45.9700 C   0  0  0  0  0  0  0  0  0  0  0  0
   58.1420   27.8360   45.8920 C   0  0  0  0  0  0  0  0  0  0  0  0
   57.4109   28.1723   45.1421 H   0  0  0  0  0  0  0  0  0  0  0  0
  1  2  1  0
  2  3  1  0
  3  4  2  0
  3  5  2  0
  3  6  1  0
  6  7  2  0
  7  8  1  0
  7  9  1  0
  9 10  1  0
  9 11  2  0
 11 12  1  0
 11 13  1  0
 13 14  1  0
 14 15  2  0
 15 16  1  0
 16 17  1  0
 17 18  2  0
 18 19  1  0
 18 20  1  0
 20 21  2  0
 21 22  1  0
 21 23  1  0
 23 24  1  0
 23 25  2  0
 25 26  1  0
 26 27  1  0
 26 28  1  0
 26 29  1  0
 25 30  1  0
 30 31  2  0
 13 32  2  0
 32 33  1  0
 32  6  1  0
 31 15  1  0
 31 20  1  0
M  CHG  2   2  -1  16  -1
M  END
>  <UniqueID>  (57) 
55

>  <SMILES>  (57) 
[NH-]S(=O)(=O)c1cccc(/N=c2\[n-]ncc3ccc(C(F)(F)F)nc23)c1

>  <Energy>  (57) 
46.47355477815104

>  <Genealogy>  (57) 
[NH-]S(=O)(=O)c1cccc(N=c2[n-]ncc3ccc(C(F)(F)F)nc23)c1 (protonated)
[NH-]S(=O)(=O)c1cccc(/N=c2\[n-]ncc3ccc(C(F)(F)F)nc23)c1 (cis-trans isomerization)
[NH-]S(=O)(=O)c1cccc(/N=c2\[n-]ncc3ccc(C(F)(F)F)nc23)c1 (3D coordinates assigned)
[NH-]S(=O)(=O)c1cccc(/N=c2\[n-]ncc3ccc(C(F)(F)F)nc23)c1 (optimized conformer: 46.47355477815104 kcal/mol)

>  <smiles>  (57) 
NS(=O)(=O)c1cccc(N=c2[nH]ncc3ccc(C(F)(F)F)nc23)c1

>  <score_type>  (57) 
oracle

>  <origin>  (57) 
adg

>  <m_score__min__energy>  (57) 
-12.73

>  <m_primary>  (57) 
energy

$$$$
57:0
     RDKit          3D

 38 39  0  0  0  0  0  0  0  0999 V2000
   64.6300   33.1360   49.1790 C   0  0  0  0  0  0  0  0  0  0  0  0
   63.9490   33.5550   48.0010 O   0  0  0  0  0  0  0  0  0  0  0  0
   62.6900   33.0810   47.6010 C   0  0  0  0  0  0  0  0  0  0  0  0
   62.2960   31.8110   48.0290 C   0  0  0  0  0  0  0  0  0  0  0  0
   61.0520   31.2950   47.6670 C   0  0  0  0  0  0  0  0  0  0  0  0
   60.1700   32.0480   46.8820 C   0  0  0  0  0  0  0  0  0  0  0  0
   58.8980   31.4830   46.5270 N   0  0  0  0  0  0  0  0  0  0  0  0
   58.7480   30.1590   45.9980 C   0  0  0  0  0  0  0  0  0  0  0  0
   59.7640   29.4960   45.6490 O   0  0  0  0  0  0  0  0  0  0  0  0
   57.4350   29.5940   45.8700 N   0  0  0  0  0  0  0  0  0  0  0  0
   57.1660   28.3170   45.2660 C   0  0  0  0  0  0  0  0  0  0  0  0
   57.9240   27.8960   43.8760 S   0  0  0  0  0  0  0  0  0  0  0  0
   55.9800   27.5950   45.6220 N   0  0  0  0  0  0  0  0  0  0  0  0
   55.8620   26.3090   45.8040 C   0  0  0  0  0  0  0  0  0  0  0  0
   56.9730   25.4590   45.9930 C   0  0  0  0  0  0  0  0  0  0  0  0
   56.7680   24.0890   46.1690 C   0  0  0  0  0  0  0  0  0  0  0  0
   55.4740   23.5700   46.1450 C   0  0  0  0  0  0  0  0  0  0  0  0
   54.3980   24.4320   45.9360 C   0  0  0  0  0  0  0  0  0  0  0  0
   54.6150   25.7630   45.7680 N   0  0  0  0  0  0  0  0  0  0  0  0
   60.5650   33.3170   46.4100 C   0  0  0  0  0  0  0  0  0  0  0  0
   59.7030   34.0220   45.5530 O   0  0  0  0  0  0  0  0  0  0  0  0
   58.4490   34.5730   45.9390 C   0  0  0  0  0  0  0  0  0  0  0  0
   61.8220   33.8330   46.7870 C   0  0  0  0  0  0  0  0  0  0  0  0
   64.0745   33.4778   50.0648 H   0  0  0  0  0  0  0  0  0  0  0  0
   64.7001   32.0383   49.1912 H   0  0  0  0  0  0  0  0  0  0  0  0
   65.6415   33.5682   49.1912 H   0  0  0  0  0  0  0  0  0  0  0  0
   62.9727   31.2128   48.6569 H   0  0  0  0  0  0  0  0  0  0  0  0
   60.7611   30.2881   48.0009 H   0  0  0  0  0  0  0  0  0  0  0  0
   58.0620   32.1100   46.5220 H   0  0  0  0  0  0  0  0  0  0  0  0
   56.6410   30.0970   46.3260 H   0  0  0  0  0  0  0  0  0  0  0  0
   57.9923   25.8726   46.0016 H   0  0  0  0  0  0  0  0  0  0  0  0
   57.6266   23.4197   46.3265 H   0  0  0  0  0  0  0  0  0  0  0  0
   55.3039   22.4928   46.2893 H   0  0  0  0  0  0  0  0  0  0  0  0
   53.3728   24.0343   45.9071 H   0  0  0  0  0  0  0  0  0  0  0  0
   58.3834   34.6018   47.0367 H   0  0  0  0  0  0  0  0  0  0  0  0
   58.3584   35.5938   45.5394 H   0  0  0  0  0  0  0  0  0  0  0  0
   57.6358   33.9493   45.5394 H   0  0  0  0  0  0  0  0  0  0  0  0
   62.1270   34.8320   46.4420 H   0  0  0  0  0  0  0  0  0  0  0  0
  1  2  1  0
  2  3  1  0
  3  4  2  0
  4  5  1  0
  5  6  2  0
  6  7  1  0
  7  8  1  0
  8  9  2  0
  8 10  1  0
 10 11  1  0
 11 12  2  0
 11 13  1  0
 13 14  2  3
 14 15  1  0
 15 16  2  0
 16 17  1  0
 17 18  2  0
 18 19  1  0
  6 20  1  0
 20 21  1  0
 21 22  1  0
 20 23  2  0
 23  3  1  0
 19 14  1  0
  1 24  1  0
  1 25  1  0
  1 26  1  0
  4 27  1  0
  5 28  1  0
  7 29  1  0
 10 30  1  0
 15 31  1  0
 16 32  1  0
 17 33  1  0
 18 34  1  0
 22 35  1  0
 22 36  1  0
 22 37  1  0
 23 38  1  0
M  CHG  1  19  -1
M  END
>  <UniqueID>  (58) 
56

>  <SMILES>  (58) 
COc1ccc(NC(=O)NC(=S)N=c2cccc[n-]2)c(OC)c1

>  <Energy>  (58) 
51.533857666723286

>  <Genealogy>  (58) 
COc1ccc(NC(=O)NC(=S)N=c2cccc[n-]2)c(OC)c1 (protonated)
COc1ccc(NC(=O)NC(=S)N=c2cccc[n-]2)c(OC)c1 (3D coordinates assigned)
COc1ccc(NC(=O)NC(=S)N=c2cccc[n-]2)c(OC)c1 (optimized conformer: 51.533857666723286 kcal/mol)

>  <smiles>  (58) 
COc1ccc(NC(=O)NC(=S)N=c2cccc[nH]2)c(OC)c1

>  <score_type>  (58) 
oracle

>  <origin>  (58) 
adg

>  <m_score__min__energy>  (58) 
-8.0399999999999991

>  <m_primary>  (58) 
energy

$$$$
58:0
     RDKit          3D

 38 40  0  0  0  0  0  0  0  0999 V2000
   56.5840   31.5930   44.4910 O   0  0  0  0  0  0  0  0  0  0  0  0
   57.4150   32.0420   45.3270 C   0  0  0  0  0  0  0  0  0  0  0  0
   58.3420   31.1590   45.9790 N   0  0  0  0  0  0  0  0  0  0  0  0
   58.2440   29.7240   45.9450 C   0  0  0  0  0  0  0  0  0  0  0  0
   58.4240   28.9940   47.1280 C   0  0  0  0  0  0  0  0  0  0  0  0
   58.3110   27.6010   47.1250 C   0  0  0  0  0  0  0  0  0  0  0  0
   58.0170   26.9140   45.9390 C   0  0  0  0  0  0  0  0  0  0  0  0
   57.8780   25.4830   45.9660 N   0  0  0  0  0  0  0  0  0  0  0  0
   56.7540   24.7620   45.4360 C   0  0  0  0  0  0  0  0  0  0  0  0
   56.9130   23.7760   44.4500 C   0  0  0  0  0  0  0  0  0  0  0  0
   55.7810   23.0910   44.0020 C   0  0  0  0  0  0  0  0  0  0  0  0
   55.8880   22.2080   43.1120 O   0  0  0  0  0  0  0  0  0  0  0  0
   54.5640   23.3750   44.5310 N   0  0  0  0  0  0  0  0  0  0  0  0
   54.4280   24.3170   45.5000 C   0  0  0  0  0  0  0  0  0  0  0  0
   53.2920   24.5600   45.9850 O   0  0  0  0  0  0  0  0  0  0  0  0
   55.5160   24.9950   45.9480 N   0  0  0  0  0  0  0  0  0  0  0  0
   57.7890   27.6480   44.7630 C   0  0  0  0  0  0  0  0  0  0  0  0
   57.9020   29.0410   44.7650 C   0  0  0  0  0  0  0  0  0  0  0  0
   57.4250   33.5140   45.6460 C   0  0  2  0  0  0  0  0  0  0  0  0
   58.4870   34.2430   44.8230 C   0  0  0  0  0  0  0  0  0  0  0  0
   59.6250   34.4700   45.7860 C   0  0  0  0  0  0  0  0  0  0  0  0
   58.9520   34.5230   47.1420 C   0  0  0  0  0  0  0  0  0  0  0  0
   57.7400   33.7040   47.0680 N   0  0  0  0  0  0  0  0  0  0  0  0
   59.1800   31.5800   46.4390 H   0  0  0  0  0  0  0  0  0  0  0  0
   58.6558   29.5212   48.0652 H   0  0  0  0  0  0  0  0  0  0  0  0
   58.4538   27.0396   48.0601 H   0  0  0  0  0  0  0  0  0  0  0  0
   58.6440   24.9240   46.4060 H   0  0  0  0  0  0  0  0  0  0  0  0
   57.9074   23.5476   44.0389 H   0  0  0  0  0  0  0  0  0  0  0  0
   57.5198   27.1229   43.8347 H   0  0  0  0  0  0  0  0  0  0  0  0
   57.7224   29.6058   43.8383 H   0  0  0  0  0  0  0  0  0  0  0  0
   56.4321   33.9222   45.4062 H   0  0  0  0  0  0  0  0  0  0  0  0
   58.8138   33.6236   43.9748 H   0  0  0  0  0  0  0  0  0  0  0  0
   58.1097   35.1830   44.3941 H   0  0  0  0  0  0  0  0  0  0  0  0
   60.3473   33.6417   45.7400 H   0  0  0  0  0  0  0  0  0  0  0  0
   60.1952   35.3832   45.5602 H   0  0  0  0  0  0  0  0  0  0  0  0
   59.6282   34.1233   47.9121 H   0  0  0  0  0  0  0  0  0  0  0  0
   58.7012   35.5604   47.4081 H   0  0  0  0  0  0  0  0  0  0  0  0
   56.9540   34.2210   47.5300 H   0  0  0  0  0  0  0  0  0  0  0  0
  1  2  2  0
  2  3  1  0
  3  4  1  0
  4  5  2  0
  5  6  1  0
  6  7  2  0
  7  8  1  0
  8  9  1  0
  9 10  2  0
 10 11  1  0
 11 12  2  0
 11 13  1  0
 13 14  1  0
 14 15  2  0
 14 16  1  0
  7 17  1  0
 17 18  2  0
  2 19  1  0
 19 20  1  0
 20 21  1  0
 21 22  1  0
 22 23  1  0
 18  4  1  0
 23 19  1  0
 16  9  1  0
  3 24  1  0
  5 25  1  0
  6 26  1  0
  8 27  1  0
 10 28  1  0
 17 29  1  0
 18 30  1  0
 19 31  1  1
 20 32  1  0
 20 33  1  0
 21 34  1  0
 21 35  1  0
 22 36  1  0
 22 37  1  0
 23 38  1  0
M  CHG  2  13  -1  16  -1
M  END
>  <UniqueID>  (59) 
57

>  <SMILES>  (59) 
O=C(Nc1ccc(Nc2cc(=O)[n-]c(=O)[n-]2)cc1)[C@@H]1CCCN1

>  <Energy>  (59) 
48.818904856737255

>  <Genealogy>  (59) 
O=C(Nc1ccc(Nc2cc(=O)[n-]c(=O)[n-]2)cc1)C1CCCN1 (protonated)
O=C(Nc1ccc(Nc2cc(=O)[n-]c(=O)[n-]2)cc1)[C@@H]1CCCN1 (chirality)
O=C(Nc1ccc(Nc2cc(=O)[n-]c(=O)[n-]2)cc1)[C@@H]1CCCN1 (3D coordinates assigned)
O=C(Nc1ccc(Nc2cc(=O)[n-]c(=O)[n-]2)cc1)[C@@H]1CCCN1 (nonaromatic ring conformer: 48.818904856737255 kcal/mol)

>  <smiles>  (59) 
O=C(Nc1ccc(Nc2cc(=O)[nH]c(=O)[nH]2)cc1)C1CCCN1

>  <score_type>  (59) 
oracle

>  <origin>  (59) 
adg

>  <m_score__min__energy>  (59) 
-11.24

>  <m_primary>  (59) 
energy

$$$$
59:0
     RDKit          3D

 51 54  0  0  0  0  0  0  0  0999 V2000
   58.8190   28.7630   46.4250 O   0  0  0  0  0  0  0  0  0  0  0  0
   57.8580   28.1990   45.8310 C   0  0  0  0  0  0  0  0  0  0  0  0
   57.2190   28.8500   44.7170 N   0  0  0  0  0  0  0  0  0  0  0  0
   57.4910   30.2050   44.3200 C   0  0  0  0  0  0  0  0  0  0  0  0
   57.2680   30.5890   42.9900 C   0  0  0  0  0  0  0  0  0  0  0  0
   57.4930   31.9080   42.5860 C   0  0  0  0  0  0  0  0  0  0  0  0
   57.9300   32.8600   43.5110 C   0  0  0  0  0  0  0  0  0  0  0  0
   58.1370   32.4970   44.8480 C   0  0  0  0  0  0  0  0  0  0  0  0
   58.6580   33.6870   46.0350 S   0  0  0  0  0  0  0  0  0  0  0  0
   57.4540   34.1970   46.7740 O   0  0  0  0  0  0  0  0  0  0  0  0
   59.3540   34.8290   45.3500 O   0  0  0  0  0  0  0  0  0  0  0  0
   59.7540   32.9230   47.1390 N   0  0  0  0  0  0  0  0  0  0  0  0
   61.0480   32.9920   47.0520 C   0  0  0  0  0  0  0  0  0  0  0  0
   61.9400   31.9170   47.5320 C   0  0  0  0  0  0  0  0  0  0  0  0
   63.3430   32.4300   47.1730 C   0  0  0  0  0  0  0  0  0  0  0  0
   63.1800   33.8390   46.5700 C   0  0  0  0  0  0  0  0  0  0  0  0
   61.7540   34.0850   46.4980 N   0  0  0  0  0  0  0  0  0  0  0  0
   57.9060   31.1740   45.2530 C   0  0  0  0  0  0  0  0  0  0  0  0
   57.4180   26.8620   46.2950 C   0  0  0  0  0  0  0  0  0  0  0  0
   58.2320   26.0710   47.1270 C   0  0  0  0  0  0  0  0  0  0  0  0
   57.7940   24.8140   47.5540 C   0  0  0  0  0  0  0  0  0  0  0  0
   56.5390   24.3390   47.1680 C   0  0  0  0  0  0  0  0  0  0  0  0
   55.7020   25.1240   46.3700 C   0  0  0  0  0  0  0  0  0  0  0  0
   54.4210   24.6030   45.9840 N   0  0  0  0  0  0  0  0  0  0  0  0
   54.1930   23.3990   45.2380 C   0  0  0  0  0  0  0  0  0  0  0  0
   53.0110   23.0070   45.0660 O   0  0  0  0  0  0  0  0  0  0  0  0
   55.2980   22.6430   44.6210 C   0  0  0  0  0  0  0  0  0  0  0  0
   56.0000   21.5850   45.1890 C   0  0  0  0  0  0  0  0  0  0  0  0
   57.0200   21.0920   44.3670 C   0  0  0  0  0  0  0  0  0  0  0  0
   57.1360   21.7640   43.1570 C   0  0  0  0  0  0  0  0  0  0  0  0
   55.9660   22.9700   43.1120 S   0  0  0  0  0  0  0  0  0  0  0  0
   56.1520   26.3790   45.9210 C   0  0  0  0  0  0  0  0  0  0  0  0
   56.5490   28.3100   44.1270 H   0  0  0  0  0  0  0  0  0  0  0  0
   56.9135   29.8470   42.2594 H   0  0  0  0  0  0  0  0  0  0  0  0
   57.3258   32.1972   41.5380 H   0  0  0  0  0  0  0  0  0  0  0  0
   58.1117   33.8959   43.1887 H   0  0  0  0  0  0  0  0  0  0  0  0
   61.8383   31.7771   48.6183 H   0  0  0  0  0  0  0  0  0  0  0  0
   61.7130   30.9388   47.0830 H   0  0  0  0  0  0  0  0  0  0  0  0
   63.9681   32.4782   48.0769 H   0  0  0  0  0  0  0  0  0  0  0  0
   63.8306   31.7548   46.4545 H   0  0  0  0  0  0  0  0  0  0  0  0
   63.6642   34.5878   47.2141 H   0  0  0  0  0  0  0  0  0  0  0  0
   63.6493   33.9071   45.5775 H   0  0  0  0  0  0  0  0  0  0  0  0
   61.3350   34.9610   46.1170 H   0  0  0  0  0  0  0  0  0  0  0  0
   58.0501   30.8919   46.3064 H   0  0  0  0  0  0  0  0  0  0  0  0
   59.2176   26.4436   47.4428 H   0  0  0  0  0  0  0  0  0  0  0  0
   58.4400   24.1972   48.1961 H   0  0  0  0  0  0  0  0  0  0  0  0
   56.2074   23.3420   47.4936 H   0  0  0  0  0  0  0  0  0  0  0  0
   55.7758   21.1763   46.1853 H   0  0  0  0  0  0  0  0  0  0  0  0
   57.6690   20.2510   44.6526 H   0  0  0  0  0  0  0  0  0  0  0  0
   57.8672   21.5448   42.3650 H   0  0  0  0  0  0  0  0  0  0  0  0
   55.5069   26.9883   45.2709 H   0  0  0  0  0  0  0  0  0  0  0  0
  1  2  2  0
  2  3  1  0
  3  4  1  0
  4  5  2  0
  5  6  1  0
  6  7  2  0
  7  8  1  0
  8  9  1  0
  9 10  2  0
  9 11  2  0
  9 12  1  0
 12 13  2  3
 13 14  1  0
 14 15  1  0
 15 16  1  0
 16 17  1  0
  8 18  2  0
  2 19  1  0
 19 20  2  0
 20 21  1  0
 21 22  2  0
 22 23  1  0
 23 24  1  0
 24 25  1  0
 25 26  2  0
 25 27  1  0
 27 28  2  0
 28 29  1  0
 29 30  2  0
 30 31  1  0
 23 32  2  0
 18  4  1  0
 32 19  1  0
 17 13  1  0
 31 27  1  0
  3 33  1  0
  5 34  1  0
  6 35  1  0
  7 36  1  0
 14 37  1  0
 14 38  1  0
 15 39  1  0
 15 40  1  0
 16 41  1  0
 16 42  1  0
 17 43  1  0
 18 44  1  0
 20 45  1  0
 21 46  1  0
 22 47  1  0
 28 48  1  0
 29 49  1  0
 30 50  1  0
 32 51  1  0
M  CHG  1  24  -1
M  END
>  <UniqueID>  (60) 
58

>  <SMILES>  (60) 
O=C(Nc1cccc(S(=O)(=O)N=C2CCCN2)c1)c1cccc([N-]C(=O)c2cccs2)c1

>  <Energy>  (60) 
101.15964662745775

>  <Genealogy>  (60) 
O=C(Nc1cccc(S(=O)(=O)N=C2CCCN2)c1)c1cccc([N-]C(=O)c2cccs2)c1 (protonated)
O=C(Nc1cccc(S(=O)(=O)N=C2CCCN2)c1)c1cccc([N-]C(=O)c2cccs2)c1 (3D coordinates assigned)
O=C(Nc1cccc(S(=O)(=O)N=C2CCCN2)c1)c1cccc([N-]C(=O)c2cccs2)c1 (nonaromatic ring conformer: 101.15964662745775 kcal/mol)

>  <smiles>  (60) 
O=C(Nc1cccc(S(=O)(=O)N=C2CCCN2)c1)c1cccc(NC(=O)c2cccs2)c1

>  <score_type>  (60) 
oracle

>  <origin>  (60) 
adg

>  <m_score__min__energy>  (60) 
-12.01

>  <m_primary>  (60) 
energy

$$$$
60:0
     RDKit          3D

 27 29  0  0  0  0  0  0  0  0999 V2000
   54.7520   27.4710   46.3640 H   0  0  0  0  0  0  0  0  0  0  0  0
   55.2130   26.7210   45.8640 O   0  0  0  0  0  0  0  0  0  0  0  0
   56.0930   25.8520   46.5050 C   0  0  0  0  0  0  0  0  0  0  0  0
   55.7670   24.6000   46.8610 N   0  0  0  0  0  0  0  0  0  0  0  0
   56.9160   24.1300   47.3920 C   0  0  0  0  0  0  0  0  0  0  0  0
   57.0250   22.9620   47.8460 O   0  0  0  0  0  0  0  0  0  0  0  0
   57.9440   25.0070   47.3860 N   0  0  0  0  0  0  0  0  0  0  0  0
   57.4050   26.1130   46.8450 C   0  0  0  0  0  0  0  0  0  0  0  0
   58.1790   27.3220   46.5320 C   0  0  0  0  0  0  0  0  0  0  0  0
   58.9913   27.5974   47.2208 H   0  0  0  0  0  0  0  0  0  0  0  0
   57.9700   28.1200   45.4650 C   0  0  0  0  0  0  0  0  0  0  0  0
   57.8000   27.6990   44.1320 C   0  0  0  0  0  0  0  0  0  0  0  0
   57.8120   26.4410   43.6760 C   0  0  0  0  0  0  0  0  0  0  0  0
   57.9853   25.6058   44.3706 H   0  0  0  0  0  0  0  0  0  0  0  0
   57.6486   26.2421   42.6066 H   0  0  0  0  0  0  0  0  0  0  0  0
   57.5910   28.7580   43.3160 N   0  0  0  0  0  0  0  0  0  0  0  0
   57.4340   28.7380   42.2830 H   0  0  0  0  0  0  0  0  0  0  0  0
   57.6410   29.8480   44.0970 C   0  0  0  0  0  0  0  0  0  0  0  0
   57.5190   31.1720   43.6760 C   0  0  0  0  0  0  0  0  0  0  0  0
   57.3141   31.4141   42.6227 H   0  0  0  0  0  0  0  0  0  0  0  0
   57.6650   32.1860   44.6340 C   0  0  0  0  0  0  0  0  0  0  0  0
   57.5570   33.4860   44.2650 F   0  0  0  0  0  0  0  0  0  0  0  0
   57.9500   31.8600   45.9750 C   0  0  0  0  0  0  0  0  0  0  0  0
   58.0758   32.6630   46.7162 H   0  0  0  0  0  0  0  0  0  0  0  0
   58.0750   30.5180   46.3740 C   0  0  0  0  0  0  0  0  0  0  0  0
   58.3181   30.2598   47.4153 H   0  0  0  0  0  0  0  0  0  0  0  0
   57.8820   29.5160   45.4110 C   0  0  0  0  0  0  0  0  0  0  0  0
  1  2  1  0
  2  3  1  0
  3  4  1  0
  4  5  1  0
  5  6  2  0
  5  7  1  0
  7  8  1  0
  8  9  1  0
  9 10  1  0
  9 11  2  0
 11 12  1  0
 12 13  2  0
 13 14  1  0
 13 15  1  0
 12 16  1  0
 16 17  1  0
 16 18  1  0
 18 19  2  0
 19 20  1  0
 19 21  1  0
 21 22  1  0
 21 23  2  0
 23 24  1  0
 23 25  1  0
 25 26  1  0
 25 27  2  0
  8  3  2  0
 27 11  1  0
 27 18  1  0
M  CHG  2   4  -1   7  -1
M  END
>  <UniqueID>  (61) 
59

>  <SMILES>  (61) 
C=c1[nH]c2cc(F)ccc2/c1=C\c1[n-]c(=O)[n-]c1O

>  <Energy>  (61) 
104.09905403240398

>  <Genealogy>  (61) 
C=c1[nH]c2cc(F)ccc2c1=Cc1[n-]c(=O)[n-]c1O (protonated)
C=c1[nH]c2cc(F)ccc2/c1=C\c1[n-]c(=O)[n-]c1O (cis-trans isomerization)
C=c1[nH]c2cc(F)ccc2/c1=C\c1[n-]c(=O)[n-]c1O (3D coordinates assigned)
C=c1[nH]c2cc(F)ccc2/c1=C\c1[n-]c(=O)[n-]c1O (optimized conformer: 104.09905403240398 kcal/mol)

>  <smiles>  (61) 
C=c1[nH]c2cc(F)ccc2c1=Cc1[nH]c(=O)[nH]c1O

>  <score_type>  (61) 
oracle

>  <origin>  (61) 
adg

>  <m_score__min__energy>  (61) 
-11.380000000000001

>  <m_primary>  (61) 
energy

$$$$
61:0
     RDKit          3D

 33 34  0  0  0  0  0  0  0  0999 V2000
   58.5530   33.0030   53.7870 N   0  0  0  0  0  0  0  0  0  0  0  0
   59.4710   33.4170   52.7700 C   0  0  0  0  0  0  0  0  0  0  0  0
   60.4530   34.1350   53.0960 O   0  0  0  0  0  0  0  0  0  0  0  0
   59.2790   33.0130   51.3530 C   0  0  0  0  0  0  0  0  0  0  0  0
   59.7390   33.8520   50.3210 C   0  0  0  0  0  0  0  0  0  0  0  0
   59.5640   33.4970   48.9840 C   0  0  0  0  0  0  0  0  0  0  0  0
   58.9310   32.3000   48.6560 C   0  0  0  0  0  0  0  0  0  0  0  0
   58.4610   31.4580   49.6640 C   0  0  0  0  0  0  0  0  0  0  0  0
   58.6160   31.8070   51.0200 C   0  0  0  0  0  0  0  0  0  0  0  0
   58.1260   30.9890   52.0520 O   0  0  0  0  0  0  0  0  0  0  0  0
   56.5320   31.0310   52.6720 S   0  0  0  0  0  0  0  0  0  0  0  0
   56.5790   30.9230   54.1700 O   0  0  0  0  0  0  0  0  0  0  0  0
   55.8950   32.3410   52.3020 O   0  0  0  0  0  0  0  0  0  0  0  0
   55.5830   29.7200   52.0340 N   0  0  0  0  0  0  0  0  0  0  0  0
   54.2630   29.6670   52.6660 C   0  0  0  0  0  0  0  0  0  0  0  0
   53.2350   30.3440   51.8080 C   0  0  0  0  0  0  0  0  0  0  0  0
   52.7510   29.7250   50.6460 C   0  0  0  0  0  0  0  0  0  0  0  0
   51.8150   30.3920   49.8510 C   0  0  0  0  0  0  0  0  0  0  0  0
   51.3890   29.8540   48.7950 O   0  0  0  0  0  0  0  0  0  0  0  0
   51.3580   31.6590   50.2330 C   0  0  0  0  0  0  0  0  0  0  0  0
   50.4310   32.3420   49.4550 O   0  0  0  0  0  0  0  0  0  0  0  0
   51.8460   32.2340   51.4090 C   0  0  0  0  0  0  0  0  0  0  0  0
   52.7660   31.5730   52.1610 N   0  0  0  0  0  0  0  0  0  0  0  0
   57.6570   32.5250   53.5510 H   0  0  0  0  0  0  0  0  0  0  0  0
   58.7350   33.2500   54.7850 H   0  0  0  0  0  0  0  0  0  0  0  0
   60.2418   34.7977   50.5717 H   0  0  0  0  0  0  0  0  0  0  0  0
   59.9263   34.1630   48.1870 H   0  0  0  0  0  0  0  0  0  0  0  0
   58.8016   32.0184   47.6005 H   0  0  0  0  0  0  0  0  0  0  0  0
   57.9649   30.5130   49.3977 H   0  0  0  0  0  0  0  0  0  0  0  0
   53.9750   28.6155   52.8124 H   0  0  0  0  0  0  0  0  0  0  0  0
   54.3137   30.1878   53.6336 H   0  0  0  0  0  0  0  0  0  0  0  0
   53.1053   28.7228   50.3629 H   0  0  0  0  0  0  0  0  0  0  0  0
   51.4853   33.2233   51.7272 H   0  0  0  0  0  0  0  0  0  0  0  0
  1  2  1  0
  2  3  2  0
  2  4  1  0
  4  5  2  0
  5  6  1  0
  6  7  2  0
  7  8  1  0
  8  9  2  0
  9 10  1  0
 10 11  1  0
 11 12  2  0
 11 13  2  0
 11 14  1  0
 14 15  1  0
 15 16  1  0
 16 17  2  0
 17 18  1  0
 18 19  2  0
 18 20  1  0
 20 21  1  0
 20 22  2  0
 22 23  1  0
  9  4  1  0
 23 16  1  0
  1 24  1  0
  1 25  1  0
  5 26  1  0
  6 27  1  0
  7 28  1  0
  8 29  1  0
 15 30  1  0
 15 31  1  0
 17 32  1  0
 22 33  1  0
M  CHG  3  14  -1  21  -1  23  -1
M  END
>  <UniqueID>  (62) 
60

>  <SMILES>  (62) 
NC(=O)c1ccccc1OS(=O)(=O)[N-]Cc1cc(=O)c([O-])c[n-]1

>  <Energy>  (62) 
30.073475389299976

>  <Genealogy>  (62) 
NC(=O)c1ccccc1OS(=O)(=O)[N-]Cc1cc(=O)c([O-])c[n-]1 (protonated)
NC(=O)c1ccccc1OS(=O)(=O)[N-]Cc1cc(=O)c([O-])c[n-]1 (3D coordinates assigned)
NC(=O)c1ccccc1OS(=O)(=O)[N-]Cc1cc(=O)c([O-])c[n-]1 (optimized conformer: 30.073475389299976 kcal/mol)

>  <smiles>  (62) 
NC(=O)c1ccccc1OS(=O)(=O)NCc1cc(=O)c(O)c[nH]1

>  <score_type>  (62) 
oracle

>  <origin>  (62) 
adg

>  <m_score__min__energy>  (62) 
-12.93

>  <m_primary>  (62) 
energy

$$$$
62:0
     RDKit          3D

 37 39  0  0  0  0  0  0  0  0999 V2000
   58.9638   35.6536   45.5680 H   0  0  0  0  0  0  0  0  0  0  0  0
   58.6240   34.6230   45.3880 C   0  0  0  0  0  0  0  0  0  0  0  0
   58.5900   34.1300   44.1220 N   0  0  0  0  0  0  0  0  0  0  0  0
   58.1820   32.8600   43.8590 C   0  0  0  0  0  0  0  0  0  0  0  0
   58.1630   32.4958   42.8212 H   0  0  0  0  0  0  0  0  0  0  0  0
   57.7840   32.0090   44.9060 C   0  0  0  0  0  0  0  0  0  0  0  0
   57.3310   30.6250   44.6200 C   0  0  0  0  0  0  0  0  0  0  0  0
   56.1310   30.3060   44.8450 O   0  0  0  0  0  0  0  0  0  0  0  0
   58.2290   29.6600   44.0460 N   0  0  0  0  0  0  0  0  0  0  0  0
   59.0130   30.0120   43.4520 H   0  0  0  0  0  0  0  0  0  0  0  0
   58.0220   28.2380   44.1110 C   0  0  0  0  0  0  0  0  0  0  0  0
   57.9960   27.4490   42.9480 C   0  0  0  0  0  0  0  0  0  0  0  0
   58.1554   27.9170   41.9654 H   0  0  0  0  0  0  0  0  0  0  0  0
   57.7690   26.0750   43.0340 C   0  0  0  0  0  0  0  0  0  0  0  0
   57.7601   25.4628   42.1201 H   0  0  0  0  0  0  0  0  0  0  0  0
   57.5530   25.4740   44.2760 C   0  0  0  0  0  0  0  0  0  0  0  0
   57.3794   24.3894   44.3353 H   0  0  0  0  0  0  0  0  0  0  0  0
   57.5560   26.2460   45.4510 C   0  0  0  0  0  0  0  0  0  0  0  0
   57.3130   25.6140   46.7700 C   0  0  0  0  0  0  0  0  0  0  0  0
   57.8120   26.1200   47.8120 O   0  0  0  0  0  0  0  0  0  0  0  0
   56.6080   24.3660   46.8500 N   0  0  0  0  0  0  0  0  0  0  0  0
   55.4540   24.0370   46.3370 C   0  0  0  0  0  0  0  0  0  0  0  0
   55.1770   22.7100   46.2050 N   0  0  0  0  0  0  0  0  0  0  0  0
   54.0050   22.2510   45.6950 C   0  0  0  0  0  0  0  0  0  0  0  0
   53.8283   21.1685   45.6113 H   0  0  0  0  0  0  0  0  0  0  0  0
   53.0270   23.1500   45.2780 C   0  0  0  0  0  0  0  0  0  0  0  0
   52.0675   22.7848   44.8830 H   0  0  0  0  0  0  0  0  0  0  0  0
   53.2780   24.5180   45.3670 C   0  0  0  0  0  0  0  0  0  0  0  0
   52.5154   25.2377   45.0346 H   0  0  0  0  0  0  0  0  0  0  0  0
   54.4950   24.9790   45.8770 C   0  0  0  0  0  0  0  0  0  0  0  0
   54.7390   26.3480   45.8610 O   0  0  0  0  0  0  0  0  0  0  0  0
   57.7830   27.6320   45.3540 C   0  0  0  0  0  0  0  0  0  0  0  0
   57.7729   28.2484   46.2650 H   0  0  0  0  0  0  0  0  0  0  0  0
   57.8050   32.5130   46.2170 C   0  0  0  0  0  0  0  0  0  0  0  0
   57.4875   31.8752   47.0551 H   0  0  0  0  0  0  0  0  0  0  0  0
   58.2280   33.8220   46.4590 C   0  0  0  0  0  0  0  0  0  0  0  0
   58.2486   34.2177   47.4852 H   0  0  0  0  0  0  0  0  0  0  0  0
  1  2  1  0
  2  3  2  0
  3  4  1  0
  4  5  1  0
  4  6  2  0
  6  7  1  0
  7  8  2  0
  7  9  1  0
  9 10  1  0
  9 11  1  0
 11 12  2  0
 12 13  1  0
 12 14  1  0
 14 15  1  0
 14 16  2  0
 16 17  1  0
 16 18  1  0
 18 19  1  0
 19 20  2  0
 19 21  1  0
 21 22  2  0
 22 23  1  0
 23 24  1  0
 24 25  1  0
 24 26  2  0
 26 27  1  0
 26 28  1  0
 28 29  1  0
 28 30  2  0
 30 31  1  0
 18 32  2  0
 32 33  1  0
  6 34  1  0
 34 35  1  0
 34 36  2  0
 36 37  1  0
 36  2  1  0
 32 11  1  0
 30 22  1  0
M  CHG  2  23  -1  31  -1
M  END
>  <UniqueID>  (63) 
61

>  <SMILES>  (63) 
O=C(/N=c1/[n-]cccc1[O-])c1cccc(NC(=O)c2cccnc2)c1

>  <Energy>  (63) 
60.09270848209991

>  <Genealogy>  (63) 
O=C(N=c1[n-]cccc1[O-])c1cccc(NC(=O)c2cccnc2)c1 (protonated)
O=C(/N=c1/[n-]cccc1[O-])c1cccc(NC(=O)c2cccnc2)c1 (cis-trans isomerization)
O=C(/N=c1/[n-]cccc1[O-])c1cccc(NC(=O)c2cccnc2)c1 (3D coordinates assigned)
O=C(/N=c1/[n-]cccc1[O-])c1cccc(NC(=O)c2cccnc2)c1 (optimized conformer: 60.09270848209991 kcal/mol)

>  <smiles>  (63) 
O=C(N=c1[nH]cccc1O)c1cccc(NC(=O)c2cccnc2)c1

>  <score_type>  (63) 
oracle

>  <origin>  (63) 
adg

>  <m_score__min__energy>  (63) 
-13.27

>  <m_primary>  (63) 
energy

$$$$
63:0
     RDKit          3D

 55 58  0  0  0  0  0  0  0  0999 V2000
   50.9960   32.3430   49.8870 N   0  0  0  0  0  0  0  0  0  0  0  0
   51.4420   32.2410   51.2390 C   0  0  0  0  0  0  0  0  0  0  0  0
   51.0460   33.0920   52.0810 O   0  0  0  0  0  0  0  0  0  0  0  0
   52.3560   31.1500   51.6520 C   0  0  0  0  0  0  0  0  0  0  0  0
   51.8500   29.9720   52.2300 C   0  0  0  0  0  0  0  0  0  0  0  0
   52.7170   28.9510   52.6250 C   0  0  0  0  0  0  0  0  0  0  0  0
   54.0940   29.0860   52.4430 C   0  0  0  0  0  0  0  0  0  0  0  0
   54.6160   30.2450   51.8440 C   0  0  0  0  0  0  0  0  0  0  0  0
   56.0270   30.4310   51.6550 N   0  0  0  0  0  0  0  0  0  0  0  0
   56.8150   31.5100   52.1720 C   0  0  0  0  0  0  0  0  0  0  0  0
   56.7690   31.8110   53.3950 O   0  0  0  0  0  0  0  0  0  0  0  0
   57.7570   32.2390   51.2540 C   0  0  1  0  0  0  0  0  0  0  0  0
   58.5170   33.3520   51.9840 C   0  0  0  0  0  0  0  0  0  0  0  0
   59.9140   32.7770   52.2750 C   0  0  2  0  0  0  0  0  0  0  0  0
   59.8910   32.2080   53.5400 F   0  0  0  0  0  0  0  0  0  0  0  0
   61.0390   33.8320   52.2510 C   0  0  0  0  0  0  0  0  0  0  0  0
   62.1090   33.4740   51.3180 N   0  0  0  0  0  0  0  0  0  0  0  0
   60.1150   31.6570   51.2460 C   0  0  0  0  0  0  0  0  0  0  0  0
   58.7840   31.3310   50.7620 N   0  0  0  0  0  0  0  0  0  0  0  0
   58.5330   30.2840   49.8120 C   0  0  0  0  0  0  0  0  0  0  0  0
   58.2250   29.1290   50.2150 O   0  0  0  0  0  0  0  0  0  0  0  0
   58.6860   30.5400   48.4120 N   0  0  0  0  0  0  0  0  0  0  0  0
   59.4490   31.6150   47.8570 C   0  0  0  0  0  0  0  0  0  0  0  0
   60.7510   31.9250   48.2050 C   0  0  0  0  0  0  0  0  0  0  0  0
   61.1660   33.0310   47.5380 N   0  0  0  0  0  0  0  0  0  0  0  0
   62.4710   33.6250   47.6910 C   0  0  0  0  0  0  0  0  0  0  0  0
   62.8840   34.2020   48.9250 N   0  0  0  0  0  0  0  0  0  0  0  0
   63.2770   33.6190   46.7210 O   0  0  0  0  0  0  0  0  0  0  0  0
   60.1120   33.4310   46.7790 C   0  0  0  0  0  0  0  0  0  0  0  0
   60.0100   34.5350   45.9180 C   0  0  0  0  0  0  0  0  0  0  0  0
   58.7830   34.7690   45.2750 C   0  0  0  0  0  0  0  0  0  0  0  0
   57.6810   33.9230   45.5040 C   0  0  0  0  0  0  0  0  0  0  0  0
   57.7980   32.8210   46.3640 C   0  0  0  0  0  0  0  0  0  0  0  0
   59.0360   32.5860   46.9660 C   0  0  0  0  0  0  0  0  0  0  0  0
   53.7460   31.2770   51.4710 C   0  0  0  0  0  0  0  0  0  0  0  0
   49.9780   32.3400   49.6570 H   0  0  0  0  0  0  0  0  0  0  0  0
   50.7655   29.8542   52.3717 H   0  0  0  0  0  0  0  0  0  0  0  0
   52.3125   28.0358   53.0819 H   0  0  0  0  0  0  0  0  0  0  0  0
   54.7721   28.2836   52.7691 H   0  0  0  0  0  0  0  0  0  0  0  0
   57.1363   32.6517   50.4450 H   0  0  0  0  0  0  0  0  0  0  0  0
   58.5946   34.2455   51.3471 H   0  0  0  0  0  0  0  0  0  0  0  0
   58.0027   33.6584   52.9068 H   0  0  0  0  0  0  0  0  0  0  0  0
   60.6121   34.7991   51.9471 H   0  0  0  0  0  0  0  0  0  0  0  0
   61.4735   33.8874   53.2600 H   0  0  0  0  0  0  0  0  0  0  0  0
   62.6500   34.3410   51.0980 H   0  0  0  0  0  0  0  0  0  0  0  0
   61.6770   33.1730   50.4160 H   0  0  0  0  0  0  0  0  0  0  0  0
   60.7505   32.0049   50.4183 H   0  0  0  0  0  0  0  0  0  0  0  0
   60.6144   30.7820   51.6875 H   0  0  0  0  0  0  0  0  0  0  0  0
   61.3628   31.3560   48.9205 H   0  0  0  0  0  0  0  0  0  0  0  0
   63.1610   33.6040   49.7330 H   0  0  0  0  0  0  0  0  0  0  0  0
   60.8697   35.2006   45.7509 H   0  0  0  0  0  0  0  0  0  0  0  0
   58.6823   35.6209   44.5864 H   0  0  0  0  0  0  0  0  0  0  0  0
   56.7221   34.1276   45.0053 H   0  0  0  0  0  0  0  0  0  0  0  0
   56.9396   32.1612   46.5585 H   0  0  0  0  0  0  0  0  0  0  0  0
   54.1542   32.1988   51.0309 H   0  0  0  0  0  0  0  0  0  0  0  0
  1  2  1  0
  2  3  2  0
  2  4  1  0
  4  5  2  0
  5  6  1  0
  6  7  2  0
  7  8  1  0
  8  9  1  0
  9 10  1  0
 10 11  2  0
 10 12  1  0
 12 13  1  0
 13 14  1  0
 14 15  1  1
 14 16  1  0
 16 17  1  0
 14 18  1  0
 18 19  1  0
 19 20  1  0
 20 21  2  0
 20 22  1  0
 22 23  1  0
 23 24  2  0
 24 25  1  0
 25 26  1  0
 26 27  1  0
 26 28  2  0
 25 29  1  0
 29 30  2  0
 30 31  1  0
 31 32  2  0
 32 33  1  0
 33 34  2  0
  8 35  2  0
 35  4  1  0
 19 12  1  0
 34 23  1  0
 34 29  1  0
  1 36  1  0
  5 37  1  0
  6 38  1  0
  7 39  1  0
 12 40  1  6
 13 41  1  0
 13 42  1  0
 16 43  1  0
 16 44  1  0
 17 45  1  0
 17 46  1  0
 18 47  1  0
 18 48  1  0
 24 49  1  0
 27 50  1  0
 30 51  1  0
 31 52  1  0
 32 53  1  0
 33 54  1  0
 35 55  1  0
M  CHG  4   1  -1   9  -1  22  -1  27  -1
M  END
>  <UniqueID>  (64) 
62

>  <SMILES>  (64) 
[NH-]C(=O)c1cccc([N-]C(=O)[C@H]2C[C@](F)(CN)CN2C(=O)[N-]c2cn(C([NH-])=O)c3ccccc23)c1

>  <Energy>  (64) 
103.84341931168191

>  <Genealogy>  (64) 
[NH-]C(=O)c1cccc([N-]C(=O)C2CC(F)(CN)CN2C(=O)[N-]c2cn(C([NH-])=O)c3ccccc23)c1 (protonated)
[NH-]C(=O)c1cccc([N-]C(=O)[C@H]2C[C@](F)(CN)CN2C(=O)[N-]c2cn(C([NH-])=O)c3ccccc23)c1 (chirality)
[NH-]C(=O)c1cccc([N-]C(=O)[C@H]2C[C@](F)(CN)CN2C(=O)[N-]c2cn(C([NH-])=O)c3ccccc23)c1 (3D coordinates assigned)
[NH-]C(=O)c1cccc([N-]C(=O)[C@H]2C[C@](F)(CN)CN2C(=O)[N-]c2cn(C([NH-])=O)c3ccccc23)c1 (nonaromatic ring conformer: 103.84341931168191 kcal/mol)

>  <smiles>  (64) 
NCC1(F)CC(C(=O)Nc2cccc(C(N)=O)c2)N(C(=O)Nc2cn(C(N)=O)c3ccccc23)C1

>  <score_type>  (64) 
oracle

>  <origin>  (64) 
adg

>  <m_score__min__energy>  (64) 
-16.899999999999999

>  <m_primary>  (64) 
energy

$$$$
64:0
     RDKit          3D

 65 69  0  0  0  0  0  0  0  0999 V2000
   53.9980   26.6810   46.4940 H   0  0  0  0  0  0  0  0  0  0  0  0
   54.6980   26.0860   45.9960 N   0  0  0  0  0  0  0  0  0  0  0  0
   55.9670   26.3340   46.0660 C   0  0  0  0  0  0  0  0  0  0  0  0
   56.4990   27.3750   45.3680 N   0  0  0  0  0  0  0  0  0  0  0  0
   57.8260   27.6730   45.4110 C   0  0  0  0  0  0  0  0  0  0  0  0
   58.3470   28.7530   44.6670 C   0  0  0  0  0  0  0  0  0  0  0  0
   57.5290   29.5880   43.8960 O   0  0  0  0  0  0  0  0  0  0  0  0
   56.8150   30.6800   44.4080 C   0  0  0  0  0  0  0  0  0  0  0  0
   55.5550   30.6370   44.4700 O   0  0  0  0  0  0  0  0  0  0  0  0
   57.5420   31.8680   44.9080 C   0  0  0  0  0  0  0  0  0  0  0  0
   57.7780   32.9600   44.0610 C   0  0  0  0  0  0  0  0  0  0  0  0
   57.4455   32.9209   43.0132 H   0  0  0  0  0  0  0  0  0  0  0  0
   58.4320   34.0960   44.5390 C   0  0  0  0  0  0  0  0  0  0  0  0
   58.6113   34.9460   43.8642 H   0  0  0  0  0  0  0  0  0  0  0  0
   58.8620   34.1640   45.8690 C   0  0  0  0  0  0  0  0  0  0  0  0
   59.6470   35.6500   46.3920 Cl  0  0  0  0  0  0  0  0  0  0  0  0
   58.6440   33.0670   46.7320 C   0  0  0  0  0  0  0  0  0  0  0  0
   59.1060   33.0790   48.4390 S   0  0  0  0  0  0  0  0  0  0  0  0
   58.0030   32.5660   49.3210 O   0  0  0  0  0  0  0  0  0  0  0  0
   59.3960   34.4950   48.8540 O   0  0  0  0  0  0  0  0  0  0  0  0
   60.5340   32.1120   48.6540 N   0  0  0  0  0  0  0  0  0  0  0  0
   60.4890   30.9900   49.5440 C   0  0  0  0  0  0  0  0  0  0  0  0
   60.5790   29.6970   49.0080 C   0  0  0  0  0  0  0  0  0  0  0  0
   60.6812   29.5643   47.9208 H   0  0  0  0  0  0  0  0  0  0  0  0
   60.5400   28.5730   49.8430 C   0  0  0  0  0  0  0  0  0  0  0  0
   60.6910   27.1980   49.2640 C   0  0  0  0  0  0  0  0  0  0  0  0
   60.7716   26.4638   50.0791 H   0  0  0  0  0  0  0  0  0  0  0  0
   59.8133   26.9628   48.6441 H   0  0  0  0  0  0  0  0  0  0  0  0
   61.5988   27.1589   48.6441 H   0  0  0  0  0  0  0  0  0  0  0  0
   60.4300   28.7480   51.2290 C   0  0  0  0  0  0  0  0  0  0  0  0
   60.4232   27.8712   51.8932 H   0  0  0  0  0  0  0  0  0  0  0  0
   60.3290   30.0310   51.7700 C   0  0  0  0  0  0  0  0  0  0  0  0
   60.2256   30.1562   52.8579 H   0  0  0  0  0  0  0  0  0  0  0  0
   60.3580   31.1620   50.9410 C   0  0  0  0  0  0  0  0  0  0  0  0
   60.2160   32.5190   51.5770 C   0  0  0  0  0  0  0  0  0  0  0  0
   60.2270   32.4137   52.6719 H   0  0  0  0  0  0  0  0  0  0  0  0
   61.0519   33.1609   51.2619 H   0  0  0  0  0  0  0  0  0  0  0  0
   59.2653   32.9739   51.2619 H   0  0  0  0  0  0  0  0  0  0  0  0
   61.7650   32.4240   47.9250 C   0  0  0  0  0  0  0  0  0  0  0  0
   62.0828   31.5393   47.3538 H   0  0  0  0  0  0  0  0  0  0  0  0
   61.5733   33.2644   47.2416 H   0  0  0  0  0  0  0  0  0  0  0  0
   62.8560   32.8130   48.8860 C   0  0  0  0  0  0  0  0  0  0  0  0
   64.0610   32.0920   48.9230 C   0  0  0  0  0  0  0  0  0  0  0  0
   64.2227   31.2582   48.2240 H   0  0  0  0  0  0  0  0  0  0  0  0
   65.0560   32.4310   49.8460 C   0  0  0  0  0  0  0  0  0  0  0  0
   66.0002   31.8670   49.8679 H   0  0  0  0  0  0  0  0  0  0  0  0
   64.8520   33.4850   50.7400 C   0  0  0  0  0  0  0  0  0  0  0  0
   65.6356   33.7501   51.4650 H   0  0  0  0  0  0  0  0  0  0  0  0
   63.6530   34.2030   50.7140 C   0  0  0  0  0  0  0  0  0  0  0  0
   63.4929   35.0310   51.4202 H   0  0  0  0  0  0  0  0  0  0  0  0
   62.6580   33.8700   49.7920 C   0  0  0  0  0  0  0  0  0  0  0  0
   61.7156   34.4370   49.7746 H   0  0  0  0  0  0  0  0  0  0  0  0
   57.9850   31.9290   46.2390 C   0  0  0  0  0  0  0  0  0  0  0  0
   57.8131   31.0716   46.9063 H   0  0  0  0  0  0  0  0  0  0  0  0
   59.7280   28.9830   44.6650 C   0  0  0  0  0  0  0  0  0  0  0  0
   60.1436   29.7995   44.0563 H   0  0  0  0  0  0  0  0  0  0  0  0
   60.5830   28.1850   45.4290 C   0  0  0  0  0  0  0  0  0  0  0  0
   61.6645   28.3856   45.4289 H   0  0  0  0  0  0  0  0  0  0  0  0
   60.0720   27.1350   46.1920 C   0  0  0  0  0  0  0  0  0  0  0  0
   60.7484   26.5176   46.8013 H   0  0  0  0  0  0  0  0  0  0  0  0
   58.6960   26.8670   46.1820 C   0  0  0  0  0  0  0  0  0  0  0  0
   58.1620   25.7970   46.9130 C   0  0  0  0  0  0  0  0  0  0  0  0
   58.8209   25.1684   47.5301 H   0  0  0  0  0  0  0  0  0  0  0  0
   56.7930   25.5300   46.8570 C   0  0  0  0  0  0  0  0  0  0  0  0
   56.3675   24.6935   47.4308 H   0  0  0  0  0  0  0  0  0  0  0  0
  1  2  1  0
  2  3  2  0
  3  4  1  0
  4  5  1  0
  5  6  2  0
  6  7  1  0
  7  8  1  0
  8  9  2  0
  8 10  1  0
 10 11  2  0
 11 12  1  0
 11 13  1  0
 13 14  1  0
 13 15  2  0
 15 16  1  0
 15 17  1  0
 17 18  1  0
 18 19  2  0
 18 20  2  0
 18 21  1  0
 21 22  1  0
 22 23  2  0
 23 24  1  0
 23 25  1  0
 25 26  1  0
 26 27  1  0
 26 28  1  0
 26 29  1  0
 25 30  2  0
 30 31  1  0
 30 32  1  0
 32 33  1  0
 32 34  2  0
 34 35  1  0
 35 36  1  0
 35 37  1  0
 35 38  1  0
 21 39  1  0
 39 40  1  0
 39 41  1  0
 39 42  1  0
 42 43  2  0
 43 44  1  0
 43 45  1  0
 45 46  1  0
 45 47  2  0
 47 48  1  0
 47 49  1  0
 49 50  1  0
 49 51  2  0
 51 52  1  0
 17 53  2  0
 53 54  1  0
  6 55  1  0
 55 56  1  0
 55 57  2  0
 57 58  1  0
 57 59  1  0
 59 60  1  0
 59 61  2  0
 61 62  1  0
 62 63  1  0
 62 64  2  0
 64 65  1  0
 64  3  1  0
 61  5  1  0
 53 10  1  0
 34 22  1  0
 51 42  1  0
M  CHG  1   4  -1
M  END
>  <UniqueID>  (65) 
63

>  <SMILES>  (65) 
[H]/N=c1/ccc2cccc(OC(=O)c3ccc(Cl)c(S(=O)(=O)N(Cc4ccccc4)c4cc(C)ccc4C)c3)c2[n-]1

>  <Energy>  (65) 
85.8281430164928

>  <Genealogy>  (65) 
Cc1ccc(C)c(N(Cc2ccccc2)S(=O)(=O)c2cc(C(=O)Oc3cccc4ccc(=N)[n-]c34)ccc2Cl)c1 (protonated)
[H]/N=c1/ccc2cccc(OC(=O)c3ccc(Cl)c(S(=O)(=O)N(Cc4ccccc4)c4cc(C)ccc4C)c3)c2[n-]1 (cis-trans isomerization)
[H]/N=c1/ccc2cccc(OC(=O)c3ccc(Cl)c(S(=O)(=O)N(Cc4ccccc4)c4cc(C)ccc4C)c3)c2[n-]1 (3D coordinates assigned)
[H]/N=c1/ccc2cccc(OC(=O)c3ccc(Cl)c(S(=O)(=O)N(Cc4ccccc4)c4cc(C)ccc4C)c3)c2[n-]1 (optimized conformer: 85.8281430164928 kcal/mol)

>  <smiles>  (65) 
Cc1ccc(C)c(N(Cc2ccccc2)S(=O)(=O)c2cc(C(=O)Oc3cccc4ccc(=N)[nH]c34)ccc2Cl)c1

>  <score_type>  (65) 
oracle

>  <origin>  (65) 
adg

>  <m_score__min__energy>  (65) 
-14.32

>  <m_primary>  (65) 
energy

$$$$
65:0
     RDKit          3D

 40 42  0  0  0  0  0  0  0  0999 V2000
   60.0372   26.6548   46.2342 H   0  0  0  0  0  0  0  0  0  0  0  0
   58.9380   26.6560   46.1920 C   0  0  0  0  0  0  0  0  0  0  0  0
   58.2780   27.7470   45.7190 N   0  0  0  0  0  0  0  0  0  0  0  0
   56.9150   27.7950   45.6530 C   0  0  0  0  0  0  0  0  0  0  0  0
   56.3040   28.8460   45.1850 N   0  0  0  0  0  0  0  0  0  0  0  0
   56.7420   29.6570   44.0830 C   0  0  0  0  0  0  0  0  0  0  0  0
   56.5360   29.2400   42.9100 O   0  0  0  0  0  0  0  0  0  0  0  0
   57.3770   30.9840   44.2780 C   0  0  0  0  0  0  0  0  0  0  0  0
   57.5860   31.8350   43.1790 C   0  0  0  0  0  0  0  0  0  0  0  0
   57.2776   31.5137   42.1732 H   0  0  0  0  0  0  0  0  0  0  0  0
   58.1830   33.0870   43.3550 C   0  0  0  0  0  0  0  0  0  0  0  0
   58.3446   33.7446   42.4881 H   0  0  0  0  0  0  0  0  0  0  0  0
   58.5740   33.5040   44.6270 C   0  0  0  0  0  0  0  0  0  0  0  0
   59.0509   34.4862   44.7608 H   0  0  0  0  0  0  0  0  0  0  0  0
   58.3600   32.6730   45.7350 C   0  0  0  0  0  0  0  0  0  0  0  0
   58.8440   33.1890   47.3480 S   0  0  0  0  0  0  0  0  0  0  0  0
   57.8460   32.7400   48.3800 O   0  0  0  0  0  0  0  0  0  0  0  0
   58.9220   34.6900   47.3680 O   0  0  0  0  0  0  0  0  0  0  0  0
   60.4010   32.5370   47.7390 N   0  0  0  0  0  0  0  0  0  0  0  0
   61.2930   33.0280   48.7560 C   0  0  0  0  0  0  0  0  0  0  0  0
   60.8270   33.2970   50.0580 C   0  0  0  0  0  0  0  0  0  0  0  0
   59.7711   33.1138   50.3062 H   0  0  0  0  0  0  0  0  0  0  0  0
   61.6890   33.7930   51.0360 C   0  0  0  0  0  0  0  0  0  0  0  0
   61.3113   33.9935   52.0495 H   0  0  0  0  0  0  0  0  0  0  0  0
   63.0260   34.0350   50.7330 C   0  0  0  0  0  0  0  0  0  0  0  0
   63.7037   34.4253   51.5065 H   0  0  0  0  0  0  0  0  0  0  0  0
   63.5060   33.7820   49.4470 C   0  0  0  0  0  0  0  0  0  0  0  0
   64.5606   33.9877   49.2114 H   0  0  0  0  0  0  0  0  0  0  0  0
   62.6570   33.2660   48.4450 C   0  0  0  0  0  0  0  0  0  0  0  0
   63.2220   32.9900   47.0950 C   0  0  0  0  0  0  0  0  0  0  0  0
   63.2520   33.8990   46.2210 O   0  0  0  0  0  0  0  0  0  0  0  0
   63.7450   31.7440   46.7710 O   0  0  0  0  0  0  0  0  0  0  0  0
   57.7550   31.4210   45.5610 C   0  0  0  0  0  0  0  0  0  0  0  0
   57.5744   30.7756   46.4332 H   0  0  0  0  0  0  0  0  0  0  0  0
   56.1660   26.6840   46.0660 C   0  0  0  0  0  0  0  0  0  0  0  0
   54.7780   26.6970   46.0010 O   0  0  0  0  0  0  0  0  0  0  0  0
   56.8280   25.5540   46.5560 C   0  0  0  0  0  0  0  0  0  0  0  0
   56.2506   24.6784   46.8876 H   0  0  0  0  0  0  0  0  0  0  0  0
   58.2230   25.5380   46.6240 C   0  0  0  0  0  0  0  0  0  0  0  0
   58.7515   24.6552   47.0132 H   0  0  0  0  0  0  0  0  0  0  0  0
  1  2  1  0
  2  3  1  0
  3  4  1  0
  4  5  2  0
  5  6  1  0
  6  7  2  0
  6  8  1  0
  8  9  2  0
  9 10  1  0
  9 11  1  0
 11 12  1  0
 11 13  2  0
 13 14  1  0
 13 15  1  0
 15 16  1  0
 16 17  2  0
 16 18  2  0
 16 19  1  0
 19 20  1  0
 20 21  2  0
 21 22  1  0
 21 23  1  0
 23 24  1  0
 23 25  2  0
 25 26  1  0
 25 27  1  0
 27 28  1  0
 27 29  2  0
 29 30  1  0
 30 31  2  0
 30 32  1  0
 15 33  2  0
 33 34  1  0
  4 35  1  0
 35 36  1  0
 35 37  2  0
 37 38  1  0
 37 39  1  0
 39 40  1  0
 39  2  2  0
 33  8  1  0
 29 20  1  0
M  CHG  4   3  -1  19  -1  32  -1  36  -1
M  END
>  <UniqueID>  (66) 
64

>  <SMILES>  (66) 
O=C(/N=c1\[n-]cccc1[O-])c1cccc(S(=O)(=O)[N-]c2ccccc2C(=O)[O-])c1

>  <Energy>  (66) 
58.03717355511873

>  <Genealogy>  (66) 
O=C(N=c1[n-]cccc1[O-])c1cccc(S(=O)(=O)[N-]c2ccccc2C(=O)[O-])c1 (protonated)
O=C(/N=c1\[n-]cccc1[O-])c1cccc(S(=O)(=O)[N-]c2ccccc2C(=O)[O-])c1 (cis-trans isomerization)
O=C(/N=c1\[n-]cccc1[O-])c1cccc(S(=O)(=O)[N-]c2ccccc2C(=O)[O-])c1 (3D coordinates assigned)
O=C(/N=c1\[n-]cccc1[O-])c1cccc(S(=O)(=O)[N-]c2ccccc2C(=O)[O-])c1 (optimized conformer: 58.03717355511873 kcal/mol)

>  <smiles>  (66) 
O=C(N=c1[nH]cccc1O)c1cccc(S(=O)(=O)Nc2ccccc2C(=O)O)c1

>  <score_type>  (66) 
oracle

>  <origin>  (66) 
adg

>  <m_score__min__energy>  (66) 
-16.5

>  <m_primary>  (66) 
energy

$$$$
66:0
     RDKit          3D

 36 37  0  0  0  0  0  0  0  0999 V2000
   62.6970   31.5220   47.4120 C   0  0  0  0  0  0  0  0  0  0  0  0
   63.0050   33.2110   47.8880 S   0  0  0  0  0  0  0  0  0  0  0  0
   62.8940   34.0970   46.6800 O   0  0  0  0  0  0  0  0  0  0  0  0
   64.3980   33.3280   48.4420 O   0  0  0  0  0  0  0  0  0  0  0  0
   61.8300   33.7180   49.1100 C   0  0  0  0  0  0  0  0  0  0  0  0
   61.9220   33.1600   50.4360 S   0  0  0  0  0  0  0  0  0  0  0  0
   60.7240   34.5790   48.7470 N   0  0  0  0  0  0  0  0  0  0  0  0
   59.8820   33.9140   47.7830 C   0  0  0  0  0  0  0  0  0  0  0  0
   59.1130   32.7960   48.1540 C   0  0  0  0  0  0  0  0  0  0  0  0
   58.2100   32.2290   47.2520 C   0  0  0  0  0  0  0  0  0  0  0  0
   58.0610   32.7740   45.9720 C   0  0  0  0  0  0  0  0  0  0  0  0
   56.8050   32.1370   44.8630 S   0  0  0  0  0  0  0  0  0  0  0  0
   57.5430   30.4950   44.8510 C   0  0  0  0  0  0  0  0  0  0  0  0
   58.9370   30.3880   44.9620 C   0  0  0  0  0  0  0  0  0  0  0  0
   59.5570   29.1390   44.8950 C   0  0  0  0  0  0  0  0  0  0  0  0
   58.7900   27.9860   44.7240 C   0  0  0  0  0  0  0  0  0  0  0  0
   57.4000   28.0780   44.6280 C   0  0  0  0  0  0  0  0  0  0  0  0
   56.7630   29.3270   44.6970 C   0  0  0  0  0  0  0  0  0  0  0  0
   55.3330   29.3870   44.6150 N   0  0  0  0  0  0  0  0  0  0  0  0
   58.8570   33.8560   45.5780 C   0  0  0  0  0  0  0  0  0  0  0  0
   59.7630   34.4240   46.4770 C   0  0  0  0  0  0  0  0  0  0  0  0
   62.5839   30.9018   48.3134 H   0  0  0  0  0  0  0  0  0  0  0  0
   61.7749   31.4718   46.8143 H   0  0  0  0  0  0  0  0  0  0  0  0
   63.5420   31.1496   46.8143 H   0  0  0  0  0  0  0  0  0  0  0  0
   61.1100   35.4670   48.3500 H   0  0  0  0  0  0  0  0  0  0  0  0
   60.1440   34.8450   49.5790 H   0  0  0  0  0  0  0  0  0  0  0  0
   59.2235   32.3659   49.1604 H   0  0  0  0  0  0  0  0  0  0  0  0
   57.6150   31.3526   47.5484 H   0  0  0  0  0  0  0  0  0  0  0  0
   59.5454   31.2936   45.1027 H   0  0  0  0  0  0  0  0  0  0  0  0
   60.6513   29.0637   44.9771 H   0  0  0  0  0  0  0  0  0  0  0  0
   59.2809   27.0034   44.6647 H   0  0  0  0  0  0  0  0  0  0  0  0
   56.8000   27.1654   44.4974 H   0  0  0  0  0  0  0  0  0  0  0  0
   54.7500   28.5330   44.4850 H   0  0  0  0  0  0  0  0  0  0  0  0
   54.8380   30.3070   44.6450 H   0  0  0  0  0  0  0  0  0  0  0  0
   58.7689   34.2598   44.5586 H   0  0  0  0  0  0  0  0  0  0  0  0
   60.3863   35.2740   46.1624 H   0  0  0  0  0  0  0  0  0  0  0  0
  1  2  1  0
  2  3  2  0
  2  4  2  0
  2  5  1  0
  5  6  2  0
  5  7  1  0
  7  8  1  0
  8  9  2  0
  9 10  1  0
 10 11  2  0
 11 12  1  0
 12 13  1  0
 13 14  2  0
 14 15  1  0
 15 16  2  0
 16 17  1  0
 17 18  2  0
 18 19  1  0
 11 20  1  0
 20 21  2  0
 21  8  1  0
 18 13  1  0
  1 22  1  0
  1 23  1  0
  1 24  1  0
  7 25  1  0
  7 26  1  0
  9 27  1  0
 10 28  1  0
 14 29  1  0
 15 30  1  0
 16 31  1  0
 17 32  1  0
 19 33  1  0
 19 34  1  0
 20 35  1  0
 21 36  1  0
M  CHG  1   7   1
M  END
>  <UniqueID>  (67) 
65

>  <SMILES>  (67) 
CS(=O)(=O)C(=S)[NH2+]c1ccc(Sc2ccccc2N)cc1

>  <Energy>  (67) 
30.235261467965632

>  <Genealogy>  (67) 
CS(=O)(=O)C(=S)[NH2+]c1ccc(Sc2ccccc2N)cc1 (protonated)
CS(=O)(=O)C(=S)[NH2+]c1ccc(Sc2ccccc2N)cc1 (3D coordinates assigned)
CS(=O)(=O)C(=S)[NH2+]c1ccc(Sc2ccccc2N)cc1 (optimized conformer: 30.235261467965632 kcal/mol)

>  <smiles>  (67) 
CS(=O)(=O)C(=S)Nc1ccc(Sc2ccccc2N)cc1

>  <score_type>  (67) 
oracle

>  <origin>  (67) 
adg

>  <m_score__min__energy>  (67) 
-7.0999999999999996

>  <m_primary>  (67) 
energy

$$$$
67:0
     RDKit          3D

 42 44  0  0  0  0  0  0  0  0999 V2000
   58.5520   22.5770   44.5570 C   0  0  0  0  0  0  0  0  0  0  0  0
   57.5080   23.5770   44.9360 C   0  0  0  0  0  0  0  0  0  0  0  0
   57.8720   24.8900   45.2500 C   0  0  0  0  0  0  0  0  0  0  0  0
   56.8750   25.8210   45.5760 C   0  0  0  0  0  0  0  0  0  0  0  0
   57.2420   27.2660   45.8650 C   0  0  0  0  0  0  0  0  0  0  0  0
   57.5490   28.0620   44.6540 N   0  0  0  0  0  0  0  0  0  0  0  0
   58.9760   28.3870   44.4360 C   0  0  0  0  0  0  0  0  0  0  0  0
   59.3680   29.7420   45.0520 C   0  0  0  0  0  0  0  0  0  0  0  0
   58.3450   30.7640   44.8030 N   0  0  0  0  0  0  0  0  0  0  0  0
   58.5290   32.1010   45.3080 C   0  0  0  0  0  0  0  0  0  0  0  0
   58.1380   33.2130   44.5400 C   0  0  0  0  0  0  0  0  0  0  0  0
   58.3070   34.5090   45.0370 C   0  0  0  0  0  0  0  0  0  0  0  0
   58.8610   34.7080   46.3030 C   0  0  0  0  0  0  0  0  0  0  0  0
   59.2520   33.6110   47.0750 C   0  0  0  0  0  0  0  0  0  0  0  0
   59.9350   33.8580   48.6730 Cl  0  0  0  0  0  0  0  0  0  0  0  0
   59.0910   32.3120   46.5800 C   0  0  0  0  0  0  0  0  0  0  0  0
   57.2240   30.4520   43.9130 C   0  0  0  0  0  0  0  0  0  0  0  0
   56.5710   29.1330   44.3390 C   0  0  0  0  0  0  0  0  0  0  0  0
   55.5380   25.3850   45.6210 C   0  0  0  0  0  0  0  0  0  0  0  0
   54.5160   26.2700   45.9740 O   0  0  0  0  0  0  0  0  0  0  0  0
   55.2520   24.0460   45.3020 C   0  0  0  0  0  0  0  0  0  0  0  0
   54.0660   23.6260   45.3230 O   0  0  0  0  0  0  0  0  0  0  0  0
   56.2300   23.2110   44.9730 O   0  0  0  0  0  0  0  0  0  0  0  0
   58.9981   22.1497   45.4672 H   0  0  0  0  0  0  0  0  0  0  0  0
   58.0919   21.7740   43.9624 H   0  0  0  0  0  0  0  0  0  0  0  0
   59.3344   23.0712   43.9624 H   0  0  0  0  0  0  0  0  0  0  0  0
   58.9303   25.1899   45.2414 H   0  0  0  0  0  0  0  0  0  0  0  0
   56.3972   27.7402   46.3860 H   0  0  0  0  0  0  0  0  0  0  0  0
   58.1575   27.2467   46.4745 H   0  0  0  0  0  0  0  0  0  0  0  0
   59.5921   27.5990   44.8938 H   0  0  0  0  0  0  0  0  0  0  0  0
   59.1445   28.4497   43.3508 H   0  0  0  0  0  0  0  0  0  0  0  0
   59.4921   29.6181   46.1379 H   0  0  0  0  0  0  0  0  0  0  0  0
   60.3070   30.0738   44.5850 H   0  0  0  0  0  0  0  0  0  0  0  0
   57.6971   33.0622   43.5436 H   0  0  0  0  0  0  0  0  0  0  0  0
   58.0027   35.3738   44.4291 H   0  0  0  0  0  0  0  0  0  0  0  0
   58.9897   35.7286   46.6927 H   0  0  0  0  0  0  0  0  0  0  0  0
   59.4056   31.4515   47.1888 H   0  0  0  0  0  0  0  0  0  0  0  0
   56.4804   31.2608   43.9658 H   0  0  0  0  0  0  0  0  0  0  0  0
   57.5960   30.3555   42.8823 H   0  0  0  0  0  0  0  0  0  0  0  0
   55.9598   29.3204   45.2341 H   0  0  0  0  0  0  0  0  0  0  0  0
   55.9689   28.7809   43.4884 H   0  0  0  0  0  0  0  0  0  0  0  0
   53.6450   25.9540   46.3840 H   0  0  0  0  0  0  0  0  0  0  0  0
  1  2  1  0
  2  3  2  0
  3  4  1  0
  4  5  1  0
  5  6  1  0
  6  7  1  0
  7  8  1  0
  8  9  1  0
  9 10  1  0
 10 11  2  0
 11 12  1  0
 12 13  2  0
 13 14  1  0
 14 15  1  0
 14 16  2  0
  9 17  1  0
 17 18  1  0
  4 19  2  0
 19 20  1  0
 19 21  1  0
 21 22  2  0
 21 23  1  0
 23  2  1  0
 18  6  1  0
 16 10  1  0
  1 24  1  0
  1 25  1  0
  1 26  1  0
  3 27  1  0
  5 28  1  0
  5 29  1  0
  7 30  1  0
  7 31  1  0
  8 32  1  0
  8 33  1  0
 11 34  1  0
 12 35  1  0
 13 36  1  0
 16 37  1  0
 17 38  1  0
 17 39  1  0
 18 40  1  0
 18 41  1  0
 20 42  1  0
M  END
>  <UniqueID>  (68) 
66

>  <SMILES>  (68) 
Cc1cc(CN2CCN(c3cccc(Cl)c3)CC2)c(O)c(=O)o1

>  <Energy>  (68) 
57.93411496255565

>  <Genealogy>  (68) 
Cc1cc(CN2CCN(c3cccc(Cl)c3)CC2)c(O)c(=O)o1 (3D coordinates assigned)
Cc1cc(CN2CCN(c3cccc(Cl)c3)CC2)c(O)c(=O)o1 (nonaromatic ring conformer: 57.93411496255565 kcal/mol)

>  <smiles>  (68) 
Cc1cc(CN2CCN(c3cccc(Cl)c3)CC2)c(O)c(=O)o1

>  <score_type>  (68) 
oracle

>  <origin>  (68) 
adg

>  <m_score__min__energy>  (68) 
-9.0399999999999991

>  <m_primary>  (68) 
energy

$$$$
68:0
     RDKit          3D

 31 32  0  0  0  0  0  0  0  0999 V2000
   58.9850   26.4660   46.0100 O   0  0  0  0  0  0  0  0  0  0  0  0
   57.8060   26.5150   45.5680 C   0  0  0  0  0  0  0  0  0  0  0  0
   57.2730   27.7430   45.0360 N   0  0  0  0  0  0  0  0  0  0  0  0
   57.9580   29.0090   45.0360 C   0  0  0  0  0  0  0  0  0  0  0  0
   59.5930   29.0730   44.8570 S   0  0  0  0  0  0  0  0  0  0  0  0
   57.1830   30.2070   44.8670 N   0  0  0  0  0  0  0  0  0  0  0  0
   57.6100   31.5180   45.2760 C   0  0  0  0  0  0  0  0  0  0  0  0
   58.2290   31.6830   46.5250 C   0  0  0  0  0  0  0  0  0  0  0  0
   58.6750   32.9430   46.9330 C   0  0  0  0  0  0  0  0  0  0  0  0
   58.5220   34.0470   46.0910 C   0  0  0  0  0  0  0  0  0  0  0  0
   57.9280   33.8890   44.8350 C   0  0  0  0  0  0  0  0  0  0  0  0
   57.4790   32.6300   44.4240 C   0  0  0  0  0  0  0  0  0  0  0  0
   56.9860   25.2830   45.5860 C   0  0  0  0  0  0  0  0  0  0  0  0
   57.6190   24.0370   45.4430 C   0  0  0  0  0  0  0  0  0  0  0  0
   56.8700   22.8570   45.4470 C   0  0  0  0  0  0  0  0  0  0  0  0
   55.4840   22.9080   45.6050 C   0  0  0  0  0  0  0  0  0  0  0  0
   54.8450   24.1380   45.7690 C   0  0  0  0  0  0  0  0  0  0  0  0
   55.5880   25.3280   45.7720 C   0  0  0  0  0  0  0  0  0  0  0  0
   54.9400   26.5450   45.9890 O   0  0  0  0  0  0  0  0  0  0  0  0
   56.2970   27.7350   44.6650 H   0  0  0  0  0  0  0  0  0  0  0  0
   56.2440   30.1190   44.4160 H   0  0  0  0  0  0  0  0  0  0  0  0
   58.3639   30.8149   47.1869 H   0  0  0  0  0  0  0  0  0  0  0  0
   59.1473   33.0656   47.9188 H   0  0  0  0  0  0  0  0  0  0  0  0
   58.8683   35.0393   46.4155 H   0  0  0  0  0  0  0  0  0  0  0  0
   57.8137   34.7569   44.1689 H   0  0  0  0  0  0  0  0  0  0  0  0
   57.0217   32.5086   43.4309 H   0  0  0  0  0  0  0  0  0  0  0  0
   58.7119   23.9898   45.3271 H   0  0  0  0  0  0  0  0  0  0  0  0
   57.3735   21.8866   45.3254 H   0  0  0  0  0  0  0  0  0  0  0  0
   54.8954   21.9788   45.6003 H   0  0  0  0  0  0  0  0  0  0  0  0
   53.7530   24.1745   45.8966 H   0  0  0  0  0  0  0  0  0  0  0  0
   54.3780   26.7090   46.8160 H   0  0  0  0  0  0  0  0  0  0  0  0
  1  2  2  0
  2  3  1  0
  3  4  1  0
  4  5  2  0
  4  6  1  0
  6  7  1  0
  7  8  2  0
  8  9  1  0
  9 10  2  0
 10 11  1  0
 11 12  2  0
  2 13  1  0
 13 14  2  0
 14 15  1  0
 15 16  2  0
 16 17  1  0
 17 18  2  0
 18 19  1  0
 12  7  1  0
 18 13  1  0
  3 20  1  0
  6 21  1  0
  8 22  1  0
  9 23  1  0
 10 24  1  0
 11 25  1  0
 12 26  1  0
 14 27  1  0
 15 28  1  0
 16 29  1  0
 17 30  1  0
 19 31  1  0
M  END
>  <UniqueID>  (69) 
67

>  <SMILES>  (69) 
O=C(NC(=S)Nc1ccccc1)c1ccccc1O

>  <Energy>  (69) 
44.14786399312692

>  <Genealogy>  (69) 
O=C(NC(=S)Nc1ccccc1)c1ccccc1O (3D coordinates assigned)
O=C(NC(=S)Nc1ccccc1)c1ccccc1O (optimized conformer: 44.14786399312692 kcal/mol)

>  <smiles>  (69) 
O=C(NC(=S)Nc1ccccc1)c1ccccc1O

>  <score_type>  (69) 
oracle

>  <origin>  (69) 
adg

>  <m_score__min__energy>  (69) 
-8.2300000000000004

>  <m_primary>  (69) 
energy

$$$$
69:0
     RDKit          3D

 40 42  0  0  0  0  0  0  0  0999 V2000
   56.4504   29.7254   43.4319 H   0  0  0  0  0  0  0  0  0  0  0  0
   56.9940   30.5780   43.8650 C   0  0  0  0  0  0  0  0  0  0  0  0
   57.2920   30.5910   45.1900 N   0  0  0  0  0  0  0  0  0  0  0  0
   57.9680   31.6220   45.7730 C   0  0  0  0  0  0  0  0  0  0  0  0
   58.2240   31.6070   47.0500 N   0  0  0  0  0  0  0  0  0  0  0  0
   58.8770   30.5450   47.7630 C   0  0  0  0  0  0  0  0  0  0  0  0
   59.0420   29.3120   47.1200 C   0  0  0  0  0  0  0  0  0  0  0  0
   58.6818   29.1803   46.0890 H   0  0  0  0  0  0  0  0  0  0  0  0
   59.6610   28.2490   47.7800 C   0  0  0  0  0  0  0  0  0  0  0  0
   59.7997   27.2876   47.2638 H   0  0  0  0  0  0  0  0  0  0  0  0
   60.1040   28.4050   49.0940 C   0  0  0  0  0  0  0  0  0  0  0  0
   60.6039   27.5704   49.6074 H   0  0  0  0  0  0  0  0  0  0  0  0
   59.9140   29.6190   49.7590 C   0  0  0  0  0  0  0  0  0  0  0  0
   60.2583   29.7335   50.7974 H   0  0  0  0  0  0  0  0  0  0  0  0
   59.2830   30.6990   49.1060 C   0  0  0  0  0  0  0  0  0  0  0  0
   59.0250   31.9130   49.7630 O   0  0  0  0  0  0  0  0  0  0  0  0
   58.1330   32.0630   50.8630 C   0  0  0  0  0  0  0  0  0  0  0  0
   58.6933   31.9688   51.8049 H   0  0  0  0  0  0  0  0  0  0  0  0
   57.6573   33.0537   50.8169 H   0  0  0  0  0  0  0  0  0  0  0  0
   57.3594   31.2823   50.8169 H   0  0  0  0  0  0  0  0  0  0  0  0
   58.3540   32.7290   44.9900 C   0  0  0  0  0  0  0  0  0  0  0  0
   59.1990   34.1170   45.6910 S   0  0  0  0  0  0  0  0  0  0  0  0
   58.9290   35.3230   44.8370 O   0  0  0  0  0  0  0  0  0  0  0  0
   58.7040   34.3890   47.0850 O   0  0  0  0  0  0  0  0  0  0  0  0
   60.9120   33.8380   45.7460 N   0  0  0  0  0  0  0  0  0  0  0  0
   61.6060   33.4890   46.7910 C   0  0  0  0  0  0  0  0  0  0  0  0
   62.9970   33.6540   46.7550 C   0  0  0  0  0  0  0  0  0  0  0  0
   63.4789   34.0892   45.8671 H   0  0  0  0  0  0  0  0  0  0  0  0
   63.7680   33.2640   47.8500 C   0  0  0  0  0  0  0  0  0  0  0  0
   64.8610   33.3861   47.8267 H   0  0  0  0  0  0  0  0  0  0  0  0
   63.1490   32.7190   48.9740 C   0  0  0  0  0  0  0  0  0  0  0  0
   63.7482   32.4073   49.8422 H   0  0  0  0  0  0  0  0  0  0  0  0
   61.7610   32.5730   48.9860 C   0  0  0  0  0  0  0  0  0  0  0  0
   61.2633   32.1463   49.8693 H   0  0  0  0  0  0  0  0  0  0  0  0
   61.0200   32.9560   47.9100 N   0  0  0  0  0  0  0  0  0  0  0  0
   59.9870   32.8310   47.9770 H   0  0  0  0  0  0  0  0  0  0  0  0
   58.0580   32.7220   43.6200 C   0  0  0  0  0  0  0  0  0  0  0  0
   58.3641   33.5694   42.9890 H   0  0  0  0  0  0  0  0  0  0  0  0
   57.3770   31.6450   43.0540 C   0  0  0  0  0  0  0  0  0  0  0  0
   57.1445   31.6374   41.9789 H   0  0  0  0  0  0  0  0  0  0  0  0
  1  2  1  0
  2  3  1  0
  3  4  1  0
  4  5  2  3
  5  6  1  0
  6  7  2  0
  7  8  1  0
  7  9  1  0
  9 10  1  0
  9 11  2  0
 11 12  1  0
 11 13  1  0
 13 14  1  0
 13 15  2  0
 15 16  1  0
 16 17  1  0
 17 18  1  0
 17 19  1  0
 17 20  1  0
  4 21  1  0
 21 22  1  0
 22 23  2  0
 22 24  2  0
 22 25  1  0
 25 26  2  0
 26 27  1  0
 27 28  1  0
 27 29  2  0
 29 30  1  0
 29 31  1  0
 31 32  1  0
 31 33  2  0
 33 34  1  0
 33 35  1  0
 35 36  1  0
 21 37  2  0
 37 38  1  0
 37 39  1  0
 39 40  1  0
 39  2  2  0
 15  6  1  0
 35 26  1  0
M  CHG  1   3  -1
M  END
>  <UniqueID>  (70) 
68

>  <SMILES>  (70) 
COc1ccccc1N=c1[n-]cccc1S(=O)(=O)/N=c1/cccc[nH]1

>  <Energy>  (70) 
55.69778547212105

>  <Genealogy>  (70) 
COc1ccccc1N=c1[n-]cccc1S(=O)(=O)N=c1cccc[nH]1 (protonated)
COc1ccccc1N=c1[n-]cccc1S(=O)(=O)/N=c1/cccc[nH]1 (cis-trans isomerization)
COc1ccccc1N=c1[n-]cccc1S(=O)(=O)/N=c1/cccc[nH]1 (3D coordinates assigned)
COc1ccccc1N=c1[n-]cccc1S(=O)(=O)/N=c1/cccc[nH]1 (optimized conformer: 55.69778547212105 kcal/mol)

>  <smiles>  (70) 
COc1ccccc1N=c1[nH]cccc1S(=O)(=O)N=c1cccc[nH]1

>  <score_type>  (70) 
oracle

>  <origin>  (70) 
adg

>  <m_score__min__energy>  (70) 
-8.4299999999999997

>  <m_primary>  (70) 
energy

$$$$
70:0
     RDKit          3D

 30 31  0  0  0  0  0  0  0  0999 V2000
   55.1430   27.8330   45.1830 H   0  0  0  0  0  0  0  0  0  0  0  0
   55.5030   27.0950   45.7770 O   0  0  0  0  0  0  0  0  0  0  0  0
   56.8710   26.8350   45.8670 C   0  0  0  0  0  0  0  0  0  0  0  0
   57.3550   25.8880   46.7790 C   0  0  0  0  0  0  0  0  0  0  0  0
   56.6552   25.3440   47.4304 H   0  0  0  0  0  0  0  0  0  0  0  0
   58.7240   25.6350   46.8610 C   0  0  0  0  0  0  0  0  0  0  0  0
   59.1105   24.8925   47.5746 H   0  0  0  0  0  0  0  0  0  0  0  0
   59.5980   26.3340   46.0280 C   0  0  0  0  0  0  0  0  0  0  0  0
   60.6802   26.1444   46.0828 H   0  0  0  0  0  0  0  0  0  0  0  0
   59.1120   27.2490   45.1490 N   0  0  0  0  0  0  0  0  0  0  0  0
   57.7780   27.5200   45.0440 C   0  0  0  0  0  0  0  0  0  0  0  0
   57.3320   28.4020   44.1940 N   0  0  0  0  0  0  0  0  0  0  0  0
   56.7570   29.6840   44.4910 C   0  0  0  0  0  0  0  0  0  0  0  0
   55.7350   29.7330   45.2240 O   0  0  0  0  0  0  0  0  0  0  0  0
   57.3630   30.8940   44.0130 N   0  0  0  0  0  0  0  0  0  0  0  0
   57.8350   32.0030   44.7920 C   0  0  0  0  0  0  0  0  0  0  0  0
   57.3290   33.3050   44.6120 C   0  0  0  0  0  0  0  0  0  0  0  0
   56.5337   33.4862   43.8740 H   0  0  0  0  0  0  0  0  0  0  0  0
   57.8330   34.3680   45.3670 C   0  0  0  0  0  0  0  0  0  0  0  0
   57.4255   35.3804   45.2294 H   0  0  0  0  0  0  0  0  0  0  0  0
   58.8520   34.1480   46.2950 C   0  0  0  0  0  0  0  0  0  0  0  0
   59.2403   34.9851   46.8937 H   0  0  0  0  0  0  0  0  0  0  0  0
   59.3790   32.8660   46.4640 C   0  0  0  0  0  0  0  0  0  0  0  0
   60.1863   32.6967   47.1917 H   0  0  0  0  0  0  0  0  0  0  0  0
   58.8830   31.7950   45.7100 C   0  0  0  0  0  0  0  0  0  0  0  0
   59.5830   30.1560   45.9490 S   0  0  0  0  0  0  0  0  0  0  0  0
   58.9060   29.9760   47.6290 C   0  0  0  0  0  0  0  0  0  0  0  0
   59.6947   30.1857   48.3666 H   0  0  0  0  0  0  0  0  0  0  0  0
   58.0763   30.6848   47.7679 H   0  0  0  0  0  0  0  0  0  0  0  0
   58.5379   28.9488   47.7679 H   0  0  0  0  0  0  0  0  0  0  0  0
  1  2  1  0
  2  3  1  0
  3  4  2  0
  4  5  1  0
  4  6  1  0
  6  7  1  0
  6  8  2  0
  8  9  1  0
  8 10  1  0
 10 11  1  0
 11 12  2  0
 12 13  1  0
 13 14  2  0
 13 15  1  0
 15 16  1  0
 16 17  2  0
 17 18  1  0
 17 19  1  0
 19 20  1  0
 19 21  2  0
 21 22  1  0
 21 23  1  0
 23 24  1  0
 23 25  2  0
 25 26  1  0
 26 27  1  0
 27 28  1  0
 27 29  1  0
 27 30  1  0
 11  3  1  0
 25 16  1  0
M  CHG  2  10  -1  15  -1
M  END
>  <UniqueID>  (71) 
69

>  <SMILES>  (71) 
CSc1ccccc1[N-]C(=O)/N=c1\[n-]cccc1O

>  <Energy>  (71) 
32.773804027920185

>  <Genealogy>  (71) 
CSc1ccccc1[N-]C(=O)N=c1[n-]cccc1O (protonated)
CSc1ccccc1[N-]C(=O)/N=c1\[n-]cccc1O (cis-trans isomerization)
CSc1ccccc1[N-]C(=O)/N=c1\[n-]cccc1O (3D coordinates assigned)
CSc1ccccc1[N-]C(=O)/N=c1\[n-]cccc1O (optimized conformer: 32.773804027920185 kcal/mol)

>  <smiles>  (71) 
CSc1ccccc1NC(=O)N=c1[nH]cccc1O

>  <score_type>  (71) 
oracle

>  <origin>  (71) 
adg

>  <m_score__min__energy>  (71) 
-9.8000000000000007

>  <m_primary>  (71) 
energy

$$$$
71:0
     RDKit          3D

 30 31  0  0  0  0  0  0  0  0999 V2000
   54.7110   28.9720   45.4190 H   0  0  0  0  0  0  0  0  0  0  0  0
   55.6960   29.0240   45.1860 O   0  0  0  0  0  0  0  0  0  0  0  0
   56.5930   28.0170   45.5410 C   0  0  0  0  0  0  0  0  0  0  0  0
   57.9670   28.2810   45.4950 C   0  0  0  0  0  0  0  0  0  0  0  0
   58.3221   29.2710   45.1727 H   0  0  0  0  0  0  0  0  0  0  0  0
   58.8950   27.2920   45.8570 C   0  0  0  0  0  0  0  0  0  0  0  0
   60.3720   27.5900   45.8210 C   0  0  0  0  0  0  0  0  0  0  0  0
   60.7525   27.6193   46.8527 H   0  0  0  0  0  0  0  0  0  0  0  0
   60.8617   26.7979   45.2355 H   0  0  0  0  0  0  0  0  0  0  0  0
   60.6770   28.9320   45.1440 C   0  0  0  0  0  0  0  0  0  0  0  0
   61.5564   28.8141   44.4937 H   0  0  0  0  0  0  0  0  0  0  0  0
   59.7974   29.2334   44.5562 H   0  0  0  0  0  0  0  0  0  0  0  0
   60.9520   29.9750   46.1350 N   0  0  0  0  0  0  0  0  0  0  0  0
   60.0940   30.6560   46.8410 C   0  0  0  0  0  0  0  0  0  0  0  0
   60.0881   30.5009   47.9300 H   0  0  0  0  0  0  0  0  0  0  0  0
   59.1310   31.6200   46.2790 C   0  0  0  0  0  0  0  0  0  0  0  0
   59.4180   32.9450   46.0170 C   0  0  0  0  0  0  0  0  0  0  0  0
   60.3529   33.4756   46.2502 H   0  0  0  0  0  0  0  0  0  0  0  0
   58.3000   33.4710   45.4050 C   0  0  0  0  0  0  0  0  0  0  0  0
   58.1594   34.5101   45.0727 H   0  0  0  0  0  0  0  0  0  0  0  0
   57.3910   32.4370   45.2910 C   0  0  0  0  0  0  0  0  0  0  0  0
   56.3909   32.5238   44.8412 H   0  0  0  0  0  0  0  0  0  0  0  0
   57.9070   31.3090   45.8100 N   0  0  0  0  0  0  0  0  0  0  0  0
   57.4610   30.3660   45.7800 H   0  0  0  0  0  0  0  0  0  0  0  0
   58.4340   26.0310   46.2680 C   0  0  0  0  0  0  0  0  0  0  0  0
   59.1542   25.2523   46.5595 H   0  0  0  0  0  0  0  0  0  0  0  0
   57.0630   25.7620   46.3080 C   0  0  0  0  0  0  0  0  0  0  0  0
   56.7078   24.7699   46.6234 H   0  0  0  0  0  0  0  0  0  0  0  0
   56.1410   26.7510   45.9480 C   0  0  0  0  0  0  0  0  0  0  0  0
   54.7810   26.4700   46.0020 O   0  0  0  0  0  0  0  0  0  0  0  0
  1  2  1  0
  2  3  1  0
  3  4  2  0
  4  5  1  0
  4  6  1  0
  6  7  1  0
  7  8  1  0
  7  9  1  0
  7 10  1  0
 10 11  1  0
 10 12  1  0
 10 13  1  0
 13 14  2  0
 14 15  1  0
 14 16  1  0
 16 17  2  0
 17 18  1  0
 17 19  1  0
 19 20  1  0
 19 21  2  0
 21 22  1  0
 21 23  1  0
 23 24  1  0
  6 25  2  0
 25 26  1  0
 25 27  1  0
 27 28  1  0
 27 29  2  0
 29 30  1  0
 29  3  1  0
 23 16  1  0
M  CHG  1  30  -1
M  END
>  <UniqueID>  (72) 
70

>  <SMILES>  (72) 
[O-]c1ccc(CC/N=C\c2ccc[nH]2)cc1O

>  <Energy>  (72) 
56.86108567166416

>  <Genealogy>  (72) 
[O-]c1ccc(CCN=Cc2ccc[nH]2)cc1O (protonated)
[O-]c1ccc(CC/N=C\c2ccc[nH]2)cc1O (cis-trans isomerization)
[O-]c1ccc(CC/N=C\c2ccc[nH]2)cc1O (3D coordinates assigned)
[O-]c1ccc(CC/N=C\c2ccc[nH]2)cc1O (optimized conformer: 56.86108567166416 kcal/mol)

>  <smiles>  (72) 
Oc1ccc(CCN=Cc2ccc[nH]2)cc1O

>  <score_type>  (72) 
oracle

>  <origin>  (72) 
adg

>  <m_score__min__energy>  (72) 
-10.01

>  <m_primary>  (72) 
energy

$$$$
72:0
     RDKit          3D

 52 56  0  0  0  0  0  0  0  0999 V2000
   58.5590   34.0620   47.3410 O   0  0  0  0  0  0  0  0  0  0  0  0
   58.5840   32.9800   46.6970 C   0  0  0  0  0  0  0  0  0  0  0  0
   57.4540   32.6780   45.9520 C   0  0  0  0  0  0  0  0  0  0  0  0
   57.4090   31.5110   45.2260 C   0  0  0  0  0  0  0  0  0  0  0  0
   56.2560   31.2180   44.5020 O   0  0  0  0  0  0  0  0  0  0  0  0
   58.4770   30.6660   45.2300 N   0  0  0  0  0  0  0  0  0  0  0  0
   58.4000   29.3920   44.4800 C   0  0  0  0  0  0  0  0  0  0  0  0
   57.8330   28.2610   45.3490 C   0  0  0  0  0  0  0  0  0  0  0  0
   58.8040   27.8410   46.4210 C   0  0  0  0  0  0  0  0  0  0  0  0
   58.7370   28.4140   47.7010 C   0  0  0  0  0  0  0  0  0  0  0  0
   59.6690   28.0580   48.6810 C   0  0  0  0  0  0  0  0  0  0  0  0
   60.6770   27.1360   48.3880 C   0  0  0  0  0  0  0  0  0  0  0  0
   60.7550   26.5680   47.1140 C   0  0  0  0  0  0  0  0  0  0  0  0
   59.8260   26.9190   46.1310 C   0  0  0  0  0  0  0  0  0  0  0  0
   59.6030   30.9660   45.9640 C   0  0  0  0  0  0  0  0  0  0  0  0
   60.5610   30.1510   45.9190 O   0  0  0  0  0  0  0  0  0  0  0  0
   59.6830   32.1310   46.7310 N   0  0  0  0  0  0  0  0  0  0  0  0
   60.8820   32.5070   47.5930 C   0  0  1  0  0  0  0  0  0  0  0  0
   61.7270   31.2310   47.9320 C   0  0  0  0  0  0  0  0  0  0  0  0
   63.0020   31.5980   48.7250 C   0  0  2  0  0  0  0  0  0  0  0  0
   62.6060   32.2410   50.0660 C   0  0  0  0  0  0  0  0  0  0  0  0
   61.7940   33.5200   49.7920 C   0  0  1  0  0  0  0  0  0  0  0  0
   62.6530   34.5190   48.9960 C   0  0  0  0  0  0  0  0  0  0  0  0
   63.0490   33.8840   47.6520 C   0  0  1  0  0  0  0  0  0  0  0  0
   63.8540   32.5910   47.9060 C   0  0  0  0  0  0  0  0  0  0  0  0
   61.7780   33.5530   46.8430 C   0  0  0  0  0  0  0  0  0  0  0  0
   60.5290   33.1640   48.9790 C   0  0  0  0  0  0  0  0  0  0  0  0
   56.5979   33.3686   45.9419 H   0  0  0  0  0  0  0  0  0  0  0  0
   57.7484   29.5313   43.6048 H   0  0  0  0  0  0  0  0  0  0  0  0
   59.4176   29.1120   44.1700 H   0  0  0  0  0  0  0  0  0  0  0  0
   56.9046   28.6089   45.8255 H   0  0  0  0  0  0  0  0  0  0  0  0
   57.6423   27.3933   44.7004 H   0  0  0  0  0  0  0  0  0  0  0  0
   57.9489   29.1453   47.9338 H   0  0  0  0  0  0  0  0  0  0  0  0
   59.6083   28.5047   49.6844 H   0  0  0  0  0  0  0  0  0  0  0  0
   61.4091   26.8574   49.1603 H   0  0  0  0  0  0  0  0  0  0  0  0
   61.5495   25.8428   46.8842 H   0  0  0  0  0  0  0  0  0  0  0  0
   59.8941   26.4731   45.1277 H   0  0  0  0  0  0  0  0  0  0  0  0
   62.0182   30.7343   46.9947 H   0  0  0  0  0  0  0  0  0  0  0  0
   61.1126   30.5614   48.5518 H   0  0  0  0  0  0  0  0  0  0  0  0
   63.5884   30.6871   48.9155 H   0  0  0  0  0  0  0  0  0  0  0  0
   63.5128   32.4952   50.6344 H   0  0  0  0  0  0  0  0  0  0  0  0
   61.9981   31.5345   50.6502 H   0  0  0  0  0  0  0  0  0  0  0  0
   61.4989   33.9757   50.7487 H   0  0  0  0  0  0  0  0  0  0  0  0
   63.5595   34.7635   49.5691 H   0  0  0  0  0  0  0  0  0  0  0  0
   62.0788   35.4398   48.8157 H   0  0  0  0  0  0  0  0  0  0  0  0
   63.6694   34.5920   47.0829 H   0  0  0  0  0  0  0  0  0  0  0  0
   64.7695   32.8345   48.4651 H   0  0  0  0  0  0  0  0  0  0  0  0
   64.1198   32.1329   46.9419 H   0  0  0  0  0  0  0  0  0  0  0  0
   62.0719   33.1389   45.8672 H   0  0  0  0  0  0  0  0  0  0  0  0
   61.1976   34.4784   46.7139 H   0  0  0  0  0  0  0  0  0  0  0  0
   59.9200   32.4573   49.5618 H   0  0  0  0  0  0  0  0  0  0  0  0
   59.9792   34.0962   48.7820 H   0  0  0  0  0  0  0  0  0  0  0  0
  1  2  2  0
  2  3  1  0
  3  4  2  0
  4  5  1  0
  4  6  1  0
  6  7  1  0
  7  8  1  0
  8  9  1  0
  9 10  2  0
 10 11  1  0
 11 12  2  0
 12 13  1  0
 13 14  2  0
  6 15  1  0
 15 16  2  0
 15 17  1  0
 18 17  1  6
 18 19  1  0
 19 20  1  0
 20 21  1  0
 21 22  1  0
 22 23  1  0
 23 24  1  0
 24 25  1  0
 24 26  1  0
 22 27  1  0
 17  2  1  0
 26 18  1  0
 14  9  1  0
 27 18  1  0
 25 20  1  0
  3 28  1  0
  7 29  1  0
  7 30  1  0
  8 31  1  0
  8 32  1  0
 10 33  1  0
 11 34  1  0
 12 35  1  0
 13 36  1  0
 14 37  1  0
 19 38  1  0
 19 39  1  0
 20 40  1  1
 21 41  1  0
 21 42  1  0
 22 43  1  1
 23 44  1  0
 23 45  1  0
 24 46  1  6
 25 47  1  0
 25 48  1  0
 26 49  1  0
 26 50  1  0
 27 51  1  0
 27 52  1  0
M  CHG  1   5  -1
M  END
>  <UniqueID>  (73) 
71

>  <SMILES>  (73) 
O=c1cc([O-])n(CCc2ccccc2)c(=O)n1C12CC3CC(CC(C3)C1)C2

>  <Energy>  (73) 
77.61080333085847

>  <Genealogy>  (73) 
O=c1cc([O-])n(CCc2ccccc2)c(=O)n1C12CC3CC(CC(C3)C1)C2 (protonated)
O=c1cc([O-])n(CCc2ccccc2)c(=O)n1C12CC3CC(CC(C3)C1)C2 (3D coordinates assigned)
O=c1cc([O-])n(CCc2ccccc2)c(=O)n1C12CC3CC(CC(C3)C1)C2 (nonaromatic ring conformer: 77.61080333085847 kcal/mol)

>  <smiles>  (73) 
O=c1cc(O)n(CCc2ccccc2)c(=O)n1C12CC3CC(CC(C3)C1)C2

>  <score_type>  (73) 
oracle

>  <origin>  (73) 
adg

>  <m_score__min__energy>  (73) 
-10.5

>  <m_primary>  (73) 
energy

$$$$
73:0
     RDKit          3D

 46 48  0  0  0  0  0  0  0  0999 V2000
   56.7850   29.3500   43.6250 C   0  0  0  0  0  0  0  0  0  0  0  0
   55.9470   29.0850   44.8700 C   0  0  0  0  0  0  0  0  0  0  0  0
   56.5640   28.0000   45.7020 C   0  0  0  0  0  0  0  0  0  0  0  0
   55.9950   26.7820   46.0550 C   0  0  0  0  0  0  0  0  0  0  0  0
   54.7490   26.3400   45.6300 O   0  0  0  0  0  0  0  0  0  0  0  0
   56.7930   26.0600   46.8750 N   0  0  0  0  0  0  0  0  0  0  0  0
   57.8750   26.8440   47.0510 C   0  0  0  0  0  0  0  0  0  0  0  0
   58.9960   26.5490   47.8230 C   0  0  0  0  0  0  0  0  0  0  0  0
   60.0230   27.5070   47.8910 C   0  0  0  0  0  0  0  0  0  0  0  0
   59.9100   28.7430   47.2080 C   0  0  0  0  0  0  0  0  0  0  0  0
   60.9910   29.6880   47.2870 N   0  0  0  0  0  0  0  0  0  0  0  0
   61.3350   30.4130   48.4830 C   0  0  0  0  0  0  0  0  0  0  0  0
   60.7470   30.1530   49.5680 O   0  0  0  0  0  0  0  0  0  0  0  0
   62.3820   31.4640   48.4710 C   0  0  0  0  0  0  0  0  0  0  0  0
   62.7170   32.1520   47.2910 C   0  0  0  0  0  0  0  0  0  0  0  0
   63.7150   33.1300   47.3020 C   0  0  0  0  0  0  0  0  0  0  0  0
   64.3930   33.4310   48.4860 C   0  0  0  0  0  0  0  0  0  0  0  0
   64.0800   32.7470   49.6670 C   0  0  0  0  0  0  0  0  0  0  0  0
   64.9480   33.1120   51.1600 S   0  0  0  0  0  0  0  0  0  0  0  0
   64.9540   34.6000   51.3770 O   0  0  0  0  0  0  0  0  0  0  0  0
   64.2300   32.4770   52.3180 O   0  0  0  0  0  0  0  0  0  0  0  0
   66.5940   32.5280   51.1060 N   0  0  0  0  0  0  0  0  0  0  0  0
   66.6260   31.1830   50.5190 C   0  0  0  0  0  0  0  0  0  0  0  0
   67.4220   33.4470   50.3160 C   0  0  0  0  0  0  0  0  0  0  0  0
   63.0800   31.7650   49.6550 C   0  0  0  0  0  0  0  0  0  0  0  0
   58.7680   29.0010   46.4150 C   0  0  0  0  0  0  0  0  0  0  0  0
   57.7700   28.0280   46.3650 C   0  0  0  0  0  0  0  0  0  0  0  0
   57.7944   29.6692   43.9236 H   0  0  0  0  0  0  0  0  0  0  0  0
   56.8535   28.4297   43.0264 H   0  0  0  0  0  0  0  0  0  0  0  0
   56.3119   30.1424   43.0264 H   0  0  0  0  0  0  0  0  0  0  0  0
   55.8851   30.0069   45.4668 H   0  0  0  0  0  0  0  0  0  0  0  0
   54.9419   28.7643   44.5587 H   0  0  0  0  0  0  0  0  0  0  0  0
   59.0756   25.5944   48.3638 H   0  0  0  0  0  0  0  0  0  0  0  0
   60.9258   27.2940   48.4822 H   0  0  0  0  0  0  0  0  0  0  0  0
   61.5750   29.8070   46.4310 H   0  0  0  0  0  0  0  0  0  0  0  0
   62.1903   31.9189   46.3539 H   0  0  0  0  0  0  0  0  0  0  0  0
   63.9679   33.6651   46.3748 H   0  0  0  0  0  0  0  0  0  0  0  0
   65.1735   34.2061   48.4904 H   0  0  0  0  0  0  0  0  0  0  0  0
   66.6439   30.4324   51.3229 H   0  0  0  0  0  0  0  0  0  0  0  0
   65.7312   31.0330   49.8971 H   0  0  0  0  0  0  0  0  0  0  0  0
   67.5270   31.0757   49.8971 H   0  0  0  0  0  0  0  0  0  0  0  0
   68.0025   34.0913   50.9927 H   0  0  0  0  0  0  0  0  0  0  0  0
   68.1093   32.8680   49.6816 H   0  0  0  0  0  0  0  0  0  0  0  0
   66.7748   34.0704   49.6816 H   0  0  0  0  0  0  0  0  0  0  0  0
   62.8382   31.2236   50.5815 H   0  0  0  0  0  0  0  0  0  0  0  0
   58.6696   29.9419   45.8538 H   0  0  0  0  0  0  0  0  0  0  0  0
  1  2  1  0
  2  3  1  0
  3  4  2  0
  4  5  1  0
  4  6  1  0
  6  7  1  0
  7  8  2  0
  8  9  1  0
  9 10  2  0
 10 11  1  0
 11 12  1  0
 12 13  2  0
 12 14  1  0
 14 15  2  0
 15 16  1  0
 16 17  2  0
 17 18  1  0
 18 19  1  0
 19 20  2  0
 19 21  2  0
 19 22  1  0
 22 23  1  0
 22 24  1  0
 18 25  2  0
 10 26  1  0
 26 27  2  0
 27  3  1  0
 27  7  1  0
 25 14  1  0
  1 28  1  0
  1 29  1  0
  1 30  1  0
  2 31  1  0
  2 32  1  0
  8 33  1  0
  9 34  1  0
 11 35  1  0
 15 36  1  0
 16 37  1  0
 17 38  1  0
 23 39  1  0
 23 40  1  0
 23 41  1  0
 24 42  1  0
 24 43  1  0
 24 44  1  0
 25 45  1  0
 26 46  1  0
M  CHG  2   5  -1   6  -1
M  END
>  <UniqueID>  (74) 
72

>  <SMILES>  (74) 
CCc1c([O-])[n-]c2ccc(NC(=O)c3cccc(S(=O)(=O)N(C)C)c3)cc12

>  <Energy>  (74) 
81.19852376438422

>  <Genealogy>  (74) 
CCc1c([O-])[n-]c2ccc(NC(=O)c3cccc(S(=O)(=O)N(C)C)c3)cc12 (protonated)
CCc1c([O-])[n-]c2ccc(NC(=O)c3cccc(S(=O)(=O)N(C)C)c3)cc12 (3D coordinates assigned)
CCc1c([O-])[n-]c2ccc(NC(=O)c3cccc(S(=O)(=O)N(C)C)c3)cc12 (optimized conformer: 81.19852376438422 kcal/mol)

>  <smiles>  (74) 
CCc1c(O)[nH]c2ccc(NC(=O)c3cccc(S(=O)(=O)N(C)C)c3)cc12

>  <score_type>  (74) 
oracle

>  <origin>  (74) 
adg

>  <m_score__min__energy>  (74) 
-12.220000000000001

>  <m_primary>  (74) 
energy

$$$$
74:0
     RDKit          3D

 31 33  0  0  0  0  0  0  0  0999 V2000
   55.1390   29.8600   44.4950 N   0  0  0  0  0  0  0  0  0  0  0  0
   56.8340   30.1520   44.6480 S   0  0  0  0  0  0  0  0  0  0  0  0
   57.0530   31.4350   45.4000 O   0  0  0  0  0  0  0  0  0  0  0  0
   57.4490   30.2810   43.2830 O   0  0  0  0  0  0  0  0  0  0  0  0
   57.5840   28.8140   45.5150 C   0  0  0  0  0  0  0  0  0  0  0  0
   58.8580   28.9620   46.0760 C   0  0  0  0  0  0  0  0  0  0  0  0
   59.4450   27.9040   46.7720 C   0  0  0  0  0  0  0  0  0  0  0  0
   58.7630   26.6940   46.9160 C   0  0  0  0  0  0  0  0  0  0  0  0
   57.4770   26.5270   46.3650 C   0  0  0  0  0  0  0  0  0  0  0  0
   56.7490   25.2440   46.5220 C   0  0  0  0  0  0  0  0  0  0  0  0
   57.3250   24.2030   47.1840 N   0  0  0  0  0  0  0  0  0  0  0  0
   56.6850   23.0160   47.3450 C   0  0  0  0  0  0  0  0  0  0  0  0
   57.2610   22.0830   47.9660 O   0  0  0  0  0  0  0  0  0  0  0  0
   55.3950   22.8450   46.8180 C   0  0  0  0  0  0  0  0  0  0  0  0
   54.6780   21.6430   46.9490 C   0  0  0  0  0  0  0  0  0  0  0  0
   53.3940   21.5280   46.4030 C   0  0  0  0  0  0  0  0  0  0  0  0
   52.6920   20.3360   46.5370 O   0  0  0  0  0  0  0  0  0  0  0  0
   52.8170   22.6110   45.7250 C   0  0  0  0  0  0  0  0  0  0  0  0
   51.5370   22.4850   45.1850 O   0  0  0  0  0  0  0  0  0  0  0  0
   53.5280   23.8120   45.5910 C   0  0  0  0  0  0  0  0  0  0  0  0
   54.8120   23.9320   46.1350 C   0  0  0  0  0  0  0  0  0  0  0  0
   55.4990   25.0960   46.0040 N   0  0  0  0  0  0  0  0  0  0  0  0
   56.8960   27.6030   45.6650 C   0  0  0  0  0  0  0  0  0  0  0  0
   54.8380   29.3480   45.3540 H   0  0  0  0  0  0  0  0  0  0  0  0
   59.3978   29.9144   45.9681 H   0  0  0  0  0  0  0  0  0  0  0  0
   60.4477   28.0237   47.2083 H   0  0  0  0  0  0  0  0  0  0  0  0
   59.2336   25.8644   47.4641 H   0  0  0  0  0  0  0  0  0  0  0  0
   55.1266   20.7913   47.4814 H   0  0  0  0  0  0  0  0  0  0  0  0
   50.9710   21.6620   45.3520 H   0  0  0  0  0  0  0  0  0  0  0  0
   53.0760   24.6612   45.0575 H   0  0  0  0  0  0  0  0  0  0  0  0
   55.8912   27.4909   45.2316 H   0  0  0  0  0  0  0  0  0  0  0  0
  1  2  1  0
  2  3  2  0
  2  4  2  0
  2  5  1  0
  5  6  2  0
  6  7  1  0
  7  8  2  0
  8  9  1  0
  9 10  1  0
 10 11  2  0
 11 12  1  0
 12 13  2  0
 12 14  1  0
 14 15  2  0
 15 16  1  0
 16 17  1  0
 16 18  2  0
 18 19  1  0
 18 20  1  0
 20 21  2  0
 21 22  1  0
  9 23  2  0
 23  5  1  0
 22 10  1  0
 21 14  1  0
  1 24  1  0
  6 25  1  0
  7 26  1  0
  8 27  1  0
 15 28  1  0
 19 29  1  0
 20 30  1  0
 23 31  1  0
M  CHG  3   1  -1  17  -1  22  -1
M  END
>  <UniqueID>  (75) 
73

>  <SMILES>  (75) 
[NH-]S(=O)(=O)c1cccc(-c2nc(=O)c3cc([O-])c(O)cc3[n-]2)c1

>  <Energy>  (75) 
39.73317276733217

>  <Genealogy>  (75) 
[NH-]S(=O)(=O)c1cccc(-c2nc(=O)c3cc([O-])c(O)cc3[n-]2)c1 (protonated)
[NH-]S(=O)(=O)c1cccc(-c2nc(=O)c3cc([O-])c(O)cc3[n-]2)c1 (3D coordinates assigned)
[NH-]S(=O)(=O)c1cccc(-c2nc(=O)c3cc([O-])c(O)cc3[n-]2)c1 (optimized conformer: 39.73317276733217 kcal/mol)

>  <smiles>  (75) 
NS(=O)(=O)c1cccc(-c2nc(=O)c3cc(O)c(O)cc3[nH]2)c1

>  <score_type>  (75) 
oracle

>  <origin>  (75) 
adg

>  <m_score__min__energy>  (75) 
-12.710000000000001

>  <m_primary>  (75) 
energy

$$$$
75:0
     RDKit          3D

 43 45  0  0  0  0  0  0  0  0999 V2000
   55.2400   29.4100   44.8380 O   0  0  0  0  0  0  0  0  0  0  0  0
   56.2470   30.0090   44.3740 C   0  0  0  0  0  0  0  0  0  0  0  0
   56.4170   31.4250   44.5540 N   0  0  0  0  0  0  0  0  0  0  0  0
   57.3540   32.0240   45.2290 C   0  0  0  0  0  0  0  0  0  0  0  0
   58.0970   31.2920   46.1630 C   0  0  0  0  0  0  0  0  0  0  0  0
   59.1080   31.9270   46.8880 C   0  0  0  0  0  0  0  0  0  0  0  0
   59.3680   33.2820   46.6770 C   0  0  0  0  0  0  0  0  0  0  0  0
   60.7480   34.1660   47.6600 Br  0  0  0  0  0  0  0  0  0  0  0  0
   58.6080   33.9850   45.7380 C   0  0  0  0  0  0  0  0  0  0  0  0
   57.6300   33.3470   45.0420 N   0  0  0  0  0  0  0  0  0  0  0  0
   57.2310   29.2570   43.6600 N   0  0  0  0  0  0  0  0  0  0  0  0
   58.6110   29.1050   44.1070 C   0  0  0  0  0  0  0  0  0  0  0  0
   58.6990   28.0640   45.1850 C   0  0  0  0  0  0  0  0  0  0  0  0
   59.9110   27.8020   45.8400 C   0  0  0  0  0  0  0  0  0  0  0  0
   59.9620   26.8010   46.8090 C   0  0  0  0  0  0  0  0  0  0  0  0
   58.8110   26.0790   47.1270 C   0  0  0  0  0  0  0  0  0  0  0  0
   57.6070   26.3800   46.4730 C   0  0  0  0  0  0  0  0  0  0  0  0
   56.3730   25.6260   46.7540 C   0  0  0  0  0  0  0  0  0  0  0  0
   56.4040   24.7140   47.6190 O   0  0  0  0  0  0  0  0  0  0  0  0
   55.1500   25.8580   46.0420 N   0  0  0  0  0  0  0  0  0  0  0  0
   54.3010   24.8160   45.4760 C   0  0  0  0  0  0  0  0  0  0  0  0
   55.1640   23.7780   44.8180 C   0  0  0  0  0  0  0  0  0  0  0  0
   55.2770   22.4960   45.3780 C   0  0  0  0  0  0  0  0  0  0  0  0
   56.0530   21.5180   44.7470 C   0  0  0  0  0  0  0  0  0  0  0  0
   56.7120   21.8120   43.5490 C   0  0  0  0  0  0  0  0  0  0  0  0
   57.4620   20.8620   42.9380 F   0  0  0  0  0  0  0  0  0  0  0  0
   56.5920   23.0830   42.9790 C   0  0  0  0  0  0  0  0  0  0  0  0
   55.8170   24.0620   43.6070 C   0  0  0  0  0  0  0  0  0  0  0  0
   57.5900   27.3440   45.5120 N   0  0  0  0  0  0  0  0  0  0  0  0
   57.8861   30.2246   46.3247 H   0  0  0  0  0  0  0  0  0  0  0  0
   59.6979   31.3605   47.6236 H   0  0  0  0  0  0  0  0  0  0  0  0
   58.8011   35.0536   45.5623 H   0  0  0  0  0  0  0  0  0  0  0  0
   59.2364   28.7990   43.2554 H   0  0  0  0  0  0  0  0  0  0  0  0
   58.9644   30.0661   44.5087 H   0  0  0  0  0  0  0  0  0  0  0  0
   60.8128   28.3808   45.5916 H   0  0  0  0  0  0  0  0  0  0  0  0
   60.9093   26.5804   47.3227 H   0  0  0  0  0  0  0  0  0  0  0  0
   58.8474   25.2812   47.8835 H   0  0  0  0  0  0  0  0  0  0  0  0
   53.7093   24.3485   46.2768 H   0  0  0  0  0  0  0  0  0  0  0  0
   53.6216   25.2571   44.7318 H   0  0  0  0  0  0  0  0  0  0  0  0
   54.7536   22.2595   46.3162 H   0  0  0  0  0  0  0  0  0  0  0  0
   56.1450   20.5169   45.1934 H   0  0  0  0  0  0  0  0  0  0  0  0
   57.1081   23.3128   42.0352 H   0  0  0  0  0  0  0  0  0  0  0  0
   55.7180   25.0583   43.1515 H   0  0  0  0  0  0  0  0  0  0  0  0
  1  2  2  0
  2  3  1  0
  3  4  2  3
  4  5  1  0
  5  6  2  0
  6  7  1  0
  7  8  1  0
  7  9  2  0
  9 10  1  0
  2 11  1  0
 11 12  1  0
 12 13  1  0
 13 14  2  0
 14 15  1  0
 15 16  2  0
 16 17  1  0
 17 18  1  0
 18 19  2  0
 18 20  1  0
 20 21  1  0
 21 22  1  0
 22 23  2  0
 23 24  1  0
 24 25  2  0
 25 26  1  0
 25 27  1  0
 27 28  2  0
 17 29  2  0
 10  4  1  0
 29 13  1  0
 28 22  1  0
  5 30  1  0
  6 31  1  0
  9 32  1  0
 12 33  1  0
 12 34  1  0
 14 35  1  0
 15 36  1  0
 16 37  1  0
 21 38  1  0
 21 39  1  0
 23 40  1  0
 24 41  1  0
 27 42  1  0
 28 43  1  0
M  CHG  3  10  -1  11  -1  20  -1
M  END
>  <UniqueID>  (76) 
74

>  <SMILES>  (76) 
O=C(N=c1ccc(Br)c[n-]1)[N-]Cc1cccc(C(=O)[N-]Cc2ccc(F)cc2)n1

>  <Energy>  (76) 
48.81527791381846

>  <Genealogy>  (76) 
O=C(N=c1ccc(Br)c[n-]1)[N-]Cc1cccc(C(=O)[N-]Cc2ccc(F)cc2)n1 (protonated)
O=C(N=c1ccc(Br)c[n-]1)[N-]Cc1cccc(C(=O)[N-]Cc2ccc(F)cc2)n1 (3D coordinates assigned)
O=C(N=c1ccc(Br)c[n-]1)[N-]Cc1cccc(C(=O)[N-]Cc2ccc(F)cc2)n1 (optimized conformer: 48.81527791381846 kcal/mol)

>  <smiles>  (76) 
O=C(N=c1ccc(Br)c[nH]1)NCc1cccc(C(=O)NCc2ccc(F)cc2)n1

>  <score_type>  (76) 
oracle

>  <origin>  (76) 
adg

>  <m_score__min__energy>  (76) 
-12.82

>  <m_primary>  (76) 
energy

$$$$
76:0
     RDKit          3D

 45 47  0  0  0  0  0  0  0  0999 V2000
   57.2026   20.9122   43.4689 H   0  0  0  0  0  0  0  0  0  0  0  0
   57.1900   21.8510   44.0420 C   0  0  0  0  0  0  0  0  0  0  0  0
   56.9240   23.0600   43.3950 C   0  0  0  0  0  0  0  0  0  0  0  0
   56.7223   23.0722   42.3137 H   0  0  0  0  0  0  0  0  0  0  0  0
   56.9140   24.2540   44.1210 C   0  0  0  0  0  0  0  0  0  0  0  0
   56.6877   25.2024   43.6117 H   0  0  0  0  0  0  0  0  0  0  0  0
   57.1920   24.2490   45.5000 C   0  0  0  0  0  0  0  0  0  0  0  0
   57.1940   25.4610   46.2730 N   0  0  0  0  0  0  0  0  0  0  0  0
   56.4030   26.6290   46.0150 C   0  0  0  0  0  0  0  0  0  0  0  0
   55.1490   26.5320   46.0480 O   0  0  0  0  0  0  0  0  0  0  0  0
   57.0120   27.9440   45.7430 C   0  0  0  0  0  0  0  0  0  0  0  0
   58.5560   28.3920   46.2080 S   0  0  0  0  0  0  0  0  0  0  0  0
   58.4400   29.9450   45.5790 C   0  0  0  0  0  0  0  0  0  0  0  0
   59.4610   30.7580   45.6520 N   0  0  0  0  0  0  0  0  0  0  0  0
   59.6800   32.3570   46.2960 S   0  0  0  0  0  0  0  0  0  0  0  0
   59.6020   33.3780   45.1960 O   0  0  0  0  0  0  0  0  0  0  0  0
   58.5640   32.6220   47.2660 O   0  0  0  0  0  0  0  0  0  0  0  0
   61.1980   32.4800   47.1840 C   0  0  0  0  0  0  0  0  0  0  0  0
   61.4760   31.5800   48.2200 C   0  0  0  0  0  0  0  0  0  0  0  0
   60.7508   30.7921   48.4714 H   0  0  0  0  0  0  0  0  0  0  0  0
   62.6730   31.6800   48.9360 C   0  0  0  0  0  0  0  0  0  0  0  0
   62.8914   30.9626   49.7408 H   0  0  0  0  0  0  0  0  0  0  0  0
   63.5970   32.6920   48.6320 C   0  0  0  0  0  0  0  0  0  0  0  0
   64.8940   32.7830   49.3790 C   0  0  0  0  0  0  0  0  0  0  0  0
   64.6958   32.7691   50.4609 H   0  0  0  0  0  0  0  0  0  0  0  0
   65.5317   31.9274   49.1120 H   0  0  0  0  0  0  0  0  0  0  0  0
   65.4060   33.7193   49.1120 H   0  0  0  0  0  0  0  0  0  0  0  0
   63.3260   33.5780   47.5780 C   0  0  0  0  0  0  0  0  0  0  0  0
   64.0561   34.3582   47.3167 H   0  0  0  0  0  0  0  0  0  0  0  0
   62.1320   33.4730   46.8590 C   0  0  0  0  0  0  0  0  0  0  0  0
   61.9248   34.1721   46.0354 H   0  0  0  0  0  0  0  0  0  0  0  0
   57.2160   30.1530   44.9930 N   0  0  0  0  0  0  0  0  0  0  0  0
   56.6270   31.4120   44.5130 C   0  0  0  0  0  0  0  0  0  0  0  0
   56.6393   32.1520   45.3268 H   0  0  0  0  0  0  0  0  0  0  0  0
   55.5922   31.2234   44.1912 H   0  0  0  0  0  0  0  0  0  0  0  0
   57.4250   31.9520   43.3290 C   0  0  0  0  0  0  0  0  0  0  0  0
   58.2829   32.5325   43.6992 H   0  0  0  0  0  0  0  0  0  0  0  0
   57.7869   31.1125   42.7173 H   0  0  0  0  0  0  0  0  0  0  0  0
   56.7802   32.6001   42.7173 H   0  0  0  0  0  0  0  0  0  0  0  0
   56.4370   29.0270   45.0830 C   0  0  0  0  0  0  0  0  0  0  0  0
   55.1530   28.9700   44.5450 O   0  0  0  0  0  0  0  0  0  0  0  0
   57.4370   23.0260   46.1460 C   0  0  0  0  0  0  0  0  0  0  0  0
   57.6870   22.9950   47.5140 O   0  0  0  0  0  0  0  0  0  0  0  0
   57.4400   21.8330   45.4160 C   0  0  0  0  0  0  0  0  0  0  0  0
   57.6397   20.8785   45.9251 H   0  0  0  0  0  0  0  0  0  0  0  0
  1  2  1  0
  2  3  2  0
  3  4  1  0
  3  5  1  0
  5  6  1  0
  5  7  2  0
  7  8  1  0
  8  9  1  0
  9 10  2  0
  9 11  1  0
 11 12  1  0
 12 13  1  0
 13 14  2  0
 14 15  1  0
 15 16  2  0
 15 17  2  0
 15 18  1  0
 18 19  2  0
 19 20  1  0
 19 21  1  0
 21 22  1  0
 21 23  2  0
 23 24  1  0
 24 25  1  0
 24 26  1  0
 24 27  1  0
 23 28  1  0
 28 29  1  0
 28 30  2  0
 30 31  1  0
 13 32  1  0
 32 33  1  0
 33 34  1  0
 33 35  1  0
 33 36  1  0
 36 37  1  0
 36 38  1  0
 36 39  1  0
 32 40  1  0
 40 41  1  0
  7 42  1  0
 42 43  1  0
 42 44  2  0
 44 45  1  0
 44  2  1  0
 40 11  2  0
 30 18  1  0
M  CHG  3   8  -1  41  -1  43  -1
M  END
>  <UniqueID>  (77) 
75

>  <SMILES>  (77) 
CCn1c([O-])c(C(=O)[N-]c2ccccc2[O-])s/c1=N/S(=O)(=O)c1ccc(C)cc1

>  <Energy>  (77) 
97.84251941665175

>  <Genealogy>  (77) 
CCn1c([O-])c(C(=O)[N-]c2ccccc2[O-])sc1=NS(=O)(=O)c1ccc(C)cc1 (protonated)
CCn1c([O-])c(C(=O)[N-]c2ccccc2[O-])s/c1=N/S(=O)(=O)c1ccc(C)cc1 (cis-trans isomerization)
CCn1c([O-])c(C(=O)[N-]c2ccccc2[O-])s/c1=N/S(=O)(=O)c1ccc(C)cc1 (3D coordinates assigned)
CCn1c([O-])c(C(=O)[N-]c2ccccc2[O-])s/c1=N/S(=O)(=O)c1ccc(C)cc1 (optimized conformer: 97.84251941665175 kcal/mol)

>  <smiles>  (77) 
CCn1c(O)c(C(=O)Nc2ccccc2O)sc1=NS(=O)(=O)c1ccc(C)cc1

>  <score_type>  (77) 
oracle

>  <origin>  (77) 
adg

>  <m_score__min__energy>  (77) 
-15.869999999999999

>  <m_primary>  (77) 
energy

$$$$
77:0
     RDKit          3D

 39 40  0  0  0  0  0  0  0  0999 V2000
   58.9860   29.3670   48.3550 C   0  0  0  0  0  0  0  0  0  0  0  0
   59.8380   30.5260   47.9300 C   0  0  0  0  0  0  0  0  0  0  0  0
   61.1880   30.5680   48.2960 C   0  0  0  0  0  0  0  0  0  0  0  0
   61.9950   31.6330   47.8920 C   0  0  0  0  0  0  0  0  0  0  0  0
   61.4650   32.6790   47.1190 C   0  0  0  0  0  0  0  0  0  0  0  0
   62.3580   33.8060   46.6740 C   0  0  0  0  0  0  0  0  0  0  0  0
   60.0970   32.6490   46.7670 C   0  0  0  0  0  0  0  0  0  0  0  0
   59.3460   33.9610   45.7860 S   0  0  0  0  0  0  0  0  0  0  0  0
   58.5250   32.8360   44.5990 C   0  0  0  0  0  0  0  0  0  0  0  0
   57.1580   32.4200   45.0760 C   0  0  0  0  0  0  0  0  0  0  0  0
   56.4850   33.2270   45.7700 O   0  0  0  0  0  0  0  0  0  0  0  0
   56.6250   31.1130   44.8290 N   0  0  0  0  0  0  0  0  0  0  0  0
   57.3490   29.8790   44.9060 C   0  0  0  0  0  0  0  0  0  0  0  0
   58.6910   29.7970   44.5030 C   0  0  0  0  0  0  0  0  0  0  0  0
   59.3690   28.5760   44.5680 C   0  0  0  0  0  0  0  0  0  0  0  0
   58.7080   27.4310   45.0200 C   0  0  0  0  0  0  0  0  0  0  0  0
   57.3620   27.4990   45.4020 C   0  0  0  0  0  0  0  0  0  0  0  0
   56.5270   26.0510   45.9550 S   0  0  0  0  0  0  0  0  0  0  0  0
   54.8230   26.3360   46.0030 N   0  0  0  0  0  0  0  0  0  0  0  0
   56.8000   24.9120   45.0130 O   0  0  0  0  0  0  0  0  0  0  0  0
   57.0130   25.6880   47.3300 O   0  0  0  0  0  0  0  0  0  0  0  0
   56.6810   28.7230   45.3260 C   0  0  0  0  0  0  0  0  0  0  0  0
   59.3000   31.5670   47.1590 C   0  0  0  0  0  0  0  0  0  0  0  0
   58.9518   29.3204   49.4535 H   0  0  0  0  0  0  0  0  0  0  0  0
   57.9670   29.4973   47.9616 H   0  0  0  0  0  0  0  0  0  0  0  0
   59.4144   28.4333   47.9616 H   0  0  0  0  0  0  0  0  0  0  0  0
   61.6154   29.7578   48.9051 H   0  0  0  0  0  0  0  0  0  0  0  0
   63.0560   31.6532   48.1818 H   0  0  0  0  0  0  0  0  0  0  0  0
   62.7660   34.3208   47.5563 H   0  0  0  0  0  0  0  0  0  0  0  0
   63.1843   33.4026   46.0702 H   0  0  0  0  0  0  0  0  0  0  0  0
   61.7764   34.5182   46.0702 H   0  0  0  0  0  0  0  0  0  0  0  0
   58.4233   33.3510   43.6324 H   0  0  0  0  0  0  0  0  0  0  0  0
   59.1431   31.9313   44.5020 H   0  0  0  0  0  0  0  0  0  0  0  0
   59.2100   30.6946   44.1355 H   0  0  0  0  0  0  0  0  0  0  0  0
   60.4242   28.5167   44.2629 H   0  0  0  0  0  0  0  0  0  0  0  0
   59.2462   26.4733   45.0760 H   0  0  0  0  0  0  0  0  0  0  0  0
   54.6570   27.0760   46.7220 H   0  0  0  0  0  0  0  0  0  0  0  0
   55.6164   28.7746   45.5979 H   0  0  0  0  0  0  0  0  0  0  0  0
   58.2421   31.5328   46.8597 H   0  0  0  0  0  0  0  0  0  0  0  0
  1  2  1  0
  2  3  2  0
  3  4  1  0
  4  5  2  0
  5  6  1  0
  5  7  1  0
  7  8  1  0
  8  9  1  0
  9 10  1  0
 10 11  2  0
 10 12  1  0
 12 13  1  0
 13 14  2  0
 14 15  1  0
 15 16  2  0
 16 17  1  0
 17 18  1  0
 18 19  1  0
 18 20  2  0
 18 21  2  0
 17 22  2  0
  7 23  2  0
 23  2  1  0
 22 13  1  0
  1 24  1  0
  1 25  1  0
  1 26  1  0
  3 27  1  0
  4 28  1  0
  6 29  1  0
  6 30  1  0
  6 31  1  0
  9 32  1  0
  9 33  1  0
 14 34  1  0
 15 35  1  0
 16 36  1  0
 19 37  1  0
 22 38  1  0
 23 39  1  0
M  CHG  2  12  -1  19  -1
M  END
>  <UniqueID>  (78) 
76

>  <SMILES>  (78) 
Cc1ccc(C)c(SCC(=O)[N-]c2cccc(S([NH-])(=O)=O)c2)c1

>  <Energy>  (78) 
38.82118403642278

>  <Genealogy>  (78) 
Cc1ccc(C)c(SCC(=O)[N-]c2cccc(S([NH-])(=O)=O)c2)c1 (protonated)
Cc1ccc(C)c(SCC(=O)[N-]c2cccc(S([NH-])(=O)=O)c2)c1 (3D coordinates assigned)
Cc1ccc(C)c(SCC(=O)[N-]c2cccc(S([NH-])(=O)=O)c2)c1 (optimized conformer: 38.82118403642278 kcal/mol)

>  <smiles>  (78) 
Cc1ccc(C)c(SCC(=O)Nc2cccc(S(N)(=O)=O)c2)c1

>  <score_type>  (78) 
oracle

>  <origin>  (78) 
adg

>  <m_score__min__energy>  (78) 
-12.779999999999999

>  <m_primary>  (78) 
energy

$$$$
78:0
     RDKit          3D

 25 26  0  0  0  0  0  0  0  0999 V2000
   57.5975   28.0265   47.2243 H   0  0  0  0  0  0  0  0  0  0  0  0
   58.0530   27.1920   46.6710 C   0  0  0  0  0  0  0  0  0  0  0  0
   59.2170   27.4270   46.0470 C   0  0  0  0  0  0  0  0  0  0  0  0
   60.0694   26.7840   46.3116 H   0  0  0  0  0  0  0  0  0  0  0  0
   59.4550   28.4990   45.0130 C   0  0  0  0  0  0  0  0  0  0  0  0
   59.6409   28.0190   44.0409 H   0  0  0  0  0  0  0  0  0  0  0  0
   60.3213   29.0949   45.3363 H   0  0  0  0  0  0  0  0  0  0  0  0
   58.2740   29.4310   44.8780 C   0  0  0  0  0  0  0  0  0  0  0  0
   58.4480   30.8160   45.0300 C   0  0  0  0  0  0  0  0  0  0  0  0
   59.4376   31.2248   45.2823 H   0  0  0  0  0  0  0  0  0  0  0  0
   57.3570   31.6720   44.8590 C   0  0  0  0  0  0  0  0  0  0  0  0
   57.4837   32.7563   44.9943 H   0  0  0  0  0  0  0  0  0  0  0  0
   56.1400   31.1680   44.5260 N   0  0  0  0  0  0  0  0  0  0  0  0
   55.9450   29.8360   44.3450 C   0  0  0  0  0  0  0  0  0  0  0  0
   54.8040   29.4080   44.0270 O   0  0  0  0  0  0  0  0  0  0  0  0
   57.0090   28.9440   44.5070 C   0  0  0  0  0  0  0  0  0  0  0  0
   56.8570   27.8667   44.3450 H   0  0  0  0  0  0  0  0  0  0  0  0
   57.3360   25.9040   46.6740 C   0  0  0  0  0  0  0  0  0  0  0  0
   55.9990   25.7240   46.4050 C   0  0  0  0  0  0  0  0  0  0  0  0
   55.1130   26.7140   45.9980 O   0  0  0  0  0  0  0  0  0  0  0  0
   55.6450   24.4380   46.5940 N   0  0  0  0  0  0  0  0  0  0  0  0
   56.8010   23.8690   47.0000 C   0  0  0  0  0  0  0  0  0  0  0  0
   56.8920   22.6510   47.3040 O   0  0  0  0  0  0  0  0  0  0  0  0
   57.8410   24.7230   47.0680 N   0  0  0  0  0  0  0  0  0  0  0  0
   58.7990   24.5170   47.4220 H   0  0  0  0  0  0  0  0  0  0  0  0
  1  2  1  0
  2  3  2  0
  3  4  1  0
  3  5  1  0
  5  6  1  0
  5  7  1  0
  5  8  1  0
  8  9  1  0
  9 10  1  0
  9 11  2  0
 11 12  1  0
 11 13  1  0
 13 14  1  0
 14 15  2  0
 14 16  1  0
 16 17  1  0
  2 18  1  0
 18 19  2  0
 19 20  1  0
 19 21  1  0
 21 22  1  0
 22 23  2  0
 22 24  1  0
 24 25  1  0
 16  8  2  0
 24 18  1  0
M  CHG  3  13  -1  20  -1  21  -1
M  END
>  <UniqueID>  (79) 
77

>  <SMILES>  (79) 
O=c1cc(C/C=C\c2[nH]c(=O)[n-]c2[O-])cc[n-]1

>  <Energy>  (79) 
61.808627729572606

>  <Genealogy>  (79) 
O=c1cc(CC=Cc2[nH]c(=O)[n-]c2[O-])cc[n-]1 (protonated)
O=c1cc(C/C=C\c2[nH]c(=O)[n-]c2[O-])cc[n-]1 (cis-trans isomerization)
O=c1cc(C/C=C\c2[nH]c(=O)[n-]c2[O-])cc[n-]1 (3D coordinates assigned)
O=c1cc(C/C=C\c2[nH]c(=O)[n-]c2[O-])cc[n-]1 (optimized conformer: 61.808627729572606 kcal/mol)

>  <smiles>  (79) 
O=c1cc(CC=Cc2[nH]c(=O)[nH]c2O)cc[nH]1

>  <score_type>  (79) 
oracle

>  <origin>  (79) 
adg

>  <m_score__min__energy>  (79) 
-13.359999999999999

>  <m_primary>  (79) 
energy

$$$$
79:0
     RDKit          3D

 46 48  0  0  0  0  0  0  0  0999 V2000
   57.5250   28.0460   43.6660 N   0  0  0  0  0  0  0  0  0  0  0  0
   56.7210   28.4920   45.1310 S   0  0  0  0  0  0  0  0  0  0  0  0
   55.8170   29.6630   44.8740 O   0  0  0  0  0  0  0  0  0  0  0  0
   55.8930   27.3370   45.6200 O   0  0  0  0  0  0  0  0  0  0  0  0
   57.9230   28.9350   46.3380 C   0  0  0  0  0  0  0  0  0  0  0  0
   58.1730   28.1070   47.4380 C   0  0  0  0  0  0  0  0  0  0  0  0
   59.1500   28.4570   48.3760 C   0  0  0  0  0  0  0  0  0  0  0  0
   59.9010   29.6370   48.2200 C   0  0  0  0  0  0  0  0  0  0  0  0
   60.9780   29.9880   49.1880 C   0  0  0  0  0  0  0  0  0  0  0  0
   61.0250   29.3900   50.4610 C   0  0  0  0  0  0  0  0  0  0  0  0
   62.0550   29.7010   51.3520 C   0  0  0  0  0  0  0  0  0  0  0  0
   63.0450   30.6150   50.9920 C   0  0  0  0  0  0  0  0  0  0  0  0
   63.0080   31.2370   49.7350 C   0  0  0  0  0  0  0  0  0  0  0  0
   64.1170   32.1620   49.3090 C   0  0  0  0  0  0  0  0  0  0  0  0
   63.9360   32.5060   47.8660 C   0  0  0  0  0  0  0  0  0  0  0  0
   64.1440   31.6350   46.9790 O   0  0  0  0  0  0  0  0  0  0  0  0
   63.6330   33.8560   47.5000 N   0  0  0  0  0  0  0  0  0  0  0  0
   62.7500   34.1810   46.3870 C   0  0  0  0  0  0  0  0  0  0  0  0
   61.3230   33.9560   46.8060 C   0  0  0  0  0  0  0  0  0  0  0  0
   60.9750   34.0020   48.1660 C   0  0  0  0  0  0  0  0  0  0  0  0
   59.6390   33.8700   48.5560 C   0  0  0  0  0  0  0  0  0  0  0  0
   58.6400   33.7070   47.5920 C   0  0  0  0  0  0  0  0  0  0  0  0
   58.9740   33.6820   46.2340 C   0  0  0  0  0  0  0  0  0  0  0  0
   57.6040   33.4890   44.9160 Br  0  0  0  0  0  0  0  0  0  0  0  0
   60.3120   33.8080   45.8410 C   0  0  0  0  0  0  0  0  0  0  0  0
   61.9810   30.9110   48.8340 C   0  0  0  0  0  0  0  0  0  0  0  0
   59.6340   30.4680   47.1150 C   0  0  0  0  0  0  0  0  0  0  0  0
   58.6560   30.1160   46.1830 C   0  0  0  0  0  0  0  0  0  0  0  0
   56.8290   27.5370   43.0740 H   0  0  0  0  0  0  0  0  0  0  0  0
   57.7630   28.9300   43.1640 H   0  0  0  0  0  0  0  0  0  0  0  0
   57.5991   27.1773   47.5656 H   0  0  0  0  0  0  0  0  0  0  0  0
   59.3328   27.8046   49.2426 H   0  0  0  0  0  0  0  0  0  0  0  0
   60.2452   28.6726   50.7565 H   0  0  0  0  0  0  0  0  0  0  0  0
   62.0854   29.2228   52.3421 H   0  0  0  0  0  0  0  0  0  0  0  0
   63.8574   30.8489   51.6958 H   0  0  0  0  0  0  0  0  0  0  0  0
   64.0843   33.0801   49.9140 H   0  0  0  0  0  0  0  0  0  0  0  0
   65.0892   31.6684   49.4544 H   0  0  0  0  0  0  0  0  0  0  0  0
   62.8883   35.2347   46.1031 H   0  0  0  0  0  0  0  0  0  0  0  0
   62.9882   33.5386   45.5264 H   0  0  0  0  0  0  0  0  0  0  0  0
   61.7566   34.1424   48.9271 H   0  0  0  0  0  0  0  0  0  0  0  0
   59.3735   33.8944   49.6232 H   0  0  0  0  0  0  0  0  0  0  0  0
   57.5901   33.5983   47.9017 H   0  0  0  0  0  0  0  0  0  0  0  0
   60.5729   33.7911   44.7725 H   0  0  0  0  0  0  0  0  0  0  0  0
   61.9599   31.3822   47.8402 H   0  0  0  0  0  0  0  0  0  0  0  0
   60.2005   31.4019   46.9851 H   0  0  0  0  0  0  0  0  0  0  0  0
   58.4607   30.7715   45.3215 H   0  0  0  0  0  0  0  0  0  0  0  0
  1  2  1  0
  2  3  2  0
  2  4  2  0
  2  5  1  0
  5  6  2  0
  6  7  1  0
  7  8  2  0
  8  9  1  0
  9 10  2  0
 10 11  1  0
 11 12  2  0
 12 13  1  0
 13 14  1  0
 14 15  1  0
 15 16  2  0
 15 17  1  0
 17 18  1  0
 18 19  1  0
 19 20  2  0
 20 21  1  0
 21 22  2  0
 22 23  1  0
 23 24  1  0
 23 25  2  0
 13 26  2  0
  8 27  1  0
 27 28  2  0
 28  5  1  0
 26  9  1  0
 25 19  1  0
  1 29  1  0
  1 30  1  0
  6 31  1  0
  7 32  1  0
 10 33  1  0
 11 34  1  0
 12 35  1  0
 14 36  1  0
 14 37  1  0
 18 38  1  0
 18 39  1  0
 20 40  1  0
 21 41  1  0
 22 42  1  0
 25 43  1  0
 26 44  1  0
 27 45  1  0
 28 46  1  0
M  CHG  1  17  -1
M  END
>  <UniqueID>  (80) 
78

>  <SMILES>  (80) 
NS(=O)(=O)c1ccc(-c2cccc(CC(=O)[N-]Cc3cccc(Br)c3)c2)cc1

>  <Energy>  (80) 
43.710666417070215

>  <Genealogy>  (80) 
NS(=O)(=O)c1ccc(-c2cccc(CC(=O)[N-]Cc3cccc(Br)c3)c2)cc1 (protonated)
NS(=O)(=O)c1ccc(-c2cccc(CC(=O)[N-]Cc3cccc(Br)c3)c2)cc1 (3D coordinates assigned)
NS(=O)(=O)c1ccc(-c2cccc(CC(=O)[N-]Cc3cccc(Br)c3)c2)cc1 (optimized conformer: 43.710666417070215 kcal/mol)

>  <smiles>  (80) 
NS(=O)(=O)c1ccc(-c2cccc(CC(=O)NCc3cccc(Br)c3)c2)cc1

>  <score_type>  (80) 
oracle

>  <origin>  (80) 
adg

>  <m_score__min__energy>  (80) 
-11.529999999999999

>  <m_primary>  (80) 
energy

$$$$
80:0
     RDKit          3D

 36 38  0  0  0  0  0  0  0  0999 V2000
   60.2770   28.6020   48.6530 C   0  0  0  0  0  0  0  0  0  0  0  0
   59.4550   28.8600   47.4120 C   0  0  0  0  0  0  0  0  0  0  0  0
   59.0560   27.7220   46.6900 C   0  0  0  0  0  0  0  0  0  0  0  0
   58.1450   27.8090   45.6390 C   0  0  0  0  0  0  0  0  0  0  0  0
   57.7530   26.5760   44.8660 C   0  0  0  0  0  0  0  0  0  0  0  0
   57.2800   25.4900   45.8060 C   0  0  0  0  0  0  0  0  0  0  0  0
   56.0180   25.5660   46.4240 C   0  0  0  0  0  0  0  0  0  0  0  0
   55.1600   26.6280   46.1540 O   0  0  0  0  0  0  0  0  0  0  0  0
   55.6290   24.5970   47.2930 N   0  0  0  0  0  0  0  0  0  0  0  0
   56.4380   23.5480   47.5850 C   0  0  0  0  0  0  0  0  0  0  0  0
   55.9400   22.4010   48.6330 S   0  0  0  0  0  0  0  0  0  0  0  0
   57.6620   23.4530   47.0070 N   0  0  0  0  0  0  0  0  0  0  0  0
   58.1020   24.3940   46.1320 C   0  0  0  0  0  0  0  0  0  0  0  0
   59.2460   24.2700   45.6210 O   0  0  0  0  0  0  0  0  0  0  0  0
   57.6050   29.0490   45.3040 C   0  0  0  0  0  0  0  0  0  0  0  0
   58.0030   30.2210   45.9720 C   0  0  0  0  0  0  0  0  0  0  0  0
   58.9980   30.1570   46.9990 C   0  0  0  0  0  0  0  0  0  0  0  0
   59.4640   31.3990   47.5380 C   0  0  0  0  0  0  0  0  0  0  0  0
   60.6870   31.5490   48.4100 C   0  0  0  0  0  0  0  0  0  0  0  0
   58.8180   32.5870   47.1720 C   0  0  0  0  0  0  0  0  0  0  0  0
   57.8040   32.5800   46.2260 C   0  0  0  0  0  0  0  0  0  0  0  0
   57.2420   33.6630   45.9090 O   0  0  0  0  0  0  0  0  0  0  0  0
   57.4320   31.4190   45.6280 N   0  0  0  0  0  0  0  0  0  0  0  0
   56.4480   31.4690   44.6610 O   0  0  0  0  0  0  0  0  0  0  0  0
   59.6637   28.7945   49.5456 H   0  0  0  0  0  0  0  0  0  0  0  0
   60.6140   27.5549   48.6585 H   0  0  0  0  0  0  0  0  0  0  0  0
   61.1519   29.2687   48.6585 H   0  0  0  0  0  0  0  0  0  0  0  0
   59.4723   26.7404   46.9607 H   0  0  0  0  0  0  0  0  0  0  0  0
   56.9416   26.8292   44.1678 H   0  0  0  0  0  0  0  0  0  0  0  0
   58.6297   26.2098   44.3116 H   0  0  0  0  0  0  0  0  0  0  0  0
   55.1550   27.4560   46.7390 H   0  0  0  0  0  0  0  0  0  0  0  0
   56.8540   29.1125   44.5028 H   0  0  0  0  0  0  0  0  0  0  0  0
   60.3894   31.5125   49.4684 H   0  0  0  0  0  0  0  0  0  0  0  0
   61.3907   30.7304   48.1985 H   0  0  0  0  0  0  0  0  0  0  0  0
   61.1721   32.5134   48.1985 H   0  0  0  0  0  0  0  0  0  0  0  0
   59.1184   33.5360   47.6402 H   0  0  0  0  0  0  0  0  0  0  0  0
  1  2  1  0
  2  3  2  0
  3  4  1  0
  4  5  1  0
  5  6  1  0
  6  7  2  0
  7  8  1  0
  7  9  1  0
  9 10  1  0
 10 11  2  0
 10 12  1  0
 12 13  1  0
 13 14  2  0
  4 15  2  0
 15 16  1  0
 16 17  2  0
 17 18  1  0
 18 19  1  0
 18 20  2  0
 20 21  1  0
 21 22  2  0
 21 23  1  0
 23 24  1  0
 17  2  1  0
 13  6  1  0
 23 16  1  0
  1 25  1  0
  1 26  1  0
  1 27  1  0
  3 28  1  0
  5 29  1  0
  5 30  1  0
  8 31  1  0
 15 32  1  0
 19 33  1  0
 19 34  1  0
 19 35  1  0
 20 36  1  0
M  CHG  3   9  -1  12  -1  24  -1
M  END
>  <UniqueID>  (81) 
79

>  <SMILES>  (81) 
Cc1cc(Cc2c(O)[n-]c(=S)[n-]c2=O)cc2c1c(C)cc(=O)n2[O-]

>  <Energy>  (81) 
57.07298767381166

>  <Genealogy>  (81) 
Cc1cc(Cc2c(O)[n-]c(=S)[n-]c2=O)cc2c1c(C)cc(=O)n2[O-] (protonated)
Cc1cc(Cc2c(O)[n-]c(=S)[n-]c2=O)cc2c1c(C)cc(=O)n2[O-] (3D coordinates assigned)
Cc1cc(Cc2c(O)[n-]c(=S)[n-]c2=O)cc2c1c(C)cc(=O)n2[O-] (optimized conformer: 57.07298767381166 kcal/mol)

>  <smiles>  (81) 
Cc1cc(Cc2c(O)[nH]c(=S)[nH]c2=O)cc2c1c(C)cc(=O)n2O

>  <score_type>  (81) 
oracle

>  <origin>  (81) 
adg

>  <m_score__min__energy>  (81) 
-14.02

>  <m_primary>  (81) 
energy

$$$$
81:0
     RDKit          3D

 32 33  0  0  0  0  0  0  0  0999 V2000
   57.4340   31.8800   42.2330 C   0  0  0  0  0  0  0  0  0  0  0  0
   56.8410   30.8600   42.8590 C   0  0  0  0  0  0  0  0  0  0  0  0
   56.5140   30.9120   44.3270 C   0  0  0  0  0  0  0  0  0  0  0  0
   57.3710   29.9820   45.0870 N   0  0  0  0  0  0  0  0  0  0  0  0
   56.8700   28.7830   45.5360 C   0  0  0  0  0  0  0  0  0  0  0  0
   55.5520   28.4310   45.2260 O   0  0  0  0  0  0  0  0  0  0  0  0
   57.6930   27.9090   46.2810 C   0  0  0  0  0  0  0  0  0  0  0  0
   57.1710   26.6560   46.8790 C   0  0  0  0  0  0  0  0  0  0  0  0
   57.7660   26.1530   47.8690 O   0  0  0  0  0  0  0  0  0  0  0  0
   56.0180   25.9820   46.3520 N   0  0  0  0  0  0  0  0  0  0  0  0
   56.0210   24.8250   45.5050 C   0  0  0  0  0  0  0  0  0  0  0  0
   54.8310   24.4500   44.8690 C   0  0  0  0  0  0  0  0  0  0  0  0
   54.7980   23.3280   44.0350 C   0  0  0  0  0  0  0  0  0  0  0  0
   55.9590   22.5800   43.8180 C   0  0  0  0  0  0  0  0  0  0  0  0
   55.9130   21.4640   42.9910 O   0  0  0  0  0  0  0  0  0  0  0  0
   57.1610   22.9630   44.4280 C   0  0  0  0  0  0  0  0  0  0  0  0
   58.6350   22.0490   44.1510 Cl  0  0  0  0  0  0  0  0  0  0  0  0
   57.1940   24.0890   45.2590 C   0  0  0  0  0  0  0  0  0  0  0  0
   59.0340   28.2700   46.4740 C   0  0  0  0  0  0  0  0  0  0  0  0
   59.8190   27.5240   47.1190 O   0  0  0  0  0  0  0  0  0  0  0  0
   59.4930   29.4460   45.9860 N   0  0  0  0  0  0  0  0  0  0  0  0
   58.6880   30.2980   45.3080 C   0  0  0  0  0  0  0  0  0  0  0  0
   59.1700   31.3830   44.8810 O   0  0  0  0  0  0  0  0  0  0  0  0
   57.6593   31.8098   41.1586 H   0  0  0  0  0  0  0  0  0  0  0  0
   57.6970   32.7902   42.7918 H   0  0  0  0  0  0  0  0  0  0  0  0
   56.5845   29.9570   42.2856 H   0  0  0  0  0  0  0  0  0  0  0  0
   56.6756   31.9354   44.6966 H   0  0  0  0  0  0  0  0  0  0  0  0
   55.4634   30.6169   44.4653 H   0  0  0  0  0  0  0  0  0  0  0  0
   55.1360   27.5450   45.4840 H   0  0  0  0  0  0  0  0  0  0  0  0
   53.9170   25.0414   45.0264 H   0  0  0  0  0  0  0  0  0  0  0  0
   53.8564   23.0333   43.5486 H   0  0  0  0  0  0  0  0  0  0  0  0
   58.1422   24.3998   45.7220 H   0  0  0  0  0  0  0  0  0  0  0  0
  1  2  2  0
  2  3  1  0
  3  4  1  0
  4  5  1  0
  5  6  1  0
  5  7  2  0
  7  8  1  0
  8  9  2  0
  8 10  1  0
 10 11  1  0
 11 12  2  0
 12 13  1  0
 13 14  2  0
 14 15  1  0
 14 16  1  0
 16 17  1  0
 16 18  2  0
  7 19  1  0
 19 20  2  0
 19 21  1  0
 21 22  1  0
 22 23  2  0
 22  4  1  0
 18 11  1  0
  1 24  1  0
  1 25  1  0
  2 26  1  0
  3 27  1  0
  3 28  1  0
  6 29  1  0
 12 30  1  0
 13 31  1  0
 18 32  1  0
M  CHG  3  10  -1  15  -1  21  -1
M  END
>  <UniqueID>  (82) 
80

>  <SMILES>  (82) 
C=CCn1c(O)c(C(=O)[N-]c2ccc([O-])c(Cl)c2)c(=O)[n-]c1=O

>  <Energy>  (82) 
44.79238434260414

>  <Genealogy>  (82) 
C=CCn1c(O)c(C(=O)[N-]c2ccc([O-])c(Cl)c2)c(=O)[n-]c1=O (protonated)
C=CCn1c(O)c(C(=O)[N-]c2ccc([O-])c(Cl)c2)c(=O)[n-]c1=O (3D coordinates assigned)
C=CCn1c(O)c(C(=O)[N-]c2ccc([O-])c(Cl)c2)c(=O)[n-]c1=O (optimized conformer: 44.79238434260414 kcal/mol)

>  <smiles>  (82) 
C=CCn1c(O)c(C(=O)Nc2ccc(O)c(Cl)c2)c(=O)[nH]c1=O

>  <score_type>  (82) 
oracle

>  <origin>  (82) 
adg

>  <m_score__min__energy>  (82) 
-11.83

>  <m_primary>  (82) 
energy

$$$$
82:0
     RDKit          3D

 52 55  0  0  1  0  0  0  0  0999 V2000
   57.0580   32.3600   40.7300 C   0  0  0  0  0  0  0  0  0  0  0  0
   58.3380   32.3950   41.5290 C   0  0  0  0  0  0  0  0  0  0  0  0
   58.0990   32.0370   42.9470 C   0  0  0  0  0  0  0  0  0  0  0  0
   57.8640   33.0340   43.8230 N   0  0  0  0  0  0  0  0  0  0  0  0
   57.6520   32.6790   45.0960 C   0  0  0  0  0  0  0  0  0  0  0  0
   57.4250   33.6120   45.9490 N   0  0  0  0  0  0  0  0  0  0  0  0
   58.3490   34.6070   46.3820 C   0  0  0  0  0  0  0  0  0  0  0  0
   59.4900   33.9120   47.0210 C   0  0  0  0  0  0  0  0  0  0  0  0
   59.4820   33.0330   48.0370 C   0  0  0  0  0  0  0  0  0  0  0  0
   60.6400   32.5140   48.4720 C   0  0  0  0  0  0  0  0  0  0  0  0
   61.7940   32.9330   47.8270 C   0  0  0  0  0  0  0  0  0  0  0  0
   63.1820   32.5730   48.0460 C   0  0  0  0  0  0  0  0  0  0  0  0
   63.7450   31.7620   47.2590 O   0  0  0  0  0  0  0  0  0  0  0  0
   63.8770   33.1310   49.1280 N   0  0  0  0  0  0  0  0  0  0  0  0
   63.2910   34.0720   50.0760 C   0  0  0  0  0  0  0  0  0  0  0  0
   63.4960   33.5480   51.4990 C   0  0  0  0  0  0  0  0  0  0  0  0
   64.8520   33.2940   51.6440 O   0  0  0  0  0  0  0  0  0  0  0  0
   65.3100   32.2770   50.8200 C   0  0  0  0  0  0  0  0  0  0  0  0
   65.2840   32.7880   49.3770 C   0  0  0  0  0  0  0  0  0  0  0  0
   61.1920   34.0950   46.5700 S   0  0  0  0  0  0  0  0  0  0  0  0
   57.6610   31.3880   45.5460 C   0  0  0  0  0  0  0  0  0  0  0  0
   57.9040   30.3870   44.6290 C   0  0  0  0  0  0  0  0  0  0  0  0
   57.9410   28.9720   44.9760 C   0  0  0  0  0  0  0  0  0  0  0  0
   57.8550   28.5010   46.2650 C   0  0  0  0  0  0  0  0  0  0  0  0
   57.8990   27.1310   46.5250 C   0  0  0  0  0  0  0  0  0  0  0  0
   58.0310   26.2360   45.4670 C   0  0  0  0  0  0  0  0  0  0  0  0
   58.1140   26.7550   44.1860 C   0  0  0  0  0  0  0  0  0  0  0  0
   58.0680   28.0900   43.9700 N   0  0  0  0  0  0  0  0  0  0  0  0
   58.1140   30.7470   43.3650 N   0  0  0  0  0  0  0  0  0  0  0  0
   56.1982   32.3365   41.4157 H   0  0  0  0  0  0  0  0  0  0  0  0
   56.9969   33.2568   40.0960 H   0  0  0  0  0  0  0  0  0  0  0  0
   57.0460   31.4612   40.0960 H   0  0  0  0  0  0  0  0  0  0  0  0
   59.0512   31.6792   41.0943 H   0  0  0  0  0  0  0  0  0  0  0  0
   58.7413   33.4178   41.4929 H   0  0  0  0  0  0  0  0  0  0  0  0
   58.7016   35.1919   45.5197 H   0  0  0  0  0  0  0  0  0  0  0  0
   57.8694   35.2958   47.0930 H   0  0  0  0  0  0  0  0  0  0  0  0
   58.5323   32.7409   48.5090 H   0  0  0  0  0  0  0  0  0  0  0  0
   60.6727   31.7910   49.3003 H   0  0  0  0  0  0  0  0  0  0  0  0
   63.7796   35.0519   49.9711 H   0  0  0  0  0  0  0  0  0  0  0  0
   62.2151   34.1782   49.8733 H   0  0  0  0  0  0  0  0  0  0  0  0
   63.1724   34.3032   52.2304 H   0  0  0  0  0  0  0  0  0  0  0  0
   62.9043   32.6369   51.6719 H   0  0  0  0  0  0  0  0  0  0  0  0
   66.3379   32.0038   51.1006 H   0  0  0  0  0  0  0  0  0  0  0  0
   64.6716   31.3869   50.9213 H   0  0  0  0  0  0  0  0  0  0  0  0
   65.9247   33.6755   49.2682 H   0  0  0  0  0  0  0  0  0  0  0  0
   65.6627   32.0408   48.6640 H   0  0  0  0  0  0  0  0  0  0  0  0
   57.4802   31.1551   46.6058 H   0  0  0  0  0  0  0  0  0  0  0  0
   57.7506   29.2109   47.0988 H   0  0  0  0  0  0  0  0  0  0  0  0
   57.8299   26.7608   47.5585 H   0  0  0  0  0  0  0  0  0  0  0  0
   58.0682   25.1508   45.6431 H   0  0  0  0  0  0  0  0  0  0  0  0
   58.2190   26.0714   43.3306 H   0  0  0  0  0  0  0  0  0  0  0  0
   58.3030   30.0400   42.6220 H   0  0  0  0  0  0  0  0  0  0  0  0
  1  2  1  0
  2  3  1  0
  3  4  2  0
  4  5  1  0
  5  6  2  0
  6  7  1  0
  7  8  1  0
  8  9  2  0
  9 10  1  0
 10 11  2  0
 11 12  1  0
 12 13  2  0
 12 14  1  0
 14 15  1  0
 15 16  1  0
 16 17  1  0
 17 18  1  0
 18 19  1  0
 11 20  1  0
  5 21  1  0
 21 22  2  0
 22 23  1  0
 23 24  2  0
 24 25  1  0
 25 26  2  0
 26 27  1  0
 27 28  2  0
 22 29  1  0
 29  3  1  0
 20  8  1  0
 28 23  1  0
 19 14  1  0
  1 30  1  0
  1 31  1  0
  1 32  1  0
  2 33  1  0
  2 34  1  0
  7 35  1  0
  7 36  1  0
  9 37  1  0
 10 38  1  0
 15 39  1  0
 15 40  1  0
 16 41  1  0
 16 42  1  0
 18 43  1  0
 18 44  1  0
 19 45  1  0
 19 46  1  0
 21 47  1  0
 24 48  1  0
 25 49  1  0
 26 50  1  0
 27 51  1  0
 29 52  1  0
M  END
>  <smiles>  (83) 
CCc1nc(=NCc2ccc(C(=O)N3CCOCC3)s2)cc(-c2ccccn2)[nH]1

>  <score_type>  (83) 
oracle

>  <origin>  (83) 
adg

>  <m_score__min__energy>  (83) 
-9.0099999999999998

>  <m_primary>  (83) 
energy

$$$$
83:0
     RDKit          3D

 48 51  0  0  0  0  0  0  0  0999 V2000
   63.4950   33.0950   46.8110 C   0  0  0  0  0  0  0  0  0  0  0  0
   63.5930   32.7650   48.2760 C   0  0  0  0  0  0  0  0  0  0  0  0
   64.7530   33.1230   48.9870 C   0  0  0  0  0  0  0  0  0  0  0  0
   64.8680   32.8290   50.3490 C   0  0  0  0  0  0  0  0  0  0  0  0
   63.8260   32.1810   51.0160 C   0  0  0  0  0  0  0  0  0  0  0  0
   62.6740   31.8070   50.3190 C   0  0  0  0  0  0  0  0  0  0  0  0
   62.5570   32.0740   48.9460 C   0  0  0  0  0  0  0  0  0  0  0  0
   61.3820   31.6450   48.2450 N   0  0  0  0  0  0  0  0  0  0  0  0
   60.2460   32.5580   48.0920 C   0  0  0  0  0  0  0  0  0  0  0  0
   59.5010   32.2090   46.7980 C   0  0  0  0  0  0  0  0  0  0  0  0
   59.0220   30.8020   46.7740 N   0  0  0  0  0  0  0  0  0  0  0  0
   58.8880   30.3110   45.3860 C   0  0  0  0  0  0  0  0  0  0  0  0
   57.4460   30.0180   45.0650 C   0  0  0  0  0  0  0  0  0  0  0  0
   56.5410   30.8930   44.4970 C   0  0  0  0  0  0  0  0  0  0  0  0
   55.3710   30.2580   44.3000 N   0  0  0  0  0  0  0  0  0  0  0  0
   55.4940   29.0090   44.7250 N   0  0  0  0  0  0  0  0  0  0  0  0
   56.7430   28.8340   45.2050 C   0  0  0  0  0  0  0  0  0  0  0  0
   57.2370   27.5430   45.7370 C   0  0  0  0  0  0  0  0  0  0  0  0
   58.6170   27.3150   45.8960 C   0  0  0  0  0  0  0  0  0  0  0  0
   59.0830   26.0860   46.3830 C   0  0  0  0  0  0  0  0  0  0  0  0
   58.1790   25.0810   46.7370 C   0  0  0  0  0  0  0  0  0  0  0  0
   56.8070   25.3030   46.6060 C   0  0  0  0  0  0  0  0  0  0  0  0
   56.3310   26.5260   46.1080 C   0  0  0  0  0  0  0  0  0  0  0  0
   54.9600   26.7160   45.9730 O   0  0  0  0  0  0  0  0  0  0  0  0
   59.7960   29.8610   47.6280 C   0  0  0  0  0  0  0  0  0  0  0  0
   61.2740   30.2580   47.7800 C   0  0  0  0  0  0  0  0  0  0  0  0
   63.1837   34.1432   46.6913 H   0  0  0  0  0  0  0  0  0  0  0  0
   64.4758   32.9472   46.3354 H   0  0  0  0  0  0  0  0  0  0  0  0
   62.7538   32.4358   46.3354 H   0  0  0  0  0  0  0  0  0  0  0  0
   65.5750   33.6377   48.4679 H   0  0  0  0  0  0  0  0  0  0  0  0
   65.7805   33.1085   50.8960 H   0  0  0  0  0  0  0  0  0  0  0  0
   63.9122   31.9648   52.0911 H   0  0  0  0  0  0  0  0  0  0  0  0
   61.8542   31.3005   50.8494 H   0  0  0  0  0  0  0  0  0  0  0  0
   59.5666   32.4496   48.9503 H   0  0  0  0  0  0  0  0  0  0  0  0
   60.6053   33.5967   48.0474 H   0  0  0  0  0  0  0  0  0  0  0  0
   58.6333   32.8780   46.7000 H   0  0  0  0  0  0  0  0  0  0  0  0
   60.2070   32.3341   45.9638 H   0  0  0  0  0  0  0  0  0  0  0  0
   59.2641   31.0781   44.6931 H   0  0  0  0  0  0  0  0  0  0  0  0
   59.4707   29.3841   45.2796 H   0  0  0  0  0  0  0  0  0  0  0  0
   56.7446   31.9442   44.2451 H   0  0  0  0  0  0  0  0  0  0  0  0
   59.3348   28.1070   45.6362 H   0  0  0  0  0  0  0  0  0  0  0  0
   60.1642   25.9121   46.4869 H   0  0  0  0  0  0  0  0  0  0  0  0
   58.5476   24.1172   47.1180 H   0  0  0  0  0  0  0  0  0  0  0  0
   56.0953   24.5155   46.8945 H   0  0  0  0  0  0  0  0  0  0  0  0
   59.3360   29.8361   48.6269 H   0  0  0  0  0  0  0  0  0  0  0  0
   59.7703   28.8769   47.1371 H   0  0  0  0  0  0  0  0  0  0  0  0
   61.7557   29.5915   48.5106 H   0  0  0  0  0  0  0  0  0  0  0  0
   61.7716   30.1677   46.8032 H   0  0  0  0  0  0  0  0  0  0  0  0
  1  2  1  0
  2  3  2  0
  3  4  1  0
  4  5  2  0
  5  6  1  0
  6  7  2  0
  7  8  1  0
  8  9  1  0
  9 10  1  0
 10 11  1  0
 11 12  1  0
 12 13  1  0
 13 14  1  0
 14 15  2  0
 15 16  1  0
 16 17  1  0
 17 18  1  0
 18 19  2  0
 19 20  1  0
 20 21  2  0
 21 22  1  0
 22 23  2  0
 23 24  1  0
 11 25  1  0
 25 26  1  0
  7  2  1  0
 26  8  1  0
 17 13  2  0
 23 18  1  0
  1 27  1  0
  1 28  1  0
  1 29  1  0
  3 30  1  0
  4 31  1  0
  5 32  1  0
  6 33  1  0
  9 34  1  0
  9 35  1  0
 10 36  1  0
 10 37  1  0
 12 38  1  0
 12 39  1  0
 14 40  1  0
 19 41  1  0
 20 42  1  0
 21 43  1  0
 22 44  1  0
 25 45  1  0
 25 46  1  0
 26 47  1  0
 26 48  1  0
M  CHG  2  16  -1  24  -1
M  END
>  <UniqueID>  (84) 
81

>  <SMILES>  (84) 
Cc1ccccc1N1CCN(Cc2cn[n-]c2-c2ccccc2[O-])CC1

>  <Energy>  (84) 
97.72802557026925

>  <Genealogy>  (84) 
Cc1ccccc1N1CCN(Cc2cn[n-]c2-c2ccccc2[O-])CC1 (protonated)
Cc1ccccc1N1CCN(Cc2cn[n-]c2-c2ccccc2[O-])CC1 (3D coordinates assigned)
Cc1ccccc1N1CCN(Cc2cn[n-]c2-c2ccccc2[O-])CC1 (nonaromatic ring conformer: 97.72802557026925 kcal/mol)

>  <smiles>  (84) 
Cc1ccccc1N1CCN(Cc2cn[nH]c2-c2ccccc2O)CC1

>  <score_type>  (84) 
oracle

>  <origin>  (84) 
adg

>  <m_score__min__energy>  (84) 
-15

>  <m_primary>  (84) 
energy

$$$$
84:0
     RDKit          3D

 68 72  0  0  0  0  0  0  0  0999 V2000
   58.3860   31.8110   45.8830 O   0  0  0  0  0  0  0  0  0  0  0  0
   58.1470   30.6620   46.3410 C   0  0  0  0  0  0  0  0  0  0  0  0
   57.1530   29.8650   45.6890 N   0  0  0  0  0  0  0  0  0  0  0  0
   57.3670   28.6070   45.0340 C   0  0  0  0  0  0  0  0  0  0  0  0
   57.9310   28.5280   43.7480 C   0  0  0  0  0  0  0  0  0  0  0  0
   58.1460   27.2830   43.1510 C   0  0  0  0  0  0  0  0  0  0  0  0
   57.8110   26.1090   43.8330 C   0  0  0  0  0  0  0  0  0  0  0  0
   57.2610   26.1780   45.1210 C   0  0  0  0  0  0  0  0  0  0  0  0
   56.8290   24.7010   45.9880 S   0  0  0  0  0  0  0  0  0  0  0  0
   57.9250   24.3690   46.9620 O   0  0  0  0  0  0  0  0  0  0  0  0
   55.5670   24.9370   46.7720 O   0  0  0  0  0  0  0  0  0  0  0  0
   56.5940   23.3520   44.9040 N   0  0  0  0  0  0  0  0  0  0  0  0
   55.9480   23.7950   43.6590 C   0  0  0  0  0  0  0  0  0  0  0  0
   55.8960   22.6390   42.6370 C   0  0  0  0  0  0  0  0  0  0  0  0
   56.3020   21.4150   43.2200 O   0  0  0  0  0  0  0  0  0  0  0  0
   57.6510   21.5100   43.6440 C   0  0  0  0  0  0  0  0  0  0  0  0
   57.8760   22.6980   44.6050 C   0  0  0  0  0  0  0  0  0  0  0  0
   57.0450   27.4280   45.7170 C   0  0  0  0  0  0  0  0  0  0  0  0
   58.9640   30.1400   47.4680 C   0  0  0  0  0  0  0  0  0  0  0  0
   60.2180   29.5430   47.2390 C   0  0  0  0  0  0  0  0  0  0  0  0
   60.9900   29.0860   48.3110 C   0  0  0  0  0  0  0  0  0  0  0  0
   60.5370   29.2460   49.6230 C   0  0  0  0  0  0  0  0  0  0  0  0
   59.3050   29.8650   49.8690 C   0  0  0  0  0  0  0  0  0  0  0  0
   58.7390   30.1140   51.5200 S   0  0  0  0  0  0  0  0  0  0  0  0
   57.2600   29.8530   51.6050 O   0  0  0  0  0  0  0  0  0  0  0  0
   59.4450   29.1290   52.4110 O   0  0  0  0  0  0  0  0  0  0  0  0
   59.0950   31.7420   52.0500 N   0  0  0  0  0  0  0  0  0  0  0  0
   60.4960   31.8720   52.5140 C   0  0  0  0  0  0  0  0  0  0  0  0
   61.4920   32.1070   51.3640 C   0  0  0  0  0  0  0  0  0  0  0  0
   60.9890   33.1110   50.4180 N   0  0  0  0  0  0  0  0  0  0  0  0
   61.6850   33.3440   49.1780 C   0  0  0  0  0  0  0  0  0  0  0  0
   60.9680   33.6230   48.0000 C   0  0  0  0  0  0  0  0  0  0  0  0
   61.6450   33.8400   46.7960 C   0  0  0  0  0  0  0  0  0  0  0  0
   63.0400   33.7720   46.7530 C   0  0  0  0  0  0  0  0  0  0  0  0
   63.6940   33.9890   45.5870 F   0  0  0  0  0  0  0  0  0  0  0  0
   63.7590   33.4860   47.9150 C   0  0  0  0  0  0  0  0  0  0  0  0
   63.0870   33.2670   49.1210 C   0  0  0  0  0  0  0  0  0  0  0  0
   59.7280   33.7930   50.7220 C   0  0  0  0  0  0  0  0  0  0  0  0
   58.6610   32.7410   51.0370 C   0  0  0  0  0  0  0  0  0  0  0  0
   58.5180   30.2970   48.7930 C   0  0  0  0  0  0  0  0  0  0  0  0
   58.2035   29.4485   43.2109 H   0  0  0  0  0  0  0  0  0  0  0  0
   58.5800   27.2263   42.1418 H   0  0  0  0  0  0  0  0  0  0  0  0
   57.9791   25.1308   43.3588 H   0  0  0  0  0  0  0  0  0  0  0  0
   54.9235   24.1283   43.8813 H   0  0  0  0  0  0  0  0  0  0  0  0
   56.5311   24.6234   43.2304 H   0  0  0  0  0  0  0  0  0  0  0  0
   54.8654   22.5346   42.2670 H   0  0  0  0  0  0  0  0  0  0  0  0
   56.5850   22.8748   41.8126 H   0  0  0  0  0  0  0  0  0  0  0  0
   57.9268   20.5788   44.1606 H   0  0  0  0  0  0  0  0  0  0  0  0
   58.2753   21.6723   42.7530 H   0  0  0  0  0  0  0  0  0  0  0  0
   58.3243   22.3305   45.5399 H   0  0  0  0  0  0  0  0  0  0  0  0
   58.5501   23.4252   44.1288 H   0  0  0  0  0  0  0  0  0  0  0  0
   56.6190   27.4832   46.7297 H   0  0  0  0  0  0  0  0  0  0  0  0
   60.5927   29.4354   46.2104 H   0  0  0  0  0  0  0  0  0  0  0  0
   61.9577   28.5986   48.1210 H   0  0  0  0  0  0  0  0  0  0  0  0
   61.1484   28.8855   50.4634 H   0  0  0  0  0  0  0  0  0  0  0  0
   60.5572   32.7218   53.2097 H   0  0  0  0  0  0  0  0  0  0  0  0
   60.7711   30.9235   52.9984 H   0  0  0  0  0  0  0  0  0  0  0  0
   62.4470   32.4567   51.7832 H   0  0  0  0  0  0  0  0  0  0  0  0
   61.6276   31.1586   50.8235 H   0  0  0  0  0  0  0  0  0  0  0  0
   59.8693   33.6706   48.0264 H   0  0  0  0  0  0  0  0  0  0  0  0
   61.0781   34.0648   45.8805 H   0  0  0  0  0  0  0  0  0  0  0  0
   64.8572   33.4329   47.8815 H   0  0  0  0  0  0  0  0  0  0  0  0
   63.6591   33.0330   50.0309 H   0  0  0  0  0  0  0  0  0  0  0  0
   59.8648   34.4526   51.5916 H   0  0  0  0  0  0  0  0  0  0  0  0
   59.4129   34.3978   49.8589 H   0  0  0  0  0  0  0  0  0  0  0  0
   57.7658   33.2555   51.4164 H   0  0  0  0  0  0  0  0  0  0  0  0
   58.4623   32.1919   50.1048 H   0  0  0  0  0  0  0  0  0  0  0  0
   57.5410   30.7639   48.9865 H   0  0  0  0  0  0  0  0  0  0  0  0
  1  2  2  0
  2  3  1  0
  3  4  1  0
  4  5  2  0
  5  6  1  0
  6  7  2  0
  7  8  1  0
  8  9  1  0
  9 10  2  0
  9 11  2  0
  9 12  1  0
 12 13  1  0
 13 14  1  0
 14 15  1  0
 15 16  1  0
 16 17  1  0
  8 18  2  0
  2 19  1  0
 19 20  2  0
 20 21  1  0
 21 22  2  0
 22 23  1  0
 23 24  1  0
 24 25  2  0
 24 26  2  0
 24 27  1  0
 27 28  1  0
 28 29  1  0
 29 30  1  0
 30 31  1  0
 31 32  2  0
 32 33  1  0
 33 34  2  0
 34 35  1  0
 34 36  1  0
 36 37  2  0
 30 38  1  0
 38 39  1  0
 23 40  2  0
 18  4  1  0
 40 19  1  0
 17 12  1  0
 39 27  1  0
 37 31  1  0
  5 41  1  0
  6 42  1  0
  7 43  1  0
 13 44  1  0
 13 45  1  0
 14 46  1  0
 14 47  1  0
 16 48  1  0
 16 49  1  0
 17 50  1  0
 17 51  1  0
 18 52  1  0
 20 53  1  0
 21 54  1  0
 22 55  1  0
 28 56  1  0
 28 57  1  0
 29 58  1  0
 29 59  1  0
 32 60  1  0
 33 61  1  0
 36 62  1  0
 37 63  1  0
 38 64  1  0
 38 65  1  0
 39 66  1  0
 39 67  1  0
 40 68  1  0
M  CHG  1   3  -1
M  END
>  <UniqueID>  (85) 
82

>  <SMILES>  (85) 
O=C([N-]c1cccc(S(=O)(=O)N2CCOCC2)c1)c1cccc(S(=O)(=O)N2CCN(c3ccc(F)cc3)CC2)c1

>  <Energy>  (85) 
97.89487947301609

>  <Genealogy>  (85) 
O=C([N-]c1cccc(S(=O)(=O)N2CCOCC2)c1)c1cccc(S(=O)(=O)N2CCN(c3ccc(F)cc3)CC2)c1 (protonated)
O=C([N-]c1cccc(S(=O)(=O)N2CCOCC2)c1)c1cccc(S(=O)(=O)N2CCN(c3ccc(F)cc3)CC2)c1 (3D coordinates assigned)
O=C([N-]c1cccc(S(=O)(=O)N2CCOCC2)c1)c1cccc(S(=O)(=O)N2CCN(c3ccc(F)cc3)CC2)c1 (nonaromatic ring conformer: 97.89487947301609 kcal/mol)

>  <smiles>  (85) 
O=C(Nc1cccc(S(=O)(=O)N2CCOCC2)c1)c1cccc(S(=O)(=O)N2CCN(c3ccc(F)cc3)CC2)c1

>  <score_type>  (85) 
oracle

>  <origin>  (85) 
adg

>  <m_score__min__energy>  (85) 
-12.73

>  <m_primary>  (85) 
energy

$$$$
85:0
     RDKit          3D

 61 65  0  0  0  0  0  0  0  0999 V2000
   63.2507   34.6982   50.4798 H   0  0  0  0  0  0  0  0  0  0  0  0
   62.3530   34.1240   50.2070 C   0  0  0  0  0  0  0  0  0  0  0  0
   61.7580   33.3970   51.1050 N   0  0  0  0  0  0  0  0  0  0  0  0
   61.5820   31.9740   51.0560 C   0  0  0  0  0  0  0  0  0  0  0  0
   62.0820   31.2720   51.9750 O   0  0  0  0  0  0  0  0  0  0  0  0
   60.9010   31.2900   49.9410 C   0  0  0  0  0  0  0  0  0  0  0  0
   59.5270   30.9450   50.0270 C   0  0  0  0  0  0  0  0  0  0  0  0
   58.9518   31.2132   50.9255 H   0  0  0  0  0  0  0  0  0  0  0  0
   58.8940   30.2610   48.9690 C   0  0  0  0  0  0  0  0  0  0  0  0
   57.8274   29.9972   49.0216 H   0  0  0  0  0  0  0  0  0  0  0  0
   59.6660   29.9280   47.8490 C   0  0  0  0  0  0  0  0  0  0  0  0
   60.9850   30.2660   47.7670 C   0  0  0  0  0  0  0  0  0  0  0  0
   61.4930   29.9080   46.5780 N   0  0  0  0  0  0  0  0  0  0  0  0
   60.4340   29.3400   45.9450 C   0  0  0  0  0  0  0  0  0  0  0  0
   60.5440   28.8540   44.5340 C   0  0  0  0  0  0  0  0  0  0  0  0
   60.7868   27.7811   44.5336 H   0  0  0  0  0  0  0  0  0  0  0  0
   59.5870   29.0135   44.0156 H   0  0  0  0  0  0  0  0  0  0  0  0
   61.3390   29.4101   44.0156 H   0  0  0  0  0  0  0  0  0  0  0  0
   59.2950   29.3140   46.7060 N   0  0  0  0  0  0  0  0  0  0  0  0
   57.9390   28.8400   46.3640 C   0  0  2  0  0  0  0  0  0  0  0  0
   57.2052   29.3353   47.0169 H   0  0  0  0  0  0  0  0  0  0  0  0
   57.7800   27.3650   46.6470 C   0  0  0  0  0  0  0  0  0  0  0  0
   58.8150   26.6670   46.8300 O   0  0  0  0  0  0  0  0  0  0  0  0
   56.4790   26.7500   46.6090 N   0  0  0  0  0  0  0  0  0  0  0  0
   56.0680   25.7550   45.8720 C   0  0  0  0  0  0  0  0  0  0  0  0
   54.7690   25.3650   45.9840 N   0  0  0  0  0  0  0  0  0  0  0  0
   54.2520   24.3320   45.2640 C   0  0  0  0  0  0  0  0  0  0  0  0
   53.1943   24.0541   45.3826 H   0  0  0  0  0  0  0  0  0  0  0  0
   55.0630   23.6260   44.3760 C   0  0  0  0  0  0  0  0  0  0  0  0
   54.6486   22.7972   43.7832 H   0  0  0  0  0  0  0  0  0  0  0  0
   56.4040   23.9820   44.2480 C   0  0  0  0  0  0  0  0  0  0  0  0
   57.0567   23.4287   43.5568 H   0  0  0  0  0  0  0  0  0  0  0  0
   56.9190   25.0420   44.9980 C   0  0  0  0  0  0  0  0  0  0  0  0
   57.9796   25.3197   44.9088 H   0  0  0  0  0  0  0  0  0  0  0  0
   57.5820   29.2460   44.9170 C   0  0  0  0  0  0  0  0  0  0  0  0
   58.2567   28.7203   44.2253 H   0  0  0  0  0  0  0  0  0  0  0  0
   56.5317   28.9714   44.7395 H   0  0  0  0  0  0  0  0  0  0  0  0
   57.7160   30.7340   44.6900 C   0  0  0  0  0  0  0  0  0  0  0  0
   57.7930   31.2550   43.3840 C   0  0  0  0  0  0  0  0  0  0  0  0
   57.7687   30.5736   42.5208 H   0  0  0  0  0  0  0  0  0  0  0  0
   57.9000   32.6320   43.1790 C   0  0  0  0  0  0  0  0  0  0  0  0
   57.9560   33.0329   42.1562 H   0  0  0  0  0  0  0  0  0  0  0  0
   57.9360   33.5010   44.2730 C   0  0  0  0  0  0  0  0  0  0  0  0
   58.0188   34.5857   44.1102 H   0  0  0  0  0  0  0  0  0  0  0  0
   57.8670   32.9940   45.5730 C   0  0  0  0  0  0  0  0  0  0  0  0
   57.8946   33.6801   46.4323 H   0  0  0  0  0  0  0  0  0  0  0  0
   57.7630   31.6170   45.7830 C   0  0  0  0  0  0  0  0  0  0  0  0
   57.7177   31.2216   46.8085 H   0  0  0  0  0  0  0  0  0  0  0  0
   61.6440   30.9350   48.7950 C   0  0  0  0  0  0  0  0  0  0  0  0
   62.7135   31.1799   48.7161 H   0  0  0  0  0  0  0  0  0  0  0  0
   61.8380   34.1880   48.8250 C   0  0  0  0  0  0  0  0  0  0  0  0
   60.5020   34.5640   48.6130 C   0  0  0  0  0  0  0  0  0  0  0  0
   59.8711   34.8482   49.4681 H   0  0  0  0  0  0  0  0  0  0  0  0
   59.9690   34.5790   47.3190 C   0  0  0  0  0  0  0  0  0  0  0  0
   58.9254   34.8879   47.1594 H   0  0  0  0  0  0  0  0  0  0  0  0
   60.7580   34.2030   46.2300 C   0  0  0  0  0  0  0  0  0  0  0  0
   60.3323   34.2059   45.2157 H   0  0  0  0  0  0  0  0  0  0  0  0
   62.0880   33.8230   46.4280 C   0  0  0  0  0  0  0  0  0  0  0  0
   62.7074   33.5255   45.5690 H   0  0  0  0  0  0  0  0  0  0  0  0
   62.6340   33.8200   47.7170 C   0  0  0  0  0  0  0  0  0  0  0  0
   63.9180   33.4100   47.8840 F   0  0  0  0  0  0  0  0  0  0  0  0
  1  2  1  0
  2  3  2  0
  3  4  1  0
  4  5  2  0
  4  6  1  0
  6  7  2  0
  7  8  1  0
  7  9  1  0
  9 10  1  0
  9 11  2  0
 11 12  1  0
 12 13  1  0
 13 14  2  0
 14 15  1  0
 15 16  1  0
 15 17  1  0
 15 18  1  0
 14 19  1  0
 19 20  1  0
 20 21  1  1
 20 22  1  0
 22 23  2  0
 22 24  1  0
 24 25  2  0
 25 26  1  0
 26 27  1  0
 27 28  1  0
 27 29  2  0
 29 30  1  0
 29 31  1  0
 31 32  1  0
 31 33  2  0
 33 34  1  0
 20 35  1  0
 35 36  1  0
 35 37  1  0
 35 38  1  0
 38 39  2  0
 39 40  1  0
 39 41  1  0
 41 42  1  0
 41 43  2  0
 43 44  1  0
 43 45  1  0
 45 46  1  0
 45 47  2  0
 47 48  1  0
 12 49  2  0
 49 50  1  0
  2 51  1  0
 51 52  2  0
 52 53  1  0
 52 54  1  0
 54 55  1  0
 54 56  2  0
 56 57  1  0
 56 58  1  0
 58 59  1  0
 58 60  2  0
 60 61  1  0
 49  6  1  0
 60 51  1  0
 19 11  1  0
 33 25  1  0
 47 38  1  0
M  CHG  1  26  -1
M  END
>  <UniqueID>  (86) 
83

>  <SMILES>  (86) 
Cc1nc2cc(C(=O)/N=C/c3ccccc3F)ccc2n1[C@@H](Cc1ccccc1)C(=O)/N=c1\cccc[n-]1

>  <Energy>  (86) 
121.21112829656238

>  <Genealogy>  (86) 
Cc1nc2cc(C(=O)N=Cc3ccccc3F)ccc2n1C(Cc1ccccc1)C(=O)N=c1cccc[n-]1 (protonated)
Cc1nc2cc(C(=O)N=Cc3ccccc3F)ccc2n1[C@@H](Cc1ccccc1)C(=O)N=c1cccc[n-]1 (chirality)
Cc1nc2cc(C(=O)/N=C/c3ccccc3F)ccc2n1[C@@H](Cc1ccccc1)C(=O)/N=c1\cccc[n-]1 (cis-trans isomerization)
Cc1nc2cc(C(=O)/N=C/c3ccccc3F)ccc2n1[C@@H](Cc1ccccc1)C(=O)/N=c1\cccc[n-]1 (3D coordinates assigned)
Cc1nc2cc(C(=O)/N=C/c3ccccc3F)ccc2n1[C@@H](Cc1ccccc1)C(=O)/N=c1\cccc[n-]1 (optimized conformer: 121.21112829656238 kcal/mol)

>  <smiles>  (86) 
Cc1nc2cc(C(=O)N=Cc3ccccc3F)ccc2n1C(Cc1ccccc1)C(=O)N=c1cccc[nH]1

>  <score_type>  (86) 
oracle

>  <origin>  (86) 
adg

>  <m_score__min__energy>  (86) 
-12.56

>  <m_primary>  (86) 
energy

$$$$
86:0
     RDKit          3D

 39 42  0  0  0  0  0  0  0  0999 V2000
   60.4070   35.0830   45.9310 H   0  0  0  0  0  0  0  0  0  0  0  0
   59.6030   35.0470   45.3170 O   0  0  0  0  0  0  0  0  0  0  0  0
   58.8760   33.8730   45.1370 C   0  0  0  0  0  0  0  0  0  0  0  0
   58.4910   33.4590   43.8550 C   0  0  0  0  0  0  0  0  0  0  0  0
   58.7622   34.0655   42.9783 H   0  0  0  0  0  0  0  0  0  0  0  0
   57.7630   32.2770   43.6870 C   0  0  0  0  0  0  0  0  0  0  0  0
   57.4485   31.9656   42.6800 H   0  0  0  0  0  0  0  0  0  0  0  0
   57.4310   31.4840   44.8020 C   0  0  0  0  0  0  0  0  0  0  0  0
   56.6540   30.2800   44.6780 N   0  0  0  0  0  0  0  0  0  0  0  0
   56.8000   29.1810   45.3610 C   0  0  0  0  0  0  0  0  0  0  0  0
   57.8970   29.0290   46.1440 N   0  0  0  0  0  0  0  0  0  0  0  0
   58.0890   27.8880   46.8530 C   0  0  0  0  0  0  0  0  0  0  0  0
   59.1590   27.7640   47.5810 N   0  0  0  0  0  0  0  0  0  0  0  0
   55.5280   24.7050   45.4400 C   0  0  0  0  0  0  0  0  0  0  0  0
   55.6785   24.0685   46.3244 H   0  0  0  0  0  0  0  0  0  0  0  0
   54.6997   24.3048   44.8369 H   0  0  0  0  0  0  0  0  0  0  0  0
   56.4478   24.7181   44.8369 H   0  0  0  0  0  0  0  0  0  0  0  0
   57.1810   26.8800   46.7520 N   0  0  0  0  0  0  0  0  0  0  0  0
   56.0830   27.0180   45.9640 C   0  0  0  0  0  0  0  0  0  0  0  0
   55.2070   26.0630   45.8670 N   0  0  0  0  0  0  0  0  0  0  0  0
   60.0170   28.8210   48.0410 C   0  0  0  0  0  0  0  0  0  0  0  0
   60.2970   29.0190   49.4230 C   0  0  0  0  0  0  0  0  0  0  0  0
   59.8693   28.3347   50.1705 H   0  0  0  0  0  0  0  0  0  0  0  0
   61.1170   30.0840   49.8390 C   0  0  0  0  0  0  0  0  0  0  0  0
   61.3528   30.2362   50.9026 H   0  0  0  0  0  0  0  0  0  0  0  0
   61.6200   30.9380   48.8640 C   0  0  0  0  0  0  0  0  0  0  0  0
   61.3350   30.7720   47.5480 C   0  0  0  0  0  0  0  0  0  0  0  0
   60.5290   29.7320   47.0930 C   0  0  0  0  0  0  0  0  0  0  0  0
   60.2975   29.6234   46.0231 H   0  0  0  0  0  0  0  0  0  0  0  0
   61.9540   31.7640   46.8140 O   0  0  0  0  0  0  0  0  0  0  0  0
   62.6740   32.6060   47.7250 C   0  0  0  0  0  0  0  0  0  0  0  0
   63.7493   32.5949   47.4936 H   0  0  0  0  0  0  0  0  0  0  0  0
   62.3484   33.6548   47.6624 H   0  0  0  0  0  0  0  0  0  0  0  0
   62.4320   32.0440   49.0230 O   0  0  0  0  0  0  0  0  0  0  0  0
   55.8980   28.1670   45.2680 N   0  0  0  0  0  0  0  0  0  0  0  0
   57.7940   31.9200   46.0830 C   0  0  0  0  0  0  0  0  0  0  0  0
   57.5043   31.3284   46.9640 H   0  0  0  0  0  0  0  0  0  0  0  0
   58.5220   33.1020   46.2490 C   0  0  0  0  0  0  0  0  0  0  0  0
   58.8174   33.4267   47.2576 H   0  0  0  0  0  0  0  0  0  0  0  0
  1  2  1  0
  2  3  1  0
  3  4  2  0
  4  5  1  0
  4  6  1  0
  6  7  1  0
  6  8  2  0
  8  9  1  0
  9 10  2  3
 10 11  1  0
 11 12  1  0
 12 13  2  0
 13 14  1  0
 14 15  1  0
 14 16  1  0
 14 17  1  0
 12 18  1  0
 18 19  1  0
 19 20  2  0
 20 21  1  0
 21 22  2  0
 22 23  1  0
 22 24  1  0
 24 25  1  0
 24 26  2  0
 26 27  1  0
 27 28  2  0
 28 29  1  0
 27 30  1  0
 30 31  1  0
 31 32  1  0
 31 33  1  0
 31 34  1  0
 19 35  1  0
  8 36  1  0
 36 37  1  0
 36 38  2  0
 38 39  1  0
 38  3  1  0
 35 10  1  0
 28 21  1  0
 34 26  1  0
M  CHG  3  11  -1  18  -1  35  -1
M  END
>  <UniqueID>  (87) 
84

>  <SMILES>  (87) 
C/N=c1/[n-]c(=Nc2ccc(O)cc2)[n-]/c(=N/c2ccc3c(c2)OCO3)[n-]1

>  <Energy>  (87) 
82.2310254864955

>  <Genealogy>  (87) 
CN=c1[n-]c(=Nc2ccc(O)cc2)[n-]c(=Nc2ccc3c(c2)OCO3)[n-]1 (protonated)
C/N=c1/[n-]c(=Nc2ccc(O)cc2)[n-]/c(=N/c2ccc3c(c2)OCO3)[n-]1 (cis-trans isomerization)
C/N=c1/[n-]c(=Nc2ccc(O)cc2)[n-]/c(=N/c2ccc3c(c2)OCO3)[n-]1 (3D coordinates assigned)
C/N=c1/[n-]c(=Nc2ccc(O)cc2)[n-]/c(=N/c2ccc3c(c2)OCO3)[n-]1 (nonaromatic ring conformer: 82.2310254864955 kcal/mol)

>  <smiles>  (87) 
CN=c1[nH]c(=Nc2ccc(O)cc2)[nH]c(=Nc2ccc3c(c2)OCO3)[nH]1

>  <score_type>  (87) 
oracle

>  <origin>  (87) 
adg

>  <m_score__min__energy>  (87) 
-12.25

>  <m_primary>  (87) 
energy

$$$$
87:0
     RDKit          3D

 58 60  0  0  0  0  0  0  0  0999 V2000
   54.6587   29.6326   43.3064 H   0  0  0  0  0  0  0  0  0  0  0  0
   55.5940   29.7310   43.8770 C   0  0  0  0  0  0  0  0  0  0  0  0
   55.8780   28.8530   44.8720 N   0  0  0  0  0  0  0  0  0  0  0  0
   57.0180   28.9330   45.6170 C   0  0  0  0  0  0  0  0  0  0  0  0
   57.2570   28.0530   46.5460 N   0  0  0  0  0  0  0  0  0  0  0  0
   57.7830   26.7280   46.3730 C   0  0  0  0  0  0  0  0  0  0  0  0
   59.1690   26.4900   46.3590 C   0  0  0  0  0  0  0  0  0  0  0  0
   59.8680   27.3159   46.5573 H   0  0  0  0  0  0  0  0  0  0  0  0
   59.6620   25.2120   46.0950 C   0  0  0  0  0  0  0  0  0  0  0  0
   60.7473   25.0330   46.1089 H   0  0  0  0  0  0  0  0  0  0  0  0
   58.7900   24.1570   45.8130 C   0  0  0  0  0  0  0  0  0  0  0  0
   59.3400   22.9030   45.5130 O   0  0  0  0  0  0  0  0  0  0  0  0
   58.7830   21.9820   44.5810 C   0  0  0  0  0  0  0  0  0  0  0  0
   58.2882   21.1639   45.1250 H   0  0  0  0  0  0  0  0  0  0  0  0
   58.0467   22.5001   43.9490 H   0  0  0  0  0  0  0  0  0  0  0  0
   59.5837   21.5705   43.9490 H   0  0  0  0  0  0  0  0  0  0  0  0
   57.4010   24.3910   45.8240 C   0  0  0  0  0  0  0  0  0  0  0  0
   56.7062   23.5631   45.6196 H   0  0  0  0  0  0  0  0  0  0  0  0
   56.8950   25.6780   46.0950 C   0  0  0  0  0  0  0  0  0  0  0  0
   55.5170   25.9540   46.0900 O   0  0  0  0  0  0  0  0  0  0  0  0
   54.5140   25.0610   45.6190 C   0  0  0  0  0  0  0  0  0  0  0  0
   53.9992   24.6027   46.4763 H   0  0  0  0  0  0  0  0  0  0  0  0
   53.7865   25.6158   45.0083 H   0  0  0  0  0  0  0  0  0  0  0  0
   54.9810   24.2742   45.0083 H   0  0  0  0  0  0  0  0  0  0  0  0
   57.9580   29.9590   45.3470 C   0  0  0  0  0  0  0  0  0  0  0  0
   59.2150   30.1200   46.1310 C   0  0  0  0  0  0  0  0  0  0  0  0
   59.9310   31.1470   45.9670 O   0  0  0  0  0  0  0  0  0  0  0  0
   59.6020   29.1480   47.0590 O   0  0  0  0  0  0  0  0  0  0  0  0
   59.5340   29.3460   48.4670 C   0  0  0  0  0  0  0  0  0  0  0  0
   58.5742   29.8186   48.7228 H   0  0  0  0  0  0  0  0  0  0  0  0
   59.6164   28.3731   48.9737 H   0  0  0  0  0  0  0  0  0  0  0  0
   60.6580   30.2310   48.9130 C   0  0  0  0  0  0  0  0  0  0  0  0
   60.7630   30.5190   50.1360 O   0  0  0  0  0  0  0  0  0  0  0  0
   61.6210   30.7140   47.9630 N   0  0  0  0  0  0  0  0  0  0  0  0
   61.4680   30.5070   46.9500 H   0  0  0  0  0  0  0  0  0  0  0  0
   62.7630   31.5130   48.3150 C   0  0  0  0  0  0  0  0  0  0  0  0
   63.1350   31.6050   49.5160 O   0  0  0  0  0  0  0  0  0  0  0  0
   63.5060   32.1870   47.2870 N   0  0  0  0  0  0  0  0  0  0  0  0
   63.2750   31.7690   46.3550 H   0  0  0  0  0  0  0  0  0  0  0  0
   64.5250   32.0510   47.4700 H   0  0  0  0  0  0  0  0  0  0  0  0
   63.1920   33.6210   47.2800 C   0  0  0  0  0  0  0  0  0  0  0  0
   63.6323   34.0944   48.1699 H   0  0  0  0  0  0  0  0  0  0  0  0
   63.6084   34.0768   46.3696 H   0  0  0  0  0  0  0  0  0  0  0  0
   61.6980   33.8230   47.2950 C   0  0  0  0  0  0  0  0  0  0  0  0
   61.0280   34.0520   48.5090 C   0  0  0  0  0  0  0  0  0  0  0  0
   61.5877   34.0352   49.4558 H   0  0  0  0  0  0  0  0  0  0  0  0
   59.6530   34.3010   48.5170 C   0  0  0  0  0  0  0  0  0  0  0  0
   59.1304   34.4658   49.4708 H   0  0  0  0  0  0  0  0  0  0  0  0
   58.9410   34.3410   47.3160 C   0  0  0  0  0  0  0  0  0  0  0  0
   57.8588   34.5377   47.3243 H   0  0  0  0  0  0  0  0  0  0  0  0
   59.6040   34.1310   46.1040 C   0  0  0  0  0  0  0  0  0  0  0  0
   59.0433   34.1665   45.1583 H   0  0  0  0  0  0  0  0  0  0  0  0
   60.9780   33.8760   46.0910 C   0  0  0  0  0  0  0  0  0  0  0  0
   61.4970   33.7163   45.1344 H   0  0  0  0  0  0  0  0  0  0  0  0
   57.6670   30.8700   44.3140 C   0  0  0  0  0  0  0  0  0  0  0  0
   58.3763   31.6788   44.0844 H   0  0  0  0  0  0  0  0  0  0  0  0
   56.4870   30.7560   43.5790 C   0  0  0  0  0  0  0  0  0  0  0  0
   56.2644   31.4693   42.7717 H   0  0  0  0  0  0  0  0  0  0  0  0
  1  2  1  0
  2  3  1  0
  3  4  1  0
  4  5  2  0
  5  6  1  0
  6  7  2  0
  7  8  1  0
  7  9  1  0
  9 10  1  0
  9 11  2  0
 11 12  1  0
 12 13  1  0
 13 14  1  0
 13 15  1  0
 13 16  1  0
 11 17  1  0
 17 18  1  0
 17 19  2  0
 19 20  1  0
 20 21  1  0
 21 22  1  0
 21 23  1  0
 21 24  1  0
  4 25  1  0
 25 26  1  0
 26 27  2  0
 26 28  1  0
 28 29  1  0
 29 30  1  0
 29 31  1  0
 29 32  1  0
 32 33  2  0
 32 34  1  0
 34 35  1  0
 34 36  1  0
 36 37  2  0
 36 38  1  0
 38 39  1  0
 38 40  1  0
 38 41  1  0
 41 42  1  0
 41 43  1  0
 41 44  1  0
 44 45  2  0
 45 46  1  0
 45 47  1  0
 47 48  1  0
 47 49  2  0
 49 50  1  0
 49 51  1  0
 51 52  1  0
 51 53  2  0
 53 54  1  0
 25 55  2  0
 55 56  1  0
 55 57  1  0
 57 58  1  0
 57  2  2  0
 19  6  1  0
 53 44  1  0
M  CHG  2   3  -1  38   1
M  END
>  <UniqueID>  (88) 
85

>  <SMILES>  (88) 
COc1ccc(/N=c2\[n-]cccc2C(=O)OCC(=O)NC(=O)[NH2+]Cc2ccccc2)c(OC)c1

>  <Energy>  (88) 
57.641809356362806

>  <Genealogy>  (88) 
COc1ccc(N=c2[n-]cccc2C(=O)OCC(=O)NC(=O)[NH2+]Cc2ccccc2)c(OC)c1 (protonated)
COc1ccc(/N=c2\[n-]cccc2C(=O)OCC(=O)NC(=O)[NH2+]Cc2ccccc2)c(OC)c1 (cis-trans isomerization)
COc1ccc(/N=c2\[n-]cccc2C(=O)OCC(=O)NC(=O)[NH2+]Cc2ccccc2)c(OC)c1 (3D coordinates assigned)
COc1ccc(/N=c2\[n-]cccc2C(=O)OCC(=O)NC(=O)[NH2+]Cc2ccccc2)c(OC)c1 (optimized conformer: 57.641809356362806 kcal/mol)

>  <smiles>  (88) 
COc1ccc(N=c2[nH]cccc2C(=O)OCC(=O)NC(=O)NCc2ccccc2)c(OC)c1

>  <score_type>  (88) 
oracle

>  <origin>  (88) 
adg

>  <m_score__min__energy>  (88) 
-9.2899999999999991

>  <m_primary>  (88) 
energy

$$$$
88:0
     RDKit          3D

 41 44  0  0  0  0  0  0  0  0999 V2000
   59.3540   35.3080   46.1480 O   0  0  0  0  0  0  0  0  0  0  0  0
   59.3370   34.0720   46.3880 C   0  0  0  0  0  0  0  0  0  0  0  0
   58.1790   33.1980   46.4040 C   0  0  0  0  0  0  0  0  0  0  0  0
   56.9950   33.5570   46.1660 O   0  0  0  0  0  0  0  0  0  0  0  0
   58.5680   31.8570   46.7190 N   0  0  0  0  0  0  0  0  0  0  0  0
   57.7690   30.6750   46.3810 C   0  0  0  0  0  0  0  0  0  0  0  0
   57.3980   30.6840   44.9170 C   0  0  0  0  0  0  0  0  0  0  0  0
   58.0890   31.5250   44.0280 C   0  0  0  0  0  0  0  0  0  0  0  0
   57.7340   31.5760   42.6730 C   0  0  0  0  0  0  0  0  0  0  0  0
   58.4190   32.4090   41.7910 O   0  0  0  0  0  0  0  0  0  0  0  0
   56.6840   30.7870   42.2000 C   0  0  0  0  0  0  0  0  0  0  0  0
   55.9890   29.9480   43.0730 C   0  0  0  0  0  0  0  0  0  0  0  0
   56.3390   29.8930   44.4270 C   0  0  0  0  0  0  0  0  0  0  0  0
   55.6310   29.0440   45.2720 O   0  0  0  0  0  0  0  0  0  0  0  0
   59.9970   31.9310   46.8990 C   0  0  0  0  0  0  0  0  0  0  0  0
   60.8750   30.9090   47.2960 C   0  0  0  0  0  0  0  0  0  0  0  0
   60.3940   29.6170   47.5510 O   0  0  0  0  0  0  0  0  0  0  0  0
   59.8560   28.7420   46.5960 C   0  0  0  0  0  0  0  0  0  0  0  0
   58.9730   27.7040   46.9510 C   0  0  0  0  0  0  0  0  0  0  0  0
   58.4450   26.8650   45.9640 C   0  0  0  0  0  0  0  0  0  0  0  0
   58.7800   27.0630   44.6220 C   0  0  0  0  0  0  0  0  0  0  0  0
   59.6400   28.1050   44.2630 C   0  0  0  0  0  0  0  0  0  0  0  0
   60.1700   28.9460   45.2470 C   0  0  0  0  0  0  0  0  0  0  0  0
   62.2510   31.2210   47.4000 C   0  0  0  0  0  0  0  0  0  0  0  0
   62.7130   32.5300   47.1730 C   0  0  0  0  0  0  0  0  0  0  0  0
   61.8140   33.5500   46.8340 C   0  0  0  0  0  0  0  0  0  0  0  0
   60.4680   33.2230   46.7060 C   0  0  0  0  0  0  0  0  0  0  0  0
   58.3533   29.7691   46.6001 H   0  0  0  0  0  0  0  0  0  0  0  0
   56.8467   30.6877   46.9803 H   0  0  0  0  0  0  0  0  0  0  0  0
   58.9157   32.1487   44.3988 H   0  0  0  0  0  0  0  0  0  0  0  0
   59.0380   33.1400   42.1240 H   0  0  0  0  0  0  0  0  0  0  0  0
   56.4036   30.8264   41.1371 H   0  0  0  0  0  0  0  0  0  0  0  0
   55.1629   29.3276   42.6951 H   0  0  0  0  0  0  0  0  0  0  0  0
   58.6982   27.5528   48.0053 H   0  0  0  0  0  0  0  0  0  0  0  0
   57.7646   26.0476   46.2450 H   0  0  0  0  0  0  0  0  0  0  0  0
   58.3671   26.3991   43.8482 H   0  0  0  0  0  0  0  0  0  0  0  0
   59.9001   28.2636   43.2060 H   0  0  0  0  0  0  0  0  0  0  0  0
   60.8370   29.7720   44.9594 H   0  0  0  0  0  0  0  0  0  0  0  0
   62.9688   30.4297   47.6618 H   0  0  0  0  0  0  0  0  0  0  0  0
   63.7862   32.7543   47.2621 H   0  0  0  0  0  0  0  0  0  0  0  0
   62.1630   34.5808   46.6735 H   0  0  0  0  0  0  0  0  0  0  0  0
  1  2  2  0
  2  3  1  0
  3  4  2  0
  3  5  1  0
  5  6  1  0
  6  7  1  0
  7  8  2  0
  8  9  1  0
  9 10  1  0
  9 11  2  0
 11 12  1  0
 12 13  2  0
 13 14  1  0
  5 15  1  0
 15 16  2  0
 16 17  1  0
 17 18  1  0
 18 19  2  0
 19 20  1  0
 20 21  2  0
 21 22  1  0
 22 23  2  0
 16 24  1  0
 24 25  2  0
 25 26  1  0
 26 27  2  0
 27  2  1  0
 13  7  1  0
 27 15  1  0
 23 18  1  0
  6 28  1  0
  6 29  1  0
  8 30  1  0
 10 31  1  0
 11 32  1  0
 12 33  1  0
 19 34  1  0
 20 35  1  0
 21 36  1  0
 22 37  1  0
 23 38  1  0
 24 39  1  0
 25 40  1  0
 26 41  1  0
M  CHG  1  14  -1
M  END
>  <UniqueID>  (89) 
86

>  <SMILES>  (89) 
O=C1C(=O)N(Cc2cc(O)ccc2[O-])c2c(Oc3ccccc3)cccc21

>  <Energy>  (89) 
84.17058861022245

>  <Genealogy>  (89) 
O=C1C(=O)N(Cc2cc(O)ccc2[O-])c2c(Oc3ccccc3)cccc21 (protonated)
O=C1C(=O)N(Cc2cc(O)ccc2[O-])c2c(Oc3ccccc3)cccc21 (3D coordinates assigned)
O=C1C(=O)N(Cc2cc(O)ccc2[O-])c2c(Oc3ccccc3)cccc21 (nonaromatic ring conformer: 84.17058861022245 kcal/mol)

>  <smiles>  (89) 
O=C1C(=O)N(Cc2cc(O)ccc2O)c2c(Oc3ccccc3)cccc21

>  <score_type>  (89) 
oracle

>  <origin>  (89) 
adg

>  <m_score__min__energy>  (89) 
-10.550000000000001

>  <m_primary>  (89) 
energy

$$$$
89:0
     RDKit          3D

 47 49  0  0  0  0  0  0  0  0999 V2000
   58.1390   26.6740   43.2030 C   0  0  0  0  0  0  0  0  0  0  0  0
   58.5170   28.0280   43.4290 O   0  0  0  0  0  0  0  0  0  0  0  0
   58.8220   28.5710   44.6880 C   0  0  0  0  0  0  0  0  0  0  0  0
   59.9730   28.1890   45.4020 C   0  0  0  0  0  0  0  0  0  0  0  0
   60.2500   28.7490   46.6520 C   0  0  0  0  0  0  0  0  0  0  0  0
   59.3880   29.7030   47.2110 C   0  0  0  0  0  0  0  0  0  0  0  0
   59.6900   30.2940   48.5360 C   0  0  0  0  0  0  0  0  0  0  0  0
   59.5520   29.5920   49.5740 O   0  0  0  0  0  0  0  0  0  0  0  0
   60.0900   31.6630   48.6790 N   0  0  0  0  0  0  0  0  0  0  0  0
   61.2340   32.2690   48.0590 C   0  0  0  0  0  0  0  0  0  0  0  0
   62.5380   31.9690   48.4930 C   0  0  0  0  0  0  0  0  0  0  0  0
   63.6400   32.5820   47.8910 C   0  0  0  0  0  0  0  0  0  0  0  0
   63.4500   33.5090   46.8620 C   0  0  0  0  0  0  0  0  0  0  0  0
   62.1580   33.8240   46.4350 C   0  0  0  0  0  0  0  0  0  0  0  0
   61.0490   33.2100   47.0290 C   0  0  0  0  0  0  0  0  0  0  0  0
   59.7340   33.5240   46.5520 N   0  0  0  0  0  0  0  0  0  0  0  0
   59.5730   34.0510   45.1980 C   0  0  0  0  0  0  0  0  0  0  0  0
   58.1530   33.7670   44.7000 C   0  0  0  0  0  0  0  0  0  0  0  0
   57.1910   34.2120   45.6390 O   0  0  0  0  0  0  0  0  0  0  0  0
   57.3040   33.4610   46.8340 C   0  0  0  0  0  0  0  0  0  0  0  0
   58.6510   33.7230   47.5150 C   0  0  0  0  0  0  0  0  0  0  0  0
   58.2290   30.0680   46.5100 C   0  0  0  0  0  0  0  0  0  0  0  0
   57.9480   29.5190   45.2500 C   0  0  0  0  0  0  0  0  0  0  0  0
   56.4940   30.0130   44.3800 S   0  0  0  0  0  0  0  0  0  0  0  0
   56.6430   29.5660   42.7160 N   0  0  0  0  0  0  0  0  0  0  0  0
   56.3280   31.5030   44.4910 O   0  0  0  0  0  0  0  0  0  0  0  0
   55.2800   29.3450   44.9660 O   0  0  0  0  0  0  0  0  0  0  0  0
   57.9974   26.1668   44.1687 H   0  0  0  0  0  0  0  0  0  0  0  0
   57.1987   26.6461   42.6328 H   0  0  0  0  0  0  0  0  0  0  0  0
   58.9289   26.1631   42.6328 H   0  0  0  0  0  0  0  0  0  0  0  0
   60.6596   27.4443   44.9731 H   0  0  0  0  0  0  0  0  0  0  0  0
   61.1511   28.4390   47.2015 H   0  0  0  0  0  0  0  0  0  0  0  0
   62.6909   31.2485   49.3100 H   0  0  0  0  0  0  0  0  0  0  0  0
   64.6578   32.3349   48.2271 H   0  0  0  0  0  0  0  0  0  0  0  0
   64.3183   33.9905   46.3885 H   0  0  0  0  0  0  0  0  0  0  0  0
   62.0113   34.5576   45.6286 H   0  0  0  0  0  0  0  0  0  0  0  0
   59.7478   35.1370   45.2050 H   0  0  0  0  0  0  0  0  0  0  0  0
   60.2982   33.5648   44.5289 H   0  0  0  0  0  0  0  0  0  0  0  0
   57.9943   34.2907   43.7458 H   0  0  0  0  0  0  0  0  0  0  0  0
   58.0377   32.6813   44.5656 H   0  0  0  0  0  0  0  0  0  0  0  0
   56.4919   33.7477   47.5184 H   0  0  0  0  0  0  0  0  0  0  0  0
   57.2359   32.3914   46.5864 H   0  0  0  0  0  0  0  0  0  0  0  0
   58.6778   34.7576   47.8876 H   0  0  0  0  0  0  0  0  0  0  0  0
   58.7771   33.0256   48.3562 H   0  0  0  0  0  0  0  0  0  0  0  0
   57.5318   30.7938   46.9539 H   0  0  0  0  0  0  0  0  0  0  0  0
   56.5120   28.5320   42.6660 H   0  0  0  0  0  0  0  0  0  0  0  0
   57.6300   29.7610   42.4370 H   0  0  0  0  0  0  0  0  0  0  0  0
  1  2  1  0
  2  3  1  0
  3  4  2  0
  4  5  1  0
  5  6  2  0
  6  7  1  0
  7  8  2  0
  7  9  1  0
  9 10  1  0
 10 11  2  0
 11 12  1  0
 12 13  2  0
 13 14  1  0
 14 15  2  0
 15 16  1  0
 16 17  1  0
 17 18  1  0
 18 19  1  0
 19 20  1  0
 20 21  1  0
  6 22  1  0
 22 23  2  0
 23 24  1  0
 24 25  1  0
 24 26  2  0
 24 27  2  0
 23  3  1  0
 15 10  1  0
 21 16  1  0
  1 28  1  0
  1 29  1  0
  1 30  1  0
  4 31  1  0
  5 32  1  0
 11 33  1  0
 12 34  1  0
 13 35  1  0
 14 36  1  0
 17 37  1  0
 17 38  1  0
 18 39  1  0
 18 40  1  0
 20 41  1  0
 20 42  1  0
 21 43  1  0
 21 44  1  0
 22 45  1  0
 25 46  1  0
 25 47  1  0
M  CHG  1   9  -1
M  END
>  <UniqueID>  (90) 
87

>  <SMILES>  (90) 
COc1ccc(C(=O)[N-]c2ccccc2N2CCOCC2)cc1S(N)(=O)=O

>  <Energy>  (90) 
59.554899630465755

>  <Genealogy>  (90) 
COc1ccc(C(=O)[N-]c2ccccc2N2CCOCC2)cc1S(N)(=O)=O (protonated)
COc1ccc(C(=O)[N-]c2ccccc2N2CCOCC2)cc1S(N)(=O)=O (3D coordinates assigned)
COc1ccc(C(=O)[N-]c2ccccc2N2CCOCC2)cc1S(N)(=O)=O (nonaromatic ring conformer: 59.554899630465755 kcal/mol)

>  <smiles>  (90) 
COc1ccc(C(=O)Nc2ccccc2N2CCOCC2)cc1S(N)(=O)=O

>  <score_type>  (90) 
oracle

>  <origin>  (90) 
adg

>  <m_score__min__energy>  (90) 
-9.9499999999999993

>  <m_primary>  (90) 
energy

$$$$
90:0
     RDKit          3D

 42 46  0  0  0  0  0  0  0  0999 V2000
   58.2297   26.6136   43.9767 H   0  0  0  0  0  0  0  0  0  0  0  0
   57.6850   26.9610   44.8670 C   0  0  0  0  0  0  0  0  0  0  0  0
   57.1620   25.9470   45.7950 C   0  0  0  0  0  0  0  0  0  0  0  0
   57.9270   25.0190   46.3950 N   0  0  0  0  0  0  0  0  0  0  0  0
   57.0600   24.3840   47.2140 C   0  0  0  0  0  0  0  0  0  0  0  0
   57.4050   23.4210   47.9490 O   0  0  0  0  0  0  0  0  0  0  0  0
   55.8010   24.8680   47.1940 N   0  0  0  0  0  0  0  0  0  0  0  0
   55.8850   25.8660   46.3000 C   0  0  0  0  0  0  0  0  0  0  0  0
   54.8270   26.7110   45.9850 O   0  0  0  0  0  0  0  0  0  0  0  0
   57.5390   28.2830   45.0390 C   0  0  0  0  0  0  0  0  0  0  0  0
   56.6310   29.0960   44.3800 C   0  0  0  0  0  0  0  0  0  0  0  0
   55.9216   28.7587   43.6100 H   0  0  0  0  0  0  0  0  0  0  0  0
   56.7490   30.3680   44.8270 N   0  0  0  0  0  0  0  0  0  0  0  0
   57.6950   30.3920   45.7500 N   0  0  0  0  0  0  0  0  0  0  0  0
   58.1430   31.4300   46.5280 C   0  0  0  0  0  0  0  0  0  0  0  0
   57.7590   32.6820   46.4300 N   0  0  0  0  0  0  0  0  0  0  0  0
   58.2750   34.0640   46.3630 C   0  0  0  0  0  0  0  0  0  0  0  0
   57.3237   34.4581   45.9760 H   0  0  0  0  0  0  0  0  0  0  0  0
   59.2470   34.5050   47.4350 C   0  0  0  0  0  0  0  0  0  0  0  0
   59.2043   35.5306   47.8304 H   0  0  0  0  0  0  0  0  0  0  0  0
   59.5325   34.1356   48.4310 H   0  0  0  0  0  0  0  0  0  0  0  0
   59.7290   34.2520   45.9950 C   0  0  0  0  0  0  0  0  0  0  0  0
   60.0321   35.0964   45.3585 H   0  0  0  0  0  0  0  0  0  0  0  0
   60.5042   33.6256   45.5295 H   0  0  0  0  0  0  0  0  0  0  0  0
   59.0760   31.1340   47.4830 N   0  0  0  0  0  0  0  0  0  0  0  0
   59.4440   31.8940   48.1000 H   0  0  0  0  0  0  0  0  0  0  0  0
   59.5380   29.8610   47.6560 C   0  0  0  0  0  0  0  0  0  0  0  0
   60.7430   29.5070   48.9330 S   0  0  0  0  0  0  0  0  0  0  0  0
   60.1850   30.8670   49.9580 C   0  0  0  0  0  0  0  0  0  0  0  0
   58.9720   30.7690   50.6480 C   0  0  0  0  0  0  0  0  0  0  0  0
   58.3578   29.8615   50.5525 H   0  0  0  0  0  0  0  0  0  0  0  0
   58.5390   31.8230   51.4590 C   0  0  0  0  0  0  0  0  0  0  0  0
   57.5878   31.7412   52.0054 H   0  0  0  0  0  0  0  0  0  0  0  0
   59.3160   32.9830   51.5760 C   0  0  0  0  0  0  0  0  0  0  0  0
   58.8720   34.0680   52.4120 C   0  0  0  0  0  0  0  0  0  0  0  0
   58.5150   34.9400   53.0830 N   0  0  0  0  0  0  0  0  0  0  0  0
   60.5270   33.0840   50.8770 C   0  0  0  0  0  0  0  0  0  0  0  0
   61.1382   33.9943   50.9658 H   0  0  0  0  0  0  0  0  0  0  0  0
   60.9590   32.0290   50.0670 C   0  0  0  0  0  0  0  0  0  0  0  0
   61.9070   32.1119   49.5153 H   0  0  0  0  0  0  0  0  0  0  0  0
   59.0840   28.8540   46.8650 N   0  0  0  0  0  0  0  0  0  0  0  0
   58.1790   29.1490   45.9060 C   0  0  0  0  0  0  0  0  0  0  0  0
  1  2  1  0
  2  3  1  0
  3  4  1  0
  4  5  1  0
  5  6  2  0
  5  7  1  0
  7  8  1  0
  8  9  1  0
  2 10  2  3
 10 11  1  0
 11 12  1  0
 11 13  2  0
 13 14  1  0
 14 15  1  0
 15 16  2  0
 16 17  1  0
 17 18  1  0
 17 19  1  0
 19 20  1  0
 19 21  1  0
 19 22  1  0
 22 23  1  0
 22 24  1  0
 15 25  1  0
 25 26  1  0
 25 27  2  0
 27 28  1  0
 28 29  1  0
 29 30  2  0
 30 31  1  0
 30 32  1  0
 32 33  1  0
 32 34  2  0
 34 35  1  0
 35 36  3  0
 34 37  1  0
 37 38  1  0
 37 39  2  0
 39 40  1  0
 27 41  1  0
 41 42  2  0
  8  3  2  0
 42 10  1  0
 42 14  1  0
 22 17  1  0
 39 29  1  0
M  CHG  4   4  -1   7  -1   9  -1  25   1
M  END
>  <UniqueID>  (91) 
88

>  <SMILES>  (91) 
N#Cc1ccc(Sc2nc3c(=Cc4[n-]c(=O)[n-]c4[O-])cnn3/c(=N\C3CC3)[nH+]2)cc1

>  <Energy>  (91) 
406.6346258048429

>  <Genealogy>  (91) 
N#Cc1ccc(Sc2nc3c(=Cc4[n-]c(=O)[n-]c4[O-])cnn3c(=NC3CC3)[nH+]2)cc1 (protonated)
N#Cc1ccc(Sc2nc3c(=Cc4[n-]c(=O)[n-]c4[O-])cnn3/c(=N\C3CC3)[nH+]2)cc1 (cis-trans isomerization)
N#Cc1ccc(Sc2nc3c(=Cc4[n-]c(=O)[n-]c4[O-])cnn3/c(=N\C3CC3)[nH+]2)cc1 (3D coordinates assigned)
N#Cc1ccc(Sc2nc3c(=Cc4[n-]c(=O)[n-]c4[O-])cnn3/c(=N\C3CC3)[nH+]2)cc1 (nonaromatic ring conformer: 406.6346258048429 kcal/mol)

>  <smiles>  (91) 
N#Cc1ccc(Sc2nc(=NC3CC3)n3ncc(=Cc4[nH]c(=O)[nH]c4O)c3n2)cc1

>  <score_type>  (91) 
oracle

>  <origin>  (91) 
adg

>  <m_score__min__energy>  (91) 
-16.059999999999999

>  <m_primary>  (91) 
energy

$$$$
91:0
     RDKit          3D

 33 35  0  0  0  0  0  0  0  0999 V2000
   61.2934   30.0927   46.8882 H   0  0  0  0  0  0  0  0  0  0  0  0
   60.3810   29.8360   46.3300 C   0  0  0  0  0  0  0  0  0  0  0  0
   60.1927   28.7936   46.0334 H   0  0  0  0  0  0  0  0  0  0  0  0
   59.4870   30.8060   46.0070 C   0  0  0  0  0  0  0  0  0  0  0  0
   58.2830   30.5030   45.2770 C   0  0  0  0  0  0  0  0  0  0  0  0
   58.0920   29.2900   44.6750 C   0  0  0  0  0  0  0  0  0  0  0  0
   58.4294   29.1925   43.6326 H   0  0  0  0  0  0  0  0  0  0  0  0
   57.4740   28.0960   45.2940 C   0  0  0  0  0  0  0  0  0  0  0  0
   56.0790   27.9670   45.3520 C   0  0  0  0  0  0  0  0  0  0  0  0
   55.2550   28.9820   44.8770 O   0  0  0  0  0  0  0  0  0  0  0  0
   55.5210   26.8490   45.8820 N   0  0  0  0  0  0  0  0  0  0  0  0
   56.2940   25.8330   46.3490 C   0  0  0  0  0  0  0  0  0  0  0  0
   55.7560   24.8080   46.8400 O   0  0  0  0  0  0  0  0  0  0  0  0
   57.6480   25.9230   46.2810 N   0  0  0  0  0  0  0  0  0  0  0  0
   58.2540   27.0210   45.7590 C   0  0  0  0  0  0  0  0  0  0  0  0
   59.5110   27.0610   45.6910 O   0  0  0  0  0  0  0  0  0  0  0  0
   57.3260   31.5460   45.1540 C   0  0  0  0  0  0  0  0  0  0  0  0
   56.2450   31.3900   44.5280 O   0  0  0  0  0  0  0  0  0  0  0  0
   57.5790   32.7660   45.6730 N   0  0  0  0  0  0  0  0  0  0  0  0
   58.7350   33.0560   46.3010 C   0  0  0  0  0  0  0  0  0  0  0  0
   58.9110   34.2290   46.7350 O   0  0  0  0  0  0  0  0  0  0  0  0
   59.6990   32.1000   46.4570 N   0  0  0  0  0  0  0  0  0  0  0  0
   60.9290   32.4910   47.1080 C   0  0  0  0  0  0  0  0  0  0  0  0
   61.2590   31.9690   48.3680 C   0  0  0  0  0  0  0  0  0  0  0  0
   60.5802   31.2592   48.8634 H   0  0  0  0  0  0  0  0  0  0  0  0
   62.4500   32.3500   48.9950 C   0  0  0  0  0  0  0  0  0  0  0  0
   62.7074   31.9383   49.9821 H   0  0  0  0  0  0  0  0  0  0  0  0
   63.3140   33.2540   48.3680 C   0  0  0  0  0  0  0  0  0  0  0  0
   64.4970   33.6310   48.9920 O   0  0  0  0  0  0  0  0  0  0  0  0
   62.9860   33.7780   47.1130 C   0  0  0  0  0  0  0  0  0  0  0  0
   63.6651   34.4895   46.6205 H   0  0  0  0  0  0  0  0  0  0  0  0
   61.7970   33.3990   46.4840 C   0  0  0  0  0  0  0  0  0  0  0  0
   61.5414   33.8136   45.4977 H   0  0  0  0  0  0  0  0  0  0  0  0
  1  2  1  0
  2  3  1  0
  2  4  2  0
  4  5  1  0
  5  6  2  0
  6  7  1  0
  6  8  1  0
  8  9  2  0
  9 10  1  0
  9 11  1  0
 11 12  1  0
 12 13  2  0
 12 14  1  0
 14 15  1  0
 15 16  2  0
  5 17  1  0
 17 18  2  0
 17 19  1  0
 19 20  1  0
 20 21  2  0
 20 22  1  0
 22 23  1  0
 23 24  2  0
 24 25  1  0
 24 26  1  0
 26 27  1  0
 26 28  2  0
 28 29  1  0
 28 30  1  0
 30 31  1  0
 30 32  2  0
 32 33  1  0
 22  4  1  0
 32 23  1  0
 15  8  1  0
M  CHG  5  10  -1  11  -1  14  -1  19  -1  29  -1
M  END
>  <UniqueID>  (92) 
89

>  <SMILES>  (92) 
C=c1/c(=C/c2c([O-])[n-]c(=O)[n-]c2=O)c(=O)[n-]c(=O)n1-c1ccc([O-])cc1

>  <Energy>  (92) 
76.2927183231451

>  <Genealogy>  (92) 
C=c1c(=Cc2c([O-])[n-]c(=O)[n-]c2=O)c(=O)[n-]c(=O)n1-c1ccc([O-])cc1 (protonated)
C=c1/c(=C/c2c([O-])[n-]c(=O)[n-]c2=O)c(=O)[n-]c(=O)n1-c1ccc([O-])cc1 (cis-trans isomerization)
C=c1/c(=C/c2c([O-])[n-]c(=O)[n-]c2=O)c(=O)[n-]c(=O)n1-c1ccc([O-])cc1 (3D coordinates assigned)
C=c1/c(=C/c2c([O-])[n-]c(=O)[n-]c2=O)c(=O)[n-]c(=O)n1-c1ccc([O-])cc1 (optimized conformer: 76.2927183231451 kcal/mol)

>  <smiles>  (92) 
C=c1c(=Cc2c(O)[nH]c(=O)[nH]c2=O)c(=O)[nH]c(=O)n1-c1ccc(O)cc1

>  <score_type>  (92) 
oracle

>  <origin>  (92) 
adg

>  <m_score__min__energy>  (92) 
-17.09

>  <m_primary>  (92) 
energy

$$$$
92:0
     RDKit          3D

 38 40  0  0  0  0  0  0  0  0999 V2000
   60.7912   32.7366   49.5923 H   0  0  0  0  0  0  0  0  0  0  0  0
   60.3160   33.0500   48.6510 C   0  0  0  0  0  0  0  0  0  0  0  0
   58.9600   33.1030   48.5590 N   0  0  0  0  0  0  0  0  0  0  0  0
   58.3350   33.4840   47.4120 C   0  0  0  0  0  0  0  0  0  0  0  0
   57.2363   33.5201   47.3720 H   0  0  0  0  0  0  0  0  0  0  0  0
   59.0880   33.8310   46.2800 C   0  0  0  0  0  0  0  0  0  0  0  0
   58.4060   34.3130   45.0270 C   0  0  0  0  0  0  0  0  0  0  0  0
   59.1196   34.8940   44.4244 H   0  0  0  0  0  0  0  0  0  0  0  0
   57.5490   34.9451   45.3028 H   0  0  0  0  0  0  0  0  0  0  0  0
   57.9150   33.1380   44.2230 C   0  0  0  0  0  0  0  0  0  0  0  0
   58.1380   33.0730   42.8390 C   0  0  0  0  0  0  0  0  0  0  0  0
   58.6365   33.9076   42.3242 H   0  0  0  0  0  0  0  0  0  0  0  0
   57.7290   31.9520   42.1130 C   0  0  0  0  0  0  0  0  0  0  0  0
   57.8849   31.9164   41.0247 H   0  0  0  0  0  0  0  0  0  0  0  0
   57.1220   30.8750   42.7660 C   0  0  0  0  0  0  0  0  0  0  0  0
   56.8055   29.9936   42.1889 H   0  0  0  0  0  0  0  0  0  0  0  0
   56.9140   30.9120   44.1550 C   0  0  0  0  0  0  0  0  0  0  0  0
   56.3430   29.7390   44.8610 C   0  0  0  0  0  0  0  0  0  0  0  0
   55.1830   29.3430   44.5700 O   0  0  0  0  0  0  0  0  0  0  0  0
   57.0490   29.0820   45.9260 N   0  0  0  0  0  0  0  0  0  0  0  0
   57.0890   27.8010   46.1810 C   0  0  0  0  0  0  0  0  0  0  0  0
   58.2290   27.1760   46.7320 C   0  0  0  0  0  0  0  0  0  0  0  0
   59.1336   27.7649   46.9441 H   0  0  0  0  0  0  0  0  0  0  0  0
   58.2030   25.8090   47.0060 C   0  0  0  0  0  0  0  0  0  0  0  0
   59.0829   25.3192   47.4485 H   0  0  0  0  0  0  0  0  0  0  0  0
   57.0590   25.0630   46.7180 C   0  0  0  0  0  0  0  0  0  0  0  0
   57.0170   23.6550   47.0070 C   0  0  0  0  0  0  0  0  0  0  0  0
   56.9820   22.5210   47.2410 N   0  0  0  0  0  0  0  0  0  0  0  0
   55.9560   25.7030   46.1460 C   0  0  0  0  0  0  0  0  0  0  0  0
   55.0515   25.1250   45.9057 H   0  0  0  0  0  0  0  0  0  0  0  0
   55.9960   27.0380   45.8850 N   0  0  0  0  0  0  0  0  0  0  0  0
   55.1520   27.4870   45.4620 H   0  0  0  0  0  0  0  0  0  0  0  0
   57.2820   32.0660   44.8690 C   0  0  0  0  0  0  0  0  0  0  0  0
   57.0710   32.1288   45.9467 H   0  0  0  0  0  0  0  0  0  0  0  0
   60.4880   33.7920   46.3650 C   0  0  0  0  0  0  0  0  0  0  0  0
   61.0997   34.0759   45.4959 H   0  0  0  0  0  0  0  0  0  0  0  0
   61.1050   33.3930   47.5520 C   0  0  0  0  0  0  0  0  0  0  0  0
   62.2020   33.3494   47.6205 H   0  0  0  0  0  0  0  0  0  0  0  0
  1  2  1  0
  2  3  2  0
  3  4  1  0
  4  5  1  0
  4  6  2  0
  6  7  1  0
  7  8  1  0
  7  9  1  0
  7 10  1  0
 10 11  2  0
 11 12  1  0
 11 13  1  0
 13 14  1  0
 13 15  2  0
 15 16  1  0
 15 17  1  0
 17 18  1  0
 18 19  2  0
 18 20  1  0
 20 21  2  0
 21 22  1  0
 22 23  1  0
 22 24  2  0
 24 25  1  0
 24 26  1  0
 26 27  1  0
 27 28  3  0
 26 29  2  0
 29 30  1  0
 29 31  1  0
 31 32  1  0
 17 33  2  0
 33 34  1  0
  6 35  1  0
 35 36  1  0
 35 37  2  0
 37 38  1  0
 37  2  1  0
 33 10  1  0
 31 21  1  0
M  END
>  <UniqueID>  (93) 
90

>  <SMILES>  (93) 
N#Cc1cc/c(=N\C(=O)c2cccc(Cc3cccnc3)c2)[nH]c1

>  <Energy>  (93) 
47.366949853851324

>  <Genealogy>  (93) 
N#Cc1cc/c(=N\C(=O)c2cccc(Cc3cccnc3)c2)[nH]c1 (cis-trans isomerization)
N#Cc1cc/c(=N\C(=O)c2cccc(Cc3cccnc3)c2)[nH]c1 (3D coordinates assigned)
N#Cc1cc/c(=N\C(=O)c2cccc(Cc3cccnc3)c2)[nH]c1 (optimized conformer: 47.366949853851324 kcal/mol)

>  <smiles>  (93) 
N#Cc1ccc(=NC(=O)c2cccc(Cc3cccnc3)c2)[nH]c1

>  <score_type>  (93) 
oracle

>  <origin>  (93) 
adg

>  <m_score__min__energy>  (93) 
-8.3200000000000003

>  <m_primary>  (93) 
energy

$$$$
