0:0
     RDKit          3D

 42 44  0  0  0  0  0  0  0  0999 V2000
   60.5610   26.9290   47.2300 H   0  0  0  0  0  0  0  0  0  0  0  0
   60.4890   27.2120   48.2330 N   0  0  0  0  0  0  0  0  0  0  0  0
   60.4620   28.4590   48.5720 C   0  0  0  0  0  0  0  0  0  0  0  0
   61.0250   28.8800   49.7730 O   0  0  0  0  0  0  0  0  0  0  0  0
   60.6120   30.0880   50.4220 C   0  0  1  0  0  0  0  0  0  0  0  0
   59.7840   29.8350   51.1006 H   0  0  0  0  0  0  0  0  0  0  0  0
   61.7700   30.6500   51.2580 C   0  0  0  0  0  0  0  0  0  0  0  0
   62.9650   30.5590   50.5680 F   0  0  0  0  0  0  0  0  0  0  0  0
   61.8810   29.9340   52.4360 F   0  0  0  0  0  0  0  0  0  0  0  0
   61.5300   31.9770   51.5700 F   0  0  0  0  0  0  0  0  0  0  0  0
   59.9950   31.1450   49.4470 C   0  0  0  0  0  0  0  0  0  0  0  0
   60.4598   32.1184   49.6627 H   0  0  0  0  0  0  0  0  0  0  0  0
   58.9096   31.1258   49.6248 H   0  0  0  0  0  0  0  0  0  0  0  0
   60.1890   30.8440   47.9270 C   0  0  1  0  0  0  0  0  0  0  0  0
   59.2790   31.7410   47.0700 C   0  0  0  0  0  0  0  0  0  0  0  0
   58.3480   31.1470   46.2670 N   0  0  0  0  0  0  0  0  0  0  0  0
   57.4760   31.8290   45.4800 C   0  0  0  0  0  0  0  0  0  0  0  0
   56.6460   31.1350   44.7520 N   0  0  0  0  0  0  0  0  0  0  0  0
   56.3190   29.7390   44.8370 C   0  0  0  0  0  0  0  0  0  0  0  0
   55.1480   29.3490   44.5760 O   0  0  0  0  0  0  0  0  0  0  0  0
   57.3810   28.7450   45.1180 C   0  0  0  0  0  0  0  0  0  0  0  0
   58.6430   28.8530   44.5070 C   0  0  0  0  0  0  0  0  0  0  0  0
   58.8521   29.6812   43.8139 H   0  0  0  0  0  0  0  0  0  0  0  0
   59.6300   27.9040   44.7840 C   0  0  0  0  0  0  0  0  0  0  0  0
   60.6194   27.9873   44.3105 H   0  0  0  0  0  0  0  0  0  0  0  0
   59.3710   26.8780   45.6370 N   0  0  0  0  0  0  0  0  0  0  0  0
   58.1620   26.7440   46.2420 C   0  0  0  0  0  0  0  0  0  0  0  0
   57.9821   25.9027   46.9275 H   0  0  0  0  0  0  0  0  0  0  0  0
   57.1460   27.6720   45.9960 C   0  0  0  0  0  0  0  0  0  0  0  0
   56.1675   27.5635   46.4868 H   0  0  0  0  0  0  0  0  0  0  0  0
   57.4880   33.2400   45.5210 C   0  0  0  0  0  0  0  0  0  0  0  0
   56.5700   33.9990   44.8740 F   0  0  0  0  0  0  0  0  0  0  0  0
   58.4140   33.8860   46.3380 C   0  0  0  0  0  0  0  0  0  0  0  0
   58.4354   34.9854   46.3689 H   0  0  0  0  0  0  0  0  0  0  0  0
   59.3140   33.1590   47.1170 C   0  0  0  0  0  0  0  0  0  0  0  0
   60.4130   34.0840   48.1420 Cl  0  0  0  0  0  0  0  0  0  0  0  0
   61.6610   31.1220   47.5400 C   0  0  0  0  0  0  0  0  0  0  0  0
   62.2647   31.2360   48.4524 H   0  0  0  0  0  0  0  0  0  0  0  0
   62.0491   30.2813   46.9462 H   0  0  0  0  0  0  0  0  0  0  0  0
   61.7157   32.0464   46.9462 H   0  0  0  0  0  0  0  0  0  0  0  0
   59.8700   29.4280   47.7110 N   0  0  0  0  0  0  0  0  0  0  0  0
   59.1490   29.1170   47.0230 H   0  0  0  0  0  0  0  0  0  0  0  0
  1  2  1  0
  2  3  2  0
  3  4  1  0
  4  5  1  0
  5  6  1  1
  5  7  1  0
  7  8  1  0
  7  9  1  0
  7 10  1  0
  5 11  1  0
 11 12  1  0
 11 13  1  0
 11 14  1  0
 14 15  1  0
 15 16  1  0
 16 17  1  0
 17 18  2  3
 18 19  1  0
 19 20  2  0
 19 21  1  0
 21 22  2  0
 22 23  1  0
 22 24  1  0
 24 25  1  0
 24 26  2  0
 26 27  1  0
 27 28  1  0
 27 29  2  0
 29 30  1  0
 17 31  1  0
 31 32  1  0
 31 33  2  0
 33 34  1  0
 33 35  1  0
 35 36  1  0
 14 37  1  6
 37 38  1  0
 37 39  1  0
 37 40  1  0
 14 41  1  0
 41 42  1  0
 41  3  1  0
 35 15  2  0
 29 21  1  0
M  CHG  1  16  -1
M  END
>  <UniqueID>  (1) 
1

>  <SMILES>  (1) 
[H]/N=C1/N[C@@](C)(c2[n-]c(=NC(=O)c3ccncc3)c(F)cc2Cl)C[C@H](C(F)(F)F)O1

>  <Energy>  (1) 
66.83223815948186

>  <Genealogy>  (1) 
CC1(c2[n-]c(=NC(=O)c3ccncc3)c(F)cc2Cl)CC(C(F)(F)F)OC(=N)N1 (protonated)
C[C@]1(c2[n-]c(=NC(=O)c3ccncc3)c(F)cc2Cl)C[C@H](C(F)(F)F)OC(=N)N1 (chirality)
[H]/N=C1/N[C@@](C)(c2[n-]c(=NC(=O)c3ccncc3)c(F)cc2Cl)C[C@H](C(F)(F)F)O1 (cis-trans isomerization)
[H]/N=C1/N[C@@](C)(c2[n-]c(=NC(=O)c3ccncc3)c(F)cc2Cl)C[C@H](C(F)(F)F)O1 (3D coordinates assigned)
[H]/N=C1/N[C@@](C)(c2[n-]c(=NC(=O)c3ccncc3)c(F)cc2Cl)C[C@H](C(F)(F)F)O1 (nonaromatic ring conformer: 66.83223815948186 kcal/mol)

>  <smiles>  (1) 
CC1(c2[nH]c(=NC(=O)c3ccncc3)c(F)cc2Cl)CC(C(F)(F)F)OC(=N)N1

>  <score_type>  (1) 
oracle

>  <origin>  (1) 
adg

>  <m_score__min__energy>  (1) 
-7.8600000000000003

>  <m_primary>  (1) 
energy

$$$$
1:0
     RDKit          3D

 64 67  0  0  0  0  0  0  0  0999 V2000
   57.8822   29.2217   46.6068 H   0  0  0  0  0  0  0  0  0  0  0  0
   58.9160   28.8470   46.6350 C   0  0  0  0  0  0  0  0  0  0  0  0
   60.0230   29.8190   46.5200 C   0  0  0  0  0  0  0  0  0  0  0  0
   60.8950   29.6220   45.6310 O   0  0  0  0  0  0  0  0  0  0  0  0
   60.1200   30.9850   47.3700 N   0  0  0  0  0  0  0  0  0  0  0  0
   61.3400   31.2670   48.0870 C   0  0  0  0  0  0  0  0  0  0  0  0
   62.3950   31.9390   47.4580 C   0  0  0  0  0  0  0  0  0  0  0  0
   62.2787   32.2886   46.4216 H   0  0  0  0  0  0  0  0  0  0  0  0
   63.5950   32.1690   48.1370 C   0  0  0  0  0  0  0  0  0  0  0  0
   64.4112   32.7005   47.6258 H   0  0  0  0  0  0  0  0  0  0  0  0
   63.7790   31.7310   49.4690 C   0  0  0  0  0  0  0  0  0  0  0  0
   65.0420   31.9490   50.1710 N   0  0  0  0  0  0  0  0  0  0  0  0
   65.5070   30.9500   51.1580 C   0  0  0  0  0  0  0  0  0  0  0  0
   64.7212   30.8201   51.9167 H   0  0  0  0  0  0  0  0  0  0  0  0
   65.7134   30.0230   50.6030 H   0  0  0  0  0  0  0  0  0  0  0  0
   66.8060   31.3430   51.8700 C   0  0  0  0  0  0  0  0  0  0  0  0
   66.5660   32.0108   52.7105 H   0  0  0  0  0  0  0  0  0  0  0  0
   67.2962   30.4261   52.2291 H   0  0  0  0  0  0  0  0  0  0  0  0
   67.6880   32.0050   50.9960 O   0  0  0  0  0  0  0  0  0  0  0  0
   67.1320   33.2560   50.6680 C   0  0  0  0  0  0  0  0  0  0  0  0
   66.8346   33.7729   51.5923 H   0  0  0  0  0  0  0  0  0  0  0  0
   67.8849   33.8474   50.1264 H   0  0  0  0  0  0  0  0  0  0  0  0
   65.9040   33.0820   49.7720 C   0  0  0  0  0  0  0  0  0  0  0  0
   65.3078   34.0055   49.8142 H   0  0  0  0  0  0  0  0  0  0  0  0
   66.2702   32.8697   48.7567 H   0  0  0  0  0  0  0  0  0  0  0  0
   62.6940   31.0760   50.0970 C   0  0  0  0  0  0  0  0  0  0  0  0
   62.7946   30.7406   51.1398 H   0  0  0  0  0  0  0  0  0  0  0  0
   61.4960   30.8480   49.4140 C   0  0  0  0  0  0  0  0  0  0  0  0
   60.6676   30.3344   49.9239 H   0  0  0  0  0  0  0  0  0  0  0  0
   58.9060   31.7470   47.6940 C   0  0  0  0  0  0  0  0  0  0  0  0
   58.0302   31.0866   47.6111 H   0  0  0  0  0  0  0  0  0  0  0  0
   58.9901   32.1346   48.7200 H   0  0  0  0  0  0  0  0  0  0  0  0
   58.7470   32.9020   46.7470 C   0  0  0  0  0  0  0  0  0  0  0  0
   57.7710   32.9390   45.7580 C   0  0  0  0  0  0  0  0  0  0  0  0
   57.0058   32.1702   45.5752 H   0  0  0  0  0  0  0  0  0  0  0  0
   57.9660   34.3650   44.8910 S   0  0  0  0  0  0  0  0  0  0  0  0
   59.2860   34.9440   45.7550 C   0  0  0  0  0  0  0  0  0  0  0  0
   59.8116   35.8927   45.5714 H   0  0  0  0  0  0  0  0  0  0  0  0
   59.5980   34.0180   46.7400 C   0  0  0  0  0  0  0  0  0  0  0  0
   60.4312   34.1461   47.4466 H   0  0  0  0  0  0  0  0  0  0  0  0
   59.1160   27.5300   46.7720 C   0  0  0  0  0  0  0  0  0  0  0  0
   60.0670   27.1885   47.2067 H   0  0  0  0  0  0  0  0  0  0  0  0
   58.1220   26.5110   46.3680 C   0  0  0  0  0  0  0  0  0  0  0  0
   58.4890   25.1950   46.0360 C   0  0  0  0  0  0  0  0  0  0  0  0
   59.5485   24.9003   46.0605 H   0  0  0  0  0  0  0  0  0  0  0  0
   57.5160   24.2590   45.6750 C   0  0  0  0  0  0  0  0  0  0  0  0
   57.8172   23.2343   45.4118 H   0  0  0  0  0  0  0  0  0  0  0  0
   56.1570   24.6140   45.6450 C   0  0  0  0  0  0  0  0  0  0  0  0
   55.1170   23.5770   45.2550 C   0  0  0  0  0  0  0  0  0  0  0  0
   54.1864   24.1024   44.9943 H   0  0  0  0  0  0  0  0  0  0  0  0
   54.9990   22.9062   46.1188 H   0  0  0  0  0  0  0  0  0  0  0  0
   55.5090   22.7290   44.1070 N   0  0  0  0  0  0  0  0  0  0  0  0
   56.3550   21.5920   44.5040 C   0  0  0  0  0  0  0  0  0  0  0  0
   56.3988   21.5332   45.6016 H   0  0  0  0  0  0  0  0  0  0  0  0
   55.9287   20.6604   44.1036 H   0  0  0  0  0  0  0  0  0  0  0  0
   57.3698   21.7327   44.1036 H   0  0  0  0  0  0  0  0  0  0  0  0
   56.1360   23.4940   43.0180 C   0  0  0  0  0  0  0  0  0  0  0  0
   56.7789   24.2784   43.4439 H   0  0  0  0  0  0  0  0  0  0  0  0
   56.7436   22.8185   42.3979 H   0  0  0  0  0  0  0  0  0  0  0  0
   55.3543   23.9571   42.3979 H   0  0  0  0  0  0  0  0  0  0  0  0
   55.7890   25.9350   45.9680 C   0  0  0  0  0  0  0  0  0  0  0  0
   54.4580   26.3380   45.9140 O   0  0  0  0  0  0  0  0  0  0  0  0
   56.7640   26.8660   46.3400 C   0  0  0  0  0  0  0  0  0  0  0  0
   56.4634   27.8881   46.6138 H   0  0  0  0  0  0  0  0  0  0  0  0
  1  2  1  0
  2  3  1  0
  3  4  2  0
  3  5  1  0
  5  6  1  0
  6  7  2  0
  7  8  1  0
  7  9  1  0
  9 10  1  0
  9 11  2  0
 11 12  1  0
 12 13  1  0
 13 14  1  0
 13 15  1  0
 13 16  1  0
 16 17  1  0
 16 18  1  0
 16 19  1  0
 19 20  1  0
 20 21  1  0
 20 22  1  0
 20 23  1  0
 23 24  1  0
 23 25  1  0
 11 26  1  0
 26 27  1  0
 26 28  2  0
 28 29  1  0
  5 30  1  0
 30 31  1  0
 30 32  1  0
 30 33  1  0
 33 34  2  0
 34 35  1  0
 34 36  1  0
 36 37  1  0
 37 38  1  0
 37 39  2  0
 39 40  1  0
  2 41  2  0
 41 42  1  0
 41 43  1  0
 43 44  2  0
 44 45  1  0
 44 46  1  0
 46 47  1  0
 46 48  2  0
 48 49  1  0
 49 50  1  0
 49 51  1  0
 49 52  1  0
 52 53  1  0
 53 54  1  0
 53 55  1  0
 53 56  1  0
 52 57  1  0
 57 58  1  0
 57 59  1  0
 57 60  1  0
 48 61  1  0
 61 62  1  0
 61 63  2  0
 63 64  1  0
 28  6  1  0
 39 33  1  0
 63 43  1  0
 23 12  1  0
M  CHG  1  62  -1
M  END
>  <UniqueID>  (2) 
2

>  <SMILES>  (2) 
CN(C)Cc1ccc(/C=C/C(=O)N(Cc2ccsc2)c2ccc(N3CCOCC3)cc2)cc1[O-]

>  <Energy>  (2) 
111.00753045560931

>  <Genealogy>  (2) 
CN(C)Cc1ccc(C=CC(=O)N(Cc2ccsc2)c2ccc(N3CCOCC3)cc2)cc1[O-] (protonated)
CN(C)Cc1ccc(/C=C/C(=O)N(Cc2ccsc2)c2ccc(N3CCOCC3)cc2)cc1[O-] (cis-trans isomerization)
CN(C)Cc1ccc(/C=C/C(=O)N(Cc2ccsc2)c2ccc(N3CCOCC3)cc2)cc1[O-] (3D coordinates assigned)
CN(C)Cc1ccc(/C=C/C(=O)N(Cc2ccsc2)c2ccc(N3CCOCC3)cc2)cc1[O-] (nonaromatic ring conformer: 111.00753045560931 kcal/mol)

>  <smiles>  (2) 
CN(C)Cc1ccc(C=CC(=O)N(Cc2ccsc2)c2ccc(N3CCOCC3)cc2)cc1O

>  <score_type>  (2) 
oracle

>  <origin>  (2) 
adg

>  <m_score__min__energy>  (2) 
-12.93

>  <m_primary>  (2) 
energy

$$$$
2:0
     RDKit          3D

 28 30  0  0  0  0  0  0  0  0999 V2000
   58.5390   29.9840   43.8210 O   0  0  0  0  0  0  0  0  0  0  0  0
   57.7420   29.9560   44.7960 C   0  0  0  0  0  0  0  0  0  0  0  0
   57.2810   31.1740   45.3930 N   0  0  0  0  0  0  0  0  0  0  0  0
   58.1170   32.2500   45.8410 C   0  0  0  0  0  0  0  0  0  0  0  0
   59.3370   31.9390   46.4560 C   0  0  0  0  0  0  0  0  0  0  0  0
   60.1990   32.9560   46.9100 C   0  0  0  0  0  0  0  0  0  0  0  0
   61.4860   32.6420   47.5840 C   0  0  0  0  0  0  0  0  0  0  0  0
   62.7240   33.1900   47.2210 C   0  0  0  0  0  0  0  0  0  0  0  0
   63.9040   32.5710   48.2510 S   0  0  0  0  0  0  0  0  0  0  0  0
   62.8010   31.6440   49.1040 C   0  0  0  0  0  0  0  0  0  0  0  0
   63.0980   30.8980   50.0740 O   0  0  0  0  0  0  0  0  0  0  0  0
   61.5440   31.7810   48.6390 N   0  0  0  0  0  0  0  0  0  0  0  0
   59.8180   34.2970   46.7250 C   0  0  0  0  0  0  0  0  0  0  0  0
   58.6190   34.6130   46.0810 C   0  0  0  0  0  0  0  0  0  0  0  0
   57.7750   33.5990   45.6220 C   0  0  0  0  0  0  0  0  0  0  0  0
   56.6230   33.9420   44.9270 O   0  0  0  0  0  0  0  0  0  0  0  0
   57.2390   28.6690   45.2950 C   0  0  0  0  0  0  0  0  0  0  0  0
   58.0090   27.6790   45.8800 C   0  0  0  0  0  0  0  0  0  0  0  0
   57.1430   26.6570   46.1970 C   0  0  0  0  0  0  0  0  0  0  0  0
   55.9000   27.0820   45.7880 C   0  0  0  0  0  0  0  0  0  0  0  0
   54.7300   26.3450   45.9210 O   0  0  0  0  0  0  0  0  0  0  0  0
   55.9410   28.3090   45.2350 N   0  0  0  0  0  0  0  0  0  0  0  0
   59.6256   30.8855   46.5861 H   0  0  0  0  0  0  0  0  0  0  0  0
   62.8958   33.9037   46.4018 H   0  0  0  0  0  0  0  0  0  0  0  0
   60.4697   35.1043   47.0905 H   0  0  0  0  0  0  0  0  0  0  0  0
   58.3381   35.6664   45.9346 H   0  0  0  0  0  0  0  0  0  0  0  0
   59.0945   27.7038   46.0562 H   0  0  0  0  0  0  0  0  0  0  0  0
   57.3928   25.6995   46.6775 H   0  0  0  0  0  0  0  0  0  0  0  0
  1  2  2  0
  2  3  1  0
  3  4  1  0
  4  5  2  0
  5  6  1  0
  6  7  1  0
  7  8  2  0
  8  9  1  0
  9 10  1  0
 10 11  2  0
 10 12  1  0
  6 13  2  0
 13 14  1  0
 14 15  2  0
 15 16  1  0
  2 17  1  0
 17 18  2  0
 18 19  1  0
 19 20  2  0
 20 21  1  0
 20 22  1  0
 15  4  1  0
 22 17  1  0
 12  7  1  0
  5 23  1  0
  8 24  1  0
 13 25  1  0
 14 26  1  0
 18 27  1  0
 19 28  1  0
M  CHG  5   3  -1  12  -1  16  -1  21  -1  22  -1
M  END
>  <UniqueID>  (3) 
3

>  <SMILES>  (3) 
O=C([N-]c1cc(-c2csc(=O)[n-]2)ccc1[O-])c1ccc([O-])[n-]1

>  <Energy>  (3) 
93.61876154456503

>  <Genealogy>  (3) 
O=C([N-]c1cc(-c2csc(=O)[n-]2)ccc1[O-])c1ccc([O-])[n-]1 (protonated)
O=C([N-]c1cc(-c2csc(=O)[n-]2)ccc1[O-])c1ccc([O-])[n-]1 (3D coordinates assigned)
O=C([N-]c1cc(-c2csc(=O)[n-]2)ccc1[O-])c1ccc([O-])[n-]1 (optimized conformer: 93.61876154456503 kcal/mol)

>  <smiles>  (3) 
O=C(Nc1cc(-c2csc(=O)[nH]2)ccc1O)c1ccc(O)[nH]1

>  <score_type>  (3) 
oracle

>  <origin>  (3) 
adg

>  <m_score__min__energy>  (3) 
-15.74

>  <m_primary>  (3) 
energy

$$$$
3:0
     RDKit          3D

 28 29  0  0  0  0  0  0  0  0999 V2000
   58.6710   26.1890   45.5570 C   0  0  0  0  0  0  0  0  0  0  0  0
   57.6160   26.9170   45.9430 C   0  0  0  0  0  0  0  0  0  0  0  0
   57.7170   28.4180   45.9620 C   0  0  0  0  0  0  0  0  0  0  0  0
   56.6020   29.1200   44.7030 S   0  0  0  0  0  0  0  0  0  0  0  0
   57.3590   30.7460   44.7660 C   0  0  0  0  0  0  0  0  0  0  0  0
   57.5060   31.4940   43.5920 C   0  0  0  0  0  0  0  0  0  0  0  0
   58.0940   32.7600   43.6330 C   0  0  0  0  0  0  0  0  0  0  0  0
   58.5380   33.2920   44.8530 C   0  0  0  0  0  0  0  0  0  0  0  0
   59.1320   34.5620   44.9070 C   0  0  0  0  0  0  0  0  0  0  0  0
   59.5700   35.0800   46.1280 C   0  0  0  0  0  0  0  0  0  0  0  0
   59.4210   34.3370   47.3030 C   0  0  0  0  0  0  0  0  0  0  0  0
   58.8320   33.0700   47.2630 C   0  0  0  0  0  0  0  0  0  0  0  0
   58.3870   32.5380   46.0420 C   0  0  0  0  0  0  0  0  0  0  0  0
   57.7950   31.2670   45.9900 C   0  0  0  0  0  0  0  0  0  0  0  0
   56.3760   26.2610   46.4180 C   0  0  0  0  0  0  0  0  0  0  0  0
   56.4240   25.2880   47.2170 O   0  0  0  0  0  0  0  0  0  0  0  0
   55.1350   26.7160   45.9850 O   0  0  0  0  0  0  0  0  0  0  0  0
   58.6052   25.0911   45.5404 H   0  0  0  0  0  0  0  0  0  0  0  0
   59.6037   26.6887   45.2565 H   0  0  0  0  0  0  0  0  0  0  0  0
   57.4292   28.7920   46.9556 H   0  0  0  0  0  0  0  0  0  0  0  0
   58.7522   28.7179   45.7421 H   0  0  0  0  0  0  0  0  0  0  0  0
   57.1569   31.0829   42.6333 H   0  0  0  0  0  0  0  0  0  0  0  0
   58.2094   33.3416   42.7065 H   0  0  0  0  0  0  0  0  0  0  0  0
   59.2530   35.1509   43.9859 H   0  0  0  0  0  0  0  0  0  0  0  0
   60.0341   36.0766   46.1653 H   0  0  0  0  0  0  0  0  0  0  0  0
   59.7682   34.7506   48.2613 H   0  0  0  0  0  0  0  0  0  0  0  0
   58.7169   32.4886   48.1897 H   0  0  0  0  0  0  0  0  0  0  0  0
   57.6733   30.6794   46.9119 H   0  0  0  0  0  0  0  0  0  0  0  0
  1  2  2  0
  2  3  1  0
  3  4  1  0
  4  5  1  0
  5  6  2  0
  6  7  1  0
  7  8  2  0
  8  9  1  0
  9 10  2  0
 10 11  1  0
 11 12  2  0
 12 13  1  0
 13 14  2  0
  2 15  1  0
 15 16  2  0
 15 17  1  0
 14  5  1  0
 13  8  1  0
  1 18  1  0
  1 19  1  0
  3 20  1  0
  3 21  1  0
  6 22  1  0
  7 23  1  0
  9 24  1  0
 10 25  1  0
 11 26  1  0
 12 27  1  0
 14 28  1  0
M  CHG  1  17  -1
M  END
>  <UniqueID>  (4) 
4

>  <SMILES>  (4) 
C=C(CSc1ccc2ccccc2c1)C(=O)[O-]

>  <Energy>  (4) 
25.873177678156726

>  <Genealogy>  (4) 
C=C(CSc1ccc2ccccc2c1)C(=O)[O-] (protonated)
C=C(CSc1ccc2ccccc2c1)C(=O)[O-] (3D coordinates assigned)
C=C(CSc1ccc2ccccc2c1)C(=O)[O-] (optimized conformer: 25.873177678156726 kcal/mol)

>  <smiles>  (4) 
C=C(CSc1ccc2ccccc2c1)C(=O)O

>  <score_type>  (4) 
oracle

>  <origin>  (4) 
adg

>  <m_score__min__energy>  (4) 
-10.24

>  <m_primary>  (4) 
energy

$$$$
4:0
     RDKit          3D

 25 26  0  0  0  0  0  0  0  0999 V2000
   58.3490   26.8830   46.2490 O   0  0  0  0  0  0  0  0  0  0  0  0
   57.6880   26.6170   45.2060 C   0  0  0  0  0  0  0  0  0  0  0  0
   57.8200   27.5160   44.0070 C   0  0  0  0  0  0  0  0  0  0  0  0
   57.6670   28.9550   44.4010 C   0  0  0  0  0  0  0  0  0  0  0  0
   58.6770   29.8830   44.5350 C   0  0  0  0  0  0  0  0  0  0  0  0
   58.0560   31.0350   44.9730 C   0  0  0  0  0  0  0  0  0  0  0  0
   58.7100   32.2310   45.2350 O   0  0  0  0  0  0  0  0  0  0  0  0
   56.7270   30.8740   45.1280 N   0  0  0  0  0  0  0  0  0  0  0  0
   56.5030   29.5920   44.7800 C   0  0  0  0  0  0  0  0  0  0  0  0
   55.2460   28.9960   44.8120 O   0  0  0  0  0  0  0  0  0  0  0  0
   56.8040   25.4300   45.1970 C   0  0  0  0  0  0  0  0  0  0  0  0
   57.3140   24.2010   44.7400 C   0  0  0  0  0  0  0  0  0  0  0  0
   56.5090   23.0580   44.7290 C   0  0  0  0  0  0  0  0  0  0  0  0
   55.1850   23.1290   45.1650 C   0  0  0  0  0  0  0  0  0  0  0  0
   54.3880   21.9920   45.1560 O   0  0  0  0  0  0  0  0  0  0  0  0
   54.6600   24.3480   45.6050 C   0  0  0  0  0  0  0  0  0  0  0  0
   55.4570   25.4990   45.6150 C   0  0  0  0  0  0  0  0  0  0  0  0
   54.8900   26.7040   46.0130 O   0  0  0  0  0  0  0  0  0  0  0  0
   58.8116   27.3696   43.5539 H   0  0  0  0  0  0  0  0  0  0  0  0
   57.0286   27.2616   43.2866 H   0  0  0  0  0  0  0  0  0  0  0  0
   59.7488   29.7368   44.3355 H   0  0  0  0  0  0  0  0  0  0  0  0
   55.1520   27.9940   44.9210 H   0  0  0  0  0  0  0  0  0  0  0  0
   58.3545   24.1389   44.3885 H   0  0  0  0  0  0  0  0  0  0  0  0
   56.9200   22.1007   44.3760 H   0  0  0  0  0  0  0  0  0  0  0  0
   53.6153   24.4029   45.9451 H   0  0  0  0  0  0  0  0  0  0  0  0
  1  2  2  0
  2  3  1  0
  3  4  1  0
  4  5  1  0
  5  6  2  0
  6  7  1  0
  6  8  1  0
  8  9  1  0
  9 10  1  0
  2 11  1  0
 11 12  2  0
 12 13  1  0
 13 14  2  0
 14 15  1  0
 14 16  1  0
 16 17  2  0
 17 18  1  0
  9  4  2  0
 17 11  1  0
  3 19  1  0
  3 20  1  0
  5 21  1  0
 10 22  1  0
 12 23  1  0
 13 24  1  0
 16 25  1  0
M  CHG  4   7  -1   8  -1  15  -1  18  -1
M  END
>  <UniqueID>  (5) 
5

>  <SMILES>  (5) 
O=C(Cc1cc([O-])[n-]c1O)c1ccc([O-])cc1[O-]

>  <Energy>  (5) 
54.990955426994795

>  <Genealogy>  (5) 
O=C(Cc1cc([O-])[n-]c1O)c1ccc([O-])cc1[O-] (protonated)
O=C(Cc1cc([O-])[n-]c1O)c1ccc([O-])cc1[O-] (3D coordinates assigned)
O=C(Cc1cc([O-])[n-]c1O)c1ccc([O-])cc1[O-] (optimized conformer: 54.990955426994795 kcal/mol)

>  <smiles>  (5) 
O=C(Cc1cc(O)[nH]c1O)c1ccc(O)cc1O

>  <score_type>  (5) 
oracle

>  <origin>  (5) 
adg

>  <m_score__min__energy>  (5) 
-15.23

>  <m_primary>  (5) 
energy

$$$$
5:0
     RDKit          3D

 46 48  0  0  0  0  0  0  0  0999 V2000
   57.2560   29.7100   43.9340 C   0  0  0  0  0  0  0  0  0  0  0  0
   57.6560   30.2510   45.0930 C   0  0  0  0  0  0  0  0  0  0  0  0
   57.4400   31.5860   45.2470 N   0  0  0  0  0  0  0  0  0  0  0  0
   57.9630   32.3260   46.2600 C   0  0  0  0  0  0  0  0  0  0  0  0
   57.6660   33.8140   46.2910 C   0  0  0  0  0  0  0  0  0  0  0  0
   58.9570   34.6190   46.1060 C   0  0  0  0  0  0  0  0  0  0  0  0
   56.6400   34.1730   45.2110 C   0  0  0  0  0  0  0  0  0  0  0  0
   58.8270   31.7000   47.1810 C   0  0  0  0  0  0  0  0  0  0  0  0
   59.4830   32.4390   48.2760 C   0  0  0  0  0  0  0  0  0  0  0  0
   58.7900   32.7740   49.2770 O   0  0  0  0  0  0  0  0  0  0  0  0
   60.8890   32.7630   48.2260 N   0  0  0  0  0  0  0  0  0  0  0  0
   61.5740   32.8680   46.9290 C   0  0  0  0  0  0  0  0  0  0  0  0
   63.0870   32.7100   47.1100 C   0  0  0  0  0  0  0  0  0  0  0  0
   63.5660   33.5870   48.1080 O   0  0  0  0  0  0  0  0  0  0  0  0
   63.0330   33.2090   49.3620 C   0  0  0  0  0  0  0  0  0  0  0  0
   61.5140   33.4070   49.3900 C   0  0  0  0  0  0  0  0  0  0  0  0
   59.0530   30.3240   47.0710 C   0  0  0  0  0  0  0  0  0  0  0  0
   58.4100   29.5500   46.0840 C   0  0  0  0  0  0  0  0  0  0  0  0
   58.5380   28.2030   46.1740 C   0  0  0  0  0  0  0  0  0  0  0  0
   57.4300   27.2270   46.2110 C   0  0  0  0  0  0  0  0  0  0  0  0
   56.2340   27.4080   45.6210 N   0  0  0  0  0  0  0  0  0  0  0  0
   55.5290   26.3210   46.0030 C   0  0  0  0  0  0  0  0  0  0  0  0
   54.3440   26.1170   45.6310 O   0  0  0  0  0  0  0  0  0  0  0  0
   56.1920   25.4730   46.8160 N   0  0  0  0  0  0  0  0  0  0  0  0
   57.3910   26.0650   46.9500 C   0  0  0  0  0  0  0  0  0  0  0  0
   58.4220   25.5410   47.7260 O   0  0  0  0  0  0  0  0  0  0  0  0
   57.4026   28.6356   43.7489 H   0  0  0  0  0  0  0  0  0  0  0  0
   56.7810   30.3403   43.1678 H   0  0  0  0  0  0  0  0  0  0  0  0
   57.2388   34.0701   47.2718 H   0  0  0  0  0  0  0  0  0  0  0  0
   59.3721   34.8778   47.0912 H   0  0  0  0  0  0  0  0  0  0  0  0
   59.6880   34.0163   45.5470 H   0  0  0  0  0  0  0  0  0  0  0  0
   58.7375   35.5406   45.5470 H   0  0  0  0  0  0  0  0  0  0  0  0
   55.7045   34.5003   45.6883 H   0  0  0  0  0  0  0  0  0  0  0  0
   57.0361   34.9859   44.5847 H   0  0  0  0  0  0  0  0  0  0  0  0
   56.4428   33.2905   44.5847 H   0  0  0  0  0  0  0  0  0  0  0  0
   61.2046   32.0777   46.2590 H   0  0  0  0  0  0  0  0  0  0  0  0
   61.3678   33.8578   46.4956 H   0  0  0  0  0  0  0  0  0  0  0  0
   63.3090   31.6734   47.4037 H   0  0  0  0  0  0  0  0  0  0  0  0
   63.5836   32.9526   46.1589 H   0  0  0  0  0  0  0  0  0  0  0  0
   63.2619   32.1490   49.5463 H   0  0  0  0  0  0  0  0  0  0  0  0
   63.4850   33.8397   50.1416 H   0  0  0  0  0  0  0  0  0  0  0  0
   61.1080   32.9627   50.3108 H   0  0  0  0  0  0  0  0  0  0  0  0
   61.2953   34.4846   49.3602 H   0  0  0  0  0  0  0  0  0  0  0  0
   59.7477   29.8353   47.7700 H   0  0  0  0  0  0  0  0  0  0  0  0
   59.5605   27.8004   46.2240 H   0  0  0  0  0  0  0  0  0  0  0  0
   59.1870   26.1190   48.0460 H   0  0  0  0  0  0  0  0  0  0  0  0
  1  2  2  0
  2  3  1  0
  3  4  2  0
  4  5  1  0
  5  6  1  0
  5  7  1  0
  4  8  1  0
  8  9  1  0
  9 10  2  0
  9 11  1  0
 11 12  1  0
 12 13  1  0
 13 14  1  0
 14 15  1  0
 15 16  1  0
  8 17  2  0
 17 18  1  0
 18 19  2  3
 19 20  1  0
 20 21  1  0
 21 22  1  0
 22 23  2  0
 22 24  1  0
 24 25  1  0
 25 26  1  0
 18  2  1  0
 25 20  2  0
 16 11  1  0
  1 27  1  0
  1 28  1  0
  5 29  1  0
  6 30  1  0
  6 31  1  0
  6 32  1  0
  7 33  1  0
  7 34  1  0
  7 35  1  0
 12 36  1  0
 12 37  1  0
 13 38  1  0
 13 39  1  0
 15 40  1  0
 15 41  1  0
 16 42  1  0
 16 43  1  0
 17 44  1  0
 19 45  1  0
 26 46  1  0
M  CHG  2  21  -1  24  -1
M  END
>  <UniqueID>  (6) 
6

>  <SMILES>  (6) 
C=c1nc(C(C)C)c(C(=O)N2CCOCC2)cc1=Cc1[n-]c(=O)[n-]c1O

>  <Energy>  (6) 
100.22918872093922

>  <Genealogy>  (6) 
C=c1nc(C(C)C)c(C(=O)N2CCOCC2)cc1=Cc1[n-]c(=O)[n-]c1O (protonated)
C=c1nc(C(C)C)c(C(=O)N2CCOCC2)cc1=Cc1[n-]c(=O)[n-]c1O (3D coordinates assigned)
C=c1nc(C(C)C)c(C(=O)N2CCOCC2)cc1=Cc1[n-]c(=O)[n-]c1O (nonaromatic ring conformer: 100.22918872093922 kcal/mol)

>  <smiles>  (6) 
C=c1nc(C(C)C)c(C(=O)N2CCOCC2)cc1=Cc1[nH]c(=O)[nH]c1O

>  <score_type>  (6) 
oracle

>  <origin>  (6) 
adg

>  <m_score__min__energy>  (6) 
-13.33

>  <m_primary>  (6) 
energy

$$$$
6:0
     RDKit          3D

 59 62  0  0  0  0  0  0  0  0999 V2000
   65.2720   32.7300   49.6960 C   0  0  0  0  0  0  0  0  0  0  0  0
   63.7700   33.2010   48.8640 S   0  0  0  0  0  0  0  0  0  0  0  0
   64.1350   33.8590   47.5630 O   0  0  0  0  0  0  0  0  0  0  0  0
   63.0150   34.1830   49.7180 O   0  0  0  0  0  0  0  0  0  0  0  0
   62.7880   31.7900   48.5520 N   0  0  0  0  0  0  0  0  0  0  0  0
   61.8440   31.5740   49.6600 C   0  0  0  0  0  0  0  0  0  0  0  0
   61.1370   30.2150   49.5050 C   0  0  0  0  0  0  0  0  0  0  0  0
   61.0910   29.7340   48.0370 C   0  0  0  0  0  0  0  0  0  0  0  0
   59.9960   28.8370   47.8390 O   0  0  0  0  0  0  0  0  0  0  0  0
   59.3490   28.5910   46.6170 C   0  0  0  0  0  0  0  0  0  0  0  0
   59.8200   27.6520   45.6790 C   0  0  0  0  0  0  0  0  0  0  0  0
   59.1300   27.4480   44.4820 C   0  0  0  0  0  0  0  0  0  0  0  0
   57.9740   28.1780   44.2020 C   0  0  0  0  0  0  0  0  0  0  0  0
   57.5010   29.1350   45.1160 C   0  0  0  0  0  0  0  0  0  0  0  0
   56.2710   29.9120   44.8330 C   0  0  0  0  0  0  0  0  0  0  0  0
   55.1550   29.3280   44.8430 O   0  0  0  0  0  0  0  0  0  0  0  0
   56.3130   31.3040   44.4910 N   0  0  0  0  0  0  0  0  0  0  0  0
   57.3250   32.2430   44.8820 C   0  0  0  0  0  0  0  0  0  0  0  0
   58.0390   32.9990   43.9420 C   0  0  0  0  0  0  0  0  0  0  0  0
   59.0070   33.8610   44.3500 N   0  0  0  0  0  0  0  0  0  0  0  0
   59.3220   34.0110   45.6650 C   0  0  0  0  0  0  0  0  0  0  0  0
   58.6520   33.2640   46.6510 C   0  0  0  0  0  0  0  0  0  0  0  0
   58.9850   33.4090   48.0510 N   0  0  0  0  0  0  0  0  0  0  0  0
   59.7490   34.5220   48.5950 C   0  0  0  0  0  0  0  0  0  0  0  0
   60.0150   34.1730   50.0530 C   0  0  0  0  0  0  0  0  0  0  0  0
   59.0100   33.0830   50.4060 C   0  0  0  0  0  0  0  0  0  0  0  0
   58.5990   32.4550   49.0820 C   0  0  0  0  0  0  0  0  0  0  0  0
   57.6510   32.3690   46.2350 C   0  0  0  0  0  0  0  0  0  0  0  0
   58.1930   29.3250   46.3250 C   0  0  0  0  0  0  0  0  0  0  0  0
   60.9280   30.9300   47.0930 C   0  0  0  0  0  0  0  0  0  0  0  0
   62.0670   31.9600   47.2730 C   0  0  0  0  0  0  0  0  0  0  0  0
   65.1189   32.7780   50.7842 H   0  0  0  0  0  0  0  0  0  0  0  0
   65.5438   31.7035   49.4089 H   0  0  0  0  0  0  0  0  0  0  0  0
   66.0813   33.4175   49.4089 H   0  0  0  0  0  0  0  0  0  0  0  0
   62.3935   31.5902   50.6128 H   0  0  0  0  0  0  0  0  0  0  0  0
   61.0883   32.3732   49.6461 H   0  0  0  0  0  0  0  0  0  0  0  0
   61.6763   29.4667   50.1043 H   0  0  0  0  0  0  0  0  0  0  0  0
   60.0992   30.3378   49.8484 H   0  0  0  0  0  0  0  0  0  0  0  0
   62.0353   29.2139   47.8182 H   0  0  0  0  0  0  0  0  0  0  0  0
   60.7341   27.0775   45.8898 H   0  0  0  0  0  0  0  0  0  0  0  0
   59.4995   26.7084   43.7564 H   0  0  0  0  0  0  0  0  0  0  0  0
   57.4306   28.0035   43.2616 H   0  0  0  0  0  0  0  0  0  0  0  0
   57.8149   32.8941   42.8702 H   0  0  0  0  0  0  0  0  0  0  0  0
   59.5260   34.4200   43.6360 H   0  0  0  0  0  0  0  0  0  0  0  0
   60.1074   34.7225   45.9598 H   0  0  0  0  0  0  0  0  0  0  0  0
   60.6975   34.6375   48.0501 H   0  0  0  0  0  0  0  0  0  0  0  0
   59.2019   35.4716   48.5005 H   0  0  0  0  0  0  0  0  0  0  0  0
   61.0430   33.8017   50.1771 H   0  0  0  0  0  0  0  0  0  0  0  0
   59.9080   35.0511   50.7068 H   0  0  0  0  0  0  0  0  0  0  0  0
   59.4750   32.3300   51.0593 H   0  0  0  0  0  0  0  0  0  0  0  0
   58.1436   33.4905   50.9476 H   0  0  0  0  0  0  0  0  0  0  0  0
   59.1218   31.4986   48.9335 H   0  0  0  0  0  0  0  0  0  0  0  0
   57.5199   32.2434   49.0530 H   0  0  0  0  0  0  0  0  0  0  0  0
   57.1189   31.7617   46.9821 H   0  0  0  0  0  0  0  0  0  0  0  0
   57.8206   30.0614   47.0524 H   0  0  0  0  0  0  0  0  0  0  0  0
   60.9356   30.5679   46.0543 H   0  0  0  0  0  0  0  0  0  0  0  0
   59.9757   31.4268   47.3303 H   0  0  0  0  0  0  0  0  0  0  0  0
   62.7829   31.8421   46.4463 H   0  0  0  0  0  0  0  0  0  0  0  0
   61.6135   32.9622   47.2760 H   0  0  0  0  0  0  0  0  0  0  0  0
  1  2  1  0
  2  3  2  0
  2  4  2  0
  2  5  1  0
  5  6  1  0
  6  7  1  0
  7  8  1  0
  8  9  1  0
  9 10  1  0
 10 11  2  0
 11 12  1  0
 12 13  2  0
 13 14  1  0
 14 15  1  0
 15 16  2  0
 15 17  1  0
 17 18  1  0
 18 19  2  0
 19 20  1  0
 20 21  2  0
 21 22  1  0
 22 23  1  0
 23 24  1  0
 24 25  1  0
 25 26  1  0
 26 27  1  0
 22 28  2  0
 14 29  2  0
  8 30  1  0
 30 31  1  0
 31  5  1  0
 29 10  1  0
 28 18  1  0
 27 23  1  0
  1 32  1  0
  1 33  1  0
  1 34  1  0
  6 35  1  0
  6 36  1  0
  7 37  1  0
  7 38  1  0
  8 39  1  0
 11 40  1  0
 12 41  1  0
 13 42  1  0
 19 43  1  0
 20 44  1  0
 21 45  1  0
 24 46  1  0
 24 47  1  0
 25 48  1  0
 25 49  1  0
 26 50  1  0
 26 51  1  0
 27 52  1  0
 27 53  1  0
 28 54  1  0
 29 55  1  0
 30 56  1  0
 30 57  1  0
 31 58  1  0
 31 59  1  0
M  CHG  2  17  -1  20   1
M  END
>  <UniqueID>  (7) 
7

>  <SMILES>  (7) 
CS(=O)(=O)N1CCC(Oc2cccc(C(=O)[N-]c3c[nH+]cc(N4CCCC4)c3)c2)CC1

>  <Energy>  (7) 
68.45944365623646

>  <Genealogy>  (7) 
CS(=O)(=O)N1CCC(Oc2cccc(C(=O)[N-]c3c[nH+]cc(N4CCCC4)c3)c2)CC1 (protonated)
CS(=O)(=O)N1CCC(Oc2cccc(C(=O)[N-]c3c[nH+]cc(N4CCCC4)c3)c2)CC1 (3D coordinates assigned)
CS(=O)(=O)N1CCC(Oc2cccc(C(=O)[N-]c3c[nH+]cc(N4CCCC4)c3)c2)CC1 (nonaromatic ring conformer: 68.45944365623646 kcal/mol)

>  <smiles>  (7) 
CS(=O)(=O)N1CCC(Oc2cccc(C(=O)Nc3cncc(N4CCCC4)c3)c2)CC1

>  <score_type>  (7) 
oracle

>  <origin>  (7) 
adg

>  <m_score__min__energy>  (7) 
-9.5299999999999994

>  <m_primary>  (7) 
energy

$$$$
7:0
     RDKit          3D

 32 33  0  0  0  0  0  0  0  0999 V2000
   55.1600   26.6320   45.9970 O   0  0  0  0  0  0  0  0  0  0  0  0
   56.3550   26.5120   46.3780 C   0  0  0  0  0  0  0  0  0  0  0  0
   57.3150   27.6420   46.1630 C   0  0  0  0  0  0  0  0  0  0  0  0
   57.4770   27.9550   44.7420 N   0  0  0  0  0  0  0  0  0  0  0  0
   56.6060   29.3910   44.2760 S   0  0  0  0  0  0  0  0  0  0  0  0
   56.4500   29.3980   42.7810 O   0  0  0  0  0  0  0  0  0  0  0  0
   55.2350   29.3480   44.8910 O   0  0  0  0  0  0  0  0  0  0  0  0
   57.4310   30.8750   44.7590 C   0  0  0  0  0  0  0  0  0  0  0  0
   58.0910   30.9370   45.9940 C   0  0  0  0  0  0  0  0  0  0  0  0
   58.7280   32.1160   46.3930 C   0  0  0  0  0  0  0  0  0  0  0  0
   58.7070   33.2400   45.5610 C   0  0  0  0  0  0  0  0  0  0  0  0
   59.5060   34.7200   46.0610 Cl  0  0  0  0  0  0  0  0  0  0  0  0
   58.0510   33.1820   44.3260 C   0  0  0  0  0  0  0  0  0  0  0  0
   57.4190   32.0020   43.9230 C   0  0  0  0  0  0  0  0  0  0  0  0
   56.8610   25.2470   46.8290 N   0  0  0  0  0  0  0  0  0  0  0  0
   57.1640   24.1670   46.1600 C   0  0  0  0  0  0  0  0  0  0  0  0
   57.3470   23.0220   46.8730 N   0  0  0  0  0  0  0  0  0  0  0  0
   57.6640   21.8350   46.2940 C   0  0  0  0  0  0  0  0  0  0  0  0
   57.8140   21.7530   44.9130 C   0  0  0  0  0  0  0  0  0  0  0  0
   57.6150   22.8940   44.1390 C   0  0  0  0  0  0  0  0  0  0  0  0
   57.2700   24.1110   44.7440 C   0  0  0  0  0  0  0  0  0  0  0  0
   56.9950   25.2100   43.9340 O   0  0  0  0  0  0  0  0  0  0  0  0
   56.9368   28.5344   46.6833 H   0  0  0  0  0  0  0  0  0  0  0  0
   58.2949   27.3384   46.5601 H   0  0  0  0  0  0  0  0  0  0  0  0
   58.1079   30.0552   46.6514 H   0  0  0  0  0  0  0  0  0  0  0  0
   59.2462   32.1595   47.3623 H   0  0  0  0  0  0  0  0  0  0  0  0
   58.0327   34.0660   43.6717 H   0  0  0  0  0  0  0  0  0  0  0  0
   56.9111   31.9568   42.9483 H   0  0  0  0  0  0  0  0  0  0  0  0
   57.8021   20.9387   46.9166 H   0  0  0  0  0  0  0  0  0  0  0  0
   58.0864   20.7988   44.4383 H   0  0  0  0  0  0  0  0  0  0  0  0
   57.7292   22.8399   43.0463 H   0  0  0  0  0  0  0  0  0  0  0  0
   56.5670   26.0520   44.3030 H   0  0  0  0  0  0  0  0  0  0  0  0
  1  2  2  0
  2  3  1  0
  3  4  1  0
  4  5  1  0
  5  6  2  0
  5  7  2  0
  5  8  1  0
  8  9  2  0
  9 10  1  0
 10 11  2  0
 11 12  1  0
 11 13  1  0
 13 14  2  0
  2 15  1  0
 15 16  2  3
 16 17  1  0
 17 18  1  0
 18 19  2  0
 19 20  1  0
 20 21  2  0
 21 22  1  0
 14  8  1  0
 21 16  1  0
  3 23  1  0
  3 24  1  0
  9 25  1  0
 10 26  1  0
 13 27  1  0
 14 28  1  0
 18 29  1  0
 19 30  1  0
 20 31  1  0
 22 32  1  0
M  CHG  2   4  -1  17  -1
M  END
>  <UniqueID>  (8) 
8

>  <SMILES>  (8) 
O=C(C[N-]S(=O)(=O)c1ccc(Cl)cc1)N=c1[n-]cccc1O

>  <Energy>  (8) 
41.9768596610903

>  <Genealogy>  (8) 
O=C(C[N-]S(=O)(=O)c1ccc(Cl)cc1)N=c1[n-]cccc1O (protonated)
O=C(C[N-]S(=O)(=O)c1ccc(Cl)cc1)N=c1[n-]cccc1O (3D coordinates assigned)
O=C(C[N-]S(=O)(=O)c1ccc(Cl)cc1)N=c1[n-]cccc1O (optimized conformer: 41.9768596610903 kcal/mol)

>  <smiles>  (8) 
O=C(CNS(=O)(=O)c1ccc(Cl)cc1)N=c1[nH]cccc1O

>  <score_type>  (8) 
oracle

>  <origin>  (8) 
adg

>  <m_score__min__energy>  (8) 
-11.49

>  <m_primary>  (8) 
energy

$$$$
8:0
     RDKit          3D

 59 62  0  0  0  0  0  0  0  0999 V2000
   62.6740   33.4090   46.7770 C   0  0  0  0  0  0  0  0  0  0  0  0
   62.1270   32.2480   47.5590 C   0  0  0  0  0  0  0  0  0  0  0  0
   61.4960   31.2610   46.8700 N   0  0  0  0  0  0  0  0  0  0  0  0
   60.9600   30.1750   47.4840 C   0  0  0  0  0  0  0  0  0  0  0  0
   60.2900   29.1690   46.6940 N   0  0  0  0  0  0  0  0  0  0  0  0
   59.4370   28.1910   47.3910 C   0  0  0  0  0  0  0  0  0  0  0  0
   58.8400   27.1680   46.4190 C   0  0  0  0  0  0  0  0  0  0  0  0
   58.2100   27.8730   45.2090 C   0  0  0  0  0  0  0  0  0  0  0  0
   57.0730   28.6920   45.6580 N   0  0  0  0  0  0  0  0  0  0  0  0
   56.6390   29.8960   44.4800 S   0  0  0  0  0  0  0  0  0  0  0  0
   55.1490   30.0940   44.4970 O   0  0  0  0  0  0  0  0  0  0  0  0
   57.0410   29.4180   43.1120 O   0  0  0  0  0  0  0  0  0  0  0  0
   57.4630   31.4130   44.8230 C   0  0  0  0  0  0  0  0  0  0  0  0
   57.7630   32.2950   43.7770 C   0  0  0  0  0  0  0  0  0  0  0  0
   58.4570   33.4790   44.0380 C   0  0  0  0  0  0  0  0  0  0  0  0
   58.8580   33.7870   45.3400 C   0  0  0  0  0  0  0  0  0  0  0  0
   58.5730   32.9080   46.4000 C   0  0  0  0  0  0  0  0  0  0  0  0
   58.9870   33.2490   47.7830 C   0  0  0  0  0  0  0  0  0  0  0  0
   59.3920   34.4140   48.0390 O   0  0  0  0  0  0  0  0  0  0  0  0
   58.8780   32.3100   48.8630 N   0  0  0  0  0  0  0  0  0  0  0  0
   58.7460   32.6360   50.2540 C   0  0  0  0  0  0  0  0  0  0  0  0
   57.7690   31.9790   51.0130 C   0  0  0  0  0  0  0  0  0  0  0  0
   57.6060   32.2840   52.3690 C   0  0  0  0  0  0  0  0  0  0  0  0
   58.3980   33.2680   52.9660 C   0  0  0  0  0  0  0  0  0  0  0  0
   59.3570   33.9470   52.2080 C   0  0  0  0  0  0  0  0  0  0  0  0
   59.5380   33.6290   50.8580 C   0  0  0  0  0  0  0  0  0  0  0  0
   57.8590   31.7260   46.1310 C   0  0  0  0  0  0  0  0  0  0  0  0
   59.2310   28.7780   44.4740 C   0  0  0  0  0  0  0  0  0  0  0  0
   60.5380   29.0310   45.2500 C   0  0  0  0  0  0  0  0  0  0  0  0
   61.0330   30.0880   48.8780 C   0  0  0  0  0  0  0  0  0  0  0  0
   61.6870   31.0950   49.5870 C   0  0  0  0  0  0  0  0  0  0  0  0
   61.7370   31.0120   50.8450 O   0  0  0  0  0  0  0  0  0  0  0  0
   62.2570   32.1570   48.9260 N   0  0  0  0  0  0  0  0  0  0  0  0
   62.9260   33.2260   49.6890 C   0  0  0  0  0  0  0  0  0  0  0  0
   63.0375   34.1804   47.4719 H   0  0  0  0  0  0  0  0  0  0  0  0
   63.5049   33.0654   46.1434 H   0  0  0  0  0  0  0  0  0  0  0  0
   61.8800   33.8310   46.1434 H   0  0  0  0  0  0  0  0  0  0  0  0
   60.0421   27.6600   48.1406 H   0  0  0  0  0  0  0  0  0  0  0  0
   58.6089   28.7357   47.8681 H   0  0  0  0  0  0  0  0  0  0  0  0
   59.6362   26.4940   46.0701 H   0  0  0  0  0  0  0  0  0  0  0  0
   58.0588   26.5970   46.9421 H   0  0  0  0  0  0  0  0  0  0  0  0
   57.8729   27.0979   44.5051 H   0  0  0  0  0  0  0  0  0  0  0  0
   57.4520   32.0552   42.7495 H   0  0  0  0  0  0  0  0  0  0  0  0
   58.6885   34.1713   43.2151 H   0  0  0  0  0  0  0  0  0  0  0  0
   59.4004   34.7234   45.5375 H   0  0  0  0  0  0  0  0  0  0  0  0
   57.1273   31.2203   50.5412 H   0  0  0  0  0  0  0  0  0  0  0  0
   56.8531   31.7482   52.9658 H   0  0  0  0  0  0  0  0  0  0  0  0
   58.2673   33.5084   54.0314 H   0  0  0  0  0  0  0  0  0  0  0  0
   59.9700   34.7324   52.6741 H   0  0  0  0  0  0  0  0  0  0  0  0
   60.3014   34.1567   50.2674 H   0  0  0  0  0  0  0  0  0  0  0  0
   57.6091   31.0410   46.9546 H   0  0  0  0  0  0  0  0  0  0  0  0
   59.4871   28.2997   43.5171 H   0  0  0  0  0  0  0  0  0  0  0  0
   58.7469   29.7580   44.3502 H   0  0  0  0  0  0  0  0  0  0  0  0
   61.2216   28.1854   45.0840 H   0  0  0  0  0  0  0  0  0  0  0  0
   60.9801   29.9696   44.8846 H   0  0  0  0  0  0  0  0  0  0  0  0
   60.5807   29.2368   49.4079 H   0  0  0  0  0  0  0  0  0  0  0  0
   62.8076   33.0368   50.7661 H   0  0  0  0  0  0  0  0  0  0  0  0
   63.9962   33.2430   49.4351 H   0  0  0  0  0  0  0  0  0  0  0  0
   62.4735   34.1959   49.4351 H   0  0  0  0  0  0  0  0  0  0  0  0
  1  2  1  0
  2  3  2  0
  3  4  1  0
  4  5  1  0
  5  6  1  0
  6  7  1  0
  7  8  1  0
  8  9  1  0
  9 10  1  0
 10 11  2  0
 10 12  2  0
 10 13  1  0
 13 14  2  0
 14 15  1  0
 15 16  2  0
 16 17  1  0
 17 18  1  0
 18 19  2  0
 18 20  1  0
 20 21  1  0
 21 22  2  0
 22 23  1  0
 23 24  2  0
 24 25  1  0
 25 26  2  0
 17 27  2  0
  8 28  1  0
 28 29  1  0
  4 30  2  0
 30 31  1  0
 31 32  2  0
 31 33  1  0
 33 34  1  0
 33  2  1  0
 29  5  1  0
 27 13  1  0
 26 21  1  0
  1 35  1  0
  1 36  1  0
  1 37  1  0
  6 38  1  0
  6 39  1  0
  7 40  1  0
  7 41  1  0
  8 42  1  0
 14 43  1  0
 15 44  1  0
 16 45  1  0
 22 46  1  0
 23 47  1  0
 24 48  1  0
 25 49  1  0
 26 50  1  0
 27 51  1  0
 28 52  1  0
 28 53  1  0
 29 54  1  0
 29 55  1  0
 30 56  1  0
 34 57  1  0
 34 58  1  0
 34 59  1  0
M  CHG  2   9  -1  20  -1
M  END
>  <UniqueID>  (9) 
9

>  <SMILES>  (9) 
Cc1nc(N2CCC([N-]S(=O)(=O)c3cccc(C(=O)[N-]c4ccccc4)c3)CC2)cc(=O)n1C

>  <Energy>  (9) 
74.56127278365774

>  <Genealogy>  (9) 
Cc1nc(N2CCC([N-]S(=O)(=O)c3cccc(C(=O)[N-]c4ccccc4)c3)CC2)cc(=O)n1C (protonated)
Cc1nc(N2CCC([N-]S(=O)(=O)c3cccc(C(=O)[N-]c4ccccc4)c3)CC2)cc(=O)n1C (3D coordinates assigned)
Cc1nc(N2CCC([N-]S(=O)(=O)c3cccc(C(=O)[N-]c4ccccc4)c3)CC2)cc(=O)n1C (nonaromatic ring conformer: 74.56127278365774 kcal/mol)

>  <smiles>  (9) 
Cc1nc(N2CCC(NS(=O)(=O)c3cccc(C(=O)Nc4ccccc4)c3)CC2)cc(=O)n1C

>  <score_type>  (9) 
oracle

>  <origin>  (9) 
adg

>  <m_score__min__energy>  (9) 
-13.890000000000001

>  <m_primary>  (9) 
energy

$$$$
9:0
     RDKit          3D

 46 49  0  0  0  0  0  0  0  0999 V2000
   62.9740   33.0800   48.2320 C   0  0  0  0  0  0  0  0  0  0  0  0
   61.8980   33.8840   48.9680 C   0  0  2  0  0  0  0  0  0  0  0  0
   61.8210   33.4960   50.4740 C   0  0  0  0  0  0  0  0  0  0  0  0
   60.4410   32.9560   50.6210 C   0  0  0  0  0  0  0  0  0  0  0  0
   59.8470   32.4160   51.7630 C   0  0  0  0  0  0  0  0  0  0  0  0
   58.5290   31.9390   51.6720 C   0  0  0  0  0  0  0  0  0  0  0  0
   57.8360   32.0050   50.4480 C   0  0  0  0  0  0  0  0  0  0  0  0
   58.4550   32.5510   49.3120 C   0  0  0  0  0  0  0  0  0  0  0  0
   59.7630   33.0310   49.4350 C   0  0  0  0  0  0  0  0  0  0  0  0
   60.5730   33.5880   48.4170 N   0  0  0  0  0  0  0  0  0  0  0  0
   60.0490   34.0300   46.8220 S   0  0  0  0  0  0  0  0  0  0  0  0
   61.2570   34.2860   45.9660 O   0  0  0  0  0  0  0  0  0  0  0  0
   59.2280   35.2860   46.8890 O   0  0  0  0  0  0  0  0  0  0  0  0
   59.1000   32.7330   46.1020 C   0  0  0  0  0  0  0  0  0  0  0  0
   57.8130   32.9750   45.6040 C   0  0  0  0  0  0  0  0  0  0  0  0
   57.0600   31.9320   45.0610 C   0  0  0  0  0  0  0  0  0  0  0  0
   57.5790   30.6260   45.0200 C   0  0  0  0  0  0  0  0  0  0  0  0
   56.7780   29.5110   44.4620 C   0  0  0  0  0  0  0  0  0  0  0  0
   56.6030   29.4430   43.2170 O   0  0  0  0  0  0  0  0  0  0  0  0
   56.1460   28.5280   45.2970 N   0  0  0  0  0  0  0  0  0  0  0  0
   56.7190   27.4820   45.8220 C   0  0  0  0  0  0  0  0  0  0  0  0
   58.0620   27.4630   46.0670 N   0  0  0  0  0  0  0  0  0  0  0  0
   58.6830   26.3820   46.6060 C   0  0  0  0  0  0  0  0  0  0  0  0
   57.9460   25.2390   46.9190 C   0  0  0  0  0  0  0  0  0  0  0  0
   56.5730   25.2210   46.6680 C   0  0  0  0  0  0  0  0  0  0  0  0
   55.9520   26.3430   46.1110 C   0  0  0  0  0  0  0  0  0  0  0  0
   54.5860   26.3220   45.8550 O   0  0  0  0  0  0  0  0  0  0  0  0
   58.8810   30.3950   45.4940 C   0  0  0  0  0  0  0  0  0  0  0  0
   59.6330   31.4410   46.0360 C   0  0  0  0  0  0  0  0  0  0  0  0
   63.6308   32.5892   48.9653 H   0  0  0  0  0  0  0  0  0  0  0  0
   62.4944   32.3172   47.6010 H   0  0  0  0  0  0  0  0  0  0  0  0
   63.5696   33.7562   47.6010 H   0  0  0  0  0  0  0  0  0  0  0  0
   62.1705   34.9429   48.8480 H   0  0  0  0  0  0  0  0  0  0  0  0
   62.5715   32.7311   50.7223 H   0  0  0  0  0  0  0  0  0  0  0  0
   62.0250   34.3422   51.1465 H   0  0  0  0  0  0  0  0  0  0  0  0
   60.3989   32.3652   52.7132 H   0  0  0  0  0  0  0  0  0  0  0  0
   58.0371   31.5129   52.5589 H   0  0  0  0  0  0  0  0  0  0  0  0
   56.8051   31.6271   50.3814 H   0  0  0  0  0  0  0  0  0  0  0  0
   57.9246   32.6000   48.3496 H   0  0  0  0  0  0  0  0  0  0  0  0
   57.3938   33.9913   45.6409 H   0  0  0  0  0  0  0  0  0  0  0  0
   56.0546   32.1334   44.6629 H   0  0  0  0  0  0  0  0  0  0  0  0
   59.7662   26.4074   46.7957 H   0  0  0  0  0  0  0  0  0  0  0  0
   58.4420   24.3613   47.3590 H   0  0  0  0  0  0  0  0  0  0  0  0
   55.9807   24.3257   46.9080 H   0  0  0  0  0  0  0  0  0  0  0  0
   59.3115   29.3843   45.4382 H   0  0  0  0  0  0  0  0  0  0  0  0
   60.6484   31.2477   46.4124 H   0  0  0  0  0  0  0  0  0  0  0  0
  1  2  1  0
  2  3  1  0
  3  4  1  0
  4  5  2  0
  5  6  1  0
  6  7  2  0
  7  8  1  0
  8  9  2  0
  9 10  1  0
 10 11  1  0
 11 12  2  0
 11 13  2  0
 11 14  1  0
 14 15  2  0
 15 16  1  0
 16 17  2  0
 17 18  1  0
 18 19  2  0
 18 20  1  0
 20 21  2  3
 21 22  1  0
 22 23  1  0
 23 24  2  0
 24 25  1  0
 25 26  2  0
 26 27  1  0
 17 28  1  0
 28 29  2  0
 10  2  1  0
 29 14  1  0
  9  4  1  0
 26 21  1  0
  1 30  1  0
  1 31  1  0
  1 32  1  0
  2 33  1  1
  3 34  1  0
  3 35  1  0
  5 36  1  0
  6 37  1  0
  7 38  1  0
  8 39  1  0
 15 40  1  0
 16 41  1  0
 23 42  1  0
 24 43  1  0
 25 44  1  0
 28 45  1  0
 29 46  1  0
M  CHG  2  22  -1  27  -1
M  END
>  <UniqueID>  (10) 
10

>  <SMILES>  (10) 
C[C@@H]1Cc2ccccc2N1S(=O)(=O)c1ccc(C(=O)N=c2[n-]cccc2[O-])cc1

>  <Energy>  (10) 
72.85975771677467

>  <Genealogy>  (10) 
CC1Cc2ccccc2N1S(=O)(=O)c1ccc(C(=O)N=c2[n-]cccc2[O-])cc1 (protonated)
C[C@@H]1Cc2ccccc2N1S(=O)(=O)c1ccc(C(=O)N=c2[n-]cccc2[O-])cc1 (chirality)
C[C@@H]1Cc2ccccc2N1S(=O)(=O)c1ccc(C(=O)N=c2[n-]cccc2[O-])cc1 (3D coordinates assigned)
C[C@@H]1Cc2ccccc2N1S(=O)(=O)c1ccc(C(=O)N=c2[n-]cccc2[O-])cc1 (nonaromatic ring conformer: 72.85975771677467 kcal/mol)

>  <smiles>  (10) 
CC1Cc2ccccc2N1S(=O)(=O)c1ccc(C(=O)N=c2[nH]cccc2O)cc1

>  <score_type>  (10) 
oracle

>  <origin>  (10) 
adg

>  <m_score__min__energy>  (10) 
-14.859999999999999

>  <m_primary>  (10) 
energy

$$$$
10:0
     RDKit          3D

 55 57  0  0  0  0  0  0  0  0999 V2000
   57.3530   32.6360   40.7290 C   0  0  0  0  0  0  0  0  0  0  0  0
   57.4430   31.9640   42.0900 C   0  0  0  0  0  0  0  0  0  0  0  0
   56.6770   30.7650   42.0790 O   0  0  0  0  0  0  0  0  0  0  0  0
   56.2380   30.1380   43.2510 C   0  0  0  0  0  0  0  0  0  0  0  0
   55.0530   29.7130   43.3340 O   0  0  0  0  0  0  0  0  0  0  0  0
   57.1650   29.9880   44.3960 C   0  0  0  0  0  0  0  0  0  0  0  0
   57.8140   28.7660   44.6240 C   0  0  0  0  0  0  0  0  0  0  0  0
   58.7010   28.6250   45.6910 C   0  0  0  0  0  0  0  0  0  0  0  0
   58.9650   29.7010   46.5510 C   0  0  0  0  0  0  0  0  0  0  0  0
   59.9010   29.5350   47.6330 N   0  0  0  0  0  0  0  0  0  0  0  0
   61.1480   30.3050   47.6740 C   0  0  0  0  0  0  0  0  0  0  0  0
   61.3820   30.8090   49.1050 C   0  0  0  0  0  0  0  0  0  0  0  0
   61.3270   29.7330   50.1330 N   0  0  0  0  0  0  0  0  0  0  0  0
   60.6020   30.1820   51.3330 C   0  0  0  0  0  0  0  0  0  0  0  0
   60.8140   28.4280   49.6500 C   0  0  0  0  0  0  0  0  0  0  0  0
   59.6100   28.5810   48.7090 C   0  0  0  0  0  0  0  0  0  0  0  0
   58.3330   30.9400   46.3220 C   0  0  0  0  0  0  0  0  0  0  0  0
   58.6000   32.0490   47.1920 N   0  0  0  0  0  0  0  0  0  0  0  0
   58.0740   33.3740   47.0580 C   0  0  0  0  0  0  0  0  0  0  0  0
   56.8630   33.5200   46.7390 O   0  0  0  0  0  0  0  0  0  0  0  0
   58.9180   34.5910   47.3330 C   0  0  0  0  0  0  0  0  0  0  0  0
   60.3660   34.2110   47.4930 C   0  0  0  0  0  0  0  0  0  0  0  0
   61.1270   33.8490   46.3710 C   0  0  0  0  0  0  0  0  0  0  0  0
   62.4650   33.4810   46.5190 C   0  0  0  0  0  0  0  0  0  0  0  0
   63.0640   33.4730   47.7820 C   0  0  0  0  0  0  0  0  0  0  0  0
   64.4060   33.1010   47.8810 O   0  0  0  0  0  0  0  0  0  0  0  0
   62.3050   33.8320   48.9150 C   0  0  0  0  0  0  0  0  0  0  0  0
   63.0560   33.8520   50.6760 Br  0  0  0  0  0  0  0  0  0  0  0  0
   60.9620   34.1940   48.7640 C   0  0  0  0  0  0  0  0  0  0  0  0
   57.4180   31.0660   45.2610 C   0  0  0  0  0  0  0  0  0  0  0  0
   57.2081   33.7181   40.8632 H   0  0  0  0  0  0  0  0  0  0  0  0
   58.2831   32.4572   40.1696 H   0  0  0  0  0  0  0  0  0  0  0  0
   56.5027   32.2188   40.1696 H   0  0  0  0  0  0  0  0  0  0  0  0
   58.4936   31.7258   42.3125 H   0  0  0  0  0  0  0  0  0  0  0  0
   57.0496   32.6431   42.8608 H   0  0  0  0  0  0  0  0  0  0  0  0
   57.6222   27.9128   43.9567 H   0  0  0  0  0  0  0  0  0  0  0  0
   59.1992   27.6589   45.8600 H   0  0  0  0  0  0  0  0  0  0  0  0
   61.9872   29.6631   47.3680 H   0  0  0  0  0  0  0  0  0  0  0  0
   61.0769   31.1613   46.9872 H   0  0  0  0  0  0  0  0  0  0  0  0
   62.3743   31.2817   49.1492 H   0  0  0  0  0  0  0  0  0  0  0  0
   60.5710   31.5158   49.3345 H   0  0  0  0  0  0  0  0  0  0  0  0
   61.1401   29.8487   52.2326 H   0  0  0  0  0  0  0  0  0  0  0  0
   60.5350   31.2800   51.3315 H   0  0  0  0  0  0  0  0  0  0  0  0
   59.5892   29.7528   51.3315 H   0  0  0  0  0  0  0  0  0  0  0  0
   61.6203   27.9101   49.1099 H   0  0  0  0  0  0  0  0  0  0  0  0
   60.4814   27.8542   50.5276 H   0  0  0  0  0  0  0  0  0  0  0  0
   59.3722   27.6021   48.2672 H   0  0  0  0  0  0  0  0  0  0  0  0
   58.7565   28.9590   49.2909 H   0  0  0  0  0  0  0  0  0  0  0  0
   58.8203   35.2951   46.4935 H   0  0  0  0  0  0  0  0  0  0  0  0
   58.5704   35.0582   48.2662 H   0  0  0  0  0  0  0  0  0  0  0  0
   60.6675   33.8553   45.3716 H   0  0  0  0  0  0  0  0  0  0  0  0
   63.0531   33.1949   45.6345 H   0  0  0  0  0  0  0  0  0  0  0  0
   64.8420   32.4390   47.2510 H   0  0  0  0  0  0  0  0  0  0  0  0
   60.3681   34.4676   49.6486 H   0  0  0  0  0  0  0  0  0  0  0  0
   56.8938   32.0207   45.1065 H   0  0  0  0  0  0  0  0  0  0  0  0
  1  2  1  0
  2  3  1  0
  3  4  1  0
  4  5  2  0
  4  6  1  0
  6  7  2  0
  7  8  1  0
  8  9  2  0
  9 10  1  0
 10 11  1  0
 11 12  1  0
 12 13  1  0
 13 14  1  0
 13 15  1  0
 15 16  1  0
  9 17  1  0
 17 18  1  0
 18 19  1  0
 19 20  2  0
 19 21  1  0
 21 22  1  0
 22 23  2  0
 23 24  1  0
 24 25  2  0
 25 26  1  0
 25 27  1  0
 27 28  1  0
 27 29  2  0
 17 30  2  0
 30  6  1  0
 16 10  1  0
 29 22  1  0
  1 31  1  0
  1 32  1  0
  1 33  1  0
  2 34  1  0
  2 35  1  0
  7 36  1  0
  8 37  1  0
 11 38  1  0
 11 39  1  0
 12 40  1  0
 12 41  1  0
 14 42  1  0
 14 43  1  0
 14 44  1  0
 15 45  1  0
 15 46  1  0
 16 47  1  0
 16 48  1  0
 21 49  1  0
 21 50  1  0
 23 51  1  0
 24 52  1  0
 26 53  1  0
 29 54  1  0
 30 55  1  0
M  CHG  1  18  -1
M  END
>  <UniqueID>  (11) 
11

>  <SMILES>  (11) 
CCOC(=O)c1ccc(N2CCN(C)CC2)c([N-]C(=O)Cc2ccc(O)c(Br)c2)c1

>  <Energy>  (11) 
67.96689867552044

>  <Genealogy>  (11) 
CCOC(=O)c1ccc(N2CCN(C)CC2)c([N-]C(=O)Cc2ccc(O)c(Br)c2)c1 (protonated)
CCOC(=O)c1ccc(N2CCN(C)CC2)c([N-]C(=O)Cc2ccc(O)c(Br)c2)c1 (3D coordinates assigned)
CCOC(=O)c1ccc(N2CCN(C)CC2)c([N-]C(=O)Cc2ccc(O)c(Br)c2)c1 (nonaromatic ring conformer: 67.96689867552044 kcal/mol)

>  <smiles>  (11) 
CCOC(=O)c1ccc(N2CCN(C)CC2)c(NC(=O)Cc2ccc(O)c(Br)c2)c1

>  <score_type>  (11) 
oracle

>  <origin>  (11) 
adg

>  <m_score__min__energy>  (11) 
-10.4

>  <m_primary>  (11) 
energy

$$$$
11:0
     RDKit          3D

 54 57  0  0  0  0  0  0  0  0999 V2000
   55.8590   28.5910   45.2500 N   0  0  0  0  0  0  0  0  0  0  0  0
   55.6810   29.5170   44.1790 C   0  0  0  0  0  0  0  0  0  0  0  0
   54.6560   29.4330   43.4510 O   0  0  0  0  0  0  0  0  0  0  0  0
   56.6900   30.5640   43.9380 C   0  0  0  0  0  0  0  0  0  0  0  0
   57.1240   30.8700   42.6400 C   0  0  0  0  0  0  0  0  0  0  0  0
   58.0780   31.8770   42.4750 C   0  0  0  0  0  0  0  0  0  0  0  0
   58.4920   32.1760   41.3250 O   0  0  0  0  0  0  0  0  0  0  0  0
   58.5640   32.5340   43.5590 N   0  0  0  0  0  0  0  0  0  0  0  0
   58.1330   32.2340   44.8140 C   0  0  0  0  0  0  0  0  0  0  0  0
   58.6840   32.9580   45.9820 C   0  0  0  0  0  0  0  0  0  0  0  0
   58.1330   34.2060   46.3340 C   0  0  0  0  0  0  0  0  0  0  0  0
   57.1400   34.7590   45.5920 F   0  0  0  0  0  0  0  0  0  0  0  0
   58.5710   34.8750   47.4780 C   0  0  0  0  0  0  0  0  0  0  0  0
   59.5600   34.3150   48.2840 C   0  0  0  0  0  0  0  0  0  0  0  0
   60.1270   33.0870   47.9440 C   0  0  0  0  0  0  0  0  0  0  0  0
   59.7100   32.4000   46.7900 C   0  0  0  0  0  0  0  0  0  0  0  0
   60.4220   31.1560   46.4140 C   0  0  0  0  0  0  0  0  0  0  0  0
   61.6740   31.0930   46.5430 O   0  0  0  0  0  0  0  0  0  0  0  0
   59.6930   30.0180   45.9300 N   0  0  0  0  0  0  0  0  0  0  0  0
   60.2990   28.6940   45.8080 C   0  0  0  0  0  0  0  0  0  0  0  0
   59.3130   27.7340   45.2030 C   0  0  0  0  0  0  0  0  0  0  0  0
   59.2350   27.5940   43.8100 C   0  0  0  0  0  0  0  0  0  0  0  0
   58.2860   26.7430   43.2410 C   0  0  0  0  0  0  0  0  0  0  0  0
   57.3950   26.0400   44.0540 C   0  0  0  0  0  0  0  0  0  0  0  0
   57.4440   26.1790   45.4530 C   0  0  0  0  0  0  0  0  0  0  0  0
   56.4680   25.4660   46.3140 C   0  0  0  0  0  0  0  0  0  0  0  0
   55.2670   25.8500   46.3460 O   0  0  0  0  0  0  0  0  0  0  0  0
   56.8800   24.3010   47.0500 N   0  0  0  0  0  0  0  0  0  0  0  0
   56.8560   23.0500   46.6820 C   0  0  0  0  0  0  0  0  0  0  0  0
   56.5890   22.6420   45.3570 C   0  0  0  0  0  0  0  0  0  0  0  0
   56.5700   21.2740   45.0360 C   0  0  0  0  0  0  0  0  0  0  0  0
   56.2930   20.8220   43.6540 C   0  0  0  0  0  0  0  0  0  0  0  0
   56.4350   21.6090   42.6800 O   0  0  0  0  0  0  0  0  0  0  0  0
   55.8690   19.5220   43.4100 O   0  0  0  0  0  0  0  0  0  0  0  0
   56.8080   20.3350   46.0510 C   0  0  0  0  0  0  0  0  0  0  0  0
   57.0470   20.7710   47.3510 C   0  0  0  0  0  0  0  0  0  0  0  0
   57.0620   22.0990   47.6330 N   0  0  0  0  0  0  0  0  0  0  0  0
   58.4130   27.0280   46.0190 C   0  0  0  0  0  0  0  0  0  0  0  0
   57.2080   31.2510   44.9920 N   0  0  0  0  0  0  0  0  0  0  0  0
   55.5580   27.5950   45.1500 H   0  0  0  0  0  0  0  0  0  0  0  0
   56.7220   30.3289   41.7708 H   0  0  0  0  0  0  0  0  0  0  0  0
   58.1335   35.8485   47.7444 H   0  0  0  0  0  0  0  0  0  0  0  0
   59.8941   34.8422   49.1898 H   0  0  0  0  0  0  0  0  0  0  0  0
   60.9080   32.6516   48.5847 H   0  0  0  0  0  0  0  0  0  0  0  0
   58.6860   30.1260   45.6730 H   0  0  0  0  0  0  0  0  0  0  0  0
   61.1883   28.7578   45.1637 H   0  0  0  0  0  0  0  0  0  0  0  0
   60.5884   28.3347   46.8066 H   0  0  0  0  0  0  0  0  0  0  0  0
   59.9241   28.1568   43.1632 H   0  0  0  0  0  0  0  0  0  0  0  0
   58.2400   26.6259   42.1482 H   0  0  0  0  0  0  0  0  0  0  0  0
   56.6493   25.3726   43.5974 H   0  0  0  0  0  0  0  0  0  0  0  0
   56.3962   23.3936   44.5773 H   0  0  0  0  0  0  0  0  0  0  0  0
   56.8057   19.2594   45.8205 H   0  0  0  0  0  0  0  0  0  0  0  0
   57.2241   20.0380   48.1518 H   0  0  0  0  0  0  0  0  0  0  0  0
   58.4665   27.1402   47.1120 H   0  0  0  0  0  0  0  0  0  0  0  0
  1  2  1  0
  2  3  2  0
  2  4  1  0
  4  5  2  0
  5  6  1  0
  6  7  2  0
  6  8  1  0
  8  9  2  0
  9 10  1  0
 10 11  2  0
 11 12  1  0
 11 13  1  0
 13 14  2  0
 14 15  1  0
 15 16  2  0
 16 17  1  0
 17 18  2  0
 17 19  1  0
 19 20  1  0
 20 21  1  0
 21 22  2  0
 22 23  1  0
 23 24  2  0
 24 25  1  0
 25 26  1  0
 26 27  2  0
 26 28  1  0
 28 29  2  3
 29 30  1  0
 30 31  2  0
 31 32  1  0
 32 33  2  0
 32 34  1  0
 31 35  1  0
 35 36  2  0
 36 37  1  0
 25 38  2  0
  9 39  1  0
 39  4  1  0
 16 10  1  0
 38 21  1  0
 37 29  1  0
  1 40  1  0
  5 41  1  0
 13 42  1  0
 14 43  1  0
 15 44  1  0
 19 45  1  0
 20 46  1  0
 20 47  1  0
 22 48  1  0
 23 49  1  0
 24 50  1  0
 30 51  1  0
 35 52  1  0
 36 53  1  0
 38 54  1  0
M  CHG  4   1  -1  34  -1  37  -1  39  -1
M  END
>  <UniqueID>  (12) 
12

>  <SMILES>  (12) 
[NH-]C(=O)c1cc(=O)nc(-c2c(F)cccc2C(=O)NCc2cccc(C(=O)N=c3cc(C(=O)[O-])cc[n-]3)c2)[n-]1

>  <Energy>  (12) 
77.17625018098192

>  <Genealogy>  (12) 
[NH-]C(=O)c1cc(=O)nc(-c2c(F)cccc2C(=O)NCc2cccc(C(=O)N=c3cc(C(=O)[O-])cc[n-]3)c2)[n-]1 (protonated)
[NH-]C(=O)c1cc(=O)nc(-c2c(F)cccc2C(=O)NCc2cccc(C(=O)N=c3cc(C(=O)[O-])cc[n-]3)c2)[n-]1 (3D coordinates assigned)
[NH-]C(=O)c1cc(=O)nc(-c2c(F)cccc2C(=O)NCc2cccc(C(=O)N=c3cc(C(=O)[O-])cc[n-]3)c2)[n-]1 (optimized conformer: 77.17625018098192 kcal/mol)

>  <smiles>  (12) 
NC(=O)c1cc(=O)nc(-c2c(F)cccc2C(=O)NCc2cccc(C(=O)N=c3cc(C(=O)O)cc[nH]3)c2)[nH]1

>  <score_type>  (12) 
oracle

>  <origin>  (12) 
adg

>  <m_score__min__energy>  (12) 
-20.260000000000002

>  <m_primary>  (12) 
energy

$$$$
12:0
     RDKit          3D

 64 67  0  0  0  0  0  0  0  0999 V2000
   67.4530   33.1080   50.2020 C   0  0  0  0  0  0  0  0  0  0  0  0
   66.2960   32.4260   49.7700 O   0  0  0  0  0  0  0  0  0  0  0  0
   65.5620   31.9400   50.8840 C   0  0  0  0  0  0  0  0  0  0  0  0
   64.1870   31.4260   50.4390 C   0  0  0  0  0  0  0  0  0  0  0  0
   63.5730   32.3380   49.4730 N   0  0  0  0  0  0  0  0  0  0  0  0
   62.3890   32.9630   49.6110 C   0  0  0  0  0  0  0  0  0  0  0  0
   62.2050   33.7600   48.4950 C   0  0  0  0  0  0  0  0  0  0  0  0
   61.1290   34.6700   48.2460 N   0  0  0  0  0  0  0  0  0  0  0  0
   59.8780   34.2840   47.6650 C   0  0  0  0  0  0  0  0  0  0  0  0
   59.1070   35.1730   47.2220 O   0  0  0  0  0  0  0  0  0  0  0  0
   59.5090   32.8630   47.5280 C   0  0  0  0  0  0  0  0  0  0  0  0
   59.4700   32.1510   46.3470 C   0  0  0  0  0  0  0  0  0  0  0  0
   59.0450   30.8830   46.6870 C   0  0  0  0  0  0  0  0  0  0  0  0
   58.8850   29.7330   45.7220 C   0  0  0  0  0  0  0  0  0  0  0  0
   59.3160   28.4110   46.3880 C   0  0  0  0  0  0  0  0  0  0  0  0
   58.1320   27.7430   47.0960 C   0  0  0  0  0  0  0  0  0  0  0  0
   56.9930   27.4550   46.1840 N   0  0  0  0  0  0  0  0  0  0  0  0
   56.8610   25.7440   45.8620 S   0  0  0  0  0  0  0  0  0  0  0  0
   57.7010   24.9760   46.8450 O   0  0  0  0  0  0  0  0  0  0  0  0
   55.4300   25.3040   45.9920 O   0  0  0  0  0  0  0  0  0  0  0  0
   57.4430   25.3880   44.2110 C   0  0  0  0  0  0  0  0  0  0  0  0
   57.3790   23.9120   43.9420 C   0  0  0  0  0  0  0  0  0  0  0  0
   58.2000   23.0220   44.6540 C   0  0  0  0  0  0  0  0  0  0  0  0
   58.1100   21.6470   44.4270 C   0  0  0  0  0  0  0  0  0  0  0  0
   57.1990   21.1480   43.4920 C   0  0  0  0  0  0  0  0  0  0  0  0
   56.3720   22.0250   42.7830 C   0  0  0  0  0  0  0  0  0  0  0  0
   56.4580   23.4020   43.0090 C   0  0  0  0  0  0  0  0  0  0  0  0
   57.0200   28.2070   44.9120 C   0  0  0  0  0  0  0  0  0  0  0  0
   57.4470   29.6570   45.1460 C   0  0  0  0  0  0  0  0  0  0  0  0
   58.8490   30.8100   47.9840 O   0  0  0  0  0  0  0  0  0  0  0  0
   59.1170   31.9800   48.5200 C   0  0  0  0  0  0  0  0  0  0  0  0
   59.0180   32.2490   49.9880 C   0  0  0  0  0  0  0  0  0  0  0  0
   63.3270   33.5950   47.7120 C   0  0  0  0  0  0  0  0  0  0  0  0
   64.1350   32.7120   48.3300 N   0  0  0  0  0  0  0  0  0  0  0  0
   67.4801   33.1240   51.3015 H   0  0  0  0  0  0  0  0  0  0  0  0
   68.3466   32.5922   49.8206 H   0  0  0  0  0  0  0  0  0  0  0  0
   67.4344   34.1396   49.8206 H   0  0  0  0  0  0  0  0  0  0  0  0
   66.1208   31.1177   51.3547 H   0  0  0  0  0  0  0  0  0  0  0  0
   65.4194   32.7614   51.6016 H   0  0  0  0  0  0  0  0  0  0  0  0
   64.3063   30.4364   49.9737 H   0  0  0  0  0  0  0  0  0  0  0  0
   63.5348   31.3607   51.3224 H   0  0  0  0  0  0  0  0  0  0  0  0
   61.6939   32.8591   50.4572 H   0  0  0  0  0  0  0  0  0  0  0  0
   59.7250   32.5182   45.3420 H   0  0  0  0  0  0  0  0  0  0  0  0
   59.5495   29.9106   44.8635 H   0  0  0  0  0  0  0  0  0  0  0  0
   59.7055   27.7298   45.6171 H   0  0  0  0  0  0  0  0  0  0  0  0
   60.0930   28.6311   47.1349 H   0  0  0  0  0  0  0  0  0  0  0  0
   58.4765   26.7954   47.5357 H   0  0  0  0  0  0  0  0  0  0  0  0
   57.7695   28.4449   47.8615 H   0  0  0  0  0  0  0  0  0  0  0  0
   56.8119   25.9173   43.4819 H   0  0  0  0  0  0  0  0  0  0  0  0
   58.4868   25.7231   44.1199 H   0  0  0  0  0  0  0  0  0  0  0  0
   58.9165   23.4096   45.3932 H   0  0  0  0  0  0  0  0  0  0  0  0
   58.7576   20.9551   44.9854 H   0  0  0  0  0  0  0  0  0  0  0  0
   57.1324   20.0646   43.3136 H   0  0  0  0  0  0  0  0  0  0  0  0
   55.6543   21.6317   42.0480 H   0  0  0  0  0  0  0  0  0  0  0  0
   55.8025   24.0898   42.4547 H   0  0  0  0  0  0  0  0  0  0  0  0
   57.7329   27.7277   44.2250 H   0  0  0  0  0  0  0  0  0  0  0  0
   56.0088   28.2032   44.4791 H   0  0  0  0  0  0  0  0  0  0  0  0
   57.4146   30.1992   44.1895 H   0  0  0  0  0  0  0  0  0  0  0  0
   56.7566   30.1101   45.8727 H   0  0  0  0  0  0  0  0  0  0  0  0
   59.3453   31.3597   50.5466 H   0  0  0  0  0  0  0  0  0  0  0  0
   59.6608   33.1028   50.2485 H   0  0  0  0  0  0  0  0  0  0  0  0
   57.9751   32.4824   50.2485 H   0  0  0  0  0  0  0  0  0  0  0  0
   63.5271   34.0953   46.7530 H   0  0  0  0  0  0  0  0  0  0  0  0
   65.0650   32.3890   47.9870 H   0  0  0  0  0  0  0  0  0  0  0  0
  1  2  1  0
  2  3  1  0
  3  4  1  0
  4  5  1  0
  5  6  1  0
  6  7  2  0
  7  8  1  0
  8  9  1  0
  9 10  2  0
  9 11  1  0
 11 12  1  0
 12 13  2  0
 13 14  1  0
 14 15  1  0
 15 16  1  0
 16 17  1  0
 17 18  1  0
 18 19  2  0
 18 20  2  0
 18 21  1  0
 21 22  1  0
 22 23  2  0
 23 24  1  0
 24 25  2  0
 25 26  1  0
 26 27  2  0
 17 28  1  0
 28 29  1  0
 13 30  1  0
 30 31  1  0
 31 32  1  0
  7 33  1  0
 33 34  2  0
 34  5  1  0
 31 11  2  0
 29 14  1  0
 27 22  1  0
  1 35  1  0
  1 36  1  0
  1 37  1  0
  3 38  1  0
  3 39  1  0
  4 40  1  0
  4 41  1  0
  6 42  1  0
 12 43  1  0
 14 44  1  0
 15 45  1  0
 15 46  1  0
 16 47  1  0
 16 48  1  0
 21 49  1  0
 21 50  1  0
 23 51  1  0
 24 52  1  0
 25 53  1  0
 26 54  1  0
 27 55  1  0
 28 56  1  0
 28 57  1  0
 29 58  1  0
 29 59  1  0
 32 60  1  0
 32 61  1  0
 32 62  1  0
 33 63  1  0
 34 64  1  0
M  CHG  2   8  -1  34   1
M  END
>  <UniqueID>  (13) 
13

>  <SMILES>  (13) 
COCCn1cc([N-]C(=O)c2cc(C3CCN(S(=O)(=O)Cc4ccccc4)CC3)oc2C)c[nH+]1

>  <Energy>  (13) 
125.66319434441787

>  <Genealogy>  (13) 
COCCn1cc([N-]C(=O)c2cc(C3CCN(S(=O)(=O)Cc4ccccc4)CC3)oc2C)c[nH+]1 (protonated)
COCCn1cc([N-]C(=O)c2cc(C3CCN(S(=O)(=O)Cc4ccccc4)CC3)oc2C)c[nH+]1 (3D coordinates assigned)
COCCn1cc([N-]C(=O)c2cc(C3CCN(S(=O)(=O)Cc4ccccc4)CC3)oc2C)c[nH+]1 (nonaromatic ring conformer: 125.66319434441787 kcal/mol)

>  <smiles>  (13) 
COCCn1cc(NC(=O)c2cc(C3CCN(S(=O)(=O)Cc4ccccc4)CC3)oc2C)cn1

>  <score_type>  (13) 
oracle

>  <origin>  (13) 
adg

>  <m_score__min__energy>  (13) 
-9.3000000000000007

>  <m_primary>  (13) 
energy

$$$$
13:0
     RDKit          3D

 44 47  0  0  0  0  0  0  0  0999 V2000
   50.6261   32.2982   53.7612 H   0  0  0  0  0  0  0  0  0  0  0  0
   51.0930   31.9220   52.8390 C   0  0  0  0  0  0  0  0  0  0  0  0
   50.6540   32.3590   51.6290 N   0  0  0  0  0  0  0  0  0  0  0  0
   51.2030   31.9150   50.4670 C   0  0  0  0  0  0  0  0  0  0  0  0
   50.7650   32.3380   49.3660 O   0  0  0  0  0  0  0  0  0  0  0  0
   52.2510   30.9880   50.4980 C   0  0  0  0  0  0  0  0  0  0  0  0
   52.6857   30.6135   49.5595 H   0  0  0  0  0  0  0  0  0  0  0  0
   52.7430   30.5400   51.7290 C   0  0  0  0  0  0  0  0  0  0  0  0
   53.8020   29.5660   51.7350 N   0  0  0  0  0  0  0  0  0  0  0  0
   54.9970   29.7140   52.2310 C   0  0  0  0  0  0  0  0  0  0  0  0
   55.8810   30.5970   51.6880 N   0  0  0  0  0  0  0  0  0  0  0  0
   57.1440   30.7660   52.1700 C   0  0  0  0  0  0  0  0  0  0  0  0
   58.0340   31.7650   51.5230 C   0  0  0  0  0  0  0  0  0  0  0  0
   58.4450   32.9310   52.1950 C   0  0  0  0  0  0  0  0  0  0  0  0
   58.1133   33.1201   53.2266 H   0  0  0  0  0  0  0  0  0  0  0  0
   59.2750   33.8460   51.5470 C   0  0  0  0  0  0  0  0  0  0  0  0
   59.6063   34.7536   52.0728 H   0  0  0  0  0  0  0  0  0  0  0  0
   59.6750   33.6200   50.2700 N   0  0  0  0  0  0  0  0  0  0  0  0
   59.2810   32.5160   49.5770 C   0  0  0  0  0  0  0  0  0  0  0  0
   59.6890   32.3020   48.3580 N   0  0  0  0  0  0  0  0  0  0  0  0
   59.2800   33.0070   47.1730 C   0  0  0  0  0  0  0  0  0  0  0  0
   59.7510   34.3010   46.8770 C   0  0  0  0  0  0  0  0  0  0  0  0
   60.4748   34.7878   47.5472 H   0  0  0  0  0  0  0  0  0  0  0  0
   59.3010   34.9690   45.7330 C   0  0  0  0  0  0  0  0  0  0  0  0
   59.6829   35.9735   45.4979 H   0  0  0  0  0  0  0  0  0  0  0  0
   58.3680   34.3630   44.8890 C   0  0  0  0  0  0  0  0  0  0  0  0
   58.0236   34.8858   43.9846 H   0  0  0  0  0  0  0  0  0  0  0  0
   57.8720   33.0930   45.1930 C   0  0  0  0  0  0  0  0  0  0  0  0
   57.1295   32.6211   44.5327 H   0  0  0  0  0  0  0  0  0  0  0  0
   58.3180   32.4200   46.3360 C   0  0  0  0  0  0  0  0  0  0  0  0
   57.8230   31.1910   46.6240 F   0  0  0  0  0  0  0  0  0  0  0  0
   58.4590   31.5690   50.1980 C   0  0  0  0  0  0  0  0  0  0  0  0
   58.1450   30.6696   49.6480 H   0  0  0  0  0  0  0  0  0  0  0  0
   57.5690   29.9790   53.2550 C   0  0  0  0  0  0  0  0  0  0  0  0
   58.5848   30.0993   53.6596 H   0  0  0  0  0  0  0  0  0  0  0  0
   56.6940   29.0410   53.8190 C   0  0  0  0  0  0  0  0  0  0  0  0
   57.1240   28.2180   54.9970 C   0  0  0  0  0  0  0  0  0  0  0  0
   56.8519   28.7387   55.9270 H   0  0  0  0  0  0  0  0  0  0  0  0
   56.6217   27.2400   54.9640 H   0  0  0  0  0  0  0  0  0  0  0  0
   58.2137   28.0718   54.9640 H   0  0  0  0  0  0  0  0  0  0  0  0
   55.3940   28.9210   53.3110 C   0  0  0  0  0  0  0  0  0  0  0  0
   54.6890   28.2059   53.7601 H   0  0  0  0  0  0  0  0  0  0  0  0
   52.1360   30.9960   52.9130 C   0  0  0  0  0  0  0  0  0  0  0  0
   52.4802   30.6261   53.8901 H   0  0  0  0  0  0  0  0  0  0  0  0
  1  2  1  0
  2  3  1  0
  3  4  1  0
  4  5  2  0
  4  6  1  0
  6  7  1  0
  6  8  2  0
  8  9  1  0
  9 10  2  0
 10 11  1  0
 11 12  1  0
 12 13  1  0
 13 14  1  0
 14 15  1  0
 14 16  2  0
 16 17  1  0
 16 18  1  0
 18 19  1  0
 19 20  2  3
 20 21  1  0
 21 22  2  0
 22 23  1  0
 22 24  1  0
 24 25  1  0
 24 26  2  0
 26 27  1  0
 26 28  1  0
 28 29  1  0
 28 30  2  0
 30 31  1  0
 19 32  1  0
 32 33  1  0
 12 34  2  0
 34 35  1  0
 34 36  1  0
 36 37  1  0
 37 38  1  0
 37 39  1  0
 37 40  1  0
 36 41  2  0
 41 42  1  0
  8 43  1  0
 43 44  1  0
 43  2  2  0
 41 10  1  0
 32 13  2  0
 30 21  1  0
M  CHG  3   3  -1  11  -1  18  -1
M  END
>  <UniqueID>  (14) 
14

>  <SMILES>  (14) 
Cc1cc(-c2cc[n-]c(=Nc3ccccc3F)c2)[n-]/c(=N\c2cc[n-]c(=O)c2)c1

>  <Energy>  (14) 
66.82881708078456

>  <Genealogy>  (14) 
Cc1cc(-c2cc[n-]c(=Nc3ccccc3F)c2)[n-]c(=Nc2cc[n-]c(=O)c2)c1 (protonated)
Cc1cc(-c2cc[n-]c(=Nc3ccccc3F)c2)[n-]/c(=N\c2cc[n-]c(=O)c2)c1 (cis-trans isomerization)
Cc1cc(-c2cc[n-]c(=Nc3ccccc3F)c2)[n-]/c(=N\c2cc[n-]c(=O)c2)c1 (3D coordinates assigned)
Cc1cc(-c2cc[n-]c(=Nc3ccccc3F)c2)[n-]/c(=N\c2cc[n-]c(=O)c2)c1 (optimized conformer: 66.82881708078456 kcal/mol)

>  <smiles>  (14) 
Cc1cc(-c2cc[nH]c(=Nc3ccccc3F)c2)[nH]c(=Nc2cc[nH]c(=O)c2)c1

>  <score_type>  (14) 
oracle

>  <origin>  (14) 
adg

>  <m_score__min__energy>  (14) 
-14.01

>  <m_primary>  (14) 
energy

$$$$
14:0
     RDKit          3D

 53 56  0  0  0  0  0  0  0  0999 V2000
   54.7820   28.5310   44.5590 H   0  0  0  0  0  0  0  0  0  0  0  0
   55.6340   28.4380   45.1010 O   0  0  0  0  0  0  0  0  0  0  0  0
   56.0020   27.2080   45.6350 C   0  0  0  0  0  0  0  0  0  0  0  0
   55.1250   26.2510   45.9810 N   0  0  0  0  0  0  0  0  0  0  0  0
   55.9200   25.2940   46.5040 C   0  0  0  0  0  0  0  0  0  0  0  0
   55.4680   24.2110   46.9590 O   0  0  0  0  0  0  0  0  0  0  0  0
   57.2370   25.5920   46.5110 N   0  0  0  0  0  0  0  0  0  0  0  0
   57.2860   26.8050   45.9320 C   0  0  0  0  0  0  0  0  0  0  0  0
   58.5280   27.5840   45.7900 C   0  0  0  0  0  0  0  0  0  0  0  0
   59.2122   27.3192   44.9704 H   0  0  0  0  0  0  0  0  0  0  0  0
   58.8780   28.6010   46.6020 C   0  0  0  0  0  0  0  0  0  0  0  0
   59.2450   28.4990   47.9340 C   0  0  0  0  0  0  0  0  0  0  0  0
   59.3336   27.5725   48.5204 H   0  0  0  0  0  0  0  0  0  0  0  0
   59.4780   29.7820   48.3840 C   0  0  0  0  0  0  0  0  0  0  0  0
   60.0480   30.0780   49.7170 C   0  0  0  0  0  0  0  0  0  0  0  0
   61.2110   29.6680   49.9740 O   0  0  0  0  0  0  0  0  0  0  0  0
   59.3100   30.7930   50.7260 N   0  0  0  0  0  0  0  0  0  0  0  0
   60.0400   31.6720   51.6490 C   0  0  0  0  0  0  0  0  0  0  0  0
   60.8471   31.0988   52.1286 H   0  0  0  0  0  0  0  0  0  0  0  0
   60.4533   32.5152   51.0761 H   0  0  0  0  0  0  0  0  0  0  0  0
   59.1120   32.2260   52.7280 C   0  0  0  0  0  0  0  0  0  0  0  0
   59.7085   32.6595   53.5442 H   0  0  0  0  0  0  0  0  0  0  0  0
   58.4673   33.0107   52.3054 H   0  0  0  0  0  0  0  0  0  0  0  0
   58.2900   31.1210   53.2460 N   0  0  0  0  0  0  0  0  0  0  0  0
   57.5930   31.5290   54.4750 C   0  0  0  0  0  0  0  0  0  0  0  0
   58.1672   31.1929   55.3510 H   0  0  0  0  0  0  0  0  0  0  0  0
   57.4989   32.6248   54.4966 H   0  0  0  0  0  0  0  0  0  0  0  0
   56.5915   31.0745   54.4966 H   0  0  0  0  0  0  0  0  0  0  0  0
   57.3230   30.6340   52.2340 C   0  0  0  0  0  0  0  0  0  0  0  0
   57.0905   29.5816   52.4541 H   0  0  0  0  0  0  0  0  0  0  0  0
   56.4366   31.2821   52.2984 H   0  0  0  0  0  0  0  0  0  0  0  0
   57.8440   30.7250   50.7830 C   0  0  0  0  0  0  0  0  0  0  0  0
   57.5083   29.8359   50.2291 H   0  0  0  0  0  0  0  0  0  0  0  0
   57.4443   31.6475   50.3366 H   0  0  0  0  0  0  0  0  0  0  0  0
   59.2650   30.6830   47.3910 N   0  0  0  0  0  0  0  0  0  0  0  0
   59.5500   32.1270   47.4480 C   0  0  0  0  0  0  0  0  0  0  0  0
   59.4919   32.5336   46.4275 H   0  0  0  0  0  0  0  0  0  0  0  0
   58.8046   32.5768   48.1203 H   0  0  0  0  0  0  0  0  0  0  0  0
   60.9190   32.4540   48.0180 C   0  0  0  0  0  0  0  0  0  0  0  0
   62.0210   31.7170   47.5490 C   0  0  0  0  0  0  0  0  0  0  0  0
   61.8732   30.9538   46.7708 H   0  0  0  0  0  0  0  0  0  0  0  0
   63.3010   31.9430   48.0600 C   0  0  0  0  0  0  0  0  0  0  0  0
   64.1550   31.3654   47.6765 H   0  0  0  0  0  0  0  0  0  0  0  0
   63.4990   32.9010   49.0570 C   0  0  0  0  0  0  0  0  0  0  0  0
   65.1060   33.1830   49.6990 Cl  0  0  0  0  0  0  0  0  0  0  0  0
   62.4110   33.6290   49.5460 C   0  0  0  0  0  0  0  0  0  0  0  0
   62.5666   34.3805   50.3340 H   0  0  0  0  0  0  0  0  0  0  0  0
   61.1270   33.4090   49.0410 C   0  0  0  0  0  0  0  0  0  0  0  0
   60.1040   34.1390   49.5490 F   0  0  0  0  0  0  0  0  0  0  0  0
   58.9200   29.9630   46.2880 C   0  0  0  0  0  0  0  0  0  0  0  0
   58.7130   30.4960   45.0720 C   0  0  0  0  0  0  0  0  0  0  0  0
   58.7694   31.5856   44.9322 H   0  0  0  0  0  0  0  0  0  0  0  0
   58.4872   29.8427   44.2163 H   0  0  0  0  0  0  0  0  0  0  0  0
  1  2  1  0
  2  3  1  0
  3  4  1  0
  4  5  1  0
  5  6  2  0
  5  7  1  0
  7  8  1  0
  8  9  1  0
  9 10  1  0
  9 11  2  0
 11 12  1  0
 12 13  1  0
 12 14  2  0
 14 15  1  0
 15 16  2  0
 15 17  1  0
 17 18  1  0
 18 19  1  0
 18 20  1  0
 18 21  1  0
 21 22  1  0
 21 23  1  0
 21 24  1  0
 24 25  1  0
 25 26  1  0
 25 27  1  0
 25 28  1  0
 24 29  1  0
 29 30  1  0
 29 31  1  0
 29 32  1  0
 32 33  1  0
 32 34  1  0
 14 35  1  0
 35 36  1  0
 36 37  1  0
 36 38  1  0
 36 39  1  0
 39 40  2  0
 40 41  1  0
 40 42  1  0
 42 43  1  0
 42 44  2  0
 44 45  1  0
 44 46  1  0
 46 47  1  0
 46 48  2  0
 48 49  1  0
 35 50  1  0
 50 51  2  0
 51 52  1  0
 51 53  1  0
  8  3  2  0
 50 11  1  0
 32 17  1  0
 48 39  1  0
M  CHG  2   4  -1   7  -1
M  END
>  <UniqueID>  (15) 
15

>  <SMILES>  (15) 
C=c1/c(=C/c2[n-]c(=O)[n-]c2O)cc(C(=O)N2CCN(C)CC2)n1Cc1ccc(Cl)cc1F

>  <Energy>  (15) 
134.00335972214364

>  <Genealogy>  (15) 
C=c1c(=Cc2[n-]c(=O)[n-]c2O)cc(C(=O)N2CCN(C)CC2)n1Cc1ccc(Cl)cc1F (protonated)
C=c1/c(=C/c2[n-]c(=O)[n-]c2O)cc(C(=O)N2CCN(C)CC2)n1Cc1ccc(Cl)cc1F (cis-trans isomerization)
C=c1/c(=C/c2[n-]c(=O)[n-]c2O)cc(C(=O)N2CCN(C)CC2)n1Cc1ccc(Cl)cc1F (3D coordinates assigned)
C=c1/c(=C/c2[n-]c(=O)[n-]c2O)cc(C(=O)N2CCN(C)CC2)n1Cc1ccc(Cl)cc1F (nonaromatic ring conformer: 134.00335972214364 kcal/mol)

>  <smiles>  (15) 
C=c1c(=Cc2[nH]c(=O)[nH]c2O)cc(C(=O)N2CCN(C)CC2)n1Cc1ccc(Cl)cc1F

>  <score_type>  (15) 
oracle

>  <origin>  (15) 
adg

>  <m_score__min__energy>  (15) 
-12.789999999999999

>  <m_primary>  (15) 
energy

$$$$
15:0
     RDKit          3D

 48 50  0  0  0  0  0  0  0  0999 V2000
   56.6610   30.7590   43.2580 C   0  0  0  0  0  0  0  0  0  0  0  0
   57.2610   30.6780   44.4590 C   0  0  0  0  0  0  0  0  0  0  0  0
   57.3820   29.5100   45.2240 C   0  0  0  0  0  0  0  0  0  0  0  0
   56.9330   28.2770   44.9180 C   0  0  0  0  0  0  0  0  0  0  0  0
   56.9500   27.1370   45.8540 C   0  0  0  0  0  0  0  0  0  0  0  0
   58.0010   26.8420   46.6390 N   0  0  0  0  0  0  0  0  0  0  0  0
   57.5600   25.8000   47.3760 C   0  0  0  0  0  0  0  0  0  0  0  0
   58.2790   25.2270   48.2360 O   0  0  0  0  0  0  0  0  0  0  0  0
   56.2870   25.4290   47.1290 N   0  0  0  0  0  0  0  0  0  0  0  0
   55.9090   26.2910   46.1710 C   0  0  0  0  0  0  0  0  0  0  0  0
   54.6270   26.3330   45.6380 O   0  0  0  0  0  0  0  0  0  0  0  0
   57.9850   29.8850   46.4110 C   0  0  0  0  0  0  0  0  0  0  0  0
   58.2200   31.2380   46.3270 C   0  0  0  0  0  0  0  0  0  0  0  0
   58.7360   32.0240   47.4570 C   0  0  0  0  0  0  0  0  0  0  0  0
   57.9380   32.7700   48.0870 O   0  0  0  0  0  0  0  0  0  0  0  0
   60.1320   31.9840   47.8180 N   0  0  0  0  0  0  0  0  0  0  0  0
   61.1190   31.4600   46.8600 C   0  0  0  0  0  0  0  0  0  0  0  0
   62.5400   31.6060   47.3990 C   0  0  0  0  0  0  0  0  0  0  0  0
   62.6800   32.9420   47.9950 N   0  0  0  0  0  0  0  0  0  0  0  0
   64.0960   33.2470   48.2540 C   0  0  0  0  0  0  0  0  0  0  0  0
   61.8860   33.0670   49.2380 C   0  0  0  0  0  0  0  0  0  0  0  0
   60.5460   32.2990   49.1940 C   0  0  0  0  0  0  0  0  0  0  0  0
   57.8120   31.7350   45.1270 N   0  0  0  0  0  0  0  0  0  0  0  0
   57.8730   33.1440   44.6660 C   0  0  0  0  0  0  0  0  0  0  0  0
   56.7750   33.9780   45.3290 C   0  0  0  0  0  0  0  0  0  0  0  0
   59.2570   33.7780   44.8680 C   0  0  0  0  0  0  0  0  0  0  0  0
   56.6146   31.7230   42.7303 H   0  0  0  0  0  0  0  0  0  0  0  0
   56.2167   29.8612   42.8035 H   0  0  0  0  0  0  0  0  0  0  0  0
   56.5291   28.1103   43.9085 H   0  0  0  0  0  0  0  0  0  0  0  0
   58.2295   29.2281   47.2587 H   0  0  0  0  0  0  0  0  0  0  0  0
   60.9119   30.3953   46.6771 H   0  0  0  0  0  0  0  0  0  0  0  0
   61.0389   32.0357   45.9261 H   0  0  0  0  0  0  0  0  0  0  0  0
   62.7272   30.8376   48.1635 H   0  0  0  0  0  0  0  0  0  0  0  0
   63.2665   31.4805   46.5826 H   0  0  0  0  0  0  0  0  0  0  0  0
   64.2704   33.2846   49.3394 H   0  0  0  0  0  0  0  0  0  0  0  0
   64.7272   32.4642   47.8081 H   0  0  0  0  0  0  0  0  0  0  0  0
   64.3490   34.2202   47.8081 H   0  0  0  0  0  0  0  0  0  0  0  0
   62.4842   32.6755   50.0740 H   0  0  0  0  0  0  0  0  0  0  0  0
   61.6438   34.1329   49.3611 H   0  0  0  0  0  0  0  0  0  0  0  0
   60.6576   31.3591   49.7545 H   0  0  0  0  0  0  0  0  0  0  0  0
   59.7732   32.9417   49.6408 H   0  0  0  0  0  0  0  0  0  0  0  0
   57.6964   33.1336   43.5803 H   0  0  0  0  0  0  0  0  0  0  0  0
   56.8697   33.9060   46.4225 H   0  0  0  0  0  0  0  0  0  0  0  0
   56.8762   35.0290   45.0206 H   0  0  0  0  0  0  0  0  0  0  0  0
   55.7897   33.5986   45.0206 H   0  0  0  0  0  0  0  0  0  0  0  0
   59.4634   33.8726   45.9443 H   0  0  0  0  0  0  0  0  0  0  0  0
   60.0235   33.1412   44.4022 H   0  0  0  0  0  0  0  0  0  0  0  0
   59.2754   34.7743   44.4022 H   0  0  0  0  0  0  0  0  0  0  0  0
  1  2  2  0
  2  3  1  0
  3  4  2  3
  4  5  1  0
  5  6  1  0
  6  7  1  0
  7  8  2  0
  7  9  1  0
  9 10  1  0
 10 11  1  0
  3 12  1  0
 12 13  2  0
 13 14  1  0
 14 15  2  0
 14 16  1  0
 16 17  1  0
 17 18  1  0
 18 19  1  0
 19 20  1  0
 19 21  1  0
 21 22  1  0
 13 23  1  0
 23 24  1  0
 24 25  1  0
 24 26  1  0
 23  2  1  0
 10  5  2  0
 22 16  1  0
  1 27  1  0
  1 28  1  0
  4 29  1  0
 12 30  1  0
 17 31  1  0
 17 32  1  0
 18 33  1  0
 18 34  1  0
 20 35  1  0
 20 36  1  0
 20 37  1  0
 21 38  1  0
 21 39  1  0
 22 40  1  0
 22 41  1  0
 24 42  1  0
 25 43  1  0
 25 44  1  0
 25 45  1  0
 26 46  1  0
 26 47  1  0
 26 48  1  0
M  CHG  3   6  -1   9  -1  11  -1
M  END
>  <UniqueID>  (16) 
16

>  <SMILES>  (16) 
C=c1c(=Cc2[n-]c(=O)[n-]c2[O-])cc(C(=O)N2CCN(C)CC2)n1C(C)C

>  <Energy>  (16) 
126.41439019219112

>  <Genealogy>  (16) 
C=c1c(=Cc2[n-]c(=O)[n-]c2[O-])cc(C(=O)N2CCN(C)CC2)n1C(C)C (protonated)
C=c1c(=Cc2[n-]c(=O)[n-]c2[O-])cc(C(=O)N2CCN(C)CC2)n1C(C)C (3D coordinates assigned)
C=c1c(=Cc2[n-]c(=O)[n-]c2[O-])cc(C(=O)N2CCN(C)CC2)n1C(C)C (nonaromatic ring conformer: 126.41439019219112 kcal/mol)

>  <smiles>  (16) 
C=c1c(=Cc2[nH]c(=O)[nH]c2O)cc(C(=O)N2CCN(C)CC2)n1C(C)C

>  <score_type>  (16) 
oracle

>  <origin>  (16) 
adg

>  <m_score__min__energy>  (16) 
-16.309999999999999

>  <m_primary>  (16) 
energy

$$$$
16:0
     RDKit          3D

 65 70  0  0  0  0  0  0  0  0999 V2000
   57.6102   21.1647   42.8977 H   0  0  0  0  0  0  0  0  0  0  0  0
   57.2660   22.0240   43.4920 C   0  0  0  0  0  0  0  0  0  0  0  0
   57.8320   22.2800   44.7440 C   0  0  0  0  0  0  0  0  0  0  0  0
   58.6211   21.6207   45.1349 H   0  0  0  0  0  0  0  0  0  0  0  0
   57.3970   23.3730   45.5010 C   0  0  0  0  0  0  0  0  0  0  0  0
   57.8481   23.5699   46.4848 H   0  0  0  0  0  0  0  0  0  0  0  0
   56.3860   24.2230   45.0130 C   0  0  0  0  0  0  0  0  0  0  0  0
   55.9160   25.3750   45.8190 C   0  0  0  0  0  0  0  0  0  0  0  0
   54.7450   25.8150   45.6580 O   0  0  0  0  0  0  0  0  0  0  0  0
   56.7870   25.9570   46.8030 N   0  0  0  0  0  0  0  0  0  0  0  0
   57.8490   26.6820   46.5980 C   0  0  0  0  0  0  0  0  0  0  0  0
   58.9640   26.1770   46.0390 N   0  0  0  0  0  0  0  0  0  0  0  0
   59.8420   27.1610   45.9470 N   0  0  0  0  0  0  0  0  0  0  0  0
   60.7980   27.0540   45.5410 H   0  0  0  0  0  0  0  0  0  0  0  0
   59.3000   28.2950   46.4330 C   0  0  0  0  0  0  0  0  0  0  0  0
   59.9810   29.6000   46.4470 C   0  0  0  0  0  0  0  0  0  0  0  0
   61.1620   29.6860   46.0200 O   0  0  0  0  0  0  0  0  0  0  0  0
   59.3160   30.7740   46.9420 N   0  0  0  0  0  0  0  0  0  0  0  0
   58.6550   31.7300   46.1280 C   0  0  0  0  0  0  0  0  0  0  0  0
   58.4430   31.6610   44.7460 C   0  0  0  0  0  0  0  0  0  0  0  0
   58.8037   30.8009   44.1628 H   0  0  0  0  0  0  0  0  0  0  0  0
   57.7590   32.7160   44.1230 C   0  0  0  0  0  0  0  0  0  0  0  0
   57.5869   32.6913   43.0368 H   0  0  0  0  0  0  0  0  0  0  0  0
   57.2920   33.8060   44.8820 C   0  0  0  0  0  0  0  0  0  0  0  0
   56.7555   34.6296   44.3882 H   0  0  0  0  0  0  0  0  0  0  0  0
   57.5100   33.8430   46.2670 C   0  0  0  0  0  0  0  0  0  0  0  0
   57.1456   34.6873   46.8706 H   0  0  0  0  0  0  0  0  0  0  0  0
   58.1990   32.7860   46.8630 C   0  0  0  0  0  0  0  0  0  0  0  0
   58.5310   32.6090   48.3040 C   0  0  0  0  0  0  0  0  0  0  0  0
   59.1714   33.4286   48.6620 H   0  0  0  0  0  0  0  0  0  0  0  0
   57.6404   32.6174   48.9496 H   0  0  0  0  0  0  0  0  0  0  0  0
   59.3020   31.2340   48.3470 C   0  0  0  0  0  0  0  0  0  0  0  0
   60.7680   31.4150   48.8660 C   0  0  0  0  0  0  0  0  0  0  0  0
   61.4618   31.0548   48.0921 H   0  0  0  0  0  0  0  0  0  0  0  0
   60.9142   32.4842   49.0794 H   0  0  0  0  0  0  0  0  0  0  0  0
   61.0390   30.6420   50.1670 C   0  0  0  0  0  0  0  0  0  0  0  0
   61.0644   29.5659   49.9405 H   0  0  0  0  0  0  0  0  0  0  0  0
   62.0010   30.9898   50.5714 H   0  0  0  0  0  0  0  0  0  0  0  0
   59.9980   30.8890   51.1950 N   0  0  0  0  0  0  0  0  0  0  0  0
   60.0750   32.2430   51.8140 C   0  0  1  0  0  0  0  0  0  0  0  0
   61.0501   32.6285   51.4814 H   0  0  0  0  0  0  0  0  0  0  0  0
   58.8980   33.1390   51.3790 C   0  0  0  0  0  0  0  0  0  0  0  0
   59.2343   33.8557   50.6153 H   0  0  0  0  0  0  0  0  0  0  0  0
   58.0884   32.5316   50.9482 H   0  0  0  0  0  0  0  0  0  0  0  0
   58.4070   33.8880   52.6160 C   0  0  0  0  0  0  0  0  0  0  0  0
   58.4074   34.9721   52.4296 H   0  0  0  0  0  0  0  0  0  0  0  0
   57.3783   33.5980   52.8760 H   0  0  0  0  0  0  0  0  0  0  0  0
   59.3750   33.5470   53.7350 C   0  0  0  0  0  0  0  0  0  0  0  0
   60.3710   34.5080   53.8100 F   0  0  0  0  0  0  0  0  0  0  0  0
   58.7230   33.4590   54.9530 F   0  0  0  0  0  0  0  0  0  0  0  0
   59.9750   32.2110   53.3430 C   0  0  0  0  0  0  0  0  0  0  0  0
   60.9721   32.0904   53.7915 H   0  0  0  0  0  0  0  0  0  0  0  0
   59.3624   31.3681   53.6954 H   0  0  0  0  0  0  0  0  0  0  0  0
   58.6220   30.5610   50.7180 C   0  0  0  0  0  0  0  0  0  0  0  0
   58.2570   29.6971   51.2928 H   0  0  0  0  0  0  0  0  0  0  0  0
   58.0171   31.4675   50.8677 H   0  0  0  0  0  0  0  0  0  0  0  0
   58.5250   30.2160   49.2200 C   0  0  0  0  0  0  0  0  0  0  0  0
   58.9452   29.2126   49.0571 H   0  0  0  0  0  0  0  0  0  0  0  0
   57.4652   30.2512   48.9274 H   0  0  0  0  0  0  0  0  0  0  0  0
   58.0110   28.0350   46.8590 C   0  0  0  0  0  0  0  0  0  0  0  0
   57.2858   28.7346   47.3002 H   0  0  0  0  0  0  0  0  0  0  0  0
   55.8270   23.9560   43.7480 C   0  0  0  0  0  0  0  0  0  0  0  0
   55.0416   24.6144   43.3484 H   0  0  0  0  0  0  0  0  0  0  0  0
   56.2630   22.8600   42.9960 C   0  0  0  0  0  0  0  0  0  0  0  0
   55.8151   22.6562   42.0122 H   0  0  0  0  0  0  0  0  0  0  0  0
  1  2  1  0
  2  3  2  0
  3  4  1  0
  3  5  1  0
  5  6  1  0
  5  7  2  0
  7  8  1  0
  8  9  2  0
  8 10  1  0
 10 11  2  0
 11 12  1  0
 12 13  1  0
 13 14  1  0
 13 15  1  0
 15 16  1  0
 16 17  2  0
 16 18  1  0
 18 19  1  0
 19 20  2  0
 20 21  1  0
 20 22  1  0
 22 23  1  0
 22 24  2  0
 24 25  1  0
 24 26  1  0
 26 27  1  0
 26 28  2  0
 28 29  1  0
 29 30  1  0
 29 31  1  0
 29 32  1  0
 32 33  1  0
 33 34  1  0
 33 35  1  0
 33 36  1  0
 36 37  1  0
 36 38  1  0
 36 39  1  0
 39 40  1  0
 40 41  1  1
 40 42  1  0
 42 43  1  0
 42 44  1  0
 42 45  1  0
 45 46  1  0
 45 47  1  0
 45 48  1  0
 48 49  1  0
 48 50  1  0
 48 51  1  0
 51 52  1  0
 51 53  1  0
 39 54  1  0
 54 55  1  0
 54 56  1  0
 54 57  1  0
 57 58  1  0
 57 59  1  0
 15 60  2  0
 60 61  1  0
  7 62  1  0
 62 63  1  0
 62 64  2  0
 64 65  1  0
 64  2  1  0
 60 11  1  0
 32 18  1  0
 51 40  1  0
 28 19  1  0
 57 32  1  0
M  CHG  1  12  -1
M  END
>  <UniqueID>  (17) 
17

>  <SMILES>  (17) 
O=C(/N=c1\cc(C(=O)N2c3ccccc3CC23CCN([C@H]2CCC(F)(F)C2)CC3)[nH][n-]1)c1ccccc1

>  <Energy>  (17) 
143.93045322692961

>  <Genealogy>  (17) 
O=C(N=c1cc(C(=O)N2c3ccccc3CC23CCN(C2CCC(F)(F)C2)CC3)[nH][n-]1)c1ccccc1 (protonated)
O=C(N=c1cc(C(=O)N2c3ccccc3CC23CCN([C@H]2CCC(F)(F)C2)CC3)[nH][n-]1)c1ccccc1 (chirality)
O=C(/N=c1\cc(C(=O)N2c3ccccc3CC23CCN([C@H]2CCC(F)(F)C2)CC3)[nH][n-]1)c1ccccc1 (cis-trans isomerization)
O=C(/N=c1\cc(C(=O)N2c3ccccc3CC23CCN([C@H]2CCC(F)(F)C2)CC3)[nH][n-]1)c1ccccc1 (3D coordinates assigned)
O=C(/N=c1\cc(C(=O)N2c3ccccc3CC23CCN([C@H]2CCC(F)(F)C2)CC3)[nH][n-]1)c1ccccc1 (nonaromatic ring conformer: 143.93045322692961 kcal/mol)

>  <smiles>  (17) 
O=C(N=c1cc(C(=O)N2c3ccccc3CC23CCN(C2CCC(F)(F)C2)CC3)[nH][nH]1)c1ccccc1

>  <score_type>  (17) 
oracle

>  <origin>  (17) 
adg

>  <m_score__min__energy>  (17) 
-12.09

>  <m_primary>  (17) 
energy

$$$$
17:0
     RDKit          3D

 58 61  0  0  0  0  0  0  0  0999 V2000
   52.9950   28.6900   55.2210 C   0  0  0  0  0  0  0  0  0  0  0  0
   53.9430   29.0280   54.3330 C   0  0  0  0  0  0  0  0  0  0  0  0
   53.7660   29.2920   52.9650 C   0  0  0  0  0  0  0  0  0  0  0  0
   52.6510   29.4540   52.2270 C   0  0  0  0  0  0  0  0  0  0  0  0
   52.0530   30.7430   51.8400 C   0  0  0  0  0  0  0  0  0  0  0  0
   51.6670   31.6720   52.7310 N   0  0  0  0  0  0  0  0  0  0  0  0
   51.0700   32.6120   51.9660 C   0  0  0  0  0  0  0  0  0  0  0  0
   50.5800   33.6660   52.4470 O   0  0  0  0  0  0  0  0  0  0  0  0
   51.0240   32.3240   50.6470 N   0  0  0  0  0  0  0  0  0  0  0  0
   51.6340   31.1280   50.5820 C   0  0  0  0  0  0  0  0  0  0  0  0
   51.7670   30.4030   49.4000 O   0  0  0  0  0  0  0  0  0  0  0  0
   55.0360   29.4070   52.4280 C   0  0  0  0  0  0  0  0  0  0  0  0
   55.9310   29.2560   53.4670 C   0  0  0  0  0  0  0  0  0  0  0  0
   57.3930   29.3880   53.3110 C   0  0  0  0  0  0  0  0  0  0  0  0
   58.1310   28.6380   54.0070 O   0  0  0  0  0  0  0  0  0  0  0  0
   57.9960   30.3560   52.4240 N   0  0  0  0  0  0  0  0  0  0  0  0
   59.4220   30.2050   52.0930 C   0  0  0  0  0  0  0  0  0  0  0  0
   59.9570   31.3930   51.2860 C   0  0  0  0  0  0  0  0  0  0  0  0
   59.0090   31.7160   50.1220 C   0  0  0  0  0  0  0  0  0  0  0  0
   59.5690   32.8570   49.3130 C   0  0  0  0  0  0  0  0  0  0  0  0
   59.7790   33.9760   49.8600 O   0  0  0  0  0  0  0  0  0  0  0  0
   59.8890   32.6490   47.9310 N   0  0  0  0  0  0  0  0  0  0  0  0
   58.9660   32.6130   46.8310 C   0  0  0  0  0  0  0  0  0  0  0  0
   58.5010   33.7860   46.2050 C   0  0  0  0  0  0  0  0  0  0  0  0
   57.6150   33.7040   45.1260 C   0  0  0  0  0  0  0  0  0  0  0  0
   57.2030   32.4570   44.6490 C   0  0  0  0  0  0  0  0  0  0  0  0
   57.6940   31.2770   45.2340 C   0  0  0  0  0  0  0  0  0  0  0  0
   57.2410   29.9330   44.7340 C   0  0  0  0  0  0  0  0  0  0  0  0
   55.8740   29.7750   45.0060 O   0  0  0  0  0  0  0  0  0  0  0  0
   58.5700   31.3640   46.3290 C   0  0  0  0  0  0  0  0  0  0  0  0
   57.5540   31.9890   50.6000 C   0  0  0  0  0  0  0  0  0  0  0  0
   57.2990   31.6040   52.0690 C   0  0  0  0  0  0  0  0  0  0  0  0
   55.2690   29.0560   54.6320 N   0  0  0  0  0  0  0  0  0  0  0  0
   55.8630   28.9260   55.9670 C   0  0  0  0  0  0  0  0  0  0  0  0
   53.2653   28.5083   56.2717 H   0  0  0  0  0  0  0  0  0  0  0  0
   51.9478   28.5947   54.8981 H   0  0  0  0  0  0  0  0  0  0  0  0
   52.1415   28.5420   51.8825 H   0  0  0  0  0  0  0  0  0  0  0  0
   52.6730   30.0850   49.0700 H   0  0  0  0  0  0  0  0  0  0  0  0
   55.2851   29.5853   51.3715 H   0  0  0  0  0  0  0  0  0  0  0  0
   59.9962   30.1242   53.0278 H   0  0  0  0  0  0  0  0  0  0  0  0
   59.5321   29.3006   51.4766 H   0  0  0  0  0  0  0  0  0  0  0  0
   60.0374   32.2715   51.9431 H   0  0  0  0  0  0  0  0  0  0  0  0
   60.9463   31.1341   50.8808 H   0  0  0  0  0  0  0  0  0  0  0  0
   58.9431   30.8297   49.4738 H   0  0  0  0  0  0  0  0  0  0  0  0
   58.8358   34.7697   46.5659 H   0  0  0  0  0  0  0  0  0  0  0  0
   57.2416   34.6235   44.6517 H   0  0  0  0  0  0  0  0  0  0  0  0
   56.4914   32.3985   43.8122 H   0  0  0  0  0  0  0  0  0  0  0  0
   57.4098   29.8684   43.6490 H   0  0  0  0  0  0  0  0  0  0  0  0
   57.8118   29.1399   45.2391 H   0  0  0  0  0  0  0  0  0  0  0  0
   55.7940   29.7300   45.9950 H   0  0  0  0  0  0  0  0  0  0  0  0
   58.9492   30.4438   46.7974 H   0  0  0  0  0  0  0  0  0  0  0  0
   57.3460   33.0627   50.4819 H   0  0  0  0  0  0  0  0  0  0  0  0
   56.8921   31.3614   49.9852 H   0  0  0  0  0  0  0  0  0  0  0  0
   57.6606   32.4139   52.7196 H   0  0  0  0  0  0  0  0  0  0  0  0
   56.2185   31.4488   52.2047 H   0  0  0  0  0  0  0  0  0  0  0  0
   55.0895   29.0953   56.7306 H   0  0  0  0  0  0  0  0  0  0  0  0
   56.2804   27.9152   56.0857 H   0  0  0  0  0  0  0  0  0  0  0  0
   56.6645   29.6700   56.0857 H   0  0  0  0  0  0  0  0  0  0  0  0
  1  2  2  0
  2  3  1  0
  3  4  2  3
  4  5  1  0
  5  6  1  0
  6  7  1  0
  7  8  2  0
  7  9  1  0
  9 10  1  0
 10 11  1  0
  3 12  1  0
 12 13  2  0
 13 14  1  0
 14 15  2  0
 14 16  1  0
 16 17  1  0
 17 18  1  0
 18 19  1  0
 19 20  1  0
 20 21  2  0
 20 22  1  0
 22 23  1  0
 23 24  2  0
 24 25  1  0
 25 26  2  0
 26 27  1  0
 27 28  1  0
 28 29  1  0
 27 30  2  0
 19 31  1  0
 31 32  1  0
 13 33  1  0
 33 34  1  0
 33  2  1  0
 10  5  2  0
 32 16  1  0
 30 23  1  0
  1 35  1  0
  1 36  1  0
  4 37  1  0
 11 38  1  0
 12 39  1  0
 17 40  1  0
 17 41  1  0
 18 42  1  0
 18 43  1  0
 19 44  1  0
 24 45  1  0
 25 46  1  0
 26 47  1  0
 28 48  1  0
 28 49  1  0
 29 50  1  0
 30 51  1  0
 31 52  1  0
 31 53  1  0
 32 54  1  0
 32 55  1  0
 34 56  1  0
 34 57  1  0
 34 58  1  0
M  CHG  3   6  -1   9  -1  22  -1
M  END
>  <UniqueID>  (18) 
18

>  <SMILES>  (18) 
C=c1c(=Cc2[n-]c(=O)[n-]c2O)cc(C(=O)N2CCC(C(=O)[N-]c3cccc(CO)c3)CC2)n1C

>  <Energy>  (18) 
140.8102073804005

>  <Genealogy>  (18) 
C=c1c(=Cc2[n-]c(=O)[n-]c2O)cc(C(=O)N2CCC(C(=O)[N-]c3cccc(CO)c3)CC2)n1C (protonated)
C=c1c(=Cc2[n-]c(=O)[n-]c2O)cc(C(=O)N2CCC(C(=O)[N-]c3cccc(CO)c3)CC2)n1C (3D coordinates assigned)
C=c1c(=Cc2[n-]c(=O)[n-]c2O)cc(C(=O)N2CCC(C(=O)[N-]c3cccc(CO)c3)CC2)n1C (nonaromatic ring conformer: 140.8102073804005 kcal/mol)

>  <smiles>  (18) 
C=c1c(=Cc2[nH]c(=O)[nH]c2O)cc(C(=O)N2CCC(C(=O)Nc3cccc(CO)c3)CC2)n1C

>  <score_type>  (18) 
oracle

>  <origin>  (18) 
adg

>  <m_score__min__energy>  (18) 
-15.82

>  <m_primary>  (18) 
energy

$$$$
18:0
     RDKit          3D

 31 32  0  0  0  0  0  0  0  0999 V2000
   55.4670   30.5360   44.4980 O   0  0  0  0  0  0  0  0  0  0  0  0
   56.3370   29.6820   44.8190 C   0  0  0  0  0  0  0  0  0  0  0  0
   57.7930   30.0390   44.6830 C   0  0  0  0  0  0  0  0  0  0  0  0
   58.0220   31.4650   45.1090 C   0  0  0  0  0  0  0  0  0  0  0  0
   58.4060   31.7680   46.4270 C   0  0  0  0  0  0  0  0  0  0  0  0
   58.6590   33.0910   46.8010 C   0  0  0  0  0  0  0  0  0  0  0  0
   58.5290   34.1210   45.8650 C   0  0  0  0  0  0  0  0  0  0  0  0
   58.1420   33.8300   44.5520 C   0  0  0  0  0  0  0  0  0  0  0  0
   57.8910   32.5090   44.1740 C   0  0  0  0  0  0  0  0  0  0  0  0
   55.9020   28.3880   45.2550 N   0  0  0  0  0  0  0  0  0  0  0  0
   56.7850   27.2940   45.6360 C   0  0  0  0  0  0  0  0  0  0  0  0
   55.9930   26.2450   46.3420 C   0  0  0  0  0  0  0  0  0  0  0  0
   56.5220   25.5840   47.2780 O   0  0  0  0  0  0  0  0  0  0  0  0
   54.6250   26.0330   45.9910 N   0  0  0  0  0  0  0  0  0  0  0  0
   54.1330   24.7440   45.5220 C   0  0  0  0  0  0  0  0  0  0  0  0
   55.2020   23.8980   44.8560 C   0  0  0  0  0  0  0  0  0  0  0  0
   54.7360   23.5700   46.2670 C   0  0  0  0  0  0  0  0  0  0  0  0
   58.3919   29.3697   45.3181 H   0  0  0  0  0  0  0  0  0  0  0  0
   58.0928   29.9268   43.6306 H   0  0  0  0  0  0  0  0  0  0  0  0
   58.5078   30.9606   47.1671 H   0  0  0  0  0  0  0  0  0  0  0  0
   58.9608   33.3218   47.8333 H   0  0  0  0  0  0  0  0  0  0  0  0
   58.7310   35.1611   46.1607 H   0  0  0  0  0  0  0  0  0  0  0  0
   58.0354   34.6418   43.8174 H   0  0  0  0  0  0  0  0  0  0  0  0
   57.5894   32.2834   43.1405 H   0  0  0  0  0  0  0  0  0  0  0  0
   57.2457   26.8626   44.7350 H   0  0  0  0  0  0  0  0  0  0  0  0
   57.5738   27.6720   46.3031 H   0  0  0  0  0  0  0  0  0  0  0  0
   53.1135   25.0609   45.2569 H   0  0  0  0  0  0  0  0  0  0  0  0
   54.9369   23.2336   44.0203 H   0  0  0  0  0  0  0  0  0  0  0  0
   56.1748   24.1016   44.3847 H   0  0  0  0  0  0  0  0  0  0  0  0
   54.1342   22.6680   46.4519 H   0  0  0  0  0  0  0  0  0  0  0  0
   55.2327   23.4377   47.2395 H   0  0  0  0  0  0  0  0  0  0  0  0
  1  2  2  0
  2  3  1  0
  3  4  1  0
  4  5  2  0
  5  6  1  0
  6  7  2  0
  7  8  1  0
  8  9  2  0
  2 10  1  0
 10 11  1  0
 11 12  1  0
 12 13  2  0
 12 14  1  0
 14 15  1  0
 15 16  1  0
 16 17  1  0
  9  4  1  0
 17 15  1  0
  3 18  1  0
  3 19  1  0
  5 20  1  0
  6 21  1  0
  7 22  1  0
  8 23  1  0
  9 24  1  0
 11 25  1  0
 11 26  1  0
 15 27  1  0
 16 28  1  0
 16 29  1  0
 17 30  1  0
 17 31  1  0
M  CHG  2  10  -1  14  -1
M  END
>  <UniqueID>  (19) 
19

>  <SMILES>  (19) 
O=C(Cc1ccccc1)[N-]CC(=O)[N-]C1CC1

>  <Energy>  (19) 
288.22453730005964

>  <Genealogy>  (19) 
O=C(Cc1ccccc1)[N-]CC(=O)[N-]C1CC1 (protonated)
O=C(Cc1ccccc1)[N-]CC(=O)[N-]C1CC1 (3D coordinates assigned)
O=C(Cc1ccccc1)[N-]CC(=O)[N-]C1CC1 (nonaromatic ring conformer: 288.22453730005964 kcal/mol)

>  <smiles>  (19) 
O=C(Cc1ccccc1)NCC(=O)NC1CC1

>  <score_type>  (19) 
oracle

>  <origin>  (19) 
adg

>  <m_score__min__energy>  (19) 
-11.23

>  <m_primary>  (19) 
energy

$$$$
19:0
     RDKit          3D

 57 60  0  0  0  0  0  0  0  0999 V2000
   56.4282   32.6945   45.7161 H   0  0  0  0  0  0  0  0  0  0  0  0
   57.3060   33.3570   45.6950 C   0  0  0  0  0  0  0  0  0  0  0  0
   57.8770   33.8470   46.8290 N   0  0  0  0  0  0  0  0  0  0  0  0
   58.9360   34.6350   46.5530 C   0  0  0  0  0  0  0  0  0  0  0  0
   59.6410   35.1990   47.4870 N   0  0  0  0  0  0  0  0  0  0  0  0
   60.4370   34.3570   48.7820 S   0  0  0  0  0  0  0  0  0  0  0  0
   59.6450   34.5740   50.0410 O   0  0  0  0  0  0  0  0  0  0  0  0
   61.8180   34.9190   48.9760 O   0  0  0  0  0  0  0  0  0  0  0  0
   60.5330   32.6260   48.4650 C   0  0  0  0  0  0  0  0  0  0  0  0
   61.3940   32.1110   47.4840 C   0  0  0  0  0  0  0  0  0  0  0  0
   62.0265   32.7922   46.8959 H   0  0  0  0  0  0  0  0  0  0  0  0
   61.4490   30.7330   47.2530 C   0  0  0  0  0  0  0  0  0  0  0  0
   62.1268   30.3357   46.4831 H   0  0  0  0  0  0  0  0  0  0  0  0
   60.6490   29.8550   47.9930 C   0  0  0  0  0  0  0  0  0  0  0  0
   60.7210   28.4810   47.7160 O   0  0  0  0  0  0  0  0  0  0  0  0
   59.7500   27.7410   47.0260 C   0  0  0  0  0  0  0  0  0  0  0  0
   59.7940   26.3390   46.9560 C   0  0  0  0  0  0  0  0  0  0  0  0
   60.6094   25.7929   47.4529 H   0  0  0  0  0  0  0  0  0  0  0  0
   58.8100   25.6330   46.2600 C   0  0  0  0  0  0  0  0  0  0  0  0
   58.8529   24.5347   46.2158 H   0  0  0  0  0  0  0  0  0  0  0  0
   57.7640   26.3190   45.6150 C   0  0  0  0  0  0  0  0  0  0  0  0
   56.7220   25.6240   44.9060 N   0  0  0  0  0  0  0  0  0  0  0  0
   56.6410   25.7490   43.8740 H   0  0  0  0  0  0  0  0  0  0  0  0
   55.6380   24.4860   45.6460 S   0  0  0  0  0  0  0  0  0  0  0  0
   54.2230   24.9020   45.3590 O   0  0  0  0  0  0  0  0  0  0  0  0
   55.8620   24.4970   47.1320 O   0  0  0  0  0  0  0  0  0  0  0  0
   55.8990   22.8700   44.9800 C   0  0  0  0  0  0  0  0  0  0  0  0
   56.5780   22.7310   43.7590 C   0  0  0  0  0  0  0  0  0  0  0  0
   56.9504   23.6245   43.2366 H   0  0  0  0  0  0  0  0  0  0  0  0
   56.7840   21.4670   43.2030 C   0  0  0  0  0  0  0  0  0  0  0  0
   57.3239   21.3670   42.2498 H   0  0  0  0  0  0  0  0  0  0  0  0
   56.3060   20.3320   43.8550 C   0  0  0  0  0  0  0  0  0  0  0  0
   56.4730   19.3365   43.4178 H   0  0  0  0  0  0  0  0  0  0  0  0
   55.6150   20.4560   45.0630 C   0  0  0  0  0  0  0  0  0  0  0  0
   55.2355   19.5562   45.5693 H   0  0  0  0  0  0  0  0  0  0  0  0
   55.4000   21.7270   45.6390 C   0  0  0  0  0  0  0  0  0  0  0  0
   54.7070   21.8930   46.8510 O   0  0  0  0  0  0  0  0  0  0  0  0
   55.1800   21.5170   48.1470 C   0  0  1  0  0  0  0  0  0  0  0  0
   54.9936   20.4452   48.3098 H   0  0  0  0  0  0  0  0  0  0  0  0
   56.6500   21.7970   48.2250 C   0  0  0  0  0  0  0  0  0  0  0  0
   57.0750   22.7460   48.9380 O   0  0  0  0  0  0  0  0  0  0  0  0
   57.5500   21.0300   47.4940 O   0  0  0  0  0  0  0  0  0  0  0  0
   54.4420   22.3080   49.2300 C   0  0  0  0  0  0  0  0  0  0  0  0
   54.7658   21.9610   50.2223 H   0  0  0  0  0  0  0  0  0  0  0  0
   54.6717   23.3784   49.1229 H   0  0  0  0  0  0  0  0  0  0  0  0
   53.3582   22.1530   49.1229 H   0  0  0  0  0  0  0  0  0  0  0  0
   57.7420   27.7220   45.6640 C   0  0  0  0  0  0  0  0  0  0  0  0
   56.9384   28.2728   45.1532 H   0  0  0  0  0  0  0  0  0  0  0  0
   58.7320   28.4250   46.3560 C   0  0  0  0  0  0  0  0  0  0  0  0
   58.7098   29.5246   46.3734 H   0  0  0  0  0  0  0  0  0  0  0  0
   59.7610   30.3780   48.9490 C   0  0  0  0  0  0  0  0  0  0  0  0
   59.0980   29.7011   49.5079 H   0  0  0  0  0  0  0  0  0  0  0  0
   59.7160   31.7520   49.1930 C   0  0  0  0  0  0  0  0  0  0  0  0
   59.0358   32.1498   49.9605 H   0  0  0  0  0  0  0  0  0  0  0  0
   59.2120   34.7510   44.8920 S   0  0  0  0  0  0  0  0  0  0  0  0
   57.9120   33.7540   44.5070 C   0  0  0  0  0  0  0  0  0  0  0  0
   57.5964   33.4664   43.4932 H   0  0  0  0  0  0  0  0  0  0  0  0
  1  2  1  0
  2  3  1  0
  3  4  1  0
  4  5  2  0
  5  6  1  0
  6  7  2  0
  6  8  2  0
  6  9  1  0
  9 10  2  0
 10 11  1  0
 10 12  1  0
 12 13  1  0
 12 14  2  0
 14 15  1  0
 15 16  1  0
 16 17  2  0
 17 18  1  0
 17 19  1  0
 19 20  1  0
 19 21  2  0
 21 22  1  0
 22 23  1  0
 22 24  1  0
 24 25  2  0
 24 26  2  0
 24 27  1  0
 27 28  2  0
 28 29  1  0
 28 30  1  0
 30 31  1  0
 30 32  2  0
 32 33  1  0
 32 34  1  0
 34 35  1  0
 34 36  2  0
 36 37  1  0
 37 38  1  0
 38 39  1  1
 38 40  1  0
 40 41  2  0
 40 42  1  0
 38 43  1  0
 43 44  1  0
 43 45  1  0
 43 46  1  0
 21 47  1  0
 47 48  1  0
 47 49  2  0
 49 50  1  0
 14 51  1  0
 51 52  1  0
 51 53  2  0
 53 54  1  0
  4 55  1  0
 55 56  1  0
 56 57  1  0
 56  2  2  0
 53  9  1  0
 49 16  1  0
 36 27  1  0
M  CHG  2   3  -1  42  -1
M  END
>  <UniqueID>  (20) 
20

>  <SMILES>  (20) 
C[C@@H](Oc1ccccc1S(=O)(=O)Nc1ccc(Oc2ccc(S(=O)(=O)/N=c3/[n-]ccs3)cc2)cc1)C(=O)[O-]

>  <Energy>  (20) 
103.61343651429391

>  <Genealogy>  (20) 
CC(Oc1ccccc1S(=O)(=O)Nc1ccc(Oc2ccc(S(=O)(=O)N=c3[n-]ccs3)cc2)cc1)C(=O)[O-] (protonated)
C[C@@H](Oc1ccccc1S(=O)(=O)Nc1ccc(Oc2ccc(S(=O)(=O)N=c3[n-]ccs3)cc2)cc1)C(=O)[O-] (chirality)
C[C@@H](Oc1ccccc1S(=O)(=O)Nc1ccc(Oc2ccc(S(=O)(=O)/N=c3/[n-]ccs3)cc2)cc1)C(=O)[O-] (cis-trans isomerization)
C[C@@H](Oc1ccccc1S(=O)(=O)Nc1ccc(Oc2ccc(S(=O)(=O)/N=c3/[n-]ccs3)cc2)cc1)C(=O)[O-] (3D coordinates assigned)
C[C@@H](Oc1ccccc1S(=O)(=O)Nc1ccc(Oc2ccc(S(=O)(=O)/N=c3/[n-]ccs3)cc2)cc1)C(=O)[O-] (optimized conformer: 103.61343651429391 kcal/mol)

>  <smiles>  (20) 
CC(Oc1ccccc1S(=O)(=O)Nc1ccc(Oc2ccc(S(=O)(=O)N=c3[nH]ccs3)cc2)cc1)C(=O)O

>  <score_type>  (20) 
oracle

>  <origin>  (20) 
adg

>  <m_score__min__energy>  (20) 
-13.82

>  <m_primary>  (20) 
energy

$$$$
20:0
     RDKit          3D

 59 63  0  0  0  0  0  0  0  0999 V2000
   62.0498   28.2604   52.8809 H   0  0  0  0  0  0  0  0  0  0  0  0
   61.6860   28.6580   51.9220 C   0  0  0  0  0  0  0  0  0  0  0  0
   62.0460   29.8500   51.3890 N   0  0  0  0  0  0  0  0  0  0  0  0
   61.3560   29.9060   50.2290 C   0  0  0  0  0  0  0  0  0  0  0  0
   61.3730   30.9320   49.2660 C   0  0  0  0  0  0  0  0  0  0  0  0
   62.0880   32.0200   49.3550 N   0  0  0  0  0  0  0  0  0  0  0  0
   61.6590   33.4150   49.2320 C   0  0  0  0  0  0  0  0  0  0  0  0
   62.5393   34.0433   49.0310 H   0  0  0  0  0  0  0  0  0  0  0  0
   61.1734   33.7111   50.1736 H   0  0  0  0  0  0  0  0  0  0  0  0
   60.6640   33.5910   48.1100 C   0  0  0  0  0  0  0  0  0  0  0  0
   59.2840   33.4650   48.3520 C   0  0  0  0  0  0  0  0  0  0  0  0
   58.9230   33.2889   49.3760 H   0  0  0  0  0  0  0  0  0  0  0  0
   58.3680   33.5620   47.3000 C   0  0  0  0  0  0  0  0  0  0  0  0
   57.2910   33.4675   47.5031 H   0  0  0  0  0  0  0  0  0  0  0  0
   58.8150   33.7800   45.9810 C   0  0  0  0  0  0  0  0  0  0  0  0
   57.8310   33.8650   44.8700 C   0  0  0  0  0  0  0  0  0  0  0  0
   58.0540   33.2400   43.7930 O   0  0  0  0  0  0  0  0  0  0  0  0
   56.6260   34.6210   44.9870 N   0  0  0  0  0  0  0  0  0  0  0  0
   56.3130   35.0260   45.9000 H   0  0  0  0  0  0  0  0  0  0  0  0
   55.9820   34.7040   44.1690 H   0  0  0  0  0  0  0  0  0  0  0  0
   60.1970   33.8810   45.7410 C   0  0  0  0  0  0  0  0  0  0  0  0
   60.5609   34.0427   44.7156 H   0  0  0  0  0  0  0  0  0  0  0  0
   61.1140   33.7780   46.7930 C   0  0  0  0  0  0  0  0  0  0  0  0
   62.1926   33.8438   46.5873 H   0  0  0  0  0  0  0  0  0  0  0  0
   60.5950   30.7530   48.1580 N   0  0  0  0  0  0  0  0  0  0  0  0
   59.8240   29.6390   47.9490 C   0  0  0  0  0  0  0  0  0  0  0  0
   59.0280   29.5250   46.6960 C   0  0  0  0  0  0  0  0  0  0  0  0
   59.4600   30.1920   45.5350 C   0  0  0  0  0  0  0  0  0  0  0  0
   60.3725   30.8056   45.5663 H   0  0  0  0  0  0  0  0  0  0  0  0
   58.7410   30.0820   44.3440 C   0  0  0  0  0  0  0  0  0  0  0  0
   59.0977   30.5945   43.4384 H   0  0  0  0  0  0  0  0  0  0  0  0
   57.5700   29.3230   44.2990 C   0  0  0  0  0  0  0  0  0  0  0  0
   57.0185   29.2254   43.3522 H   0  0  0  0  0  0  0  0  0  0  0  0
   57.0940   28.6870   45.4470 C   0  0  0  0  0  0  0  0  0  0  0  0
   55.8900   27.9120   45.3570 N   0  0  0  0  0  0  0  0  0  0  0  0
   55.6530   26.6490   45.9910 C   0  0  0  0  0  0  0  0  0  0  0  0
   56.5470   26.1520   46.7300 O   0  0  0  0  0  0  0  0  0  0  0  0
   54.4370   25.9340   45.7540 N   0  0  0  0  0  0  0  0  0  0  0  0
   54.3110   24.4920   45.9200 C   0  0  0  0  0  0  0  0  0  0  0  0
   54.3669   24.2379   46.9888 H   0  0  0  0  0  0  0  0  0  0  0  0
   53.3439   24.1556   45.5181 H   0  0  0  0  0  0  0  0  0  0  0  0
   55.4300   23.8130   45.1820 C   0  0  0  0  0  0  0  0  0  0  0  0
   55.3970   23.7010   43.7810 C   0  0  0  0  0  0  0  0  0  0  0  0
   54.5591   24.1370   43.2173 H   0  0  0  0  0  0  0  0  0  0  0  0
   56.4240   23.0380   43.0990 C   0  0  0  0  0  0  0  0  0  0  0  0
   56.3945   22.9600   42.0022 H   0  0  0  0  0  0  0  0  0  0  0  0
   57.4870   22.4750   43.8110 C   0  0  0  0  0  0  0  0  0  0  0  0
   58.2952   21.9565   43.2743 H   0  0  0  0  0  0  0  0  0  0  0  0
   57.5230   22.5710   45.2070 C   0  0  0  0  0  0  0  0  0  0  0  0
   58.3568   22.1204   45.7654 H   0  0  0  0  0  0  0  0  0  0  0  0
   56.5040   23.2370   45.8950 C   0  0  0  0  0  0  0  0  0  0  0  0
   56.5490   23.3070   47.2500 F   0  0  0  0  0  0  0  0  0  0  0  0
   57.8380   28.7710   46.6390 C   0  0  0  0  0  0  0  0  0  0  0  0
   57.4866   28.2419   47.5371 H   0  0  0  0  0  0  0  0  0  0  0  0
   59.8390   28.6220   48.9250 C   0  0  0  0  0  0  0  0  0  0  0  0
   59.2505   27.7017   48.7954 H   0  0  0  0  0  0  0  0  0  0  0  0
   60.6020   28.8150   50.0280 N   0  0  0  0  0  0  0  0  0  0  0  0
   60.7940   28.0140   51.0840 C   0  0  0  0  0  0  0  0  0  0  0  0
   60.3304   27.0308   51.2527 H   0  0  0  0  0  0  0  0  0  0  0  0
  1  2  1  0
  2  3  1  0
  3  4  2  0
  4  5  1  0
  5  6  2  0
  6  7  1  0
  7  8  1  0
  7  9  1  0
  7 10  1  0
 10 11  2  0
 11 12  1  0
 11 13  1  0
 13 14  1  0
 13 15  2  0
 15 16  1  0
 16 17  2  0
 16 18  1  0
 18 19  1  0
 18 20  1  0
 15 21  1  0
 21 22  1  0
 21 23  2  0
 23 24  1  0
  5 25  1  0
 25 26  1  0
 26 27  1  0
 27 28  2  0
 28 29  1  0
 28 30  1  0
 30 31  1  0
 30 32  2  0
 32 33  1  0
 32 34  1  0
 34 35  1  0
 35 36  1  0
 36 37  2  0
 36 38  1  0
 38 39  1  0
 39 40  1  0
 39 41  1  0
 39 42  1  0
 42 43  2  0
 43 44  1  0
 43 45  1  0
 45 46  1  0
 45 47  2  0
 47 48  1  0
 47 49  1  0
 49 50  1  0
 49 51  2  0
 51 52  1  0
 34 53  2  0
 53 54  1  0
 26 55  2  0
 55 56  1  0
 55 57  1  0
 57 58  1  0
 58 59  1  0
 58  2  2  0
 57  4  1  0
 23 10  1  0
 53 27  1  0
 51 42  1  0
M  CHG  3  25  -1  35  -1  38  -1
M  END
>  <UniqueID>  (21) 
21

>  <SMILES>  (21) 
NC(=O)c1ccc(C/N=c2/[n-]c(-c3cccc([N-]C(=O)[N-]Cc4ccccc4F)c3)cn3ccnc23)cc1

>  <Energy>  (21) 
109.63374424010497

>  <Genealogy>  (21) 
NC(=O)c1ccc(CN=c2[n-]c(-c3cccc([N-]C(=O)[N-]Cc4ccccc4F)c3)cn3ccnc23)cc1 (protonated)
NC(=O)c1ccc(C/N=c2/[n-]c(-c3cccc([N-]C(=O)[N-]Cc4ccccc4F)c3)cn3ccnc23)cc1 (cis-trans isomerization)
NC(=O)c1ccc(C/N=c2/[n-]c(-c3cccc([N-]C(=O)[N-]Cc4ccccc4F)c3)cn3ccnc23)cc1 (3D coordinates assigned)
NC(=O)c1ccc(C/N=c2/[n-]c(-c3cccc([N-]C(=O)[N-]Cc4ccccc4F)c3)cn3ccnc23)cc1 (optimized conformer: 109.63374424010497 kcal/mol)

>  <smiles>  (21) 
NC(=O)c1ccc(CN=c2[nH]c(-c3cccc(NC(=O)NCc4ccccc4F)c3)cn3ccnc23)cc1

>  <score_type>  (21) 
oracle

>  <origin>  (21) 
adg

>  <m_score__min__energy>  (21) 
-14.279999999999999

>  <m_primary>  (21) 
energy

$$$$
21:0
     RDKit          3D

 44 47  0  0  0  0  0  0  0  0999 V2000
   60.4730   29.6280   46.7230 O   0  0  0  0  0  0  0  0  0  0  0  0
   59.4130   29.3620   47.3520 C   0  0  0  0  0  0  0  0  0  0  0  0
   59.3670   29.5560   48.7720 N   0  0  0  0  0  0  0  0  0  0  0  0
   60.4820   29.3790   49.6520 C   0  0  0  0  0  0  0  0  0  0  0  0
   60.8230   27.9060   50.4230 S   0  0  0  0  0  0  0  0  0  0  0  0
   62.1410   28.5290   51.2510 C   0  0  0  0  0  0  0  0  0  0  0  0
   62.3520   29.8190   50.9270 C   0  0  0  0  0  0  0  0  0  0  0  0
   61.4460   30.3460   49.9990 C   0  0  0  0  0  0  0  0  0  0  0  0
   61.5970   31.6850   49.3950 C   0  0  0  0  0  0  0  0  0  0  0  0
   62.5030   32.4520   49.8160 O   0  0  0  0  0  0  0  0  0  0  0  0
   60.7530   32.0980   48.3100 N   0  0  0  0  0  0  0  0  0  0  0  0
   60.8400   33.4280   47.7150 C   0  0  0  0  0  0  0  0  0  0  0  0
   59.6340   33.6920   46.8560 C   0  0  0  0  0  0  0  0  0  0  0  0
   59.7510   34.4300   45.6660 C   0  0  0  0  0  0  0  0  0  0  0  0
   58.6280   34.6470   44.8610 C   0  0  0  0  0  0  0  0  0  0  0  0
   57.3860   34.1260   45.2350 C   0  0  0  0  0  0  0  0  0  0  0  0
   57.2650   33.3860   46.4140 C   0  0  0  0  0  0  0  0  0  0  0  0
   58.3850   33.1670   47.2220 C   0  0  0  0  0  0  0  0  0  0  0  0
   63.6160   30.3350   51.4970 C   0  0  0  0  0  0  0  0  0  0  0  0
   64.1530   29.1310   52.3140 C   0  0  0  0  0  0  0  0  0  0  0  0
   63.2010   27.9320   52.0780 C   0  0  0  0  0  0  0  0  0  0  0  0
   58.1990   28.9070   46.6310 C   0  0  0  0  0  0  0  0  0  0  0  0
   57.4200   29.8550   45.9490 C   0  0  0  0  0  0  0  0  0  0  0  0
   56.3100   29.4670   45.2750 N   0  0  0  0  0  0  0  0  0  0  0  0
   55.9240   28.1920   45.2440 N   0  0  0  0  0  0  0  0  0  0  0  0
   56.6190   27.2200   45.8870 C   0  0  0  0  0  0  0  0  0  0  0  0
   56.0640   25.6800   45.8050 S   0  0  0  0  0  0  0  0  0  0  0  0
   57.7820   27.5550   46.6070 C   0  0  0  0  0  0  0  0  0  0  0  0
   58.6530   26.3020   47.5060 Cl  0  0  0  0  0  0  0  0  0  0  0  0
   60.0920   31.4110   47.8820 H   0  0  0  0  0  0  0  0  0  0  0  0
   60.8885   34.1815   48.5149 H   0  0  0  0  0  0  0  0  0  0  0  0
   61.7444   33.4840   47.0913 H   0  0  0  0  0  0  0  0  0  0  0  0
   60.7278   34.8379   45.3669 H   0  0  0  0  0  0  0  0  0  0  0  0
   58.7223   35.2286   43.9321 H   0  0  0  0  0  0  0  0  0  0  0  0
   56.5038   34.2986   44.6011 H   0  0  0  0  0  0  0  0  0  0  0  0
   56.2875   32.9752   46.7069 H   0  0  0  0  0  0  0  0  0  0  0  0
   58.2868   32.5811   48.1478 H   0  0  0  0  0  0  0  0  0  0  0  0
   64.3211   30.6179   50.7015 H   0  0  0  0  0  0  0  0  0  0  0  0
   63.4772   31.2414   52.1046 H   0  0  0  0  0  0  0  0  0  0  0  0
   65.1681   28.8740   51.9772 H   0  0  0  0  0  0  0  0  0  0  0  0
   64.1942   29.3823   53.3841 H   0  0  0  0  0  0  0  0  0  0  0  0
   63.7117   27.1175   51.5434 H   0  0  0  0  0  0  0  0  0  0  0  0
   62.8293   27.4761   53.0075 H   0  0  0  0  0  0  0  0  0  0  0  0
   57.7113   30.9157   45.9617 H   0  0  0  0  0  0  0  0  0  0  0  0
  1  2  2  0
  2  3  1  0
  3  4  1  0
  4  5  1  0
  5  6  1  0
  6  7  2  0
  7  8  1  0
  8  9  1  0
  9 10  2  0
  9 11  1  0
 11 12  1  0
 12 13  1  0
 13 14  2  0
 14 15  1  0
 15 16  2  0
 16 17  1  0
 17 18  2  0
  7 19  1  0
 19 20  1  0
 20 21  1  0
  2 22  1  0
 22 23  1  0
 23 24  2  0
 24 25  1  0
 25 26  1  0
 26 27  2  0
 26 28  1  0
 28 29  1  0
  8  4  2  0
 18 13  1  0
 28 22  2  0
 21  6  1  0
 11 30  1  0
 12 31  1  0
 12 32  1  0
 14 33  1  0
 15 34  1  0
 16 35  1  0
 17 36  1  0
 18 37  1  0
 19 38  1  0
 19 39  1  0
 20 40  1  0
 20 41  1  0
 21 42  1  0
 21 43  1  0
 23 44  1  0
M  CHG  2   3  -1  25  -1
M  END
>  <UniqueID>  (22) 
22

>  <SMILES>  (22) 
O=C([N-]c1sc2c(c1C(=O)NCc1ccccc1)CCC2)c1cn[n-]c(=S)c1Cl

>  <Energy>  (22) 
101.89665024690696

>  <Genealogy>  (22) 
O=C([N-]c1sc2c(c1C(=O)NCc1ccccc1)CCC2)c1cn[n-]c(=S)c1Cl (protonated)
O=C([N-]c1sc2c(c1C(=O)NCc1ccccc1)CCC2)c1cn[n-]c(=S)c1Cl (3D coordinates assigned)
O=C([N-]c1sc2c(c1C(=O)NCc1ccccc1)CCC2)c1cn[n-]c(=S)c1Cl (nonaromatic ring conformer: 101.89665024690696 kcal/mol)

>  <smiles>  (22) 
O=C(Nc1sc2c(c1C(=O)NCc1ccccc1)CCC2)c1cn[nH]c(=S)c1Cl

>  <score_type>  (22) 
oracle

>  <origin>  (22) 
adg

>  <m_score__min__energy>  (22) 
-12.51

>  <m_primary>  (22) 
energy

$$$$
22:0
     RDKit          3D

 58 61  0  0  0  0  0  0  0  0999 V2000
   58.5190   25.6480   45.6570 O   0  0  0  0  0  0  0  0  0  0  0  0
   58.2830   26.6800   46.3390 C   0  0  0  0  0  0  0  0  0  0  0  0
   58.6550   26.6870   47.7260 N   0  0  0  0  0  0  0  0  0  0  0  0
   59.2700   27.7800   48.4200 C   0  0  0  0  0  0  0  0  0  0  0  0
   60.4730   27.6170   49.1270 C   0  0  0  0  0  0  0  0  0  0  0  0
   61.1110   28.7240   49.6930 C   0  0  0  0  0  0  0  0  0  0  0  0
   60.5420   29.9990   49.5780 C   0  0  0  0  0  0  0  0  0  0  0  0
   61.4230   31.4200   50.1320 S   0  0  0  0  0  0  0  0  0  0  0  0
   62.0380   31.1480   51.4770 O   0  0  0  0  0  0  0  0  0  0  0  0
   60.4620   32.5690   50.2660 O   0  0  0  0  0  0  0  0  0  0  0  0
   62.6670   31.8260   48.9740 N   0  0  0  0  0  0  0  0  0  0  0  0
   63.0430   33.2520   49.1160 C   0  0  0  0  0  0  0  0  0  0  0  0
   63.7730   33.7670   47.8730 C   0  0  0  0  0  0  0  0  0  0  0  0
   62.8690   33.6940   46.6300 C   0  0  0  0  0  0  0  0  0  0  0  0
   61.7810   32.6120   46.7500 C   0  0  0  0  0  0  0  0  0  0  0  0
   62.2670   31.4280   47.6000 C   0  0  0  0  0  0  0  0  0  0  0  0
   59.3110   30.1530   48.9270 C   0  0  0  0  0  0  0  0  0  0  0  0
   58.6720   29.0450   48.3620 C   0  0  0  0  0  0  0  0  0  0  0  0
   57.6010   27.8360   45.7010 C   0  0  0  0  0  0  0  0  0  0  0  0
   56.2100   27.8390   45.5450 C   0  0  0  0  0  0  0  0  0  0  0  0
   55.4370   26.7750   46.0000 O   0  0  0  0  0  0  0  0  0  0  0  0
   55.6010   28.8770   44.9250 N   0  0  0  0  0  0  0  0  0  0  0  0
   56.3060   29.9290   44.4380 C   0  0  0  0  0  0  0  0  0  0  0  0
   55.6840   30.8640   43.8650 O   0  0  0  0  0  0  0  0  0  0  0  0
   57.6700   29.9710   44.5720 N   0  0  0  0  0  0  0  0  0  0  0  0
   58.4260   31.1270   44.0450 C   0  0  0  0  0  0  0  0  0  0  0  0
   57.7130   32.4510   44.3520 C   0  0  0  0  0  0  0  0  0  0  0  0
   58.3560   33.1740   45.5060 C   0  0  0  0  0  0  0  0  0  0  0  0
   58.1890   32.7000   46.8180 C   0  0  0  0  0  0  0  0  0  0  0  0
   58.7430   33.4000   47.8940 C   0  0  0  0  0  0  0  0  0  0  0  0
   59.4590   34.5800   47.6700 C   0  0  0  0  0  0  0  0  0  0  0  0
   59.6210   35.0630   46.3680 C   0  0  0  0  0  0  0  0  0  0  0  0
   59.0710   34.3650   45.2890 C   0  0  0  0  0  0  0  0  0  0  0  0
   58.3190   28.9500   45.2250 C   0  0  0  0  0  0  0  0  0  0  0  0
   59.5660   29.0130   45.4170 O   0  0  0  0  0  0  0  0  0  0  0  0
   60.9140   26.6151   49.2354 H   0  0  0  0  0  0  0  0  0  0  0  0
   62.0621   28.5940   50.2300 H   0  0  0  0  0  0  0  0  0  0  0  0
   62.1313   33.8485   49.2677 H   0  0  0  0  0  0  0  0  0  0  0  0
   63.7206   33.3458   49.9774 H   0  0  0  0  0  0  0  0  0  0  0  0
   64.0717   34.8125   48.0391 H   0  0  0  0  0  0  0  0  0  0  0  0
   64.6568   33.1354   47.7000 H   0  0  0  0  0  0  0  0  0  0  0  0
   62.3810   34.6701   46.4919 H   0  0  0  0  0  0  0  0  0  0  0  0
   63.5049   33.4322   45.7714 H   0  0  0  0  0  0  0  0  0  0  0  0
   60.8893   33.0504   47.2218 H   0  0  0  0  0  0  0  0  0  0  0  0
   61.5438   32.2428   45.7413 H   0  0  0  0  0  0  0  0  0  0  0  0
   61.4540   30.6905   47.6713 H   0  0  0  0  0  0  0  0  0  0  0  0
   63.1570   31.0113   47.1057 H   0  0  0  0  0  0  0  0  0  0  0  0
   58.8462   31.1477   48.8602 H   0  0  0  0  0  0  0  0  0  0  0  0
   57.6958   29.1675   47.8701 H   0  0  0  0  0  0  0  0  0  0  0  0
   59.4240   31.1426   44.5074 H   0  0  0  0  0  0  0  0  0  0  0  0
   58.5028   31.0209   42.9528 H   0  0  0  0  0  0  0  0  0  0  0  0
   57.7550   33.0938   43.4604 H   0  0  0  0  0  0  0  0  0  0  0  0
   56.6718   32.2250   44.6256 H   0  0  0  0  0  0  0  0  0  0  0  0
   57.6208   31.7757   46.9991 H   0  0  0  0  0  0  0  0  0  0  0  0
   58.6153   33.0217   48.9190 H   0  0  0  0  0  0  0  0  0  0  0  0
   59.8948   35.1283   48.5182 H   0  0  0  0  0  0  0  0  0  0  0  0
   60.1817   35.9930   46.1926 H   0  0  0  0  0  0  0  0  0  0  0  0
   59.1981   34.7490   44.2661 H   0  0  0  0  0  0  0  0  0  0  0  0
  1  2  2  0
  2  3  1  0
  3  4  1  0
  4  5  2  0
  5  6  1  0
  6  7  2  0
  7  8  1  0
  8  9  2  0
  8 10  2  0
  8 11  1  0
 11 12  1  0
 12 13  1  0
 13 14  1  0
 14 15  1  0
 15 16  1  0
  7 17  1  0
 17 18  2  0
  2 19  1  0
 19 20  2  0
 20 21  1  0
 20 22  1  0
 22 23  1  0
 23 24  2  0
 23 25  1  0
 25 26  1  0
 26 27  1  0
 27 28  1  0
 28 29  2  0
 29 30  1  0
 30 31  2  0
 31 32  1  0
 32 33  2  0
 25 34  1  0
 34 35  2  0
 18  4  1  0
 34 19  1  0
 16 11  1  0
 33 28  1  0
  5 36  1  0
  6 37  1  0
 12 38  1  0
 12 39  1  0
 13 40  1  0
 13 41  1  0
 14 42  1  0
 14 43  1  0
 15 44  1  0
 15 45  1  0
 16 46  1  0
 16 47  1  0
 17 48  1  0
 18 49  1  0
 26 50  1  0
 26 51  1  0
 27 52  1  0
 27 53  1  0
 29 54  1  0
 30 55  1  0
 31 56  1  0
 32 57  1  0
 33 58  1  0
M  CHG  3   3  -1  21  -1  22  -1
M  END
>  <UniqueID>  (23) 
23

>  <SMILES>  (23) 
O=C([N-]c1ccc(S(=O)(=O)N2CCCCC2)cc1)c1c([O-])[n-]c(=O)n(CCc2ccccc2)c1=O

>  <Energy>  (23) 
75.32765738962073

>  <Genealogy>  (23) 
O=C([N-]c1ccc(S(=O)(=O)N2CCCCC2)cc1)c1c([O-])[n-]c(=O)n(CCc2ccccc2)c1=O (protonated)
O=C([N-]c1ccc(S(=O)(=O)N2CCCCC2)cc1)c1c([O-])[n-]c(=O)n(CCc2ccccc2)c1=O (3D coordinates assigned)
O=C([N-]c1ccc(S(=O)(=O)N2CCCCC2)cc1)c1c([O-])[n-]c(=O)n(CCc2ccccc2)c1=O (nonaromatic ring conformer: 75.32765738962073 kcal/mol)

>  <smiles>  (23) 
O=C(Nc1ccc(S(=O)(=O)N2CCCCC2)cc1)c1c(O)[nH]c(=O)n(CCc2ccccc2)c1=O

>  <score_type>  (23) 
oracle

>  <origin>  (23) 
adg

>  <m_score__min__energy>  (23) 
-15.5

>  <m_primary>  (23) 
energy

$$$$
23:0
     RDKit          3D

 62 65  0  0  0  0  0  0  0  0999 V2000
   66.6080   32.7630   50.2090 C   0  0  0  0  0  0  0  0  0  0  0  0
   65.1720   33.1700   50.3340 C   0  0  0  0  0  0  0  0  0  0  0  0
   64.8840   34.1690   51.0430 O   0  0  0  0  0  0  0  0  0  0  0  0
   64.1120   32.4340   49.7070 N   0  0  0  0  0  0  0  0  0  0  0  0
   63.0430   32.9660   48.9120 C   0  0  0  0  0  0  0  0  0  0  0  0
   61.9280   33.5930   49.4950 C   0  0  0  0  0  0  0  0  0  0  0  0
   60.8970   34.0870   48.6920 C   0  0  0  0  0  0  0  0  0  0  0  0
   60.9500   33.9330   47.3030 C   0  0  0  0  0  0  0  0  0  0  0  0
   59.6800   34.6260   46.2990 S   0  0  0  0  0  0  0  0  0  0  0  0
   59.7140   36.1260   46.3950 O   0  0  0  0  0  0  0  0  0  0  0  0
   59.9300   34.2340   44.8680 O   0  0  0  0  0  0  0  0  0  0  0  0
   58.1390   33.9980   46.8430 N   0  0  0  0  0  0  0  0  0  0  0  0
   57.1040   34.0520   45.7850 C   0  0  0  0  0  0  0  0  0  0  0  0
   56.9020   32.7110   45.0570 C   0  0  0  0  0  0  0  0  0  0  0  0
   58.1540   31.9370   45.0710 N   0  0  0  0  0  0  0  0  0  0  0  0
   58.1760   30.8020   44.1210 C   0  0  0  0  0  0  0  0  0  0  0  0
   58.7760   29.5410   44.6910 C   0  0  0  0  0  0  0  0  0  0  0  0
   60.0150   29.3450   44.5670 O   0  0  0  0  0  0  0  0  0  0  0  0
   57.9560   28.5820   45.3780 N   0  0  0  0  0  0  0  0  0  0  0  0
   58.4240   27.2700   45.7450 C   0  0  0  0  0  0  0  0  0  0  0  0
   59.8090   27.0160   45.7860 C   0  0  0  0  0  0  0  0  0  0  0  0
   60.2930   25.7450   46.0940 C   0  0  0  0  0  0  0  0  0  0  0  0
   59.4050   24.7030   46.3530 C   0  0  0  0  0  0  0  0  0  0  0  0
   58.0290   24.9290   46.2950 C   0  0  0  0  0  0  0  0  0  0  0  0
   57.5160   26.2050   45.9920 C   0  0  0  0  0  0  0  0  0  0  0  0
   56.0430   26.3860   45.9600 C   0  0  0  0  0  0  0  0  0  0  0  0
   55.5350   27.4920   45.6270 O   0  0  0  0  0  0  0  0  0  0  0  0
   55.1900   25.3000   46.3310 N   0  0  0  0  0  0  0  0  0  0  0  0
   54.5910   24.3990   45.3550 C   0  0  0  0  0  0  0  0  0  0  0  0
   55.1830   23.0020   45.3610 C   0  0  0  0  0  0  0  0  0  0  0  0
   55.5700   23.9930   44.2720 C   0  0  0  0  0  0  0  0  0  0  0  0
   58.5410   31.5460   46.4400 C   0  0  0  0  0  0  0  0  0  0  0  0
   58.2630   32.6660   47.4660 C   0  0  0  0  0  0  0  0  0  0  0  0
   62.0360   33.2640   46.7230 C   0  0  0  0  0  0  0  0  0  0  0  0
   63.0730   32.7800   47.5250 C   0  0  0  0  0  0  0  0  0  0  0  0
   67.0428   32.6398   51.2119 H   0  0  0  0  0  0  0  0  0  0  0  0
   66.6730   31.8111   49.6617 H   0  0  0  0  0  0  0  0  0  0  0  0
   67.1628   33.5393   49.6617 H   0  0  0  0  0  0  0  0  0  0  0  0
   61.8670   33.6951   50.5885 H   0  0  0  0  0  0  0  0  0  0  0  0
   60.0401   34.5991   49.1541 H   0  0  0  0  0  0  0  0  0  0  0  0
   56.1494   34.3455   46.2460 H   0  0  0  0  0  0  0  0  0  0  0  0
   57.4452   34.7802   45.0345 H   0  0  0  0  0  0  0  0  0  0  0  0
   56.1129   32.1365   45.5641 H   0  0  0  0  0  0  0  0  0  0  0  0
   56.6099   32.9064   44.0146 H   0  0  0  0  0  0  0  0  0  0  0  0
   57.1417   30.5861   43.8150 H   0  0  0  0  0  0  0  0  0  0  0  0
   58.8114   31.1048   43.2756 H   0  0  0  0  0  0  0  0  0  0  0  0
   56.9820   28.8590   45.6340 H   0  0  0  0  0  0  0  0  0  0  0  0
   60.5173   27.8301   45.5725 H   0  0  0  0  0  0  0  0  0  0  0  0
   61.3774   25.5648   46.1325 H   0  0  0  0  0  0  0  0  0  0  0  0
   59.7883   23.7027   46.6031 H   0  0  0  0  0  0  0  0  0  0  0  0
   57.3348   24.0980   46.4889 H   0  0  0  0  0  0  0  0  0  0  0  0
   53.5679   24.8021   45.3839 H   0  0  0  0  0  0  0  0  0  0  0  0
   55.9145   22.7174   46.1316 H   0  0  0  0  0  0  0  0  0  0  0  0
   54.7719   21.9818   45.3755 H   0  0  0  0  0  0  0  0  0  0  0  0
   56.5817   24.4245   44.2550 H   0  0  0  0  0  0  0  0  0  0  0  0
   55.5549   23.9858   43.1721 H   0  0  0  0  0  0  0  0  0  0  0  0
   57.9693   30.6515   46.7281 H   0  0  0  0  0  0  0  0  0  0  0  0
   59.6228   31.3468   46.4417 H   0  0  0  0  0  0  0  0  0  0  0  0
   57.3245   32.4356   47.9914 H   0  0  0  0  0  0  0  0  0  0  0  0
   59.1197   32.7024   48.1550 H   0  0  0  0  0  0  0  0  0  0  0  0
   62.0724   33.1194   45.6332 H   0  0  0  0  0  0  0  0  0  0  0  0
   63.9186   32.2492   47.0632 H   0  0  0  0  0  0  0  0  0  0  0  0
  1  2  1  0
  2  3  2  0
  2  4  1  0
  4  5  1  0
  5  6  2  0
  6  7  1  0
  7  8  2  0
  8  9  1  0
  9 10  2  0
  9 11  2  0
  9 12  1  0
 12 13  1  0
 13 14  1  0
 14 15  1  0
 15 16  1  0
 16 17  1  0
 17 18  2  0
 17 19  1  0
 19 20  1  0
 20 21  2  0
 21 22  1  0
 22 23  2  0
 23 24  1  0
 24 25  2  0
 25 26  1  0
 26 27  2  0
 26 28  1  0
 28 29  1  0
 29 30  1  0
 30 31  1  0
 15 32  1  0
 32 33  1  0
  8 34  1  0
 34 35  2  0
 35  5  1  0
 33 12  1  0
 25 20  1  0
 31 29  1  0
  1 36  1  0
  1 37  1  0
  1 38  1  0
  6 39  1  0
  7 40  1  0
 13 41  1  0
 13 42  1  0
 14 43  1  0
 14 44  1  0
 16 45  1  0
 16 46  1  0
 19 47  1  0
 21 48  1  0
 22 49  1  0
 23 50  1  0
 24 51  1  0
 29 52  1  0
 30 53  1  0
 30 54  1  0
 31 55  1  0
 31 56  1  0
 32 57  1  0
 32 58  1  0
 33 59  1  0
 33 60  1  0
 34 61  1  0
 35 62  1  0
M  CHG  2   4  -1  28  -1
M  END
>  <UniqueID>  (24) 
24

>  <SMILES>  (24) 
CC(=O)[N-]c1ccc(S(=O)(=O)N2CCN(CC(=O)Nc3ccccc3C(=O)[N-]C3CC3)CC2)cc1

>  <Energy>  (24) 
350.848390268127

>  <Genealogy>  (24) 
CC(=O)[N-]c1ccc(S(=O)(=O)N2CCN(CC(=O)Nc3ccccc3C(=O)[N-]C3CC3)CC2)cc1 (protonated)
CC(=O)[N-]c1ccc(S(=O)(=O)N2CCN(CC(=O)Nc3ccccc3C(=O)[N-]C3CC3)CC2)cc1 (3D coordinates assigned)
CC(=O)[N-]c1ccc(S(=O)(=O)N2CCN(CC(=O)Nc3ccccc3C(=O)[N-]C3CC3)CC2)cc1 (nonaromatic ring conformer: 350.848390268127 kcal/mol)

>  <smiles>  (24) 
CC(=O)Nc1ccc(S(=O)(=O)N2CCN(CC(=O)Nc3ccccc3C(=O)NC3CC3)CC2)cc1

>  <score_type>  (24) 
oracle

>  <origin>  (24) 
adg

>  <m_score__min__energy>  (24) 
-12.58

>  <m_primary>  (24) 
energy

$$$$
24:0
     RDKit          3D

 42 44  0  0  0  0  0  0  0  0999 V2000
   57.3890   30.4050   43.8960 C   0  0  0  0  0  0  0  0  0  0  0  0
   57.7610   30.0770   45.1450 C   0  0  0  0  0  0  0  0  0  0  0  0
   57.7520   28.7910   45.6940 C   0  0  0  0  0  0  0  0  0  0  0  0
   57.3570   27.6470   45.1000 C   0  0  0  0  0  0  0  0  0  0  0  0
   57.2120   26.3610   45.8190 C   0  0  0  0  0  0  0  0  0  0  0  0
   55.9420   25.9250   46.2280 C   0  0  0  0  0  0  0  0  0  0  0  0
   54.8170   26.7060   45.9930 O   0  0  0  0  0  0  0  0  0  0  0  0
   55.8070   24.7340   46.8660 N   0  0  0  0  0  0  0  0  0  0  0  0
   56.8810   23.9420   47.1080 C   0  0  0  0  0  0  0  0  0  0  0  0
   56.7320   22.8450   47.7070 O   0  0  0  0  0  0  0  0  0  0  0  0
   58.1170   24.3280   46.7010 N   0  0  0  0  0  0  0  0  0  0  0  0
   58.3070   25.5090   46.0570 C   0  0  0  0  0  0  0  0  0  0  0  0
   59.4630   25.8170   45.6620 O   0  0  0  0  0  0  0  0  0  0  0  0
   58.1830   28.9220   47.0050 C   0  0  0  0  0  0  0  0  0  0  0  0
   58.4460   30.2620   47.2030 C   0  0  0  0  0  0  0  0  0  0  0  0
   58.8930   30.8510   48.5070 C   0  0  0  0  0  0  0  0  0  0  0  0
   58.2010   30.9680   46.0730 N   0  0  0  0  0  0  0  0  0  0  0  0
   58.3180   32.4280   45.9310 C   0  0  0  0  0  0  0  0  0  0  0  0
   59.5490   32.9230   46.6320 C   0  0  0  0  0  0  0  0  0  0  0  0
   59.5270   34.0560   47.1850 O   0  0  0  0  0  0  0  0  0  0  0  0
   60.7180   32.0920   46.7150 N   0  0  0  0  0  0  0  0  0  0  0  0
   61.9800   32.5290   47.2500 C   0  0  0  0  0  0  0  0  0  0  0  0
   62.5620   33.7090   46.7610 C   0  0  0  0  0  0  0  0  0  0  0  0
   63.7770   34.1660   47.2800 C   0  0  0  0  0  0  0  0  0  0  0  0
   64.4140   33.4570   48.3020 C   0  0  0  0  0  0  0  0  0  0  0  0
   63.8310   32.2950   48.8130 C   0  0  0  0  0  0  0  0  0  0  0  0
   64.4380   31.6190   49.8180 F   0  0  0  0  0  0  0  0  0  0  0  0
   62.6160   31.8330   48.2960 C   0  0  0  0  0  0  0  0  0  0  0  0
   57.4358   31.4531   43.5655 H   0  0  0  0  0  0  0  0  0  0  0  0
   57.0377   29.6253   43.2041 H   0  0  0  0  0  0  0  0  0  0  0  0
   57.1304   27.6703   44.0238 H   0  0  0  0  0  0  0  0  0  0  0  0
   58.2938   28.1146   47.7438 H   0  0  0  0  0  0  0  0  0  0  0  0
   58.4570   30.2764   49.3375 H   0  0  0  0  0  0  0  0  0  0  0  0
   59.9905   30.8114   48.5702 H   0  0  0  0  0  0  0  0  0  0  0  0
   58.5596   31.8973   48.5702 H   0  0  0  0  0  0  0  0  0  0  0  0
   58.3806   32.6848   44.8632 H   0  0  0  0  0  0  0  0  0  0  0  0
   57.4343   32.9031   46.3819 H   0  0  0  0  0  0  0  0  0  0  0  0
   60.6240   31.0850   46.4550 H   0  0  0  0  0  0  0  0  0  0  0  0
   62.0592   34.2775   45.9648 H   0  0  0  0  0  0  0  0  0  0  0  0
   64.2324   35.0853   46.8832 H   0  0  0  0  0  0  0  0  0  0  0  0
   65.3739   33.8137   48.7038 H   0  0  0  0  0  0  0  0  0  0  0  0
   62.1558   30.9228   48.7080 H   0  0  0  0  0  0  0  0  0  0  0  0
  1  2  2  0
  2  3  1  0
  3  4  2  3
  4  5  1  0
  5  6  2  0
  6  7  1  0
  6  8  1  0
  8  9  1  0
  9 10  2  0
  9 11  1  0
 11 12  1  0
 12 13  2  0
  3 14  1  0
 14 15  2  0
 15 16  1  0
 15 17  1  0
 17 18  1  0
 18 19  1  0
 19 20  2  0
 19 21  1  0
 21 22  1  0
 22 23  2  0
 23 24  1  0
 24 25  2  0
 25 26  1  0
 26 27  1  0
 26 28  2  0
 17  2  1  0
 28 22  1  0
 12  5  1  0
  1 29  1  0
  1 30  1  0
  4 31  1  0
 14 32  1  0
 16 33  1  0
 16 34  1  0
 16 35  1  0
 18 36  1  0
 18 37  1  0
 21 38  1  0
 23 39  1  0
 24 40  1  0
 25 41  1  0
 28 42  1  0
M  CHG  3   7  -1   8  -1  11  -1
M  END
>  <UniqueID>  (25) 
25

>  <SMILES>  (25) 
C=c1c(=Cc2c([O-])[n-]c(=O)[n-]c2=O)cc(C)n1CC(=O)Nc1cccc(F)c1

>  <Energy>  (25) 
85.43494990885088

>  <Genealogy>  (25) 
C=c1c(=Cc2c([O-])[n-]c(=O)[n-]c2=O)cc(C)n1CC(=O)Nc1cccc(F)c1 (protonated)
C=c1c(=Cc2c([O-])[n-]c(=O)[n-]c2=O)cc(C)n1CC(=O)Nc1cccc(F)c1 (3D coordinates assigned)
C=c1c(=Cc2c([O-])[n-]c(=O)[n-]c2=O)cc(C)n1CC(=O)Nc1cccc(F)c1 (optimized conformer: 85.43494990885088 kcal/mol)

>  <smiles>  (25) 
C=c1c(=Cc2c(O)[nH]c(=O)[nH]c2=O)cc(C)n1CC(=O)Nc1cccc(F)c1

>  <score_type>  (25) 
oracle

>  <origin>  (25) 
adg

>  <m_score__min__energy>  (25) 
-15.380000000000001

>  <m_primary>  (25) 
energy

$$$$
25:0
     RDKit          3D

 47 49  0  0  0  0  0  0  0  0999 V2000
   63.4740   32.9170   47.1460 C   0  0  0  0  0  0  0  0  0  0  0  0
   62.1610   32.6730   47.1280 C   0  0  0  0  0  0  0  0  0  0  0  0
   61.6120   31.2720   47.1260 C   0  0  0  0  0  0  0  0  0  0  0  0
   60.7770   31.0360   48.3240 N   0  0  0  0  0  0  0  0  0  0  0  0
   59.4940   31.7830   48.3010 C   0  0  0  0  0  0  0  0  0  0  0  0
   58.5310   31.3230   47.1830 C   0  0  0  0  0  0  0  0  0  0  0  0
   58.5330   29.8250   47.0180 C   0  0  0  0  0  0  0  0  0  0  0  0
   59.5160   29.0490   47.6160 C   0  0  0  0  0  0  0  0  0  0  0  0
   59.3370   27.4440   47.1620 S   0  0  0  0  0  0  0  0  0  0  0  0
   58.0090   27.7160   46.1690 C   0  0  0  0  0  0  0  0  0  0  0  0
   57.3450   26.6660   45.4550 N   0  0  0  0  0  0  0  0  0  0  0  0
   56.2660   25.8860   45.9800 C   0  0  0  0  0  0  0  0  0  0  0  0
   55.0930   26.3490   45.9870 O   0  0  0  0  0  0  0  0  0  0  0  0
   56.5460   24.6050   46.5600 N   0  0  0  0  0  0  0  0  0  0  0  0
   55.5330   23.6490   46.9170 C   0  0  0  0  0  0  0  0  0  0  0  0
   54.2900   23.6390   46.2560 C   0  0  0  0  0  0  0  0  0  0  0  0
   53.3200   22.6920   46.5880 C   0  0  0  0  0  0  0  0  0  0  0  0
   53.5810   21.7380   47.5720 C   0  0  0  0  0  0  0  0  0  0  0  0
   54.8160   21.7230   48.2220 C   0  0  0  0  0  0  0  0  0  0  0  0
   55.8050   22.6740   47.8990 C   0  0  0  0  0  0  0  0  0  0  0  0
   57.0570   22.6880   48.5340 O   0  0  0  0  0  0  0  0  0  0  0  0
   57.2880   22.2580   49.8730 C   0  0  0  0  0  0  0  0  0  0  0  0
   57.6900   29.0830   46.1570 C   0  0  0  0  0  0  0  0  0  0  0  0
   56.6980   29.6880   45.2420 C   0  0  0  0  0  0  0  0  0  0  0  0
   55.5270   28.9710   44.8590 N   0  0  0  0  0  0  0  0  0  0  0  0
   56.8810   30.8510   44.7920 O   0  0  0  0  0  0  0  0  0  0  0  0
   60.5450   29.5920   48.5580 C   0  0  0  0  0  0  0  0  0  0  0  0
   63.8407   33.9541   47.1469 H   0  0  0  0  0  0  0  0  0  0  0  0
   64.1887   32.0809   47.1599 H   0  0  0  0  0  0  0  0  0  0  0  0
   61.4605   33.5210   47.1142 H   0  0  0  0  0  0  0  0  0  0  0  0
   60.9993   31.1255   46.2242 H   0  0  0  0  0  0  0  0  0  0  0  0
   62.4527   30.5627   47.1355 H   0  0  0  0  0  0  0  0  0  0  0  0
   58.9932   31.6442   49.2705 H   0  0  0  0  0  0  0  0  0  0  0  0
   59.7377   32.8374   48.1037 H   0  0  0  0  0  0  0  0  0  0  0  0
   57.5118   31.6513   47.4347 H   0  0  0  0  0  0  0  0  0  0  0  0
   58.8703   31.7698   46.2368 H   0  0  0  0  0  0  0  0  0  0  0  0
   57.5440   24.3840   46.7800 H   0  0  0  0  0  0  0  0  0  0  0  0
   54.0819   24.3826   45.4726 H   0  0  0  0  0  0  0  0  0  0  0  0
   52.3480   22.6978   46.0730 H   0  0  0  0  0  0  0  0  0  0  0  0
   52.8124   20.9967   47.8359 H   0  0  0  0  0  0  0  0  0  0  0  0
   55.0190   20.9638   48.9917 H   0  0  0  0  0  0  0  0  0  0  0  0
   56.8863   23.0057   50.5727 H   0  0  0  0  0  0  0  0  0  0  0  0
   56.7868   21.2932   50.0399 H   0  0  0  0  0  0  0  0  0  0  0  0
   58.3692   22.1432   50.0399 H   0  0  0  0  0  0  0  0  0  0  0  0
   55.5120   27.9270   44.8640 H   0  0  0  0  0  0  0  0  0  0  0  0
   60.1971   29.4474   49.5915 H   0  0  0  0  0  0  0  0  0  0  0  0
   61.4901   29.0555   48.3881 H   0  0  0  0  0  0  0  0  0  0  0  0
  1  2  2  0
  2  3  1  0
  3  4  1  0
  4  5  1  0
  5  6  1  0
  6  7  1  0
  7  8  2  0
  8  9  1  0
  9 10  1  0
 10 11  1  0
 11 12  1  0
 12 13  2  0
 12 14  1  0
 14 15  1  0
 15 16  2  0
 16 17  1  0
 17 18  2  0
 18 19  1  0
 19 20  2  0
 20 21  1  0
 21 22  1  0
 10 23  2  0
 23 24  1  0
 24 25  1  0
 24 26  2  0
  8 27  1  0
 27  4  1  0
 23  7  1  0
 20 15  1  0
  1 28  1  0
  1 29  1  0
  2 30  1  0
  3 31  1  0
  3 32  1  0
  5 33  1  0
  5 34  1  0
  6 35  1  0
  6 36  1  0
 14 37  1  0
 16 38  1  0
 17 39  1  0
 18 40  1  0
 19 41  1  0
 22 42  1  0
 22 43  1  0
 22 44  1  0
 25 45  1  0
 27 46  1  0
 27 47  1  0
M  CHG  2  11  -1  25  -1
M  END
>  <UniqueID>  (26) 
26

>  <SMILES>  (26) 
C=CCN1CCc2c(sc([N-]C(=O)Nc3ccccc3OC)c2C([NH-])=O)C1

>  <Energy>  (26) 
90.80581014759579

>  <Genealogy>  (26) 
C=CCN1CCc2c(sc([N-]C(=O)Nc3ccccc3OC)c2C([NH-])=O)C1 (protonated)
C=CCN1CCc2c(sc([N-]C(=O)Nc3ccccc3OC)c2C([NH-])=O)C1 (3D coordinates assigned)
C=CCN1CCc2c(sc([N-]C(=O)Nc3ccccc3OC)c2C([NH-])=O)C1 (nonaromatic ring conformer: 90.80581014759579 kcal/mol)

>  <smiles>  (26) 
C=CCN1CCc2c(sc(NC(=O)Nc3ccccc3OC)c2C(N)=O)C1

>  <score_type>  (26) 
oracle

>  <origin>  (26) 
adg

>  <m_score__min__energy>  (26) 
-12.029999999999999

>  <m_primary>  (26) 
energy

$$$$
26:0
     RDKit          3D

 49 51  0  0  0  0  0  0  0  0999 V2000
   64.9780   33.0670   49.4000 C   0  0  0  0  0  0  0  0  0  0  0  0
   63.6440   33.0380   48.7150 C   0  0  0  0  0  0  0  0  0  0  0  0
   63.5080   33.4930   47.3940 C   0  0  0  0  0  0  0  0  0  0  0  0
   62.2670   33.4320   46.7530 C   0  0  0  0  0  0  0  0  0  0  0  0
   61.1520   32.9090   47.4210 C   0  0  0  0  0  0  0  0  0  0  0  0
   59.6040   32.7910   46.5880 S   0  0  0  0  0  0  0  0  0  0  0  0
   58.4870   33.1620   47.5250 O   0  0  0  0  0  0  0  0  0  0  0  0
   59.5780   33.7510   45.4330 O   0  0  0  0  0  0  0  0  0  0  0  0
   59.3690   31.1680   46.0030 N   0  0  0  0  0  0  0  0  0  0  0  0
   60.2620   30.1040   46.4750 C   0  0  0  0  0  0  0  0  0  0  0  0
   59.7540   29.4800   47.7430 C   0  0  0  0  0  0  0  0  0  0  0  0
   59.9690   28.2550   47.9490 O   0  0  0  0  0  0  0  0  0  0  0  0
   59.0880   30.2740   48.7370 N   0  0  0  0  0  0  0  0  0  0  0  0
   58.8550   29.7990   50.0980 C   0  0  0  0  0  0  0  0  0  0  0  0
   58.3380   30.9270   50.9440 C   0  0  0  0  0  0  0  0  0  0  0  0
   59.0280   32.1460   50.9970 C   0  0  0  0  0  0  0  0  0  0  0  0
   58.5070   33.2000   51.7510 C   0  0  0  0  0  0  0  0  0  0  0  0
   57.3350   33.0440   52.4220 N   0  0  0  0  0  0  0  0  0  0  0  0
   56.6390   31.8770   52.3780 C   0  0  0  0  0  0  0  0  0  0  0  0
   57.1220   30.7990   51.6330 C   0  0  0  0  0  0  0  0  0  0  0  0
   58.3090   30.8810   45.0700 C   0  0  0  0  0  0  0  0  0  0  0  0
   58.3230   31.4480   43.7850 C   0  0  0  0  0  0  0  0  0  0  0  0
   57.2880   31.1850   42.8840 C   0  0  0  0  0  0  0  0  0  0  0  0
   56.2280   30.3550   43.2580 C   0  0  0  0  0  0  0  0  0  0  0  0
   56.2010   29.7880   44.5350 C   0  0  0  0  0  0  0  0  0  0  0  0
   55.1470   28.9630   44.9060 O   0  0  0  0  0  0  0  0  0  0  0  0
   57.2360   30.0510   45.4390 C   0  0  0  0  0  0  0  0  0  0  0  0
   61.2880   32.4450   48.7370 C   0  0  0  0  0  0  0  0  0  0  0  0
   62.5290   32.5050   49.3780 C   0  0  0  0  0  0  0  0  0  0  0  0
   64.8306   33.0638   50.4901 H   0  0  0  0  0  0  0  0  0  0  0  0
   65.5604   32.1813   49.1062 H   0  0  0  0  0  0  0  0  0  0  0  0
   65.5214   33.9772   49.1062 H   0  0  0  0  0  0  0  0  0  0  0  0
   64.3807   33.8989   46.8614 H   0  0  0  0  0  0  0  0  0  0  0  0
   62.1656   33.7961   45.7200 H   0  0  0  0  0  0  0  0  0  0  0  0
   60.3344   29.3278   45.6989 H   0  0  0  0  0  0  0  0  0  0  0  0
   61.2479   30.5469   46.6797 H   0  0  0  0  0  0  0  0  0  0  0  0
   58.8920   31.2800   48.5430 H   0  0  0  0  0  0  0  0  0  0  0  0
   58.1146   28.9857   50.0801 H   0  0  0  0  0  0  0  0  0  0  0  0
   59.7997   29.4278   50.5220 H   0  0  0  0  0  0  0  0  0  0  0  0
   59.9732   32.2716   50.4486 H   0  0  0  0  0  0  0  0  0  0  0  0
   59.0458   34.1577   51.8020 H   0  0  0  0  0  0  0  0  0  0  0  0
   55.6928   31.7816   52.9307 H   0  0  0  0  0  0  0  0  0  0  0  0
   56.5544   29.8579   51.5866 H   0  0  0  0  0  0  0  0  0  0  0  0
   59.1543   32.1034   43.4860 H   0  0  0  0  0  0  0  0  0  0  0  0
   57.3077   31.6319   41.8791 H   0  0  0  0  0  0  0  0  0  0  0  0
   55.4146   30.1478   42.5471 H   0  0  0  0  0  0  0  0  0  0  0  0
   57.2100   29.6057   46.4445 H   0  0  0  0  0  0  0  0  0  0  0  0
   60.4163   32.0328   49.2664 H   0  0  0  0  0  0  0  0  0  0  0  0
   62.6314   32.1322   50.4078 H   0  0  0  0  0  0  0  0  0  0  0  0
  1  2  1  0
  2  3  2  0
  3  4  1  0
  4  5  2  0
  5  6  1  0
  6  7  2  0
  6  8  2  0
  6  9  1  0
  9 10  1  0
 10 11  1  0
 11 12  2  0
 11 13  1  0
 13 14  1  0
 14 15  1  0
 15 16  2  0
 16 17  1  0
 17 18  2  0
 18 19  1  0
 19 20  2  0
  9 21  1  0
 21 22  2  0
 22 23  1  0
 23 24  2  0
 24 25  1  0
 25 26  1  0
 25 27  2  0
  5 28  1  0
 28 29  2  0
 29  2  1  0
 20 15  1  0
 27 21  1  0
  1 30  1  0
  1 31  1  0
  1 32  1  0
  3 33  1  0
  4 34  1  0
 10 35  1  0
 10 36  1  0
 13 37  1  0
 14 38  1  0
 14 39  1  0
 16 40  1  0
 17 41  1  0
 19 42  1  0
 20 43  1  0
 22 44  1  0
 23 45  1  0
 24 46  1  0
 27 47  1  0
 28 48  1  0
 29 49  1  0
M  CHG  1  26  -1
M  END
>  <UniqueID>  (27) 
27

>  <SMILES>  (27) 
Cc1ccc(S(=O)(=O)N(CC(=O)NCc2ccncc2)c2cccc([O-])c2)cc1

>  <Energy>  (27) 
48.953546131632756

>  <Genealogy>  (27) 
Cc1ccc(S(=O)(=O)N(CC(=O)NCc2ccncc2)c2cccc([O-])c2)cc1 (protonated)
Cc1ccc(S(=O)(=O)N(CC(=O)NCc2ccncc2)c2cccc([O-])c2)cc1 (3D coordinates assigned)
Cc1ccc(S(=O)(=O)N(CC(=O)NCc2ccncc2)c2cccc([O-])c2)cc1 (optimized conformer: 48.953546131632756 kcal/mol)

>  <smiles>  (27) 
Cc1ccc(S(=O)(=O)N(CC(=O)NCc2ccncc2)c2cccc(O)c2)cc1

>  <score_type>  (27) 
oracle

>  <origin>  (27) 
adg

>  <m_score__min__energy>  (27) 
-12.91

>  <m_primary>  (27) 
energy

$$$$
27:0
     RDKit          3D

 39 40  0  0  0  0  0  0  0  0999 V2000
   58.0525   32.7950   41.3006 H   0  0  0  0  0  0  0  0  0  0  0  0
   57.3380   31.9890   41.5240 C   0  0  0  0  0  0  0  0  0  0  0  0
   56.5058   31.7849   40.8342 H   0  0  0  0  0  0  0  0  0  0  0  0
   57.4810   31.2580   42.6330 C   0  0  0  0  0  0  0  0  0  0  0  0
   58.3178   31.4730   43.3139 H   0  0  0  0  0  0  0  0  0  0  0  0
   56.5230   30.1460   42.9730 C   0  0  0  0  0  0  0  0  0  0  0  0
   55.5694   30.3297   42.4564 H   0  0  0  0  0  0  0  0  0  0  0  0
   56.9775   29.1980   42.6494 H   0  0  0  0  0  0  0  0  0  0  0  0
   56.2620   30.0520   44.4560 C   0  0  0  0  0  0  0  0  0  0  0  0
   55.2110   29.4870   44.8660 O   0  0  0  0  0  0  0  0  0  0  0  0
   57.1730   30.5830   45.4340 N   0  0  0  0  0  0  0  0  0  0  0  0
   57.5170   31.8270   45.6120 C   0  0  0  0  0  0  0  0  0  0  0  0
   56.8930   32.8400   44.9500 N   0  0  0  0  0  0  0  0  0  0  0  0
   57.2240   34.1420   45.1470 C   0  0  0  0  0  0  0  0  0  0  0  0
   56.7001   34.9323   44.5894 H   0  0  0  0  0  0  0  0  0  0  0  0
   58.2280   34.4790   46.0560 C   0  0  0  0  0  0  0  0  0  0  0  0
   58.4937   35.5338   46.2199 H   0  0  0  0  0  0  0  0  0  0  0  0
   58.8970   33.4660   46.7600 C   0  0  0  0  0  0  0  0  0  0  0  0
   59.9600   33.8120   47.7360 C   0  0  0  0  0  0  0  0  0  0  0  0
   59.6370   34.2280   48.8820 O   0  0  0  0  0  0  0  0  0  0  0  0
   61.3490   33.7250   47.3750 N   0  0  0  0  0  0  0  0  0  0  0  0
   61.6030   33.8460   46.3680 H   0  0  0  0  0  0  0  0  0  0  0  0
   62.4190   33.6380   48.3320 C   0  0  0  0  0  0  0  0  0  0  0  0
   62.3670   34.3300   49.5550 C   0  0  0  0  0  0  0  0  0  0  0  0
   61.5016   34.9687   49.7855 H   0  0  0  0  0  0  0  0  0  0  0  0
   63.4090   34.2110   50.4800 C   0  0  0  0  0  0  0  0  0  0  0  0
   63.3634   34.7641   51.4297 H   0  0  0  0  0  0  0  0  0  0  0  0
   64.5160   33.3870   50.2020 C   0  0  0  0  0  0  0  0  0  0  0  0
   65.5910   33.2340   51.0940 O   0  0  0  0  0  0  0  0  0  0  0  0
   66.7970   32.5270   50.8170 C   0  0  0  0  0  0  0  0  0  0  0  0
   67.6160   32.5250   51.9320 F   0  0  0  0  0  0  0  0  0  0  0  0
   66.4860   31.2210   50.4910 F   0  0  0  0  0  0  0  0  0  0  0  0
   67.4560   33.1080   49.7480 F   0  0  0  0  0  0  0  0  0  0  0  0
   64.5550   32.6860   48.9920 C   0  0  0  0  0  0  0  0  0  0  0  0
   65.4136   32.0365   48.7661 H   0  0  0  0  0  0  0  0  0  0  0  0
   63.5140   32.8030   48.0680 C   0  0  0  0  0  0  0  0  0  0  0  0
   63.5536   32.2359   47.1263 H   0  0  0  0  0  0  0  0  0  0  0  0
   58.5240   32.1280   46.5390 C   0  0  0  0  0  0  0  0  0  0  0  0
   59.0221   31.3188   47.0931 H   0  0  0  0  0  0  0  0  0  0  0  0
  1  2  1  0
  2  3  1  0
  2  4  2  0
  4  5  1  0
  4  6  1  0
  6  7  1  0
  6  8  1  0
  6  9  1  0
  9 10  2  0
  9 11  1  0
 11 12  2  0
 12 13  1  0
 13 14  1  0
 14 15  1  0
 14 16  2  0
 16 17  1  0
 16 18  1  0
 18 19  1  0
 19 20  2  0
 19 21  1  0
 21 22  1  0
 21 23  1  0
 23 24  2  0
 24 25  1  0
 24 26  1  0
 26 27  1  0
 26 28  2  0
 28 29  1  0
 29 30  1  0
 30 31  1  0
 30 32  1  0
 30 33  1  0
 28 34  1  0
 34 35  1  0
 34 36  2  0
 36 37  1  0
 18 38  2  0
 38 39  1  0
 38 12  1  0
 36 23  1  0
M  CHG  1  13  -1
M  END
>  <UniqueID>  (28) 
28

>  <SMILES>  (28) 
C=CCC(=O)/N=c1/cc(C(=O)Nc2ccc(OC(F)(F)F)cc2)cc[n-]1

>  <Energy>  (28) 
48.05521605946732

>  <Genealogy>  (28) 
C=CCC(=O)N=c1cc(C(=O)Nc2ccc(OC(F)(F)F)cc2)cc[n-]1 (protonated)
C=CCC(=O)/N=c1/cc(C(=O)Nc2ccc(OC(F)(F)F)cc2)cc[n-]1 (cis-trans isomerization)
C=CCC(=O)/N=c1/cc(C(=O)Nc2ccc(OC(F)(F)F)cc2)cc[n-]1 (3D coordinates assigned)
C=CCC(=O)/N=c1/cc(C(=O)Nc2ccc(OC(F)(F)F)cc2)cc[n-]1 (optimized conformer: 48.05521605946732 kcal/mol)

>  <smiles>  (28) 
C=CCC(=O)N=c1cc(C(=O)Nc2ccc(OC(F)(F)F)cc2)cc[nH]1

>  <score_type>  (28) 
oracle

>  <origin>  (28) 
adg

>  <m_score__min__energy>  (28) 
-8.9199999999999999

>  <m_primary>  (28) 
energy

$$$$
28:0
     RDKit          3D

 50 52  0  0  0  0  0  0  0  0999 V2000
   61.1270   31.2010   50.8580 H   0  0  0  0  0  0  0  0  0  0  0  0
   60.3600   31.5580   51.3770 O   0  0  0  0  0  0  0  0  0  0  0  0
   59.5710   32.3270   50.5020 C   0  0  2  0  0  0  0  0  0  0  0  0
   60.2300   32.4520   49.0860 C   0  0  0  0  0  0  0  0  0  0  0  0
   59.4198   32.4470   48.3420 H   0  0  0  0  0  0  0  0  0  0  0  0
   60.8184   33.3805   49.1275 H   0  0  0  0  0  0  0  0  0  0  0  0
   61.2010   31.4000   48.6960 N   0  0  0  0  0  0  0  0  0  0  0  0
   60.7520   30.0210   48.9260 C   0  0  0  0  0  0  0  0  0  0  0  0
   60.6902   29.8311   50.0077 H   0  0  0  0  0  0  0  0  0  0  0  0
   59.7607   29.8775   48.4713 H   0  0  0  0  0  0  0  0  0  0  0  0
   61.4687   29.3214   48.4713 H   0  0  0  0  0  0  0  0  0  0  0  0
   62.5750   31.6200   49.1740 C   0  0  0  0  0  0  0  0  0  0  0  0
   62.5847   31.6216   50.2740 H   0  0  0  0  0  0  0  0  0  0  0  0
   63.2258   30.8146   48.8027 H   0  0  0  0  0  0  0  0  0  0  0  0
   62.9418   32.5883   48.8027 H   0  0  0  0  0  0  0  0  0  0  0  0
   59.3400   33.7140   51.1020 C   0  0  0  0  0  0  0  0  0  0  0  0
   59.0923   34.4406   50.3142 H   0  0  0  0  0  0  0  0  0  0  0  0
   60.2346   34.0994   51.6131 H   0  0  0  0  0  0  0  0  0  0  0  0
   58.1710   33.5360   52.0510 C   0  0  0  0  0  0  0  0  0  0  0  0
   57.5502   34.4441   52.0567 H   0  0  0  0  0  0  0  0  0  0  0  0
   58.5279   33.3578   53.0761 H   0  0  0  0  0  0  0  0  0  0  0  0
   57.3790   32.3870   51.5690 N   0  0  2  0  0  0  0  0  0  0  0  0
   56.4770   32.7410   51.1690 H   0  0  0  0  0  0  0  0  0  0  0  0
   57.1000   31.4410   52.6320 C   0  0  0  0  0  0  0  0  0  0  0  0
   57.9810   31.1860   53.4980 O   0  0  0  0  0  0  0  0  0  0  0  0
   55.8430   30.6630   52.6550 C   0  0  0  0  0  0  0  0  0  0  0  0
   54.6120   31.1980   52.3400 C   0  0  0  0  0  0  0  0  0  0  0  0
   54.4107   32.2308   52.0195 H   0  0  0  0  0  0  0  0  0  0  0  0
   53.6780   30.1910   52.5030 C   0  0  0  0  0  0  0  0  0  0  0  0
   52.3690   30.3610   52.2330 C   0  0  0  0  0  0  0  0  0  0  0  0
   51.6564   30.1183   53.0351 H   0  0  0  0  0  0  0  0  0  0  0  0
   51.8080   30.8420   50.9620 C   0  0  0  0  0  0  0  0  0  0  0  0
   51.6880   30.0750   49.8650 N   0  0  0  0  0  0  0  0  0  0  0  0
   51.0190   30.8690   49.0000 C   0  0  0  0  0  0  0  0  0  0  0  0
   50.7250   30.5030   47.8330 O   0  0  0  0  0  0  0  0  0  0  0  0
   50.6780   32.0810   49.4890 N   0  0  0  0  0  0  0  0  0  0  0  0
   51.1710   32.0420   50.7370 C   0  0  0  0  0  0  0  0  0  0  0  0
   51.0180   33.0710   51.6590 O   0  0  0  0  0  0  0  0  0  0  0  0
   54.3870   29.0700   52.9660 C   0  0  0  0  0  0  0  0  0  0  0  0
   53.8700   27.9280   53.4440 C   0  0  0  0  0  0  0  0  0  0  0  0
   54.5371   27.1193   53.7772 H   0  0  0  0  0  0  0  0  0  0  0  0
   52.7790   27.8003   53.5027 H   0  0  0  0  0  0  0  0  0  0  0  0
   55.7150   29.3590   52.9990 N   0  0  0  0  0  0  0  0  0  0  0  0
   56.8040   28.4400   53.3460 C   0  0  0  0  0  0  0  0  0  0  0  0
   56.8887   28.3685   54.4404 H   0  0  0  0  0  0  0  0  0  0  0  0
   56.5908   27.4447   52.9289 H   0  0  0  0  0  0  0  0  0  0  0  0
   57.7493   28.8175   52.9289 H   0  0  0  0  0  0  0  0  0  0  0  0
   58.1470   31.7530   50.4770 C   0  0  0  0  0  0  0  0  0  0  0  0
   57.6724   31.9743   49.5097 H   0  0  0  0  0  0  0  0  0  0  0  0
   58.1728   30.6616   50.6121 H   0  0  0  0  0  0  0  0  0  0  0  0
  1  2  1  0
  3  2  1  1
  3  4  1  0
  4  5  1  0
  4  6  1  0
  4  7  1  0
  7  8  1  0
  8  9  1  0
  8 10  1  0
  8 11  1  0
  7 12  1  0
 12 13  1  0
 12 14  1  0
 12 15  1  0
  3 16  1  0
 16 17  1  0
 16 18  1  0
 16 19  1  0
 19 20  1  0
 19 21  1  0
 19 22  1  0
 22 23  1  6
 22 24  1  0
 24 25  2  0
 24 26  1  0
 26 27  2  0
 27 28  1  0
 27 29  1  0
 29 30  2  0
 30 31  1  0
 30 32  1  0
 32 33  1  0
 33 34  1  0
 34 35  2  0
 34 36  1  0
 36 37  1  0
 37 38  1  0
 29 39  1  0
 39 40  2  0
 40 41  1  0
 40 42  1  0
 39 43  1  0
 43 44  1  0
 44 45  1  0
 44 46  1  0
 44 47  1  0
 22 48  1  0
 48 49  1  0
 48 50  1  0
 48  3  1  0
 43 26  1  0
 37 32  2  0
M  CHG  4  22   1  33  -1  36  -1  38  -1
M  END
>  <UniqueID>  (29) 
29

>  <SMILES>  (29) 
C=c1/c(=C\c2[n-]c(=O)[n-]c2[O-])cc(C(=O)[N@H+]2CC[C@](O)(CN(C)C)C2)n1C

>  <Energy>  (29) 
140.90590730022674

>  <Genealogy>  (29) 
C=c1c(=Cc2[n-]c(=O)[n-]c2[O-])cc(C(=O)[NH+]2CCC(O)(CN(C)C)C2)n1C (protonated)
C=c1c(=Cc2[n-]c(=O)[n-]c2[O-])cc(C(=O)[N@H+]2CC[C@](O)(CN(C)C)C2)n1C (chirality)
C=c1/c(=C\c2[n-]c(=O)[n-]c2[O-])cc(C(=O)[N@H+]2CC[C@](O)(CN(C)C)C2)n1C (cis-trans isomerization)
C=c1/c(=C\c2[n-]c(=O)[n-]c2[O-])cc(C(=O)[N@H+]2CC[C@](O)(CN(C)C)C2)n1C (3D coordinates assigned)
C=c1/c(=C\c2[n-]c(=O)[n-]c2[O-])cc(C(=O)[N@H+]2CC[C@](O)(CN(C)C)C2)n1C (nonaromatic ring conformer: 140.90590730022674 kcal/mol)

>  <smiles>  (29) 
C=c1c(=Cc2[nH]c(=O)[nH]c2O)cc(C(=O)N2CCC(O)(CN(C)C)C2)n1C

>  <score_type>  (29) 
oracle

>  <origin>  (29) 
adg

>  <m_score__min__energy>  (29) 
-15.65

>  <m_primary>  (29) 
energy

$$$$
29:0
     RDKit          3D

 54 56  0  0  0  0  0  0  0  0999 V2000
   56.5770   30.0850   42.6110 C   0  0  0  0  0  0  0  0  0  0  0  0
   56.4940   30.2800   44.3820 S   0  0  0  0  0  0  0  0  0  0  0  0
   55.1960   29.7020   44.8730 O   0  0  0  0  0  0  0  0  0  0  0  0
   57.6270   29.5490   45.0480 O   0  0  0  0  0  0  0  0  0  0  0  0
   56.5450   31.9650   44.8020 N   0  0  0  0  0  0  0  0  0  0  0  0
   57.5980   32.6280   45.5160 C   0  0  0  0  0  0  0  0  0  0  0  0
   57.4130   32.8960   46.8770 C   0  0  0  0  0  0  0  0  0  0  0  0
   58.4150   33.5280   47.6180 C   0  0  0  0  0  0  0  0  0  0  0  0
   59.6210   33.9000   47.0050 C   0  0  0  0  0  0  0  0  0  0  0  0
   60.6920   34.5900   47.8020 C   0  0  0  0  0  0  0  0  0  0  0  0
   61.0060   33.8050   49.0400 C   0  0  0  0  0  0  0  0  0  0  0  0
   61.4770   34.4000   50.0470 O   0  0  0  0  0  0  0  0  0  0  0  0
   60.8100   32.3830   49.0650 N   0  0  0  0  0  0  0  0  0  0  0  0
   61.0050   31.5840   50.2740 C   0  0  0  0  0  0  0  0  0  0  0  0
   59.6760   31.2850   50.9100 C   0  0  0  0  0  0  0  0  0  0  0  0
   58.7770   32.3250   51.1860 C   0  0  0  0  0  0  0  0  0  0  0  0
   57.5640   32.0590   51.8260 C   0  0  0  0  0  0  0  0  0  0  0  0
   57.2340   30.7480   52.2100 C   0  0  0  0  0  0  0  0  0  0  0  0
   55.9770   30.4820   52.9440 C   0  0  0  0  0  0  0  0  0  0  0  0
   56.0130   29.8410   54.0300 O   0  0  0  0  0  0  0  0  0  0  0  0
   54.7030   30.8980   52.4320 N   0  0  0  0  0  0  0  0  0  0  0  0
   53.6800   29.9750   51.9520 C   0  0  0  0  0  0  0  0  0  0  0  0
   52.7660   30.6910   50.9880 C   0  0  0  0  0  0  0  0  0  0  0  0
   52.2710   30.0240   49.8550 C   0  0  0  0  0  0  0  0  0  0  0  0
   51.3470   30.6570   49.0180 C   0  0  0  0  0  0  0  0  0  0  0  0
   50.9080   31.9460   49.3350 C   0  0  0  0  0  0  0  0  0  0  0  0
   50.0400   32.5100   48.6210 O   0  0  0  0  0  0  0  0  0  0  0  0
   51.3970   32.5810   50.4380 N   0  0  0  0  0  0  0  0  0  0  0  0
   52.3080   31.9920   51.2600 C   0  0  0  0  0  0  0  0  0  0  0  0
   58.1460   29.7110   51.9510 C   0  0  0  0  0  0  0  0  0  0  0  0
   59.3540   29.9770   51.3010 C   0  0  0  0  0  0  0  0  0  0  0  0
   59.8030   33.6470   45.6370 C   0  0  0  0  0  0  0  0  0  0  0  0
   58.8020   33.0090   44.8960 C   0  0  0  0  0  0  0  0  0  0  0  0
   56.9973   29.0974   42.3702 H   0  0  0  0  0  0  0  0  0  0  0  0
   55.5660   30.1669   42.1853 H   0  0  0  0  0  0  0  0  0  0  0  0
   57.2188   30.8704   42.1853 H   0  0  0  0  0  0  0  0  0  0  0  0
   56.4716   32.6069   47.3672 H   0  0  0  0  0  0  0  0  0  0  0  0
   58.2576   33.7348   48.6868 H   0  0  0  0  0  0  0  0  0  0  0  0
   61.6006   34.6789   47.1884 H   0  0  0  0  0  0  0  0  0  0  0  0
   60.3345   35.5889   48.0926 H   0  0  0  0  0  0  0  0  0  0  0  0
   60.4750   31.9010   48.1980 H   0  0  0  0  0  0  0  0  0  0  0  0
   61.5039   30.6397   50.0105 H   0  0  0  0  0  0  0  0  0  0  0  0
   61.6275   32.1480   50.9842 H   0  0  0  0  0  0  0  0  0  0  0  0
   59.0282   33.3562   50.8970 H   0  0  0  0  0  0  0  0  0  0  0  0
   56.8625   32.8812   52.0307 H   0  0  0  0  0  0  0  0  0  0  0  0
   54.1614   29.1285   51.4403 H   0  0  0  0  0  0  0  0  0  0  0  0
   53.0932   29.6035   52.8050 H   0  0  0  0  0  0  0  0  0  0  0  0
   52.6106   29.0031   49.6262 H   0  0  0  0  0  0  0  0  0  0  0  0
   50.9695   30.1463   48.1198 H   0  0  0  0  0  0  0  0  0  0  0  0
   52.6865   32.5349   52.1386 H   0  0  0  0  0  0  0  0  0  0  0  0
   57.9075   28.6832   52.2619 H   0  0  0  0  0  0  0  0  0  0  0  0
   60.0564   29.1560   51.0948 H   0  0  0  0  0  0  0  0  0  0  0  0
   60.7379   33.9519   45.1441 H   0  0  0  0  0  0  0  0  0  0  0  0
   58.9569   32.8049   43.8263 H   0  0  0  0  0  0  0  0  0  0  0  0
  1  2  1  0
  2  3  2  0
  2  4  2  0
  2  5  1  0
  5  6  1  0
  6  7  2  0
  7  8  1  0
  8  9  2  0
  9 10  1  0
 10 11  1  0
 11 12  2  0
 11 13  1  0
 13 14  1  0
 14 15  1  0
 15 16  2  0
 16 17  1  0
 17 18  2  0
 18 19  1  0
 19 20  2  0
 19 21  1  0
 21 22  1  0
 22 23  1  0
 23 24  1  0
 24 25  2  0
 25 26  1  0
 26 27  2  0
 26 28  1  0
 28 29  1  0
 18 30  1  0
 30 31  2  0
  9 32  1  0
 32 33  2  0
 33  6  1  0
 31 15  1  0
 29 23  2  0
  1 34  1  0
  1 35  1  0
  1 36  1  0
  7 37  1  0
  8 38  1  0
 10 39  1  0
 10 40  1  0
 13 41  1  0
 14 42  1  0
 14 43  1  0
 16 44  1  0
 17 45  1  0
 22 46  1  0
 22 47  1  0
 24 48  1  0
 25 49  1  0
 29 50  1  0
 30 51  1  0
 31 52  1  0
 32 53  1  0
 33 54  1  0
M  CHG  3   5  -1  21  -1  28  -1
M  END
>  <UniqueID>  (30) 
30

>  <SMILES>  (30) 
CS(=O)(=O)[N-]c1ccc(CC(=O)NCc2ccc(C(=O)[N-]Cc3ccc(=O)[n-]c3)cc2)cc1

>  <Energy>  (30) 
56.51791370703072

>  <Genealogy>  (30) 
CS(=O)(=O)[N-]c1ccc(CC(=O)NCc2ccc(C(=O)[N-]Cc3ccc(=O)[n-]c3)cc2)cc1 (protonated)
CS(=O)(=O)[N-]c1ccc(CC(=O)NCc2ccc(C(=O)[N-]Cc3ccc(=O)[n-]c3)cc2)cc1 (3D coordinates assigned)
CS(=O)(=O)[N-]c1ccc(CC(=O)NCc2ccc(C(=O)[N-]Cc3ccc(=O)[n-]c3)cc2)cc1 (optimized conformer: 56.51791370703072 kcal/mol)

>  <smiles>  (30) 
CS(=O)(=O)Nc1ccc(CC(=O)NCc2ccc(C(=O)NCc3ccc(=O)[nH]c3)cc2)cc1

>  <score_type>  (30) 
oracle

>  <origin>  (30) 
adg

>  <m_score__min__energy>  (30) 
-16.109999999999999

>  <m_primary>  (30) 
energy

$$$$
30:0
     RDKit          3D

 58 60  0  0  0  0  0  0  0  0999 V2000
   56.2080   23.9500   43.9910 C   0  0  0  0  0  0  0  0  0  0  0  0
   55.2870   23.9220   45.2070 C   0  0  0  0  0  0  0  0  0  0  0  0
   55.1590   25.2880   45.8040 C   0  0  0  0  0  0  0  0  0  0  0  0
   54.1020   25.9500   45.6240 O   0  0  0  0  0  0  0  0  0  0  0  0
   56.2030   25.7840   46.6540 N   0  0  0  0  0  0  0  0  0  0  0  0
   57.3430   26.5570   46.2500 C   0  0  0  0  0  0  0  0  0  0  0  0
   58.6160   26.3630   46.8120 C   0  0  0  0  0  0  0  0  0  0  0  0
   59.6980   27.1360   46.3850 C   0  0  0  0  0  0  0  0  0  0  0  0
   59.5170   28.1230   45.4140 C   0  0  0  0  0  0  0  0  0  0  0  0
   58.2400   28.3660   44.8810 C   0  0  0  0  0  0  0  0  0  0  0  0
   58.0240   29.3750   43.8780 N   0  0  0  0  0  0  0  0  0  0  0  0
   57.0110   30.3880   43.9660 C   0  0  0  0  0  0  0  0  0  0  0  0
   56.0500   30.2560   44.7730 O   0  0  0  0  0  0  0  0  0  0  0  0
   57.0540   31.5410   43.0450 C   0  0  0  0  0  0  0  0  0  0  0  0
   57.7910   32.6480   43.2300 C   0  0  0  0  0  0  0  0  0  0  0  0
   58.1300   33.2340   44.5440 C   0  0  0  0  0  0  0  0  0  0  0  0
   59.3070   33.9830   44.6800 C   0  0  0  0  0  0  0  0  0  0  0  0
   59.6690   34.5120   45.9220 C   0  0  0  0  0  0  0  0  0  0  0  0
   58.8730   34.2880   47.0510 C   0  0  0  0  0  0  0  0  0  0  0  0
   59.2850   34.8420   48.2740 O   0  0  0  0  0  0  0  0  0  0  0  0
   60.0850   34.1810   49.2550 C   0  0  0  0  0  0  0  0  0  0  0  0
   61.5330   34.1830   48.8520 C   0  0  0  0  0  0  0  0  0  0  0  0
   62.3830   34.7310   49.6010 O   0  0  0  0  0  0  0  0  0  0  0  0
   61.9730   33.5830   47.6270 N   0  0  0  0  0  0  0  0  0  0  0  0
   62.3000   32.1720   47.4750 C   0  0  0  0  0  0  0  0  0  0  0  0
   61.1180   31.3440   47.8730 C   0  0  0  0  0  0  0  0  0  0  0  0
   61.1490   30.5610   49.0370 C   0  0  0  0  0  0  0  0  0  0  0  0
   60.0390   29.7780   49.3640 C   0  0  0  0  0  0  0  0  0  0  0  0
   58.9210   29.7730   48.5290 C   0  0  0  0  0  0  0  0  0  0  0  0
   58.9310   30.5520   47.3690 C   0  0  0  0  0  0  0  0  0  0  0  0
   60.0190   31.3100   47.0680 N   0  0  0  0  0  0  0  0  0  0  0  0
   57.7060   33.5100   46.9230 C   0  0  0  0  0  0  0  0  0  0  0  0
   57.3460   32.9810   45.6820 C   0  0  0  0  0  0  0  0  0  0  0  0
   57.1610   27.5690   45.2970 C   0  0  0  0  0  0  0  0  0  0  0  0
   57.2555   23.9818   44.3251 H   0  0  0  0  0  0  0  0  0  0  0  0
   56.0435   23.0464   43.3856 H   0  0  0  0  0  0  0  0  0  0  0  0
   55.9890   24.8419   43.3856 H   0  0  0  0  0  0  0  0  0  0  0  0
   54.2923   23.5679   44.8987 H   0  0  0  0  0  0  0  0  0  0  0  0
   55.7160   23.2451   45.9605 H   0  0  0  0  0  0  0  0  0  0  0  0
   58.7609   25.5998   47.5908 H   0  0  0  0  0  0  0  0  0  0  0  0
   60.6962   26.9667   46.8151 H   0  0  0  0  0  0  0  0  0  0  0  0
   60.3776   28.7126   45.0650 H   0  0  0  0  0  0  0  0  0  0  0  0
   58.6080   29.3390   43.0130 H   0  0  0  0  0  0  0  0  0  0  0  0
   56.4346   31.4892   42.1374 H   0  0  0  0  0  0  0  0  0  0  0  0
   58.1724   33.1588   42.3335 H   0  0  0  0  0  0  0  0  0  0  0  0
   59.9496   34.1555   43.8040 H   0  0  0  0  0  0  0  0  0  0  0  0
   60.5879   35.1098   46.0129 H   0  0  0  0  0  0  0  0  0  0  0  0
   59.9779   34.7015   50.2181 H   0  0  0  0  0  0  0  0  0  0  0  0
   59.7449   33.1386   49.3434 H   0  0  0  0  0  0  0  0  0  0  0  0
   62.5566   31.9654   46.4255 H   0  0  0  0  0  0  0  0  0  0  0  0
   63.1578   31.9216   48.1164 H   0  0  0  0  0  0  0  0  0  0  0  0
   62.0378   30.5636   49.6852 H   0  0  0  0  0  0  0  0  0  0  0  0
   60.0464   29.1664   50.2783 H   0  0  0  0  0  0  0  0  0  0  0  0
   58.0414   29.1625   48.7812 H   0  0  0  0  0  0  0  0  0  0  0  0
   58.0585   30.5520   46.6992 H   0  0  0  0  0  0  0  0  0  0  0  0
   57.0758   33.3184   47.8040 H   0  0  0  0  0  0  0  0  0  0  0  0
   56.4414   32.3613   45.5947 H   0  0  0  0  0  0  0  0  0  0  0  0
   56.1618   27.7408   44.8703 H   0  0  0  0  0  0  0  0  0  0  0  0
  1  2  1  0
  2  3  1  0
  3  4  2  0
  3  5  1  0
  5  6  1  0
  6  7  2  0
  7  8  1  0
  8  9  2  0
  9 10  1  0
 10 11  1  0
 11 12  1  0
 12 13  2  0
 12 14  1  0
 14 15  2  3
 15 16  1  0
 16 17  2  0
 17 18  1  0
 18 19  2  0
 19 20  1  0
 20 21  1  0
 21 22  1  0
 22 23  2  0
 22 24  1  0
 24 25  1  0
 25 26  1  0
 26 27  2  0
 27 28  1  0
 28 29  2  0
 29 30  1  0
 30 31  2  0
 19 32  1  0
 32 33  2  0
 10 34  2  0
 34  6  1  0
 33 16  1  0
 31 26  1  0
  1 35  1  0
  1 36  1  0
  1 37  1  0
  2 38  1  0
  2 39  1  0
  7 40  1  0
  8 41  1  0
  9 42  1  0
 11 43  1  0
 14 44  1  0
 15 45  1  0
 17 46  1  0
 18 47  1  0
 21 48  1  0
 21 49  1  0
 25 50  1  0
 25 51  1  0
 27 52  1  0
 28 53  1  0
 29 54  1  0
 30 55  1  0
 32 56  1  0
 33 57  1  0
 34 58  1  0
M  CHG  2   5  -1  24  -1
M  END
>  <UniqueID>  (31) 
31

>  <SMILES>  (31) 
CCC(=O)[N-]c1cccc(NC(=O)C=Cc2ccc(OCC(=O)[N-]Cc3ccccn3)cc2)c1

>  <Energy>  (31) 
67.22079825522714

>  <Genealogy>  (31) 
CCC(=O)[N-]c1cccc(NC(=O)C=Cc2ccc(OCC(=O)[N-]Cc3ccccn3)cc2)c1 (protonated)
CCC(=O)[N-]c1cccc(NC(=O)C=Cc2ccc(OCC(=O)[N-]Cc3ccccn3)cc2)c1 (3D coordinates assigned)
CCC(=O)[N-]c1cccc(NC(=O)C=Cc2ccc(OCC(=O)[N-]Cc3ccccn3)cc2)c1 (optimized conformer: 67.22079825522714 kcal/mol)

>  <smiles>  (31) 
CCC(=O)Nc1cccc(NC(=O)C=Cc2ccc(OCC(=O)NCc3ccccn3)cc2)c1

>  <score_type>  (31) 
oracle

>  <origin>  (31) 
adg

>  <m_score__min__energy>  (31) 
-12.98

>  <m_primary>  (31) 
energy

$$$$
31:0
     RDKit          3D

 55 58  0  0  0  0  0  0  0  0999 V2000
   51.8342   30.1432   53.0228 H   0  0  0  0  0  0  0  0  0  0  0  0
   52.4820   30.4870   52.2030 C   0  0  0  0  0  0  0  0  0  0  0  0
   51.8200   30.8650   50.9330 C   0  0  0  0  0  0  0  0  0  0  0  0
   51.7240   30.0990   49.8330 N   0  0  0  0  0  0  0  0  0  0  0  0
   51.0130   30.8620   48.9760 C   0  0  0  0  0  0  0  0  0  0  0  0
   50.7160   30.4810   47.8140 O   0  0  0  0  0  0  0  0  0  0  0  0
   50.6400   32.0640   49.4650 N   0  0  0  0  0  0  0  0  0  0  0  0
   51.1550   32.0470   50.7050 C   0  0  0  0  0  0  0  0  0  0  0  0
   51.0180   33.0910   51.6090 O   0  0  0  0  0  0  0  0  0  0  0  0
   53.8110   30.5270   52.4440 C   0  0  0  0  0  0  0  0  0  0  0  0
   54.8230   30.7750   51.5260 C   0  0  0  0  0  0  0  0  0  0  0  0
   54.6966   30.9797   50.4526 H   0  0  0  0  0  0  0  0  0  0  0  0
   56.0190   30.7160   52.2160 C   0  0  0  0  0  0  0  0  0  0  0  0
   57.3420   30.8580   51.5730 C   0  0  0  0  0  0  0  0  0  0  0  0
   57.9210   29.8490   51.0910 O   0  0  0  0  0  0  0  0  0  0  0  0
   57.8910   32.1750   51.3930 N   0  0  0  0  0  0  0  0  0  0  0  0
   58.7470   32.5970   50.5010 C   0  0  0  0  0  0  0  0  0  0  0  0
   59.8220   33.3080   50.9350 N   0  0  0  0  0  0  0  0  0  0  0  0
   60.7700   33.7850   50.0880 C   0  0  0  0  0  0  0  0  0  0  0  0
   61.6233   34.3546   50.4847 H   0  0  0  0  0  0  0  0  0  0  0  0
   60.6650   33.5550   48.7180 C   0  0  0  0  0  0  0  0  0  0  0  0
   61.4288   33.9484   48.0312 H   0  0  0  0  0  0  0  0  0  0  0  0
   59.5800   32.8190   48.2190 C   0  0  0  0  0  0  0  0  0  0  0  0
   59.4530   32.5370   46.7680 C   0  0  0  0  0  0  0  0  0  0  0  0
   60.1600   31.6290   46.2490 O   0  0  0  0  0  0  0  0  0  0  0  0
   58.5230   33.2630   45.9510 N   0  0  0  0  0  0  0  0  0  0  0  0
   57.8200   33.8880   46.4060 H   0  0  0  0  0  0  0  0  0  0  0  0
   58.4750   33.0710   44.5010 C   0  0  0  0  0  0  0  0  0  0  0  0
   57.9664   33.9300   44.0389 H   0  0  0  0  0  0  0  0  0  0  0  0
   59.5033   32.9883   44.1193 H   0  0  0  0  0  0  0  0  0  0  0  0
   57.7230   31.8040   44.1580 C   0  0  0  0  0  0  0  0  0  0  0  0
   57.4160   30.8970   45.1880 C   0  0  0  0  0  0  0  0  0  0  0  0
   57.7034   31.1313   46.2236 H   0  0  0  0  0  0  0  0  0  0  0  0
   56.7500   29.7020   44.9090 C   0  0  0  0  0  0  0  0  0  0  0  0
   56.5090   29.0038   45.7241 H   0  0  0  0  0  0  0  0  0  0  0  0
   56.3900   29.3930   43.5970 C   0  0  0  0  0  0  0  0  0  0  0  0
   55.8609   28.4534   43.3796 H   0  0  0  0  0  0  0  0  0  0  0  0
   56.7000   30.2740   42.5600 C   0  0  0  0  0  0  0  0  0  0  0  0
   56.4114   30.0244   41.5283 H   0  0  0  0  0  0  0  0  0  0  0  0
   57.3780   31.4780   42.8220 C   0  0  0  0  0  0  0  0  0  0  0  0
   57.6930   32.4070   41.6790 C   0  0  0  0  0  0  0  0  0  0  0  0
   58.0224   33.3785   42.0762 H   0  0  0  0  0  0  0  0  0  0  0  0
   58.4939   31.9721   41.0630 H   0  0  0  0  0  0  0  0  0  0  0  0
   56.7927   32.5489   41.0630 H   0  0  0  0  0  0  0  0  0  0  0  0
   58.6250   32.3210   49.1230 C   0  0  0  0  0  0  0  0  0  0  0  0
   57.7828   31.7162   48.7557 H   0  0  0  0  0  0  0  0  0  0  0  0
   55.7920   30.4780   53.5320 N   0  0  0  0  0  0  0  0  0  0  0  0
   56.8090   30.3880   54.5880 C   0  0  0  0  0  0  0  0  0  0  0  0
   56.3202   30.4313   55.5725 H   0  0  0  0  0  0  0  0  0  0  0  0
   57.3550   29.4380   54.4912 H   0  0  0  0  0  0  0  0  0  0  0  0
   57.5134   31.2273   54.4912 H   0  0  0  0  0  0  0  0  0  0  0  0
   54.4470   30.3340   53.6770 C   0  0  0  0  0  0  0  0  0  0  0  0
   53.8460   30.0200   54.8390 C   0  0  0  0  0  0  0  0  0  0  0  0
   54.4465   29.8914   55.7516 H   0  0  0  0  0  0  0  0  0  0  0  0
   52.7541   29.8918   54.8764 H   0  0  0  0  0  0  0  0  0  0  0  0
  1  2  1  0
  2  3  1  0
  3  4  1  0
  4  5  1  0
  5  6  2  0
  5  7  1  0
  7  8  1  0
  8  9  1  0
  2 10  2  3
 10 11  1  0
 11 12  1  0
 11 13  2  0
 13 14  1  0
 14 15  2  0
 14 16  1  0
 16 17  2  0
 17 18  1  0
 18 19  1  0
 19 20  1  0
 19 21  2  0
 21 22  1  0
 21 23  1  0
 23 24  1  0
 24 25  2  0
 24 26  1  0
 26 27  1  0
 26 28  1  0
 28 29  1  0
 28 30  1  0
 28 31  1  0
 31 32  2  0
 32 33  1  0
 32 34  1  0
 34 35  1  0
 34 36  2  0
 36 37  1  0
 36 38  1  0
 38 39  1  0
 38 40  2  0
 40 41  1  0
 41 42  1  0
 41 43  1  0
 41 44  1  0
 23 45  2  0
 45 46  1  0
 13 47  1  0
 47 48  1  0
 48 49  1  0
 48 50  1  0
 48 51  1  0
 47 52  1  0
 52 53  2  0
 53 54  1  0
 53 55  1  0
  8  3  2  0
 52 10  1  0
 45 17  1  0
 40 31  1  0
M  CHG  4   4  -1   7  -1   9  -1  18  -1
M  END
>  <UniqueID>  (32) 
32

>  <SMILES>  (32) 
C=c1c(=Cc2[n-]c(=O)[n-]c2[O-])cc(C(=O)/N=c2\cc(C(=O)NCc3ccccc3C)cc[n-]2)n1C

>  <Energy>  (32) 
134.4759797320394

>  <Genealogy>  (32) 
C=c1c(=Cc2[n-]c(=O)[n-]c2[O-])cc(C(=O)N=c2cc(C(=O)NCc3ccccc3C)cc[n-]2)n1C (protonated)
C=c1c(=Cc2[n-]c(=O)[n-]c2[O-])cc(C(=O)/N=c2\cc(C(=O)NCc3ccccc3C)cc[n-]2)n1C (cis-trans isomerization)
C=c1c(=Cc2[n-]c(=O)[n-]c2[O-])cc(C(=O)/N=c2\cc(C(=O)NCc3ccccc3C)cc[n-]2)n1C (3D coordinates assigned)
C=c1c(=Cc2[n-]c(=O)[n-]c2[O-])cc(C(=O)/N=c2\cc(C(=O)NCc3ccccc3C)cc[n-]2)n1C (optimized conformer: 134.4759797320394 kcal/mol)

>  <smiles>  (32) 
C=c1c(=Cc2[nH]c(=O)[nH]c2O)cc(C(=O)N=c2cc(C(=O)NCc3ccccc3C)cc[nH]2)n1C

>  <score_type>  (32) 
oracle

>  <origin>  (32) 
adg

>  <m_score__min__energy>  (32) 
-20.579999999999998

>  <m_primary>  (32) 
energy

$$$$
32:0
     RDKit          3D

 35 36  0  0  0  0  0  0  0  0999 V2000
   57.4657   29.9416   43.1289 H   0  0  0  0  0  0  0  0  0  0  0  0
   57.8510   29.8600   44.1560 C   0  0  0  0  0  0  0  0  0  0  0  0
   58.5540   30.8340   44.6490 N   0  0  0  0  0  0  0  0  0  0  0  0
   58.7230   31.0800   46.0490 C   0  0  0  0  0  0  0  0  0  0  0  0
   57.7890   31.7240   46.6860 N   0  0  0  0  0  0  0  0  0  0  0  0
   57.6690   33.1780   46.7740 C   0  0  0  0  0  0  0  0  0  0  0  0
   58.5199   33.5776   47.3452 H   0  0  0  0  0  0  0  0  0  0  0  0
   56.7236   33.4272   47.2780 H   0  0  0  0  0  0  0  0  0  0  0  0
   57.6640   33.7900   45.4000 C   0  0  0  0  0  0  0  0  0  0  0  0
   56.7802   33.6555   44.7591 H   0  0  0  0  0  0  0  0  0  0  0  0
   58.7010   34.4920   44.9350 C   0  0  0  0  0  0  0  0  0  0  0  0
   58.6630   34.9256   43.9248 H   0  0  0  0  0  0  0  0  0  0  0  0
   59.5930   34.6365   45.5623 H   0  0  0  0  0  0  0  0  0  0  0  0
   59.8760   30.5750   46.7420 N   0  0  0  0  0  0  0  0  0  0  0  0
   59.9530   29.5400   46.8570 H   0  0  0  0  0  0  0  0  0  0  0  0
   60.9610   31.4090   47.1860 C   0  0  0  0  0  0  0  0  0  0  0  0
   61.0280   32.7410   46.7480 C   0  0  0  0  0  0  0  0  0  0  0  0
   60.2545   33.1329   46.0712 H   0  0  0  0  0  0  0  0  0  0  0  0
   62.0710   33.5730   47.1660 C   0  0  0  0  0  0  0  0  0  0  0  0
   62.1179   34.6143   46.8144 H   0  0  0  0  0  0  0  0  0  0  0  0
   63.0540   33.0830   48.0300 C   0  0  0  0  0  0  0  0  0  0  0  0
   63.8751   33.7377   48.3574 H   0  0  0  0  0  0  0  0  0  0  0  0
   62.9930   31.7600   48.4780 C   0  0  0  0  0  0  0  0  0  0  0  0
   63.7666   31.3750   49.1586 H   0  0  0  0  0  0  0  0  0  0  0  0
   61.9510   30.9250   48.0630 C   0  0  0  0  0  0  0  0  0  0  0  0
   61.9044   29.8865   48.4227 H   0  0  0  0  0  0  0  0  0  0  0  0
   57.5550   28.6380   44.9470 C   0  0  0  0  0  0  0  0  0  0  0  0
   56.2380   28.2270   45.2510 C   0  0  0  0  0  0  0  0  0  0  0  0
   55.1360   28.9560   44.8210 O   0  0  0  0  0  0  0  0  0  0  0  0
   56.0300   27.1000   45.9790 N   0  0  0  0  0  0  0  0  0  0  0  0
   57.0660   26.3480   46.4270 C   0  0  0  0  0  0  0  0  0  0  0  0
   56.8440   25.3080   47.0990 O   0  0  0  0  0  0  0  0  0  0  0  0
   58.3410   26.7180   46.1510 N   0  0  0  0  0  0  0  0  0  0  0  0
   58.6090   27.8340   45.4270 C   0  0  0  0  0  0  0  0  0  0  0  0
   59.8100   28.1390   45.1950 O   0  0  0  0  0  0  0  0  0  0  0  0
  1  2  1  0
  2  3  2  0
  3  4  1  0
  4  5  2  0
  5  6  1  0
  6  7  1  0
  6  8  1  0
  6  9  1  0
  9 10  1  0
  9 11  2  0
 11 12  1  0
 11 13  1  0
  4 14  1  0
 14 15  1  0
 14 16  1  0
 16 17  2  0
 17 18  1  0
 17 19  1  0
 19 20  1  0
 19 21  2  0
 21 22  1  0
 21 23  1  0
 23 24  1  0
 23 25  2  0
 25 26  1  0
  2 27  1  0
 27 28  2  0
 28 29  1  0
 28 30  1  0
 30 31  1  0
 31 32  2  0
 31 33  1  0
 33 34  1  0
 34 35  2  0
 25 16  1  0
 34 27  1  0
M  CHG  3  29  -1  30  -1  33  -1
M  END
>  <UniqueID>  (33) 
33

>  <SMILES>  (33) 
C=CC/N=C(/N=Cc1c([O-])[n-]c(=O)[n-]c1=O)Nc1ccccc1

>  <Energy>  (33) 
42.83508588440018

>  <Genealogy>  (33) 
C=CCN=C(N=Cc1c([O-])[n-]c(=O)[n-]c1=O)Nc1ccccc1 (protonated)
C=CC/N=C(/N=Cc1c([O-])[n-]c(=O)[n-]c1=O)Nc1ccccc1 (cis-trans isomerization)
C=CC/N=C(/N=Cc1c([O-])[n-]c(=O)[n-]c1=O)Nc1ccccc1 (3D coordinates assigned)
C=CC/N=C(/N=Cc1c([O-])[n-]c(=O)[n-]c1=O)Nc1ccccc1 (optimized conformer: 42.83508588440018 kcal/mol)

>  <smiles>  (33) 
C=CCN=C(N=Cc1c(O)[nH]c(=O)[nH]c1=O)Nc1ccccc1

>  <score_type>  (33) 
oracle

>  <origin>  (33) 
adg

>  <m_score__min__energy>  (33) 
-14.75

>  <m_primary>  (33) 
energy

$$$$
33:0
     RDKit          3D

 35 36  0  0  0  0  0  0  0  0999 V2000
   55.1450   26.6860   46.0030 N   0  0  0  0  0  0  0  0  0  0  0  0
   56.3100   25.9400   46.3460 C   0  0  0  0  0  0  0  0  0  0  0  0
   56.2420   25.0390   47.2240 O   0  0  0  0  0  0  0  0  0  0  0  0
   57.5970   26.1940   45.6300 C   0  0  0  0  0  0  0  0  0  0  0  0
   57.8530   27.6670   45.5500 C   0  0  0  0  0  0  0  0  0  0  0  0
   58.8720   28.1490   46.1140 O   0  0  0  0  0  0  0  0  0  0  0  0
   56.9390   28.5160   44.8390 N   0  0  0  0  0  0  0  0  0  0  0  0
   57.2170   29.8820   44.4860 C   0  0  0  0  0  0  0  0  0  0  0  0
   57.1210   30.2780   43.1450 C   0  0  0  0  0  0  0  0  0  0  0  0
   57.3880   31.5980   42.7780 C   0  0  0  0  0  0  0  0  0  0  0  0
   57.7790   32.5300   43.7420 C   0  0  0  0  0  0  0  0  0  0  0  0
   57.9330   32.1420   45.0790 C   0  0  0  0  0  0  0  0  0  0  0  0
   58.3360   33.1300   46.0380 N   0  0  0  0  0  0  0  0  0  0  0  0
   59.0620   32.8960   47.2540 C   0  0  0  0  0  0  0  0  0  0  0  0
   58.4370   32.7570   48.3390 O   0  0  0  0  0  0  0  0  0  0  0  0
   60.5440   32.7890   47.2140 C   0  0  0  0  0  0  0  0  0  0  0  0
   61.2920   33.9020   46.7810 C   0  0  0  0  0  0  0  0  0  0  0  0
   62.6860   33.8560   46.7420 C   0  0  0  0  0  0  0  0  0  0  0  0
   63.3590   32.6990   47.1300 C   0  0  0  0  0  0  0  0  0  0  0  0
   62.6390   31.5830   47.5560 C   0  0  0  0  0  0  0  0  0  0  0  0
   61.2390   31.6130   47.6020 C   0  0  0  0  0  0  0  0  0  0  0  0
   60.4200   30.1340   48.0980 Cl  0  0  0  0  0  0  0  0  0  0  0  0
   57.6370   30.8170   45.4510 C   0  0  0  0  0  0  0  0  0  0  0  0
   54.5430   27.1110   46.7420 H   0  0  0  0  0  0  0  0  0  0  0  0
   58.4200   25.7098   46.1761 H   0  0  0  0  0  0  0  0  0  0  0  0
   57.5330   25.7816   44.6123 H   0  0  0  0  0  0  0  0  0  0  0  0
   55.9860   28.1400   44.6320 H   0  0  0  0  0  0  0  0  0  0  0  0
   56.8336   29.5444   42.3774 H   0  0  0  0  0  0  0  0  0  0  0  0
   57.2902   31.9052   41.7263 H   0  0  0  0  0  0  0  0  0  0  0  0
   57.9669   33.5737   43.4498 H   0  0  0  0  0  0  0  0  0  0  0  0
   60.7702   34.8189   46.4697 H   0  0  0  0  0  0  0  0  0  0  0  0
   63.2549   34.7348   46.4043 H   0  0  0  0  0  0  0  0  0  0  0  0
   64.4581   32.6659   47.1003 H   0  0  0  0  0  0  0  0  0  0  0  0
   63.1750   30.6713   47.8585 H   0  0  0  0  0  0  0  0  0  0  0  0
   57.7345   30.5101   46.5028 H   0  0  0  0  0  0  0  0  0  0  0  0
  1  2  1  0
  2  3  2  0
  2  4  1  0
  4  5  1  0
  5  6  2  0
  5  7  1  0
  7  8  1  0
  8  9  2  0
  9 10  1  0
 10 11  2  0
 11 12  1  0
 12 13  1  0
 13 14  1  0
 14 15  2  0
 14 16  1  0
 16 17  2  0
 17 18  1  0
 18 19  2  0
 19 20  1  0
 20 21  2  0
 21 22  1  0
 12 23  2  0
 23  8  1  0
 21 16  1  0
  1 24  1  0
  4 25  1  0
  4 26  1  0
  7 27  1  0
  9 28  1  0
 10 29  1  0
 11 30  1  0
 17 31  1  0
 18 32  1  0
 19 33  1  0
 20 34  1  0
 23 35  1  0
M  CHG  2   1  -1  13  -1
M  END
>  <UniqueID>  (34) 
34

>  <SMILES>  (34) 
[NH-]C(=O)CC(=O)Nc1cccc([N-]C(=O)c2ccccc2Cl)c1

>  <Energy>  (34) 
43.74557850085835

>  <Genealogy>  (34) 
[NH-]C(=O)CC(=O)Nc1cccc([N-]C(=O)c2ccccc2Cl)c1 (protonated)
[NH-]C(=O)CC(=O)Nc1cccc([N-]C(=O)c2ccccc2Cl)c1 (3D coordinates assigned)
[NH-]C(=O)CC(=O)Nc1cccc([N-]C(=O)c2ccccc2Cl)c1 (optimized conformer: 43.74557850085835 kcal/mol)

>  <smiles>  (34) 
NC(=O)CC(=O)Nc1cccc(NC(=O)c2ccccc2Cl)c1

>  <score_type>  (34) 
oracle

>  <origin>  (34) 
adg

>  <m_score__min__energy>  (34) 
-12.51

>  <m_primary>  (34) 
energy

$$$$
34:0
     RDKit          3D

 21 22  0  0  0  0  0  0  0  0999 V2000
   55.1460   29.0200   44.8780 O   0  0  0  0  0  0  0  0  0  0  0  0
   56.3870   29.2180   44.9510 C   0  0  0  0  0  0  0  0  0  0  0  0
   56.8710   30.5140   45.0760 O   0  0  0  0  0  0  0  0  0  0  0  0
   57.3410   28.0680   44.8600 C   0  0  0  0  0  0  0  0  0  0  0  0
   57.4050   27.2880   46.1770 C   0  0  0  0  0  0  0  0  0  0  0  0
   56.8890   25.9280   46.0080 N   0  0  0  0  0  0  0  0  0  0  0  0
   55.5970   25.5180   45.9060 C   0  0  0  0  0  0  0  0  0  0  0  0
   54.6160   26.3020   45.9970 O   0  0  0  0  0  0  0  0  0  0  0  0
   55.4500   24.1830   45.6910 N   0  0  0  0  0  0  0  0  0  0  0  0
   56.7290   23.7610   45.6530 C   0  0  0  0  0  0  0  0  0  0  0  0
   57.2230   22.4830   45.4460 C   0  0  0  0  0  0  0  0  0  0  0  0
   58.5810   22.3230   45.4350 N   0  0  0  0  0  0  0  0  0  0  0  0
   59.4280   23.3860   45.6210 C   0  0  0  0  0  0  0  0  0  0  0  0
   60.6730   23.2030   45.6050 O   0  0  0  0  0  0  0  0  0  0  0  0
   58.9290   24.6430   45.8240 N   0  0  0  0  0  0  0  0  0  0  0  0
   57.5830   24.7960   45.8360 C   0  0  0  0  0  0  0  0  0  0  0  0
   57.0096   27.3909   44.0590 H   0  0  0  0  0  0  0  0  0  0  0  0
   58.3435   28.4665   44.6451 H   0  0  0  0  0  0  0  0  0  0  0  0
   58.4509   27.2365   46.5139 H   0  0  0  0  0  0  0  0  0  0  0  0
   56.7848   27.8077   46.9222 H   0  0  0  0  0  0  0  0  0  0  0  0
   56.5472   21.6281   45.2960 H   0  0  0  0  0  0  0  0  0  0  0  0
  1  2  2  0
  2  3  1  0
  2  4  1  0
  4  5  1  0
  5  6  1  0
  6  7  1  0
  7  8  2  0
  7  9  1  0
  9 10  1  0
 10 11  2  0
 11 12  1  0
 12 13  1  0
 13 14  2  0
 13 15  1  0
 15 16  2  0
 16  6  1  0
 16 10  1  0
  4 17  1  0
  4 18  1  0
  5 19  1  0
  5 20  1  0
 11 21  1  0
M  CHG  3   3  -1   9  -1  12  -1
M  END
>  <UniqueID>  (35) 
35

>  <SMILES>  (35) 
O=C([O-])CCn1c(=O)[n-]c2c[n-]c(=O)nc21

>  <Energy>  (35) 
59.82155120775535

>  <Genealogy>  (35) 
O=C([O-])CCn1c(=O)[n-]c2c[n-]c(=O)nc21 (protonated)
O=C([O-])CCn1c(=O)[n-]c2c[n-]c(=O)nc21 (3D coordinates assigned)
O=C([O-])CCn1c(=O)[n-]c2c[n-]c(=O)nc21 (optimized conformer: 59.82155120775535 kcal/mol)

>  <smiles>  (35) 
O=C(O)CCn1c(=O)[nH]c2c[nH]c(=O)nc21

>  <score_type>  (35) 
oracle

>  <origin>  (35) 
adg

>  <m_score__min__energy>  (35) 
-11.56

>  <m_primary>  (35) 
energy

$$$$
35:0
     RDKit          3D

 45 48  0  0  0  0  0  0  0  0999 V2000
   60.1310   29.0570   44.9470 C   0  0  0  0  0  0  0  0  0  0  0  0
   59.5690   28.8330   46.1440 C   0  0  0  0  0  0  0  0  0  0  0  0
   58.5200   27.9530   46.4630 C   0  0  0  0  0  0  0  0  0  0  0  0
   57.8910   27.0330   45.7070 C   0  0  0  0  0  0  0  0  0  0  0  0
   57.2810   25.7830   46.1970 C   0  0  0  0  0  0  0  0  0  0  0  0
   55.8880   25.6560   46.3180 C   0  0  0  0  0  0  0  0  0  0  0  0
   55.0480   26.7180   46.0070 O   0  0  0  0  0  0  0  0  0  0  0  0
   55.3500   24.4830   46.7420 N   0  0  0  0  0  0  0  0  0  0  0  0
   56.1370   23.4180   47.0380 C   0  0  0  0  0  0  0  0  0  0  0  0
   55.6180   22.3430   47.4330 O   0  0  0  0  0  0  0  0  0  0  0  0
   57.4860   23.5100   46.9050 N   0  0  0  0  0  0  0  0  0  0  0  0
   58.0730   24.6620   46.4850 C   0  0  0  0  0  0  0  0  0  0  0  0
   59.3250   24.7120   46.3680 O   0  0  0  0  0  0  0  0  0  0  0  0
   58.1760   28.1330   47.7560 N   0  0  0  0  0  0  0  0  0  0  0  0
   59.0200   29.0800   48.2020 C   0  0  0  0  0  0  0  0  0  0  0  0
   58.9970   29.5070   49.3870 O   0  0  0  0  0  0  0  0  0  0  0  0
   59.8850   29.5220   47.2670 N   0  0  0  0  0  0  0  0  0  0  0  0
   60.8700   30.5990   47.4390 C   0  0  0  0  0  0  0  0  0  0  0  0
   60.1990   31.9480   47.3690 C   0  0  0  0  0  0  0  0  0  0  0  0
   60.3640   32.8820   48.4030 C   0  0  0  0  0  0  0  0  0  0  0  0
   59.7570   34.1360   48.3220 C   0  0  0  0  0  0  0  0  0  0  0  0
   58.9810   34.4710   47.2100 C   0  0  0  0  0  0  0  0  0  0  0  0
   58.7950   33.5470   46.1660 C   0  0  0  0  0  0  0  0  0  0  0  0
   57.9620   33.8990   44.9900 C   0  0  0  0  0  0  0  0  0  0  0  0
   57.2690   34.9530   45.0080 O   0  0  0  0  0  0  0  0  0  0  0  0
   57.9490   33.0340   43.8390 N   0  0  0  0  0  0  0  0  0  0  0  0
   57.3780   31.8690   43.7380 C   0  0  0  0  0  0  0  0  0  0  0  0
   57.1570   31.2890   42.5250 N   0  0  0  0  0  0  0  0  0  0  0  0
   56.5630   30.0720   42.4260 C   0  0  0  0  0  0  0  0  0  0  0  0
   56.1690   29.3970   43.5800 C   0  0  0  0  0  0  0  0  0  0  0  0
   56.3990   30.0010   44.8150 C   0  0  0  0  0  0  0  0  0  0  0  0
   56.9950   31.2200   44.8690 N   0  0  0  0  0  0  0  0  0  0  0  0
   59.4120   32.2850   46.2560 C   0  0  0  0  0  0  0  0  0  0  0  0
   60.9519   29.7830   44.8520 H   0  0  0  0  0  0  0  0  0  0  0  0
   59.7710   28.5147   44.0602 H   0  0  0  0  0  0  0  0  0  0  0  0
   57.8264   27.2318   44.6270 H   0  0  0  0  0  0  0  0  0  0  0  0
   61.3589   30.4888   48.4182 H   0  0  0  0  0  0  0  0  0  0  0  0
   61.6146   30.5309   46.6322 H   0  0  0  0  0  0  0  0  0  0  0  0
   60.9744   32.6247   49.2812 H   0  0  0  0  0  0  0  0  0  0  0  0
   59.8901   34.8631   49.1366 H   0  0  0  0  0  0  0  0  0  0  0  0
   58.5121   35.4643   47.1503 H   0  0  0  0  0  0  0  0  0  0  0  0
   56.3932   29.6200   41.4376 H   0  0  0  0  0  0  0  0  0  0  0  0
   55.6874   28.4100   43.5176 H   0  0  0  0  0  0  0  0  0  0  0  0
   56.0987   29.4919   45.7427 H   0  0  0  0  0  0  0  0  0  0  0  0
   59.2761   31.5543   45.4450 H   0  0  0  0  0  0  0  0  0  0  0  0
  1  2  2  0
  2  3  1  0
  3  4  2  3
  4  5  1  0
  5  6  2  0
  6  7  1  0
  6  8  1  0
  8  9  1  0
  9 10  2  0
  9 11  1  0
 11 12  1  0
 12 13  2  0
  3 14  1  0
 14 15  1  0
 15 16  2  0
 15 17  1  0
 17 18  1  0
 18 19  1  0
 19 20  2  0
 20 21  1  0
 21 22  2  0
 22 23  1  0
 23 24  1  0
 24 25  2  0
 24 26  1  0
 26 27  2  3
 27 28  1  0
 28 29  2  0
 29 30  1  0
 30 31  2  0
 31 32  1  0
 23 33  2  0
 17  2  1  0
 33 19  1  0
 12  5  1  0
 32 27  1  0
  1 34  1  0
  1 35  1  0
  4 36  1  0
 18 37  1  0
 18 38  1  0
 20 39  1  0
 21 40  1  0
 22 41  1  0
 29 42  1  0
 30 43  1  0
 31 44  1  0
 33 45  1  0
M  CHG  5   7  -1   8  -1  11  -1  14  -1  32  -1
M  END
>  <UniqueID>  (36) 
36

>  <SMILES>  (36) 
C=c1c(=Cc2c([O-])[n-]c(=O)[n-]c2=O)[n-]c(=O)n1Cc1cccc(C(=O)N=c2nccc[n-]2)c1

>  <Energy>  (36) 
101.56798087205266

>  <Genealogy>  (36) 
C=c1c(=Cc2c([O-])[n-]c(=O)[n-]c2=O)[n-]c(=O)n1Cc1cccc(C(=O)N=c2nccc[n-]2)c1 (protonated)
C=c1c(=Cc2c([O-])[n-]c(=O)[n-]c2=O)[n-]c(=O)n1Cc1cccc(C(=O)N=c2nccc[n-]2)c1 (3D coordinates assigned)
C=c1c(=Cc2c([O-])[n-]c(=O)[n-]c2=O)[n-]c(=O)n1Cc1cccc(C(=O)N=c2nccc[n-]2)c1 (optimized conformer: 101.56798087205266 kcal/mol)

>  <smiles>  (36) 
C=c1c(=Cc2c(O)[nH]c(=O)[nH]c2=O)[nH]c(=O)n1Cc1cccc(C(=O)N=c2nccc[nH]2)c1

>  <score_type>  (36) 
oracle

>  <origin>  (36) 
adg

>  <m_score__min__energy>  (36) 
-19.300000000000001

>  <m_primary>  (36) 
energy

$$$$
36:0
     RDKit          3D

 51 54  0  0  0  0  0  0  0  0999 V2000
   55.5850   30.5580   44.4900 O   0  0  0  0  0  0  0  0  0  0  0  0
   56.3760   29.5860   44.6250 C   0  0  0  0  0  0  0  0  0  0  0  0
   57.8010   29.7260   44.1640 C   0  0  0  0  0  0  0  0  0  0  0  0
   58.5550   30.5590   45.0950 N   0  0  0  0  0  0  0  0  0  0  0  0
   58.1350   31.6990   45.6760 C   0  0  0  0  0  0  0  0  0  0  0  0
   59.1480   32.0930   46.5240 C   0  0  0  0  0  0  0  0  0  0  0  0
   59.1260   33.2470   47.4740 C   0  0  0  0  0  0  0  0  0  0  0  0
   58.7660   34.5320   46.7190 C   0  0  0  0  0  0  0  0  0  0  0  0
   59.9510   35.3920   46.3080 C   0  0  0  0  0  0  0  0  0  0  0  0
   59.2000   34.5800   45.2620 C   0  0  0  0  0  0  0  0  0  0  0  0
   60.1280   31.1730   46.4460 N   0  0  0  0  0  0  0  0  0  0  0  0
   59.7500   30.2500   45.5760 N   0  0  0  0  0  0  0  0  0  0  0  0
   55.8940   28.3880   45.2480 N   0  0  0  0  0  0  0  0  0  0  0  0
   56.6900   27.3910   45.9030 C   0  0  0  0  0  0  0  0  0  0  0  0
   57.9830   27.6730   46.3760 C   0  0  0  0  0  0  0  0  0  0  0  0
   58.7450   26.6690   46.9810 C   0  0  0  0  0  0  0  0  0  0  0  0
   58.2310   25.3770   47.1050 C   0  0  0  0  0  0  0  0  0  0  0  0
   56.9550   25.0760   46.6100 C   0  0  0  0  0  0  0  0  0  0  0  0
   56.3110   23.4370   46.7430 S   0  0  0  0  0  0  0  0  0  0  0  0
   57.2050   22.6280   47.6420 O   0  0  0  0  0  0  0  0  0  0  0  0
   54.9480   23.4940   47.3720 O   0  0  0  0  0  0  0  0  0  0  0  0
   56.1950   22.6530   45.1860 N   0  0  0  0  0  0  0  0  0  0  0  0
   56.2430   23.6460   44.1040 C   0  0  0  0  0  0  0  0  0  0  0  0
   56.1100   22.9390   42.7390 C   0  0  0  0  0  0  0  0  0  0  0  0
   56.1640   21.5270   42.8560 O   0  0  0  0  0  0  0  0  0  0  0  0
   57.3260   21.1490   43.5700 C   0  0  0  0  0  0  0  0  0  0  0  0
   57.2780   21.6690   45.0220 C   0  0  0  0  0  0  0  0  0  0  0  0
   56.1910   26.0850   46.0040 C   0  0  0  0  0  0  0  0  0  0  0  0
   58.2647   28.7299   44.1109 H   0  0  0  0  0  0  0  0  0  0  0  0
   57.8110   30.1997   43.1713 H   0  0  0  0  0  0  0  0  0  0  0  0
   57.1768   32.2123   45.5078 H   0  0  0  0  0  0  0  0  0  0  0  0
   58.3766   33.0612   48.2575 H   0  0  0  0  0  0  0  0  0  0  0  0
   60.1196   33.3603   47.9322 H   0  0  0  0  0  0  0  0  0  0  0  0
   57.8210   34.7073   47.2541 H   0  0  0  0  0  0  0  0  0  0  0  0
   59.8649   36.4886   46.3191 H   0  0  0  0  0  0  0  0  0  0  0  0
   61.0015   35.4713   46.6244 H   0  0  0  0  0  0  0  0  0  0  0  0
   58.5712   35.0897   44.5172 H   0  0  0  0  0  0  0  0  0  0  0  0
   59.4828   33.8294   44.5093 H   0  0  0  0  0  0  0  0  0  0  0  0
   61.0230   31.1550   46.9840 H   0  0  0  0  0  0  0  0  0  0  0  0
   58.3968   28.6867   46.2699 H   0  0  0  0  0  0  0  0  0  0  0  0
   59.7519   26.8977   47.3602 H   0  0  0  0  0  0  0  0  0  0  0  0
   58.8292   24.5931   47.5926 H   0  0  0  0  0  0  0  0  0  0  0  0
   55.4158   24.3605   44.2272 H   0  0  0  0  0  0  0  0  0  0  0  0
   57.2036   24.1804   44.1440 H   0  0  0  0  0  0  0  0  0  0  0  0
   55.1470   23.2198   42.2877 H   0  0  0  0  0  0  0  0  0  0  0  0
   56.9559   23.2570   42.1119 H   0  0  0  0  0  0  0  0  0  0  0  0
   57.3986   20.0515   43.5834 H   0  0  0  0  0  0  0  0  0  0  0  0
   58.2021   21.5877   43.0700 H   0  0  0  0  0  0  0  0  0  0  0  0
   57.1036   20.8230   45.7031 H   0  0  0  0  0  0  0  0  0  0  0  0
   58.2366   22.1553   45.2557 H   0  0  0  0  0  0  0  0  0  0  0  0
   55.1932   25.8494   45.6053 H   0  0  0  0  0  0  0  0  0  0  0  0
  1  2  2  0
  2  3  1  0
  3  4  1  0
  4  5  1  0
  5  6  2  0
  6  7  1  0
  7  8  1  0
  8  9  1  0
  9 10  1  0
  6 11  1  0
 11 12  2  0
  2 13  1  0
 13 14  1  0
 14 15  2  0
 15 16  1  0
 16 17  2  0
 17 18  1  0
 18 19  1  0
 19 20  2  0
 19 21  2  0
 19 22  1  0
 22 23  1  0
 23 24  1  0
 24 25  1  0
 25 26  1  0
 26 27  1  0
 18 28  2  0
 12  4  1  0
 28 14  1  0
 10  8  1  0
 27 22  1  0
  3 29  1  0
  3 30  1  0
  5 31  1  0
  7 32  1  0
  7 33  1  0
  8 34  1  0
  9 35  1  0
  9 36  1  0
 10 37  1  0
 10 38  1  0
 11 39  1  0
 15 40  1  0
 16 41  1  0
 17 42  1  0
 23 43  1  0
 23 44  1  0
 24 45  1  0
 24 46  1  0
 26 47  1  0
 26 48  1  0
 27 49  1  0
 27 50  1  0
 28 51  1  0
M  CHG  2  11   1  13  -1
M  END
>  <UniqueID>  (37) 
37

>  <SMILES>  (37) 
O=C(Cn1cc(CC2CC2)[nH+]n1)[N-]c1cccc(S(=O)(=O)N2CCOCC2)c1

>  <Energy>  (37) 
359.7496448968173

>  <Genealogy>  (37) 
O=C(Cn1cc(CC2CC2)[nH+]n1)[N-]c1cccc(S(=O)(=O)N2CCOCC2)c1 (protonated)
O=C(Cn1cc(CC2CC2)[nH+]n1)[N-]c1cccc(S(=O)(=O)N2CCOCC2)c1 (3D coordinates assigned)
O=C(Cn1cc(CC2CC2)[nH+]n1)[N-]c1cccc(S(=O)(=O)N2CCOCC2)c1 (nonaromatic ring conformer: 359.7496448968173 kcal/mol)

>  <smiles>  (37) 
O=C(Cn1cc(CC2CC2)nn1)Nc1cccc(S(=O)(=O)N2CCOCC2)c1

>  <score_type>  (37) 
oracle

>  <origin>  (37) 
adg

>  <m_score__min__energy>  (37) 
-10.76

>  <m_primary>  (37) 
energy

$$$$
37:0
     RDKit          3D

 59 62  0  0  0  0  0  0  0  0999 V2000
   57.6560   24.9990   44.6080 C   0  0  0  0  0  0  0  0  0  0  0  0
   58.1930   26.2480   45.2420 C   0  0  0  0  0  0  0  0  0  0  0  0
   58.8050   27.2380   44.4570 C   0  0  0  0  0  0  0  0  0  0  0  0
   59.3390   28.3820   45.0570 C   0  0  0  0  0  0  0  0  0  0  0  0
   59.2820   28.5410   46.4490 C   0  0  0  0  0  0  0  0  0  0  0  0
   59.9590   29.9780   47.2080 S   0  0  0  0  0  0  0  0  0  0  0  0
   61.2480   30.3260   46.5230 O   0  0  0  0  0  0  0  0  0  0  0  0
   60.1900   29.6870   48.6630 O   0  0  0  0  0  0  0  0  0  0  0  0
   58.8150   31.2710   47.0380 N   0  0  0  0  0  0  0  0  0  0  0  0
   58.9620   32.4350   46.4710 C   0  0  0  0  0  0  0  0  0  0  0  0
   59.5880   33.5800   46.9630 C   0  0  0  0  0  0  0  0  0  0  0  0
   60.5010   33.7820   48.0960 C   0  0  0  0  0  0  0  0  0  0  0  0
   60.7630   34.9580   48.4670 O   0  0  0  0  0  0  0  0  0  0  0  0
   61.2070   32.6710   48.6620 N   0  0  0  0  0  0  0  0  0  0  0  0
   62.4530   32.8580   49.3530 C   0  0  0  0  0  0  0  0  0  0  0  0
   63.6730   32.9160   48.6420 C   0  0  0  0  0  0  0  0  0  0  0  0
   63.7070   32.8030   47.1420 C   0  0  0  0  0  0  0  0  0  0  0  0
   64.8750   33.0940   49.3450 C   0  0  0  0  0  0  0  0  0  0  0  0
   64.8760   33.2470   50.7350 C   0  0  0  0  0  0  0  0  0  0  0  0
   66.1720   33.4100   51.4740 C   0  0  0  0  0  0  0  0  0  0  0  0
   63.6660   33.1860   51.4380 C   0  0  0  0  0  0  0  0  0  0  0  0
   62.4540   32.9940   50.7590 C   0  0  0  0  0  0  0  0  0  0  0  0
   61.1660   32.9390   51.5360 C   0  0  0  0  0  0  0  0  0  0  0  0
   59.3970   34.5230   45.9690 C   0  0  0  0  0  0  0  0  0  0  0  0
   58.7130   33.9790   44.9450 N   0  0  0  0  0  0  0  0  0  0  0  0
   58.4440   32.7190   45.2530 N   0  0  0  0  0  0  0  0  0  0  0  0
   57.7160   31.8390   44.3770 C   0  0  0  0  0  0  0  0  0  0  0  0
   56.9650   30.7610   44.8830 C   0  0  0  0  0  0  0  0  0  0  0  0
   56.2590   29.9220   44.0150 C   0  0  0  0  0  0  0  0  0  0  0  0
   56.2860   30.1540   42.6390 C   0  0  0  0  0  0  0  0  0  0  0  0
   57.0150   31.2320   42.1270 C   0  0  0  0  0  0  0  0  0  0  0  0
   57.7210   32.0740   42.9910 C   0  0  0  0  0  0  0  0  0  0  0  0
   58.6780   27.5510   47.2350 C   0  0  0  0  0  0  0  0  0  0  0  0
   58.1430   26.4060   46.6370 C   0  0  0  0  0  0  0  0  0  0  0  0
   57.3516   24.2910   45.3930 H   0  0  0  0  0  0  0  0  0  0  0  0
   56.7862   25.2498   43.9831 H   0  0  0  0  0  0  0  0  0  0  0  0
   58.4364   24.5403   43.9831 H   0  0  0  0  0  0  0  0  0  0  0  0
   58.8645   27.1130   43.3657 H   0  0  0  0  0  0  0  0  0  0  0  0
   59.8055   29.1602   44.4351 H   0  0  0  0  0  0  0  0  0  0  0  0
   61.0220   31.7250   48.2600 H   0  0  0  0  0  0  0  0  0  0  0  0
   64.0132   31.7854   46.8578 H   0  0  0  0  0  0  0  0  0  0  0  0
   62.7063   33.0117   46.7358 H   0  0  0  0  0  0  0  0  0  0  0  0
   64.4264   33.5293   46.7358 H   0  0  0  0  0  0  0  0  0  0  0  0
   65.8278   33.1134   48.7957 H   0  0  0  0  0  0  0  0  0  0  0  0
   65.9819   33.3861   52.5572 H   0  0  0  0  0  0  0  0  0  0  0  0
   66.8541   32.5906   51.2032 H   0  0  0  0  0  0  0  0  0  0  0  0
   66.6299   34.3728   51.2032 H   0  0  0  0  0  0  0  0  0  0  0  0
   63.6664   33.2897   52.5331 H   0  0  0  0  0  0  0  0  0  0  0  0
   61.3871   32.9484   52.6135 H   0  0  0  0  0  0  0  0  0  0  0  0
   60.5465   33.8115   51.2812 H   0  0  0  0  0  0  0  0  0  0  0  0
   60.6231   32.0169   51.2812 H   0  0  0  0  0  0  0  0  0  0  0  0
   59.7516   35.5635   46.0094 H   0  0  0  0  0  0  0  0  0  0  0  0
   56.9334   30.5776   45.9671 H   0  0  0  0  0  0  0  0  0  0  0  0
   55.6810   29.0772   44.4177 H   0  0  0  0  0  0  0  0  0  0  0  0
   55.7343   29.4895   41.9578 H   0  0  0  0  0  0  0  0  0  0  0  0
   57.0329   31.4176   41.0429 H   0  0  0  0  0  0  0  0  0  0  0  0
   58.2844   32.9264   42.5836 H   0  0  0  0  0  0  0  0  0  0  0  0
   58.6245   27.6750   48.3267 H   0  0  0  0  0  0  0  0  0  0  0  0
   57.6815   25.6264   47.2608 H   0  0  0  0  0  0  0  0  0  0  0  0
  1  2  1  0
  2  3  2  0
  3  4  1  0
  4  5  2  0
  5  6  1  0
  6  7  2  0
  6  8  2  0
  6  9  1  0
  9 10  2  3
 10 11  1  0
 11 12  1  0
 12 13  2  0
 12 14  1  0
 14 15  1  0
 15 16  2  0
 16 17  1  0
 16 18  1  0
 18 19  2  0
 19 20  1  0
 19 21  1  0
 21 22  2  0
 22 23  1  0
 11 24  2  0
 24 25  1  0
 25 26  1  0
 26 27  1  0
 27 28  2  0
 28 29  1  0
 29 30  2  0
 30 31  1  0
 31 32  2  0
  5 33  1  0
 33 34  2  0
 34  2  1  0
 26 10  1  0
 32 27  1  0
 22 15  1  0
  1 35  1  0
  1 36  1  0
  1 37  1  0
  3 38  1  0
  4 39  1  0
 14 40  1  0
 17 41  1  0
 17 42  1  0
 17 43  1  0
 18 44  1  0
 20 45  1  0
 20 46  1  0
 20 47  1  0
 21 48  1  0
 23 49  1  0
 23 50  1  0
 23 51  1  0
 24 52  1  0
 28 53  1  0
 29 54  1  0
 30 55  1  0
 31 56  1  0
 32 57  1  0
 33 58  1  0
 34 59  1  0
M  CHG  1  25  -1
M  END
>  <UniqueID>  (38) 
38

>  <SMILES>  (38) 
Cc1ccc(S(=O)(=O)N=c2c(C(=O)Nc3c(C)cc(C)cc3C)c[n-]n2-c2ccccc2)cc1

>  <Energy>  (38) 
119.28443841914326

>  <Genealogy>  (38) 
Cc1ccc(S(=O)(=O)N=c2c(C(=O)Nc3c(C)cc(C)cc3C)c[n-]n2-c2ccccc2)cc1 (protonated)
Cc1ccc(S(=O)(=O)N=c2c(C(=O)Nc3c(C)cc(C)cc3C)c[n-]n2-c2ccccc2)cc1 (3D coordinates assigned)
Cc1ccc(S(=O)(=O)N=c2c(C(=O)Nc3c(C)cc(C)cc3C)c[n-]n2-c2ccccc2)cc1 (optimized conformer: 119.28443841914326 kcal/mol)

>  <smiles>  (38) 
Cc1ccc(S(=O)(=O)N=c2c(C(=O)Nc3c(C)cc(C)cc3C)c[nH]n2-c2ccccc2)cc1

>  <score_type>  (38) 
oracle

>  <origin>  (38) 
adg

>  <m_score__min__energy>  (38) 
-9.8800000000000008

>  <m_primary>  (38) 
energy

$$$$
38:0
     RDKit          3D

 52 55  0  0  0  0  0  0  0  0999 V2000
   57.2489   30.2758   45.3106 H   0  0  0  0  0  0  0  0  0  0  0  0
   57.4070   29.2960   45.7850 C   0  0  0  0  0  0  0  0  0  0  0  0
   56.5030   28.3020   45.5940 N   0  0  0  0  0  0  0  0  0  0  0  0
   56.6520   27.0710   46.1530 C   0  0  0  0  0  0  0  0  0  0  0  0
   55.7630   26.1370   45.9740 N   0  0  0  0  0  0  0  0  0  0  0  0
   55.9760   24.8420   45.3850 C   0  0  0  0  0  0  0  0  0  0  0  0
   56.9110   24.7200   44.3480 C   0  0  0  0  0  0  0  0  0  0  0  0
   57.4816   25.6015   44.0202 H   0  0  0  0  0  0  0  0  0  0  0  0
   57.1230   23.4860   43.7280 C   0  0  0  0  0  0  0  0  0  0  0  0
   57.8710   23.3956   42.9265 H   0  0  0  0  0  0  0  0  0  0  0  0
   56.3870   22.3670   44.1240 C   0  0  0  0  0  0  0  0  0  0  0  0
   56.5603   21.3946   43.6399 H   0  0  0  0  0  0  0  0  0  0  0  0
   55.4300   22.4840   45.1360 C   0  0  0  0  0  0  0  0  0  0  0  0
   54.6980   21.4030   45.5020 F   0  0  0  0  0  0  0  0  0  0  0  0
   55.2150   23.7170   45.7590 C   0  0  0  0  0  0  0  0  0  0  0  0
   54.4494   23.8090   46.5435 H   0  0  0  0  0  0  0  0  0  0  0  0
   57.7570   26.8160   46.9690 C   0  0  0  0  0  0  0  0  0  0  0  0
   57.8709   25.8319   47.4470 H   0  0  0  0  0  0  0  0  0  0  0  0
   58.7220   27.8130   47.1800 C   0  0  0  0  0  0  0  0  0  0  0  0
   59.9210   27.5010   48.0360 C   0  0  0  0  0  0  0  0  0  0  0  0
   59.6424   27.5735   49.0977 H   0  0  0  0  0  0  0  0  0  0  0  0
   60.2720   26.4816   47.8178 H   0  0  0  0  0  0  0  0  0  0  0  0
   60.7244   28.2200   47.8178 H   0  0  0  0  0  0  0  0  0  0  0  0
   58.5420   29.0840   46.5830 C   0  0  0  0  0  0  0  0  0  0  0  0
   59.5020   30.1970   46.7800 C   0  0  0  0  0  0  0  0  0  0  0  0
   60.7300   30.0070   46.5740 O   0  0  0  0  0  0  0  0  0  0  0  0
   59.0790   31.4700   47.2860 N   0  0  0  0  0  0  0  0  0  0  0  0
   58.8640   32.6560   46.5050 C   0  0  0  0  0  0  0  0  0  0  0  0
   57.6970   32.8100   45.7350 C   0  0  0  0  0  0  0  0  0  0  0  0
   56.9185   32.0333   45.7617 H   0  0  0  0  0  0  0  0  0  0  0  0
   57.5200   33.9420   44.9370 C   0  0  0  0  0  0  0  0  0  0  0  0
   56.5985   34.0609   44.3482 H   0  0  0  0  0  0  0  0  0  0  0  0
   58.5110   34.9220   44.8860 C   0  0  0  0  0  0  0  0  0  0  0  0
   58.3691   35.8144   44.2587 H   0  0  0  0  0  0  0  0  0  0  0  0
   59.6830   34.7720   45.6300 C   0  0  0  0  0  0  0  0  0  0  0  0
   60.4646   35.5445   45.5805 H   0  0  0  0  0  0  0  0  0  0  0  0
   59.8700   33.6410   46.4410 C   0  0  0  0  0  0  0  0  0  0  0  0
   61.0690   33.5250   47.2260 N   0  0  0  0  0  0  0  0  0  0  0  0
   62.3780   33.4720   46.5640 C   0  0  0  0  0  0  0  0  0  0  0  0
   62.2941   32.8763   45.6431 H   0  0  0  0  0  0  0  0  0  0  0  0
   62.6975   34.4970   46.3248 H   0  0  0  0  0  0  0  0  0  0  0  0
   63.4210   32.8300   47.4870 C   0  0  0  0  0  0  0  0  0  0  0  0
   64.2803   32.4967   46.8866 H   0  0  0  0  0  0  0  0  0  0  0  0
   63.7453   33.5729   48.2306 H   0  0  0  0  0  0  0  0  0  0  0  0
   62.8430   31.6760   48.1870 N   0  0  0  0  0  0  0  0  0  0  0  0
   62.4720   31.0060   47.4730 H   0  0  0  0  0  0  0  0  0  0  0  0
   61.7460   32.0550   49.1010 C   0  0  0  0  0  0  0  0  0  0  0  0
   61.0269   31.2236   49.1419 H   0  0  0  0  0  0  0  0  0  0  0  0
   62.2045   32.2666   50.0782 H   0  0  0  0  0  0  0  0  0  0  0  0
   60.9890   33.3310   48.6770 C   0  0  0  0  0  0  0  0  0  0  0  0
   59.9330   33.2385   48.9709 H   0  0  0  0  0  0  0  0  0  0  0  0
   61.4502   34.1968   49.1748 H   0  0  0  0  0  0  0  0  0  0  0  0
  1  2  1  0
  2  3  1  0
  3  4  1  0
  4  5  2  0
  5  6  1  0
  6  7  2  0
  7  8  1  0
  7  9  1  0
  9 10  1  0
  9 11  2  0
 11 12  1  0
 11 13  1  0
 13 14  1  0
 13 15  2  0
 15 16  1  0
  4 17  1  0
 17 18  1  0
 17 19  2  0
 19 20  1  0
 20 21  1  0
 20 22  1  0
 20 23  1  0
 19 24  1  0
 24 25  1  0
 25 26  2  0
 25 27  1  0
 27 28  1  0
 28 29  2  0
 29 30  1  0
 29 31  1  0
 31 32  1  0
 31 33  2  0
 33 34  1  0
 33 35  1  0
 35 36  1  0
 35 37  2  0
 37 38  1  0
 38 39  1  0
 39 40  1  0
 39 41  1  0
 39 42  1  0
 42 43  1  0
 42 44  1  0
 42 45  1  0
 45 46  1  0
 45 47  1  0
 47 48  1  0
 47 49  1  0
 47 50  1  0
 50 51  1  0
 50 52  1  0
 24  2  2  0
 37 28  1  0
 50 38  1  0
 15  6  1  0
M  CHG  2   3  -1  27  -1
M  END
>  <UniqueID>  (39) 
39

>  <SMILES>  (39) 
Cc1c/c(=N/c2cccc(F)c2)[n-]cc1C(=O)[N-]c1ccccc1N1CCNCC1

>  <Energy>  (39) 
80.43036953479145

>  <Genealogy>  (39) 
Cc1cc(=Nc2cccc(F)c2)[n-]cc1C(=O)[N-]c1ccccc1N1CCNCC1 (protonated)
Cc1c/c(=N/c2cccc(F)c2)[n-]cc1C(=O)[N-]c1ccccc1N1CCNCC1 (cis-trans isomerization)
Cc1c/c(=N/c2cccc(F)c2)[n-]cc1C(=O)[N-]c1ccccc1N1CCNCC1 (3D coordinates assigned)
Cc1c/c(=N/c2cccc(F)c2)[n-]cc1C(=O)[N-]c1ccccc1N1CCNCC1 (nonaromatic ring conformer: 80.43036953479145 kcal/mol)

>  <smiles>  (39) 
Cc1cc(=Nc2cccc(F)c2)[nH]cc1C(=O)Nc1ccccc1N1CCNCC1

>  <score_type>  (39) 
oracle

>  <origin>  (39) 
adg

>  <m_score__min__energy>  (39) 
-11.17

>  <m_primary>  (39) 
energy

$$$$
39:0
     RDKit          3D

 56 59  0  0  0  0  0  0  0  0999 V2000
   65.0700   31.5610   50.5550 C   0  0  0  0  0  0  0  0  0  0  0  0
   63.9760   32.5410   50.1170 C   0  0  0  0  0  0  0  0  0  0  0  0
   64.1880   33.0120   48.6560 C   0  0  0  0  0  0  0  0  0  0  0  0
   63.3250   32.2090   47.6680 C   0  0  0  0  0  0  0  0  0  0  0  0
   61.8740   32.2820   47.9770 N   0  0  0  0  0  0  0  0  0  0  0  0
   61.0440   33.4000   46.9180 S   0  0  0  0  0  0  0  0  0  0  0  0
   61.9680   33.8450   45.8180 O   0  0  0  0  0  0  0  0  0  0  0  0
   60.6450   34.6150   47.7090 O   0  0  0  0  0  0  0  0  0  0  0  0
   59.6030   32.6720   46.2050 C   0  0  0  0  0  0  0  0  0  0  0  0
   58.7100   33.4620   45.4400 C   0  0  0  0  0  0  0  0  0  0  0  0
   57.5430   32.8990   44.8950 C   0  0  0  0  0  0  0  0  0  0  0  0
   57.2930   31.5500   45.1320 C   0  0  0  0  0  0  0  0  0  0  0  0
   56.2170   30.8500   44.7230 N   0  0  0  0  0  0  0  0  0  0  0  0
   56.4220   29.6100   45.2260 C   0  0  0  0  0  0  0  0  0  0  0  0
   55.5220   28.5660   45.0550 O   0  0  0  0  0  0  0  0  0  0  0  0
   57.6130   29.5180   45.9340 C   0  0  0  0  0  0  0  0  0  0  0  0
   58.1130   28.3380   46.7130 C   0  0  0  0  0  0  0  0  0  0  0  0
   58.4080   27.1890   45.7950 C   0  0  0  0  0  0  0  0  0  0  0  0
   59.4180   26.4660   46.0130 O   0  0  0  0  0  0  0  0  0  0  0  0
   57.5460   26.9100   44.6820 N   0  0  0  0  0  0  0  0  0  0  0  0
   57.7330   25.7470   43.8190 C   0  0  0  0  0  0  0  0  0  0  0  0
   56.9000   24.6000   44.3200 C   0  0  0  0  0  0  0  0  0  0  0  0
   57.0240   23.3340   43.7250 C   0  0  0  0  0  0  0  0  0  0  0  0
   56.2330   22.2680   44.1650 C   0  0  0  0  0  0  0  0  0  0  0  0
   55.3090   22.4610   45.1950 C   0  0  0  0  0  0  0  0  0  0  0  0
   55.1720   23.7220   45.7840 C   0  0  0  0  0  0  0  0  0  0  0  0
   55.9620   24.7900   45.3470 C   0  0  0  0  0  0  0  0  0  0  0  0
   58.1590   30.7800   45.8680 C   0  0  0  0  0  0  0  0  0  0  0  0
   59.3280   31.3070   46.4150 C   0  0  0  0  0  0  0  0  0  0  0  0
   61.5550   32.5680   49.3930 C   0  0  0  0  0  0  0  0  0  0  0  0
   62.5760   31.9200   50.3320 C   0  0  0  0  0  0  0  0  0  0  0  0
   65.1110   31.5243   51.6536 H   0  0  0  0  0  0  0  0  0  0  0  0
   64.8428   30.5587   50.1629 H   0  0  0  0  0  0  0  0  0  0  0  0
   66.0414   31.8967   50.1629 H   0  0  0  0  0  0  0  0  0  0  0  0
   64.0426   33.4393   50.7484 H   0  0  0  0  0  0  0  0  0  0  0  0
   63.9183   34.0758   48.5818 H   0  0  0  0  0  0  0  0  0  0  0  0
   65.2448   32.8539   48.3949 H   0  0  0  0  0  0  0  0  0  0  0  0
   63.4887   32.6064   46.6554 H   0  0  0  0  0  0  0  0  0  0  0  0
   63.6269   31.1542   47.7473 H   0  0  0  0  0  0  0  0  0  0  0  0
   58.9319   34.5260   45.2709 H   0  0  0  0  0  0  0  0  0  0  0  0
   56.8471   33.5069   44.2982 H   0  0  0  0  0  0  0  0  0  0  0  0
   59.0325   28.6200   47.2469 H   0  0  0  0  0  0  0  0  0  0  0  0
   57.3373   28.0305   47.4298 H   0  0  0  0  0  0  0  0  0  0  0  0
   56.7200   27.5250   44.5050 H   0  0  0  0  0  0  0  0  0  0  0  0
   57.4260   26.0004   42.7936 H   0  0  0  0  0  0  0  0  0  0  0  0
   58.7937   25.4558   43.8278 H   0  0  0  0  0  0  0  0  0  0  0  0
   57.7462   23.1803   42.9096 H   0  0  0  0  0  0  0  0  0  0  0  0
   56.3384   21.2768   43.6998 H   0  0  0  0  0  0  0  0  0  0  0  0
   54.6893   21.6212   45.5426 H   0  0  0  0  0  0  0  0  0  0  0  0
   54.4416   23.8740   46.5924 H   0  0  0  0  0  0  0  0  0  0  0  0
   55.8481   25.7816   45.8093 H   0  0  0  0  0  0  0  0  0  0  0  0
   60.0163   30.6742   46.9945 H   0  0  0  0  0  0  0  0  0  0  0  0
   61.5635   33.6567   49.5500 H   0  0  0  0  0  0  0  0  0  0  0  0
   60.5619   32.1517   49.6174 H   0  0  0  0  0  0  0  0  0  0  0  0
   62.2638   32.0819   51.3743 H   0  0  0  0  0  0  0  0  0  0  0  0
   62.6264   30.8427   50.1157 H   0  0  0  0  0  0  0  0  0  0  0  0
  1  2  1  0
  2  3  1  0
  3  4  1  0
  4  5  1  0
  5  6  1  0
  6  7  2  0
  6  8  2  0
  6  9  1  0
  9 10  2  0
 10 11  1  0
 11 12  2  0
 12 13  1  0
 13 14  1  0
 14 15  1  0
 14 16  2  0
 16 17  1  0
 17 18  1  0
 18 19  2  0
 18 20  1  0
 20 21  1  0
 21 22  1  0
 22 23  2  0
 23 24  1  0
 24 25  2  0
 25 26  1  0
 26 27  2  0
 16 28  1  0
 28 29  2  0
  5 30  1  0
 30 31  1  0
 31  2  1  0
 29  9  1  0
 28 12  1  0
 27 22  1  0
  1 32  1  0
  1 33  1  0
  1 34  1  0
  2 35  1  0
  3 36  1  0
  3 37  1  0
  4 38  1  0
  4 39  1  0
 10 40  1  0
 11 41  1  0
 17 42  1  0
 17 43  1  0
 20 44  1  0
 21 45  1  0
 21 46  1  0
 23 47  1  0
 24 48  1  0
 25 49  1  0
 26 50  1  0
 27 51  1  0
 29 52  1  0
 30 53  1  0
 30 54  1  0
 31 55  1  0
 31 56  1  0
M  CHG  2  13  -1  15  -1
M  END
>  <UniqueID>  (40) 
40

>  <SMILES>  (40) 
CC1CCN(S(=O)(=O)c2ccc3[n-]c([O-])c(CC(=O)NCc4ccccc4)c3c2)CC1

>  <Energy>  (40) 
87.40893081766924

>  <Genealogy>  (40) 
CC1CCN(S(=O)(=O)c2ccc3[n-]c([O-])c(CC(=O)NCc4ccccc4)c3c2)CC1 (protonated)
CC1CCN(S(=O)(=O)c2ccc3[n-]c([O-])c(CC(=O)NCc4ccccc4)c3c2)CC1 (3D coordinates assigned)
CC1CCN(S(=O)(=O)c2ccc3[n-]c([O-])c(CC(=O)NCc4ccccc4)c3c2)CC1 (nonaromatic ring conformer: 87.40893081766924 kcal/mol)

>  <smiles>  (40) 
CC1CCN(S(=O)(=O)c2ccc3[nH]c(O)c(CC(=O)NCc4ccccc4)c3c2)CC1

>  <score_type>  (40) 
oracle

>  <origin>  (40) 
adg

>  <m_score__min__energy>  (40) 
-13.83

>  <m_primary>  (40) 
energy

$$$$
40:0
     RDKit          3D

 45 47  0  0  0  0  0  0  0  0999 V2000
   59.4170   29.8470   45.6620 C   0  0  0  0  0  0  0  0  0  0  0  0
   60.8250   30.3060   46.7180 S   0  0  0  0  0  0  0  0  0  0  0  0
   59.7920   30.7560   48.1130 C   0  0  0  0  0  0  0  0  0  0  0  0
   59.3300   32.0690   48.2500 C   0  0  0  0  0  0  0  0  0  0  0  0
   58.5370   32.4260   49.3430 C   0  0  0  0  0  0  0  0  0  0  0  0
   58.1980   31.4700   50.3210 C   0  0  0  0  0  0  0  0  0  0  0  0
   57.3620   31.8260   51.4960 C   0  0  0  0  0  0  0  0  0  0  0  0
   57.4990   32.9650   52.0210 O   0  0  0  0  0  0  0  0  0  0  0  0
   56.3690   30.8570   52.0990 C   0  0  1  0  0  0  0  0  0  0  0  0
   56.8980   30.2900   53.4340 C   0  0  0  0  0  0  0  0  0  0  0  0
   55.7680   29.7790   54.3480 C   0  0  0  0  0  0  0  0  0  0  0  0
   54.5280   29.3920   53.5370 C   0  0  0  0  0  0  0  0  0  0  0  0
   53.9640   30.5560   52.8060 N   0  0  2  0  0  0  0  0  0  0  0  0
   53.1200   30.0910   51.7200 C   0  0  0  0  0  0  0  0  0  0  0  0
   53.6240   29.7340   50.6630 O   0  0  0  0  0  0  0  0  0  0  0  0
   51.6160   30.0670   51.8540 C   0  0  0  0  0  0  0  0  0  0  0  0
   51.1070   31.3890   52.3380 C   0  0  0  0  0  0  0  0  0  0  0  0
   50.7140   31.6280   53.6030 N   0  0  0  0  0  0  0  0  0  0  0  0
   50.3970   32.9410   53.5890 C   0  0  0  0  0  0  0  0  0  0  0  0
   49.9710   33.5450   54.6080 O   0  0  0  0  0  0  0  0  0  0  0  0
   50.5710   33.5550   52.3980 N   0  0  0  0  0  0  0  0  0  0  0  0
   51.0230   32.5580   51.6180 C   0  0  0  0  0  0  0  0  0  0  0  0
   51.3530   32.7160   50.2790 O   0  0  0  0  0  0  0  0  0  0  0  0
   54.9890   31.5180   52.3060 C   0  0  0  0  0  0  0  0  0  0  0  0
   58.6580   30.1490   50.1650 C   0  0  0  0  0  0  0  0  0  0  0  0
   59.4540   29.7960   49.0710 C   0  0  0  0  0  0  0  0  0  0  0  0
   58.5607   29.5679   46.2935 H   0  0  0  0  0  0  0  0  0  0  0  0
   59.1410   30.7017   45.0269 H   0  0  0  0  0  0  0  0  0  0  0  0
   59.6978   28.9939   45.0269 H   0  0  0  0  0  0  0  0  0  0  0  0
   59.5923   32.8236   47.4938 H   0  0  0  0  0  0  0  0  0  0  0  0
   58.1748   33.4600   49.4409 H   0  0  0  0  0  0  0  0  0  0  0  0
   56.2443   30.0266   51.3884 H   0  0  0  0  0  0  0  0  0  0  0  0
   57.5805   29.4552   53.2167 H   0  0  0  0  0  0  0  0  0  0  0  0
   57.4120   31.1061   53.9630 H   0  0  0  0  0  0  0  0  0  0  0  0
   56.1248   28.8969   54.8998 H   0  0  0  0  0  0  0  0  0  0  0  0
   55.4909   30.5864   55.0418 H   0  0  0  0  0  0  0  0  0  0  0  0
   54.8060   28.6150   52.8097 H   0  0  0  0  0  0  0  0  0  0  0  0
   53.7630   29.0225   54.2357 H   0  0  0  0  0  0  0  0  0  0  0  0
   53.3660   31.0810   53.4880 H   0  0  0  0  0  0  0  0  0  0  0  0
   51.1696   29.8452   50.8735 H   0  0  0  0  0  0  0  0  0  0  0  0
   51.3382   29.2922   52.5838 H   0  0  0  0  0  0  0  0  0  0  0  0
   54.6473   31.9297   51.3449 H   0  0  0  0  0  0  0  0  0  0  0  0
   55.1062   32.3059   53.0646 H   0  0  0  0  0  0  0  0  0  0  0  0
   58.3887   29.3868   50.9110 H   0  0  0  0  0  0  0  0  0  0  0  0
   59.8144   28.7622   48.9642 H   0  0  0  0  0  0  0  0  0  0  0  0
  1  2  1  0
  2  3  1  0
  3  4  2  0
  4  5  1  0
  5  6  2  0
  6  7  1  0
  7  8  2  0
  7  9  1  0
  9 10  1  0
 10 11  1  0
 11 12  1  0
 12 13  1  0
 13 14  1  0
 14 15  2  0
 14 16  1  0
 16 17  1  0
 17 18  1  0
 18 19  1  0
 19 20  2  0
 19 21  1  0
 21 22  1  0
 22 23  1  0
 13 24  1  0
  6 25  1  0
 25 26  2  0
 26  3  1  0
 24  9  1  0
 22 17  2  0
  1 27  1  0
  1 28  1  0
  1 29  1  0
  4 30  1  0
  5 31  1  0
  9 32  1  6
 10 33  1  0
 10 34  1  0
 11 35  1  0
 11 36  1  0
 12 37  1  0
 12 38  1  0
 13 39  1  1
 16 40  1  0
 16 41  1  0
 24 42  1  0
 24 43  1  0
 25 44  1  0
 26 45  1  0
M  CHG  4  13   1  18  -1  21  -1  23  -1
M  END
>  <UniqueID>  (41) 
41

>  <SMILES>  (41) 
CSc1ccc(C(=O)[C@H]2CCC[N@H+](C(=O)Cc3[n-]c(=O)[n-]c3[O-])C2)cc1

>  <Energy>  (41) 
80.37487239107992

>  <Genealogy>  (41) 
CSc1ccc(C(=O)C2CCC[NH+](C(=O)Cc3[n-]c(=O)[n-]c3[O-])C2)cc1 (protonated)
CSc1ccc(C(=O)[C@H]2CCC[N@H+](C(=O)Cc3[n-]c(=O)[n-]c3[O-])C2)cc1 (chirality)
CSc1ccc(C(=O)[C@H]2CCC[N@H+](C(=O)Cc3[n-]c(=O)[n-]c3[O-])C2)cc1 (3D coordinates assigned)
CSc1ccc(C(=O)[C@H]2CCC[N@H+](C(=O)Cc3[n-]c(=O)[n-]c3[O-])C2)cc1 (nonaromatic ring conformer: 80.37487239107992 kcal/mol)

>  <smiles>  (41) 
CSc1ccc(C(=O)C2CCCN(C(=O)Cc3[nH]c(=O)[nH]c3O)C2)cc1

>  <score_type>  (41) 
oracle

>  <origin>  (41) 
adg

>  <m_score__min__energy>  (41) 
-15.31

>  <m_primary>  (41) 
energy

$$$$
41:0
     RDKit          3D

 61 64  0  0  0  0  0  0  0  0999 V2000
   68.8560   33.9260   49.1600 H   0  0  0  0  0  0  0  0  0  0  0  0
   68.6950   33.9240   50.1930 N   0  0  0  0  0  0  0  0  0  0  0  0
   67.6490   33.3700   50.7130 C   0  0  0  0  0  0  0  0  0  0  0  0
   66.4060   33.8230   50.3890 N   0  0  0  0  0  0  0  0  0  0  0  0
   65.2770   33.2680   50.9080 C   0  0  0  0  0  0  0  0  0  0  0  0
   63.9280   33.8200   50.5260 C   0  0  0  0  0  0  0  0  0  0  0  0
   63.2176   33.5713   51.3282 H   0  0  0  0  0  0  0  0  0  0  0  0
   64.0664   34.9023   50.3862 H   0  0  0  0  0  0  0  0  0  0  0  0
   63.3560   33.2810   49.1940 C   0  0  1  0  0  0  0  0  0  0  0  0
   62.3227   33.6469   49.2864 H   0  0  0  0  0  0  0  0  0  0  0  0
   64.0460   33.8020   47.9420 C   0  0  0  0  0  0  0  0  0  0  0  0
   63.6456   34.7907   47.6735 H   0  0  0  0  0  0  0  0  0  0  0  0
   65.1284   33.9098   48.1059 H   0  0  0  0  0  0  0  0  0  0  0  0
   63.7720   32.8400   46.8710 N   0  0  0  0  0  0  0  0  0  0  0  0
   64.6660   32.6410   46.3590 H   0  0  0  0  0  0  0  0  0  0  0  0
   63.3000   31.6040   47.5040 C   0  0  0  0  0  0  0  0  0  0  0  0
   62.2542   31.4159   47.2194 H   0  0  0  0  0  0  0  0  0  0  0  0
   63.9129   30.7515   47.1759 H   0  0  0  0  0  0  0  0  0  0  0  0
   63.4010   31.7740   49.0200 C   0  0  2  0  0  0  0  0  0  0  0  0
   64.3012   31.3005   49.4389 H   0  0  0  0  0  0  0  0  0  0  0  0
   62.2700   31.1490   49.7150 N   0  0  0  0  0  0  0  0  0  0  0  0
   60.7610   31.5290   48.9350 S   0  0  0  0  0  0  0  0  0  0  0  0
   59.6880   31.7200   49.9710 O   0  0  0  0  0  0  0  0  0  0  0  0
   60.9170   32.8120   48.1690 O   0  0  0  0  0  0  0  0  0  0  0  0
   60.3080   30.2500   47.8130 C   0  0  0  0  0  0  0  0  0  0  0  0
   59.5030   29.1930   48.2570 C   0  0  0  0  0  0  0  0  0  0  0  0
   59.1686   29.1616   49.3045 H   0  0  0  0  0  0  0  0  0  0  0  0
   59.1230   28.1780   47.3740 C   0  0  0  0  0  0  0  0  0  0  0  0
   58.4840   27.3554   47.7276 H   0  0  0  0  0  0  0  0  0  0  0  0
   59.5530   28.2040   46.0390 C   0  0  0  0  0  0  0  0  0  0  0  0
   59.1210   27.1240   45.0830 C   0  0  0  0  0  0  0  0  0  0  0  0
   59.8813   27.0129   44.2959 H   0  0  0  0  0  0  0  0  0  0  0  0
   59.0087   26.1821   45.6400 H   0  0  0  0  0  0  0  0  0  0  0  0
   57.7770   27.4790   44.4380 C   0  0  0  0  0  0  0  0  0  0  0  0
   57.9560   27.8517   43.4187 H   0  0  0  0  0  0  0  0  0  0  0  0
   57.1520   26.5741   44.4172 H   0  0  0  0  0  0  0  0  0  0  0  0
   57.0740   28.5090   45.2060 N   0  0  0  0  0  0  0  0  0  0  0  0
   56.6040   29.8630   44.2140 S   0  0  0  0  0  0  0  0  0  0  0  0
   55.1310   30.1050   44.3900 O   0  0  0  0  0  0  0  0  0  0  0  0
   56.8730   29.5690   42.7640 O   0  0  0  0  0  0  0  0  0  0  0  0
   57.4720   31.3100   44.7220 C   0  0  0  0  0  0  0  0  0  0  0  0
   57.7900   31.5220   46.0710 C   0  0  0  0  0  0  0  0  0  0  0  0
   57.5111   30.7710   46.8248 H   0  0  0  0  0  0  0  0  0  0  0  0
   58.4610   32.6860   46.4610 C   0  0  0  0  0  0  0  0  0  0  0  0
   58.7070   32.8501   47.5205 H   0  0  0  0  0  0  0  0  0  0  0  0
   58.8190   33.6410   45.5040 C   0  0  0  0  0  0  0  0  0  0  0  0
   59.6570   35.1020   45.9930 Cl  0  0  0  0  0  0  0  0  0  0  0  0
   58.5080   33.4310   44.1570 C   0  0  0  0  0  0  0  0  0  0  0  0
   58.7920   34.1810   43.4041 H   0  0  0  0  0  0  0  0  0  0  0  0
   57.8360   32.2680   43.7660 C   0  0  0  0  0  0  0  0  0  0  0  0
   57.5927   32.1050   42.7057 H   0  0  0  0  0  0  0  0  0  0  0  0
   60.3450   29.2750   45.5900 C   0  0  0  0  0  0  0  0  0  0  0  0
   60.6676   29.3152   44.5391 H   0  0  0  0  0  0  0  0  0  0  0  0
   60.7240   30.2890   46.4740 C   0  0  0  0  0  0  0  0  0  0  0  0
   61.3505   31.1203   46.1186 H   0  0  0  0  0  0  0  0  0  0  0  0
   65.3850   32.2020   51.8140 C   0  0  0  0  0  0  0  0  0  0  0  0
   64.4811   31.7491   52.2473 H   0  0  0  0  0  0  0  0  0  0  0  0
   66.6480   31.7210   52.1610 C   0  0  0  0  0  0  0  0  0  0  0  0
   66.7434   30.8839   52.8682 H   0  0  0  0  0  0  0  0  0  0  0  0
   67.7890   32.3030   51.6100 C   0  0  0  0  0  0  0  0  0  0  0  0
   69.0190   31.8360   51.9490 F   0  0  0  0  0  0  0  0  0  0  0  0
  1  2  1  0
  2  3  2  0
  3  4  1  0
  4  5  1  0
  5  6  1  0
  6  7  1  0
  6  8  1  0
  6  9  1  0
  9 10  1  6
  9 11  1  0
 11 12  1  0
 11 13  1  0
 11 14  1  0
 14 15  1  0
 14 16  1  0
 16 17  1  0
 16 18  1  0
 16 19  1  0
 19 20  1  1
 19 21  1  0
 21 22  1  0
 22 23  2  0
 22 24  2  0
 22 25  1  0
 25 26  2  0
 26 27  1  0
 26 28  1  0
 28 29  1  0
 28 30  2  0
 30 31  1  0
 31 32  1  0
 31 33  1  0
 31 34  1  0
 34 35  1  0
 34 36  1  0
 34 37  1  0
 37 38  1  0
 38 39  2  0
 38 40  2  0
 38 41  1  0
 41 42  2  0
 42 43  1  0
 42 44  1  0
 44 45  1  0
 44 46  2  0
 46 47  1  0
 46 48  1  0
 48 49  1  0
 48 50  2  0
 50 51  1  0
 30 52  1  0
 52 53  1  0
 52 54  2  0
 54 55  1  0
  5 56  2  0
 56 57  1  0
 56 58  1  0
 58 59  1  0
 58 60  2  0
 60 61  1  0
 60  3  1  0
 19  9  1  0
 54 25  1  0
 50 41  1  0
M  CHG  3   4  -1  21  -1  37  -1
M  END
>  <UniqueID>  (42) 
42

>  <SMILES>  (42) 
[H]/N=c1\[n-]c(C[C@H]2CNC[C@@H]2[N-]S(=O)(=O)c2ccc(CC[N-]S(=O)(=O)c3ccc(Cl)cc3)cc2)ccc1F

>  <Energy>  (42) 
61.31054798040974

>  <Genealogy>  (42) 
N=c1[n-]c(CC2CNCC2[N-]S(=O)(=O)c2ccc(CC[N-]S(=O)(=O)c3ccc(Cl)cc3)cc2)ccc1F (protonated)
N=c1[n-]c(C[C@H]2CNC[C@@H]2[N-]S(=O)(=O)c2ccc(CC[N-]S(=O)(=O)c3ccc(Cl)cc3)cc2)ccc1F (chirality)
[H]/N=c1\[n-]c(C[C@H]2CNC[C@@H]2[N-]S(=O)(=O)c2ccc(CC[N-]S(=O)(=O)c3ccc(Cl)cc3)cc2)ccc1F (cis-trans isomerization)
[H]/N=c1\[n-]c(C[C@H]2CNC[C@@H]2[N-]S(=O)(=O)c2ccc(CC[N-]S(=O)(=O)c3ccc(Cl)cc3)cc2)ccc1F (3D coordinates assigned)
[H]/N=c1\[n-]c(C[C@H]2CNC[C@@H]2[N-]S(=O)(=O)c2ccc(CC[N-]S(=O)(=O)c3ccc(Cl)cc3)cc2)ccc1F (nonaromatic ring conformer: 61.31054798040974 kcal/mol)

>  <smiles>  (42) 
N=c1[nH]c(CC2CNCC2NS(=O)(=O)c2ccc(CCNS(=O)(=O)c3ccc(Cl)cc3)cc2)ccc1F

>  <score_type>  (42) 
oracle

>  <origin>  (42) 
adg

>  <m_score__min__energy>  (42) 
-15.41

>  <m_primary>  (42) 
energy

$$$$
42:0
     RDKit          3D

 63 66  0  0  0  0  0  0  0  0999 V2000
   57.9640   29.9020   50.8900 O   0  0  0  0  0  0  0  0  0  0  0  0
   58.5080   30.4750   49.9080 C   0  0  0  0  0  0  0  0  0  0  0  0
   58.9240   29.6740   48.7200 C   0  0  0  0  0  0  0  0  0  0  0  0
   59.9230   28.6940   49.1250 N   0  0  0  0  0  0  0  0  0  0  0  0
   60.1040   27.4080   48.5200 C   0  0  0  0  0  0  0  0  0  0  0  0
   60.8910   26.5880   49.0610 O   0  0  0  0  0  0  0  0  0  0  0  0
   59.4280   27.0280   47.2630 C   0  0  0  0  0  0  0  0  0  0  0  0
   59.9290   27.4480   46.0210 C   0  0  0  0  0  0  0  0  0  0  0  0
   59.2700   27.0970   44.8400 C   0  0  0  0  0  0  0  0  0  0  0  0
   58.0980   26.3380   44.8890 C   0  0  0  0  0  0  0  0  0  0  0  0
   57.5720   25.9360   46.1240 C   0  0  0  0  0  0  0  0  0  0  0  0
   56.0760   24.9990   46.1870 S   0  0  0  0  0  0  0  0  0  0  0  0
   54.9170   25.8910   45.8360 O   0  0  0  0  0  0  0  0  0  0  0  0
   55.8690   24.4960   47.5880 O   0  0  0  0  0  0  0  0  0  0  0  0
   56.1140   23.6420   45.0880 N   0  0  0  0  0  0  0  0  0  0  0  0
   56.0340   24.1040   43.6910 C   0  0  0  0  0  0  0  0  0  0  0  0
   56.3110   22.9430   42.7150 C   0  0  0  0  0  0  0  0  0  0  0  0
   56.2830   21.6970   43.3860 O   0  0  0  0  0  0  0  0  0  0  0  0
   57.3360   21.6370   44.3320 C   0  0  0  0  0  0  0  0  0  0  0  0
   57.3340   22.8480   45.2900 C   0  0  0  0  0  0  0  0  0  0  0  0
   58.2370   26.2860   47.3080 C   0  0  0  0  0  0  0  0  0  0  0  0
   58.7670   31.8850   49.9300 N   0  0  0  0  0  0  0  0  0  0  0  0
   59.1180   32.7050   48.8050 C   0  0  0  0  0  0  0  0  0  0  0  0
   60.1280   33.6820   48.8780 C   0  0  0  0  0  0  0  0  0  0  0  0
   60.4240   34.4710   47.7640 C   0  0  0  0  0  0  0  0  0  0  0  0
   59.7090   34.3050   46.5760 C   0  0  0  0  0  0  0  0  0  0  0  0
   58.6850   33.3520   46.4980 C   0  0  0  0  0  0  0  0  0  0  0  0
   57.7760   33.1460   44.9980 S   0  0  0  0  0  0  0  0  0  0  0  0
   56.7860   34.2690   44.8630 O   0  0  0  0  0  0  0  0  0  0  0  0
   58.7240   33.2200   43.8330 O   0  0  0  0  0  0  0  0  0  0  0  0
   56.9290   31.6190   44.9550 N   0  0  0  0  0  0  0  0  0  0  0  0
   56.6690   31.2130   43.5660 C   0  0  0  0  0  0  0  0  0  0  0  0
   55.9350   29.8560   43.5400 C   0  0  0  0  0  0  0  0  0  0  0  0
   55.7810   29.3090   44.8380 O   0  0  0  0  0  0  0  0  0  0  0  0
   57.0450   29.1960   45.4620 C   0  0  0  0  0  0  0  0  0  0  0  0
   57.7050   30.5790   45.6480 C   0  0  0  0  0  0  0  0  0  0  0  0
   58.3870   32.5630   47.6180 C   0  0  0  0  0  0  0  0  0  0  0  0
   58.0487   29.1551   48.3021 H   0  0  0  0  0  0  0  0  0  0  0  0
   59.3512   30.3415   47.9571 H   0  0  0  0  0  0  0  0  0  0  0  0
   60.8445   28.0562   45.9772 H   0  0  0  0  0  0  0  0  0  0  0  0
   59.6749   27.4190   43.8693 H   0  0  0  0  0  0  0  0  0  0  0  0
   57.5874   26.0555   43.9566 H   0  0  0  0  0  0  0  0  0  0  0  0
   55.0270   24.5034   43.5001 H   0  0  0  0  0  0  0  0  0  0  0  0
   56.7916   24.8859   43.5337 H   0  0  0  0  0  0  0  0  0  0  0  0
   55.5431   22.9445   41.9274 H   0  0  0  0  0  0  0  0  0  0  0  0
   57.3112   23.0833   42.2792 H   0  0  0  0  0  0  0  0  0  0  0  0
   57.2266   20.7169   44.9249 H   0  0  0  0  0  0  0  0  0  0  0  0
   58.2864   21.6480   43.7782 H   0  0  0  0  0  0  0  0  0  0  0  0
   57.3690   22.4908   46.3298 H   0  0  0  0  0  0  0  0  0  0  0  0
   58.2135   23.4755   45.0832 H   0  0  0  0  0  0  0  0  0  0  0  0
   57.8225   25.9770   48.2789 H   0  0  0  0  0  0  0  0  0  0  0  0
   60.6861   33.8248   49.8151 H   0  0  0  0  0  0  0  0  0  0  0  0
   61.2226   35.2252   47.8227 H   0  0  0  0  0  0  0  0  0  0  0  0
   59.9504   34.9240   45.6993 H   0  0  0  0  0  0  0  0  0  0  0  0
   56.0447   31.9740   43.0751 H   0  0  0  0  0  0  0  0  0  0  0  0
   57.6267   31.1151   43.0337 H   0  0  0  0  0  0  0  0  0  0  0  0
   54.9393   29.9997   43.0951 H   0  0  0  0  0  0  0  0  0  0  0  0
   56.5397   29.1548   42.9462 H   0  0  0  0  0  0  0  0  0  0  0  0
   56.9170   28.7247   46.4476 H   0  0  0  0  0  0  0  0  0  0  0  0
   57.6957   28.5846   44.8195 H   0  0  0  0  0  0  0  0  0  0  0  0
   57.7509   30.8166   46.7211 H   0  0  0  0  0  0  0  0  0  0  0  0
   58.7187   30.5490   45.2219 H   0  0  0  0  0  0  0  0  0  0  0  0
   57.5722   31.8260   47.5644 H   0  0  0  0  0  0  0  0  0  0  0  0
  1  2  2  0
  2  3  1  0
  3  4  1  0
  4  5  1  0
  5  6  2  0
  5  7  1  0
  7  8  2  0
  8  9  1  0
  9 10  2  0
 10 11  1  0
 11 12  1  0
 12 13  2  0
 12 14  2  0
 12 15  1  0
 15 16  1  0
 16 17  1  0
 17 18  1  0
 18 19  1  0
 19 20  1  0
 11 21  2  0
  2 22  1  0
 22 23  1  0
 23 24  2  0
 24 25  1  0
 25 26  2  0
 26 27  1  0
 27 28  1  0
 28 29  2  0
 28 30  2  0
 28 31  1  0
 31 32  1  0
 32 33  1  0
 33 34  1  0
 34 35  1  0
 35 36  1  0
 27 37  2  0
 21  7  1  0
 37 23  1  0
 20 15  1  0
 36 31  1  0
  3 38  1  0
  3 39  1  0
  8 40  1  0
  9 41  1  0
 10 42  1  0
 16 43  1  0
 16 44  1  0
 17 45  1  0
 17 46  1  0
 19 47  1  0
 19 48  1  0
 20 49  1  0
 20 50  1  0
 21 51  1  0
 24 52  1  0
 25 53  1  0
 26 54  1  0
 32 55  1  0
 32 56  1  0
 33 57  1  0
 33 58  1  0
 35 59  1  0
 35 60  1  0
 36 61  1  0
 36 62  1  0
 37 63  1  0
M  CHG  2   4  -1  22  -1
M  END
>  <UniqueID>  (43) 
43

>  <SMILES>  (43) 
O=C(C[N-]C(=O)c1cccc(S(=O)(=O)N2CCOCC2)c1)[N-]c1cccc(S(=O)(=O)N2CCOCC2)c1

>  <Energy>  (43) 
85.17000746667351

>  <Genealogy>  (43) 
O=C(C[N-]C(=O)c1cccc(S(=O)(=O)N2CCOCC2)c1)[N-]c1cccc(S(=O)(=O)N2CCOCC2)c1 (protonated)
O=C(C[N-]C(=O)c1cccc(S(=O)(=O)N2CCOCC2)c1)[N-]c1cccc(S(=O)(=O)N2CCOCC2)c1 (3D coordinates assigned)
O=C(C[N-]C(=O)c1cccc(S(=O)(=O)N2CCOCC2)c1)[N-]c1cccc(S(=O)(=O)N2CCOCC2)c1 (nonaromatic ring conformer: 85.17000746667351 kcal/mol)

>  <smiles>  (43) 
O=C(CNC(=O)c1cccc(S(=O)(=O)N2CCOCC2)c1)Nc1cccc(S(=O)(=O)N2CCOCC2)c1

>  <score_type>  (43) 
oracle

>  <origin>  (43) 
adg

>  <m_score__min__energy>  (43) 
-14.31

>  <m_primary>  (43) 
energy

$$$$
43:0
     RDKit          3D

 32 33  0  0  0  0  0  0  0  0999 V2000
   57.0920   26.1500   45.8980 C   0  0  0  0  0  0  0  0  0  0  0  0
   56.3520   27.4060   45.9580 N   0  0  0  0  0  0  0  0  0  0  0  0
   56.6410   28.4550   45.2470 C   0  0  0  0  0  0  0  0  0  0  0  0
   57.9310   28.7460   44.9210 N   0  0  0  0  0  0  0  0  0  0  0  0
   58.2380   29.8410   44.1780 C   0  0  0  0  0  0  0  0  0  0  0  0
   57.2200   30.6950   43.7380 C   0  0  0  0  0  0  0  0  0  0  0  0
   57.5230   31.9000   42.8900 C   0  0  0  0  0  0  0  0  0  0  0  0
   58.1800   32.9300   43.6930 N   0  0  0  0  0  0  0  0  0  0  0  0
   57.7110   33.3130   44.9900 C   0  0  0  0  0  0  0  0  0  0  0  0
   56.6460   32.8180   45.4500 O   0  0  0  0  0  0  0  0  0  0  0  0
   58.4350   34.3010   45.7320 N   0  0  0  0  0  0  0  0  0  0  0  0
   59.4230   34.0520   46.7430 C   0  0  0  0  0  0  0  0  0  0  0  0
   60.7600   33.8960   46.3510 C   0  0  0  0  0  0  0  0  0  0  0  0
   61.7500   33.6300   47.3030 C   0  0  0  0  0  0  0  0  0  0  0  0
   63.4230   33.4540   46.8040 Cl  0  0  0  0  0  0  0  0  0  0  0  0
   61.4070   33.5040   48.6530 C   0  0  0  0  0  0  0  0  0  0  0  0
   60.0720   33.6320   49.0500 C   0  0  0  0  0  0  0  0  0  0  0  0
   59.6400   33.4440   50.7400 Cl  0  0  0  0  0  0  0  0  0  0  0  0
   59.0800   33.8980   48.0990 C   0  0  0  0  0  0  0  0  0  0  0  0
   55.9010   30.3740   44.0780 C   0  0  0  0  0  0  0  0  0  0  0  0
   55.6400   29.2690   44.8230 N   0  0  0  0  0  0  0  0  0  0  0  0
   57.2996   25.7976   46.9191 H   0  0  0  0  0  0  0  0  0  0  0  0
   56.4933   25.3968   45.3648 H   0  0  0  0  0  0  0  0  0  0  0  0
   58.0410   26.3086   45.3648 H   0  0  0  0  0  0  0  0  0  0  0  0
   59.2860   30.0564   43.9223 H   0  0  0  0  0  0  0  0  0  0  0  0
   58.1865   31.6053   42.0636 H   0  0  0  0  0  0  0  0  0  0  0  0
   56.5811   32.3033   42.4897 H   0  0  0  0  0  0  0  0  0  0  0  0
   59.0290   33.4000   43.3060 H   0  0  0  0  0  0  0  0  0  0  0  0
   61.0322   33.9833   45.2888 H   0  0  0  0  0  0  0  0  0  0  0  0
   62.1870   33.3043   49.4024 H   0  0  0  0  0  0  0  0  0  0  0  0
   58.0294   33.9869   48.4125 H   0  0  0  0  0  0  0  0  0  0  0  0
   55.0747   31.0174   43.7414 H   0  0  0  0  0  0  0  0  0  0  0  0
  1  2  1  0
  2  3  2  3
  3  4  1  0
  4  5  2  0
  5  6  1  0
  6  7  1  0
  7  8  1  0
  8  9  1  0
  9 10  2  0
  9 11  1  0
 11 12  1  0
 12 13  2  0
 13 14  1  0
 14 15  1  0
 14 16  2  0
 16 17  1  0
 17 18  1  0
 17 19  2  0
  6 20  2  0
 20 21  1  0
 21  3  1  0
 19 12  1  0
  1 22  1  0
  1 23  1  0
  1 24  1  0
  5 25  1  0
  7 26  1  0
  7 27  1  0
  8 28  1  0
 13 29  1  0
 16 30  1  0
 19 31  1  0
 20 32  1  0
M  CHG  2  11  -1  21  -1
M  END
>  <UniqueID>  (44) 
44

>  <SMILES>  (44) 
CN=c1ncc(CNC(=O)[N-]c2cc(Cl)cc(Cl)c2)c[n-]1

>  <Energy>  (44) 
32.507889184215884

>  <Genealogy>  (44) 
CN=c1ncc(CNC(=O)[N-]c2cc(Cl)cc(Cl)c2)c[n-]1 (protonated)
CN=c1ncc(CNC(=O)[N-]c2cc(Cl)cc(Cl)c2)c[n-]1 (3D coordinates assigned)
CN=c1ncc(CNC(=O)[N-]c2cc(Cl)cc(Cl)c2)c[n-]1 (optimized conformer: 32.507889184215884 kcal/mol)

>  <smiles>  (44) 
CN=c1ncc(CNC(=O)Nc2cc(Cl)cc(Cl)c2)c[nH]1

>  <score_type>  (44) 
oracle

>  <origin>  (44) 
adg

>  <m_score__min__energy>  (44) 
-10.57

>  <m_primary>  (44) 
energy

$$$$
44:0
     RDKit          3D

 60 63  0  0  0  0  0  0  0  0999 V2000
   54.7260   28.9730   45.3000 H   0  0  0  0  0  0  0  0  0  0  0  0
   55.7080   28.7370   45.2260 O   0  0  0  0  0  0  0  0  0  0  0  0
   56.1680   27.4870   45.6300 C   0  0  0  0  0  0  0  0  0  0  0  0
   55.3640   26.4980   46.0550 N   0  0  0  0  0  0  0  0  0  0  0  0
   56.2400   25.5310   46.3980 C   0  0  0  0  0  0  0  0  0  0  0  0
   55.8750   24.4180   46.8610 O   0  0  0  0  0  0  0  0  0  0  0  0
   57.5400   25.8530   46.2180 N   0  0  0  0  0  0  0  0  0  0  0  0
   57.4870   27.0930   45.7040 C   0  0  0  0  0  0  0  0  0  0  0  0
   58.6880   27.8970   45.4080 C   0  0  0  0  0  0  0  0  0  0  0  0
   59.3321   27.5787   44.5750 H   0  0  0  0  0  0  0  0  0  0  0  0
   59.0420   28.9990   46.0990 C   0  0  0  0  0  0  0  0  0  0  0  0
   59.8180   29.0300   47.2440 C   0  0  0  0  0  0  0  0  0  0  0  0
   60.2800   28.1661   47.7442 H   0  0  0  0  0  0  0  0  0  0  0  0
   59.9030   30.3490   47.6400 C   0  0  0  0  0  0  0  0  0  0  0  0
   60.6750   30.7860   48.8230 C   0  0  0  0  0  0  0  0  0  0  0  0
   61.9310   30.6870   48.8390 O   0  0  0  0  0  0  0  0  0  0  0  0
   59.9890   31.2360   49.9990 N   0  0  0  0  0  0  0  0  0  0  0  0
   59.0510   32.3640   49.9260 C   0  0  0  0  0  0  0  0  0  0  0  0
   59.4977   33.2397   50.4196 H   0  0  0  0  0  0  0  0  0  0  0  0
   58.8457   32.5905   48.8693 H   0  0  0  0  0  0  0  0  0  0  0  0
   57.7320   32.0070   50.6250 C   0  0  0  0  0  0  0  0  0  0  0  0
   57.2129   32.9362   50.9027 H   0  0  0  0  0  0  0  0  0  0  0  0
   57.1257   31.4096   49.9282 H   0  0  0  0  0  0  0  0  0  0  0  0
   57.9580   31.2060   51.8390 N   0  0  0  0  0  0  0  0  0  0  0  0
   56.8330   30.5560   52.4580 C   0  0  0  0  0  0  0  0  0  0  0  0
   55.6820   31.0580   52.3510 O   0  0  0  0  0  0  0  0  0  0  0  0
   57.0000   29.2780   53.2310 C   0  0  0  0  0  0  0  0  0  0  0  0
   57.9845   29.0117   52.8189 H   0  0  0  0  0  0  0  0  0  0  0  0
   56.3840   29.2870   54.6230 C   0  0  0  0  0  0  0  0  0  0  0  0
   56.8644   28.7288   55.4401 H   0  0  0  0  0  0  0  0  0  0  0  0
   56.0829   30.0703   55.3342 H   0  0  0  0  0  0  0  0  0  0  0  0
   55.6940   28.5390   53.4970 C   0  0  0  0  0  0  0  0  0  0  0  0
   55.6750   27.4392   53.4982 H   0  0  0  0  0  0  0  0  0  0  0  0
   54.6870   28.5562   53.0547 H   0  0  0  0  0  0  0  0  0  0  0  0
   59.3200   31.0750   52.3760 C   0  0  0  0  0  0  0  0  0  0  0  0
   59.6680   32.0552   52.7340 H   0  0  0  0  0  0  0  0  0  0  0  0
   59.3158   30.3579   53.2101 H   0  0  0  0  0  0  0  0  0  0  0  0
   60.2600   30.5710   51.2780 C   0  0  0  0  0  0  0  0  0  0  0  0
   61.2995   30.7745   51.5747 H   0  0  0  0  0  0  0  0  0  0  0  0
   60.0968   29.4908   51.1496 H   0  0  0  0  0  0  0  0  0  0  0  0
   59.2030   31.1430   46.7900 N   0  0  0  0  0  0  0  0  0  0  0  0
   59.0440   32.6050   46.8810 C   0  0  0  0  0  0  0  0  0  0  0  0
   58.1431   32.9043   46.3253 H   0  0  0  0  0  0  0  0  0  0  0  0
   58.9522   32.8825   47.9415 H   0  0  0  0  0  0  0  0  0  0  0  0
   60.2570   33.3250   46.2920 C   0  0  0  0  0  0  0  0  0  0  0  0
   60.2553   33.2097   45.1981 H   0  0  0  0  0  0  0  0  0  0  0  0
   60.2082   34.3931   46.5503 H   0  0  0  0  0  0  0  0  0  0  0  0
   61.4420   32.7690   46.8210 O   0  0  0  0  0  0  0  0  0  0  0  0
   62.3650   33.7970   47.1060 C   0  0  0  0  0  0  0  0  0  0  0  0
   62.3083   34.5702   46.3256 H   0  0  0  0  0  0  0  0  0  0  0  0
   62.1282   34.2492   48.0804 H   0  0  0  0  0  0  0  0  0  0  0  0
   63.7690   33.2080   47.1400 C   0  0  0  0  0  0  0  0  0  0  0  0
   64.3550   33.6093   46.3000 H   0  0  0  0  0  0  0  0  0  0  0  0
   64.2556   33.4767   48.0892 H   0  0  0  0  0  0  0  0  0  0  0  0
   63.6950   31.8140   47.0330 O   0  0  0  0  0  0  0  0  0  0  0  0
   62.7290   31.5930   47.0590 H   0  0  0  0  0  0  0  0  0  0  0  0
   58.6700   30.3220   45.8440 C   0  0  0  0  0  0  0  0  0  0  0  0
   57.9060   30.7420   44.8220 C   0  0  0  0  0  0  0  0  0  0  0  0
   57.6722   31.8114   44.7133 H   0  0  0  0  0  0  0  0  0  0  0  0
   57.5142   30.0166   44.0938 H   0  0  0  0  0  0  0  0  0  0  0  0
  1  2  1  0
  2  3  1  0
  3  4  1  0
  4  5  1  0
  5  6  2  0
  5  7  1  0
  7  8  1  0
  8  9  1  0
  9 10  1  0
  9 11  2  0
 11 12  1  0
 12 13  1  0
 12 14  2  0
 14 15  1  0
 15 16  2  0
 15 17  1  0
 17 18  1  0
 18 19  1  0
 18 20  1  0
 18 21  1  0
 21 22  1  0
 21 23  1  0
 21 24  1  0
 24 25  1  0
 25 26  2  0
 25 27  1  0
 27 28  1  0
 27 29  1  0
 29 30  1  0
 29 31  1  0
 29 32  1  0
 32 33  1  0
 32 34  1  0
 24 35  1  0
 35 36  1  0
 35 37  1  0
 35 38  1  0
 38 39  1  0
 38 40  1  0
 14 41  1  0
 41 42  1  0
 42 43  1  0
 42 44  1  0
 42 45  1  0
 45 46  1  0
 45 47  1  0
 45 48  1  0
 48 49  1  0
 49 50  1  0
 49 51  1  0
 49 52  1  0
 52 53  1  0
 52 54  1  0
 52 55  1  0
 55 56  1  0
 41 57  1  0
 57 58  2  0
 58 59  1  0
 58 60  1  0
  8  3  2  0
 57 11  1  0
 38 17  1  0
 32 27  1  0
M  CHG  2   4  -1   7  -1
M  END
>  <UniqueID>  (45) 
45

>  <SMILES>  (45) 
C=c1/c(=C/c2[n-]c(=O)[n-]c2O)cc(C(=O)N2CCN(C(=O)C3CC3)CC2)n1CCOCCO

>  <Energy>  (45) 
389.4296766912823

>  <Genealogy>  (45) 
C=c1c(=Cc2[n-]c(=O)[n-]c2O)cc(C(=O)N2CCN(C(=O)C3CC3)CC2)n1CCOCCO (protonated)
C=c1/c(=C/c2[n-]c(=O)[n-]c2O)cc(C(=O)N2CCN(C(=O)C3CC3)CC2)n1CCOCCO (cis-trans isomerization)
C=c1/c(=C/c2[n-]c(=O)[n-]c2O)cc(C(=O)N2CCN(C(=O)C3CC3)CC2)n1CCOCCO (3D coordinates assigned)
C=c1/c(=C/c2[n-]c(=O)[n-]c2O)cc(C(=O)N2CCN(C(=O)C3CC3)CC2)n1CCOCCO (nonaromatic ring conformer: 389.4296766912823 kcal/mol)

>  <smiles>  (45) 
C=c1c(=Cc2[nH]c(=O)[nH]c2O)cc(C(=O)N2CCN(C(=O)C3CC3)CC2)n1CCOCCO

>  <score_type>  (45) 
oracle

>  <origin>  (45) 
adg

>  <m_score__min__energy>  (45) 
-13.94

>  <m_primary>  (45) 
energy

$$$$
45:0
     RDKit          3D

 77 81  0  0  0  0  0  0  0  0999 V2000
   55.1410   29.3420   44.8250 O   0  0  0  0  0  0  0  0  0  0  0  0
   56.3730   29.5630   44.9600 C   0  0  0  0  0  0  0  0  0  0  0  0
   57.1020   28.7440   45.8860 N   0  0  0  0  0  0  0  0  0  0  0  0
   58.0770   27.7000   45.5840 C   0  0  0  0  0  0  0  0  0  0  0  0
   58.9880   28.0970   44.4240 C   0  0  0  0  0  0  0  0  0  0  0  0
   60.1720   28.1670   45.3770 C   0  0  0  0  0  0  0  0  0  0  0  0
   59.2670   27.7640   46.5340 C   0  0  0  0  0  0  0  0  0  0  0  0
   56.9930   30.6280   44.1300 C   0  0  0  0  0  0  0  0  0  0  0  0
   56.8560   30.5680   42.7320 C   0  0  0  0  0  0  0  0  0  0  0  0
   57.3670   31.5840   41.9260 C   0  0  0  0  0  0  0  0  0  0  0  0
   58.0010   32.6860   42.5010 C   0  0  0  0  0  0  0  0  0  0  0  0
   58.1170   32.7930   43.8950 C   0  0  0  0  0  0  0  0  0  0  0  0
   58.8360   33.9690   44.4530 C   0  0  0  0  0  0  0  0  0  0  0  0
   58.8580   34.3790   45.7330 C   0  0  0  0  0  0  0  0  0  0  0  0
   59.9820   34.2340   46.6830 C   0  0  0  0  0  0  0  0  0  0  0  0
   59.8120   34.4020   48.0680 C   0  0  0  0  0  0  0  0  0  0  0  0
   60.8900   34.2150   48.9380 C   0  0  0  0  0  0  0  0  0  0  0  0
   62.1630   33.8950   48.4350 C   0  0  0  0  0  0  0  0  0  0  0  0
   63.3040   33.6770   49.3490 C   0  0  0  0  0  0  0  0  0  0  0  0
   63.4180   34.3920   50.3840 O   0  0  0  0  0  0  0  0  0  0  0  0
   64.3000   32.6900   49.0510 N   0  0  0  0  0  0  0  0  0  0  0  0
   65.4040   32.4100   49.9690 C   0  0  0  0  0  0  0  0  0  0  0  0
   64.9260   32.5000   51.4260 C   0  0  0  0  0  0  0  0  0  0  0  0
   65.0400   31.1540   52.1900 C   0  0  0  0  0  0  0  0  0  0  0  0
   64.6900   29.9270   51.3060 C   0  0  0  0  0  0  0  0  0  0  0  0
   63.1890   29.5720   51.3260 C   0  0  0  0  0  0  0  0  0  0  0  0
   62.3920   30.7570   51.6860 N   0  0  0  0  0  0  0  0  0  0  0  0
   60.9510   30.5820   51.4090 C   0  0  0  0  0  0  0  0  0  0  0  0
   60.7130   30.7460   49.9340 C   0  0  0  0  0  0  0  0  0  0  0  0
   61.7730   30.6390   49.0170 C   0  0  0  0  0  0  0  0  0  0  0  0
   61.5250   30.7340   47.6440 C   0  0  0  0  0  0  0  0  0  0  0  0
   60.2210   30.9240   47.1790 C   0  0  0  0  0  0  0  0  0  0  0  0
   59.1610   31.0210   48.0840 C   0  0  0  0  0  0  0  0  0  0  0  0
   59.4030   30.9270   49.4570 C   0  0  0  0  0  0  0  0  0  0  0  0
   62.6380   31.1580   53.0890 C   0  0  0  0  0  0  0  0  0  0  0  0
   64.1420   31.1560   53.4440 C   0  0  0  0  0  0  0  0  0  0  0  0
   62.3440   33.7970   47.0470 C   0  0  0  0  0  0  0  0  0  0  0  0
   61.2620   33.9660   46.1800 C   0  0  0  0  0  0  0  0  0  0  0  0
   57.6330   31.7430   44.7000 C   0  0  0  0  0  0  0  0  0  0  0  0
   57.4486   26.7993   45.5213 H   0  0  0  0  0  0  0  0  0  0  0  0
   59.0840   27.3268   43.6445 H   0  0  0  0  0  0  0  0  0  0  0  0
   58.7349   28.9572   43.7868 H   0  0  0  0  0  0  0  0  0  0  0  0
   60.9689   27.4414   45.1568 H   0  0  0  0  0  0  0  0  0  0  0  0
   60.7819   29.0803   45.4400 H   0  0  0  0  0  0  0  0  0  0  0  0
   59.5277   26.7986   46.9924 H   0  0  0  0  0  0  0  0  0  0  0  0
   59.2196   28.3807   47.4437 H   0  0  0  0  0  0  0  0  0  0  0  0
   56.3414   29.7123   42.2705 H   0  0  0  0  0  0  0  0  0  0  0  0
   57.2701   31.5168   40.8323 H   0  0  0  0  0  0  0  0  0  0  0  0
   58.4129   33.4766   41.8566 H   0  0  0  0  0  0  0  0  0  0  0  0
   59.4152   34.5714   43.7376 H   0  0  0  0  0  0  0  0  0  0  0  0
   57.9499   34.8712   46.1113 H   0  0  0  0  0  0  0  0  0  0  0  0
   58.8266   34.6818   48.4690 H   0  0  0  0  0  0  0  0  0  0  0  0
   60.7412   34.3189   50.0229 H   0  0  0  0  0  0  0  0  0  0  0  0
   64.2820   32.2240   48.1140 H   0  0  0  0  0  0  0  0  0  0  0  0
   65.7881   31.3975   49.7756 H   0  0  0  0  0  0  0  0  0  0  0  0
   66.1987   33.1533   49.8080 H   0  0  0  0  0  0  0  0  0  0  0  0
   65.5361   33.2515   51.9485 H   0  0  0  0  0  0  0  0  0  0  0  0
   63.8612   32.7751   51.4047 H   0  0  0  0  0  0  0  0  0  0  0  0
   66.0948   31.0604   52.4878 H   0  0  0  0  0  0  0  0  0  0  0  0
   64.9832   30.1481   50.2691 H   0  0  0  0  0  0  0  0  0  0  0  0
   65.2356   29.0636   51.7145 H   0  0  0  0  0  0  0  0  0  0  0  0
   62.8856   29.2189   50.3294 H   0  0  0  0  0  0  0  0  0  0  0  0
   63.0163   28.7825   52.0722 H   0  0  0  0  0  0  0  0  0  0  0  0
   60.6342   29.5769   51.7242 H   0  0  0  0  0  0  0  0  0  0  0  0
   60.3716   31.3339   51.9649 H   0  0  0  0  0  0  0  0  0  0  0  0
   62.7992   30.4803   49.3800 H   0  0  0  0  0  0  0  0  0  0  0  0
   62.3576   30.6591   46.9290 H   0  0  0  0  0  0  0  0  0  0  0  0
   60.0287   30.9973   46.0984 H   0  0  0  0  0  0  0  0  0  0  0  0
   58.1355   31.1714   47.7155 H   0  0  0  0  0  0  0  0  0  0  0  0
   58.5656   30.9949   50.1671 H   0  0  0  0  0  0  0  0  0  0  0  0
   62.2396   32.1718   53.2423 H   0  0  0  0  0  0  0  0  0  0  0  0
   62.1372   30.4270   53.7408 H   0  0  0  0  0  0  0  0  0  0  0  0
   64.3663   32.0541   54.0382 H   0  0  0  0  0  0  0  0  0  0  0  0
   64.3527   30.2366   54.0100 H   0  0  0  0  0  0  0  0  0  0  0  0
   63.3436   33.5859   46.6394 H   0  0  0  0  0  0  0  0  0  0  0  0
   61.4160   33.8881   45.0936 H   0  0  0  0  0  0  0  0  0  0  0  0
   57.7577   31.7961   45.7916 H   0  0  0  0  0  0  0  0  0  0  0  0
  1  2  2  0
  2  3  1  0
  3  4  1  0
  4  5  1  0
  5  6  1  0
  6  7  1  0
  2  8  1  0
  8  9  2  0
  9 10  1  0
 10 11  2  0
 11 12  1  0
 12 13  1  0
 13 14  2  3
 14 15  1  0
 15 16  2  0
 16 17  1  0
 17 18  2  0
 18 19  1  0
 19 20  2  0
 19 21  1  0
 21 22  1  0
 22 23  1  0
 23 24  1  0
 24 25  1  0
 25 26  1  0
 26 27  1  0
 27 28  1  0
 28 29  1  0
 29 30  2  0
 30 31  1  0
 31 32  2  0
 32 33  1  0
 33 34  2  0
 27 35  1  0
 35 36  1  0
 18 37  1  0
 37 38  2  0
 12 39  2  0
  7  4  1  0
 39  8  1  0
 38 15  1  0
 36 24  1  0
 34 29  1  0
  4 40  1  0
  5 41  1  0
  5 42  1  0
  6 43  1  0
  6 44  1  0
  7 45  1  0
  7 46  1  0
  9 47  1  0
 10 48  1  0
 11 49  1  0
 13 50  1  0
 14 51  1  0
 16 52  1  0
 17 53  1  0
 21 54  1  0
 22 55  1  0
 22 56  1  0
 23 57  1  0
 23 58  1  0
 24 59  1  0
 25 60  1  0
 25 61  1  0
 26 62  1  0
 26 63  1  0
 28 64  1  0
 28 65  1  0
 30 66  1  0
 31 67  1  0
 32 68  1  0
 33 69  1  0
 34 70  1  0
 35 71  1  0
 35 72  1  0
 36 73  1  0
 36 74  1  0
 37 75  1  0
 38 76  1  0
 39 77  1  0
M  CHG  1   3  -1
M  END
>  <UniqueID>  (46) 
46

>  <SMILES>  (46) 
O=C([N-]C1CCC1)c1cccc(C=Cc2ccc(C(=O)NCCC3CCN(Cc4ccccc4)CC3)cc2)c1

>  <Energy>  (46) 
156.8620870678099

>  <Genealogy>  (46) 
O=C([N-]C1CCC1)c1cccc(C=Cc2ccc(C(=O)NCCC3CCN(Cc4ccccc4)CC3)cc2)c1 (protonated)
O=C([N-]C1CCC1)c1cccc(C=Cc2ccc(C(=O)NCCC3CCN(Cc4ccccc4)CC3)cc2)c1 (3D coordinates assigned)
O=C([N-]C1CCC1)c1cccc(C=Cc2ccc(C(=O)NCCC3CCN(Cc4ccccc4)CC3)cc2)c1 (nonaromatic ring conformer: 156.8620870678099 kcal/mol)

>  <smiles>  (46) 
O=C(NCCC1CCN(Cc2ccccc2)CC1)c1ccc(C=Cc2cccc(C(=O)NC3CCC3)c2)cc1

>  <score_type>  (46) 
oracle

>  <origin>  (46) 
adg

>  <m_score__min__energy>  (46) 
-11.880000000000001

>  <m_primary>  (46) 
energy

$$$$
46:0
     RDKit          3D

 52 55  0  0  0  0  0  0  0  0999 V2000
   60.5870   28.6910   51.9070 C   0  0  0  0  0  0  0  0  0  0  0  0
   61.2600   28.6720   50.5980 N   0  0  0  0  0  0  0  0  0  0  0  0
   60.5130   27.8960   49.5860 C   0  0  0  0  0  0  0  0  0  0  0  0
   59.2640   28.6330   49.0850 C   0  0  0  0  0  0  0  0  0  0  0  0
   59.6190   29.9950   48.6790 N   0  0  0  0  0  0  0  0  0  0  0  0
   59.0200   30.5880   47.5110 C   0  0  0  0  0  0  0  0  0  0  0  0
   58.5840   31.8170   47.5920 N   0  0  0  0  0  0  0  0  0  0  0  0
   58.8400   32.9210   46.7080 C   0  0  0  0  0  0  0  0  0  0  0  0
   59.2290   34.1430   47.2730 C   0  0  0  0  0  0  0  0  0  0  0  0
   59.4650   35.2570   46.4640 C   0  0  0  0  0  0  0  0  0  0  0  0
   59.2950   35.1650   45.0820 C   0  0  0  0  0  0  0  0  0  0  0  0
   58.8770   33.9630   44.5080 C   0  0  0  0  0  0  0  0  0  0  0  0
   58.6360   32.8360   45.3130 C   0  0  0  0  0  0  0  0  0  0  0  0
   58.1400   31.5630   44.6950 C   0  0  0  0  0  0  0  0  0  0  0  0
   59.0800   30.4510   45.0310 C   0  0  0  0  0  0  0  0  0  0  0  0
   59.0690   29.8310   46.2240 C   0  0  0  0  0  0  0  0  0  0  0  0
   59.0550   28.3450   46.2840 C   0  0  0  0  0  0  0  0  0  0  0  0
   60.2460   27.6130   46.4390 C   0  0  0  0  0  0  0  0  0  0  0  0
   60.2230   26.2170   46.4400 C   0  0  0  0  0  0  0  0  0  0  0  0
   59.0150   25.5350   46.2790 C   0  0  0  0  0  0  0  0  0  0  0  0
   57.8200   26.2480   46.1190 C   0  0  0  0  0  0  0  0  0  0  0  0
   56.3050   25.3760   45.9110 S   0  0  0  0  0  0  0  0  0  0  0  0
   56.2990   24.5990   44.3660 N   0  0  0  0  0  0  0  0  0  0  0  0
   56.1500   24.3380   46.9870 O   0  0  0  0  0  0  0  0  0  0  0  0
   55.1570   26.3410   46.0000 O   0  0  0  0  0  0  0  0  0  0  0  0
   57.8420   27.6490   46.1300 C   0  0  0  0  0  0  0  0  0  0  0  0
   60.3840   30.8120   49.6230 C   0  0  0  0  0  0  0  0  0  0  0  0
   61.6060   30.0270   50.1190 C   0  0  0  0  0  0  0  0  0  0  0  0
   61.3413   28.6697   52.7074 H   0  0  0  0  0  0  0  0  0  0  0  0
   59.9838   29.6065   51.9959 H   0  0  0  0  0  0  0  0  0  0  0  0
   59.9331   27.8110   51.9959 H   0  0  0  0  0  0  0  0  0  0  0  0
   61.1758   27.7027   48.7297 H   0  0  0  0  0  0  0  0  0  0  0  0
   60.1815   26.9603   50.0599 H   0  0  0  0  0  0  0  0  0  0  0  0
   58.8429   28.0936   48.2238 H   0  0  0  0  0  0  0  0  0  0  0  0
   58.5206   28.6782   49.8946 H   0  0  0  0  0  0  0  0  0  0  0  0
   59.3496   34.2257   48.3632 H   0  0  0  0  0  0  0  0  0  0  0  0
   59.7850   36.2072   46.9165 H   0  0  0  0  0  0  0  0  0  0  0  0
   59.4904   36.0399   44.4446 H   0  0  0  0  0  0  0  0  0  0  0  0
   58.7353   33.8974   43.4191 H   0  0  0  0  0  0  0  0  0  0  0  0
   57.1394   31.3295   45.0878 H   0  0  0  0  0  0  0  0  0  0  0  0
   58.0848   31.6811   43.6027 H   0  0  0  0  0  0  0  0  0  0  0  0
   59.8088   30.1273   44.2733 H   0  0  0  0  0  0  0  0  0  0  0  0
   61.2018   28.1438   46.5602 H   0  0  0  0  0  0  0  0  0  0  0  0
   61.1587   25.6530   46.5679 H   0  0  0  0  0  0  0  0  0  0  0  0
   59.0019   24.4351   46.2778 H   0  0  0  0  0  0  0  0  0  0  0  0
   55.3970   24.0760   44.2920 H   0  0  0  0  0  0  0  0  0  0  0  0
   56.2690   25.3530   43.6440 H   0  0  0  0  0  0  0  0  0  0  0  0
   56.9024   28.2097   46.0172 H   0  0  0  0  0  0  0  0  0  0  0  0
   60.7198   31.7316   49.1214 H   0  0  0  0  0  0  0  0  0  0  0  0
   59.7453   31.0696   50.4808 H   0  0  0  0  0  0  0  0  0  0  0  0
   62.3241   29.9344   49.2909 H   0  0  0  0  0  0  0  0  0  0  0  0
   62.0325   30.5800   50.9688 H   0  0  0  0  0  0  0  0  0  0  0  0
  1  2  1  0
  2  3  1  0
  3  4  1  0
  4  5  1  0
  5  6  1  0
  6  7  2  0
  7  8  1  0
  8  9  2  0
  9 10  1  0
 10 11  2  0
 11 12  1  0
 12 13  2  0
 13 14  1  0
 14 15  1  0
 15 16  2  0
 16 17  1  0
 17 18  2  0
 18 19  1  0
 19 20  2  0
 20 21  1  0
 21 22  1  0
 22 23  1  0
 22 24  2  0
 22 25  2  0
 21 26  2  0
  5 27  1  0
 27 28  1  0
 28  2  1  0
 16  6  1  0
 26 17  1  0
 13  8  1  0
  1 29  1  0
  1 30  1  0
  1 31  1  0
  3 32  1  0
  3 33  1  0
  4 34  1  0
  4 35  1  0
  9 36  1  0
 10 37  1  0
 11 38  1  0
 12 39  1  0
 14 40  1  0
 14 41  1  0
 15 42  1  0
 18 43  1  0
 19 44  1  0
 20 45  1  0
 23 46  1  0
 23 47  1  0
 26 48  1  0
 27 49  1  0
 27 50  1  0
 28 51  1  0
 28 52  1  0
M  END
>  <UniqueID>  (47) 
47

>  <SMILES>  (47) 
CN1CCN(C2=Nc3ccccc3CC=C2c2cccc(S(N)(=O)=O)c2)CC1

>  <Energy>  (47) 
71.45001551110967

>  <Genealogy>  (47) 
CN1CCN(C2=Nc3ccccc3CC=C2c2cccc(S(N)(=O)=O)c2)CC1 (3D coordinates assigned)
CN1CCN(C2=Nc3ccccc3CC=C2c2cccc(S(N)(=O)=O)c2)CC1 (nonaromatic ring conformer: 71.45001551110967 kcal/mol)

>  <smiles>  (47) 
CN1CCN(C2=Nc3ccccc3CC=C2c2cccc(S(N)(=O)=O)c2)CC1

>  <score_type>  (47) 
oracle

>  <origin>  (47) 
adg

>  <m_score__min__energy>  (47) 
-7.6500000000000004

>  <m_primary>  (47) 
energy

$$$$
47:0
     RDKit          3D

 40 42  0  0  0  0  0  0  0  0999 V2000
   57.0290   34.5900   44.8790 C   0  0  0  0  0  0  0  0  0  0  0  0
   58.0240   33.8150   45.7020 C   0  0  0  0  0  0  0  0  0  0  0  0
   58.8210   34.5200   46.6250 C   0  0  0  0  0  0  0  0  0  0  0  0
   59.7330   33.8480   47.4380 C   0  0  0  0  0  0  0  0  0  0  0  0
   59.8670   32.4650   47.3420 C   0  0  0  0  0  0  0  0  0  0  0  0
   59.0970   31.7480   46.4260 C   0  0  0  0  0  0  0  0  0  0  0  0
   58.1750   32.4040   45.5860 C   0  0  0  0  0  0  0  0  0  0  0  0
   57.4030   31.5840   44.6140 C   0  0  0  0  0  0  0  0  0  0  0  0
   57.3040   31.9430   43.4090 O   0  0  0  0  0  0  0  0  0  0  0  0
   56.7520   30.3860   45.0600 N   0  0  0  0  0  0  0  0  0  0  0  0
   57.1860   29.0360   44.8400 C   0  0  0  0  0  0  0  0  0  0  0  0
   57.7420   28.6190   43.6180 C   0  0  0  0  0  0  0  0  0  0  0  0
   58.1630   27.2960   43.4540 C   0  0  0  0  0  0  0  0  0  0  0  0
   58.0570   26.3880   44.5110 C   0  0  0  0  0  0  0  0  0  0  0  0
   57.5530   26.8030   45.7490 C   0  0  0  0  0  0  0  0  0  0  0  0
   57.4630   25.8470   46.8160 N   0  0  0  0  0  0  0  0  0  0  0  0
   56.6140   24.6910   46.8460 C   0  0  0  0  0  0  0  0  0  0  0  0
   55.8840   24.5070   47.8560 O   0  0  0  0  0  0  0  0  0  0  0  0
   56.5340   23.7430   45.7090 C   0  0  0  0  0  0  0  0  0  0  0  0
   57.6800   23.0620   45.2710 C   0  0  0  0  0  0  0  0  0  0  0  0
   57.6010   22.1730   44.1980 C   0  0  0  0  0  0  0  0  0  0  0  0
   56.3680   21.9600   43.5770 C   0  0  0  0  0  0  0  0  0  0  0  0
   56.2780   21.1640   42.6050 O   0  0  0  0  0  0  0  0  0  0  0  0
   55.2600   22.6110   44.0220 N   0  0  0  0  0  0  0  0  0  0  0  0
   55.3140   23.4840   45.0640 C   0  0  0  0  0  0  0  0  0  0  0  0
   57.1040   28.1260   45.9020 C   0  0  0  0  0  0  0  0  0  0  0  0
   56.3396   35.1270   45.5472 H   0  0  0  0  0  0  0  0  0  0  0  0
   57.5622   35.3131   44.2444 H   0  0  0  0  0  0  0  0  0  0  0  0
   56.4584   33.8960   44.2444 H   0  0  0  0  0  0  0  0  0  0  0  0
   58.7229   35.6127   46.7053 H   0  0  0  0  0  0  0  0  0  0  0  0
   60.3474   34.4109   48.1561 H   0  0  0  0  0  0  0  0  0  0  0  0
   60.5818   31.9368   47.9901 H   0  0  0  0  0  0  0  0  0  0  0  0
   59.2110   30.6560   46.3585 H   0  0  0  0  0  0  0  0  0  0  0  0
   57.8460   29.3350   42.7894 H   0  0  0  0  0  0  0  0  0  0  0  0
   58.5791   26.9687   42.4898 H   0  0  0  0  0  0  0  0  0  0  0  0
   58.3708   25.3433   44.3695 H   0  0  0  0  0  0  0  0  0  0  0  0
   58.6434   23.2293   45.7748 H   0  0  0  0  0  0  0  0  0  0  0  0
   58.4997   21.6459   43.8452 H   0  0  0  0  0  0  0  0  0  0  0  0
   54.3976   23.9893   45.4028 H   0  0  0  0  0  0  0  0  0  0  0  0
   56.6839   28.4503   46.8655 H   0  0  0  0  0  0  0  0  0  0  0  0
  1  2  1  0
  2  3  2  0
  3  4  1  0
  4  5  2  0
  5  6  1  0
  6  7  2  0
  7  8  1  0
  8  9  2  0
  8 10  1  0
 10 11  1  0
 11 12  2  0
 12 13  1  0
 13 14  2  0
 14 15  1  0
 15 16  1  0
 16 17  1  0
 17 18  2  0
 17 19  1  0
 19 20  1  0
 20 21  2  0
 21 22  1  0
 22 23  2  0
 22 24  1  0
 24 25  1  0
 15 26  2  0
  7  2  1  0
 26 11  1  0
 25 19  2  0
  1 27  1  0
  1 28  1  0
  1 29  1  0
  3 30  1  0
  4 31  1  0
  5 32  1  0
  6 33  1  0
 12 34  1  0
 13 35  1  0
 14 36  1  0
 20 37  1  0
 21 38  1  0
 25 39  1  0
 26 40  1  0
M  CHG  3  10  -1  16  -1  24  -1
M  END
>  <UniqueID>  (48) 
48

>  <SMILES>  (48) 
Cc1ccccc1C(=O)[N-]c1cccc([N-]C(=O)c2ccc(=O)[n-]c2)c1

>  <Energy>  (48) 
58.70002535417773

>  <Genealogy>  (48) 
Cc1ccccc1C(=O)[N-]c1cccc([N-]C(=O)c2ccc(=O)[n-]c2)c1 (protonated)
Cc1ccccc1C(=O)[N-]c1cccc([N-]C(=O)c2ccc(=O)[n-]c2)c1 (3D coordinates assigned)
Cc1ccccc1C(=O)[N-]c1cccc([N-]C(=O)c2ccc(=O)[n-]c2)c1 (optimized conformer: 58.70002535417773 kcal/mol)

>  <smiles>  (48) 
Cc1ccccc1C(=O)Nc1cccc(NC(=O)c2ccc(=O)[nH]c2)c1

>  <score_type>  (48) 
oracle

>  <origin>  (48) 
adg

>  <m_score__min__energy>  (48) 
-13.73

>  <m_primary>  (48) 
energy

$$$$
48:0
     RDKit          3D

 49 52  0  0  0  0  0  0  0  0999 V2000
   59.3730   33.2410   49.4410 C   0  0  0  0  0  0  0  0  0  0  0  0
   59.8880   33.2860   48.1950 C   0  0  0  0  0  0  0  0  0  0  0  0
   58.9620   33.3000   47.0350 C   0  0  0  0  0  0  0  0  0  0  0  0
   58.8220   32.2480   46.1920 N   0  0  0  0  0  0  0  0  0  0  0  0
   57.8830   32.6560   45.3170 C   0  0  0  0  0  0  0  0  0  0  0  0
   57.4050   31.8530   44.1330 C   0  0  1  0  0  0  0  0  0  0  0  0
   58.3870   30.7190   43.7310 C   0  0  0  0  0  0  0  0  0  0  0  0
   57.7390   29.4750   44.1400 N   0  0  0  0  0  0  0  0  0  0  0  0
   58.4970   28.2850   44.5580 C   0  0  0  0  0  0  0  0  0  0  0  0
   57.9300   27.6450   45.8500 C   0  0  0  0  0  0  0  0  0  0  0  0
   58.9410   27.6330   46.9990 C   0  0  0  0  0  0  0  0  0  0  0  0
   59.5710   28.9530   47.1210 N   0  0  0  0  0  0  0  0  0  0  0  0
   60.3380   29.0490   48.3750 C   0  0  0  0  0  0  0  0  0  0  0  0
   60.4180   29.2960   45.9490 C   0  0  0  0  0  0  0  0  0  0  0  0
   60.0070   28.5860   44.6470 C   0  0  0  0  0  0  0  0  0  0  0  0
   56.4230   29.8280   44.5270 C   0  0  0  0  0  0  0  0  0  0  0  0
   55.5400   29.0010   44.8590 O   0  0  0  0  0  0  0  0  0  0  0  0
   56.1990   31.1830   44.4740 O   0  0  0  0  0  0  0  0  0  0  0  0
   57.5000   33.9500   45.6220 C   0  0  0  0  0  0  0  0  0  0  0  0
   58.1790   34.3630   46.7070 N   0  0  0  0  0  0  0  0  0  0  0  0
   61.3690   33.2060   48.0000 C   0  0  0  0  0  0  0  0  0  0  0  0
   61.9450   33.8070   46.8620 C   0  0  0  0  0  0  0  0  0  0  0  0
   63.3250   33.7980   46.6680 C   0  0  0  0  0  0  0  0  0  0  0  0
   64.1510   33.2120   47.6200 C   0  0  0  0  0  0  0  0  0  0  0  0
   63.5990   32.5850   48.7390 C   0  0  0  0  0  0  0  0  0  0  0  0
   62.2140   32.5540   48.9200 C   0  0  0  0  0  0  0  0  0  0  0  0
   61.7070   31.8470   49.9540 F   0  0  0  0  0  0  0  0  0  0  0  0
   60.0433   33.2300   50.3131 H   0  0  0  0  0  0  0  0  0  0  0  0
   58.2828   33.2153   49.5849 H   0  0  0  0  0  0  0  0  0  0  0  0
   57.2967   32.5732   43.3086 H   0  0  0  0  0  0  0  0  0  0  0  0
   58.5559   30.7247   42.6441 H   0  0  0  0  0  0  0  0  0  0  0  0
   59.3696   30.8427   44.2097 H   0  0  0  0  0  0  0  0  0  0  0  0
   58.3707   27.5232   43.7746 H   0  0  0  0  0  0  0  0  0  0  0  0
   57.0452   28.2168   46.1664 H   0  0  0  0  0  0  0  0  0  0  0  0
   57.6789   26.5993   45.6189 H   0  0  0  0  0  0  0  0  0  0  0  0
   58.4236   27.3872   47.9381 H   0  0  0  0  0  0  0  0  0  0  0  0
   59.7150   26.8788   46.7937 H   0  0  0  0  0  0  0  0  0  0  0  0
   59.6529   28.9633   49.2313 H   0  0  0  0  0  0  0  0  0  0  0  0
   61.0785   28.2365   48.4150 H   0  0  0  0  0  0  0  0  0  0  0  0
   60.8554   30.0189   48.4150 H   0  0  0  0  0  0  0  0  0  0  0  0
   60.3566   30.3819   45.7845 H   0  0  0  0  0  0  0  0  0  0  0  0
   61.4380   28.9590   46.1855 H   0  0  0  0  0  0  0  0  0  0  0  0
   60.2842   29.2284   43.7982 H   0  0  0  0  0  0  0  0  0  0  0  0
   60.5304   27.6187   44.6280 H   0  0  0  0  0  0  0  0  0  0  0  0
   56.7598   34.5449   45.0668 H   0  0  0  0  0  0  0  0  0  0  0  0
   61.2959   34.2898   46.1167 H   0  0  0  0  0  0  0  0  0  0  0  0
   63.7588   34.2528   45.7652 H   0  0  0  0  0  0  0  0  0  0  0  0
   65.2431   33.2423   47.4915 H   0  0  0  0  0  0  0  0  0  0  0  0
   64.2584   32.1128   49.4822 H   0  0  0  0  0  0  0  0  0  0  0  0
  1  2  2  0
  2  3  1  0
  3  4  2  0
  4  5  1  0
  5  6  1  0
  6  7  1  0
  7  8  1  0
  8  9  1  0
  9 10  1  0
 10 11  1  0
 11 12  1  0
 12 13  1  0
 12 14  1  0
 14 15  1  0
  8 16  1  0
 16 17  2  0
 16 18  1  0
  5 19  2  0
 19 20  1  0
  2 21  1  0
 21 22  2  0
 22 23  1  0
 23 24  2  0
 24 25  1  0
 25 26  2  0
 26 27  1  0
 20  3  1  0
 26 21  1  0
 18  6  1  0
 15  9  1  0
  1 28  1  0
  1 29  1  0
  6 30  1  6
  7 31  1  0
  7 32  1  0
  9 33  1  0
 10 34  1  0
 10 35  1  0
 11 36  1  0
 11 37  1  0
 13 38  1  0
 13 39  1  0
 13 40  1  0
 14 41  1  0
 14 42  1  0
 15 43  1  0
 15 44  1  0
 19 45  1  0
 22 46  1  0
 23 47  1  0
 24 48  1  0
 25 49  1  0
M  CHG  1  20  -1
M  END
>  <UniqueID>  (49) 
49

>  <SMILES>  (49) 
C=C(c1nc([C@H]2CN(C3CCN(C)CC3)C(=O)O2)c[n-]1)c1ccccc1F

>  <Energy>  (49) 
111.35287381861315

>  <Genealogy>  (49) 
C=C(c1nc(C2CN(C3CCN(C)CC3)C(=O)O2)c[n-]1)c1ccccc1F (protonated)
C=C(c1nc([C@H]2CN(C3CCN(C)CC3)C(=O)O2)c[n-]1)c1ccccc1F (chirality)
C=C(c1nc([C@H]2CN(C3CCN(C)CC3)C(=O)O2)c[n-]1)c1ccccc1F (3D coordinates assigned)
C=C(c1nc([C@H]2CN(C3CCN(C)CC3)C(=O)O2)c[n-]1)c1ccccc1F (nonaromatic ring conformer: 111.35287381861315 kcal/mol)

>  <smiles>  (49) 
C=C(c1nc(C2CN(C3CCN(C)CC3)C(=O)O2)c[nH]1)c1ccccc1F

>  <score_type>  (49) 
oracle

>  <origin>  (49) 
adg

>  <m_score__min__energy>  (49) 
-10.07

>  <m_primary>  (49) 
energy

$$$$
49:0
     RDKit          3D

 41 42  0  0  0  0  0  0  0  0999 V2000
   61.6720   33.8700   46.9830 C   0  0  0  0  0  0  0  0  0  0  0  0
   60.3570   34.2840   46.6300 O   0  0  0  0  0  0  0  0  0  0  0  0
   59.3590   33.4260   46.1440 C   0  0  0  0  0  0  0  0  0  0  0  0
   58.1050   33.8940   45.7160 C   0  0  0  0  0  0  0  0  0  0  0  0
   57.1400   32.9980   45.2490 C   0  0  0  0  0  0  0  0  0  0  0  0
   57.4100   31.6170   45.2000 C   0  0  0  0  0  0  0  0  0  0  0  0
   56.4570   30.6930   44.7430 O   0  0  0  0  0  0  0  0  0  0  0  0
   56.2710   30.3330   43.3790 C   0  0  0  0  0  0  0  0  0  0  0  0
   58.6680   31.1490   45.6200 C   0  0  0  0  0  0  0  0  0  0  0  0
   59.0330   29.4210   45.5790 S   0  0  0  0  0  0  0  0  0  0  0  0
   58.4620   28.8300   44.3230 O   0  0  0  0  0  0  0  0  0  0  0  0
   60.5170   29.1850   45.5900 O   0  0  0  0  0  0  0  0  0  0  0  0
   58.3230   28.6440   46.9530 N   0  0  0  0  0  0  0  0  0  0  0  0
   58.8440   27.4310   47.5000 C   0  0  0  0  0  0  0  0  0  0  0  0
   59.6340   27.4600   48.4820 O   0  0  0  0  0  0  0  0  0  0  0  0
   58.4260   26.1210   46.9200 C   0  0  0  0  0  0  0  0  0  0  0  0
   57.0060   25.9160   47.1680 N   0  0  0  0  0  0  0  0  0  0  0  0
   56.0380   25.8160   46.1180 C   0  0  0  0  0  0  0  0  0  0  0  0
   55.1520   26.7070   46.0040 O   0  0  0  0  0  0  0  0  0  0  0  0
   56.0700   24.6780   45.1600 C   0  0  0  0  0  0  0  0  0  0  0  0
   57.2940   24.2490   44.6220 C   0  0  0  0  0  0  0  0  0  0  0  0
   57.3370   23.2100   43.7460 N   0  0  0  0  0  0  0  0  0  0  0  0
   56.1990   22.5690   43.3700 C   0  0  0  0  0  0  0  0  0  0  0  0
   56.2510   21.6110   42.5540 O   0  0  0  0  0  0  0  0  0  0  0  0
   55.0010   22.9640   43.8700 N   0  0  0  0  0  0  0  0  0  0  0  0
   54.9060   23.9950   44.7500 C   0  0  0  0  0  0  0  0  0  0  0  0
   53.7690   24.3270   45.1760 O   0  0  0  0  0  0  0  0  0  0  0  0
   59.6310   32.0550   46.0900 C   0  0  0  0  0  0  0  0  0  0  0  0
   61.7654   33.8406   48.0786 H   0  0  0  0  0  0  0  0  0  0  0  0
   61.8638   32.8680   46.5716 H   0  0  0  0  0  0  0  0  0  0  0  0
   62.4032   34.5814   46.5716 H   0  0  0  0  0  0  0  0  0  0  0  0
   57.8821   34.9707   45.7488 H   0  0  0  0  0  0  0  0  0  0  0  0
   56.1613   33.3746   44.9169 H   0  0  0  0  0  0  0  0  0  0  0  0
   55.7667   29.3570   43.3229 H   0  0  0  0  0  0  0  0  0  0  0  0
   55.6533   31.0941   42.8798 H   0  0  0  0  0  0  0  0  0  0  0  0
   57.2492   30.2696   42.8798 H   0  0  0  0  0  0  0  0  0  0  0  0
   58.6132   26.1226   45.8360 H   0  0  0  0  0  0  0  0  0  0  0  0
   59.0027   25.3098   47.3884 H   0  0  0  0  0  0  0  0  0  0  0  0
   58.2254   24.7575   44.9115 H   0  0  0  0  0  0  0  0  0  0  0  0
   58.2590   22.9050   43.3610 H   0  0  0  0  0  0  0  0  0  0  0  0
   60.6119   31.6824   46.4201 H   0  0  0  0  0  0  0  0  0  0  0  0
  1  2  1  0
  2  3  1  0
  3  4  2  0
  4  5  1  0
  5  6  2  0
  6  7  1  0
  7  8  1  0
  6  9  1  0
  9 10  1  0
 10 11  2  0
 10 12  2  0
 10 13  1  0
 13 14  1  0
 14 15  2  0
 14 16  1  0
 16 17  1  0
 17 18  1  0
 18 19  2  0
 18 20  1  0
 20 21  2  0
 21 22  1  0
 22 23  1  0
 23 24  2  0
 23 25  1  0
 25 26  1  0
 26 27  2  0
  9 28  2  0
 28  3  1  0
 26 20  1  0
  1 29  1  0
  1 30  1  0
  1 31  1  0
  4 32  1  0
  5 33  1  0
  8 34  1  0
  8 35  1  0
  8 36  1  0
 16 37  1  0
 16 38  1  0
 21 39  1  0
 22 40  1  0
 28 41  1  0
M  CHG  3  13  -1  17  -1  25  -1
M  END
>  <UniqueID>  (50) 
50

>  <SMILES>  (50) 
COc1ccc(OC)c(S(=O)(=O)[N-]C(=O)C[N-]C(=O)c2c[nH]c(=O)[n-]c2=O)c1

>  <Energy>  (50) 
41.57980745301881

>  <Genealogy>  (50) 
COc1ccc(OC)c(S(=O)(=O)[N-]C(=O)C[N-]C(=O)c2c[nH]c(=O)[n-]c2=O)c1 (protonated)
COc1ccc(OC)c(S(=O)(=O)[N-]C(=O)C[N-]C(=O)c2c[nH]c(=O)[n-]c2=O)c1 (3D coordinates assigned)
COc1ccc(OC)c(S(=O)(=O)[N-]C(=O)C[N-]C(=O)c2c[nH]c(=O)[n-]c2=O)c1 (optimized conformer: 41.57980745301881 kcal/mol)

>  <smiles>  (50) 
COc1ccc(OC)c(S(=O)(=O)NC(=O)CNC(=O)c2c[nH]c(=O)[nH]c2=O)c1

>  <score_type>  (50) 
oracle

>  <origin>  (50) 
adg

>  <m_score__min__energy>  (50) 
-12.76

>  <m_primary>  (50) 
energy

$$$$
50:0
     RDKit          3D

 54 57  0  0  0  0  0  0  0  0999 V2000
   55.0354   30.7025   44.1043 H   0  0  0  0  0  0  0  0  0  0  0  0
   55.8500   30.0630   44.4750 C   0  0  0  0  0  0  0  0  0  0  0  0
   55.5810   28.7950   44.8790 N   0  0  0  0  0  0  0  0  0  0  0  0
   56.5440   27.9760   45.3760 C   0  0  0  0  0  0  0  0  0  0  0  0
   56.1830   26.6020   45.7730 C   0  0  0  0  0  0  0  0  0  0  0  0
   55.0790   26.4100   46.3490 O   0  0  0  0  0  0  0  0  0  0  0  0
   57.0620   25.4880   45.5370 N   0  0  0  0  0  0  0  0  0  0  0  0
   56.5950   24.1130   45.5440 C   0  0  0  0  0  0  0  0  0  0  0  0
   56.0914   23.8836   46.4947 H   0  0  0  0  0  0  0  0  0  0  0  0
   55.8670   23.9269   44.7407 H   0  0  0  0  0  0  0  0  0  0  0  0
   57.8420   23.2550   45.3830 C   0  0  0  0  0  0  0  0  0  0  0  0
   57.7926   22.3770   46.0439 H   0  0  0  0  0  0  0  0  0  0  0  0
   57.9476   22.8768   44.3555 H   0  0  0  0  0  0  0  0  0  0  0  0
   59.0090   24.1550   45.7780 C   0  0  0  0  0  0  0  0  0  0  0  0
   59.2848   23.9859   46.8293 H   0  0  0  0  0  0  0  0  0  0  0  0
   59.9036   23.9487   45.1721 H   0  0  0  0  0  0  0  0  0  0  0  0
   58.5150   25.5810   45.5820 C   0  0  0  0  0  0  0  0  0  0  0  0
   58.8335   26.2167   46.4213 H   0  0  0  0  0  0  0  0  0  0  0  0
   58.9232   26.0314   44.6652 H   0  0  0  0  0  0  0  0  0  0  0  0
   57.8640   28.4340   45.4600 C   0  0  0  0  0  0  0  0  0  0  0  0
   58.6498   27.7750   45.8578 H   0  0  0  0  0  0  0  0  0  0  0  0
   58.1880   29.7400   45.0350 C   0  0  0  0  0  0  0  0  0  0  0  0
   59.4040   30.2130   45.1140 N   0  0  0  0  0  0  0  0  0  0  0  0
   60.1890   30.4220   46.3000 C   0  0  0  0  0  0  0  0  0  0  0  0
   60.8650   31.4800   46.3940 O   0  0  0  0  0  0  0  0  0  0  0  0
   60.2820   29.3970   47.3690 C   0  0  0  0  0  0  0  0  0  0  0  0
   60.3990   28.0330   47.0460 C   0  0  0  0  0  0  0  0  0  0  0  0
   60.4325   27.7217   45.9915 H   0  0  0  0  0  0  0  0  0  0  0  0
   60.4730   27.0700   48.0580 C   0  0  0  0  0  0  0  0  0  0  0  0
   60.5581   26.0047   47.7973 H   0  0  0  0  0  0  0  0  0  0  0  0
   60.4390   27.4590   49.3980 C   0  0  0  0  0  0  0  0  0  0  0  0
   60.4949   26.7004   50.1926 H   0  0  0  0  0  0  0  0  0  0  0  0
   60.3340   28.8120   49.7300 C   0  0  0  0  0  0  0  0  0  0  0  0
   60.3103   29.1176   50.7864 H   0  0  0  0  0  0  0  0  0  0  0  0
   60.2590   29.7780   48.7230 C   0  0  0  0  0  0  0  0  0  0  0  0
   60.1815   30.8422   48.9905 H   0  0  0  0  0  0  0  0  0  0  0  0
   57.1590   30.5630   44.5270 C   0  0  0  0  0  0  0  0  0  0  0  0
   57.4320   31.9530   44.0950 C   0  0  0  0  0  0  0  0  0  0  0  0
   57.4050   32.2270   42.8660 O   0  0  0  0  0  0  0  0  0  0  0  0
   57.7080   33.0080   45.0280 N   0  0  0  0  0  0  0  0  0  0  0  0
   57.2890   33.0610   46.4270 C   0  0  0  0  0  0  0  0  0  0  0  0
   56.5482   33.8648   46.5496 H   0  0  0  0  0  0  0  0  0  0  0  0
   56.8533   32.0879   46.6975 H   0  0  0  0  0  0  0  0  0  0  0  0
   58.4600   33.3290   47.3360 C   0  0  0  0  0  0  0  0  0  0  0  0
   58.5230   32.7210   48.6000 C   0  0  0  0  0  0  0  0  0  0  0  0
   57.7362   32.0174   48.9096 H   0  0  0  0  0  0  0  0  0  0  0  0
   59.5830   33.0070   49.4670 C   0  0  0  0  0  0  0  0  0  0  0  0
   59.6305   32.5249   50.4546 H   0  0  0  0  0  0  0  0  0  0  0  0
   60.5810   33.9040   49.0800 C   0  0  0  0  0  0  0  0  0  0  0  0
   61.4073   34.1369   49.7678 H   0  0  0  0  0  0  0  0  0  0  0  0
   60.5310   34.5060   47.8200 C   0  0  0  0  0  0  0  0  0  0  0  0
   61.3227   35.2055   47.5134 H   0  0  0  0  0  0  0  0  0  0  0  0
   59.4750   34.2200   46.9480 C   0  0  0  0  0  0  0  0  0  0  0  0
   59.4392   34.6939   45.9560 H   0  0  0  0  0  0  0  0  0  0  0  0
  1  2  1  0
  2  3  1  0
  3  4  1  0
  4  5  1  0
  5  6  2  0
  5  7  1  0
  7  8  1  0
  8  9  1  0
  8 10  1  0
  8 11  1  0
 11 12  1  0
 11 13  1  0
 11 14  1  0
 14 15  1  0
 14 16  1  0
 14 17  1  0
 17 18  1  0
 17 19  1  0
  4 20  2  0
 20 21  1  0
 20 22  1  0
 22 23  2  0
 23 24  1  0
 24 25  2  0
 24 26  1  0
 26 27  2  0
 27 28  1  0
 27 29  1  0
 29 30  1  0
 29 31  2  0
 31 32  1  0
 31 33  1  0
 33 34  1  0
 33 35  2  0
 35 36  1  0
 22 37  1  0
 37 38  1  0
 38 39  2  0
 38 40  1  0
 40 41  1  0
 41 42  1  0
 41 43  1  0
 41 44  1  0
 44 45  2  0
 45 46  1  0
 45 47  1  0
 47 48  1  0
 47 49  2  0
 49 50  1  0
 49 51  1  0
 51 52  1  0
 51 53  2  0
 53 54  1  0
 37  2  2  0
 53 44  1  0
 17  7  1  0
 35 26  1  0
M  CHG  2   3  -1  40  -1
M  END
>  <UniqueID>  (51) 
51

>  <SMILES>  (51) 
O=C(/N=c1\cc(C(=O)N2CCCC2)[n-]cc1C(=O)[N-]Cc1ccccc1)c1ccccc1

>  <Energy>  (51) 
73.32506639046443

>  <Genealogy>  (51) 
O=C(N=c1cc(C(=O)N2CCCC2)[n-]cc1C(=O)[N-]Cc1ccccc1)c1ccccc1 (protonated)
O=C(/N=c1\cc(C(=O)N2CCCC2)[n-]cc1C(=O)[N-]Cc1ccccc1)c1ccccc1 (cis-trans isomerization)
O=C(/N=c1\cc(C(=O)N2CCCC2)[n-]cc1C(=O)[N-]Cc1ccccc1)c1ccccc1 (3D coordinates assigned)
O=C(/N=c1\cc(C(=O)N2CCCC2)[n-]cc1C(=O)[N-]Cc1ccccc1)c1ccccc1 (nonaromatic ring conformer: 73.32506639046443 kcal/mol)

>  <smiles>  (51) 
O=C(N=c1cc(C(=O)N2CCCC2)[nH]cc1C(=O)NCc1ccccc1)c1ccccc1

>  <score_type>  (51) 
oracle

>  <origin>  (51) 
adg

>  <m_score__min__energy>  (51) 
-12.66

>  <m_primary>  (51) 
energy

$$$$
51:0
     RDKit          3D

 59 62  0  0  0  0  0  0  0  0999 V2000
   55.4140   22.4870   47.8870 C   0  0  0  0  0  0  0  0  0  0  0  0
   55.3050   23.5030   46.7410 C   0  0  1  0  0  0  0  0  0  0  0  0
   55.8850   24.7950   47.1150 N   0  0  0  0  0  0  0  0  0  0  0  0
   56.0970   25.9170   46.2460 C   0  0  0  0  0  0  0  0  0  0  0  0
   55.1540   26.7100   45.9810 O   0  0  0  0  0  0  0  0  0  0  0  0
   57.4530   26.1850   45.6700 C   0  0  0  0  0  0  0  0  0  0  0  0
   58.1310   27.2370   46.4210 N   0  0  0  0  0  0  0  0  0  0  0  0
   58.9640   28.2390   45.8270 C   0  0  0  0  0  0  0  0  0  0  0  0
   60.2140   28.0740   45.8300 O   0  0  0  0  0  0  0  0  0  0  0  0
   58.3980   29.4560   45.2120 C   0  0  0  0  0  0  0  0  0  0  0  0
   57.5400   29.3630   44.1060 C   0  0  0  0  0  0  0  0  0  0  0  0
   57.0080   30.5180   43.5300 C   0  0  0  0  0  0  0  0  0  0  0  0
   57.3360   31.7740   44.0440 C   0  0  0  0  0  0  0  0  0  0  0  0
   58.2110   31.8810   45.1340 C   0  0  0  0  0  0  0  0  0  0  0  0
   58.6450   33.4560   45.7850 S   0  0  0  0  0  0  0  0  0  0  0  0
   57.3920   34.2650   45.9610 O   0  0  0  0  0  0  0  0  0  0  0  0
   59.5580   34.1950   44.8460 O   0  0  0  0  0  0  0  0  0  0  0  0
   59.4460   33.2460   47.3210 N   0  0  0  0  0  0  0  0  0  0  0  0
   58.5860   33.0620   48.5000 C   0  0  0  0  0  0  0  0  0  0  0  0
   59.3730   32.5410   49.7030 C   0  0  0  0  0  0  0  0  0  0  0  0
   60.5720   33.4460   49.9790 C   0  0  0  0  0  0  0  0  0  0  0  0
   61.4440   33.5510   48.7580 C   0  0  0  0  0  0  0  0  0  0  0  0
   62.8190   33.7910   48.9070 C   0  0  0  0  0  0  0  0  0  0  0  0
   63.6420   33.8980   47.7850 C   0  0  0  0  0  0  0  0  0  0  0  0
   63.0990   33.7710   46.5070 C   0  0  0  0  0  0  0  0  0  0  0  0
   61.7290   33.5490   46.3450 C   0  0  0  0  0  0  0  0  0  0  0  0
   60.8750   33.4610   47.4660 C   0  0  0  0  0  0  0  0  0  0  0  0
   58.7480   30.7220   45.7090 C   0  0  0  0  0  0  0  0  0  0  0  0
   55.8700   23.0230   45.4140 C   0  0  0  0  0  0  0  0  0  0  0  0
   56.9000   22.0620   45.4230 C   0  0  0  0  0  0  0  0  0  0  0  0
   57.4230   21.5660   44.2260 C   0  0  0  0  0  0  0  0  0  0  0  0
   56.9160   22.0110   43.0040 C   0  0  0  0  0  0  0  0  0  0  0  0
   55.8900   22.9570   42.9790 C   0  0  0  0  0  0  0  0  0  0  0  0
   55.3640   23.4600   44.1730 C   0  0  0  0  0  0  0  0  0  0  0  0
   55.3575   23.0140   48.8509 H   0  0  0  0  0  0  0  0  0  0  0  0
   54.5883   21.7637   47.8156 H   0  0  0  0  0  0  0  0  0  0  0  0
   56.3743   21.9553   47.8156 H   0  0  0  0  0  0  0  0  0  0  0  0
   54.2245   23.6260   46.5752 H   0  0  0  0  0  0  0  0  0  0  0  0
   58.0533   25.2644   45.7149 H   0  0  0  0  0  0  0  0  0  0  0  0
   57.3367   26.5127   44.6264 H   0  0  0  0  0  0  0  0  0  0  0  0
   57.2855   28.3765   43.6912 H   0  0  0  0  0  0  0  0  0  0  0  0
   56.3284   30.4383   42.6687 H   0  0  0  0  0  0  0  0  0  0  0  0
   56.9072   32.6810   43.5930 H   0  0  0  0  0  0  0  0  0  0  0  0
   58.1319   34.0286   48.7635 H   0  0  0  0  0  0  0  0  0  0  0  0
   57.8158   32.3182   48.2479 H   0  0  0  0  0  0  0  0  0  0  0  0
   58.7182   32.5253   50.5867 H   0  0  0  0  0  0  0  0  0  0  0  0
   59.7324   31.5245   49.4847 H   0  0  0  0  0  0  0  0  0  0  0  0
   60.2131   34.4485   50.2549 H   0  0  0  0  0  0  0  0  0  0  0  0
   61.1616   33.0149   50.8016 H   0  0  0  0  0  0  0  0  0  0  0  0
   63.2502   33.8953   49.9136 H   0  0  0  0  0  0  0  0  0  0  0  0
   64.7193   34.0826   47.9089 H   0  0  0  0  0  0  0  0  0  0  0  0
   63.7508   33.8458   45.6241 H   0  0  0  0  0  0  0  0  0  0  0  0
   61.3112   33.4416   45.3331 H   0  0  0  0  0  0  0  0  0  0  0  0
   59.4474   30.8039   46.5541 H   0  0  0  0  0  0  0  0  0  0  0  0
   57.2967   21.6983   46.3824 H   0  0  0  0  0  0  0  0  0  0  0  0
   58.2350   20.8242   44.2467 H   0  0  0  0  0  0  0  0  0  0  0  0
   57.3245   21.6166   42.0619 H   0  0  0  0  0  0  0  0  0  0  0  0
   55.4932   23.3086   42.0152 H   0  0  0  0  0  0  0  0  0  0  0  0
   54.5511   24.2005   44.1437 H   0  0  0  0  0  0  0  0  0  0  0  0
  1  2  1  0
  2  3  1  0
  3  4  1  0
  4  5  2  0
  4  6  1  0
  6  7  1  0
  7  8  1  0
  8  9  2  0
  8 10  1  0
 10 11  2  0
 11 12  1  0
 12 13  2  0
 13 14  1  0
 14 15  1  0
 15 16  2  0
 15 17  2  0
 15 18  1  0
 18 19  1  0
 19 20  1  0
 20 21  1  0
 21 22  1  0
 22 23  2  0
 23 24  1  0
 24 25  2  0
 25 26  1  0
 26 27  2  0
 14 28  2  0
  2 29  1  0
 29 30  2  0
 30 31  1  0
 31 32  2  0
 32 33  1  0
 33 34  2  0
 28 10  1  0
 34 29  1  0
 27 18  1  0
 27 22  1  0
  1 35  1  0
  1 36  1  0
  1 37  1  0
  2 38  1  6
  6 39  1  0
  6 40  1  0
 11 41  1  0
 12 42  1  0
 13 43  1  0
 19 44  1  0
 19 45  1  0
 20 46  1  0
 20 47  1  0
 21 48  1  0
 21 49  1  0
 23 50  1  0
 24 51  1  0
 25 52  1  0
 26 53  1  0
 28 54  1  0
 30 55  1  0
 31 56  1  0
 32 57  1  0
 33 58  1  0
 34 59  1  0
M  CHG  2   3  -1   7  -1
M  END
>  <UniqueID>  (52) 
52

>  <SMILES>  (52) 
C[C@@H]([N-]C(=O)C[N-]C(=O)c1cccc(S(=O)(=O)N2CCCc3ccccc32)c1)c1ccccc1

>  <Energy>  (52) 
69.38898016945735

>  <Genealogy>  (52) 
CC([N-]C(=O)C[N-]C(=O)c1cccc(S(=O)(=O)N2CCCc3ccccc32)c1)c1ccccc1 (protonated)
C[C@@H]([N-]C(=O)C[N-]C(=O)c1cccc(S(=O)(=O)N2CCCc3ccccc32)c1)c1ccccc1 (chirality)
C[C@@H]([N-]C(=O)C[N-]C(=O)c1cccc(S(=O)(=O)N2CCCc3ccccc32)c1)c1ccccc1 (3D coordinates assigned)
C[C@@H]([N-]C(=O)C[N-]C(=O)c1cccc(S(=O)(=O)N2CCCc3ccccc32)c1)c1ccccc1 (nonaromatic ring conformer: 69.38898016945735 kcal/mol)

>  <smiles>  (52) 
CC(NC(=O)CNC(=O)c1cccc(S(=O)(=O)N2CCCc3ccccc32)c1)c1ccccc1

>  <score_type>  (52) 
oracle

>  <origin>  (52) 
adg

>  <m_score__min__energy>  (52) 
-14.91

>  <m_primary>  (52) 
energy

$$$$
52:0
     RDKit          3D

 54 57  0  0  0  0  0  0  0  0999 V2000
   56.5640   30.2320   43.8240 C   0  0  0  0  0  0  0  0  0  0  0  0
   56.6140   31.2230   44.8450 O   0  0  0  0  0  0  0  0  0  0  0  0
   57.7990   31.7190   45.4080 C   0  0  0  0  0  0  0  0  0  0  0  0
   58.0330   33.0950   45.5840 C   0  0  0  0  0  0  0  0  0  0  0  0
   59.2390   33.5390   46.1370 C   0  0  0  0  0  0  0  0  0  0  0  0
   60.2190   32.6190   46.5250 C   0  0  0  0  0  0  0  0  0  0  0  0
   61.7730   33.1700   47.1500 S   0  0  0  0  0  0  0  0  0  0  0  0
   62.5460   33.8520   46.0570 O   0  0  0  0  0  0  0  0  0  0  0  0
   62.5660   31.9910   47.6390 O   0  0  0  0  0  0  0  0  0  0  0  0
   61.5340   34.2720   48.4660 N   0  0  0  0  0  0  0  0  0  0  0  0
   61.1030   33.7960   49.7410 C   0  0  0  0  0  0  0  0  0  0  0  0
   61.9640   33.8500   50.8450 C   0  0  0  0  0  0  0  0  0  0  0  0
   61.5830   33.2720   52.0580 C   0  0  0  0  0  0  0  0  0  0  0  0
   60.3430   32.6360   52.1700 C   0  0  0  0  0  0  0  0  0  0  0  0
   59.4690   32.5930   51.0710 C   0  0  0  0  0  0  0  0  0  0  0  0
   58.2160   31.9060   51.1510 N   0  0  0  0  0  0  0  0  0  0  0  0
   58.0540   30.4880   51.0280 C   0  0  0  0  0  0  0  0  0  0  0  0
   57.0860   29.9360   51.6120 O   0  0  0  0  0  0  0  0  0  0  0  0
   58.9440   29.6690   50.1790 C   0  0  0  0  0  0  0  0  0  0  0  0
   58.7430   29.3270   48.8430 C   0  0  0  0  0  0  0  0  0  0  0  0
   59.7240   28.4600   48.3320 C   0  0  0  0  0  0  0  0  0  0  0  0
   59.7570   27.9570   46.9410 C   0  0  0  0  0  0  0  0  0  0  0  0
   60.7660   28.2250   46.2350 O   0  0  0  0  0  0  0  0  0  0  0  0
   58.7000   27.1530   46.3790 N   0  0  0  0  0  0  0  0  0  0  0  0
   58.7030   26.7550   44.9790 C   0  0  0  0  0  0  0  0  0  0  0  0
   57.4860   25.8580   44.8050 C   0  0  0  0  0  0  0  0  0  0  0  0
   57.1410   25.3700   46.2070 C   0  0  0  0  0  0  0  0  0  0  0  0
   57.7110   26.4140   47.1540 C   0  0  0  0  0  0  0  0  0  0  0  0
   60.7140   28.1460   49.2620 C   0  0  0  0  0  0  0  0  0  0  0  0
   60.3400   28.9010   50.7150 S   0  0  0  0  0  0  0  0  0  0  0  0
   59.8440   33.1990   49.8660 C   0  0  0  0  0  0  0  0  0  0  0  0
   59.9830   31.2500   46.3600 C   0  0  0  0  0  0  0  0  0  0  0  0
   58.7830   30.8040   45.8010 C   0  0  0  0  0  0  0  0  0  0  0  0
   56.5136   29.2340   44.2838 H   0  0  0  0  0  0  0  0  0  0  0  0
   55.6729   30.3934   43.1997 H   0  0  0  0  0  0  0  0  0  0  0  0
   57.4669   30.3029   43.1997 H   0  0  0  0  0  0  0  0  0  0  0  0
   57.2653   33.8242   45.2859 H   0  0  0  0  0  0  0  0  0  0  0  0
   59.4175   34.6166   46.2673 H   0  0  0  0  0  0  0  0  0  0  0  0
   62.9408   34.3480   50.7563 H   0  0  0  0  0  0  0  0  0  0  0  0
   62.2584   33.3172   52.9251 H   0  0  0  0  0  0  0  0  0  0  0  0
   60.0508   32.1678   53.1216 H   0  0  0  0  0  0  0  0  0  0  0  0
   57.8978   29.6998   48.2458 H   0  0  0  0  0  0  0  0  0  0  0  0
   58.6246   27.6386   44.3286 H   0  0  0  0  0  0  0  0  0  0  0  0
   59.6334   26.2356   44.7059 H   0  0  0  0  0  0  0  0  0  0  0  0
   56.6467   26.4263   44.3776 H   0  0  0  0  0  0  0  0  0  0  0  0
   57.6877   25.0225   44.1185 H   0  0  0  0  0  0  0  0  0  0  0  0
   56.0505   25.2944   46.3299 H   0  0  0  0  0  0  0  0  0  0  0  0
   57.5565   24.3708   46.4043 H   0  0  0  0  0  0  0  0  0  0  0  0
   56.9160   27.0889   47.5040 H   0  0  0  0  0  0  0  0  0  0  0  0
   58.1581   25.9512   48.0461 H   0  0  0  0  0  0  0  0  0  0  0  0
   61.5924   27.5106   49.0756 H   0  0  0  0  0  0  0  0  0  0  0  0
   59.1468   33.2058   49.0152 H   0  0  0  0  0  0  0  0  0  0  0  0
   60.7458   30.5214   46.6719 H   0  0  0  0  0  0  0  0  0  0  0  0
   58.6099   29.7258   45.6686 H   0  0  0  0  0  0  0  0  0  0  0  0
  1  2  1  0
  2  3  1  0
  3  4  2  0
  4  5  1  0
  5  6  2  0
  6  7  1  0
  7  8  2  0
  7  9  2  0
  7 10  1  0
 10 11  1  0
 11 12  2  0
 12 13  1  0
 13 14  2  0
 14 15  1  0
 15 16  1  0
 16 17  1  0
 17 18  2  0
 17 19  1  0
 19 20  2  0
 20 21  1  0
 21 22  1  0
 22 23  2  0
 22 24  1  0
 24 25  1  0
 25 26  1  0
 26 27  1  0
 27 28  1  0
 21 29  2  0
 29 30  1  0
 15 31  2  0
  6 32  1  0
 32 33  2  0
 33  3  1  0
 31 11  1  0
 30 19  1  0
 28 24  1  0
  1 34  1  0
  1 35  1  0
  1 36  1  0
  4 37  1  0
  5 38  1  0
 12 39  1  0
 13 40  1  0
 14 41  1  0
 20 42  1  0
 25 43  1  0
 25 44  1  0
 26 45  1  0
 26 46  1  0
 27 47  1  0
 27 48  1  0
 28 49  1  0
 28 50  1  0
 29 51  1  0
 31 52  1  0
 32 53  1  0
 33 54  1  0
M  CHG  2  10  -1  16  -1
M  END
>  <UniqueID>  (53) 
53

>  <SMILES>  (53) 
COc1ccc(S(=O)(=O)[N-]c2cccc([N-]C(=O)c3cc(C(=O)N4CCCC4)cs3)c2)cc1

>  <Energy>  (53) 
95.93563196509115

>  <Genealogy>  (53) 
COc1ccc(S(=O)(=O)[N-]c2cccc([N-]C(=O)c3cc(C(=O)N4CCCC4)cs3)c2)cc1 (protonated)
COc1ccc(S(=O)(=O)[N-]c2cccc([N-]C(=O)c3cc(C(=O)N4CCCC4)cs3)c2)cc1 (3D coordinates assigned)
COc1ccc(S(=O)(=O)[N-]c2cccc([N-]C(=O)c3cc(C(=O)N4CCCC4)cs3)c2)cc1 (nonaromatic ring conformer: 95.93563196509115 kcal/mol)

>  <smiles>  (53) 
COc1ccc(S(=O)(=O)Nc2cccc(NC(=O)c3cc(C(=O)N4CCCC4)cs3)c2)cc1

>  <score_type>  (53) 
oracle

>  <origin>  (53) 
adg

>  <m_score__min__energy>  (53) 
-11.98

>  <m_primary>  (53) 
energy

$$$$
53:0
     RDKit          3D

 41 42  0  0  0  0  0  0  0  0999 V2000
   56.7490   20.0130   46.9380 C   0  0  0  0  0  0  0  0  0  0  0  0
   57.3550   21.1750   47.4940 O   0  0  0  0  0  0  0  0  0  0  0  0
   56.6550   22.3690   47.6920 C   0  0  0  0  0  0  0  0  0  0  0  0
   56.9990   23.1660   48.6080 O   0  0  0  0  0  0  0  0  0  0  0  0
   55.5150   22.7210   46.7840 C   0  0  0  0  0  0  0  0  0  0  0  0
   56.0080   23.1800   45.4260 C   0  0  0  0  0  0  0  0  0  0  0  0
   55.9930   22.2720   44.3430 C   0  0  0  0  0  0  0  0  0  0  0  0
   55.5130   20.9770   44.5070 O   0  0  0  0  0  0  0  0  0  0  0  0
   56.4680   22.6590   43.0880 C   0  0  0  0  0  0  0  0  0  0  0  0
   56.9820   23.9390   42.8930 C   0  0  0  0  0  0  0  0  0  0  0  0
   57.0160   24.8450   43.9520 C   0  0  0  0  0  0  0  0  0  0  0  0
   56.5210   24.4890   45.2150 C   0  0  0  0  0  0  0  0  0  0  0  0
   56.5350   25.5210   46.2720 C   0  0  0  0  0  0  0  0  0  0  0  0
   55.5330   26.2720   46.4120 O   0  0  0  0  0  0  0  0  0  0  0  0
   57.7050   25.6760   47.2010 C   0  0  0  0  0  0  0  0  0  0  0  0
   58.9350   25.6050   46.4830 O   0  0  0  0  0  0  0  0  0  0  0  0
   59.8190   26.6860   46.3680 C   0  0  0  0  0  0  0  0  0  0  0  0
   61.0490   26.5220   46.5950 O   0  0  0  0  0  0  0  0  0  0  0  0
   59.3100   28.0080   45.9490 C   0  0  0  0  0  0  0  0  0  0  0  0
   60.0230   29.1690   46.2790 C   0  0  0  0  0  0  0  0  0  0  0  0
   59.5440   30.4240   45.9050 C   0  0  0  0  0  0  0  0  0  0  0  0
   58.3400   30.5460   45.2050 C   0  0  0  0  0  0  0  0  0  0  0  0
   57.8460   32.1590   44.7040 Cl  0  0  0  0  0  0  0  0  0  0  0  0
   57.5940   29.3900   44.8790 C   0  0  0  0  0  0  0  0  0  0  0  0
   56.3400   29.4750   44.1770 N   0  0  0  0  0  0  0  0  0  0  0  0
   56.3200   29.5180   42.9290 O   0  0  0  0  0  0  0  0  0  0  0  0
   55.1480   29.3540   44.8510 O   0  0  0  0  0  0  0  0  0  0  0  0
   58.0960   28.1270   45.2510 C   0  0  0  0  0  0  0  0  0  0  0  0
   56.4056   19.3546   47.7495 H   0  0  0  0  0  0  0  0  0  0  0  0
   55.8902   20.3086   46.3174 H   0  0  0  0  0  0  0  0  0  0  0  0
   57.4829   19.4780   46.3174 H   0  0  0  0  0  0  0  0  0  0  0  0
   54.8766   21.8350   46.6518 H   0  0  0  0  0  0  0  0  0  0  0  0
   54.9500   23.5457   47.2430 H   0  0  0  0  0  0  0  0  0  0  0  0
   56.4361   21.9489   42.2485 H   0  0  0  0  0  0  0  0  0  0  0  0
   57.3610   24.2348   41.9036 H   0  0  0  0  0  0  0  0  0  0  0  0
   57.4355   25.8497   43.7953 H   0  0  0  0  0  0  0  0  0  0  0  0
   57.6379   26.6510   47.7058 H   0  0  0  0  0  0  0  0  0  0  0  0
   57.6799   24.8603   47.9386 H   0  0  0  0  0  0  0  0  0  0  0  0
   60.9675   29.0894   46.8372 H   0  0  0  0  0  0  0  0  0  0  0  0
   60.1185   31.3259   46.1630 H   0  0  0  0  0  0  0  0  0  0  0  0
   57.5293   27.2207   44.9912 H   0  0  0  0  0  0  0  0  0  0  0  0
  1  2  1  0
  2  3  1  0
  3  4  2  0
  3  5  1  0
  5  6  1  0
  6  7  2  0
  7  8  1  0
  7  9  1  0
  9 10  2  0
 10 11  1  0
 11 12  2  0
 12 13  1  0
 13 14  2  0
 13 15  1  0
 15 16  1  0
 16 17  1  0
 17 18  2  0
 17 19  1  0
 19 20  2  0
 20 21  1  0
 21 22  2  0
 22 23  1  0
 22 24  1  0
 24 25  1  0
 25 26  2  0
 25 27  1  0
 24 28  2  0
 12  6  1  0
 28 19  1  0
  1 29  1  0
  1 30  1  0
  1 31  1  0
  5 32  1  0
  5 33  1  0
  9 34  1  0
 10 35  1  0
 11 36  1  0
 15 37  1  0
 15 38  1  0
 20 39  1  0
 21 40  1  0
 28 41  1  0
M  CHG  3   8  -1  25   1  27  -1
M  END
>  <UniqueID>  (54) 
54

>  <SMILES>  (54) 
COC(=O)Cc1c([O-])cccc1C(=O)COC(=O)c1ccc(Cl)c([N+](=O)[O-])c1

>  <Energy>  (54) 
48.36635687218223

>  <Genealogy>  (54) 
COC(=O)Cc1c([O-])cccc1C(=O)COC(=O)c1ccc(Cl)c([N+](=O)[O-])c1 (protonated)
COC(=O)Cc1c([O-])cccc1C(=O)COC(=O)c1ccc(Cl)c([N+](=O)[O-])c1 (3D coordinates assigned)
COC(=O)Cc1c([O-])cccc1C(=O)COC(=O)c1ccc(Cl)c([N+](=O)[O-])c1 (optimized conformer: 48.36635687218223 kcal/mol)

>  <smiles>  (54) 
COC(=O)Cc1c(O)cccc1C(=O)COC(=O)c1ccc(Cl)c([N+](=O)[O-])c1

>  <score_type>  (54) 
oracle

>  <origin>  (54) 
adg

>  <m_score__min__energy>  (54) 
-11.48

>  <m_primary>  (54) 
energy

$$$$
54:0
     RDKit          3D

 73 78  0  0  0  0  0  0  0  0999 V2000
   57.7200   32.0610   43.1160 O   0  0  0  0  0  0  0  0  0  0  0  0
   57.0830   31.4040   43.9800 C   0  0  0  0  0  0  0  0  0  0  0  0
   56.5610   30.0400   43.6220 C   0  0  0  0  0  0  0  0  0  0  0  0
   55.9040   29.3810   44.8380 C   0  0  0  0  0  0  0  0  0  0  0  0
   56.7320   28.2280   45.3200 C   0  0  0  0  0  0  0  0  0  0  0  0
   56.2700   27.0390   45.8700 C   0  0  0  0  0  0  0  0  0  0  0  0
   54.9300   26.6890   45.9940 O   0  0  0  0  0  0  0  0  0  0  0  0
   57.2960   26.2550   46.2830 N   0  0  0  0  0  0  0  0  0  0  0  0
   57.1940   24.9060   46.8460 C   0  0  0  0  0  0  0  0  0  0  0  0
   57.2260   23.8770   45.7490 C   0  0  0  0  0  0  0  0  0  0  0  0
   56.1690   23.7970   44.8260 C   0  0  0  0  0  0  0  0  0  0  0  0
   56.2070   22.8580   43.7910 C   0  0  0  0  0  0  0  0  0  0  0  0
   57.2960   21.9910   43.6710 C   0  0  0  0  0  0  0  0  0  0  0  0
   58.3490   22.0610   44.5860 C   0  0  0  0  0  0  0  0  0  0  0  0
   58.3160   23.0010   45.6210 C   0  0  0  0  0  0  0  0  0  0  0  0
   58.4190   26.9490   45.9950 C   0  0  0  0  0  0  0  0  0  0  0  0
   59.7450   26.5710   46.2240 C   0  0  0  0  0  0  0  0  0  0  0  0
   60.7620   27.4640   45.8450 C   0  0  0  0  0  0  0  0  0  0  0  0
   60.4390   28.7070   45.2550 C   0  0  0  0  0  0  0  0  0  0  0  0
   59.0980   29.0670   45.0390 C   0  0  0  0  0  0  0  0  0  0  0  0
   58.1100   28.1580   45.4170 C   0  0  0  0  0  0  0  0  0  0  0  0
   56.8340   32.0020   45.2600 N   0  0  0  0  0  0  0  0  0  0  0  0
   57.2630   33.3430   45.6380 C   0  0  0  0  0  0  0  0  0  0  0  0
   58.7040   33.3100   46.0600 C   0  0  0  0  0  0  0  0  0  0  0  0
   59.3410   32.0810   46.2870 C   0  0  0  0  0  0  0  0  0  0  0  0
   60.6860   32.0420   46.6660 C   0  0  0  0  0  0  0  0  0  0  0  0
   61.4090   33.2320   46.8380 C   0  0  0  0  0  0  0  0  0  0  0  0
   62.8730   33.1820   47.1830 C   0  0  0  0  0  0  0  0  0  0  0  0
   63.0640   32.9590   48.6130 N   0  0  0  0  0  0  0  0  0  0  0  0
   62.4260   33.6940   49.6670 C   0  0  0  0  0  0  0  0  0  0  0  0
   62.2430   34.9280   49.5090 O   0  0  0  0  0  0  0  0  0  0  0  0
   61.8760   32.9980   50.8920 C   0  0  1  0  0  0  0  0  0  0  0  0
   60.4190   33.4080   51.2010 C   0  0  0  0  0  0  0  0  0  0  0  0
   59.5140   32.8040   50.2720 O   0  0  0  0  0  0  0  0  0  0  0  0
   59.7100   31.4970   49.8170 C   0  0  0  0  0  0  0  0  0  0  0  0
   58.6950   30.8170   49.1400 C   0  0  0  0  0  0  0  0  0  0  0  0
   58.9060   29.5000   48.7140 C   0  0  0  0  0  0  0  0  0  0  0  0
   60.1300   28.8680   48.9610 C   0  0  0  0  0  0  0  0  0  0  0  0
   61.1500   29.5530   49.6290 C   0  0  0  0  0  0  0  0  0  0  0  0
   60.9430   30.8720   50.0490 C   0  0  0  0  0  0  0  0  0  0  0  0
   61.9550   31.5820   50.7060 O   0  0  0  0  0  0  0  0  0  0  0  0
   60.7670   34.4620   46.6220 C   0  0  0  0  0  0  0  0  0  0  0  0
   59.4210   34.5020   46.2480 C   0  0  0  0  0  0  0  0  0  0  0  0
   55.8176   30.1367   42.8170 H   0  0  0  0  0  0  0  0  0  0  0  0
   57.4016   29.4136   43.2888 H   0  0  0  0  0  0  0  0  0  0  0  0
   55.8105   30.1223   45.6453 H   0  0  0  0  0  0  0  0  0  0  0  0
   54.9100   29.0094   44.5483 H   0  0  0  0  0  0  0  0  0  0  0  0
   58.0384   24.7336   47.5296 H   0  0  0  0  0  0  0  0  0  0  0  0
   56.2427   24.8175   47.3911 H   0  0  0  0  0  0  0  0  0  0  0  0
   55.3085   24.4759   44.9184 H   0  0  0  0  0  0  0  0  0  0  0  0
   55.3782   22.8017   43.0700 H   0  0  0  0  0  0  0  0  0  0  0  0
   57.3241   21.2531   42.8557 H   0  0  0  0  0  0  0  0  0  0  0  0
   59.2048   21.3763   44.4925 H   0  0  0  0  0  0  0  0  0  0  0  0
   59.1481   23.0544   46.3384 H   0  0  0  0  0  0  0  0  0  0  0  0
   59.9856   25.6028   46.6874 H   0  0  0  0  0  0  0  0  0  0  0  0
   61.8157   27.1938   46.0086 H   0  0  0  0  0  0  0  0  0  0  0  0
   61.2435   29.3979   44.9627 H   0  0  0  0  0  0  0  0  0  0  0  0
   58.8359   30.0347   44.5863 H   0  0  0  0  0  0  0  0  0  0  0  0
   57.1485   34.0200   44.7786 H   0  0  0  0  0  0  0  0  0  0  0  0
   56.6453   33.7023   46.4742 H   0  0  0  0  0  0  0  0  0  0  0  0
   58.7792   31.1430   46.1661 H   0  0  0  0  0  0  0  0  0  0  0  0
   61.1802   31.0731   46.8303 H   0  0  0  0  0  0  0  0  0  0  0  0
   63.3469   32.3616   46.6241 H   0  0  0  0  0  0  0  0  0  0  0  0
   63.3307   34.1452   46.9133 H   0  0  0  0  0  0  0  0  0  0  0  0
   62.4865   33.3059   51.7537 H   0  0  0  0  0  0  0  0  0  0  0  0
   60.1609   33.0825   52.2196 H   0  0  0  0  0  0  0  0  0  0  0  0
   60.3345   34.5014   51.1158 H   0  0  0  0  0  0  0  0  0  0  0  0
   57.7338   31.3141   48.9423 H   0  0  0  0  0  0  0  0  0  0  0  0
   58.1074   28.9605   48.1837 H   0  0  0  0  0  0  0  0  0  0  0  0
   60.2899   27.8314   48.6294 H   0  0  0  0  0  0  0  0  0  0  0  0
   62.1121   29.0566   49.8238 H   0  0  0  0  0  0  0  0  0  0  0  0
   61.3272   35.4003   46.7480 H   0  0  0  0  0  0  0  0  0  0  0  0
   58.9217   35.4710   46.1004 H   0  0  0  0  0  0  0  0  0  0  0  0
  1  2  2  0
  2  3  1  0
  3  4  1  0
  4  5  1  0
  5  6  2  0
  6  7  1  0
  6  8  1  0
  8  9  1  0
  9 10  1  0
 10 11  2  0
 11 12  1  0
 12 13  2  0
 13 14  1  0
 14 15  2  0
  8 16  1  0
 16 17  2  0
 17 18  1  0
 18 19  2  0
 19 20  1  0
 20 21  2  0
  2 22  1  0
 22 23  1  0
 23 24  1  0
 24 25  2  0
 25 26  1  0
 26 27  2  0
 27 28  1  0
 28 29  1  0
 29 30  1  0
 30 31  2  0
 30 32  1  0
 32 33  1  0
 33 34  1  0
 34 35  1  0
 35 36  2  0
 36 37  1  0
 37 38  2  0
 38 39  1  0
 39 40  2  0
 40 41  1  0
 27 42  1  0
 42 43  2  0
 21  5  1  0
 43 24  1  0
 15 10  1  0
 21 16  1  0
 41 32  1  0
 40 35  1  0
  3 44  1  0
  3 45  1  0
  4 46  1  0
  4 47  1  0
  9 48  1  0
  9 49  1  0
 11 50  1  0
 12 51  1  0
 13 52  1  0
 14 53  1  0
 15 54  1  0
 17 55  1  0
 18 56  1  0
 19 57  1  0
 20 58  1  0
 23 59  1  0
 23 60  1  0
 25 61  1  0
 26 62  1  0
 28 63  1  0
 28 64  1  0
 32 65  1  1
 33 66  1  0
 33 67  1  0
 36 68  1  0
 37 69  1  0
 38 70  1  0
 39 71  1  0
 42 72  1  0
 43 73  1  0
M  CHG  3   7  -1  22  -1  29  -1
M  END
>  <UniqueID>  (55) 
55

>  <SMILES>  (55) 
O=C(CCc1c([O-])n(Cc2ccccc2)c2ccccc12)[N-]Cc1ccc(C[N-]C(=O)[C@H]2COc3ccccc3O2)cc1

>  <Energy>  (55) 
108.26051030418854

>  <Genealogy>  (55) 
O=C(CCc1c([O-])n(Cc2ccccc2)c2ccccc12)[N-]Cc1ccc(C[N-]C(=O)C2COc3ccccc3O2)cc1 (protonated)
O=C(CCc1c([O-])n(Cc2ccccc2)c2ccccc12)[N-]Cc1ccc(C[N-]C(=O)[C@H]2COc3ccccc3O2)cc1 (chirality)
O=C(CCc1c([O-])n(Cc2ccccc2)c2ccccc12)[N-]Cc1ccc(C[N-]C(=O)[C@H]2COc3ccccc3O2)cc1 (3D coordinates assigned)
O=C(CCc1c([O-])n(Cc2ccccc2)c2ccccc12)[N-]Cc1ccc(C[N-]C(=O)[C@H]2COc3ccccc3O2)cc1 (nonaromatic ring conformer: 108.26051030418854 kcal/mol)

>  <smiles>  (55) 
O=C(CCc1c(O)n(Cc2ccccc2)c2ccccc12)NCc1ccc(CNC(=O)C2COc3ccccc3O2)cc1

>  <score_type>  (55) 
oracle

>  <origin>  (55) 
adg

>  <m_score__min__energy>  (55) 
-16.59

>  <m_primary>  (55) 
energy

$$$$
55:0
     RDKit          3D

 55 57  0  0  0  0  0  0  0  0999 V2000
   56.9990   28.5880   42.9380 O   0  0  0  0  0  0  0  0  0  0  0  0
   56.7600   29.2840   43.9590 C   0  0  0  0  0  0  0  0  0  0  0  0
   56.6750   30.7720   43.8390 C   0  0  0  0  0  0  0  0  0  0  0  0
   56.6700   31.3660   45.1360 O   0  0  0  0  0  0  0  0  0  0  0  0
   57.3000   32.5830   45.4260 C   0  0  0  0  0  0  0  0  0  0  0  0
   56.7420   33.4330   46.1710 O   0  0  0  0  0  0  0  0  0  0  0  0
   58.6230   32.8960   44.8110 C   0  0  0  0  0  0  0  0  0  0  0  0
   59.0640   34.6310   45.1730 S   0  0  0  0  0  0  0  0  0  0  0  0
   59.4800   34.4210   46.9440 C   0  0  0  0  0  0  0  0  0  0  0  0
   60.6380   33.4750   47.1530 C   0  0  0  0  0  0  0  0  0  0  0  0
   61.9190   33.8470   46.7090 C   0  0  0  0  0  0  0  0  0  0  0  0
   63.0050   32.9830   46.8700 C   0  0  0  0  0  0  0  0  0  0  0  0
   62.8280   31.7420   47.4760 C   0  0  0  0  0  0  0  0  0  0  0  0
   61.5650   31.3650   47.9340 C   0  0  0  0  0  0  0  0  0  0  0  0
   60.4690   32.2240   47.7830 C   0  0  0  0  0  0  0  0  0  0  0  0
   58.9080   31.7010   48.4030 Cl  0  0  0  0  0  0  0  0  0  0  0  0
   56.4880   28.6460   45.2070 N   0  0  0  0  0  0  0  0  0  0  0  0
   57.2240   27.5020   45.6530 C   0  0  0  0  0  0  0  0  0  0  0  0
   56.5520   26.3090   45.9670 C   0  0  0  0  0  0  0  0  0  0  0  0
   57.2650   25.1810   46.3960 C   0  0  0  0  0  0  0  0  0  0  0  0
   56.4370   23.6800   46.8230 S   0  0  0  0  0  0  0  0  0  0  0  0
   57.3790   22.8200   47.6190 O   0  0  0  0  0  0  0  0  0  0  0  0
   55.2480   24.0290   47.6760 O   0  0  0  0  0  0  0  0  0  0  0  0
   55.8960   22.7870   45.4150 N   0  0  0  0  0  0  0  0  0  0  0  0
   55.4840   23.7080   44.3210 C   0  0  0  0  0  0  0  0  0  0  0  0
   56.3130   23.5190   43.0420 C   0  0  0  0  0  0  0  0  0  0  0  0
   56.2760   22.1750   42.6070 O   0  0  0  0  0  0  0  0  0  0  0  0
   56.6580   21.2460   43.6160 C   0  0  0  0  0  0  0  0  0  0  0  0
   56.9560   21.8440   45.0050 C   0  0  0  0  0  0  0  0  0  0  0  0
   58.6590   25.2550   46.5180 C   0  0  0  0  0  0  0  0  0  0  0  0
   59.3300   26.4480   46.2350 C   0  0  0  0  0  0  0  0  0  0  0  0
   58.6170   27.5770   45.8160 C   0  0  0  0  0  0  0  0  0  0  0  0
   59.4860   29.0610   45.4590 Cl  0  0  0  0  0  0  0  0  0  0  0  0
   57.5420   31.1420   43.2721 H   0  0  0  0  0  0  0  0  0  0  0  0
   55.7454   31.0398   43.3153 H   0  0  0  0  0  0  0  0  0  0  0  0
   59.3897   32.2274   45.2294 H   0  0  0  0  0  0  0  0  0  0  0  0
   58.5660   32.7506   43.7221 H   0  0  0  0  0  0  0  0  0  0  0  0
   59.7451   35.4026   47.3638 H   0  0  0  0  0  0  0  0  0  0  0  0
   58.6008   33.9926   47.4474 H   0  0  0  0  0  0  0  0  0  0  0  0
   62.0674   34.8265   46.2309 H   0  0  0  0  0  0  0  0  0  0  0  0
   64.0025   33.2839   46.5171 H   0  0  0  0  0  0  0  0  0  0  0  0
   63.6827   31.0596   47.5936 H   0  0  0  0  0  0  0  0  0  0  0  0
   61.4291   30.3862   48.4171 H   0  0  0  0  0  0  0  0  0  0  0  0
   55.4569   26.2596   45.8754 H   0  0  0  0  0  0  0  0  0  0  0  0
   55.0680   22.2140   45.7080 H   0  0  0  0  0  0  0  0  0  0  0  0
   54.4258   23.5225   44.0849 H   0  0  0  0  0  0  0  0  0  0  0  0
   55.6483   24.7368   44.6739 H   0  0  0  0  0  0  0  0  0  0  0  0
   55.9047   24.1644   42.2503 H   0  0  0  0  0  0  0  0  0  0  0  0
   57.3573   23.7879   43.2590 H   0  0  0  0  0  0  0  0  0  0  0  0
   55.8410   20.5184   43.7307 H   0  0  0  0  0  0  0  0  0  0  0  0
   57.6059   20.8066   43.2720 H   0  0  0  0  0  0  0  0  0  0  0  0
   57.0170   21.0293   45.7416 H   0  0  0  0  0  0  0  0  0  0  0  0
   57.9095   22.3901   44.9536 H   0  0  0  0  0  0  0  0  0  0  0  0
   59.2281   24.3697   46.8381 H   0  0  0  0  0  0  0  0  0  0  0  0
   60.4236   26.4997   46.3421 H   0  0  0  0  0  0  0  0  0  0  0  0
  1  2  2  0
  2  3  1  0
  3  4  1  0
  4  5  1  0
  5  6  2  0
  5  7  1  0
  7  8  1  0
  8  9  1  0
  9 10  1  0
 10 11  2  0
 11 12  1  0
 12 13  2  0
 13 14  1  0
 14 15  2  0
 15 16  1  0
  2 17  1  0
 17 18  1  0
 18 19  2  0
 19 20  1  0
 20 21  1  0
 21 22  2  0
 21 23  2  0
 21 24  1  0
 24 25  1  0
 25 26  1  0
 26 27  1  0
 27 28  1  0
 28 29  1  0
 20 30  2  0
 30 31  1  0
 31 32  2  0
 32 33  1  0
 15 10  1  0
 32 18  1  0
 29 24  1  0
  3 34  1  0
  3 35  1  0
  7 36  1  0
  7 37  1  0
  9 38  1  0
  9 39  1  0
 11 40  1  0
 12 41  1  0
 13 42  1  0
 14 43  1  0
 19 44  1  0
 24 45  1  0
 25 46  1  0
 25 47  1  0
 26 48  1  0
 26 49  1  0
 28 50  1  0
 28 51  1  0
 29 52  1  0
 29 53  1  0
 30 54  1  0
 31 55  1  0
M  CHG  2  17  -1  24   1
M  END
>  <UniqueID>  (56) 
56

>  <SMILES>  (56) 
O=C(COC(=O)CSCc1ccccc1Cl)[N-]c1cc(S(=O)(=O)[NH+]2CCOCC2)ccc1Cl

>  <Energy>  (56) 
65.92453400913254

>  <Genealogy>  (56) 
O=C(COC(=O)CSCc1ccccc1Cl)[N-]c1cc(S(=O)(=O)[NH+]2CCOCC2)ccc1Cl (protonated)
O=C(COC(=O)CSCc1ccccc1Cl)[N-]c1cc(S(=O)(=O)[NH+]2CCOCC2)ccc1Cl (3D coordinates assigned)
O=C(COC(=O)CSCc1ccccc1Cl)[N-]c1cc(S(=O)(=O)[NH+]2CCOCC2)ccc1Cl (nonaromatic ring conformer: 65.92453400913254 kcal/mol)

>  <smiles>  (56) 
O=C(COC(=O)CSCc1ccccc1Cl)Nc1cc(S(=O)(=O)N2CCOCC2)ccc1Cl

>  <score_type>  (56) 
oracle

>  <origin>  (56) 
adg

>  <m_score__min__energy>  (56) 
-10.300000000000001

>  <m_primary>  (56) 
energy

$$$$
56:0
     RDKit          3D

 47 48  0  0  0  0  0  0  0  0999 V2000
   57.3790   25.3240   45.9290 C   0  0  0  0  0  0  0  0  0  0  0  0
   56.6540   26.6000   45.6500 C   0  0  0  0  0  0  0  0  0  0  0  0
   55.4480   26.7160   45.9960 O   0  0  0  0  0  0  0  0  0  0  0  0
   57.3500   27.6940   45.0320 N   0  0  0  0  0  0  0  0  0  0  0  0
   56.7420   28.9560   44.7120 C   0  0  0  0  0  0  0  0  0  0  0  0
   55.5130   29.1510   44.9120 O   0  0  0  0  0  0  0  0  0  0  0  0
   57.5790   30.0610   44.1420 C   0  0  0  0  0  0  0  0  0  0  0  0
   57.2440   31.3290   44.7860 N   0  0  0  0  0  0  0  0  0  0  0  0
   57.6740   32.5930   44.2620 C   0  0  0  0  0  0  0  0  0  0  0  0
   58.4240   32.6420   43.2490 O   0  0  0  0  0  0  0  0  0  0  0  0
   57.1890   33.8670   44.8820 C   0  0  0  0  0  0  0  0  0  0  0  0
   57.5500   33.9050   46.3700 C   0  0  0  0  0  0  0  0  0  0  0  0
   58.9920   33.5270   46.5720 C   0  0  0  0  0  0  0  0  0  0  0  0
   59.3250   32.3260   47.2180 C   0  0  0  0  0  0  0  0  0  0  0  0
   60.6640   31.9930   47.4410 C   0  0  0  0  0  0  0  0  0  0  0  0
   61.6900   32.8690   47.0530 C   0  0  0  0  0  0  0  0  0  0  0  0
   63.1410   32.5070   47.2930 C   0  0  0  0  0  0  0  0  0  0  0  0
   63.9000   33.3870   48.3180 C   0  0  0  0  0  0  0  0  0  0  0  0
   64.5830   32.6500   49.4710 C   0  0  0  0  0  0  0  0  0  0  0  0
   63.7040   33.4000   50.4650 C   0  0  0  0  0  0  0  0  0  0  0  0
   63.0380   34.1540   49.3220 C   0  0  0  0  0  0  0  0  0  0  0  0
   61.3540   34.0630   46.3920 C   0  0  0  0  0  0  0  0  0  0  0  0
   60.0160   34.3950   46.1660 C   0  0  0  0  0  0  0  0  0  0  0  0
   57.4613   25.1792   47.0163 H   0  0  0  0  0  0  0  0  0  0  0  0
   56.8239   24.4829   45.4881 H   0  0  0  0  0  0  0  0  0  0  0  0
   58.3857   25.3703   45.4881 H   0  0  0  0  0  0  0  0  0  0  0  0
   58.3630   27.5680   44.8120 H   0  0  0  0  0  0  0  0  0  0  0  0
   58.6424   29.8365   44.3120 H   0  0  0  0  0  0  0  0  0  0  0  0
   57.3811   30.1422   43.0630 H   0  0  0  0  0  0  0  0  0  0  0  0
   56.6510   31.3110   45.6450 H   0  0  0  0  0  0  0  0  0  0  0  0
   57.6597   34.7207   44.3725 H   0  0  0  0  0  0  0  0  0  0  0  0
   56.0954   33.9221   44.7776 H   0  0  0  0  0  0  0  0  0  0  0  0
   57.3846   34.9214   46.7568 H   0  0  0  0  0  0  0  0  0  0  0  0
   56.9149   33.1863   46.9087 H   0  0  0  0  0  0  0  0  0  0  0  0
   58.5285   31.6439   47.5502 H   0  0  0  0  0  0  0  0  0  0  0  0
   60.9157   31.0374   47.9241 H   0  0  0  0  0  0  0  0  0  0  0  0
   63.1736   31.4678   47.6522 H   0  0  0  0  0  0  0  0  0  0  0  0
   63.6496   32.6668   46.3308 H   0  0  0  0  0  0  0  0  0  0  0  0
   64.5020   33.9309   47.5752 H   0  0  0  0  0  0  0  0  0  0  0  0
   64.4264   31.5612   49.4644 H   0  0  0  0  0  0  0  0  0  0  0  0
   65.6782   32.6649   49.5722 H   0  0  0  0  0  0  0  0  0  0  0  0
   63.0194   32.7536   51.0338 H   0  0  0  0  0  0  0  0  0  0  0  0
   64.1597   33.9515   51.3006 H   0  0  0  0  0  0  0  0  0  0  0  0
   61.9589   33.9633   49.2261 H   0  0  0  0  0  0  0  0  0  0  0  0
   63.0192   35.2538   49.3154 H   0  0  0  0  0  0  0  0  0  0  0  0
   62.1501   34.7408   46.0502 H   0  0  0  0  0  0  0  0  0  0  0  0
   59.7642   35.3424   45.6669 H   0  0  0  0  0  0  0  0  0  0  0  0
  1  2  1  0
  2  3  2  0
  2  4  1  0
  4  5  1  0
  5  6  2  0
  5  7  1  0
  7  8  1  0
  8  9  1  0
  9 10  2  0
  9 11  1  0
 11 12  1  0
 12 13  1  0
 13 14  2  0
 14 15  1  0
 15 16  2  0
 16 17  1  0
 17 18  1  0
 18 19  1  0
 19 20  1  0
 20 21  1  0
 16 22  1  0
 22 23  2  0
 23 13  1  0
 21 18  1  0
  1 24  1  0
  1 25  1  0
  1 26  1  0
  4 27  1  0
  7 28  1  0
  7 29  1  0
  8 30  1  0
 11 31  1  0
 11 32  1  0
 12 33  1  0
 12 34  1  0
 14 35  1  0
 15 36  1  0
 17 37  1  0
 17 38  1  0
 18 39  1  0
 19 40  1  0
 19 41  1  0
 20 42  1  0
 20 43  1  0
 21 44  1  0
 21 45  1  0
 22 46  1  0
 23 47  1  0
M  END
>  <UniqueID>  (57) 
57

>  <SMILES>  (57) 
CC(=O)NC(=O)CNC(=O)CCc1ccc(CC2CCC2)cc1

>  <Energy>  (57) 
96.51213234350453

>  <Genealogy>  (57) 
CC(=O)NC(=O)CNC(=O)CCc1ccc(CC2CCC2)cc1 (3D coordinates assigned)
CC(=O)NC(=O)CNC(=O)CCc1ccc(CC2CCC2)cc1 (nonaromatic ring conformer: 96.51213234350453 kcal/mol)

>  <smiles>  (57) 
CC(=O)NC(=O)CNC(=O)CCc1ccc(CC2CCC2)cc1

>  <score_type>  (57) 
oracle

>  <origin>  (57) 
adg

>  <m_score__min__energy>  (57) 
-9.2599999999999998

>  <m_primary>  (57) 
energy

$$$$
57:0
     RDKit          3D

 38 41  0  0  0  0  0  0  0  0999 V2000
   59.1080   35.2100   44.8680 C   0  0  0  0  0  0  0  0  0  0  0  0
   59.2130   34.5590   46.2080 C   0  0  0  0  0  0  0  0  0  0  0  0
   59.6120   35.1850   47.2910 O   0  0  0  0  0  0  0  0  0  0  0  0
   59.5860   34.3990   48.3280 N   0  0  0  0  0  0  0  0  0  0  0  0
   59.1560   33.1920   47.9080 C   0  0  0  0  0  0  0  0  0  0  0  0
   59.0320   32.0250   48.8070 C   0  0  0  0  0  0  0  0  0  0  0  0
   58.2250   32.0760   49.9570 C   0  0  0  0  0  0  0  0  0  0  0  0
   58.1070   30.9580   50.7870 C   0  0  0  0  0  0  0  0  0  0  0  0
   58.7810   29.7760   50.4700 C   0  0  0  0  0  0  0  0  0  0  0  0
   59.5660   29.7080   49.3160 C   0  0  0  0  0  0  0  0  0  0  0  0
   59.6870   30.8250   48.4840 C   0  0  0  0  0  0  0  0  0  0  0  0
   58.9080   33.2490   46.5410 C   0  0  0  0  0  0  0  0  0  0  0  0
   58.3040   32.2100   45.6830 C   0  0  0  0  0  0  0  0  0  0  0  0
   58.2120   32.3140   44.2940 C   0  0  0  0  0  0  0  0  0  0  0  0
   57.4790   30.9160   43.7140 S   0  0  0  0  0  0  0  0  0  0  0  0
   57.2970   30.2490   45.2530 C   0  0  0  0  0  0  0  0  0  0  0  0
   56.7970   29.0820   45.5340 N   0  0  0  0  0  0  0  0  0  0  0  0
   57.2160   27.8230   44.9840 C   0  0  0  0  0  0  0  0  0  0  0  0
   57.6840   27.8030   43.8150 O   0  0  0  0  0  0  0  0  0  0  0  0
   57.1860   26.5660   45.7730 C   0  0  0  0  0  0  0  0  0  0  0  0
   55.9700   26.0400   46.2430 C   0  0  0  0  0  0  0  0  0  0  0  0
   54.7690   26.6970   45.9990 O   0  0  0  0  0  0  0  0  0  0  0  0
   55.9590   24.8860   46.9590 N   0  0  0  0  0  0  0  0  0  0  0  0
   57.1070   24.2180   47.2290 C   0  0  0  0  0  0  0  0  0  0  0  0
   57.0730   23.1520   47.8970 O   0  0  0  0  0  0  0  0  0  0  0  0
   58.2950   24.6950   46.7770 N   0  0  0  0  0  0  0  0  0  0  0  0
   58.3620   25.8430   46.0560 C   0  0  0  0  0  0  0  0  0  0  0  0
   59.4810   26.2390   45.6340 O   0  0  0  0  0  0  0  0  0  0  0  0
   57.7980   31.0600   46.2060 N   0  0  0  0  0  0  0  0  0  0  0  0
   58.9341   36.2885   44.9969 H   0  0  0  0  0  0  0  0  0  0  0  0
   60.0430   35.0535   44.3101 H   0  0  0  0  0  0  0  0  0  0  0  0
   58.2696   34.7675   44.3101 H   0  0  0  0  0  0  0  0  0  0  0  0
   57.6836   33.0009   50.2048 H   0  0  0  0  0  0  0  0  0  0  0  0
   57.4826   31.0087   51.6912 H   0  0  0  0  0  0  0  0  0  0  0  0
   58.6937   28.8993   51.1286 H   0  0  0  0  0  0  0  0  0  0  0  0
   60.0894   28.7745   49.0619 H   0  0  0  0  0  0  0  0  0  0  0  0
   60.2984   30.7639   47.5716 H   0  0  0  0  0  0  0  0  0  0  0  0
   58.5584   33.1622   43.6852 H   0  0  0  0  0  0  0  0  0  0  0  0
  1  2  1  0
  2  3  1  0
  3  4  1  0
  4  5  2  0
  5  6  1  0
  6  7  2  0
  7  8  1  0
  8  9  2  0
  9 10  1  0
 10 11  2  0
  5 12  1  0
 12 13  1  0
 13 14  2  0
 14 15  1  0
 15 16  1  0
 16 17  2  3
 17 18  1  0
 18 19  2  0
 18 20  1  0
 20 21  2  0
 21 22  1  0
 21 23  1  0
 23 24  1  0
 24 25  2  0
 24 26  1  0
 26 27  1  0
 27 28  2  0
 16 29  1  0
 12  2  2  0
 29 13  1  0
 11  6  1  0
 27 20  1  0
  1 30  1  0
  1 31  1  0
  1 32  1  0
  7 33  1  0
  8 34  1  0
  9 35  1  0
 10 36  1  0
 11 37  1  0
 14 38  1  0
M  CHG  4  22  -1  23  -1  26  -1  29  -1
M  END
>  <UniqueID>  (58) 
58

>  <SMILES>  (58) 
Cc1onc(-c2ccccc2)c1-c1csc(=NC(=O)c2c([O-])[n-]c(=O)[n-]c2=O)[n-]1

>  <Energy>  (58) 
122.09801363818892

>  <Genealogy>  (58) 
Cc1onc(-c2ccccc2)c1-c1csc(=NC(=O)c2c([O-])[n-]c(=O)[n-]c2=O)[n-]1 (protonated)
Cc1onc(-c2ccccc2)c1-c1csc(=NC(=O)c2c([O-])[n-]c(=O)[n-]c2=O)[n-]1 (3D coordinates assigned)
Cc1onc(-c2ccccc2)c1-c1csc(=NC(=O)c2c([O-])[n-]c(=O)[n-]c2=O)[n-]1 (optimized conformer: 122.09801363818892 kcal/mol)

>  <smiles>  (58) 
Cc1onc(-c2ccccc2)c1-c1csc(=NC(=O)c2c(O)[nH]c(=O)[nH]c2=O)[nH]1

>  <score_type>  (58) 
oracle

>  <origin>  (58) 
adg

>  <m_score__min__energy>  (58) 
-18.07

>  <m_primary>  (58) 
energy

$$$$
58:0
     RDKit          3D

 64 67  0  0  0  0  0  0  0  0999 V2000
   50.7960   32.4350   52.7620 C   0  0  0  0  0  0  0  0  0  0  0  0
   51.4230   31.9630   51.4940 C   0  0  0  0  0  0  0  0  0  0  0  0
   51.3920   32.7090   50.4790 O   0  0  0  0  0  0  0  0  0  0  0  0
   52.0770   30.6860   51.4660 N   0  0  0  0  0  0  0  0  0  0  0  0
   53.3500   30.2930   52.0060 C   0  0  0  0  0  0  0  0  0  0  0  0
   54.4460   31.1330   51.7770 C   0  0  0  0  0  0  0  0  0  0  0  0
   55.7250   30.7760   52.2150 C   0  0  0  0  0  0  0  0  0  0  0  0
   55.9260   29.5700   52.9030 C   0  0  0  0  0  0  0  0  0  0  0  0
   57.3200   29.1260   53.2520 C   0  0  0  0  0  0  0  0  0  0  0  0
   58.1350   30.3120   53.5650 N   0  0  0  0  0  0  0  0  0  0  0  0
   59.5070   30.2290   53.0460 C   0  0  0  0  0  0  0  0  0  0  0  0
   59.5160   29.9820   51.5600 C   0  0  0  0  0  0  0  0  0  0  0  0
   58.9090   30.9020   50.6910 C   0  0  0  0  0  0  0  0  0  0  0  0
   58.8600   30.6470   49.3160 C   0  0  0  0  0  0  0  0  0  0  0  0
   59.3980   29.4570   48.7960 C   0  0  0  0  0  0  0  0  0  0  0  0
   59.2990   29.1530   47.3520 C   0  0  0  0  0  0  0  0  0  0  0  0
   60.3450   28.4840   46.6990 C   0  0  0  0  0  0  0  0  0  0  0  0
   60.2620   28.2130   45.3310 C   0  0  0  0  0  0  0  0  0  0  0  0
   59.1460   28.6250   44.6010 C   0  0  0  0  0  0  0  0  0  0  0  0
   58.0970   29.3010   45.2400 C   0  0  0  0  0  0  0  0  0  0  0  0
   56.6900   29.8430   44.3300 S   0  0  0  0  0  0  0  0  0  0  0  0
   55.4530   29.1330   44.8090 O   0  0  0  0  0  0  0  0  0  0  0  0
   56.9010   29.5170   42.8780 O   0  0  0  0  0  0  0  0  0  0  0  0
   56.4850   31.5590   44.5080 N   0  0  0  0  0  0  0  0  0  0  0  0
   57.6800   32.2520   44.0280 C   0  0  0  0  0  0  0  0  0  0  0  0
   58.2560   33.0900   45.1330 C   0  0  0  0  0  0  0  0  0  0  0  0
   58.9750   34.2600   44.8370 C   0  0  0  0  0  0  0  0  0  0  0  0
   59.4810   35.0550   45.8700 C   0  0  0  0  0  0  0  0  0  0  0  0
   59.2600   34.6950   47.2030 C   0  0  0  0  0  0  0  0  0  0  0  0
   58.5270   33.5450   47.5040 C   0  0  0  0  0  0  0  0  0  0  0  0
   58.0230   32.7450   46.4730 C   0  0  0  0  0  0  0  0  0  0  0  0
   58.1670   29.5470   46.6170 C   0  0  0  0  0  0  0  0  0  0  0  0
   60.0170   28.5450   49.6670 C   0  0  0  0  0  0  0  0  0  0  0  0
   60.0920   28.8140   51.0360 C   0  0  0  0  0  0  0  0  0  0  0  0
   54.8260   28.7390   53.1570 C   0  0  0  0  0  0  0  0  0  0  0  0
   53.5530   29.0860   52.7020 C   0  0  0  0  0  0  0  0  0  0  0  0
   51.3464   32.0207   53.6196 H   0  0  0  0  0  0  0  0  0  0  0  0
   50.8297   33.5338   52.8009 H   0  0  0  0  0  0  0  0  0  0  0  0
   49.7494   32.0987   52.8009 H   0  0  0  0  0  0  0  0  0  0  0  0
   54.2994   32.0852   51.2462 H   0  0  0  0  0  0  0  0  0  0  0  0
   56.5771   31.4435   52.0193 H   0  0  0  0  0  0  0  0  0  0  0  0
   57.2870   28.4596   54.1265 H   0  0  0  0  0  0  0  0  0  0  0  0
   57.7618   28.5842   52.4027 H   0  0  0  0  0  0  0  0  0  0  0  0
   58.2030   30.4040   54.6070 H   0  0  0  0  0  0  0  0  0  0  0  0
   60.0271   31.1755   53.2551 H   0  0  0  0  0  0  0  0  0  0  0  0
   60.0151   29.3882   53.5408 H   0  0  0  0  0  0  0  0  0  0  0  0
   58.4700   31.8273   51.0925 H   0  0  0  0  0  0  0  0  0  0  0  0
   58.3985   31.3810   48.6391 H   0  0  0  0  0  0  0  0  0  0  0  0
   61.2341   28.1716   47.2664 H   0  0  0  0  0  0  0  0  0  0  0  0
   61.0781   27.6736   44.8280 H   0  0  0  0  0  0  0  0  0  0  0  0
   59.0894   28.4189   43.5220 H   0  0  0  0  0  0  0  0  0  0  0  0
   56.3880   31.7420   45.5320 H   0  0  0  0  0  0  0  0  0  0  0  0
   58.4262   31.5121   43.7030 H   0  0  0  0  0  0  0  0  0  0  0  0
   57.4103   32.9003   43.1813 H   0  0  0  0  0  0  0  0  0  0  0  0
   59.1404   34.5516   43.7893 H   0  0  0  0  0  0  0  0  0  0  0  0
   60.0533   35.9642   45.6339 H   0  0  0  0  0  0  0  0  0  0  0  0
   59.6637   35.3179   48.0149 H   0  0  0  0  0  0  0  0  0  0  0  0
   58.3458   33.2679   48.5530 H   0  0  0  0  0  0  0  0  0  0  0  0
   57.4421   31.8424   46.7136 H   0  0  0  0  0  0  0  0  0  0  0  0
   57.3322   30.0510   47.1260 H   0  0  0  0  0  0  0  0  0  0  0  0
   60.4453   27.6134   49.2687 H   0  0  0  0  0  0  0  0  0  0  0  0
   60.6044   28.1078   51.7058 H   0  0  0  0  0  0  0  0  0  0  0  0
   54.9674   27.8047   53.7202 H   0  0  0  0  0  0  0  0  0  0  0  0
   52.7034   28.4126   52.8882 H   0  0  0  0  0  0  0  0  0  0  0  0
  1  2  1  0
  2  3  2  0
  2  4  1  0
  4  5  1  0
  5  6  2  0
  6  7  1  0
  7  8  2  0
  8  9  1  0
  9 10  1  0
 10 11  1  0
 11 12  1  0
 12 13  2  0
 13 14  1  0
 14 15  2  0
 15 16  1  0
 16 17  2  0
 17 18  1  0
 18 19  2  0
 19 20  1  0
 20 21  1  0
 21 22  2  0
 21 23  2  0
 21 24  1  0
 24 25  1  0
 25 26  1  0
 26 27  2  0
 27 28  1  0
 28 29  2  0
 29 30  1  0
 30 31  2  0
 20 32  2  0
 15 33  1  0
 33 34  2  0
  8 35  1  0
 35 36  2  0
 36  5  1  0
 34 12  1  0
 32 16  1  0
 31 26  1  0
  1 37  1  0
  1 38  1  0
  1 39  1  0
  6 40  1  0
  7 41  1  0
  9 42  1  0
  9 43  1  0
 10 44  1  0
 11 45  1  0
 11 46  1  0
 13 47  1  0
 14 48  1  0
 17 49  1  0
 18 50  1  0
 19 51  1  0
 24 52  1  0
 25 53  1  0
 25 54  1  0
 27 55  1  0
 28 56  1  0
 29 57  1  0
 30 58  1  0
 31 59  1  0
 32 60  1  0
 33 61  1  0
 34 62  1  0
 35 63  1  0
 36 64  1  0
M  CHG  1   4  -1
M  END
>  <UniqueID>  (59) 
59

>  <SMILES>  (59) 
CC(=O)[N-]c1ccc(CNCc2ccc(-c3cccc(S(=O)(=O)NCc4ccccc4)c3)cc2)cc1

>  <Energy>  (59) 
71.89670803182615

>  <Genealogy>  (59) 
CC(=O)[N-]c1ccc(CNCc2ccc(-c3cccc(S(=O)(=O)NCc4ccccc4)c3)cc2)cc1 (protonated)
CC(=O)[N-]c1ccc(CNCc2ccc(-c3cccc(S(=O)(=O)NCc4ccccc4)c3)cc2)cc1 (3D coordinates assigned)
CC(=O)[N-]c1ccc(CNCc2ccc(-c3cccc(S(=O)(=O)NCc4ccccc4)c3)cc2)cc1 (optimized conformer: 71.89670803182615 kcal/mol)

>  <smiles>  (59) 
CC(=O)Nc1ccc(CNCc2ccc(-c3cccc(S(=O)(=O)NCc4ccccc4)c3)cc2)cc1

>  <score_type>  (59) 
oracle

>  <origin>  (59) 
adg

>  <m_score__min__energy>  (59) 
-12.710000000000001

>  <m_primary>  (59) 
energy

$$$$
59:0
     RDKit          3D

 41 43  0  0  0  0  0  0  0  0999 V2000
   58.7179   29.6033   45.4534 H   0  0  0  0  0  0  0  0  0  0  0  0
   57.6790   29.8090   45.1560 C   0  0  0  0  0  0  0  0  0  0  0  0
   56.7160   28.6920   45.1860 C   0  0  0  0  0  0  0  0  0  0  0  0
   55.5200   28.9470   44.8720 O   0  0  0  0  0  0  0  0  0  0  0  0
   57.1030   27.2950   45.5780 C   0  0  0  0  0  0  0  0  0  0  0  0
   56.1160   26.3640   45.9880 C   0  0  0  0  0  0  0  0  0  0  0  0
   54.7690   26.7160   46.0360 O   0  0  0  0  0  0  0  0  0  0  0  0
   56.4640   25.0990   46.3380 N   0  0  0  0  0  0  0  0  0  0  0  0
   55.7200   24.4240   46.6350 H   0  0  0  0  0  0  0  0  0  0  0  0
   57.7570   24.6850   46.2790 C   0  0  0  0  0  0  0  0  0  0  0  0
   58.0580   23.5020   46.5940 O   0  0  0  0  0  0  0  0  0  0  0  0
   58.7270   25.5450   45.8800 N   0  0  0  0  0  0  0  0  0  0  0  0
   58.4400   26.8250   45.5280 C   0  0  0  0  0  0  0  0  0  0  0  0
   59.3890   27.5700   45.1580 O   0  0  0  0  0  0  0  0  0  0  0  0
   57.3650   31.0610   44.7880 C   0  0  0  0  0  0  0  0  0  0  0  0
   56.5702   31.1816   44.0371 H   0  0  0  0  0  0  0  0  0  0  0  0
   58.0010   32.2960   45.3100 C   0  0  0  0  0  0  0  0  0  0  0  0
   58.3460   33.3190   44.4150 C   0  0  0  0  0  0  0  0  0  0  0  0
   58.1742   33.1829   43.3371 H   0  0  0  0  0  0  0  0  0  0  0  0
   58.9070   34.5110   44.8840 C   0  0  0  0  0  0  0  0  0  0  0  0
   59.1813   35.3046   44.1734 H   0  0  0  0  0  0  0  0  0  0  0  0
   59.1200   34.6970   46.2510 C   0  0  0  0  0  0  0  0  0  0  0  0
   59.5701   35.6339   46.6109 H   0  0  0  0  0  0  0  0  0  0  0  0
   58.7650   33.7000   47.1670 C   0  0  0  0  0  0  0  0  0  0  0  0
   58.9780   33.9410   48.5360 O   0  0  0  0  0  0  0  0  0  0  0  0
   59.9670   33.2900   49.3400 C   0  0  0  0  0  0  0  0  0  0  0  0
   60.1960   33.9235   50.2096 H   0  0  0  0  0  0  0  0  0  0  0  0
   59.5677   32.3171   49.6625 H   0  0  0  0  0  0  0  0  0  0  0  0
   61.2350   33.0500   48.5590 C   0  0  0  0  0  0  0  0  0  0  0  0
   61.4670   31.8070   47.9440 C   0  0  0  0  0  0  0  0  0  0  0  0
   60.7246   31.0011   48.0405 H   0  0  0  0  0  0  0  0  0  0  0  0
   62.6380   31.5910   47.2100 C   0  0  0  0  0  0  0  0  0  0  0  0
   62.8059   30.6234   46.7145 H   0  0  0  0  0  0  0  0  0  0  0  0
   63.5960   32.6060   47.1060 C   0  0  0  0  0  0  0  0  0  0  0  0
   64.5139   32.4373   46.5238 H   0  0  0  0  0  0  0  0  0  0  0  0
   63.3880   33.8340   47.7410 C   0  0  0  0  0  0  0  0  0  0  0  0
   64.1467   34.6270   47.6669 H   0  0  0  0  0  0  0  0  0  0  0  0
   62.2160   34.0540   48.4700 C   0  0  0  0  0  0  0  0  0  0  0  0
   62.0599   35.0177   48.9769 H   0  0  0  0  0  0  0  0  0  0  0  0
   58.1840   32.5080   46.6890 C   0  0  0  0  0  0  0  0  0  0  0  0
   57.8694   31.7331   47.4036 H   0  0  0  0  0  0  0  0  0  0  0  0
  1  2  1  0
  2  3  1  0
  3  4  2  0
  3  5  1  0
  5  6  2  0
  6  7  1  0
  6  8  1  0
  8  9  1  0
  8 10  1  0
 10 11  2  0
 10 12  1  0
 12 13  1  0
 13 14  2  0
  2 15  2  0
 15 16  1  0
 15 17  1  0
 17 18  2  0
 18 19  1  0
 18 20  1  0
 20 21  1  0
 20 22  2  0
 22 23  1  0
 22 24  1  0
 24 25  1  0
 25 26  1  0
 26 27  1  0
 26 28  1  0
 26 29  1  0
 29 30  2  0
 30 31  1  0
 30 32  1  0
 32 33  1  0
 32 34  2  0
 34 35  1  0
 34 36  1  0
 36 37  1  0
 36 38  2  0
 38 39  1  0
 24 40  2  0
 40 41  1  0
 13  5  1  0
 40 17  1  0
 38 29  1  0
M  CHG  2   7  -1  12  -1
M  END
>  <UniqueID>  (60) 
60

>  <SMILES>  (60) 
O=C(/C=C\c1cccc(OCc2ccccc2)c1)c1c([O-])[nH]c(=O)[n-]c1=O

>  <Energy>  (60) 
58.052014567151694

>  <Genealogy>  (60) 
O=C(C=Cc1cccc(OCc2ccccc2)c1)c1c([O-])[nH]c(=O)[n-]c1=O (protonated)
O=C(/C=C\c1cccc(OCc2ccccc2)c1)c1c([O-])[nH]c(=O)[n-]c1=O (cis-trans isomerization)
O=C(/C=C\c1cccc(OCc2ccccc2)c1)c1c([O-])[nH]c(=O)[n-]c1=O (3D coordinates assigned)
O=C(/C=C\c1cccc(OCc2ccccc2)c1)c1c([O-])[nH]c(=O)[n-]c1=O (optimized conformer: 58.052014567151694 kcal/mol)

>  <smiles>  (60) 
O=C(C=Cc1cccc(OCc2ccccc2)c1)c1c(O)[nH]c(=O)[nH]c1=O

>  <score_type>  (60) 
oracle

>  <origin>  (60) 
adg

>  <m_score__min__energy>  (60) 
-14.550000000000001

>  <m_primary>  (60) 
energy

$$$$
60:0
     RDKit          3D

 49 51  0  0  0  0  0  0  0  0999 V2000
   58.2690   21.0240   46.1470 N   0  0  0  0  0  0  0  0  0  0  0  0
   58.9040   22.4420   45.3860 S   0  0  0  0  0  0  0  0  0  0  0  0
   58.2680   22.6160   44.0350 O   0  0  0  0  0  0  0  0  0  0  0  0
   60.3880   22.2830   45.2120 O   0  0  0  0  0  0  0  0  0  0  0  0
   58.6010   23.8410   46.3770 N   0  0  0  0  0  0  0  0  0  0  0  0
   59.4760   24.9530   46.0030 C   0  0  0  0  0  0  0  0  0  0  0  0
   58.6720   26.1810   45.6690 C   0  0  0  0  0  0  0  0  0  0  0  0
   57.3210   26.2610   46.0380 C   0  0  0  0  0  0  0  0  0  0  0  0
   56.5670   27.3950   45.7230 C   0  0  0  0  0  0  0  0  0  0  0  0
   57.1560   28.4740   45.0420 C   0  0  0  0  0  0  0  0  0  0  0  0
   56.3510   29.6750   44.7160 C   0  0  0  0  0  0  0  0  0  0  0  0
   55.0960   29.5780   44.6460 O   0  0  0  0  0  0  0  0  0  0  0  0
   56.9580   30.9410   44.4250 N   0  0  0  0  0  0  0  0  0  0  0  0
   57.7900   31.7010   45.3130 C   0  0  0  0  0  0  0  0  0  0  0  0
   58.4750   31.0960   46.3800 C   0  0  0  0  0  0  0  0  0  0  0  0
   59.2760   31.8640   47.2300 C   0  0  0  0  0  0  0  0  0  0  0  0
   59.4000   33.2490   47.0310 C   0  0  0  0  0  0  0  0  0  0  0  0
   60.2460   34.0670   47.9320 C   0  0  0  0  0  0  0  0  0  0  0  0
   59.7130   34.9640   48.6410 O   0  0  0  0  0  0  0  0  0  0  0  0
   61.6630   33.8410   48.0280 N   0  0  0  0  0  0  0  0  0  0  0  0
   62.4950   33.9040   46.8230 C   0  0  0  0  0  0  0  0  0  0  0  0
   63.7630   33.0700   47.0330 C   0  0  0  0  0  0  0  0  0  0  0  0
   64.4280   33.4580   48.2200 O   0  0  0  0  0  0  0  0  0  0  0  0
   63.6150   33.1690   49.3440 C   0  0  0  0  0  0  0  0  0  0  0  0
   62.3330   34.0070   49.3190 C   0  0  0  0  0  0  0  0  0  0  0  0
   58.6800   33.8560   45.9880 C   0  0  0  0  0  0  0  0  0  0  0  0
   57.8790   33.0860   45.1390 C   0  0  0  0  0  0  0  0  0  0  0  0
   58.5060   28.3850   44.6610 C   0  0  0  0  0  0  0  0  0  0  0  0
   59.2590   27.2520   44.9780 C   0  0  0  0  0  0  0  0  0  0  0  0
   58.5100   21.0880   47.1610 H   0  0  0  0  0  0  0  0  0  0  0  0
   58.7940   20.2080   45.7610 H   0  0  0  0  0  0  0  0  0  0  0  0
   60.1484   25.1804   46.8433 H   0  0  0  0  0  0  0  0  0  0  0  0
   60.0557   24.6605   45.1151 H   0  0  0  0  0  0  0  0  0  0  0  0
   56.8519   25.4258   46.5788 H   0  0  0  0  0  0  0  0  0  0  0  0
   55.5062   27.4432   46.0099 H   0  0  0  0  0  0  0  0  0  0  0  0
   58.3806   30.0129   46.5473 H   0  0  0  0  0  0  0  0  0  0  0  0
   59.8125   31.3808   48.0598 H   0  0  0  0  0  0  0  0  0  0  0  0
   61.9312   33.5047   45.9670 H   0  0  0  0  0  0  0  0  0  0  0  0
   62.7729   34.9495   46.6238 H   0  0  0  0  0  0  0  0  0  0  0  0
   63.4881   32.0073   47.1044 H   0  0  0  0  0  0  0  0  0  0  0  0
   64.4384   33.2340   46.1804 H   0  0  0  0  0  0  0  0  0  0  0  0
   63.3484   32.1019   49.3312 H   0  0  0  0  0  0  0  0  0  0  0  0
   64.1773   33.4127   50.2574 H   0  0  0  0  0  0  0  0  0  0  0  0
   61.6624   33.6743   50.1250 H   0  0  0  0  0  0  0  0  0  0  0  0
   62.5867   35.0673   49.4653 H   0  0  0  0  0  0  0  0  0  0  0  0
   58.7469   34.9437   45.8385 H   0  0  0  0  0  0  0  0  0  0  0  0
   57.3154   33.5725   44.3293 H   0  0  0  0  0  0  0  0  0  0  0  0
   58.9731   29.2139   44.1090 H   0  0  0  0  0  0  0  0  0  0  0  0
   60.3178   27.1991   44.6844 H   0  0  0  0  0  0  0  0  0  0  0  0
  1  2  1  0
  2  3  2  0
  2  4  2  0
  2  5  1  0
  5  6  1  0
  6  7  1  0
  7  8  2  0
  8  9  1  0
  9 10  2  0
 10 11  1  0
 11 12  2  0
 11 13  1  0
 13 14  1  0
 14 15  2  0
 15 16  1  0
 16 17  2  0
 17 18  1  0
 18 19  2  0
 18 20  1  0
 20 21  1  0
 21 22  1  0
 22 23  1  0
 23 24  1  0
 24 25  1  0
 17 26  1  0
 26 27  2  0
 10 28  1  0
 28 29  2  0
 29  7  1  0
 27 14  1  0
 25 20  1  0
  1 30  1  0
  1 31  1  0
  6 32  1  0
  6 33  1  0
  8 34  1  0
  9 35  1  0
 15 36  1  0
 16 37  1  0
 21 38  1  0
 21 39  1  0
 22 40  1  0
 22 41  1  0
 24 42  1  0
 24 43  1  0
 25 44  1  0
 25 45  1  0
 26 46  1  0
 27 47  1  0
 28 48  1  0
 29 49  1  0
M  CHG  2   5  -1  13  -1
M  END
>  <UniqueID>  (61) 
61

>  <SMILES>  (61) 
NS(=O)(=O)[N-]Cc1ccc(C(=O)[N-]c2ccc(C(=O)N3CCOCC3)cc2)cc1

>  <Energy>  (61) 
57.53507599350889

>  <Genealogy>  (61) 
NS(=O)(=O)[N-]Cc1ccc(C(=O)[N-]c2ccc(C(=O)N3CCOCC3)cc2)cc1 (protonated)
NS(=O)(=O)[N-]Cc1ccc(C(=O)[N-]c2ccc(C(=O)N3CCOCC3)cc2)cc1 (3D coordinates assigned)
NS(=O)(=O)[N-]Cc1ccc(C(=O)[N-]c2ccc(C(=O)N3CCOCC3)cc2)cc1 (nonaromatic ring conformer: 57.53507599350889 kcal/mol)

>  <smiles>  (61) 
NS(=O)(=O)NCc1ccc(C(=O)Nc2ccc(C(=O)N3CCOCC3)cc2)cc1

>  <score_type>  (61) 
oracle

>  <origin>  (61) 
adg

>  <m_score__min__energy>  (61) 
-12.289999999999999

>  <m_primary>  (61) 
energy

$$$$
61:0
     RDKit          3D

 79 83  0  0  0  0  0  0  0  0999 V2000
   59.4995   35.7905   46.4490 H   0  0  0  0  0  0  0  0  0  0  0  0
   58.9980   34.9120   46.0170 C   0  0  0  0  0  0  0  0  0  0  0  0
   59.2620   34.5360   44.6960 C   0  0  0  0  0  0  0  0  0  0  0  0
   59.9780   35.1140   44.0932 H   0  0  0  0  0  0  0  0  0  0  0  0
   58.6170   33.4260   44.1400 C   0  0  0  0  0  0  0  0  0  0  0  0
   58.8296   33.1308   43.1019 H   0  0  0  0  0  0  0  0  0  0  0  0
   57.6990   32.6880   44.9040 C   0  0  0  0  0  0  0  0  0  0  0  0
   57.0390   31.4660   44.3270 C   0  0  0  0  0  0  0  0  0  0  0  0
   57.4702   31.2525   43.3378 H   0  0  0  0  0  0  0  0  0  0  0  0
   55.9588   31.6510   44.2325 H   0  0  0  0  0  0  0  0  0  0  0  0
   57.2590   30.2830   45.2320 C   0  0  0  0  0  0  0  0  0  0  0  0
   58.3180   30.3140   45.9950 N   0  0  0  0  0  0  0  0  0  0  0  0
   59.6630   30.0170   45.6140 C   0  0  0  0  0  0  0  0  0  0  0  0
   59.8850   29.4030   44.5340 O   0  0  0  0  0  0  0  0  0  0  0  0
   60.8050   30.5510   46.4250 C   0  0  0  0  0  0  0  0  0  0  0  0
   60.8041   30.0614   47.4100 H   0  0  0  0  0  0  0  0  0  0  0  0
   61.7404   30.3413   45.8855 H   0  0  0  0  0  0  0  0  0  0  0  0
   60.6910   32.0700   46.6220 C   0  0  0  0  0  0  0  0  0  0  0  0
   60.9790   32.5716   45.6863 H   0  0  0  0  0  0  0  0  0  0  0  0
   59.6500   32.2991   46.8937 H   0  0  0  0  0  0  0  0  0  0  0  0
   61.5820   32.5670   47.7350 C   0  0  0  0  0  0  0  0  0  0  0  0
   62.7520   31.8680   48.0740 C   0  0  0  0  0  0  0  0  0  0  0  0
   63.0030   30.9353   47.5476 H   0  0  0  0  0  0  0  0  0  0  0  0
   63.5990   32.3490   49.0750 C   0  0  0  0  0  0  0  0  0  0  0  0
   64.5240   31.8051   49.3170 H   0  0  0  0  0  0  0  0  0  0  0  0
   63.2760   33.5230   49.7740 C   0  0  0  0  0  0  0  0  0  0  0  0
   64.1600   34.0200   50.8480 C   0  0  0  0  0  0  0  0  0  0  0  0
   63.8380   35.0660   51.4750 O   0  0  0  0  0  0  0  0  0  0  0  0
   65.3790   33.3340   51.1880 N   0  0  0  0  0  0  0  0  0  0  0  0
   65.8990   33.4350   52.5540 C   0  0  0  0  0  0  0  0  0  0  0  0
   66.4351   34.3886   52.6688 H   0  0  0  0  0  0  0  0  0  0  0  0
   65.0582   33.3883   53.2617 H   0  0  0  0  0  0  0  0  0  0  0  0
   66.8620   32.2740   52.8440 C   0  0  0  0  0  0  0  0  0  0  0  0
   67.3594   32.4517   53.8089 H   0  0  0  0  0  0  0  0  0  0  0  0
   66.2840   31.3386   52.8750 H   0  0  0  0  0  0  0  0  0  0  0  0
   67.8460   32.1640   51.8280 O   0  0  0  0  0  0  0  0  0  0  0  0
   67.2240   31.8370   50.5990 C   0  0  0  0  0  0  0  0  0  0  0  0
   67.9983   31.6453   49.8415 H   0  0  0  0  0  0  0  0  0  0  0  0
   66.6028   30.9406   50.7429 H   0  0  0  0  0  0  0  0  0  0  0  0
   66.3310   32.9860   50.1260 C   0  0  0  0  0  0  0  0  0  0  0  0
   66.9538   33.8615   49.8904 H   0  0  0  0  0  0  0  0  0  0  0  0
   65.7797   32.6758   49.2261 H   0  0  0  0  0  0  0  0  0  0  0  0
   62.1100   34.2250   49.4310 C   0  0  0  0  0  0  0  0  0  0  0  0
   61.8531   35.1515   49.9655 H   0  0  0  0  0  0  0  0  0  0  0  0
   61.2730   33.7550   48.4150 C   0  0  0  0  0  0  0  0  0  0  0  0
   60.3675   34.3192   48.1471 H   0  0  0  0  0  0  0  0  0  0  0  0
   56.3170   29.1260   45.1780 C   0  0  0  0  0  0  0  0  0  0  0  0
   55.2320   29.2480   44.5510 O   0  0  0  0  0  0  0  0  0  0  0  0
   56.6560   27.8650   45.7720 N   0  0  0  0  0  0  0  0  0  0  0  0
   57.9450   27.4370   46.2340 C   0  0  0  0  0  0  0  0  0  0  0  0
   58.7750   26.5990   45.4680 C   0  0  0  0  0  0  0  0  0  0  0  0
   58.4472   26.2627   44.4733 H   0  0  0  0  0  0  0  0  0  0  0  0
   60.0140   26.1930   45.9670 C   0  0  0  0  0  0  0  0  0  0  0  0
   60.6640   25.5466   45.3590 H   0  0  0  0  0  0  0  0  0  0  0  0
   60.4320   26.6040   47.2350 C   0  0  0  0  0  0  0  0  0  0  0  0
   61.4114   26.2833   47.6195 H   0  0  0  0  0  0  0  0  0  0  0  0
   59.6060   27.4260   48.0220 C   0  0  0  0  0  0  0  0  0  0  0  0
   60.0240   27.8270   49.3840 C   0  0  0  0  0  0  0  0  0  0  0  0
   60.5340   26.9720   50.1590 O   0  0  0  0  0  0  0  0  0  0  0  0
   59.8820   29.1810   49.8350 N   0  0  0  0  0  0  0  0  0  0  0  0
   58.5420   29.7840   49.8660 C   0  0  0  0  0  0  0  0  0  0  0  0
   58.2389   30.0413   48.8404 H   0  0  0  0  0  0  0  0  0  0  0  0
   57.8399   29.0588   50.3032 H   0  0  0  0  0  0  0  0  0  0  0  0
   58.5340   31.0470   50.7210 C   0  0  0  0  0  0  0  0  0  0  0  0
   57.5882   31.5856   50.5619 H   0  0  0  0  0  0  0  0  0  0  0  0
   58.6349   30.7608   51.7783 H   0  0  0  0  0  0  0  0  0  0  0  0
   59.6110   31.8880   50.3720 O   0  0  0  0  0  0  0  0  0  0  0  0
   60.8170   31.2880   50.7930 C   0  0  0  0  0  0  0  0  0  0  0  0
   61.6452   31.9900   50.6159 H   0  0  0  0  0  0  0  0  0  0  0  0
   60.7255   31.0480   51.8626 H   0  0  0  0  0  0  0  0  0  0  0  0
   61.0990   29.9820   50.0310 C   0  0  0  0  0  0  0  0  0  0  0  0
   61.5223   30.2303   49.0465 H   0  0  0  0  0  0  0  0  0  0  0  0
   61.8033   29.3861   50.6301 H   0  0  0  0  0  0  0  0  0  0  0  0
   58.3580   27.8260   47.5160 C   0  0  0  0  0  0  0  0  0  0  0  0
   57.6968   28.4520   48.1332 H   0  0  0  0  0  0  0  0  0  0  0  0
   57.4510   33.0620   46.2350 C   0  0  0  0  0  0  0  0  0  0  0  0
   56.7451   32.4790   46.8448 H   0  0  0  0  0  0  0  0  0  0  0  0
   58.0970   34.1720   46.7890 C   0  0  0  0  0  0  0  0  0  0  0  0
   57.8965   34.4625   47.8308 H   0  0  0  0  0  0  0  0  0  0  0  0
  1  2  1  0
  2  3  2  0
  3  4  1  0
  3  5  1  0
  5  6  1  0
  5  7  2  0
  7  8  1  0
  8  9  1  0
  8 10  1  0
  8 11  1  0
 11 12  2  0
 12 13  1  0
 13 14  2  0
 13 15  1  0
 15 16  1  0
 15 17  1  0
 15 18  1  0
 18 19  1  0
 18 20  1  0
 18 21  1  0
 21 22  2  0
 22 23  1  0
 22 24  1  0
 24 25  1  0
 24 26  2  0
 26 27  1  0
 27 28  2  0
 27 29  1  0
 29 30  1  0
 30 31  1  0
 30 32  1  0
 30 33  1  0
 33 34  1  0
 33 35  1  0
 33 36  1  0
 36 37  1  0
 37 38  1  0
 37 39  1  0
 37 40  1  0
 40 41  1  0
 40 42  1  0
 26 43  1  0
 43 44  1  0
 43 45  2  0
 45 46  1  0
 11 47  1  0
 47 48  2  0
 47 49  1  0
 49 50  1  0
 50 51  2  0
 51 52  1  0
 51 53  1  0
 53 54  1  0
 53 55  2  0
 55 56  1  0
 55 57  1  0
 57 58  1  0
 58 59  2  0
 58 60  1  0
 60 61  1  0
 61 62  1  0
 61 63  1  0
 61 64  1  0
 64 65  1  0
 64 66  1  0
 64 67  1  0
 67 68  1  0
 68 69  1  0
 68 70  1  0
 68 71  1  0
 71 72  1  0
 71 73  1  0
 57 74  2  0
 74 75  1  0
  7 76  1  0
 76 77  1  0
 76 78  2  0
 78 79  1  0
 78  2  1  0
 45 21  1  0
 74 50  1  0
 40 29  1  0
 71 60  1  0
M  CHG  1  49  -1
M  END
>  <UniqueID>  (62) 
62

>  <SMILES>  (62) 
O=C(CCc1ccc(C(=O)N2CCOCC2)cc1)/N=C(/Cc1ccccc1)C(=O)[N-]c1cccc(C(=O)N2CCOCC2)c1

>  <Energy>  (62) 
106.38112271165788

>  <Genealogy>  (62) 
O=C(CCc1ccc(C(=O)N2CCOCC2)cc1)N=C(Cc1ccccc1)C(=O)[N-]c1cccc(C(=O)N2CCOCC2)c1 (protonated)
O=C(CCc1ccc(C(=O)N2CCOCC2)cc1)/N=C(/Cc1ccccc1)C(=O)[N-]c1cccc(C(=O)N2CCOCC2)c1 (cis-trans isomerization)
O=C(CCc1ccc(C(=O)N2CCOCC2)cc1)/N=C(/Cc1ccccc1)C(=O)[N-]c1cccc(C(=O)N2CCOCC2)c1 (3D coordinates assigned)
O=C(CCc1ccc(C(=O)N2CCOCC2)cc1)/N=C(/Cc1ccccc1)C(=O)[N-]c1cccc(C(=O)N2CCOCC2)c1 (nonaromatic ring conformer: 106.38112271165788 kcal/mol)

>  <smiles>  (62) 
O=C(CCc1ccc(C(=O)N2CCOCC2)cc1)N=C(Cc1ccccc1)C(=O)Nc1cccc(C(=O)N2CCOCC2)c1

>  <score_type>  (62) 
oracle

>  <origin>  (62) 
adg

>  <m_score__min__energy>  (62) 
-12.83

>  <m_primary>  (62) 
energy

$$$$
62:0
     RDKit          3D

 53 55  0  0  0  0  0  0  0  0999 V2000
   63.9530   31.4550   50.5820 C   0  0  0  0  0  0  0  0  0  0  0  0
   62.7390   31.8380   51.4260 C   0  0  0  0  0  0  0  0  0  0  0  0
   61.7160   32.5540   50.6460 N   0  0  0  0  0  0  0  0  0  0  0  0
   62.0750   33.7780   49.9090 C   0  0  0  0  0  0  0  0  0  0  0  0
   61.4150   33.8350   48.5600 C   0  0  0  0  0  0  0  0  0  0  0  0
   62.0380   33.4510   47.5340 O   0  0  0  0  0  0  0  0  0  0  0  0
   60.0650   34.3060   48.4490 N   0  0  0  0  0  0  0  0  0  0  0  0
   59.2880   34.1920   47.2460 C   0  0  0  0  0  0  0  0  0  0  0  0
   59.6500   34.9480   46.1210 C   0  0  0  0  0  0  0  0  0  0  0  0
   58.9010   34.8630   44.9430 C   0  0  0  0  0  0  0  0  0  0  0  0
   57.7780   34.0340   44.8840 C   0  0  0  0  0  0  0  0  0  0  0  0
   57.3950   33.2970   46.0080 C   0  0  0  0  0  0  0  0  0  0  0  0
   58.1400   33.3780   47.1890 C   0  0  0  0  0  0  0  0  0  0  0  0
   57.7130   32.7030   48.2850 F   0  0  0  0  0  0  0  0  0  0  0  0
   60.3450   32.3830   51.0560 C   0  0  0  0  0  0  0  0  0  0  0  0
   59.6930   33.4530   51.6660 C   0  0  0  0  0  0  0  0  0  0  0  0
   58.3810   33.3000   52.0890 C   0  0  0  0  0  0  0  0  0  0  0  0
   57.7900   34.2850   52.6110 O   0  0  0  0  0  0  0  0  0  0  0  0
   57.7420   32.1000   51.9350 N   0  0  0  0  0  0  0  0  0  0  0  0
   56.3390   31.9540   52.3580 C   0  0  0  0  0  0  0  0  0  0  0  0
   58.3840   31.0590   51.3090 C   0  0  0  0  0  0  0  0  0  0  0  0
   57.7700   29.9710   51.1180 O   0  0  0  0  0  0  0  0  0  0  0  0
   59.6840   31.1910   50.8790 N   0  0  0  0  0  0  0  0  0  0  0  0
   60.3280   30.0590   50.1810 C   0  0  0  0  0  0  0  0  0  0  0  0
   60.0650   30.0900   48.6910 C   0  0  0  0  0  0  0  0  0  0  0  0
   58.8410   29.6070   48.1980 C   0  0  0  0  0  0  0  0  0  0  0  0
   58.5930   29.5800   46.8210 C   0  0  0  0  0  0  0  0  0  0  0  0
   59.5670   30.0260   45.9260 C   0  0  0  0  0  0  0  0  0  0  0  0
   60.7940   30.4910   46.4030 C   0  0  0  0  0  0  0  0  0  0  0  0
   61.0480   30.5170   47.7780 C   0  0  0  0  0  0  0  0  0  0  0  0
   64.7910   31.1906   51.2438 H   0  0  0  0  0  0  0  0  0  0  0  0
   63.7010   30.5927   49.9472 H   0  0  0  0  0  0  0  0  0  0  0  0
   64.2414   32.3058   49.9472 H   0  0  0  0  0  0  0  0  0  0  0  0
   62.2917   30.9213   51.8378 H   0  0  0  0  0  0  0  0  0  0  0  0
   63.0846   32.5117   52.2239 H   0  0  0  0  0  0  0  0  0  0  0  0
   61.7587   34.6524   50.4967 H   0  0  0  0  0  0  0  0  0  0  0  0
   63.1642   33.7758   49.7553 H   0  0  0  0  0  0  0  0  0  0  0  0
   59.6740   34.8750   49.2350 H   0  0  0  0  0  0  0  0  0  0  0  0
   60.5269   35.6106   46.1657 H   0  0  0  0  0  0  0  0  0  0  0  0
   59.1967   35.4501   44.0610 H   0  0  0  0  0  0  0  0  0  0  0  0
   57.1957   33.9614   43.9536 H   0  0  0  0  0  0  0  0  0  0  0  0
   56.5054   32.6516   45.9638 H   0  0  0  0  0  0  0  0  0  0  0  0
   60.2144   34.4107   51.8108 H   0  0  0  0  0  0  0  0  0  0  0  0
   56.2860   31.9485   53.4567 H   0  0  0  0  0  0  0  0  0  0  0  0
   55.7486   32.7956   51.9666 H   0  0  0  0  0  0  0  0  0  0  0  0
   55.9345   31.0089   51.9666 H   0  0  0  0  0  0  0  0  0  0  0  0
   61.4136   30.1077   50.3514 H   0  0  0  0  0  0  0  0  0  0  0  0
   59.9045   29.1264   50.5821 H   0  0  0  0  0  0  0  0  0  0  0  0
   58.0730   29.2479   48.8988 H   0  0  0  0  0  0  0  0  0  0  0  0
   57.6295   29.2069   46.4435 H   0  0  0  0  0  0  0  0  0  0  0  0
   59.3677   30.0111   44.8443 H   0  0  0  0  0  0  0  0  0  0  0  0
   61.5623   30.8375   45.6961 H   0  0  0  0  0  0  0  0  0  0  0  0
   62.0208   30.8729   48.1481 H   0  0  0  0  0  0  0  0  0  0  0  0
  1  2  1  0
  2  3  1  0
  3  4  1  0
  4  5  1  0
  5  6  2  0
  5  7  1  0
  7  8  1  0
  8  9  2  0
  9 10  1  0
 10 11  2  0
 11 12  1  0
 12 13  2  0
 13 14  1  0
  3 15  1  0
 15 16  2  0
 16 17  1  0
 17 18  2  0
 17 19  1  0
 19 20  1  0
 19 21  1  0
 21 22  2  0
 21 23  1  0
 23 24  1  0
 24 25  1  0
 25 26  2  0
 26 27  1  0
 27 28  2  0
 28 29  1  0
 29 30  2  0
 13  8  1  0
 23 15  1  0
 30 25  1  0
  1 31  1  0
  1 32  1  0
  1 33  1  0
  2 34  1  0
  2 35  1  0
  4 36  1  0
  4 37  1  0
  7 38  1  0
  9 39  1  0
 10 40  1  0
 11 41  1  0
 12 42  1  0
 16 43  1  0
 20 44  1  0
 20 45  1  0
 20 46  1  0
 24 47  1  0
 24 48  1  0
 26 49  1  0
 27 50  1  0
 28 51  1  0
 29 52  1  0
 30 53  1  0
M  END
>  <UniqueID>  (63) 
63

>  <SMILES>  (63) 
CCN(CC(=O)Nc1ccccc1F)c1cc(=O)n(C)c(=O)n1Cc1ccccc1

>  <Energy>  (63) 
69.85030227286018

>  <Genealogy>  (63) 
CCN(CC(=O)Nc1ccccc1F)c1cc(=O)n(C)c(=O)n1Cc1ccccc1 (3D coordinates assigned)
CCN(CC(=O)Nc1ccccc1F)c1cc(=O)n(C)c(=O)n1Cc1ccccc1 (optimized conformer: 69.85030227286018 kcal/mol)

>  <smiles>  (63) 
CCN(CC(=O)Nc1ccccc1F)c1cc(=O)n(C)c(=O)n1Cc1ccccc1

>  <score_type>  (63) 
oracle

>  <origin>  (63) 
adg

>  <m_score__min__energy>  (63) 
-7.8499999999999996

>  <m_primary>  (63) 
energy

$$$$
63:0
     RDKit          3D

 36 38  0  0  0  0  0  0  0  0999 V2000
   59.8328   35.4474   47.7564 H   0  0  0  0  0  0  0  0  0  0  0  0
   59.3670   34.7630   47.0320 C   0  0  0  0  0  0  0  0  0  0  0  0
   58.7020   33.6180   47.4800 C   0  0  0  0  0  0  0  0  0  0  0  0
   58.6492   33.3997   48.5568 H   0  0  0  0  0  0  0  0  0  0  0  0
   58.1040   32.7500   46.5620 C   0  0  0  0  0  0  0  0  0  0  0  0
   57.5900   31.8454   46.9191 H   0  0  0  0  0  0  0  0  0  0  0  0
   58.1560   33.0270   45.1850 C   0  0  0  0  0  0  0  0  0  0  0  0
   57.5260   32.1000   44.2140 C   0  0  0  0  0  0  0  0  0  0  0  0
   57.7400   32.2600   42.9830 O   0  0  0  0  0  0  0  0  0  0  0  0
   56.6300   31.0520   44.6230 N   0  0  0  0  0  0  0  0  0  0  0  0
   56.9160   29.7850   44.6950 C   0  0  0  0  0  0  0  0  0  0  0  0
   56.0410   28.8960   45.2460 N   0  0  0  0  0  0  0  0  0  0  0  0
   56.3100   27.5660   45.3430 C   0  0  0  0  0  0  0  0  0  0  0  0
   55.3470   26.7170   45.9770 N   0  0  0  0  0  0  0  0  0  0  0  0
   55.0960   26.8170   46.9850 H   0  0  0  0  0  0  0  0  0  0  0  0
   54.8180   26.0200   45.4080 H   0  0  0  0  0  0  0  0  0  0  0  0
   57.5390   27.0670   44.8560 C   0  0  0  0  0  0  0  0  0  0  0  0
   57.8740   25.6260   44.8770 C   0  0  0  0  0  0  0  0  0  0  0  0
   58.9410   25.1590   45.6620 C   0  0  0  0  0  0  0  0  0  0  0  0
   59.5177   25.8644   46.2783 H   0  0  0  0  0  0  0  0  0  0  0  0
   59.2730   23.8000   45.6630 C   0  0  0  0  0  0  0  0  0  0  0  0
   60.1058   23.4385   46.2841 H   0  0  0  0  0  0  0  0  0  0  0  0
   58.5480   22.9010   44.8760 C   0  0  0  0  0  0  0  0  0  0  0  0
   58.8076   21.8321   44.8814 H   0  0  0  0  0  0  0  0  0  0  0  0
   57.4930   23.3600   44.0820 C   0  0  0  0  0  0  0  0  0  0  0  0
   56.7970   22.4880   43.3120 F   0  0  0  0  0  0  0  0  0  0  0  0
   57.1590   24.7180   44.0770 C   0  0  0  0  0  0  0  0  0  0  0  0
   56.3336   25.0769   43.4446 H   0  0  0  0  0  0  0  0  0  0  0  0
   58.4630   27.9750   44.3160 C   0  0  0  0  0  0  0  0  0  0  0  0
   59.4372   27.6140   43.9546 H   0  0  0  0  0  0  0  0  0  0  0  0
   58.1530   29.3330   44.2350 C   0  0  0  0  0  0  0  0  0  0  0  0
   58.8791   30.0424   43.8113 H   0  0  0  0  0  0  0  0  0  0  0  0
   58.8440   34.1720   44.7430 C   0  0  0  0  0  0  0  0  0  0  0  0
   58.9134   34.3870   43.6665 H   0  0  0  0  0  0  0  0  0  0  0  0
   59.4400   35.0380   45.6650 C   0  0  0  0  0  0  0  0  0  0  0  0
   59.9670   35.9370   45.3129 H   0  0  0  0  0  0  0  0  0  0  0  0
  1  2  1  0
  2  3  2  0
  3  4  1  0
  3  5  1  0
  5  6  1  0
  5  7  2  0
  7  8  1  0
  8  9  2  0
  8 10  1  0
 10 11  2  0
 11 12  1  0
 12 13  1  0
 13 14  1  0
 14 15  1  0
 14 16  1  0
 13 17  2  0
 17 18  1  0
 18 19  2  0
 19 20  1  0
 19 21  1  0
 21 22  1  0
 21 23  2  0
 23 24  1  0
 23 25  1  0
 25 26  1  0
 25 27  2  0
 27 28  1  0
 17 29  1  0
 29 30  1  0
 29 31  2  0
 31 32  1  0
  7 33  1  0
 33 34  1  0
 33 35  2  0
 35 36  1  0
 35  2  1  0
 31 11  1  0
 27 18  1  0
M  CHG  1  12  -1
M  END
>  <UniqueID>  (64) 
64

>  <SMILES>  (64) 
Nc1[n-]/c(=N\C(=O)c2ccccc2)ccc1-c1cccc(F)c1

>  <Energy>  (64) 
54.025353541604595

>  <Genealogy>  (64) 
Nc1[n-]c(=NC(=O)c2ccccc2)ccc1-c1cccc(F)c1 (protonated)
Nc1[n-]/c(=N\C(=O)c2ccccc2)ccc1-c1cccc(F)c1 (cis-trans isomerization)
Nc1[n-]/c(=N\C(=O)c2ccccc2)ccc1-c1cccc(F)c1 (3D coordinates assigned)
Nc1[n-]/c(=N\C(=O)c2ccccc2)ccc1-c1cccc(F)c1 (optimized conformer: 54.025353541604595 kcal/mol)

>  <smiles>  (64) 
Nc1[nH]c(=NC(=O)c2ccccc2)ccc1-c1cccc(F)c1

>  <score_type>  (64) 
oracle

>  <origin>  (64) 
adg

>  <m_score__min__energy>  (64) 
-10.68

>  <m_primary>  (64) 
energy

$$$$
64:0
     RDKit          3D

 54 57  0  0  0  0  0  0  0  0999 V2000
   58.7970   33.1600   50.0080 O   0  0  0  0  0  0  0  0  0  0  0  0
   59.6820   32.7030   49.2330 C   0  0  0  0  0  0  0  0  0  0  0  0
   59.2940   32.2720   47.8730 C   0  0  0  0  0  0  0  0  0  0  0  0
   60.0650   31.3290   47.1740 C   0  0  0  0  0  0  0  0  0  0  0  0
   59.6960   30.9290   45.8860 C   0  0  0  0  0  0  0  0  0  0  0  0
   58.5630   31.4810   45.2710 C   0  0  0  0  0  0  0  0  0  0  0  0
   58.1440   31.0220   43.9020 C   0  0  0  0  0  0  0  0  0  0  0  0
   57.0140   29.6470   44.0270 S   0  0  0  0  0  0  0  0  0  0  0  0
   56.6270   29.1920   42.6470 O   0  0  0  0  0  0  0  0  0  0  0  0
   55.7710   30.0650   44.7620 O   0  0  0  0  0  0  0  0  0  0  0  0
   57.7990   28.3290   44.8990 C   0  0  0  0  0  0  0  0  0  0  0  0
   59.2000   28.2360   44.9160 C   0  0  0  0  0  0  0  0  0  0  0  0
   59.8290   27.2000   45.6120 C   0  0  0  0  0  0  0  0  0  0  0  0
   59.0670   26.2530   46.2970 C   0  0  0  0  0  0  0  0  0  0  0  0
   57.6730   26.3400   46.2930 C   0  0  0  0  0  0  0  0  0  0  0  0
   57.0320   27.3770   45.5980 C   0  0  0  0  0  0  0  0  0  0  0  0
   55.6400   27.4640   45.6040 O   0  0  0  0  0  0  0  0  0  0  0  0
   57.7960   32.4300   45.9640 C   0  0  0  0  0  0  0  0  0  0  0  0
   58.1650   32.8300   47.2520 C   0  0  0  0  0  0  0  0  0  0  0  0
   61.0440   32.6030   49.6930 N   0  0  0  0  0  0  0  0  0  0  0  0
   61.5270   33.5460   50.7100 C   0  0  0  0  0  0  0  0  0  0  0  0
   63.0380   33.7580   50.5670 C   0  0  0  0  0  0  0  0  0  0  0  0
   63.7580   32.4810   50.4560 N   0  0  0  0  0  0  0  0  0  0  0  0
   65.1970   32.5020   50.3910 C   0  0  0  0  0  0  0  0  0  0  0  0
   65.7780   33.4520   49.7990 O   0  0  0  0  0  0  0  0  0  0  0  0
   66.0260   31.4490   51.0080 C   0  0  0  0  0  0  0  0  0  0  0  0
   67.3100   31.5860   51.5030 C   0  0  0  0  0  0  0  0  0  0  0  0
   67.6710   30.3350   51.9510 C   0  0  0  0  0  0  0  0  0  0  0  0
   66.5950   29.5110   51.7000 C   0  0  0  0  0  0  0  0  0  0  0  0
   65.6330   30.2030   51.1350 O   0  0  0  0  0  0  0  0  0  0  0  0
   63.0110   31.2240   50.3260 C   0  0  0  0  0  0  0  0  0  0  0  0
   61.8340   31.4060   49.3630 C   0  0  0  0  0  0  0  0  0  0  0  0
   60.9643   30.9026   47.6424 H   0  0  0  0  0  0  0  0  0  0  0  0
   60.2972   30.1779   45.3527 H   0  0  0  0  0  0  0  0  0  0  0  0
   57.6485   31.8520   43.3771 H   0  0  0  0  0  0  0  0  0  0  0  0
   59.0362   30.7015   43.3441 H   0  0  0  0  0  0  0  0  0  0  0  0
   59.8050   28.9816   44.3793 H   0  0  0  0  0  0  0  0  0  0  0  0
   60.9268   27.1311   45.6197 H   0  0  0  0  0  0  0  0  0  0  0  0
   59.5648   25.4367   46.8410 H   0  0  0  0  0  0  0  0  0  0  0  0
   57.0756   25.5932   46.8364 H   0  0  0  0  0  0  0  0  0  0  0  0
   55.1370   27.9690   44.8840 H   0  0  0  0  0  0  0  0  0  0  0  0
   56.9008   32.8610   45.4920 H   0  0  0  0  0  0  0  0  0  0  0  0
   57.5673   33.5863   47.7819 H   0  0  0  0  0  0  0  0  0  0  0  0
   61.0122   34.5099   50.5841 H   0  0  0  0  0  0  0  0  0  0  0  0
   61.3174   33.1331   51.7078 H   0  0  0  0  0  0  0  0  0  0  0  0
   63.2303   34.3554   49.6636 H   0  0  0  0  0  0  0  0  0  0  0  0
   63.3981   34.2777   51.4671 H   0  0  0  0  0  0  0  0  0  0  0  0
   67.9165   32.5032   51.5327 H   0  0  0  0  0  0  0  0  0  0  0  0
   68.6264   30.0504   52.4159 H   0  0  0  0  0  0  0  0  0  0  0  0
   66.5493   28.4378   51.9369 H   0  0  0  0  0  0  0  0  0  0  0  0
   63.6803   30.4419   49.9382 H   0  0  0  0  0  0  0  0  0  0  0  0
   62.6250   30.9318   51.3137 H   0  0  0  0  0  0  0  0  0  0  0  0
   62.2229   31.5061   48.3389 H   0  0  0  0  0  0  0  0  0  0  0  0
   61.1789   30.5266   49.4503 H   0  0  0  0  0  0  0  0  0  0  0  0
  1  2  2  0
  2  3  1  0
  3  4  2  0
  4  5  1  0
  5  6  2  0
  6  7  1  0
  7  8  1  0
  8  9  2  0
  8 10  2  0
  8 11  1  0
 11 12  2  0
 12 13  1  0
 13 14  2  0
 14 15  1  0
 15 16  2  0
 16 17  1  0
  6 18  1  0
 18 19  2  0
  2 20  1  0
 20 21  1  0
 21 22  1  0
 22 23  1  0
 23 24  1  0
 24 25  2  0
 24 26  1  0
 26 27  2  0
 27 28  1  0
 28 29  2  0
 29 30  1  0
 23 31  1  0
 31 32  1  0
 19  3  1  0
 32 20  1  0
 16 11  1  0
 30 26  1  0
  4 33  1  0
  5 34  1  0
  7 35  1  0
  7 36  1  0
 12 37  1  0
 13 38  1  0
 14 39  1  0
 15 40  1  0
 17 41  1  0
 18 42  1  0
 19 43  1  0
 21 44  1  0
 21 45  1  0
 22 46  1  0
 22 47  1  0
 27 48  1  0
 28 49  1  0
 29 50  1  0
 31 51  1  0
 31 52  1  0
 32 53  1  0
 32 54  1  0
M  END
>  <UniqueID>  (65) 
65

>  <SMILES>  (65) 
O=C(c1ccc(CS(=O)(=O)c2ccccc2O)cc1)N1CCN(C(=O)c2ccco2)CC1

>  <Energy>  (65) 
87.89079746924341

>  <Genealogy>  (65) 
O=C(c1ccc(CS(=O)(=O)c2ccccc2O)cc1)N1CCN(C(=O)c2ccco2)CC1 (3D coordinates assigned)
O=C(c1ccc(CS(=O)(=O)c2ccccc2O)cc1)N1CCN(C(=O)c2ccco2)CC1 (nonaromatic ring conformer: 87.89079746924341 kcal/mol)

>  <smiles>  (65) 
O=C(c1ccc(CS(=O)(=O)c2ccccc2O)cc1)N1CCN(C(=O)c2ccco2)CC1

>  <score_type>  (65) 
oracle

>  <origin>  (65) 
adg

>  <m_score__min__energy>  (65) 
-10.27

>  <m_primary>  (65) 
energy

$$$$
65:0
     RDKit          3D

 31 33  0  0  1  0  0  0  0  0999 V2000
   57.5760   28.4750   43.7640 N   0  0  0  0  0  0  0  0  0  0  0  0
   56.4680   29.8190   43.9140 S   0  0  0  0  0  0  0  0  0  0  0  0
   55.8730   30.1420   42.5690 O   0  0  0  0  0  0  0  0  0  0  0  0
   55.3570   29.5050   44.8690 O   0  0  0  0  0  0  0  0  0  0  0  0
   57.4190   31.1660   44.4720 C   0  0  0  0  0  0  0  0  0  0  0  0
   58.0360   31.0740   45.6980 C   0  0  0  0  0  0  0  0  0  0  0  0
   58.8030   32.0820   46.2210 C   0  0  0  0  0  0  0  0  0  0  0  0
   58.9450   33.2410   45.4490 C   0  0  0  0  0  0  0  0  0  0  0  0
   59.7490   34.2690   46.0230 N   0  0  0  0  0  0  0  0  0  0  0  0
   60.5470   34.0600   47.0160 C   0  0  0  0  0  0  0  0  0  0  0  0
   60.1190   34.2730   48.2750 N   0  0  0  0  0  0  0  0  0  0  0  0
   61.0110   34.0330   49.2700 C   0  0  0  0  0  0  0  0  0  0  0  0
   60.6730   34.2110   50.4600 O   0  0  0  0  0  0  0  0  0  0  0  0
   62.2990   33.5930   49.0050 C   0  0  0  0  0  0  0  0  0  0  0  0
   63.3700   33.2820   49.7760 N   0  0  0  0  0  0  0  0  0  0  0  0
   64.3940   32.8990   48.9840 C   0  0  0  0  0  0  0  0  0  0  0  0
   63.9850   32.9620   47.6950 N   0  0  0  0  0  0  0  0  0  0  0  0
   62.7050   33.3850   47.6840 C   0  0  0  0  0  0  0  0  0  0  0  0
   61.7870   33.6350   46.7250 N   0  0  0  0  0  0  0  0  0  0  0  0
   58.3380   33.3640   44.2130 C   0  0  0  0  0  0  0  0  0  0  0  0
   57.5650   32.3220   43.7110 C   0  0  0  0  0  0  0  0  0  0  0  0
   58.2420   28.7100   42.9970 H   0  0  0  0  0  0  0  0  0  0  0  0
   57.0280   27.6250   43.5270 H   0  0  0  0  0  0  0  0  0  0  0  0
   57.9082   30.1517   46.2837 H   0  0  0  0  0  0  0  0  0  0  0  0
   59.2860   31.9846   47.2045 H   0  0  0  0  0  0  0  0  0  0  0  0
   59.1450   34.6050   48.4610 H   0  0  0  0  0  0  0  0  0  0  0  0
   65.3917   32.5884   49.3278 H   0  0  0  0  0  0  0  0  0  0  0  0
   64.5350   32.7320   46.8240 H   0  0  0  0  0  0  0  0  0  0  0  0
   62.0830   33.4820   45.7390 H   0  0  0  0  0  0  0  0  0  0  0  0
   58.4662   34.2857   43.6265 H   0  0  0  0  0  0  0  0  0  0  0  0
   57.0773   32.4103   42.7290 H   0  0  0  0  0  0  0  0  0  0  0  0
  1  2  1  0
  2  3  2  0
  2  4  2  0
  2  5  1  0
  5  6  2  0
  6  7  1  0
  7  8  2  0
  8  9  1  0
  9 10  2  0
 10 11  1  0
 11 12  1  0
 12 13  2  0
 12 14  1  0
 14 15  1  0
 15 16  2  0
 16 17  1  0
 17 18  1  0
 18 19  1  0
  8 20  1  0
 20 21  2  0
 21  5  1  0
 19 10  1  0
 18 14  2  0
  1 22  1  0
  1 23  1  0
  6 24  1  0
  7 25  1  0
 11 26  1  0
 16 27  1  0
 17 28  1  0
 19 29  1  0
 20 30  1  0
 21 31  1  0
M  END
>  <smiles>  (66) 
NS(=O)(=O)c1ccc(N=c2[nH]c(=O)c3nc[nH]c3[nH]2)cc1

>  <score_type>  (66) 
oracle

>  <origin>  (66) 
adg

>  <m_score__min__energy>  (66) 
-8.0500000000000007

>  <m_primary>  (66) 
energy

$$$$
66:0
     RDKit          3D

 50 53  0  0  0  0  0  0  0  0999 V2000
   60.0250   29.2320   44.7830 C   0  0  0  0  0  0  0  0  0  0  0  0
   59.6720   29.0220   46.0620 C   0  0  0  0  0  0  0  0  0  0  0  0
   58.7880   28.0330   46.5290 C   0  0  0  0  0  0  0  0  0  0  0  0
   57.9450   27.2140   45.8680 C   0  0  0  0  0  0  0  0  0  0  0  0
   57.3580   25.9740   46.3980 C   0  0  0  0  0  0  0  0  0  0  0  0
   58.0700   25.0290   47.0350 N   0  0  0  0  0  0  0  0  0  0  0  0
   57.1290   24.1540   47.4490 C   0  0  0  0  0  0  0  0  0  0  0  0
   57.4100   23.1030   48.0820 O   0  0  0  0  0  0  0  0  0  0  0  0
   55.8590   24.4970   47.1410 N   0  0  0  0  0  0  0  0  0  0  0  0
   56.0210   25.6610   46.4890 C   0  0  0  0  0  0  0  0  0  0  0  0
   54.9680   26.4340   46.0090 O   0  0  0  0  0  0  0  0  0  0  0  0
   58.9150   28.0160   47.9040 C   0  0  0  0  0  0  0  0  0  0  0  0
   59.7930   29.0240   48.2360 C   0  0  0  0  0  0  0  0  0  0  0  0
   60.2130   29.3300   49.6150 C   0  0  0  0  0  0  0  0  0  0  0  0
   60.9020   28.4820   50.2440 O   0  0  0  0  0  0  0  0  0  0  0  0
   59.8670   30.5830   50.2370 N   0  0  0  0  0  0  0  0  0  0  0  0
   60.5970   31.0160   51.4330 C   0  0  0  0  0  0  0  0  0  0  0  0
   60.4900   32.5360   51.5870 C   0  0  0  0  0  0  0  0  0  0  0  0
   59.1400   32.9540   51.5400 O   0  0  0  0  0  0  0  0  0  0  0  0
   58.6050   32.6890   50.2570 C   0  0  0  0  0  0  0  0  0  0  0  0
   58.5490   31.1830   49.9930 C   0  0  0  0  0  0  0  0  0  0  0  0
   60.2510   29.6500   47.1260 N   0  0  0  0  0  0  0  0  0  0  0  0
   61.3160   30.6680   47.1220 C   0  0  0  0  0  0  0  0  0  0  0  0
   60.7280   32.0490   47.3070 C   0  0  0  0  0  0  0  0  0  0  0  0
   59.5850   32.4180   46.5750 C   0  0  0  0  0  0  0  0  0  0  0  0
   59.0480   33.7060   46.6970 C   0  0  0  0  0  0  0  0  0  0  0  0
   57.8890   34.0790   45.9290 C   0  0  0  0  0  0  0  0  0  0  0  0
   56.9580   34.3790   45.3120 N   0  0  0  0  0  0  0  0  0  0  0  0
   59.6410   34.6300   47.5620 C   0  0  0  0  0  0  0  0  0  0  0  0
   60.7660   34.2690   48.3060 C   0  0  0  0  0  0  0  0  0  0  0  0
   61.3110   32.9870   48.1860 C   0  0  0  0  0  0  0  0  0  0  0  0
   62.4310   32.6570   48.9420 O   0  0  0  0  0  0  0  0  0  0  0  0
   60.7285   30.0395   44.5321 H   0  0  0  0  0  0  0  0  0  0  0  0
   59.6105   28.5964   43.9866 H   0  0  0  0  0  0  0  0  0  0  0  0
   57.6721   27.4986   44.8411 H   0  0  0  0  0  0  0  0  0  0  0  0
   54.0300   26.3110   46.3700 H   0  0  0  0  0  0  0  0  0  0  0  0
   58.4116   27.3293   48.6004 H   0  0  0  0  0  0  0  0  0  0  0  0
   60.1661   30.5283   52.3198 H   0  0  0  0  0  0  0  0  0  0  0  0
   61.6559   30.7358   51.3323 H   0  0  0  0  0  0  0  0  0  0  0  0
   60.9252   32.8317   52.5530 H   0  0  0  0  0  0  0  0  0  0  0  0
   61.0345   33.0125   50.7585 H   0  0  0  0  0  0  0  0  0  0  0  0
   57.5879   33.1038   50.1975 H   0  0  0  0  0  0  0  0  0  0  0  0
   59.2533   33.1560   49.5010 H   0  0  0  0  0  0  0  0  0  0  0  0
   57.8088   30.7225   50.6639 H   0  0  0  0  0  0  0  0  0  0  0  0
   58.2606   31.0096   48.9457 H   0  0  0  0  0  0  0  0  0  0  0  0
   62.0184   30.4605   47.9427 H   0  0  0  0  0  0  0  0  0  0  0  0
   61.8407   30.6308   46.1559 H   0  0  0  0  0  0  0  0  0  0  0  0
   59.1093   31.6897   45.9017 H   0  0  0  0  0  0  0  0  0  0  0  0
   59.2211   35.6423   47.6567 H   0  0  0  0  0  0  0  0  0  0  0  0
   61.2260   34.9971   48.9903 H   0  0  0  0  0  0  0  0  0  0  0  0
  1  2  2  0
  2  3  1  0
  3  4  2  3
  4  5  1  0
  5  6  1  0
  6  7  1  0
  7  8  2  0
  7  9  1  0
  9 10  1  0
 10 11  1  0
  3 12  1  0
 12 13  2  0
 13 14  1  0
 14 15  2  0
 14 16  1  0
 16 17  1  0
 17 18  1  0
 18 19  1  0
 19 20  1  0
 20 21  1  0
 13 22  1  0
 22 23  1  0
 23 24  1  0
 24 25  2  0
 25 26  1  0
 26 27  1  0
 27 28  3  0
 26 29  2  0
 29 30  1  0
 30 31  2  0
 31 32  1  0
 22  2  1  0
 31 24  1  0
 10  5  2  0
 21 16  1  0
  1 33  1  0
  1 34  1  0
  4 35  1  0
 11 36  1  0
 12 37  1  0
 17 38  1  0
 17 39  1  0
 18 40  1  0
 18 41  1  0
 20 42  1  0
 20 43  1  0
 21 44  1  0
 21 45  1  0
 23 46  1  0
 23 47  1  0
 25 48  1  0
 29 49  1  0
 30 50  1  0
M  CHG  3   6  -1   9  -1  32  -1
M  END
>  <UniqueID>  (67) 
66

>  <SMILES>  (67) 
C=c1c(=Cc2[n-]c(=O)[n-]c2O)cc(C(=O)N2CCOCC2)n1Cc1cc(C#N)ccc1[O-]

>  <Energy>  (67) 
128.19447618469422

>  <Genealogy>  (67) 
C=c1c(=Cc2[n-]c(=O)[n-]c2O)cc(C(=O)N2CCOCC2)n1Cc1cc(C#N)ccc1[O-] (protonated)
C=c1c(=Cc2[n-]c(=O)[n-]c2O)cc(C(=O)N2CCOCC2)n1Cc1cc(C#N)ccc1[O-] (3D coordinates assigned)
C=c1c(=Cc2[n-]c(=O)[n-]c2O)cc(C(=O)N2CCOCC2)n1Cc1cc(C#N)ccc1[O-] (nonaromatic ring conformer: 128.19447618469422 kcal/mol)

>  <smiles>  (67) 
C=c1c(=Cc2[nH]c(=O)[nH]c2O)cc(C(=O)N2CCOCC2)n1Cc1cc(C#N)ccc1O

>  <score_type>  (67) 
oracle

>  <origin>  (67) 
adg

>  <m_score__min__energy>  (67) 
-13.99

>  <m_primary>  (67) 
energy

$$$$
67:0
     RDKit          3D

 55 58  0  0  0  0  0  0  0  0999 V2000
   61.9620   34.2150   47.0110 C   0  0  0  0  0  0  0  0  0  0  0  0
   60.7130   33.7860   46.8290 C   0  0  0  0  0  0  0  0  0  0  0  0
   60.2890   33.2600   45.6660 N   0  0  0  0  0  0  0  0  0  0  0  0
   59.0080   32.9460   45.7800 N   0  0  0  0  0  0  0  0  0  0  0  0
   58.2850   32.2680   44.7190 C   0  0  0  0  0  0  0  0  0  0  0  0
   58.4510   32.7130   43.3930 C   0  0  0  0  0  0  0  0  0  0  0  0
   57.7240   32.1400   42.3540 C   0  0  0  0  0  0  0  0  0  0  0  0
   56.8200   31.1110   42.6140 C   0  0  0  0  0  0  0  0  0  0  0  0
   56.6340   30.6320   43.9180 C   0  0  0  0  0  0  0  0  0  0  0  0
   55.6300   29.5710   44.1890 C   0  0  0  0  0  0  0  0  0  0  0  0
   54.5930   29.4970   43.4790 O   0  0  0  0  0  0  0  0  0  0  0  0
   55.8850   28.6150   45.2330 N   0  0  0  0  0  0  0  0  0  0  0  0
   57.1240   28.0840   45.7360 C   0  0  0  0  0  0  0  0  0  0  0  0
   57.6220   26.8100   45.3950 C   0  0  0  0  0  0  0  0  0  0  0  0
   58.8680   26.3900   45.8750 C   0  0  0  0  0  0  0  0  0  0  0  0
   59.6320   27.2360   46.6850 C   0  0  0  0  0  0  0  0  0  0  0  0
   59.1430   28.5000   47.0320 C   0  0  0  0  0  0  0  0  0  0  0  0
   60.1010   29.5710   48.0510 S   0  0  0  0  0  0  0  0  0  0  0  0
   59.0950   30.8340   48.6790 N   0  0  0  0  0  0  0  0  0  0  0  0
   60.7010   28.7880   49.1870 O   0  0  0  0  0  0  0  0  0  0  0  0
   61.2140   30.1740   47.2400 O   0  0  0  0  0  0  0  0  0  0  0  0
   57.8900   28.9140   46.5630 C   0  0  0  0  0  0  0  0  0  0  0  0
   57.3710   31.2170   44.9680 C   0  0  0  0  0  0  0  0  0  0  0  0
   58.5970   33.2780   47.0260 C   0  0  0  0  0  0  0  0  0  0  0  0
   57.4360   33.0710   47.4690 O   0  0  0  0  0  0  0  0  0  0  0  0
   59.6530   33.8270   47.7370 C   0  0  0  0  0  0  0  0  0  0  0  0
   59.6800   34.3310   48.9890 C   0  0  0  0  0  0  0  0  0  0  0  0
   59.5600   33.5160   50.2250 C   0  0  0  0  0  0  0  0  0  0  0  0
   60.5640   32.7620   50.7020 C   0  0  0  0  0  0  0  0  0  0  0  0
   61.9580   32.8390   50.2200 C   0  0  0  0  0  0  0  0  0  0  0  0
   62.4440   31.9250   49.2680 C   0  0  0  0  0  0  0  0  0  0  0  0
   63.7770   31.9830   48.8480 C   0  0  0  0  0  0  0  0  0  0  0  0
   64.6340   32.9510   49.3760 C   0  0  0  0  0  0  0  0  0  0  0  0
   64.1600   33.8600   50.3280 C   0  0  0  0  0  0  0  0  0  0  0  0
   62.8250   33.8010   50.7540 C   0  0  0  0  0  0  0  0  0  0  0  0
   62.2624   34.6381   47.9809 H   0  0  0  0  0  0  0  0  0  0  0  0
   62.6922   34.1459   46.1912 H   0  0  0  0  0  0  0  0  0  0  0  0
   59.1634   33.5227   43.1763 H   0  0  0  0  0  0  0  0  0  0  0  0
   57.8631   32.5002   41.3240 H   0  0  0  0  0  0  0  0  0  0  0  0
   56.2459   30.6698   41.7859 H   0  0  0  0  0  0  0  0  0  0  0  0
   57.0298   26.1442   44.7500 H   0  0  0  0  0  0  0  0  0  0  0  0
   59.2475   25.3910   45.6142 H   0  0  0  0  0  0  0  0  0  0  0  0
   60.6168   26.9079   47.0491 H   0  0  0  0  0  0  0  0  0  0  0  0
   59.7170   31.6460   48.8900 H   0  0  0  0  0  0  0  0  0  0  0  0
   58.4640   31.1360   47.9020 H   0  0  0  0  0  0  0  0  0  0  0  0
   57.5030   29.9035   46.8480 H   0  0  0  0  0  0  0  0  0  0  0  0
   57.2334   30.8509   45.9961 H   0  0  0  0  0  0  0  0  0  0  0  0
   59.7989   35.4188   49.1015 H   0  0  0  0  0  0  0  0  0  0  0  0
   58.6068   33.5306   50.7739 H   0  0  0  0  0  0  0  0  0  0  0  0
   60.3337   32.0423   51.5014 H   0  0  0  0  0  0  0  0  0  0  0  0
   61.7721   31.1602   48.8513 H   0  0  0  0  0  0  0  0  0  0  0  0
   64.1502   31.2661   48.1018 H   0  0  0  0  0  0  0  0  0  0  0  0
   65.6814   32.9987   49.0435 H   0  0  0  0  0  0  0  0  0  0  0  0
   64.8356   34.6224   50.7432 H   0  0  0  0  0  0  0  0  0  0  0  0
   62.4580   34.5117   51.5091 H   0  0  0  0  0  0  0  0  0  0  0  0
  1  2  2  0
  2  3  1  0
  3  4  1  0
  4  5  1  0
  5  6  2  0
  6  7  1  0
  7  8  2  0
  8  9  1  0
  9 10  1  0
 10 11  2  0
 10 12  1  0
 12 13  1  0
 13 14  2  0
 14 15  1  0
 15 16  2  0
 16 17  1  0
 17 18  1  0
 18 19  1  0
 18 20  2  0
 18 21  2  0
 17 22  2  0
  9 23  2  0
  4 24  1  0
 24 25  2  0
 24 26  1  0
 26 27  2  3
 27 28  1  0
 28 29  2  3
 29 30  1  0
 30 31  2  0
 31 32  1  0
 32 33  2  0
 33 34  1  0
 34 35  2  0
 26  2  1  0
 35 30  1  0
 23  5  1  0
 22 13  1  0
  1 36  1  0
  1 37  1  0
  6 38  1  0
  7 39  1  0
  8 40  1  0
 14 41  1  0
 15 42  1  0
 16 43  1  0
 19 44  1  0
 19 45  1  0
 22 46  1  0
 23 47  1  0
 27 48  1  0
 28 49  1  0
 29 50  1  0
 31 51  1  0
 32 52  1  0
 33 53  1  0
 34 54  1  0
 35 55  1  0
M  CHG  2   3  -1  12  -1
M  END
>  <UniqueID>  (68) 
67

>  <SMILES>  (68) 
C=c1[n-]n(-c2cccc(C(=O)[N-]c3cccc(S(N)(=O)=O)c3)c2)c(=O)c1=CC=Cc1ccccc1

>  <Energy>  (68) 
113.4653985897189

>  <Genealogy>  (68) 
C=c1[n-]n(-c2cccc(C(=O)[N-]c3cccc(S(N)(=O)=O)c3)c2)c(=O)c1=CC=Cc1ccccc1 (protonated)
C=c1[n-]n(-c2cccc(C(=O)[N-]c3cccc(S(N)(=O)=O)c3)c2)c(=O)c1=CC=Cc1ccccc1 (3D coordinates assigned)
C=c1[n-]n(-c2cccc(C(=O)[N-]c3cccc(S(N)(=O)=O)c3)c2)c(=O)c1=CC=Cc1ccccc1 (optimized conformer: 113.4653985897189 kcal/mol)

>  <smiles>  (68) 
C=c1[nH]n(-c2cccc(C(=O)Nc3cccc(S(N)(=O)=O)c3)c2)c(=O)c1=CC=Cc1ccccc1

>  <score_type>  (68) 
oracle

>  <origin>  (68) 
adg

>  <m_score__min__energy>  (68) 
-12.859999999999999

>  <m_primary>  (68) 
energy

$$$$
68:0
     RDKit          3D

 53 56  0  0  0  0  0  0  0  0999 V2000
   57.9390   25.5560   47.5090 O   0  0  0  0  0  0  0  0  0  0  0  0
   58.1320   26.4260   46.6170 C   0  0  0  0  0  0  0  0  0  0  0  0
   57.5220   26.2490   45.2620 C   0  0  0  0  0  0  0  0  0  0  0  0
   56.5230   25.1090   45.2840 C   0  0  0  0  0  0  0  0  0  0  0  0
   55.1840   25.3780   45.6480 C   0  0  0  0  0  0  0  0  0  0  0  0
   54.7860   26.6640   45.9980 O   0  0  0  0  0  0  0  0  0  0  0  0
   54.2360   24.3530   45.6630 C   0  0  0  0  0  0  0  0  0  0  0  0
   54.5990   23.0530   45.3160 C   0  0  0  0  0  0  0  0  0  0  0  0
   53.6530   22.0360   45.3470 O   0  0  0  0  0  0  0  0  0  0  0  0
   55.9120   22.7720   44.9380 C   0  0  0  0  0  0  0  0  0  0  0  0
   56.8830   23.7870   44.9000 C   0  0  0  0  0  0  0  0  0  0  0  0
   58.2930   23.4140   44.5080 C   0  0  0  0  0  0  0  0  0  0  0  0
   59.1190   23.3890   45.6400 O   0  0  0  0  0  0  0  0  0  0  0  0
   58.9180   27.5930   46.8870 N   0  0  0  0  0  0  0  0  0  0  0  0
   59.5810   27.9090   48.1210 C   0  0  0  0  0  0  0  0  0  0  0  0
   60.2320   26.9280   48.8900 C   0  0  0  0  0  0  0  0  0  0  0  0
   60.9140   27.2860   50.0560 C   0  0  0  0  0  0  0  0  0  0  0  0
   60.9660   28.6220   50.4570 C   0  0  0  0  0  0  0  0  0  0  0  0
   60.3330   29.6170   49.6940 C   0  0  0  0  0  0  0  0  0  0  0  0
   60.4070   31.0650   50.1110 C   0  0  0  0  0  0  0  0  0  0  0  0
   61.0570   31.9040   49.0350 C   0  0  0  0  0  0  0  0  0  0  0  0
   62.4160   31.9130   48.9870 N   0  0  0  0  0  0  0  0  0  0  0  0
   63.0900   32.6230   48.0850 N   0  0  0  0  0  0  0  0  0  0  0  0
   62.4550   33.3910   47.1670 C   0  0  0  0  0  0  0  0  0  0  0  0
   63.1380   34.0400   46.3290 O   0  0  0  0  0  0  0  0  0  0  0  0
   61.0520   33.4530   47.1580 C   0  0  0  0  0  0  0  0  0  0  0  0
   60.3270   32.6610   48.0840 C   0  0  0  0  0  0  0  0  0  0  0  0
   58.8070   32.7120   48.1250 C   0  0  0  0  0  0  0  0  0  0  0  0
   58.1790   33.3200   46.8670 C   0  0  0  0  0  0  0  0  0  0  0  0
   58.9020   34.6030   46.4730 C   0  0  0  0  0  0  0  0  0  0  0  0
   60.3520   34.2900   46.1050 C   0  0  0  0  0  0  0  0  0  0  0  0
   59.6490   29.2500   48.5220 C   0  0  0  0  0  0  0  0  0  0  0  0
   57.0084   27.1770   44.9704 H   0  0  0  0  0  0  0  0  0  0  0  0
   58.3165   26.0168   44.5376 H   0  0  0  0  0  0  0  0  0  0  0  0
   53.1971   24.5728   45.9502 H   0  0  0  0  0  0  0  0  0  0  0  0
   56.1907   21.7432   44.6663 H   0  0  0  0  0  0  0  0  0  0  0  0
   58.2887   22.4189   44.0392 H   0  0  0  0  0  0  0  0  0  0  0  0
   58.6782   24.1614   43.7987 H   0  0  0  0  0  0  0  0  0  0  0  0
   58.8430   24.1530   46.2110 H   0  0  0  0  0  0  0  0  0  0  0  0
   60.2043   25.8752   48.5726 H   0  0  0  0  0  0  0  0  0  0  0  0
   61.4114   26.5126   50.6597 H   0  0  0  0  0  0  0  0  0  0  0  0
   61.5055   28.8970   51.3753 H   0  0  0  0  0  0  0  0  0  0  0  0
   59.3890   31.4395   50.2938 H   0  0  0  0  0  0  0  0  0  0  0  0
   61.0130   31.1364   51.0262 H   0  0  0  0  0  0  0  0  0  0  0  0
   58.4278   31.6861   48.2418 H   0  0  0  0  0  0  0  0  0  0  0  0
   58.5289   33.3598   48.9694 H   0  0  0  0  0  0  0  0  0  0  0  0
   58.2505   32.5966   46.0414 H   0  0  0  0  0  0  0  0  0  0  0  0
   57.1251   33.5564   47.0754 H   0  0  0  0  0  0  0  0  0  0  0  0
   58.3957   35.0562   45.6080 H   0  0  0  0  0  0  0  0  0  0  0  0
   58.8863   35.3031   47.3213 H   0  0  0  0  0  0  0  0  0  0  0  0
   60.3631   33.7397   45.1526 H   0  0  0  0  0  0  0  0  0  0  0  0
   60.8902   35.2461   46.0267 H   0  0  0  0  0  0  0  0  0  0  0  0
   59.1612   30.0248   47.9123 H   0  0  0  0  0  0  0  0  0  0  0  0
  1  2  2  0
  2  3  1  0
  3  4  1  0
  4  5  2  0
  5  6  1  0
  5  7  1  0
  7  8  2  0
  8  9  1  0
  8 10  1  0
 10 11  2  0
 11 12  1  0
 12 13  1  0
  2 14  1  0
 14 15  1  0
 15 16  2  0
 16 17  1  0
 17 18  2  0
 18 19  1  0
 19 20  1  0
 20 21  1  0
 21 22  2  0
 22 23  1  0
 23 24  1  0
 24 25  2  0
 24 26  1  0
 26 27  2  0
 27 28  1  0
 28 29  1  0
 29 30  1  0
 30 31  1  0
 19 32  2  0
 11  4  1  0
 32 15  1  0
 27 21  1  0
 31 26  1  0
  3 33  1  0
  3 34  1  0
  7 35  1  0
 10 36  1  0
 12 37  1  0
 12 38  1  0
 13 39  1  0
 16 40  1  0
 17 41  1  0
 18 42  1  0
 20 43  1  0
 20 44  1  0
 28 45  1  0
 28 46  1  0
 29 47  1  0
 29 48  1  0
 30 49  1  0
 30 50  1  0
 31 51  1  0
 31 52  1  0
 32 53  1  0
M  CHG  4   6  -1   9  -1  14  -1  23  -1
M  END
>  <UniqueID>  (69) 
68

>  <SMILES>  (69) 
O=C(Cc1c([O-])cc([O-])cc1CO)[N-]c1cccc(Cc2n[n-]c(=O)c3c2CCCC3)c1

>  <Energy>  (69) 
64.23165936698764

>  <Genealogy>  (69) 
O=C(Cc1c([O-])cc([O-])cc1CO)[N-]c1cccc(Cc2n[n-]c(=O)c3c2CCCC3)c1 (protonated)
O=C(Cc1c([O-])cc([O-])cc1CO)[N-]c1cccc(Cc2n[n-]c(=O)c3c2CCCC3)c1 (3D coordinates assigned)
O=C(Cc1c([O-])cc([O-])cc1CO)[N-]c1cccc(Cc2n[n-]c(=O)c3c2CCCC3)c1 (nonaromatic ring conformer: 64.23165936698764 kcal/mol)

>  <smiles>  (69) 
O=C(Cc1c(O)cc(O)cc1CO)Nc1cccc(Cc2n[nH]c(=O)c3c2CCCC3)c1

>  <score_type>  (69) 
oracle

>  <origin>  (69) 
adg

>  <m_score__min__energy>  (69) 
-17

>  <m_primary>  (69) 
energy

$$$$
69:0
     RDKit          3D

 52 54  0  0  0  0  0  0  0  0999 V2000
   62.5240   33.7510   50.4290 C   0  0  0  0  0  0  0  0  0  0  0  0
   62.1830   32.7830   49.3740 N   0  0  0  0  0  0  0  0  0  0  0  0
   63.1280   31.6580   49.3680 C   0  0  0  0  0  0  0  0  0  0  0  0
   62.1690   33.4280   48.0840 C   0  0  0  0  0  0  0  0  0  0  0  0
   62.9540   33.0440   47.1720 O   0  0  0  0  0  0  0  0  0  0  0  0
   61.2450   34.4500   47.8370 O   0  0  0  0  0  0  0  0  0  0  0  0
   60.0240   34.2530   47.1780 C   0  0  0  0  0  0  0  0  0  0  0  0
   59.8110   34.9270   45.9700 C   0  0  0  0  0  0  0  0  0  0  0  0
   58.6080   34.7790   45.2780 C   0  0  0  0  0  0  0  0  0  0  0  0
   57.6140   33.9380   45.7770 C   0  0  0  0  0  0  0  0  0  0  0  0
   57.8220   33.2370   46.9670 C   0  0  0  0  0  0  0  0  0  0  0  0
   59.0230   33.3860   47.6860 C   0  0  0  0  0  0  0  0  0  0  0  0
   59.2510   32.5640   48.9000 C   0  0  0  0  0  0  0  0  0  0  0  0
   59.2000   33.1140   50.0320 O   0  0  0  0  0  0  0  0  0  0  0  0
   59.6240   31.1800   48.8310 N   0  0  0  0  0  0  0  0  0  0  0  0
   59.7740   30.3730   47.6540 C   0  0  0  0  0  0  0  0  0  0  0  0
   61.0330   30.1050   47.0880 C   0  0  0  0  0  0  0  0  0  0  0  0
   61.1330   29.3320   45.9290 C   0  0  0  0  0  0  0  0  0  0  0  0
   59.9820   28.8370   45.3140 C   0  0  0  0  0  0  0  0  0  0  0  0
   58.7190   29.1230   45.8500 C   0  0  0  0  0  0  0  0  0  0  0  0
   57.2600   28.5290   45.0540 S   0  0  0  0  0  0  0  0  0  0  0  0
   56.5110   27.6330   46.0000 O   0  0  0  0  0  0  0  0  0  0  0  0
   57.6500   27.7110   43.8540 O   0  0  0  0  0  0  0  0  0  0  0  0
   56.2120   29.8370   44.5440 N   0  0  0  0  0  0  0  0  0  0  0  0
   56.8750   31.1370   44.6920 C   0  0  0  0  0  0  0  0  0  0  0  0
   57.4280   31.5520   43.3360 C   0  0  0  0  0  0  0  0  0  0  0  0
   56.7820   30.6260   42.3250 C   0  0  0  0  0  0  0  0  0  0  0  0
   55.8640   29.7140   43.1240 C   0  0  0  0  0  0  0  0  0  0  0  0
   58.6220   29.8900   47.0190 C   0  0  0  0  0  0  0  0  0  0  0  0
   62.3620   33.2910   51.4150 H   0  0  0  0  0  0  0  0  0  0  0  0
   63.5796   34.0443   50.3302 H   0  0  0  0  0  0  0  0  0  0  0  0
   61.8853   34.6411   50.3302 H   0  0  0  0  0  0  0  0  0  0  0  0
   61.2250   32.4090   49.5730 H   0  0  0  0  0  0  0  0  0  0  0  0
   63.3666   31.3740   50.4036 H   0  0  0  0  0  0  0  0  0  0  0  0
   62.6748   30.8012   48.8480 H   0  0  0  0  0  0  0  0  0  0  0  0
   64.0502   31.9565   48.8480 H   0  0  0  0  0  0  0  0  0  0  0  0
   60.5981   35.5786   45.5627 H   0  0  0  0  0  0  0  0  0  0  0  0
   58.4439   35.3263   44.3381 H   0  0  0  0  0  0  0  0  0  0  0  0
   56.6647   33.8265   45.2326 H   0  0  0  0  0  0  0  0  0  0  0  0
   57.0402   32.5623   47.3458 H   0  0  0  0  0  0  0  0  0  0  0  0
   61.9424   30.5056   47.5597 H   0  0  0  0  0  0  0  0  0  0  0  0
   62.1217   29.1127   45.4997 H   0  0  0  0  0  0  0  0  0  0  0  0
   60.0663   28.2210   44.4066 H   0  0  0  0  0  0  0  0  0  0  0  0
   56.1497   31.8861   45.0424 H   0  0  0  0  0  0  0  0  0  0  0  0
   57.6908   31.0635   45.4262 H   0  0  0  0  0  0  0  0  0  0  0  0
   57.1658   32.5981   43.1194 H   0  0  0  0  0  0  0  0  0  0  0  0
   58.5253   31.4801   43.3073 H   0  0  0  0  0  0  0  0  0  0  0  0
   56.2022   31.2051   41.5912 H   0  0  0  0  0  0  0  0  0  0  0  0
   57.5341   30.0518   41.7641 H   0  0  0  0  0  0  0  0  0  0  0  0
   54.8168   30.0139   42.9706 H   0  0  0  0  0  0  0  0  0  0  0  0
   55.9851   28.6718   42.7937 H   0  0  0  0  0  0  0  0  0  0  0  0
   57.6319   30.1150   47.4422 H   0  0  0  0  0  0  0  0  0  0  0  0
  1  2  1  0
  2  3  1  0
  2  4  1  0
  4  5  2  0
  4  6  1  0
  6  7  1  0
  7  8  2  0
  8  9  1  0
  9 10  2  0
 10 11  1  0
 11 12  2  0
 12 13  1  0
 13 14  2  0
 13 15  1  0
 15 16  1  0
 16 17  2  0
 17 18  1  0
 18 19  2  0
 19 20  1  0
 20 21  1  0
 21 22  2  0
 21 23  2  0
 21 24  1  0
 24 25  1  0
 25 26  1  0
 26 27  1  0
 27 28  1  0
 20 29  2  0
 12  7  1  0
 29 16  1  0
 28 24  1  0
  1 30  1  0
  1 31  1  0
  1 32  1  0
  2 33  1  0
  3 34  1  0
  3 35  1  0
  3 36  1  0
  8 37  1  0
  9 38  1  0
 10 39  1  0
 11 40  1  0
 17 41  1  0
 18 42  1  0
 19 43  1  0
 25 44  1  0
 25 45  1  0
 26 46  1  0
 26 47  1  0
 27 48  1  0
 27 49  1  0
 28 50  1  0
 28 51  1  0
 29 52  1  0
M  CHG  2   2   1  15  -1
M  END
>  <UniqueID>  (70) 
69

>  <SMILES>  (70) 
C[NH+](C)C(=O)Oc1ccccc1C(=O)[N-]c1cccc(S(=O)(=O)N2CCCC2)c1

>  <Energy>  (70) 
67.34008593204199

>  <Genealogy>  (70) 
C[NH+](C)C(=O)Oc1ccccc1C(=O)[N-]c1cccc(S(=O)(=O)N2CCCC2)c1 (protonated)
C[NH+](C)C(=O)Oc1ccccc1C(=O)[N-]c1cccc(S(=O)(=O)N2CCCC2)c1 (3D coordinates assigned)
C[NH+](C)C(=O)Oc1ccccc1C(=O)[N-]c1cccc(S(=O)(=O)N2CCCC2)c1 (nonaromatic ring conformer: 67.34008593204199 kcal/mol)

>  <smiles>  (70) 
CN(C)C(=O)Oc1ccccc1C(=O)Nc1cccc(S(=O)(=O)N2CCCC2)c1

>  <score_type>  (70) 
oracle

>  <origin>  (70) 
adg

>  <m_score__min__energy>  (70) 
-9.25

>  <m_primary>  (70) 
energy

$$$$
70:0
     RDKit          3D

 52 56  0  0  1  0  0  0  0  0999 V2000
   55.9370   26.3640   46.6080 O   0  0  0  0  0  0  0  0  0  0  0  0
   56.7360   25.7670   45.8580 C   0  0  0  0  0  0  0  0  0  0  0  0
   58.1190   26.0340   45.9320 N   0  0  0  0  0  0  0  0  0  0  0  0
   58.7660   26.9400   46.7880 C   0  0  0  0  0  0  0  0  0  0  0  0
   59.8110   26.4610   47.5870 C   0  0  0  0  0  0  0  0  0  0  0  0
   60.5010   27.2770   48.4550 C   0  0  0  0  0  0  0  0  0  0  0  0
   60.2030   28.6150   48.5920 C   0  0  0  0  0  0  0  0  0  0  0  0
   61.1360   29.5910   49.7280 S   0  0  0  0  0  0  0  0  0  0  0  0
   60.1440   30.9880   50.2340 C   0  0  0  0  0  0  0  0  0  0  0  0
   59.2900   30.9570   51.3030 C   0  0  0  0  0  0  0  0  0  0  0  0
   58.5590   32.0880   51.6230 C   0  0  0  0  0  0  0  0  0  0  0  0
   57.6710   32.0930   52.7170 O   0  0  0  0  0  0  0  0  0  0  0  0
   56.6210   31.1800   52.6620 C   0  0  0  0  0  0  0  0  0  0  0  0
   56.3620   30.1420   53.5300 C   0  0  0  0  0  0  0  0  0  0  0  0
   55.2090   29.4760   53.1070 C   0  0  0  0  0  0  0  0  0  0  0  0
   54.6610   28.4700   53.6520 O   0  0  0  0  0  0  0  0  0  0  0  0
   54.8090   30.1260   52.0040 N   0  0  0  0  0  0  0  0  0  0  0  0
   55.6370   31.1320   51.7370 N   0  0  0  0  0  0  0  0  0  0  0  0
   58.6980   33.2120   50.8730 N   0  0  0  0  0  0  0  0  0  0  0  0
   59.5340   33.2010   49.8460 C   0  0  0  0  0  0  0  0  0  0  0  0
   59.6990   34.2620   49.0950 N   0  0  0  0  0  0  0  0  0  0  0  0
   59.2390   34.2680   47.7370 C   0  0  0  0  0  0  0  0  0  0  0  0
   59.8300   35.0390   46.7580 C   0  0  0  0  0  0  0  0  0  0  0  0
   59.2820   34.9450   45.4880 C   0  0  0  0  0  0  0  0  0  0  0  0
   58.1960   34.1230   45.2130 C   0  0  0  0  0  0  0  0  0  0  0  0
   57.6490   33.3830   46.2080 N   0  0  0  0  0  0  0  0  0  0  0  0
   58.1490   33.4390   47.4710 C   0  0  0  0  0  0  0  0  0  0  0  0
   60.2610   32.1220   49.5040 N   0  0  0  0  0  0  0  0  0  0  0  0
   59.1760   29.1040   47.8130 C   0  0  0  0  0  0  0  0  0  0  0  0
   58.4780   28.2690   46.9300 C   0  0  0  0  0  0  0  0  0  0  0  0
   56.2180   24.8120   44.9310 C   0  0  0  0  0  0  0  0  0  0  0  0
   54.9360   24.1760   44.9160 C   0  0  0  0  0  0  0  0  0  0  0  0
   54.6680   23.3200   43.9580 C   0  0  0  0  0  0  0  0  0  0  0  0
   55.6600   23.0690   42.9900 C   0  0  0  0  0  0  0  0  0  0  0  0
   57.0580   24.1600   43.5320 S   0  0  0  0  0  0  0  0  0  0  0  0
   58.7280   25.4840   45.2610 H   0  0  0  0  0  0  0  0  0  0  0  0
   60.0896   25.3990   47.5191 H   0  0  0  0  0  0  0  0  0  0  0  0
   61.3150   26.8476   49.0575 H   0  0  0  0  0  0  0  0  0  0  0  0
   59.1854   30.0409   51.9029 H   0  0  0  0  0  0  0  0  0  0  0  0
   56.9647   29.8803   54.4122 H   0  0  0  0  0  0  0  0  0  0  0  0
   53.9670   29.8540   51.4620 H   0  0  0  0  0  0  0  0  0  0  0  0
   55.5560   31.8030   50.9290 H   0  0  0  0  0  0  0  0  0  0  0  0
   58.1640   34.0770   51.0870 H   0  0  0  0  0  0  0  0  0  0  0  0
   60.6885   35.6923   46.9729 H   0  0  0  0  0  0  0  0  0  0  0  0
   59.7204   35.5395   44.6729 H   0  0  0  0  0  0  0  0  0  0  0  0
   57.7830   34.0732   44.1947 H   0  0  0  0  0  0  0  0  0  0  0  0
   57.6990   32.8372   48.2744 H   0  0  0  0  0  0  0  0  0  0  0  0
   58.9001   30.1663   47.8857 H   0  0  0  0  0  0  0  0  0  0  0  0
   57.6655   28.7003   46.3268 H   0  0  0  0  0  0  0  0  0  0  0  0
   54.1897   24.4003   45.6924 H   0  0  0  0  0  0  0  0  0  0  0  0
   53.6936   22.8116   43.9121 H   0  0  0  0  0  0  0  0  0  0  0  0
   55.6161   22.3916   42.1244 H   0  0  0  0  0  0  0  0  0  0  0  0
  1  2  2  0
  2  3  1  0
  3  4  1  0
  4  5  2  0
  5  6  1  0
  6  7  2  0
  7  8  1  0
  8  9  1  0
  9 10  1  0
 10 11  2  0
 11 12  1  0
 12 13  1  0
 13 14  2  0
 14 15  1  0
 15 16  2  0
 15 17  1  0
 17 18  1  0
 11 19  1  0
 19 20  1  0
 20 21  2  0
 21 22  1  0
 22 23  2  0
 23 24  1  0
 24 25  2  0
 25 26  1  0
 26 27  2  0
 20 28  1  0
  7 29  1  0
 29 30  2  0
  2 31  1  0
 31 32  2  0
 32 33  1  0
 33 34  2  0
 34 35  1  0
 30  4  1  0
 35 31  1  0
 28  9  2  0
 18 13  1  0
 27 22  1  0
  3 36  1  0
  5 37  1  0
  6 38  1  0
 10 39  1  0
 14 40  1  0
 17 41  1  0
 18 42  1  0
 19 43  1  0
 23 44  1  0
 24 45  1  0
 25 46  1  0
 27 47  1  0
 29 48  1  0
 30 49  1  0
 32 50  1  0
 33 51  1  0
 34 52  1  0
M  END
>  <smiles>  (71) 
O=C(Nc1ccc(Sc2cc(Oc3cc(=O)[nH][nH]3)[nH]c(=Nc3cccnc3)n2)cc1)c1cccs1

>  <score_type>  (71) 
oracle

>  <origin>  (71) 
adg

>  <m_score__min__energy>  (71) 
-9.5399999999999991

>  <m_primary>  (71) 
energy

$$$$
71:0
     RDKit          3D

 42 43  0  0  0  0  0  0  0  0999 V2000
   56.9599   24.5797   44.2560 H   0  0  0  0  0  0  0  0  0  0  0  0
   56.9790   25.5110   44.8410 C   0  0  0  0  0  0  0  0  0  0  0  0
   56.0250   25.6190   45.9600 C   0  0  0  0  0  0  0  0  0  0  0  0
   56.4190   25.5770   47.1570 O   0  0  0  0  0  0  0  0  0  0  0  0
   54.6770   25.8480   45.6710 O   0  0  0  0  0  0  0  0  0  0  0  0
   53.7480   24.7910   45.4580 C   0  0  0  0  0  0  0  0  0  0  0  0
   53.4062   24.4021   46.4285 H   0  0  0  0  0  0  0  0  0  0  0  0
   52.8853   25.1699   44.8904 H   0  0  0  0  0  0  0  0  0  0  0  0
   54.2345   23.9841   44.8904 H   0  0  0  0  0  0  0  0  0  0  0  0
   57.8690   26.4460   44.4710 C   0  0  0  0  0  0  0  0  0  0  0  0
   58.5626   26.1850   43.6581 H   0  0  0  0  0  0  0  0  0  0  0  0
   57.9980   27.7960   45.0610 C   0  0  0  0  0  0  0  0  0  0  0  0
   58.0980   27.9300   46.3140 O   0  0  0  0  0  0  0  0  0  0  0  0
   58.1420   28.9510   44.2000 N   0  0  0  0  0  0  0  0  0  0  0  0
   58.7630   28.6820   43.3990 H   0  0  0  0  0  0  0  0  0  0  0  0
   56.8330   29.3500   43.6090 C   0  0  0  0  0  0  0  0  0  0  0  0
   56.9902   29.6335   42.5579 H   0  0  0  0  0  0  0  0  0  0  0  0
   56.1482   28.4933   43.6933 H   0  0  0  0  0  0  0  0  0  0  0  0
   56.2010   30.5350   44.3520 C   0  0  0  0  0  0  0  0  0  0  0  0
   55.2383   30.7831   43.8812 H   0  0  0  0  0  0  0  0  0  0  0  0
   56.0524   30.2509   45.4043 H   0  0  0  0  0  0  0  0  0  0  0  0
   57.0840   31.7210   44.3030 N   0  0  0  0  0  0  0  0  0  0  0  0
   56.6810   32.8020   45.2320 C   0  0  0  0  0  0  0  0  0  0  0  0
   56.0558   33.5185   44.6791 H   0  0  0  0  0  0  0  0  0  0  0  0
   56.1418   32.3239   46.0631 H   0  0  0  0  0  0  0  0  0  0  0  0
   57.8480   33.5570   45.8410 C   0  0  0  0  0  0  0  0  0  0  0  0
   58.5480   34.5100   45.0800 C   0  0  0  0  0  0  0  0  0  0  0  0
   58.2520   34.7026   44.0382 H   0  0  0  0  0  0  0  0  0  0  0  0
   59.6180   35.2140   45.6400 C   0  0  0  0  0  0  0  0  0  0  0  0
   60.1528   35.9669   45.0424 H   0  0  0  0  0  0  0  0  0  0  0  0
   60.0090   34.9630   46.9570 C   0  0  0  0  0  0  0  0  0  0  0  0
   60.8455   35.5244   47.3986 H   0  0  0  0  0  0  0  0  0  0  0  0
   59.3380   33.9990   47.7140 C   0  0  0  0  0  0  0  0  0  0  0  0
   59.8440   33.6690   49.3610 Cl  0  0  0  0  0  0  0  0  0  0  0  0
   58.2670   33.2920   47.1560 C   0  0  0  0  0  0  0  0  0  0  0  0
   57.7500   32.5242   47.7502 H   0  0  0  0  0  0  0  0  0  0  0  0
   58.5350   31.4120   44.3110 C   0  0  0  0  0  0  0  0  0  0  0  0
   58.9046   31.4116   43.2750 H   0  0  0  0  0  0  0  0  0  0  0  0
   59.0446   32.1793   44.9124 H   0  0  0  0  0  0  0  0  0  0  0  0
   58.8230   30.0420   44.9420 C   0  0  0  0  0  0  0  0  0  0  0  0
   59.9081   29.8620   44.9274 H   0  0  0  0  0  0  0  0  0  0  0  0
   58.4429   30.0490   45.9742 H   0  0  0  0  0  0  0  0  0  0  0  0
  1  2  1  0
  2  3  1  0
  3  4  2  0
  3  5  1  0
  5  6  1  0
  6  7  1  0
  6  8  1  0
  6  9  1  0
  2 10  2  0
 10 11  1  0
 10 12  1  0
 12 13  2  0
 12 14  1  0
 14 15  1  0
 14 16  1  0
 16 17  1  0
 16 18  1  0
 16 19  1  0
 19 20  1  0
 19 21  1  0
 19 22  1  0
 22 23  1  0
 23 24  1  0
 23 25  1  0
 23 26  1  0
 26 27  2  0
 27 28  1  0
 27 29  1  0
 29 30  1  0
 29 31  2  0
 31 32  1  0
 31 33  1  0
 33 34  1  0
 33 35  2  0
 35 36  1  0
 22 37  1  0
 37 38  1  0
 37 39  1  0
 37 40  1  0
 40 41  1  0
 40 42  1  0
 40 14  1  0
 35 26  1  0
M  CHG  1  14   1
M  END
>  <UniqueID>  (72) 
70

>  <SMILES>  (72) 
COC(=O)/C=C\C(=O)[NH+]1CCN(Cc2cccc(Cl)c2)CC1

>  <Energy>  (72) 
60.542668226315705

>  <Genealogy>  (72) 
COC(=O)C=CC(=O)[NH+]1CCN(Cc2cccc(Cl)c2)CC1 (protonated)
COC(=O)/C=C\C(=O)[NH+]1CCN(Cc2cccc(Cl)c2)CC1 (cis-trans isomerization)
COC(=O)/C=C\C(=O)[NH+]1CCN(Cc2cccc(Cl)c2)CC1 (3D coordinates assigned)
COC(=O)/C=C\C(=O)[NH+]1CCN(Cc2cccc(Cl)c2)CC1 (nonaromatic ring conformer: 60.542668226315705 kcal/mol)

>  <smiles>  (72) 
COC(=O)C=CC(=O)N1CCN(Cc2cccc(Cl)c2)CC1

>  <score_type>  (72) 
oracle

>  <origin>  (72) 
adg

>  <m_score__min__energy>  (72) 
-6.2599999999999998

>  <m_primary>  (72) 
energy

$$$$
72:0
     RDKit          3D

 46 48  0  0  0  0  0  0  0  0999 V2000
   60.1760   29.9690   48.4910 O   0  0  0  0  0  0  0  0  0  0  0  0
   60.4890   30.3130   47.3200 C   0  0  0  0  0  0  0  0  0  0  0  0
   59.7530   29.7060   46.1530 C   0  0  0  0  0  0  0  0  0  0  0  0
   58.3410   30.0740   46.1730 N   0  0  0  0  0  0  0  0  0  0  0  0
   57.8510   31.3520   45.7460 C   0  0  0  0  0  0  0  0  0  0  0  0
   56.9140   31.4120   44.9020 O   0  0  0  0  0  0  0  0  0  0  0  0
   58.4400   32.5970   46.2910 C   0  0  0  0  0  0  0  0  0  0  0  0
   58.4840   33.7690   45.5130 C   0  0  0  0  0  0  0  0  0  0  0  0
   59.0380   34.9410   46.0320 C   0  0  0  0  0  0  0  0  0  0  0  0
   59.5560   34.9620   47.3270 C   0  0  0  0  0  0  0  0  0  0  0  0
   59.5290   33.8030   48.1140 C   0  0  0  0  0  0  0  0  0  0  0  0
   60.1810   33.8300   49.7580 S   0  0  0  0  0  0  0  0  0  0  0  0
   61.5010   34.5490   49.7480 O   0  0  0  0  0  0  0  0  0  0  0  0
   59.2400   34.5960   50.6450 O   0  0  0  0  0  0  0  0  0  0  0  0
   60.4080   32.2270   50.4160 N   0  0  0  0  0  0  0  0  0  0  0  0
   59.1410   31.5750   50.7530 C   0  0  0  0  0  0  0  0  0  0  0  0
   59.4530   30.5560   51.8400 C   0  0  0  0  0  0  0  0  0  0  0  0
   60.7920   30.9850   52.4260 C   0  0  0  0  0  0  0  0  0  0  0  0
   61.1900   32.2360   51.6550 C   0  0  0  0  0  0  0  0  0  0  0  0
   58.9620   32.6280   47.5970 C   0  0  0  0  0  0  0  0  0  0  0  0
   61.5390   31.2820   47.1530 N   0  0  0  0  0  0  0  0  0  0  0  0
   62.4440   31.6480   48.0180 C   0  0  0  0  0  0  0  0  0  0  0  0
   62.6790   30.9190   49.1460 N   0  0  0  0  0  0  0  0  0  0  0  0
   63.6040   31.2920   50.0690 C   0  0  0  0  0  0  0  0  0  0  0  0
   64.3450   32.4600   49.8830 C   0  0  0  0  0  0  0  0  0  0  0  0
   65.5400   32.9510   51.0700 Cl  0  0  0  0  0  0  0  0  0  0  0  0
   64.1210   33.2350   48.7440 C   0  0  0  0  0  0  0  0  0  0  0  0
   63.1660   32.8350   47.8040 C   0  0  0  0  0  0  0  0  0  0  0  0
   62.8950   33.8280   46.3760 Cl  0  0  0  0  0  0  0  0  0  0  0  0
   60.2048   30.0660   45.2169 H   0  0  0  0  0  0  0  0  0  0  0  0
   59.8295   28.6109   46.2233 H   0  0  0  0  0  0  0  0  0  0  0  0
   58.0796   33.7617   44.4901 H   0  0  0  0  0  0  0  0  0  0  0  0
   59.0661   35.8523   45.4165 H   0  0  0  0  0  0  0  0  0  0  0  0
   59.9865   35.8901   47.7311 H   0  0  0  0  0  0  0  0  0  0  0  0
   60.9100   31.6480   49.7020 H   0  0  0  0  0  0  0  0  0  0  0  0
   58.4190   32.3172   51.1243 H   0  0  0  0  0  0  0  0  0  0  0  0
   58.6965   31.0911   49.8708 H   0  0  0  0  0  0  0  0  0  0  0  0
   58.6722   30.5688   52.6148 H   0  0  0  0  0  0  0  0  0  0  0  0
   59.4910   29.5316   51.4410 H   0  0  0  0  0  0  0  0  0  0  0  0
   60.6884   31.2104   53.4977 H   0  0  0  0  0  0  0  0  0  0  0  0
   61.5495   30.1923   52.3375 H   0  0  0  0  0  0  0  0  0  0  0  0
   60.9582   33.1355   52.2442 H   0  0  0  0  0  0  0  0  0  0  0  0
   62.2695   32.2469   51.4441 H   0  0  0  0  0  0  0  0  0  0  0  0
   58.9253   31.7218   48.2194 H   0  0  0  0  0  0  0  0  0  0  0  0
   63.7688   30.6730   50.9633 H   0  0  0  0  0  0  0  0  0  0  0  0
   64.6953   34.1598   48.5859 H   0  0  0  0  0  0  0  0  0  0  0  0
  1  2  2  0
  2  3  1  0
  3  4  1  0
  4  5  1  0
  5  6  2  0
  5  7  1  0
  7  8  2  0
  8  9  1  0
  9 10  2  0
 10 11  1  0
 11 12  1  0
 12 13  2  0
 12 14  2  0
 12 15  1  0
 15 16  1  0
 16 17  1  0
 17 18  1  0
 18 19  1  0
 11 20  2  0
  2 21  1  0
 21 22  2  3
 22 23  1  0
 23 24  1  0
 24 25  2  0
 25 26  1  0
 25 27  1  0
 27 28  2  0
 28 29  1  0
 20  7  1  0
 28 22  1  0
 19 15  1  0
  3 30  1  0
  3 31  1  0
  8 32  1  0
  9 33  1  0
 10 34  1  0
 15 35  1  0
 16 36  1  0
 16 37  1  0
 17 38  1  0
 17 39  1  0
 18 40  1  0
 18 41  1  0
 19 42  1  0
 19 43  1  0
 20 44  1  0
 24 45  1  0
 27 46  1  0
M  CHG  3   4  -1  15   1  23  -1
M  END
>  <UniqueID>  (73) 
71

>  <SMILES>  (73) 
O=C(C[N-]C(=O)c1cccc(S(=O)(=O)[NH+]2CCCC2)c1)N=c1[n-]cc(Cl)cc1Cl

>  <Energy>  (73) 
53.23775190653537

>  <Genealogy>  (73) 
O=C(C[N-]C(=O)c1cccc(S(=O)(=O)[NH+]2CCCC2)c1)N=c1[n-]cc(Cl)cc1Cl (protonated)
O=C(C[N-]C(=O)c1cccc(S(=O)(=O)[NH+]2CCCC2)c1)N=c1[n-]cc(Cl)cc1Cl (3D coordinates assigned)
O=C(C[N-]C(=O)c1cccc(S(=O)(=O)[NH+]2CCCC2)c1)N=c1[n-]cc(Cl)cc1Cl (nonaromatic ring conformer: 53.23775190653537 kcal/mol)

>  <smiles>  (73) 
O=C(CNC(=O)c1cccc(S(=O)(=O)N2CCCC2)c1)N=c1[nH]cc(Cl)cc1Cl

>  <score_type>  (73) 
oracle

>  <origin>  (73) 
adg

>  <m_score__min__energy>  (73) 
-10.51

>  <m_primary>  (73) 
energy

$$$$
73:0
     RDKit          3D

 49 52  0  0  0  0  0  0  0  0999 V2000
   59.9140   29.0330   44.5930 C   0  0  0  0  0  0  0  0  0  0  0  0
   59.5420   28.8990   45.8770 C   0  0  0  0  0  0  0  0  0  0  0  0
   58.6260   27.9670   46.3850 C   0  0  0  0  0  0  0  0  0  0  0  0
   57.9440   27.0370   45.6780 C   0  0  0  0  0  0  0  0  0  0  0  0
   57.2520   25.8540   46.2400 C   0  0  0  0  0  0  0  0  0  0  0  0
   57.8380   24.7400   46.7120 N   0  0  0  0  0  0  0  0  0  0  0  0
   56.7990   23.9800   47.1190 C   0  0  0  0  0  0  0  0  0  0  0  0
   56.9510   22.8400   47.6290 O   0  0  0  0  0  0  0  0  0  0  0  0
   55.5850   24.5410   46.9380 N   0  0  0  0  0  0  0  0  0  0  0  0
   55.8890   25.7240   46.3830 C   0  0  0  0  0  0  0  0  0  0  0  0
   54.9390   26.6660   46.0100 O   0  0  0  0  0  0  0  0  0  0  0  0
   58.5650   28.1970   47.7540 C   0  0  0  0  0  0  0  0  0  0  0  0
   59.4390   29.2290   48.0260 C   0  0  0  0  0  0  0  0  0  0  0  0
   59.6760   29.7700   49.3770 C   0  0  0  0  0  0  0  0  0  0  0  0
   58.7030   30.2110   50.0460 O   0  0  0  0  0  0  0  0  0  0  0  0
   60.9910   29.7480   49.9490 N   0  0  0  0  0  0  0  0  0  0  0  0
   61.3970   30.6560   51.0170 C   0  0  0  0  0  0  0  0  0  0  0  0
   61.9710   31.9080   50.4180 C   0  0  0  0  0  0  0  0  0  0  0  0
   61.2150   33.0880   50.3780 C   0  0  0  0  0  0  0  0  0  0  0  0
   61.7430   34.2230   49.7590 C   0  0  0  0  0  0  0  0  0  0  0  0
   62.9760   34.1760   49.1880 N   0  0  0  0  0  0  0  0  0  0  0  0
   63.7240   33.0400   49.2000 C   0  0  0  0  0  0  0  0  0  0  0  0
   63.2330   31.8830   49.8080 C   0  0  0  0  0  0  0  0  0  0  0  0
   60.0220   29.6720   46.8870 N   0  0  0  0  0  0  0  0  0  0  0  0
   60.9000   30.8480   46.7580 C   0  0  0  0  0  0  0  0  0  0  0  0
   60.1480   32.1620   46.7800 C   0  0  0  0  0  0  0  0  0  0  0  0
   58.7460   32.2280   46.9120 C   0  0  0  0  0  0  0  0  0  0  0  0
   58.0920   33.4640   46.8940 C   0  0  0  0  0  0  0  0  0  0  0  0
   58.8220   34.6420   46.7380 C   0  0  0  0  0  0  0  0  0  0  0  0
   60.2100   34.5890   46.5960 C   0  0  0  0  0  0  0  0  0  0  0  0
   60.8720   33.3570   46.6160 C   0  0  0  0  0  0  0  0  0  0  0  0
   62.2210   33.3310   46.4710 F   0  0  0  0  0  0  0  0  0  0  0  0
   60.6451   29.8046   44.3098 H   0  0  0  0  0  0  0  0  0  0  0  0
   59.4875   28.3711   43.8249 H   0  0  0  0  0  0  0  0  0  0  0  0
   57.8993   27.1714   44.5872 H   0  0  0  0  0  0  0  0  0  0  0  0
   57.9395   27.6591   48.4816 H   0  0  0  0  0  0  0  0  0  0  0  0
   61.7300   29.1670   49.4960 H   0  0  0  0  0  0  0  0  0  0  0  0
   60.5224   30.9118   51.6331 H   0  0  0  0  0  0  0  0  0  0  0  0
   62.1571   30.1677   51.6445 H   0  0  0  0  0  0  0  0  0  0  0  0
   60.2131   33.1196   50.8310 H   0  0  0  0  0  0  0  0  0  0  0  0
   61.1608   35.1559   49.7334 H   0  0  0  0  0  0  0  0  0  0  0  0
   64.7183   33.0328   48.7295 H   0  0  0  0  0  0  0  0  0  0  0  0
   63.8312   30.9599   49.8084 H   0  0  0  0  0  0  0  0  0  0  0  0
   61.6167   30.8419   47.5924 H   0  0  0  0  0  0  0  0  0  0  0  0
   61.4006   30.7753   45.7812 H   0  0  0  0  0  0  0  0  0  0  0  0
   58.1634   31.3024   47.0298 H   0  0  0  0  0  0  0  0  0  0  0  0
   56.9983   33.5072   47.0032 H   0  0  0  0  0  0  0  0  0  0  0  0
   58.3045   35.6126   46.7268 H   0  0  0  0  0  0  0  0  0  0  0  0
   60.7843   35.5184   46.4681 H   0  0  0  0  0  0  0  0  0  0  0  0
  1  2  2  0
  2  3  1  0
  3  4  2  3
  4  5  1  0
  5  6  1  0
  6  7  1  0
  7  8  2  0
  7  9  1  0
  9 10  1  0
 10 11  1  0
  3 12  1  0
 12 13  2  0
 13 14  1  0
 14 15  2  0
 14 16  1  0
 16 17  1  0
 17 18  1  0
 18 19  2  0
 19 20  1  0
 20 21  2  0
 21 22  1  0
 22 23  2  0
 13 24  1  0
 24 25  1  0
 25 26  1  0
 26 27  2  0
 27 28  1  0
 28 29  2  0
 29 30  1  0
 30 31  2  0
 31 32  1  0
 24  2  1  0
 31 26  1  0
 10  5  2  0
 23 18  1  0
  1 33  1  0
  1 34  1  0
  4 35  1  0
 12 36  1  0
 16 37  1  0
 17 38  1  0
 17 39  1  0
 19 40  1  0
 20 41  1  0
 22 42  1  0
 23 43  1  0
 25 44  1  0
 25 45  1  0
 27 46  1  0
 28 47  1  0
 29 48  1  0
 30 49  1  0
M  CHG  3   6  -1   9  -1  11  -1
M  END
>  <UniqueID>  (74) 
72

>  <SMILES>  (74) 
C=c1c(=Cc2[n-]c(=O)[n-]c2[O-])cc(C(=O)NCc2ccncc2)n1Cc1ccccc1F

>  <Energy>  (74) 
118.02851297941712

>  <Genealogy>  (74) 
C=c1c(=Cc2[n-]c(=O)[n-]c2[O-])cc(C(=O)NCc2ccncc2)n1Cc1ccccc1F (protonated)
C=c1c(=Cc2[n-]c(=O)[n-]c2[O-])cc(C(=O)NCc2ccncc2)n1Cc1ccccc1F (3D coordinates assigned)
C=c1c(=Cc2[n-]c(=O)[n-]c2[O-])cc(C(=O)NCc2ccncc2)n1Cc1ccccc1F (optimized conformer: 118.02851297941712 kcal/mol)

>  <smiles>  (74) 
C=c1c(=Cc2[nH]c(=O)[nH]c2O)cc(C(=O)NCc2ccncc2)n1Cc1ccccc1F

>  <score_type>  (74) 
oracle

>  <origin>  (74) 
adg

>  <m_score__min__energy>  (74) 
-17.199999999999999

>  <m_primary>  (74) 
energy

$$$$
74:0
     RDKit          3D

 54 56  0  0  0  0  0  0  0  0999 V2000
   57.5560   32.2390   44.0600 C   0  0  0  0  0  0  0  0  0  0  0  0
   56.7900   31.1490   44.1530 C   0  0  0  0  0  0  0  0  0  0  0  0
   57.1660   29.9320   44.9190 C   0  0  0  0  0  0  0  0  0  0  0  0
   58.4290   29.8040   45.5310 C   0  0  0  0  0  0  0  0  0  0  0  0
   58.7630   28.6450   46.2460 C   0  0  0  0  0  0  0  0  0  0  0  0
   60.0890   28.5300   46.8850 C   0  0  0  0  0  0  0  0  0  0  0  0
   60.7530   27.4690   46.7260 O   0  0  0  0  0  0  0  0  0  0  0  0
   60.6280   29.5930   47.6910 N   0  0  0  0  0  0  0  0  0  0  0  0
   61.1130   29.4140   49.0490 C   0  0  0  0  0  0  0  0  0  0  0  0
   61.6030   30.7880   49.4780 C   0  0  0  0  0  0  0  0  0  0  0  0
   61.9240   31.5340   48.1660 C   0  0  2  0  0  0  0  0  0  0  0  0
   63.2420   31.2150   47.7830 O   0  0  0  0  0  0  0  0  0  0  0  0
   61.7330   33.0770   48.3450 C   0  0  0  0  0  0  0  0  0  0  0  0
   60.6390   33.7220   47.5760 N   0  0  0  0  0  0  0  0  0  0  0  0
   60.8360   33.8560   46.1240 C   0  0  0  0  0  0  0  0  0  0  0  0
   59.7540   34.7900   45.5360 C   0  0  0  0  0  0  0  0  0  0  0  0
   58.8760   35.2750   46.5390 O   0  0  0  0  0  0  0  0  0  0  0  0
   58.2450   34.1880   47.1930 C   0  0  0  0  0  0  0  0  0  0  0  0
   59.2740   33.2760   47.8990 C   0  0  0  0  0  0  0  0  0  0  0  0
   60.9490   30.9080   47.1600 C   0  0  0  0  0  0  0  0  0  0  0  0
   57.8140   27.6240   46.3950 C   0  0  0  0  0  0  0  0  0  0  0  0
   56.5420   27.7410   45.8090 C   0  0  0  0  0  0  0  0  0  0  0  0
   55.5430   26.7160   45.9470 N   0  0  0  0  0  0  0  0  0  0  0  0
   55.8420   25.0230   46.1810 S   0  0  0  0  0  0  0  0  0  0  0  0
   56.9110   24.4020   44.9000 C   0  0  0  0  0  0  0  0  0  0  0  0
   54.5320   24.2910   46.1110 O   0  0  0  0  0  0  0  0  0  0  0  0
   56.4540   24.7860   47.5340 O   0  0  0  0  0  0  0  0  0  0  0  0
   56.2250   28.8920   45.0710 C   0  0  0  0  0  0  0  0  0  0  0  0
   54.9660   28.9950   44.4840 O   0  0  0  0  0  0  0  0  0  0  0  0
   57.2124   33.1044   43.4743 H   0  0  0  0  0  0  0  0  0  0  0  0
   58.5306   32.2714   44.5691 H   0  0  0  0  0  0  0  0  0  0  0  0
   55.8218   31.1520   43.6309 H   0  0  0  0  0  0  0  0  0  0  0  0
   59.1601   30.6215   45.4469 H   0  0  0  0  0  0  0  0  0  0  0  0
   60.3012   29.0705   49.7070 H   0  0  0  0  0  0  0  0  0  0  0  0
   61.9081   28.6560   49.1065 H   0  0  0  0  0  0  0  0  0  0  0  0
   60.8203   31.3177   50.0408 H   0  0  0  0  0  0  0  0  0  0  0  0
   62.4807   30.7227   50.1378 H   0  0  0  0  0  0  0  0  0  0  0  0
   63.2400   31.0310   46.8070 H   0  0  0  0  0  0  0  0  0  0  0  0
   61.5419   33.2646   49.4119 H   0  0  0  0  0  0  0  0  0  0  0  0
   62.6572   33.5235   47.9494 H   0  0  0  0  0  0  0  0  0  0  0  0
   61.8316   34.2805   45.9276 H   0  0  0  0  0  0  0  0  0  0  0  0
   60.7576   32.8652   45.6526 H   0  0  0  0  0  0  0  0  0  0  0  0
   60.2471   35.6450   45.0505 H   0  0  0  0  0  0  0  0  0  0  0  0
   59.1606   34.2128   44.8117 H   0  0  0  0  0  0  0  0  0  0  0  0
   57.5425   34.5811   47.9426 H   0  0  0  0  0  0  0  0  0  0  0  0
   57.7165   33.5900   46.4360 H   0  0  0  0  0  0  0  0  0  0  0  0
   59.1210   33.3267   48.9871 H   0  0  0  0  0  0  0  0  0  0  0  0
   59.1388   32.2403   47.5538 H   0  0  0  0  0  0  0  0  0  0  0  0
   60.0391   31.5203   47.0755 H   0  0  0  0  0  0  0  0  0  0  0  0
   61.3887   30.8438   46.1538 H   0  0  0  0  0  0  0  0  0  0  0  0
   58.0669   26.7243   46.9751 H   0  0  0  0  0  0  0  0  0  0  0  0
   57.7764   23.8993   45.3564 H   0  0  0  0  0  0  0  0  0  0  0  0
   56.3574   23.6849   44.2761 H   0  0  0  0  0  0  0  0  0  0  0  0
   57.2597   25.2381   44.2761 H   0  0  0  0  0  0  0  0  0  0  0  0
  1  2  2  0
  2  3  1  0
  3  4  2  0
  4  5  1  0
  5  6  1  0
  6  7  2  0
  6  8  1  0
  8  9  1  0
  9 10  1  0
 10 11  1  0
 11 12  1  6
 11 13  1  0
 13 14  1  0
 14 15  1  0
 15 16  1  0
 16 17  1  0
 17 18  1  0
 18 19  1  0
 11 20  1  0
  5 21  2  0
 21 22  1  0
 22 23  1  0
 23 24  1  0
 24 25  1  0
 24 26  2  0
 24 27  2  0
 22 28  2  0
 28 29  1  0
 28  3  1  0
 20  8  1  0
 19 14  1  0
  1 30  1  0
  1 31  1  0
  2 32  1  0
  4 33  1  0
  9 34  1  0
  9 35  1  0
 10 36  1  0
 10 37  1  0
 12 38  1  0
 13 39  1  0
 13 40  1  0
 15 41  1  0
 15 42  1  0
 16 43  1  0
 16 44  1  0
 18 45  1  0
 18 46  1  0
 19 47  1  0
 19 48  1  0
 20 49  1  0
 20 50  1  0
 21 51  1  0
 25 52  1  0
 25 53  1  0
 25 54  1  0
M  CHG  2  23  -1  29  -1
M  END
>  <UniqueID>  (75) 
73

>  <SMILES>  (75) 
C=Cc1cc(C(=O)N2CC[C@](O)(CN3CCOCC3)C2)cc([N-]S(C)(=O)=O)c1[O-]

>  <Energy>  (75) 
80.34290954097294

>  <Genealogy>  (75) 
C=Cc1cc(C(=O)N2CCC(O)(CN3CCOCC3)C2)cc([N-]S(C)(=O)=O)c1[O-] (protonated)
C=Cc1cc(C(=O)N2CC[C@](O)(CN3CCOCC3)C2)cc([N-]S(C)(=O)=O)c1[O-] (chirality)
C=Cc1cc(C(=O)N2CC[C@](O)(CN3CCOCC3)C2)cc([N-]S(C)(=O)=O)c1[O-] (3D coordinates assigned)
C=Cc1cc(C(=O)N2CC[C@](O)(CN3CCOCC3)C2)cc([N-]S(C)(=O)=O)c1[O-] (nonaromatic ring conformer: 80.34290954097294 kcal/mol)

>  <smiles>  (75) 
C=Cc1cc(C(=O)N2CCC(O)(CN3CCOCC3)C2)cc(NS(C)(=O)=O)c1O

>  <score_type>  (75) 
oracle

>  <origin>  (75) 
adg

>  <m_score__min__energy>  (75) 
-13.65

>  <m_primary>  (75) 
energy

$$$$
75:0
     RDKit          3D

 50 52  0  0  0  0  0  0  0  0999 V2000
   64.0070   33.2740   47.3270 C   0  0  0  0  0  0  0  0  0  0  0  0
   63.4740   32.9050   48.7220 C   0  0  0  0  0  0  0  0  0  0  0  0
   64.5060   32.0140   49.4420 C   0  0  0  0  0  0  0  0  0  0  0  0
   63.2500   34.1860   49.5480 C   0  0  0  0  0  0  0  0  0  0  0  0
   62.1600   32.1690   48.5680 C   0  0  0  0  0  0  0  0  0  0  0  0
   61.0220   32.5400   49.2000 N   0  0  0  0  0  0  0  0  0  0  0  0
   60.1150   31.6470   48.7620 C   0  0  0  0  0  0  0  0  0  0  0  0
   58.6780   31.7470   49.0730 C   0  0  0  0  0  0  0  0  0  0  0  0
   58.1810   30.9560   49.9150 O   0  0  0  0  0  0  0  0  0  0  0  0
   57.8300   32.7160   48.4420 N   0  0  0  0  0  0  0  0  0  0  0  0
   58.1150   33.4360   47.2320 C   0  0  0  0  0  0  0  0  0  0  0  0
   57.4510   33.1430   46.0250 C   0  0  0  0  0  0  0  0  0  0  0  0
   57.7470   33.8640   44.8650 C   0  0  0  0  0  0  0  0  0  0  0  0
   58.7200   34.8660   44.8920 C   0  0  0  0  0  0  0  0  0  0  0  0
   59.4080   35.1390   46.0770 C   0  0  0  0  0  0  0  0  0  0  0  0
   59.1150   34.4200   47.2410 C   0  0  0  0  0  0  0  0  0  0  0  0
   59.8030   34.6850   48.3780 F   0  0  0  0  0  0  0  0  0  0  0  0
   60.7330   30.7650   47.8960 C   0  0  0  0  0  0  0  0  0  0  0  0
   60.1560   29.5970   47.2180 C   0  0  0  0  0  0  0  0  0  0  0  0
   60.9070   28.8680   46.5150 O   0  0  0  0  0  0  0  0  0  0  0  0
   58.7650   29.2720   47.3830 N   0  0  0  0  0  0  0  0  0  0  0  0
   58.1830   28.0390   46.9170 C   0  0  0  0  0  0  0  0  0  0  0  0
   58.6330   26.8230   47.4650 C   0  0  0  0  0  0  0  0  0  0  0  0
   58.0960   25.6080   47.0470 C   0  0  0  0  0  0  0  0  0  0  0  0
   57.0920   25.5840   46.0840 C   0  0  0  0  0  0  0  0  0  0  0  0
   56.6150   26.7760   45.5420 C   0  0  0  0  0  0  0  0  0  0  0  0
   57.1360   28.0220   45.9500 C   0  0  0  0  0  0  0  0  0  0  0  0
   56.5810   29.2560   45.3240 C   0  0  0  0  0  0  0  0  0  0  0  0
   55.2290   29.2820   44.8660 N   0  0  0  0  0  0  0  0  0  0  0  0
   57.2790   30.2950   45.1930 O   0  0  0  0  0  0  0  0  0  0  0  0
   61.9870   31.1240   47.7880 O   0  0  0  0  0  0  0  0  0  0  0  0
   64.9073   33.8973   47.4315 H   0  0  0  0  0  0  0  0  0  0  0  0
   64.2586   32.3558   46.7760 H   0  0  0  0  0  0  0  0  0  0  0  0
   63.2362   33.8327   46.7760 H   0  0  0  0  0  0  0  0  0  0  0  0
   64.3848   32.1186   50.5303 H   0  0  0  0  0  0  0  0  0  0  0  0
   64.3478   30.9640   49.1547 H   0  0  0  0  0  0  0  0  0  0  0  0
   65.5216   32.3237   49.1547 H   0  0  0  0  0  0  0  0  0  0  0  0
   63.2925   33.9431   50.6200 H   0  0  0  0  0  0  0  0  0  0  0  0
   64.0335   34.9195   49.3069 H   0  0  0  0  0  0  0  0  0  0  0  0
   62.2641   34.6100   49.3069 H   0  0  0  0  0  0  0  0  0  0  0  0
   56.6963   32.3433   45.9952 H   0  0  0  0  0  0  0  0  0  0  0  0
   57.2130   33.6422   43.9293 H   0  0  0  0  0  0  0  0  0  0  0  0
   58.9444   35.4398   43.9807 H   0  0  0  0  0  0  0  0  0  0  0  0
   60.1816   35.9208   46.0949 H   0  0  0  0  0  0  0  0  0  0  0  0
   58.1930   29.8830   48.0060 H   0  0  0  0  0  0  0  0  0  0  0  0
   59.4196   26.8326   48.2339 H   0  0  0  0  0  0  0  0  0  0  0  0
   58.4660   24.6663   47.4786 H   0  0  0  0  0  0  0  0  0  0  0  0
   56.6742   24.6228   45.7500 H   0  0  0  0  0  0  0  0  0  0  0  0
   55.8190   26.7449   44.7834 H   0  0  0  0  0  0  0  0  0  0  0  0
   54.4350   29.3570   45.5400 H   0  0  0  0  0  0  0  0  0  0  0  0
  1  2  1  0
  2  3  1  0
  2  4  1  0
  2  5  1  0
  5  6  2  0
  6  7  1  0
  7  8  1  0
  8  9  2  0
  8 10  1  0
 10 11  1  0
 11 12  2  0
 12 13  1  0
 13 14  2  0
 14 15  1  0
 15 16  2  0
 16 17  1  0
  7 18  2  0
 18 19  1  0
 19 20  2  0
 19 21  1  0
 21 22  1  0
 22 23  2  0
 23 24  1  0
 24 25  2  0
 25 26  1  0
 26 27  2  0
 27 28  1  0
 28 29  1  0
 28 30  2  0
 18 31  1  0
 31  5  1  0
 16 11  1  0
 27 22  1  0
  1 32  1  0
  1 33  1  0
  1 34  1  0
  3 35  1  0
  3 36  1  0
  3 37  1  0
  4 38  1  0
  4 39  1  0
  4 40  1  0
 12 41  1  0
 13 42  1  0
 14 43  1  0
 15 44  1  0
 21 45  1  0
 23 46  1  0
 24 47  1  0
 25 48  1  0
 26 49  1  0
 29 50  1  0
M  CHG  2  10  -1  29  -1
M  END
>  <UniqueID>  (76) 
74

>  <SMILES>  (76) 
CC(C)(C)c1nc(C(=O)[N-]c2ccccc2F)c(C(=O)Nc2ccccc2C([NH-])=O)o1

>  <Energy>  (76) 
94.07255857072823

>  <Genealogy>  (76) 
CC(C)(C)c1nc(C(=O)[N-]c2ccccc2F)c(C(=O)Nc2ccccc2C([NH-])=O)o1 (protonated)
CC(C)(C)c1nc(C(=O)[N-]c2ccccc2F)c(C(=O)Nc2ccccc2C([NH-])=O)o1 (3D coordinates assigned)
CC(C)(C)c1nc(C(=O)[N-]c2ccccc2F)c(C(=O)Nc2ccccc2C([NH-])=O)o1 (optimized conformer: 94.07255857072823 kcal/mol)

>  <smiles>  (76) 
CC(C)(C)c1nc(C(=O)Nc2ccccc2F)c(C(=O)Nc2ccccc2C(N)=O)o1

>  <score_type>  (76) 
oracle

>  <origin>  (76) 
adg

>  <m_score__min__energy>  (76) 
-13.210000000000001

>  <m_primary>  (76) 
energy

$$$$
76:0
     RDKit          3D

 52 54  0  0  0  0  0  0  0  0999 V2000
   61.0514   33.1474   45.7016 H   0  0  0  0  0  0  0  0  0  0  0  0
   61.3330   33.3310   46.7490 C   0  0  0  0  0  0  0  0  0  0  0  0
   62.6770   33.2950   47.1220 C   0  0  0  0  0  0  0  0  0  0  0  0
   63.4458   33.0648   46.3696 H   0  0  0  0  0  0  0  0  0  0  0  0
   63.0550   33.5490   48.4440 C   0  0  0  0  0  0  0  0  0  0  0  0
   64.4180   33.4960   48.7690 O   0  0  0  0  0  0  0  0  0  0  0  0
   64.9740   32.6600   49.7800 C   0  0  0  0  0  0  0  0  0  0  0  0
   64.7096   33.0576   50.7710 H   0  0  0  0  0  0  0  0  0  0  0  0
   64.5730   31.6411   49.6748 H   0  0  0  0  0  0  0  0  0  0  0  0
   66.0687   32.6359   49.6748 H   0  0  0  0  0  0  0  0  0  0  0  0
   62.0630   33.8510   49.3970 C   0  0  0  0  0  0  0  0  0  0  0  0
   62.3521   34.0598   50.4376 H   0  0  0  0  0  0  0  0  0  0  0  0
   60.7040   33.8880   49.0290 C   0  0  0  0  0  0  0  0  0  0  0  0
   59.6940   34.2140   49.9490 O   0  0  0  0  0  0  0  0  0  0  0  0
   59.3170   33.4050   51.0580 C   0  0  0  0  0  0  0  0  0  0  0  0
   59.5612   33.9289   51.9939 H   0  0  0  0  0  0  0  0  0  0  0  0
   58.2352   33.2098   51.0185 H   0  0  0  0  0  0  0  0  0  0  0  0
   59.8634   32.4511   51.0185 H   0  0  0  0  0  0  0  0  0  0  0  0
   60.3420   33.5990   47.6980 C   0  0  0  0  0  0  0  0  0  0  0  0
   58.9660   33.6050   47.2890 N   0  0  0  0  0  0  0  0  0  0  0  0
   58.5320   33.0870   46.1780 C   0  0  0  0  0  0  0  0  0  0  0  0
   58.0360   31.8200   46.1460 N   0  0  0  0  0  0  0  0  0  0  0  0
   57.5890   31.2490   44.9960 C   0  0  0  0  0  0  0  0  0  0  0  0
   57.0800   29.9210   44.9560 C   0  0  0  0  0  0  0  0  0  0  0  0
   57.0440   29.1250   45.9940 N   0  0  0  0  0  0  0  0  0  0  0  0
   58.0950   28.2550   46.5260 C   0  0  0  0  0  0  0  0  0  0  0  0
   58.8532   28.8777   47.0234 H   0  0  0  0  0  0  0  0  0  0  0  0
   57.6289   27.5535   47.2335 H   0  0  0  0  0  0  0  0  0  0  0  0
   58.7810   27.4260   45.4140 C   0  0  0  0  0  0  0  0  0  0  0  0
   57.7390   27.0940   44.4930 O   0  0  0  0  0  0  0  0  0  0  0  0
   58.1610   26.9740   43.1480 C   0  0  0  0  0  0  0  0  0  0  0  0
   59.2187   26.6732   43.1210 H   0  0  0  0  0  0  0  0  0  0  0  0
   57.5505   26.2138   42.6386 H   0  0  0  0  0  0  0  0  0  0  0  0
   58.0418   27.9416   42.6386 H   0  0  0  0  0  0  0  0  0  0  0  0
   59.8470   28.3080   44.7220 C   0  0  0  0  0  0  0  0  0  0  0  0
   60.4571   28.8128   45.4855 H   0  0  0  0  0  0  0  0  0  0  0  0
   60.4935   27.6772   44.0942 H   0  0  0  0  0  0  0  0  0  0  0  0
   59.3484   29.0612   44.0942 H   0  0  0  0  0  0  0  0  0  0  0  0
   59.4430   26.1780   46.0570 C   0  0  0  0  0  0  0  0  0  0  0  0
   59.3981   26.2627   47.1528 H   0  0  0  0  0  0  0  0  0  0  0  0
   58.9066   25.2725   45.7369 H   0  0  0  0  0  0  0  0  0  0  0  0
   60.4935   26.1143   45.7369 H   0  0  0  0  0  0  0  0  0  0  0  0
   56.6170   29.4340   43.7660 N   0  0  0  0  0  0  0  0  0  0  0  0
   56.2350   28.4620   43.7220 H   0  0  0  0  0  0  0  0  0  0  0  0
   56.6440   30.1630   42.6170 C   0  0  0  0  0  0  0  0  0  0  0  0
   56.2583   29.7262   41.6840 H   0  0  0  0  0  0  0  0  0  0  0  0
   57.1560   31.4570   42.6140 C   0  0  0  0  0  0  0  0  0  0  0  0
   57.1861   32.0413   41.6825 H   0  0  0  0  0  0  0  0  0  0  0  0
   57.6310   32.0050   43.8070 C   0  0  0  0  0  0  0  0  0  0  0  0
   58.1560   33.3010   43.8540 C   0  0  0  0  0  0  0  0  0  0  0  0
   58.2092   33.9067   42.9373 H   0  0  0  0  0  0  0  0  0  0  0  0
   58.6000   33.8110   45.0320 N   0  0  0  0  0  0  0  0  0  0  0  0
  1  2  1  0
  2  3  2  0
  3  4  1  0
  3  5  1  0
  5  6  1  0
  6  7  1  0
  7  8  1  0
  7  9  1  0
  7 10  1  0
  5 11  2  0
 11 12  1  0
 11 13  1  0
 13 14  1  0
 14 15  1  0
 15 16  1  0
 15 17  1  0
 15 18  1  0
 13 19  2  0
 19 20  1  0
 20 21  2  0
 21 22  1  0
 22 23  2  0
 23 24  1  0
 24 25  2  0
 25 26  1  0
 26 27  1  0
 26 28  1  0
 26 29  1  0
 29 30  1  0
 30 31  1  0
 31 32  1  0
 31 33  1  0
 31 34  1  0
 29 35  1  0
 35 36  1  0
 35 37  1  0
 35 38  1  0
 29 39  1  0
 39 40  1  0
 39 41  1  0
 39 42  1  0
 24 43  1  0
 43 44  1  0
 43 45  1  0
 45 46  1  0
 45 47  2  0
 47 48  1  0
 47 49  1  0
 49 50  2  0
 50 51  1  0
 50 52  1  0
 19  2  1  0
 52 21  1  0
 49 23  1  0
M  CHG  1  52  -1
M  END
>  <UniqueID>  (77) 
75

>  <SMILES>  (77) 
COc1ccc(/N=c2\nc3/c(=N\CC(C)(C)OC)[nH]ccc3c[n-]2)c(OC)c1

>  <Energy>  (77) 
70.45490761986693

>  <Genealogy>  (77) 
COc1ccc(N=c2nc3c(=NCC(C)(C)OC)[nH]ccc3c[n-]2)c(OC)c1 (protonated)
COc1ccc(/N=c2\nc3/c(=N\CC(C)(C)OC)[nH]ccc3c[n-]2)c(OC)c1 (cis-trans isomerization)
COc1ccc(/N=c2\nc3/c(=N\CC(C)(C)OC)[nH]ccc3c[n-]2)c(OC)c1 (3D coordinates assigned)
COc1ccc(/N=c2\nc3/c(=N\CC(C)(C)OC)[nH]ccc3c[n-]2)c(OC)c1 (optimized conformer: 70.45490761986693 kcal/mol)

>  <smiles>  (77) 
COc1ccc(N=c2nc3c(=NCC(C)(C)OC)[nH]ccc3c[nH]2)c(OC)c1

>  <score_type>  (77) 
oracle

>  <origin>  (77) 
adg

>  <m_score__min__energy>  (77) 
-9.4000000000000004

>  <m_primary>  (77) 
energy

$$$$
77:0
     RDKit          3D

 50 52  0  0  0  0  0  0  0  0999 V2000
   56.5400   34.6660   45.1960 O   0  0  0  0  0  0  0  0  0  0  0  0
   57.2220   33.7270   45.6890 C   0  0  0  0  0  0  0  0  0  0  0  0
   57.7800   32.6630   44.7990 C   0  0  0  0  0  0  0  0  0  0  0  0
   56.7500   31.5480   44.6100 C   0  0  0  0  0  0  0  0  0  0  0  0
   57.3320   30.2510   44.9350 N   0  0  0  0  0  0  0  0  0  0  0  0
   56.5580   29.0660   45.1600 C   0  0  0  0  0  0  0  0  0  0  0  0
   55.3230   29.0720   44.9020 O   0  0  0  0  0  0  0  0  0  0  0  0
   57.1890   27.8440   45.7210 C   0  0  0  0  0  0  0  0  0  0  0  0
   58.5880   27.8040   45.8890 C   0  0  0  0  0  0  0  0  0  0  0  0
   59.2130   26.6650   46.4040 C   0  0  0  0  0  0  0  0  0  0  0  0
   58.4530   25.5510   46.7610 C   0  0  0  0  0  0  0  0  0  0  0  0
   57.0670   25.5750   46.6060 C   0  0  0  0  0  0  0  0  0  0  0  0
   56.4290   26.7090   46.0900 C   0  0  0  0  0  0  0  0  0  0  0  0
   55.0450   26.6930   45.9610 O   0  0  0  0  0  0  0  0  0  0  0  0
   57.5220   33.7020   47.0880 N   0  0  0  0  0  0  0  0  0  0  0  0
   58.8760   33.7830   47.6230 C   0  0  0  0  0  0  0  0  0  0  0  0
   59.4800   32.4060   47.7150 C   0  0  0  0  0  0  0  0  0  0  0  0
   58.9260   31.4460   48.5750 C   0  0  0  0  0  0  0  0  0  0  0  0
   59.5110   30.1840   48.6870 C   0  0  0  0  0  0  0  0  0  0  0  0
   60.6510   29.8910   47.9380 C   0  0  0  0  0  0  0  0  0  0  0  0
   61.1810   30.8310   47.1120 N   0  0  0  0  0  0  0  0  0  0  0  0
   60.6360   32.0730   46.9820 C   0  0  0  0  0  0  0  0  0  0  0  0
   61.2140   33.0170   46.1210 O   0  0  0  0  0  0  0  0  0  0  0  0
   62.2670   33.9010   46.5040 C   0  0  0  0  0  0  0  0  0  0  0  0
   62.7340   33.5820   47.8990 C   0  0  0  0  0  0  0  0  0  0  0  0
   62.1780   34.2430   49.0080 C   0  0  0  0  0  0  0  0  0  0  0  0
   62.6380   33.9640   50.2980 C   0  0  0  0  0  0  0  0  0  0  0  0
   63.6500   33.0190   50.4930 C   0  0  0  0  0  0  0  0  0  0  0  0
   64.2050   32.3560   49.3970 C   0  0  0  0  0  0  0  0  0  0  0  0
   63.7590   32.6440   48.1020 C   0  0  0  0  0  0  0  0  0  0  0  0
   58.0284   33.0996   43.8204 H   0  0  0  0  0  0  0  0  0  0  0  0
   58.6863   32.2439   45.2605 H   0  0  0  0  0  0  0  0  0  0  0  0
   55.8904   31.7342   45.2706 H   0  0  0  0  0  0  0  0  0  0  0  0
   56.4269   31.5382   43.5586 H   0  0  0  0  0  0  0  0  0  0  0  0
   59.1944   28.6789   45.6117 H   0  0  0  0  0  0  0  0  0  0  0  0
   60.3058   26.6469   46.5280 H   0  0  0  0  0  0  0  0  0  0  0  0
   58.9463   24.6544   47.1644 H   0  0  0  0  0  0  0  0  0  0  0  0
   56.4707   24.6959   46.8915 H   0  0  0  0  0  0  0  0  0  0  0  0
   59.4926   34.4071   46.9594 H   0  0  0  0  0  0  0  0  0  0  0  0
   58.8396   34.2279   48.6284 H   0  0  0  0  0  0  0  0  0  0  0  0
   58.0282   31.6886   49.1625 H   0  0  0  0  0  0  0  0  0  0  0  0
   59.0779   29.4282   49.3587 H   0  0  0  0  0  0  0  0  0  0  0  0
   61.1207   28.8994   48.0160 H   0  0  0  0  0  0  0  0  0  0  0  0
   63.1085   33.7878   45.8046 H   0  0  0  0  0  0  0  0  0  0  0  0
   61.8934   34.9353   46.4790 H   0  0  0  0  0  0  0  0  0  0  0  0
   61.3776   34.9829   48.8600 H   0  0  0  0  0  0  0  0  0  0  0  0
   62.2031   34.4888   51.1614 H   0  0  0  0  0  0  0  0  0  0  0  0
   64.0085   32.7982   51.5092 H   0  0  0  0  0  0  0  0  0  0  0  0
   64.9944   31.6057   49.5515 H   0  0  0  0  0  0  0  0  0  0  0  0
   64.2132   32.1336   47.2399 H   0  0  0  0  0  0  0  0  0  0  0  0
  1  2  2  0
  2  3  1  0
  3  4  1  0
  4  5  1  0
  5  6  1  0
  6  7  2  0
  6  8  1  0
  8  9  2  0
  9 10  1  0
 10 11  2  0
 11 12  1  0
 12 13  2  0
 13 14  1  0
  2 15  1  0
 15 16  1  0
 16 17  1  0
 17 18  2  0
 18 19  1  0
 19 20  2  0
 20 21  1  0
 21 22  2  0
 22 23  1  0
 23 24  1  0
 24 25  1  0
 25 26  2  0
 26 27  1  0
 27 28  2  0
 28 29  1  0
 29 30  2  0
 13  8  1  0
 22 17  1  0
 30 25  1  0
  3 31  1  0
  3 32  1  0
  4 33  1  0
  4 34  1  0
  9 35  1  0
 10 36  1  0
 11 37  1  0
 12 38  1  0
 16 39  1  0
 16 40  1  0
 18 41  1  0
 19 42  1  0
 20 43  1  0
 24 44  1  0
 24 45  1  0
 26 46  1  0
 27 47  1  0
 28 48  1  0
 29 49  1  0
 30 50  1  0
M  CHG  3   5  -1  14  -1  15  -1
M  END
>  <UniqueID>  (78) 
76

>  <SMILES>  (78) 
O=C(CC[N-]C(=O)c1ccccc1[O-])[N-]Cc1cccnc1OCc1ccccc1

>  <Energy>  (78) 
43.39421114470406

>  <Genealogy>  (78) 
O=C(CC[N-]C(=O)c1ccccc1[O-])[N-]Cc1cccnc1OCc1ccccc1 (protonated)
O=C(CC[N-]C(=O)c1ccccc1[O-])[N-]Cc1cccnc1OCc1ccccc1 (3D coordinates assigned)
O=C(CC[N-]C(=O)c1ccccc1[O-])[N-]Cc1cccnc1OCc1ccccc1 (optimized conformer: 43.39421114470406 kcal/mol)

>  <smiles>  (78) 
O=C(CCNC(=O)c1ccccc1O)NCc1cccnc1OCc1ccccc1

>  <score_type>  (78) 
oracle

>  <origin>  (78) 
adg

>  <m_score__min__energy>  (78) 
-15.380000000000001

>  <m_primary>  (78) 
energy

$$$$
78:0
     RDKit          3D

 59 61  0  0  0  0  0  0  0  0999 V2000
   58.7240   25.8070   45.5100 C   0  0  0  0  0  0  0  0  0  0  0  0
   58.4590   27.2830   45.4680 C   0  0  0  0  0  0  0  0  0  0  0  0
   57.2690   27.7750   44.9130 C   0  0  0  0  0  0  0  0  0  0  0  0
   57.0090   29.1510   44.9030 C   0  0  0  0  0  0  0  0  0  0  0  0
   55.5200   29.7420   44.1810 Cl  0  0  0  0  0  0  0  0  0  0  0  0
   57.9340   30.0450   45.4650 C   0  0  0  0  0  0  0  0  0  0  0  0
   57.6760   31.4160   45.4510 O   0  0  0  0  0  0  0  0  0  0  0  0
   57.9710   32.2140   44.3100 C   0  0  0  0  0  0  0  0  0  0  0  0
   57.4010   33.6180   44.5000 C   0  0  0  0  0  0  0  0  0  0  0  0
   57.4520   34.0080   45.8740 O   0  0  0  0  0  0  0  0  0  0  0  0
   58.5680   33.8740   46.7140 C   0  0  0  0  0  0  0  0  0  0  0  0
   59.8020   34.3470   46.2550 C   0  0  0  0  0  0  0  0  0  0  0  0
   60.9570   34.1920   47.0260 C   0  0  0  0  0  0  0  0  0  0  0  0
   60.8910   33.5780   48.2880 C   0  0  0  0  0  0  0  0  0  0  0  0
   62.0850   33.3640   49.0700 N   0  0  0  0  0  0  0  0  0  0  0  0
   63.2570   32.7820   48.4710 C   0  0  0  0  0  0  0  0  0  0  0  0
   63.1550   32.0540   47.4470 O   0  0  0  0  0  0  0  0  0  0  0  0
   64.6170   33.0970   49.0240 C   0  0  0  0  0  0  0  0  0  0  0  0
   64.5810   33.3070   50.4780 N   0  0  0  0  0  0  0  0  0  0  0  0
   63.5410   34.2740   50.8580 C   0  0  0  0  0  0  0  0  0  0  0  0
   62.1310   33.7780   50.4820 C   0  0  2  0  0  0  0  0  0  0  0  0
   61.6990   32.6500   51.3870 C   0  0  0  0  0  0  0  0  0  0  0  0
   62.5170   31.7380   51.6860 O   0  0  0  0  0  0  0  0  0  0  0  0
   60.3690   32.6440   51.9290 N   0  0  0  0  0  0  0  0  0  0  0  0
   59.8700   31.6370   52.8250 C   0  0  0  0  0  0  0  0  0  0  0  0
   60.6100   30.6910   53.2100 O   0  0  0  0  0  0  0  0  0  0  0  0
   58.4650   31.7230   53.3370 C   0  0  0  0  0  0  0  0  0  0  0  0
   57.5710   32.3110   52.2900 C   0  0  0  0  0  0  0  0  0  0  0  0
   56.6200   31.4930   51.6090 N   0  0  0  0  0  0  0  0  0  0  0  0
   57.6350   33.5430   52.0310 O   0  0  0  0  0  0  0  0  0  0  0  0
   59.6470   33.1310   48.7640 C   0  0  0  0  0  0  0  0  0  0  0  0
   58.4950   33.2780   47.9870 C   0  0  0  0  0  0  0  0  0  0  0  0
   59.1220   29.5530   46.0300 C   0  0  0  0  0  0  0  0  0  0  0  0
   60.3070   30.6500   46.7250 Cl  0  0  0  0  0  0  0  0  0  0  0  0
   59.3770   28.1770   46.0380 C   0  0  0  0  0  0  0  0  0  0  0  0
   58.7836   25.4748   46.5569 H   0  0  0  0  0  0  0  0  0  0  0  0
   57.9073   25.2732   45.0019 H   0  0  0  0  0  0  0  0  0  0  0  0
   59.6753   25.5907   45.0019 H   0  0  0  0  0  0  0  0  0  0  0  0
   56.5359   27.0765   44.4832 H   0  0  0  0  0  0  0  0  0  0  0  0
   59.0615   32.2770   44.1803 H   0  0  0  0  0  0  0  0  0  0  0  0
   57.5179   31.7554   43.4187 H   0  0  0  0  0  0  0  0  0  0  0  0
   57.9892   34.3294   43.9017 H   0  0  0  0  0  0  0  0  0  0  0  0
   56.3505   33.6177   44.1737 H   0  0  0  0  0  0  0  0  0  0  0  0
   59.8637   34.8462   45.2768 H   0  0  0  0  0  0  0  0  0  0  0  0
   61.9230   34.5526   46.6429 H   0  0  0  0  0  0  0  0  0  0  0  0
   65.2941   32.2590   48.8022 H   0  0  0  0  0  0  0  0  0  0  0  0
   64.9699   34.0265   48.5535 H   0  0  0  0  0  0  0  0  0  0  0  0
   64.4030   32.3920   50.9530 H   0  0  0  0  0  0  0  0  0  0  0  0
   63.5838   34.4334   51.9455 H   0  0  0  0  0  0  0  0  0  0  0  0
   63.7300   35.2103   50.3125 H   0  0  0  0  0  0  0  0  0  0  0  0
   61.4264   34.6116   50.6183 H   0  0  0  0  0  0  0  0  0  0  0  0
   59.7240   33.4200   51.6590 H   0  0  0  0  0  0  0  0  0  0  0  0
   58.1093   30.7145   53.5946 H   0  0  0  0  0  0  0  0  0  0  0  0
   58.4457   32.3659   54.2293 H   0  0  0  0  0  0  0  0  0  0  0  0
   55.9900   31.9050   50.8850 H   0  0  0  0  0  0  0  0  0  0  0  0
   56.5400   30.4750   51.8290 H   0  0  0  0  0  0  0  0  0  0  0  0
   59.5794   32.6615   49.7565 H   0  0  0  0  0  0  0  0  0  0  0  0
   57.5265   32.9263   48.3720 H   0  0  0  0  0  0  0  0  0  0  0  0
   60.3023   27.7946   46.4937 H   0  0  0  0  0  0  0  0  0  0  0  0
  1  2  1  0
  2  3  2  0
  3  4  1  0
  4  5  1  0
  4  6  2  0
  6  7  1  0
  7  8  1  0
  8  9  1  0
  9 10  1  0
 10 11  1  0
 11 12  2  0
 12 13  1  0
 13 14  2  0
 14 15  1  0
 15 16  1  0
 16 17  2  0
 16 18  1  0
 18 19  1  0
 19 20  1  0
 20 21  1  0
 21 22  1  0
 22 23  2  0
 22 24  1  0
 24 25  1  0
 25 26  2  0
 25 27  1  0
 27 28  1  0
 28 29  1  0
 28 30  2  0
 14 31  1  0
 31 32  2  0
  6 33  1  0
 33 34  1  0
 33 35  2  0
 35  2  1  0
 32 11  1  0
 21 15  1  0
  1 36  1  0
  1 37  1  0
  1 38  1  0
  3 39  1  0
  8 40  1  0
  8 41  1  0
  9 42  1  0
  9 43  1  0
 12 44  1  0
 13 45  1  0
 18 46  1  0
 18 47  1  0
 19 48  1  0
 20 49  1  0
 20 50  1  0
 21 51  1  6
 24 52  1  0
 27 53  1  0
 27 54  1  0
 29 55  1  0
 29 56  1  0
 31 57  1  0
 32 58  1  0
 35 59  1  0
M  END
>  <UniqueID>  (79) 
77

>  <SMILES>  (79) 
Cc1cc(Cl)c(OCCOc2ccc(N3C(=O)CNC[C@@H]3C(=O)NC(=O)CC(N)=O)cc2)c(Cl)c1

>  <Energy>  (79) 
65.51103710331107

>  <Genealogy>  (79) 
Cc1cc(Cl)c(OCCOc2ccc(N3C(=O)CNC[C@@H]3C(=O)NC(=O)CC(N)=O)cc2)c(Cl)c1 (chirality)
Cc1cc(Cl)c(OCCOc2ccc(N3C(=O)CNC[C@@H]3C(=O)NC(=O)CC(N)=O)cc2)c(Cl)c1 (3D coordinates assigned)
Cc1cc(Cl)c(OCCOc2ccc(N3C(=O)CNC[C@@H]3C(=O)NC(=O)CC(N)=O)cc2)c(Cl)c1 (nonaromatic ring conformer: 65.51103710331107 kcal/mol)

>  <smiles>  (79) 
Cc1cc(Cl)c(OCCOc2ccc(N3C(=O)CNCC3C(=O)NC(=O)CC(N)=O)cc2)c(Cl)c1

>  <score_type>  (79) 
oracle

>  <origin>  (79) 
adg

>  <m_score__min__energy>  (79) 
-9.7599999999999998

>  <m_primary>  (79) 
energy

$$$$
79:0
     RDKit          3D

 50 52  0  0  0  0  0  0  0  0999 V2000
   55.1620   29.3700   44.8530 O   0  0  0  0  0  0  0  0  0  0  0  0
   56.4060   29.5470   44.7690 C   0  0  0  0  0  0  0  0  0  0  0  0
   56.9630   30.3030   43.6030 C   0  0  0  0  0  0  0  0  0  0  0  0
   56.9630   31.7380   43.8700 N   0  0  0  0  0  0  0  0  0  0  0  0
   57.3860   32.3650   45.0900 C   0  0  0  0  0  0  0  0  0  0  0  0
   56.6570   33.2590   45.5920 O   0  0  0  0  0  0  0  0  0  0  0  0
   58.6910   32.0190   45.7610 C   0  0  0  0  0  0  0  0  0  0  0  0
   58.7650   32.6020   47.1940 C   0  0  2  0  0  0  0  0  0  0  0  0
   59.5410   33.8840   47.3240 C   0  0  0  0  0  0  0  0  0  0  0  0
   59.6360   34.9700   46.0970 S   0  0  0  0  0  0  0  0  0  0  0  0
   59.9600   34.2800   48.6340 N   0  0  0  0  0  0  0  0  0  0  0  0
   59.5970   33.5390   49.8460 C   0  0  0  0  0  0  0  0  0  0  0  0
   59.0320   32.1170   49.5800 C   0  0  0  0  0  0  0  0  0  0  0  0
   59.2440   31.6270   48.2020 N   0  0  0  0  0  0  0  0  0  0  0  0
   60.5460   30.9400   47.9720 C   0  0  0  0  0  0  0  0  0  0  0  0
   61.7810   31.7950   48.1920 C   0  0  0  0  0  0  0  0  0  0  0  0
   62.2890   32.5660   47.1290 C   0  0  0  0  0  0  0  0  0  0  0  0
   63.4250   33.3600   47.3060 C   0  0  0  0  0  0  0  0  0  0  0  0
   64.0550   33.4130   48.5510 C   0  0  0  0  0  0  0  0  0  0  0  0
   63.5370   32.6880   49.6260 C   0  0  0  0  0  0  0  0  0  0  0  0
   62.3970   31.8940   49.4580 C   0  0  0  0  0  0  0  0  0  0  0  0
   61.8790   31.2250   50.5590 O   0  0  0  0  0  0  0  0  0  0  0  0
   57.2670   29.1870   45.8590 N   0  0  0  0  0  0  0  0  0  0  0  0
   57.6790   28.0050   46.2300 C   0  0  0  0  0  0  0  0  0  0  0  0
   58.9980   27.8710   46.5380 N   0  0  0  0  0  0  0  0  0  0  0  0
   59.5430   26.6940   46.9430 C   0  0  0  0  0  0  0  0  0  0  0  0
   58.7460   25.5580   47.0520 C   0  0  0  0  0  0  0  0  0  0  0  0
   57.3950   25.6420   46.7200 C   0  0  0  0  0  0  0  0  0  0  0  0
   56.8450   26.8570   46.2880 C   0  0  0  0  0  0  0  0  0  0  0  0
   55.5110   26.8880   45.8860 O   0  0  0  0  0  0  0  0  0  0  0  0
   57.9949   29.9705   43.4169 H   0  0  0  0  0  0  0  0  0  0  0  0
   56.3339   30.1075   42.7221 H   0  0  0  0  0  0  0  0  0  0  0  0
   58.7858   30.9244   45.8152 H   0  0  0  0  0  0  0  0  0  0  0  0
   59.5094   32.4543   45.1688 H   0  0  0  0  0  0  0  0  0  0  0  0
   57.7129   32.8441   47.4049 H   0  0  0  0  0  0  0  0  0  0  0  0
   60.4550   35.1920   48.7530 H   0  0  0  0  0  0  0  0  0  0  0  0
   60.4960   33.4410   50.4722 H   0  0  0  0  0  0  0  0  0  0  0  0
   58.7949   34.1102   50.3363 H   0  0  0  0  0  0  0  0  0  0  0  0
   59.5204   31.4168   50.2737 H   0  0  0  0  0  0  0  0  0  0  0  0
   57.9438   32.1771   49.7294 H   0  0  0  0  0  0  0  0  0  0  0  0
   60.6018   30.0806   48.6564 H   0  0  0  0  0  0  0  0  0  0  0  0
   60.5570   30.6595   46.9084 H   0  0  0  0  0  0  0  0  0  0  0  0
   61.7871   32.5430   46.1505 H   0  0  0  0  0  0  0  0  0  0  0  0
   63.8236   33.9441   46.4634 H   0  0  0  0  0  0  0  0  0  0  0  0
   64.9588   34.0255   48.6848 H   0  0  0  0  0  0  0  0  0  0  0  0
   64.0272   32.7412   50.6093 H   0  0  0  0  0  0  0  0  0  0  0  0
   60.6147   26.6389   47.1849 H   0  0  0  0  0  0  0  0  0  0  0  0
   59.1770   24.6061   47.3958 H   0  0  0  0  0  0  0  0  0  0  0  0
   56.7565   24.7496   46.7974 H   0  0  0  0  0  0  0  0  0  0  0  0
   55.1430   27.6380   45.3110 H   0  0  0  0  0  0  0  0  0  0  0  0
  1  2  2  0
  2  3  1  0
  3  4  1  0
  4  5  1  0
  5  6  2  0
  5  7  1  0
  7  8  1  0
  8  9  1  0
  9 10  2  0
  9 11  1  0
 11 12  1  0
 12 13  1  0
 13 14  1  0
 14 15  1  0
 15 16  1  0
 16 17  2  0
 17 18  1  0
 18 19  2  0
 19 20  1  0
 20 21  2  0
 21 22  1  0
  2 23  1  0
 23 24  2  3
 24 25  1  0
 25 26  1  0
 26 27  2  0
 27 28  1  0
 28 29  2  0
 29 30  1  0
 14  8  1  0
 21 16  1  0
 29 24  1  0
  3 31  1  0
  3 32  1  0
  7 33  1  0
  7 34  1  0
  8 35  1  1
 11 36  1  0
 12 37  1  0
 12 38  1  0
 13 39  1  0
 13 40  1  0
 15 41  1  0
 15 42  1  0
 17 43  1  0
 18 44  1  0
 19 45  1  0
 20 46  1  0
 26 47  1  0
 27 48  1  0
 28 49  1  0
 30 50  1  0
M  CHG  3   4  -1  22  -1  25  -1
M  END
>  <UniqueID>  (80) 
78

>  <SMILES>  (80) 
O=C(C[N-]C(=O)C[C@@H]1C(=S)NCCN1Cc1ccccc1[O-])N=c1[n-]cccc1O

>  <Energy>  (80) 
76.12635851065752

>  <Genealogy>  (80) 
O=C(C[N-]C(=O)CC1C(=S)NCCN1Cc1ccccc1[O-])N=c1[n-]cccc1O (protonated)
O=C(C[N-]C(=O)C[C@@H]1C(=S)NCCN1Cc1ccccc1[O-])N=c1[n-]cccc1O (chirality)
O=C(C[N-]C(=O)C[C@@H]1C(=S)NCCN1Cc1ccccc1[O-])N=c1[n-]cccc1O (3D coordinates assigned)
O=C(C[N-]C(=O)C[C@@H]1C(=S)NCCN1Cc1ccccc1[O-])N=c1[n-]cccc1O (nonaromatic ring conformer: 76.12635851065752 kcal/mol)

>  <smiles>  (80) 
O=C(CNC(=O)CC1C(=S)NCCN1Cc1ccccc1O)N=c1[nH]cccc1O

>  <score_type>  (80) 
oracle

>  <origin>  (80) 
adg

>  <m_score__min__energy>  (80) 
-14.31

>  <m_primary>  (80) 
energy

$$$$
80:0
     RDKit          3D

 40 42  0  0  0  0  0  0  0  0999 V2000
   53.7560   24.5070   45.6430 O   0  0  0  0  0  0  0  0  0  0  0  0
   54.9820   24.7230   45.4500 C   0  0  0  0  0  0  0  0  0  0  0  0
   55.5640   25.8960   46.0380 N   0  0  0  0  0  0  0  0  0  0  0  0
   56.9690   26.2860   45.9890 C   0  0  0  0  0  0  0  0  0  0  0  0
   57.0820   27.7990   46.1630 C   0  0  0  0  0  0  0  0  0  0  0  0
   57.5270   28.4770   44.8640 C   0  0  0  0  0  0  0  0  0  0  0  0
   56.6960   29.7020   44.6060 C   0  0  0  0  0  0  0  0  0  0  0  0
   55.4620   29.6630   44.8520 O   0  0  0  0  0  0  0  0  0  0  0  0
   57.2960   30.9070   44.0970 N   0  0  0  0  0  0  0  0  0  0  0  0
   57.4010   31.2450   42.6740 C   0  0  0  0  0  0  0  0  0  0  0  0
   57.9650   32.6830   42.6100 C   0  0  0  0  0  0  0  0  0  0  0  0
   58.1710   33.0370   44.0410 C   0  0  0  0  0  0  0  0  0  0  0  0
   58.7090   34.2160   44.5610 C   0  0  0  0  0  0  0  0  0  0  0  0
   58.8610   34.3270   45.9530 C   0  0  0  0  0  0  0  0  0  0  0  0
   58.4810   33.2640   46.7930 C   0  0  0  0  0  0  0  0  0  0  0  0
   57.9460   32.0850   46.2470 C   0  0  0  0  0  0  0  0  0  0  0  0
   57.7860   32.0050   44.8560 C   0  0  0  0  0  0  0  0  0  0  0  0
   55.7560   23.7290   44.6800 C   0  0  0  0  0  0  0  0  0  0  0  0
   56.9210   23.9510   43.9610 C   0  0  0  0  0  0  0  0  0  0  0  0
   57.2520   22.7500   43.3730 C   0  0  0  0  0  0  0  0  0  0  0  0
   56.2670   21.8680   43.7510 C   0  0  0  0  0  0  0  0  0  0  0  0
   56.2140   20.5330   43.3670 O   0  0  0  0  0  0  0  0  0  0  0  0
   55.3450   22.4510   44.5390 N   0  0  0  0  0  0  0  0  0  0  0  0
   57.5183   25.7816   46.7976 H   0  0  0  0  0  0  0  0  0  0  0  0
   57.3974   25.9948   45.0186 H   0  0  0  0  0  0  0  0  0  0  0  0
   56.1012   28.1999   46.4586 H   0  0  0  0  0  0  0  0  0  0  0  0
   57.8358   28.0040   46.9374 H   0  0  0  0  0  0  0  0  0  0  0  0
   58.5846   28.7670   44.9495 H   0  0  0  0  0  0  0  0  0  0  0  0
   57.3965   27.7728   44.0291 H   0  0  0  0  0  0  0  0  0  0  0  0
   58.0815   30.5460   42.1657 H   0  0  0  0  0  0  0  0  0  0  0  0
   56.4238   31.1762   42.1736 H   0  0  0  0  0  0  0  0  0  0  0  0
   58.9158   32.7086   42.0574 H   0  0  0  0  0  0  0  0  0  0  0  0
   57.2975   33.3831   42.0863 H   0  0  0  0  0  0  0  0  0  0  0  0
   59.0071   35.0395   43.8954 H   0  0  0  0  0  0  0  0  0  0  0  0
   59.2782   35.2474   46.3876 H   0  0  0  0  0  0  0  0  0  0  0  0
   58.6033   33.3564   47.8823 H   0  0  0  0  0  0  0  0  0  0  0  0
   57.6593   31.2441   46.8956 H   0  0  0  0  0  0  0  0  0  0  0  0
   57.4721   24.8993   43.8768 H   0  0  0  0  0  0  0  0  0  0  0  0
   58.1227   22.5403   42.7343 H   0  0  0  0  0  0  0  0  0  0  0  0
   57.0080   19.9230   43.5160 H   0  0  0  0  0  0  0  0  0  0  0  0
  1  2  2  0
  2  3  1  0
  3  4  1  0
  4  5  1  0
  5  6  1  0
  6  7  1  0
  7  8  2  0
  7  9  1  0
  9 10  1  0
 10 11  1  0
 11 12  1  0
 12 13  2  0
 13 14  1  0
 14 15  2  0
 15 16  1  0
 16 17  2  0
  2 18  1  0
 18 19  2  0
 19 20  1  0
 20 21  2  0
 21 22  1  0
 21 23  1  0
 17  9  1  0
 23 18  1  0
 17 12  1  0
  4 24  1  0
  4 25  1  0
  5 26  1  0
  5 27  1  0
  6 28  1  0
  6 29  1  0
 10 30  1  0
 10 31  1  0
 11 32  1  0
 11 33  1  0
 13 34  1  0
 14 35  1  0
 15 36  1  0
 16 37  1  0
 19 38  1  0
 20 39  1  0
 22 40  1  0
M  CHG  2   3  -1  23  -1
M  END
>  <UniqueID>  (81) 
79

>  <SMILES>  (81) 
O=C([N-]CCCC(=O)N1CCc2ccccc21)c1ccc(O)[n-]1

>  <Energy>  (81) 
79.08170362735726

>  <Genealogy>  (81) 
O=C([N-]CCCC(=O)N1CCc2ccccc21)c1ccc(O)[n-]1 (protonated)
O=C([N-]CCCC(=O)N1CCc2ccccc21)c1ccc(O)[n-]1 (3D coordinates assigned)
O=C([N-]CCCC(=O)N1CCc2ccccc21)c1ccc(O)[n-]1 (nonaromatic ring conformer: 79.08170362735726 kcal/mol)

>  <smiles>  (81) 
O=C(NCCCC(=O)N1CCc2ccccc21)c1ccc(O)[nH]1

>  <score_type>  (81) 
oracle

>  <origin>  (81) 
adg

>  <m_score__min__energy>  (81) 
-12.94

>  <m_primary>  (81) 
energy

$$$$
81:0
     RDKit          3D

 66 70  0  0  0  0  0  0  0  0999 V2000
   55.5010   29.2220   44.8650 O   0  0  0  0  0  0  0  0  0  0  0  0
   56.4930   29.9980   44.7760 C   0  0  0  0  0  0  0  0  0  0  0  0
   57.8570   29.4410   44.5050 C   0  0  0  0  0  0  0  0  0  0  0  0
   58.5200   28.9880   45.7670 C   0  0  0  0  0  0  0  0  0  0  0  0
   57.9360   28.1550   46.6580 N   0  0  0  0  0  0  0  0  0  0  0  0
   58.7010   27.8940   47.7140 N   0  0  0  0  0  0  0  0  0  0  0  0
   59.8970   28.5230   47.6670 C   0  0  0  0  0  0  0  0  0  0  0  0
   60.8140   28.4330   48.5880 N   0  0  0  0  0  0  0  0  0  0  0  0
   60.6910   27.7270   49.8340 C   0  0  0  0  0  0  0  0  0  0  0  0
   60.8880   26.4810   49.8840 O   0  0  0  0  0  0  0  0  0  0  0  0
   60.3320   28.4620   51.0710 C   0  0  0  0  0  0  0  0  0  0  0  0
   61.1320   28.3530   52.2250 C   0  0  0  0  0  0  0  0  0  0  0  0
   60.8010   29.0560   53.3850 C   0  0  0  0  0  0  0  0  0  0  0  0
   59.6750   29.8790   53.4100 C   0  0  0  0  0  0  0  0  0  0  0  0
   58.8660   29.9980   52.2720 C   0  0  0  0  0  0  0  0  0  0  0  0
   57.4780   31.0860   52.2700 S   0  0  0  0  0  0  0  0  0  0  0  0
   56.3380   30.4090   51.5610 O   0  0  0  0  0  0  0  0  0  0  0  0
   57.0580   31.3850   53.6830 O   0  0  0  0  0  0  0  0  0  0  0  0
   57.8850   32.5710   51.4440 N   0  0  0  0  0  0  0  0  0  0  0  0
   58.8430   32.2940   50.3530 C   0  0  0  0  0  0  0  0  0  0  0  0
   59.5980   33.5650   49.9400 C   0  0  0  0  0  0  0  0  0  0  0  0
   60.3850   34.1440   51.0590 N   0  0  0  0  0  0  0  0  0  0  0  0
   61.8270   33.8510   50.9220 C   0  0  0  0  0  0  0  0  0  0  0  0
   62.1190   33.2110   49.5890 C   0  0  0  0  0  0  0  0  0  0  0  0
   62.1030   31.8120   49.4460 C   0  0  0  0  0  0  0  0  0  0  0  0
   62.3950   31.2290   48.2090 C   0  0  0  0  0  0  0  0  0  0  0  0
   62.7090   32.0330   47.1100 C   0  0  0  0  0  0  0  0  0  0  0  0
   62.7330   33.4230   47.2470 C   0  0  0  0  0  0  0  0  0  0  0  0
   62.4410   34.0120   48.4810 C   0  0  0  0  0  0  0  0  0  0  0  0
   59.8810   33.7480   52.3980 C   0  0  0  0  0  0  0  0  0  0  0  0
   58.3530   33.5990   52.4010 C   0  0  0  0  0  0  0  0  0  0  0  0
   59.1950   29.2920   51.1080 C   0  0  0  0  0  0  0  0  0  0  0  0
   60.0600   29.4540   46.2750 S   0  0  0  0  0  0  0  0  0  0  0  0
   56.3030   31.4180   44.8010 N   0  0  0  0  0  0  0  0  0  0  0  0
   57.3120   32.3830   45.1290 C   0  0  0  0  0  0  0  0  0  0  0  0
   57.4480   32.7850   46.4650 C   0  0  0  0  0  0  0  0  0  0  0  0
   58.4220   33.7220   46.8250 C   0  0  0  0  0  0  0  0  0  0  0  0
   59.2520   34.2800   45.8500 C   0  0  0  0  0  0  0  0  0  0  0  0
   59.0960   33.9160   44.5090 C   0  0  0  0  0  0  0  0  0  0  0  0
   58.1270   32.9750   44.1430 C   0  0  0  0  0  0  0  0  0  0  0  0
   57.9480   32.6970   42.8270 F   0  0  0  0  0  0  0  0  0  0  0  0
   57.7648   28.5842   43.8213 H   0  0  0  0  0  0  0  0  0  0  0  0
   58.4725   30.2338   44.0549 H   0  0  0  0  0  0  0  0  0  0  0  0
   62.0240   27.7094   52.2123 H   0  0  0  0  0  0  0  0  0  0  0  0
   61.4302   28.9605   54.2822 H   0  0  0  0  0  0  0  0  0  0  0  0
   59.4217   30.4354   54.3244 H   0  0  0  0  0  0  0  0  0  0  0  0
   59.5684   31.5412   50.6952 H   0  0  0  0  0  0  0  0  0  0  0  0
   58.2814   31.9245   49.4823 H   0  0  0  0  0  0  0  0  0  0  0  0
   60.2840   33.3168   49.1168 H   0  0  0  0  0  0  0  0  0  0  0  0
   58.8527   34.3129   49.6314 H   0  0  0  0  0  0  0  0  0  0  0  0
   62.3950   34.7895   51.0036 H   0  0  0  0  0  0  0  0  0  0  0  0
   62.1224   33.1539   51.7200 H   0  0  0  0  0  0  0  0  0  0  0  0
   61.8602   31.1749   50.3092 H   0  0  0  0  0  0  0  0  0  0  0  0
   62.3775   30.1345   48.1007 H   0  0  0  0  0  0  0  0  0  0  0  0
   62.9371   31.5717   46.1378 H   0  0  0  0  0  0  0  0  0  0  0  0
   62.9822   34.0555   46.3822 H   0  0  0  0  0  0  0  0  0  0  0  0
   62.4635   35.1069   48.5845 H   0  0  0  0  0  0  0  0  0  0  0  0
   60.3347   32.7867   52.6810 H   0  0  0  0  0  0  0  0  0  0  0  0
   60.1530   34.5352   53.1165 H   0  0  0  0  0  0  0  0  0  0  0  0
   58.0277   33.3144   53.4125 H   0  0  0  0  0  0  0  0  0  0  0  0
   57.9211   34.5634   52.0955 H   0  0  0  0  0  0  0  0  0  0  0  0
   58.5597   29.3867   50.2150 H   0  0  0  0  0  0  0  0  0  0  0  0
   56.7854   32.3614   47.2341 H   0  0  0  0  0  0  0  0  0  0  0  0
   58.5346   34.0200   47.8779 H   0  0  0  0  0  0  0  0  0  0  0  0
   60.0277   35.0052   46.1369 H   0  0  0  0  0  0  0  0  0  0  0  0
   59.7370   34.3707   43.7393 H   0  0  0  0  0  0  0  0  0  0  0  0
  1  2  2  0
  2  3  1  0
  3  4  1  0
  4  5  2  0
  5  6  1  0
  6  7  1  0
  7  8  2  3
  8  9  1  0
  9 10  2  0
  9 11  1  0
 11 12  2  0
 12 13  1  0
 13 14  2  0
 14 15  1  0
 15 16  1  0
 16 17  2  0
 16 18  2  0
 16 19  1  0
 19 20  1  0
 20 21  1  0
 21 22  1  0
 22 23  1  0
 23 24  1  0
 24 25  2  0
 25 26  1  0
 26 27  2  0
 27 28  1  0
 28 29  2  0
 22 30  1  0
 30 31  1  0
 15 32  2  0
  7 33  1  0
  2 34  1  0
 34 35  1  0
 35 36  2  0
 36 37  1  0
 37 38  2  0
 38 39  1  0
 39 40  2  0
 40 41  1  0
 33  4  1  0
 40 35  1  0
 32 11  1  0
 31 19  1  0
 29 24  1  0
  3 42  1  0
  3 43  1  0
 12 44  1  0
 13 45  1  0
 14 46  1  0
 20 47  1  0
 20 48  1  0
 21 49  1  0
 21 50  1  0
 23 51  1  0
 23 52  1  0
 25 53  1  0
 26 54  1  0
 27 55  1  0
 28 56  1  0
 29 57  1  0
 30 58  1  0
 30 59  1  0
 31 60  1  0
 31 61  1  0
 32 62  1  0
 36 63  1  0
 37 64  1  0
 38 65  1  0
 39 66  1  0
M  CHG  2   6  -1  34  -1
M  END
>  <UniqueID>  (82) 
80

>  <SMILES>  (82) 
O=C(Cc1n[n-]c(=NC(=O)c2cccc(S(=O)(=O)N3CCN(Cc4ccccc4)CC3)c2)s1)[N-]c1ccccc1F

>  <Energy>  (82) 
123.15808454665489

>  <Genealogy>  (82) 
O=C(Cc1n[n-]c(=NC(=O)c2cccc(S(=O)(=O)N3CCN(Cc4ccccc4)CC3)c2)s1)[N-]c1ccccc1F (protonated)
O=C(Cc1n[n-]c(=NC(=O)c2cccc(S(=O)(=O)N3CCN(Cc4ccccc4)CC3)c2)s1)[N-]c1ccccc1F (3D coordinates assigned)
O=C(Cc1n[n-]c(=NC(=O)c2cccc(S(=O)(=O)N3CCN(Cc4ccccc4)CC3)c2)s1)[N-]c1ccccc1F (nonaromatic ring conformer: 123.15808454665489 kcal/mol)

>  <smiles>  (82) 
O=C(Cc1n[nH]c(=NC(=O)c2cccc(S(=O)(=O)N3CCN(Cc4ccccc4)CC3)c2)s1)Nc1ccccc1F

>  <score_type>  (82) 
oracle

>  <origin>  (82) 
adg

>  <m_score__min__energy>  (82) 
-14.970000000000001

>  <m_primary>  (82) 
energy

$$$$
82:0
     RDKit          3D

 53 56  0  0  0  0  0  0  0  0999 V2000
   57.0140   29.4550   45.4050 C   0  0  0  0  0  0  0  0  0  0  0  0
   57.0820   28.1540   45.7240 C   0  0  0  0  0  0  0  0  0  0  0  0
   55.9320   27.4450   45.6190 N   0  0  0  0  0  0  0  0  0  0  0  0
   55.8030   26.1910   46.1050 C   0  0  0  0  0  0  0  0  0  0  0  0
   54.7060   25.5880   45.9450 O   0  0  0  0  0  0  0  0  0  0  0  0
   56.8350   25.6020   46.7810 N   0  0  0  0  0  0  0  0  0  0  0  0
   56.6740   24.2480   47.3470 C   0  0  0  0  0  0  0  0  0  0  0  0
   57.2120   23.2250   46.3970 C   0  0  0  0  0  0  0  0  0  0  0  0
   57.2990   23.3620   45.0250 C   0  0  0  0  0  0  0  0  0  0  0  0
   57.8840   22.1990   44.5750 C   0  0  0  0  0  0  0  0  0  0  0  0
   58.1210   21.4290   45.6960 C   0  0  0  0  0  0  0  0  0  0  0  0
   57.7120   22.0690   46.7670 O   0  0  0  0  0  0  0  0  0  0  0  0
   58.0460   26.2440   46.8680 C   0  0  0  0  0  0  0  0  0  0  0  0
   59.0100   25.6680   47.4480 O   0  0  0  0  0  0  0  0  0  0  0  0
   58.2390   27.5220   46.2750 C   0  0  0  0  0  0  0  0  0  0  0  0
   59.4970   28.0430   46.2430 C   0  0  0  0  0  0  0  0  0  0  0  0
   59.9750   29.2310   46.9830 C   0  0  0  0  0  0  0  0  0  0  0  0
   61.0010   30.0170   46.4390 C   0  0  0  0  0  0  0  0  0  0  0  0
   61.4400   31.1640   47.1050 C   0  0  0  0  0  0  0  0  0  0  0  0
   60.8510   31.5570   48.3120 C   0  0  0  0  0  0  0  0  0  0  0  0
   61.3400   32.7110   48.9470 O   0  0  0  0  0  0  0  0  0  0  0  0
   60.9920   34.0500   48.5950 C   0  0  0  0  0  0  0  0  0  0  0  0
   60.7830   34.1720   47.1110 C   0  0  0  0  0  0  0  0  0  0  0  0
   61.7850   34.3600   46.3700 O   0  0  0  0  0  0  0  0  0  0  0  0
   59.4780   34.0410   46.5190 N   0  0  0  0  0  0  0  0  0  0  0  0
   59.2330   34.2430   45.1020 C   0  0  0  0  0  0  0  0  0  0  0  0
   57.7240   34.1420   44.9280 C   0  0  0  0  0  0  0  0  0  0  0  0
   57.2100   33.4400   46.1830 C   0  0  0  0  0  0  0  0  0  0  0  0
   58.2790   33.6560   47.2450 C   0  0  0  0  0  0  0  0  0  0  0  0
   59.7950   30.7900   48.8410 C   0  0  0  0  0  0  0  0  0  0  0  0
   59.3540   29.6440   48.1740 C   0  0  0  0  0  0  0  0  0  0  0  0
   57.9135   30.0849   45.4696 H   0  0  0  0  0  0  0  0  0  0  0  0
   56.0587   29.8921   45.0788 H   0  0  0  0  0  0  0  0  0  0  0  0
   57.2220   24.1842   48.2987 H   0  0  0  0  0  0  0  0  0  0  0  0
   55.6046   24.0540   47.5165 H   0  0  0  0  0  0  0  0  0  0  0  0
   56.9703   24.2194   44.4194 H   0  0  0  0  0  0  0  0  0  0  0  0
   58.1157   21.9366   43.5322 H   0  0  0  0  0  0  0  0  0  0  0  0
   58.5826   20.4305   45.6925 H   0  0  0  0  0  0  0  0  0  0  0  0
   60.2300   27.5294   45.6035 H   0  0  0  0  0  0  0  0  0  0  0  0
   61.4626   29.7290   45.4830 H   0  0  0  0  0  0  0  0  0  0  0  0
   62.2564   31.7639   46.6765 H   0  0  0  0  0  0  0  0  0  0  0  0
   60.0639   34.3304   49.1147 H   0  0  0  0  0  0  0  0  0  0  0  0
   61.8130   34.7188   48.8928 H   0  0  0  0  0  0  0  0  0  0  0  0
   59.5900   35.2351   44.7884 H   0  0  0  0  0  0  0  0  0  0  0  0
   59.7638   33.5008   44.4877 H   0  0  0  0  0  0  0  0  0  0  0  0
   57.2800   35.1446   44.8401 H   0  0  0  0  0  0  0  0  0  0  0  0
   57.4564   33.5897   44.0151 H   0  0  0  0  0  0  0  0  0  0  0  0
   56.2552   33.8812   46.5050 H   0  0  0  0  0  0  0  0  0  0  0  0
   57.0277   32.3702   46.0031 H   0  0  0  0  0  0  0  0  0  0  0  0
   57.9763   34.4550   47.9378 H   0  0  0  0  0  0  0  0  0  0  0  0
   58.4415   32.7513   47.8493 H   0  0  0  0  0  0  0  0  0  0  0  0
   59.3154   31.0942   49.7830 H   0  0  0  0  0  0  0  0  0  0  0  0
   58.5156   29.0616   48.5838 H   0  0  0  0  0  0  0  0  0  0  0  0
  1  2  2  0
  2  3  1  0
  3  4  1  0
  4  5  2  0
  4  6  1  0
  6  7  1  0
  7  8  1  0
  8  9  2  0
  9 10  1  0
 10 11  2  0
 11 12  1  0
  6 13  1  0
 13 14  2  0
 13 15  1  0
 15 16  2  3
 16 17  1  0
 17 18  2  0
 18 19  1  0
 19 20  2  0
 20 21  1  0
 21 22  1  0
 22 23  1  0
 23 24  2  0
 23 25  1  0
 25 26  1  0
 26 27  1  0
 27 28  1  0
 28 29  1  0
 20 30  1  0
 30 31  2  0
 15  2  1  0
 31 17  1  0
 12  8  1  0
 29 25  1  0
  1 32  1  0
  1 33  1  0
  7 34  1  0
  7 35  1  0
  9 36  1  0
 10 37  1  0
 11 38  1  0
 16 39  1  0
 18 40  1  0
 19 41  1  0
 22 42  1  0
 22 43  1  0
 26 44  1  0
 26 45  1  0
 27 46  1  0
 27 47  1  0
 28 48  1  0
 28 49  1  0
 29 50  1  0
 29 51  1  0
 30 52  1  0
 31 53  1  0
M  CHG  1   3  -1
M  END
>  <UniqueID>  (83) 
81

>  <SMILES>  (83) 
C=c1[n-]c(=O)n(Cc2ccco2)c(=O)c1=Cc1ccc(OCC(=O)N2CCCC2)cc1

>  <Energy>  (83) 
105.73138318799953

>  <Genealogy>  (83) 
C=c1[n-]c(=O)n(Cc2ccco2)c(=O)c1=Cc1ccc(OCC(=O)N2CCCC2)cc1 (protonated)
C=c1[n-]c(=O)n(Cc2ccco2)c(=O)c1=Cc1ccc(OCC(=O)N2CCCC2)cc1 (3D coordinates assigned)
C=c1[n-]c(=O)n(Cc2ccco2)c(=O)c1=Cc1ccc(OCC(=O)N2CCCC2)cc1 (nonaromatic ring conformer: 105.73138318799953 kcal/mol)

>  <smiles>  (83) 
C=c1[nH]c(=O)n(Cc2ccco2)c(=O)c1=Cc1ccc(OCC(=O)N2CCCC2)cc1

>  <score_type>  (83) 
oracle

>  <origin>  (83) 
adg

>  <m_score__min__energy>  (83) 
-10.25

>  <m_primary>  (83) 
energy

$$$$
83:0
     RDKit          3D

 68 72  0  0  0  0  0  0  0  0999 V2000
   59.7600   26.6960   48.7970 O   0  0  0  0  0  0  0  0  0  0  0  0
   60.0230   27.5210   47.5670 S   0  0  0  0  0  0  0  0  0  0  0  0
   60.9680   26.7710   46.6710 O   0  0  0  0  0  0  0  0  0  0  0  0
   60.7770   29.0720   48.0370 C   0  0  0  0  0  0  0  0  0  0  0  0
   59.9790   29.7340   49.1260 C   0  0  0  0  0  0  0  0  0  0  0  0
   59.1600   30.8370   48.8330 C   0  0  0  0  0  0  0  0  0  0  0  0
   58.3980   31.4360   49.8410 C   0  0  0  0  0  0  0  0  0  0  0  0
   58.4430   30.9330   51.1440 C   0  0  0  0  0  0  0  0  0  0  0  0
   59.2460   29.8280   51.4420 C   0  0  0  0  0  0  0  0  0  0  0  0
   59.2820   29.3390   52.7050 F   0  0  0  0  0  0  0  0  0  0  0  0
   60.0090   29.2270   50.4350 C   0  0  0  0  0  0  0  0  0  0  0  0
   58.5290   27.7810   46.7090 N   0  0  0  0  0  0  0  0  0  0  0  0
   58.7480   27.8600   45.2480 C   0  0  2  0  0  0  0  0  0  0  0  0
   59.8790   28.8540   44.9050 C   0  0  0  0  0  0  0  0  0  0  0  0
   59.5520   30.3000   45.3310 C   0  0  0  0  0  0  0  0  0  0  0  0
   58.0370   30.6270   45.2980 C   0  0  1  0  0  0  0  0  0  0  0  0
   57.8160   32.1410   45.0670 C   0  0  0  0  0  0  0  0  0  0  0  0
   58.7040   32.9810   45.9050 N   0  0  0  0  0  0  0  0  0  0  0  0
   59.3270   34.0730   45.1150 C   0  0  0  0  0  0  0  0  0  0  0  0
   59.8760   35.2210   45.9890 C   0  0  0  0  0  0  0  0  0  0  0  0
   60.1780   34.7650   47.4260 C   0  0  0  0  0  0  0  0  0  0  0  0
   61.3630   33.8210   47.4550 C   0  0  0  0  0  0  0  0  0  0  0  0
   62.2610   33.5240   46.4260 C   0  0  0  0  0  0  0  0  0  0  0  0
   63.2320   32.6920   46.8650 N   0  0  0  0  0  0  0  0  0  0  0  0
   62.9660   32.4610   48.1600 C   0  0  0  0  0  0  0  0  0  0  0  0
   63.6990   31.6700   49.0440 C   0  0  0  0  0  0  0  0  0  0  0  0
   63.2460   31.5740   50.3720 C   0  0  0  0  0  0  0  0  0  0  0  0
   62.0850   32.2660   50.7830 C   0  0  0  0  0  0  0  0  0  0  0  0
   61.3670   33.0590   49.8700 C   0  0  0  0  0  0  0  0  0  0  0  0
   61.8370   33.1320   48.5580 C   0  0  0  0  0  0  0  0  0  0  0  0
   58.9060   34.1740   48.0790 C   0  0  0  0  0  0  0  0  0  0  0  0
   57.9550   33.5170   47.0580 C   0  0  0  0  0  0  0  0  0  0  0  0
   57.3190   29.7780   44.2320 C   0  0  0  0  0  0  0  0  0  0  0  0
   57.4300   28.2710   44.5390 C   0  0  0  0  0  0  0  0  0  0  0  0
   61.7983   28.8834   48.3996 H   0  0  0  0  0  0  0  0  0  0  0  0
   60.8037   29.7359   47.1603 H   0  0  0  0  0  0  0  0  0  0  0  0
   59.1179   31.2310   47.8069 H   0  0  0  0  0  0  0  0  0  0  0  0
   57.7629   32.3035   49.6082 H   0  0  0  0  0  0  0  0  0  0  0  0
   57.8456   31.4073   51.9366 H   0  0  0  0  0  0  0  0  0  0  0  0
   60.6351   28.3535   50.6698 H   0  0  0  0  0  0  0  0  0  0  0  0
   58.1540   28.6880   47.0720 H   0  0  0  0  0  0  0  0  0  0  0  0
   59.0557   26.8666   44.8895 H   0  0  0  0  0  0  0  0  0  0  0  0
   60.7965   28.5344   45.4208 H   0  0  0  0  0  0  0  0  0  0  0  0
   60.0036   28.8504   43.8121 H   0  0  0  0  0  0  0  0  0  0  0  0
   59.9187   30.4521   46.3569 H   0  0  0  0  0  0  0  0  0  0  0  0
   60.0431   30.9688   44.6089 H   0  0  0  0  0  0  0  0  0  0  0  0
   57.5988   30.3697   46.2736 H   0  0  0  0  0  0  0  0  0  0  0  0
   58.0119   32.3682   44.0087 H   0  0  0  0  0  0  0  0  0  0  0  0
   56.7775   32.3725   45.3462 H   0  0  0  0  0  0  0  0  0  0  0  0
   60.1578   33.6511   44.5303 H   0  0  0  0  0  0  0  0  0  0  0  0
   58.5427   34.4989   44.4720 H   0  0  0  0  0  0  0  0  0  0  0  0
   60.8040   35.5989   45.5351 H   0  0  0  0  0  0  0  0  0  0  0  0
   59.1059   36.0049   46.0388 H   0  0  0  0  0  0  0  0  0  0  0  0
   60.4687   35.6355   48.0323 H   0  0  0  0  0  0  0  0  0  0  0  0
   62.1878   33.9137   45.3999 H   0  0  0  0  0  0  0  0  0  0  0  0
   64.0320   32.3170   46.3080 H   0  0  0  0  0  0  0  0  0  0  0  0
   64.6031   31.1379   48.7131 H   0  0  0  0  0  0  0  0  0  0  0  0
   63.7990   30.9564   51.0950 H   0  0  0  0  0  0  0  0  0  0  0  0
   61.7402   32.1840   51.8243 H   0  0  0  0  0  0  0  0  0  0  0  0
   60.4635   33.6044   50.1802 H   0  0  0  0  0  0  0  0  0  0  0  0
   59.2099   33.4145   48.8144 H   0  0  0  0  0  0  0  0  0  0  0  0
   58.3606   35.0054   48.5494 H   0  0  0  0  0  0  0  0  0  0  0  0
   57.4133   32.6948   47.5485 H   0  0  0  0  0  0  0  0  0  0  0  0
   57.2510   34.2799   46.6941 H   0  0  0  0  0  0  0  0  0  0  0  0
   56.2561   30.0601   44.2071 H   0  0  0  0  0  0  0  0  0  0  0  0
   57.7981   29.9679   43.2602 H   0  0  0  0  0  0  0  0  0  0  0  0
   56.5873   27.9883   45.1871 H   0  0  0  0  0  0  0  0  0  0  0  0
   57.4172   27.7500   43.5703 H   0  0  0  0  0  0  0  0  0  0  0  0
  1  2  2  0
  2  3  2  0
  2  4  1  0
  4  5  1  0
  5  6  2  0
  6  7  1  0
  7  8  2  0
  8  9  1  0
  9 10  1  0
  9 11  2  0
  2 12  1  0
 12 13  1  0
 13 14  1  0
 14 15  1  0
 15 16  1  0
 16 17  1  0
 17 18  1  0
 18 19  1  0
 19 20  1  0
 20 21  1  0
 21 22  1  0
 22 23  2  0
 23 24  1  0
 24 25  1  0
 25 26  2  0
 26 27  1  0
 27 28  2  0
 28 29  1  0
 29 30  2  0
 21 31  1  0
 31 32  1  0
 16 33  1  0
 33 34  1  0
 11  5  1  0
 34 13  1  0
 32 18  1  0
 30 22  1  0
 30 25  1  0
  4 35  1  0
  4 36  1  0
  6 37  1  0
  7 38  1  0
  8 39  1  0
 11 40  1  0
 12 41  1  0
 13 42  1  6
 14 43  1  0
 14 44  1  0
 15 45  1  0
 15 46  1  0
 16 47  1  1
 17 48  1  0
 17 49  1  0
 19 50  1  0
 19 51  1  0
 20 52  1  0
 20 53  1  0
 21 54  1  0
 23 55  1  0
 24 56  1  0
 26 57  1  0
 27 58  1  0
 28 59  1  0
 29 60  1  0
 31 61  1  0
 31 62  1  0
 32 63  1  0
 32 64  1  0
 33 65  1  0
 33 66  1  0
 34 67  1  0
 34 68  1  0
M  END
>  <UniqueID>  (84) 
82

>  <SMILES>  (84) 
O=S(=O)(Cc1cccc(F)c1)NC1CCC(CN2CCC(c3c[nH]c4ccccc34)CC2)CC1

>  <Energy>  (84) 
108.8772295910595

>  <Genealogy>  (84) 
O=S(=O)(Cc1cccc(F)c1)NC1CCC(CN2CCC(c3c[nH]c4ccccc34)CC2)CC1 (3D coordinates assigned)
O=S(=O)(Cc1cccc(F)c1)NC1CCC(CN2CCC(c3c[nH]c4ccccc34)CC2)CC1 (nonaromatic ring conformer: 108.8772295910595 kcal/mol)

>  <smiles>  (84) 
O=S(=O)(Cc1cccc(F)c1)NC1CCC(CN2CCC(c3c[nH]c4ccccc34)CC2)CC1

>  <score_type>  (84) 
oracle

>  <origin>  (84) 
adg

>  <m_score__min__energy>  (84) 
-10.81

>  <m_primary>  (84) 
energy

$$$$
84:0
     RDKit          3D

 28 29  0  0  0  0  0  0  0  0999 V2000
   57.1825   32.1429   40.1841 H   0  0  0  0  0  0  0  0  0  0  0  0
   57.5480   32.3280   41.2050 C   0  0  0  0  0  0  0  0  0  0  0  0
   58.2499   33.1530   41.3967 H   0  0  0  0  0  0  0  0  0  0  0  0
   57.1410   31.5540   42.2080 C   0  0  0  0  0  0  0  0  0  0  0  0
   56.4389   30.7370   41.9853 H   0  0  0  0  0  0  0  0  0  0  0  0
   57.5860   31.7370   43.6110 C   0  0  0  0  0  0  0  0  0  0  0  0
   58.1230   32.9890   43.9540 C   0  0  0  0  0  0  0  0  0  0  0  0
   58.2021   33.7749   43.1884 H   0  0  0  0  0  0  0  0  0  0  0  0
   58.5570   33.2470   45.2540 C   0  0  0  0  0  0  0  0  0  0  0  0
   58.9970   34.2241   45.5025 H   0  0  0  0  0  0  0  0  0  0  0  0
   58.4340   32.2690   46.2380 C   0  0  0  0  0  0  0  0  0  0  0  0
   58.7767   32.4749   47.2628 H   0  0  0  0  0  0  0  0  0  0  0  0
   57.8770   31.0290   45.9260 C   0  0  0  0  0  0  0  0  0  0  0  0
   57.7572   30.2733   46.7163 H   0  0  0  0  0  0  0  0  0  0  0  0
   57.4660   30.7320   44.6120 C   0  0  0  0  0  0  0  0  0  0  0  0
   56.7920   29.4410   44.3280 C   0  0  0  0  0  0  0  0  0  0  0  0
   56.8210   29.0609   43.2962 H   0  0  0  0  0  0  0  0  0  0  0  0
   56.1680   28.7290   45.2230 N   0  0  0  0  0  0  0  0  0  0  0  0
   56.6810   27.5640   45.8210 N   0  0  0  0  0  0  0  0  0  0  0  0
   57.9680   27.1970   45.9840 C   0  0  0  0  0  0  0  0  0  0  0  0
   59.1580   28.0460   45.6760 C   0  0  0  0  0  0  0  0  0  0  0  0
   59.6241   28.3786   46.6152 H   0  0  0  0  0  0  0  0  0  0  0  0
   59.8847   27.4611   45.0930 H   0  0  0  0  0  0  0  0  0  0  0  0
   58.8414   28.9234   45.0930 H   0  0  0  0  0  0  0  0  0  0  0  0
   58.0560   25.9070   46.3750 N   0  0  0  0  0  0  0  0  0  0  0  0
   56.8190   25.4270   46.4320 N   0  0  0  0  0  0  0  0  0  0  0  0
   56.0040   26.4350   46.0690 C   0  0  0  0  0  0  0  0  0  0  0  0
   54.7540   26.3220   45.9670 O   0  0  0  0  0  0  0  0  0  0  0  0
  1  2  1  0
  2  3  1  0
  2  4  2  0
  4  5  1  0
  4  6  1  0
  6  7  2  0
  7  8  1  0
  7  9  1  0
  9 10  1  0
  9 11  2  0
 11 12  1  0
 11 13  1  0
 13 14  1  0
 13 15  2  0
 15 16  1  0
 16 17  1  0
 16 18  2  0
 18 19  1  0
 19 20  1  0
 20 21  1  0
 21 22  1  0
 21 23  1  0
 21 24  1  0
 20 25  2  0
 25 26  1  0
 26 27  1  0
 27 28  2  0
 15  6  1  0
 27 19  1  0
M  CHG  1  26  -1
M  END
>  <UniqueID>  (85) 
83

>  <SMILES>  (85) 
C=Cc1ccccc1/C=N\n1c(C)n[n-]c1=O

>  <Energy>  (85) 
81.34394202519607

>  <Genealogy>  (85) 
C=Cc1ccccc1C=Nn1c(C)n[n-]c1=O (protonated)
C=Cc1ccccc1/C=N\n1c(C)n[n-]c1=O (cis-trans isomerization)
C=Cc1ccccc1/C=N\n1c(C)n[n-]c1=O (3D coordinates assigned)
C=Cc1ccccc1/C=N\n1c(C)n[n-]c1=O (optimized conformer: 81.34394202519607 kcal/mol)

>  <smiles>  (85) 
C=Cc1ccccc1C=Nn1c(C)n[nH]c1=O

>  <score_type>  (85) 
oracle

>  <origin>  (85) 
adg

>  <m_score__min__energy>  (85) 
-8.6199999999999992

>  <m_primary>  (85) 
energy

$$$$
85:0
     RDKit          3D

 47 50  0  0  0  0  0  0  0  0999 V2000
   55.1670   26.7140   46.0430 O   0  0  0  0  0  0  0  0  0  0  0  0
   56.3470   26.2880   45.9210 C   0  0  0  0  0  0  0  0  0  0  0  0
   57.3090   27.0070   45.0270 C   0  0  0  0  0  0  0  0  0  0  0  0
   57.0860   28.4470   45.0900 N   0  0  0  0  0  0  0  0  0  0  0  0
   57.9980   29.3890   45.3850 C   0  0  0  0  0  0  0  0  0  0  0  0
   57.3530   30.6020   45.2590 C   0  0  0  0  0  0  0  0  0  0  0  0
   57.9310   31.9540   45.4180 C   0  0  0  0  0  0  0  0  0  0  0  0
   58.3120   32.3720   46.7060 C   0  0  0  0  0  0  0  0  0  0  0  0
   58.8450   33.6450   46.9140 C   0  0  0  0  0  0  0  0  0  0  0  0
   59.0150   34.5160   45.8380 C   0  0  0  0  0  0  0  0  0  0  0  0
   58.6640   34.1100   44.5500 C   0  0  0  0  0  0  0  0  0  0  0  0
   58.1300   32.8330   44.3260 C   0  0  0  0  0  0  0  0  0  0  0  0
   57.8140   32.3250   42.5020 Br  0  0  0  0  0  0  0  0  0  0  0  0
   56.0870   30.3610   44.8590 N   0  0  0  0  0  0  0  0  0  0  0  0
   55.9510   29.0460   44.7680 N   0  0  0  0  0  0  0  0  0  0  0  0
   56.7460   25.0550   46.5340 N   0  0  0  0  0  0  0  0  0  0  0  0
   57.4690   23.9860   45.9030 C   0  0  0  0  0  0  0  0  0  0  0  0
   58.8760   23.9700   45.8590 C   0  0  0  0  0  0  0  0  0  0  0  0
   59.5510   22.9120   45.2460 C   0  0  0  0  0  0  0  0  0  0  0  0
   58.8310   21.8650   44.6640 C   0  0  0  0  0  0  0  0  0  0  0  0
   57.4370   21.8800   44.6830 C   0  0  0  0  0  0  0  0  0  0  0  0
   56.7490   22.9430   45.2900 C   0  0  0  0  0  0  0  0  0  0  0  0
   55.3140   22.9520   45.3090 N   0  0  0  0  0  0  0  0  0  0  0  0
   54.5930   23.6990   44.2770 C   0  0  0  0  0  0  0  0  0  0  0  0
   53.1930   24.0620   44.7850 C   0  0  0  0  0  0  0  0  0  0  0  0
   52.5230   22.9190   45.2840 O   0  0  0  0  0  0  0  0  0  0  0  0
   53.2030   22.4230   46.4220 C   0  0  0  0  0  0  0  0  0  0  0  0
   54.5930   21.9070   46.0390 C   0  0  0  0  0  0  0  0  0  0  0  0
   58.3372   26.7855   45.3490 H   0  0  0  0  0  0  0  0  0  0  0  0
   57.1544   26.6679   43.9920 H   0  0  0  0  0  0  0  0  0  0  0  0
   59.0479   29.2257   45.6697 H   0  0  0  0  0  0  0  0  0  0  0  0
   58.1885   31.6880   47.5586 H   0  0  0  0  0  0  0  0  0  0  0  0
   59.1314   33.9618   47.9277 H   0  0  0  0  0  0  0  0  0  0  0  0
   59.4257   35.5227   46.0047 H   0  0  0  0  0  0  0  0  0  0  0  0
   58.8074   34.7974   43.7033 H   0  0  0  0  0  0  0  0  0  0  0  0
   59.4468   24.7952   46.3098 H   0  0  0  0  0  0  0  0  0  0  0  0
   60.6507   22.9028   45.2212 H   0  0  0  0  0  0  0  0  0  0  0  0
   59.3649   21.0280   44.1903 H   0  0  0  0  0  0  0  0  0  0  0  0
   56.8739   21.0559   44.2207 H   0  0  0  0  0  0  0  0  0  0  0  0
   55.1456   24.6198   44.0387 H   0  0  0  0  0  0  0  0  0  0  0  0
   54.5030   23.0779   43.3736 H   0  0  0  0  0  0  0  0  0  0  0  0
   53.2840   24.8059   45.5902 H   0  0  0  0  0  0  0  0  0  0  0  0
   52.6108   24.4717   43.9464 H   0  0  0  0  0  0  0  0  0  0  0  0
   53.3086   23.2314   47.1605 H   0  0  0  0  0  0  0  0  0  0  0  0
   52.6216   21.5916   46.8472 H   0  0  0  0  0  0  0  0  0  0  0  0
   55.1508   21.6436   46.9498 H   0  0  0  0  0  0  0  0  0  0  0  0
   54.4922   21.0158   45.4021 H   0  0  0  0  0  0  0  0  0  0  0  0
  1  2  2  0
  2  3  1  0
  3  4  1  0
  4  5  1  0
  5  6  2  0
  6  7  1  0
  7  8  2  0
  8  9  1  0
  9 10  2  0
 10 11  1  0
 11 12  2  0
 12 13  1  0
  6 14  1  0
 14 15  2  0
  2 16  1  0
 16 17  1  0
 17 18  2  0
 18 19  1  0
 19 20  2  0
 20 21  1  0
 21 22  2  0
 22 23  1  0
 23 24  1  0
 24 25  1  0
 25 26  1  0
 26 27  1  0
 27 28  1  0
 15  4  1  0
 22 17  1  0
 28 23  1  0
 12  7  1  0
  3 29  1  0
  3 30  1  0
  5 31  1  0
  8 32  1  0
  9 33  1  0
 10 34  1  0
 11 35  1  0
 18 36  1  0
 19 37  1  0
 20 38  1  0
 21 39  1  0
 24 40  1  0
 24 41  1  0
 25 42  1  0
 25 43  1  0
 27 44  1  0
 27 45  1  0
 28 46  1  0
 28 47  1  0
M  CHG  1  16  -1
M  END
>  <UniqueID>  (86) 
84

>  <SMILES>  (86) 
O=C(Cn1cc(-c2ccccc2Br)nn1)[N-]c1ccccc1N1CCOCC1

>  <Energy>  (86) 
99.35698631013558

>  <Genealogy>  (86) 
O=C(Cn1cc(-c2ccccc2Br)nn1)[N-]c1ccccc1N1CCOCC1 (protonated)
O=C(Cn1cc(-c2ccccc2Br)nn1)[N-]c1ccccc1N1CCOCC1 (3D coordinates assigned)
O=C(Cn1cc(-c2ccccc2Br)nn1)[N-]c1ccccc1N1CCOCC1 (nonaromatic ring conformer: 99.35698631013558 kcal/mol)

>  <smiles>  (86) 
O=C(Cn1cc(-c2ccccc2Br)nn1)Nc1ccccc1N1CCOCC1

>  <score_type>  (86) 
oracle

>  <origin>  (86) 
adg

>  <m_score__min__energy>  (86) 
-11.460000000000001

>  <m_primary>  (86) 
energy

$$$$
86:0
     RDKit          3D

 62 65  0  0  0  0  0  0  0  0999 V2000
   56.3520   22.5930   42.2490 N   0  0  0  0  0  0  0  0  0  0  0  0
   56.3690   21.7340   43.3960 C   0  0  0  0  0  0  0  0  0  0  0  0
   56.9480   20.4350   43.2800 N   0  0  0  0  0  0  0  0  0  0  0  0
   55.9260   22.1240   44.5590 N   0  0  0  0  0  0  0  0  0  0  0  0
   56.7020   22.4840   45.7130 C   0  0  0  0  0  0  0  0  0  0  0  0
   57.0470   21.6040   46.5470 O   0  0  0  0  0  0  0  0  0  0  0  0
   57.1750   23.8760   45.8780 C   0  0  0  0  0  0  0  0  0  0  0  0
   57.4190   24.6850   44.7560 C   0  0  0  0  0  0  0  0  0  0  0  0
   57.8530   26.0040   44.9110 C   0  0  0  0  0  0  0  0  0  0  0  0
   58.0630   26.5400   46.1890 C   0  0  0  0  0  0  0  0  0  0  0  0
   58.5010   27.9030   46.3190 N   0  0  0  0  0  0  0  0  0  0  0  0
   59.6130   28.3110   47.1320 C   0  0  0  0  0  0  0  0  0  0  0  0
   60.5070   27.4690   47.4270 O   0  0  0  0  0  0  0  0  0  0  0  0
   59.8390   29.7720   47.4670 C   0  0  2  0  0  0  0  0  0  0  0  0
   60.0240   30.0470   48.9770 C   0  0  0  0  0  0  0  0  0  0  0  0
   60.6420   31.3810   49.3020 C   0  0  0  0  0  0  0  0  0  0  0  0
   60.2040   32.2660   50.2840 C   0  0  0  0  0  0  0  0  0  0  0  0
   60.9340   33.4030   50.2580 N   0  0  0  0  0  0  0  0  0  0  0  0
   61.8210   33.2520   49.2610 C   0  0  0  0  0  0  0  0  0  0  0  0
   62.7680   34.1800   48.8270 C   0  0  0  0  0  0  0  0  0  0  0  0
   63.5900   33.8230   47.7450 C   0  0  0  0  0  0  0  0  0  0  0  0
   63.4430   32.5670   47.1180 C   0  0  0  0  0  0  0  0  0  0  0  0
   62.4690   31.6560   47.5670 C   0  0  0  0  0  0  0  0  0  0  0  0
   61.6780   32.0290   48.6530 C   0  0  0  0  0  0  0  0  0  0  0  0
   58.8360   30.6670   46.8790 N   0  0  0  0  0  0  0  0  0  0  0  0
   58.3740   30.6920   45.5220 C   0  0  0  0  0  0  0  0  0  0  0  0
   59.0920   30.1700   44.6270 O   0  0  0  0  0  0  0  0  0  0  0  0
   57.1380   31.2590   45.1940 O   0  0  0  0  0  0  0  0  0  0  0  0
   56.9870   32.6440   44.8980 C   0  0  0  0  0  0  0  0  0  0  0  0
   58.0000   33.4420   45.6670 C   0  0  0  0  0  0  0  0  0  0  0  0
   57.9570   33.4710   47.0690 C   0  0  0  0  0  0  0  0  0  0  0  0
   58.8950   34.2160   47.7890 C   0  0  0  0  0  0  0  0  0  0  0  0
   59.8840   34.9360   47.1150 C   0  0  0  0  0  0  0  0  0  0  0  0
   59.9290   34.9200   45.7180 C   0  0  0  0  0  0  0  0  0  0  0  0
   58.9860   34.1850   44.9940 C   0  0  0  0  0  0  0  0  0  0  0  0
   57.8020   25.7380   47.3160 C   0  0  0  0  0  0  0  0  0  0  0  0
   57.3780   24.4170   47.1600 C   0  0  0  0  0  0  0  0  0  0  0  0
   56.6300   22.2130   41.3150 H   0  0  0  0  0  0  0  0  0  0  0  0
   56.2280   23.6250   42.3280 H   0  0  0  0  0  0  0  0  0  0  0  0
   57.3170   20.0960   42.3650 H   0  0  0  0  0  0  0  0  0  0  0  0
   56.9850   19.7950   44.1060 H   0  0  0  0  0  0  0  0  0  0  0  0
   57.2670   24.2764   43.7461 H   0  0  0  0  0  0  0  0  0  0  0  0
   58.0314   26.6272   44.0223 H   0  0  0  0  0  0  0  0  0  0  0  0
   58.0370   28.6270   45.7210 H   0  0  0  0  0  0  0  0  0  0  0  0
   60.8005   30.0093   46.9883 H   0  0  0  0  0  0  0  0  0  0  0  0
   59.0355   30.0011   49.4574 H   0  0  0  0  0  0  0  0  0  0  0  0
   60.7216   29.2823   49.3491 H   0  0  0  0  0  0  0  0  0  0  0  0
   59.3787   32.0672   50.9835 H   0  0  0  0  0  0  0  0  0  0  0  0
   60.8140   34.2360   50.8760 H   0  0  0  0  0  0  0  0  0  0  0  0
   62.8679   35.1601   49.3164 H   0  0  0  0  0  0  0  0  0  0  0  0
   64.3537   34.5275   47.3838 H   0  0  0  0  0  0  0  0  0  0  0  0
   64.0940   32.2986   46.2729 H   0  0  0  0  0  0  0  0  0  0  0  0
   62.3358   30.6804   47.0767 H   0  0  0  0  0  0  0  0  0  0  0  0
   57.1367   32.8055   43.8203 H   0  0  0  0  0  0  0  0  0  0  0  0
   55.9757   32.9684   45.1845 H   0  0  0  0  0  0  0  0  0  0  0  0
   57.1809   32.9044   47.6044 H   0  0  0  0  0  0  0  0  0  0  0  0
   58.8543   34.2353   48.8881 H   0  0  0  0  0  0  0  0  0  0  0  0
   60.6269   35.5152   47.6831 H   0  0  0  0  0  0  0  0  0  0  0  0
   60.7081   35.4870   45.1874 H   0  0  0  0  0  0  0  0  0  0  0  0
   59.0153   34.1878   43.8944 H   0  0  0  0  0  0  0  0  0  0  0  0
   57.9329   26.1546   48.3256 H   0  0  0  0  0  0  0  0  0  0  0  0
   57.2010   23.7933   48.0486 H   0  0  0  0  0  0  0  0  0  0  0  0
  1  2  1  0
  2  3  1  0
  2  4  2  3
  4  5  1  0
  5  6  2  0
  5  7  1  0
  7  8  2  0
  8  9  1  0
  9 10  2  0
 10 11  1  0
 11 12  1  0
 12 13  2  0
 12 14  1  0
 14 15  1  0
 15 16  1  0
 16 17  2  0
 17 18  1  0
 18 19  1  0
 19 20  2  0
 20 21  1  0
 21 22  2  0
 22 23  1  0
 23 24  2  0
 14 25  1  0
 25 26  1  0
 26 27  2  0
 26 28  1  0
 28 29  1  0
 29 30  1  0
 30 31  2  0
 31 32  1  0
 32 33  2  0
 33 34  1  0
 34 35  2  0
 10 36  1  0
 36 37  2  0
 37  7  1  0
 24 16  1  0
 35 30  1  0
 24 19  1  0
  1 38  1  0
  1 39  1  0
  3 40  1  0
  3 41  1  0
  8 42  1  0
  9 43  1  0
 11 44  1  0
 14 45  1  6
 15 46  1  0
 15 47  1  0
 17 48  1  0
 18 49  1  0
 20 50  1  0
 21 51  1  0
 22 52  1  0
 23 53  1  0
 29 54  1  0
 29 55  1  0
 31 56  1  0
 32 57  1  0
 33 58  1  0
 34 59  1  0
 35 60  1  0
 36 61  1  0
 37 62  1  0
M  CHG  1  25  -1
M  END
>  <UniqueID>  (87) 
85

>  <SMILES>  (87) 
NC(N)=NC(=O)c1ccc(NC(=O)[C@H](Cc2c[nH]c3ccccc23)[N-]C(=O)OCc2ccccc2)cc1

>  <Energy>  (87) 
95.81399329599459

>  <Genealogy>  (87) 
NC(N)=NC(=O)c1ccc(NC(=O)C(Cc2c[nH]c3ccccc23)[N-]C(=O)OCc2ccccc2)cc1 (protonated)
NC(N)=NC(=O)c1ccc(NC(=O)[C@H](Cc2c[nH]c3ccccc23)[N-]C(=O)OCc2ccccc2)cc1 (chirality)
NC(N)=NC(=O)c1ccc(NC(=O)[C@H](Cc2c[nH]c3ccccc23)[N-]C(=O)OCc2ccccc2)cc1 (3D coordinates assigned)
NC(N)=NC(=O)c1ccc(NC(=O)[C@H](Cc2c[nH]c3ccccc23)[N-]C(=O)OCc2ccccc2)cc1 (optimized conformer: 95.81399329599459 kcal/mol)

>  <smiles>  (87) 
NC(N)=NC(=O)c1ccc(NC(=O)C(Cc2c[nH]c3ccccc23)NC(=O)OCc2ccccc2)cc1

>  <score_type>  (87) 
oracle

>  <origin>  (87) 
adg

>  <m_score__min__energy>  (87) 
-10.93

>  <m_primary>  (87) 
energy

$$$$
87:0
     RDKit          3D

 43 47  0  0  0  0  0  0  0  0999 V2000
   67.4896   32.1306   49.9458 H   0  0  0  0  0  0  0  0  0  0  0  0
   66.5690   32.6360   50.2730 C   0  0  0  0  0  0  0  0  0  0  0  0
   65.5430   32.8090   49.3990 N   0  0  0  0  0  0  0  0  0  0  0  0
   64.3820   33.4310   49.7520 C   0  0  0  0  0  0  0  0  0  0  0  0
   63.2980   33.5710   48.7470 C   0  0  0  0  0  0  0  0  0  0  0  0
   63.6040   33.4670   47.3650 C   0  0  0  0  0  0  0  0  0  0  0  0
   64.6434   33.2881   47.0525 H   0  0  0  0  0  0  0  0  0  0  0  0
   62.6000   33.5890   46.3900 C   0  0  0  0  0  0  0  0  0  0  0  0
   62.8439   33.4998   45.3211 H   0  0  0  0  0  0  0  0  0  0  0  0
   61.2900   33.8250   46.8010 C   0  0  0  0  0  0  0  0  0  0  0  0
   60.2320   33.9410   45.9580 N   0  0  0  0  0  0  0  0  0  0  0  0
   59.0870   34.1720   46.6470 C   0  0  0  0  0  0  0  0  0  0  0  0
   57.7390   34.1740   46.0030 C   0  0  0  0  0  0  0  0  0  0  0  0
   57.5156   35.1806   45.6197 H   0  0  0  0  0  0  0  0  0  0  0  0
   56.9755   33.8894   46.7420 H   0  0  0  0  0  0  0  0  0  0  0  0
   57.7340   33.1970   44.8740 C   0  0  0  0  0  0  0  0  0  0  0  0
   58.3930   33.3640   43.7120 N   0  0  0  0  0  0  0  0  0  0  0  0
   58.1040   32.3070   42.9670 N   0  0  0  0  0  0  0  0  0  0  0  0
   57.2810   31.5390   43.7080 C   0  0  0  0  0  0  0  0  0  0  0  0
   56.6660   30.2590   43.2440 C   0  0  0  0  0  0  0  0  0  0  0  0
   57.3768   29.7216   42.5990 H   0  0  0  0  0  0  0  0  0  0  0  0
   55.7500   30.4736   42.6741 H   0  0  0  0  0  0  0  0  0  0  0  0
   56.3330   29.4160   44.4330 C   0  0  0  0  0  0  0  0  0  0  0  0
   55.1490   29.3870   44.8640 O   0  0  0  0  0  0  0  0  0  0  0  0
   57.3830   28.6850   45.0870 N   0  0  0  0  0  0  0  0  0  0  0  0
   58.3600   29.1740   45.7940 C   0  0  0  0  0  0  0  0  0  0  0  0
   59.3830   29.8490   45.2260 N   0  0  0  0  0  0  0  0  0  0  0  0
   60.2740   30.2890   46.1520 C   0  0  0  0  0  0  0  0  0  0  0  0
   61.1783   30.8543   45.8825 H   0  0  0  0  0  0  0  0  0  0  0  0
   59.9550   29.9700   47.4650 C   0  0  0  0  0  0  0  0  0  0  0  0
   60.9820   30.4160   49.0070 Br  0  0  0  0  0  0  0  0  0  0  0  0
   58.5120   29.1080   47.4750 S   0  0  0  0  0  0  0  0  0  0  0  0
   57.0620   32.0720   44.8830 O   0  0  0  0  0  0  0  0  0  0  0  0
   59.3420   34.2010   48.3220 S   0  0  0  0  0  0  0  0  0  0  0  0
   60.9900   33.9410   48.1460 C   0  0  0  0  0  0  0  0  0  0  0  0
   61.9610   33.8210   49.1360 C   0  0  0  0  0  0  0  0  0  0  0  0
   61.6943   33.9185   50.1987 H   0  0  0  0  0  0  0  0  0  0  0  0
   64.2360   33.9010   51.0720 C   0  0  0  0  0  0  0  0  0  0  0  0
   63.3052   34.3980   51.3828 H   0  0  0  0  0  0  0  0  0  0  0  0
   65.2800   33.7320   51.9830 C   0  0  0  0  0  0  0  0  0  0  0  0
   65.1748   34.0984   53.0148 H   0  0  0  0  0  0  0  0  0  0  0  0
   66.4570   33.0980   51.5840 C   0  0  0  0  0  0  0  0  0  0  0  0
   67.2861   32.9643   52.2945 H   0  0  0  0  0  0  0  0  0  0  0  0
  1  2  1  0
  2  3  2  0
  3  4  1  0
  4  5  1  0
  5  6  2  0
  6  7  1  0
  6  8  1  0
  8  9  1  0
  8 10  2  0
 10 11  1  0
 11 12  2  0
 12 13  1  0
 13 14  1  0
 13 15  1  0
 13 16  1  0
 16 17  2  0
 17 18  1  0
 18 19  2  0
 19 20  1  0
 20 21  1  0
 20 22  1  0
 20 23  1  0
 23 24  2  0
 23 25  1  0
 25 26  2  0
 26 27  1  0
 27 28  1  0
 28 29  1  0
 28 30  2  0
 30 31  1  0
 30 32  1  0
 19 33  1  0
 12 34  1  0
 34 35  1  0
 35 36  2  0
 36 37  1  0
  4 38  2  0
 38 39  1  0
 38 40  1  0
 40 41  1  0
 40 42  2  0
 42 43  1  0
 42  2  1  0
 36  5  1  0
 35 10  1  0
 33 16  1  0
 32 26  1  0
M  CHG  1  27  -1
M  END
>  <UniqueID>  (88) 
86

>  <SMILES>  (88) 
O=C(Cc1nnc(Cc2nc3ccc(-c4ccccn4)cc3s2)o1)/N=c1/[n-]cc(Br)s1

>  <Energy>  (88) 
147.1593572703598

>  <Genealogy>  (88) 
O=C(Cc1nnc(Cc2nc3ccc(-c4ccccn4)cc3s2)o1)N=c1[n-]cc(Br)s1 (protonated)
O=C(Cc1nnc(Cc2nc3ccc(-c4ccccn4)cc3s2)o1)/N=c1/[n-]cc(Br)s1 (cis-trans isomerization)
O=C(Cc1nnc(Cc2nc3ccc(-c4ccccn4)cc3s2)o1)/N=c1/[n-]cc(Br)s1 (3D coordinates assigned)
O=C(Cc1nnc(Cc2nc3ccc(-c4ccccn4)cc3s2)o1)/N=c1/[n-]cc(Br)s1 (optimized conformer: 147.1593572703598 kcal/mol)

>  <smiles>  (88) 
O=C(Cc1nnc(Cc2nc3ccc(-c4ccccn4)cc3s2)o1)N=c1[nH]cc(Br)s1

>  <score_type>  (88) 
oracle

>  <origin>  (88) 
adg

>  <m_score__min__energy>  (88) 
-13

>  <m_primary>  (88) 
energy

$$$$
88:0
     RDKit          3D

 48 50  0  0  0  0  0  0  0  0999 V2000
   59.6520   22.7110   45.2790 O   0  0  0  0  0  0  0  0  0  0  0  0
   59.5200   23.9030   45.6660 C   0  0  0  0  0  0  0  0  0  0  0  0
   58.1780   24.5260   45.7790 C   0  0  0  0  0  0  0  0  0  0  0  0
   58.0420   25.9120   45.5750 C   0  0  0  0  0  0  0  0  0  0  0  0
   56.7880   26.5460   45.6500 C   0  0  0  0  0  0  0  0  0  0  0  0
   56.6960   28.0130   45.4230 C   0  0  0  0  0  0  0  0  0  0  0  0
   55.5710   28.5480   45.2220 O   0  0  0  0  0  0  0  0  0  0  0  0
   57.8780   28.8220   45.3730 N   0  0  0  0  0  0  0  0  0  0  0  0
   57.9420   30.1780   44.9110 C   0  0  0  0  0  0  0  0  0  0  0  0
   58.5690   31.1330   45.7230 C   0  0  0  0  0  0  0  0  0  0  0  0
   58.6430   32.4740   45.3200 C   0  0  0  0  0  0  0  0  0  0  0  0
   59.4260   33.6780   46.3390 S   0  0  0  0  0  0  0  0  0  0  0  0
   58.3920   34.2630   47.2620 O   0  0  0  0  0  0  0  0  0  0  0  0
   59.9870   34.7820   45.4860 O   0  0  0  0  0  0  0  0  0  0  0  0
   60.6960   32.9030   47.2620 N   0  0  0  0  0  0  0  0  0  0  0  0
   61.7230   33.8720   47.7080 C   0  0  0  0  0  0  0  0  0  0  0  0
   61.5350   34.3040   49.1740 C   0  0  0  0  0  0  0  0  0  0  0  0
   60.1660   34.3240   49.5070 O   0  0  0  0  0  0  0  0  0  0  0  0
   59.6460   33.0060   49.5370 C   0  0  0  0  0  0  0  0  0  0  0  0
   60.1510   32.1120   48.3800 C   0  0  0  0  0  0  0  0  0  0  0  0
   58.0640   32.8650   44.1080 C   0  0  0  0  0  0  0  0  0  0  0  0
   57.4090   31.9270   43.3060 C   0  0  0  0  0  0  0  0  0  0  0  0
   57.3290   30.5860   43.7070 C   0  0  0  0  0  0  0  0  0  0  0  0
   56.6160   29.6730   42.9320 O   0  0  0  0  0  0  0  0  0  0  0  0
   55.6490   25.7630   45.9250 C   0  0  0  0  0  0  0  0  0  0  0  0
   54.3790   26.3270   45.9810 O   0  0  0  0  0  0  0  0  0  0  0  0
   55.7750   24.3890   46.1380 C   0  0  0  0  0  0  0  0  0  0  0  0
   57.0270   23.7570   46.0810 C   0  0  0  0  0  0  0  0  0  0  0  0
   57.0920   22.2650   46.3130 C   0  0  0  0  0  0  0  0  0  0  0  0
   57.3000   21.9940   47.6730 O   0  0  0  0  0  0  0  0  0  0  0  0
   60.4133   24.4907   45.9240 H   0  0  0  0  0  0  0  0  0  0  0  0
   58.9359   26.5130   45.3520 H   0  0  0  0  0  0  0  0  0  0  0  0
   59.0069   30.8278   46.6848 H   0  0  0  0  0  0  0  0  0  0  0  0
   62.7146   33.4076   47.6023 H   0  0  0  0  0  0  0  0  0  0  0  0
   61.6262   34.7710   47.0815 H   0  0  0  0  0  0  0  0  0  0  0  0
   62.0579   33.5937   49.8314 H   0  0  0  0  0  0  0  0  0  0  0  0
   61.9495   35.3145   49.3049 H   0  0  0  0  0  0  0  0  0  0  0  0
   59.9376   32.5392   50.4894 H   0  0  0  0  0  0  0  0  0  0  0  0
   58.5546   33.0883   49.4269 H   0  0  0  0  0  0  0  0  0  0  0  0
   60.9410   31.4494   48.7632 H   0  0  0  0  0  0  0  0  0  0  0  0
   59.2945   31.5359   47.9999 H   0  0  0  0  0  0  0  0  0  0  0  0
   58.1246   33.9148   43.7852 H   0  0  0  0  0  0  0  0  0  0  0  0
   56.9539   32.2422   42.3554 H   0  0  0  0  0  0  0  0  0  0  0  0
   56.4270   28.7320   43.2580 H   0  0  0  0  0  0  0  0  0  0  0  0
   54.8773   23.7912   46.3543 H   0  0  0  0  0  0  0  0  0  0  0  0
   56.1453   21.8060   45.9919 H   0  0  0  0  0  0  0  0  0  0  0  0
   57.9281   21.8480   45.7324 H   0  0  0  0  0  0  0  0  0  0  0  0
   56.6110   21.3290   47.9370 H   0  0  0  0  0  0  0  0  0  0  0  0
  1  2  2  0
  2  3  1  0
  3  4  2  0
  4  5  1  0
  5  6  1  0
  6  7  2  0
  6  8  1  0
  8  9  1  0
  9 10  2  0
 10 11  1  0
 11 12  1  0
 12 13  2  0
 12 14  2  0
 12 15  1  0
 15 16  1  0
 16 17  1  0
 17 18  1  0
 18 19  1  0
 19 20  1  0
 11 21  2  0
 21 22  1  0
 22 23  2  0
 23 24  1  0
  5 25  2  0
 25 26  1  0
 25 27  1  0
 27 28  2  0
 28 29  1  0
 29 30  1  0
 28  3  1  0
 23  9  1  0
 20 15  1  0
  2 31  1  0
  4 32  1  0
 10 33  1  0
 16 34  1  0
 16 35  1  0
 17 36  1  0
 17 37  1  0
 19 38  1  0
 19 39  1  0
 20 40  1  0
 20 41  1  0
 21 42  1  0
 22 43  1  0
 24 44  1  0
 27 45  1  0
 29 46  1  0
 29 47  1  0
 30 48  1  0
M  CHG  2   8  -1  26  -1
M  END
>  <UniqueID>  (89) 
87

>  <SMILES>  (89) 
O=Cc1cc(C(=O)[N-]c2cc(S(=O)(=O)N3CCOCC3)ccc2O)c([O-])cc1CO

>  <Energy>  (89) 
70.80018598087044

>  <Genealogy>  (89) 
O=Cc1cc(C(=O)[N-]c2cc(S(=O)(=O)N3CCOCC3)ccc2O)c([O-])cc1CO (protonated)
O=Cc1cc(C(=O)[N-]c2cc(S(=O)(=O)N3CCOCC3)ccc2O)c([O-])cc1CO (3D coordinates assigned)
O=Cc1cc(C(=O)[N-]c2cc(S(=O)(=O)N3CCOCC3)ccc2O)c([O-])cc1CO (nonaromatic ring conformer: 70.80018598087044 kcal/mol)

>  <smiles>  (89) 
O=Cc1cc(C(=O)Nc2cc(S(=O)(=O)N3CCOCC3)ccc2O)c(O)cc1CO

>  <score_type>  (89) 
oracle

>  <origin>  (89) 
adg

>  <m_score__min__energy>  (89) 
-14.23

>  <m_primary>  (89) 
energy

$$$$
89:0
     RDKit          3D

 46 48  0  0  0  0  0  0  0  0999 V2000
   58.4970   29.3330   49.1620 O   0  0  0  0  0  0  0  0  0  0  0  0
   58.9660   30.0020   48.2020 C   0  0  0  0  0  0  0  0  0  0  0  0
   59.5980   29.2910   47.0760 C   0  0  0  0  0  0  0  0  0  0  0  0
   59.0190   29.0890   45.9270 N   0  0  0  0  0  0  0  0  0  0  0  0
   57.7680   28.4210   45.7080 C   0  0  0  0  0  0  0  0  0  0  0  0
   56.7050   29.0960   45.6320 O   0  0  0  0  0  0  0  0  0  0  0  0
   57.7130   26.9410   45.7010 C   0  0  0  0  0  0  0  0  0  0  0  0
   58.9090   26.2200   45.5280 C   0  0  0  0  0  0  0  0  0  0  0  0
   58.9150   24.8240   45.5700 C   0  0  0  0  0  0  0  0  0  0  0  0
   57.7280   24.1250   45.7860 C   0  0  0  0  0  0  0  0  0  0  0  0
   57.7400   22.2170   45.8490 Br  0  0  0  0  0  0  0  0  0  0  0  0
   56.5280   24.8220   45.9430 C   0  0  0  0  0  0  0  0  0  0  0  0
   56.5020   26.2210   45.8830 C   0  0  0  0  0  0  0  0  0  0  0  0
   55.2560   26.8470   45.9650 O   0  0  0  0  0  0  0  0  0  0  0  0
   59.0190   31.4310   48.2710 N   0  0  0  0  0  0  0  0  0  0  0  0
   58.9010   32.3490   47.1750 C   0  0  0  0  0  0  0  0  0  0  0  0
   57.7250   32.4150   46.4050 C   0  0  0  0  0  0  0  0  0  0  0  0
   57.6510   33.2710   45.3030 C   0  0  0  0  0  0  0  0  0  0  0  0
   58.7490   34.0560   44.9520 C   0  0  0  0  0  0  0  0  0  0  0  0
   59.9280   33.9870   45.6980 C   0  0  0  0  0  0  0  0  0  0  0  0
   60.0140   33.1350   46.8110 C   0  0  0  0  0  0  0  0  0  0  0  0
   61.2320   33.0800   47.5780 N   0  0  0  0  0  0  0  0  0  0  0  0
   62.1940   31.9910   47.3660 C   0  0  0  0  0  0  0  0  0  0  0  0
   63.6160   32.5500   47.1920 C   0  0  0  0  0  0  0  0  0  0  0  0
   63.9100   33.7790   48.0810 C   0  0  0  0  0  0  0  0  0  0  0  0
   62.8890   33.9550   49.2110 C   0  0  0  0  0  0  0  0  0  0  0  0
   61.4690   34.0710   48.6380 C   0  0  0  0  0  0  0  0  0  0  0  0
   60.6199   28.9081   47.2145 H   0  0  0  0  0  0  0  0  0  0  0  0
   59.8506   26.7625   45.3576 H   0  0  0  0  0  0  0  0  0  0  0  0
   59.8581   24.2748   45.4324 H   0  0  0  0  0  0  0  0  0  0  0  0
   55.5942   24.2668   46.1155 H   0  0  0  0  0  0  0  0  0  0  0  0
   55.1300   27.8500   45.9570 H   0  0  0  0  0  0  0  0  0  0  0  0
   56.8601   31.7899   46.6718 H   0  0  0  0  0  0  0  0  0  0  0  0
   56.7252   33.3258   44.7114 H   0  0  0  0  0  0  0  0  0  0  0  0
   58.6865   34.7310   44.0857 H   0  0  0  0  0  0  0  0  0  0  0  0
   60.7933   34.6031   45.4122 H   0  0  0  0  0  0  0  0  0  0  0  0
   62.1745   31.3173   48.2353 H   0  0  0  0  0  0  0  0  0  0  0  0
   61.9143   31.4439   46.4536 H   0  0  0  0  0  0  0  0  0  0  0  0
   64.3349   31.7571   47.4458 H   0  0  0  0  0  0  0  0  0  0  0  0
   63.7080   32.8786   46.1463 H   0  0  0  0  0  0  0  0  0  0  0  0
   64.9089   33.6597   48.5258 H   0  0  0  0  0  0  0  0  0  0  0  0
   63.8513   34.6715   47.4407 H   0  0  0  0  0  0  0  0  0  0  0  0
   62.9386   33.0853   49.8827 H   0  0  0  0  0  0  0  0  0  0  0  0
   63.1259   34.8753   49.7650 H   0  0  0  0  0  0  0  0  0  0  0  0
   60.7426   33.9085   49.4479 H   0  0  0  0  0  0  0  0  0  0  0  0
   61.3536   35.0749   48.2034 H   0  0  0  0  0  0  0  0  0  0  0  0
  1  2  2  0
  2  3  1  0
  3  4  2  3
  4  5  1  0
  5  6  2  0
  5  7  1  0
  7  8  2  0
  8  9  1  0
  9 10  2  0
 10 11  1  0
 10 12  1  0
 12 13  2  0
 13 14  1  0
  2 15  1  0
 15 16  1  0
 16 17  2  0
 17 18  1  0
 18 19  2  0
 19 20  1  0
 20 21  2  0
 21 22  1  0
 22 23  1  0
 23 24  1  0
 24 25  1  0
 25 26  1  0
 26 27  1  0
 13  7  1  0
 21 16  1  0
 27 22  1  0
  3 28  1  0
  8 29  1  0
  9 30  1  0
 12 31  1  0
 14 32  1  0
 17 33  1  0
 18 34  1  0
 19 35  1  0
 20 36  1  0
 23 37  1  0
 23 38  1  0
 24 39  1  0
 24 40  1  0
 25 41  1  0
 25 42  1  0
 26 43  1  0
 26 44  1  0
 27 45  1  0
 27 46  1  0
M  CHG  1  15  -1
M  END
>  <UniqueID>  (90) 
88

>  <SMILES>  (90) 
O=C(C=NC(=O)c1ccc(Br)cc1O)[N-]c1ccccc1N1CCCCC1

>  <Energy>  (90) 
65.61951979603118

>  <Genealogy>  (90) 
O=C(C=NC(=O)c1ccc(Br)cc1O)[N-]c1ccccc1N1CCCCC1 (protonated)
O=C(C=NC(=O)c1ccc(Br)cc1O)[N-]c1ccccc1N1CCCCC1 (3D coordinates assigned)
O=C(C=NC(=O)c1ccc(Br)cc1O)[N-]c1ccccc1N1CCCCC1 (nonaromatic ring conformer: 65.61951979603118 kcal/mol)

>  <smiles>  (90) 
O=C(C=NC(=O)c1ccc(Br)cc1O)Nc1ccccc1N1CCCCC1

>  <score_type>  (90) 
oracle

>  <origin>  (90) 
adg

>  <m_score__min__energy>  (90) 
-10.42

>  <m_primary>  (90) 
energy

$$$$
