0:0
     RDKit          3D

 40 41  0  0  0  0  0  0  0  0999 V2000
   63.4030   33.7310   49.3390 C   0  0  0  0  0  0  0  0  0  0  0  0
   62.0710   33.8260   48.6420 C   0  0  0  0  0  0  0  0  0  0  0  0
   60.8940   33.8620   49.4090 C   0  0  0  0  0  0  0  0  0  0  0  0
   59.6460   33.9490   48.7900 C   0  0  0  0  0  0  0  0  0  0  0  0
   59.5560   34.0000   47.3970 C   0  0  0  0  0  0  0  0  0  0  0  0
   57.9510   34.1190   46.6060 S   0  0  0  0  0  0  0  0  0  0  0  0
   58.6490   34.1310   44.9220 C   0  0  0  0  0  0  0  0  0  0  0  0
   58.1460   32.9170   44.1420 C   0  0  0  0  0  0  0  0  0  0  0  0
   58.4470   31.5900   44.8500 C   0  0  0  0  0  0  0  0  0  0  0  0
   57.1870   30.8640   45.1550 N   0  0  0  0  0  0  0  0  0  0  0  0
   57.4470   29.4770   45.5770 C   0  0  0  0  0  0  0  0  0  0  0  0
   57.3780   28.5890   44.3390 C   0  0  0  0  0  0  0  0  0  0  0  0
   56.7290   29.4430   43.2640 C   0  0  0  0  0  0  0  0  0  0  0  0
   56.3270   30.7260   43.9710 C   0  0  0  0  0  0  0  0  0  0  0  0
   60.7180   33.9560   46.6210 C   0  0  0  0  0  0  0  0  0  0  0  0
   61.9810   33.8650   47.2300 C   0  0  0  0  0  0  0  0  0  0  0  0
   63.2160   33.8290   46.3660 C   0  0  0  0  0  0  0  0  0  0  0  0
   63.2486   33.7420   50.4281 H   0  0  0  0  0  0  0  0  0  0  0  0
   63.9027   32.7949   49.0490 H   0  0  0  0  0  0  0  0  0  0  0  0
   64.0305   34.5867   49.0490 H   0  0  0  0  0  0  0  0  0  0  0  0
   60.9568   33.8213   50.5065 H   0  0  0  0  0  0  0  0  0  0  0  0
   58.7314   33.9775   49.4005 H   0  0  0  0  0  0  0  0  0  0  0  0
   58.3385   35.0510   44.4050 H   0  0  0  0  0  0  0  0  0  0  0  0
   59.7465   34.0920   44.9845 H   0  0  0  0  0  0  0  0  0  0  0  0
   57.0573   33.0080   44.0137 H   0  0  0  0  0  0  0  0  0  0  0  0
   58.6708   32.9034   43.1753 H   0  0  0  0  0  0  0  0  0  0  0  0
   59.0751   30.9660   44.1972 H   0  0  0  0  0  0  0  0  0  0  0  0
   58.9722   31.8017   45.7931 H   0  0  0  0  0  0  0  0  0  0  0  0
   58.4457   29.4060   46.0325 H   0  0  0  0  0  0  0  0  0  0  0  0
   56.7018   29.1567   46.3200 H   0  0  0  0  0  0  0  0  0  0  0  0
   58.3878   28.2822   44.0290 H   0  0  0  0  0  0  0  0  0  0  0  0
   56.8077   27.6677   44.5284 H   0  0  0  0  0  0  0  0  0  0  0  0
   57.4434   29.6549   42.4548 H   0  0  0  0  0  0  0  0  0  0  0  0
   55.8680   28.9396   42.8000 H   0  0  0  0  0  0  0  0  0  0  0  0
   56.4704   31.5858   43.3000 H   0  0  0  0  0  0  0  0  0  0  0  0
   55.2670   30.6926   44.2629 H   0  0  0  0  0  0  0  0  0  0  0  0
   60.6429   33.9929   45.5242 H   0  0  0  0  0  0  0  0  0  0  0  0
   64.1104   33.8029   47.0058 H   0  0  0  0  0  0  0  0  0  0  0  0
   63.1931   32.9311   45.7309 H   0  0  0  0  0  0  0  0  0  0  0  0
   63.2455   34.7267   45.7309 H   0  0  0  0  0  0  0  0  0  0  0  0
  1  2  1  0
  2  3  2  0
  3  4  1  0
  4  5  2  0
  5  6  1  0
  6  7  1  0
  7  8  1  0
  8  9  1  0
  9 10  1  0
 10 11  1  0
 11 12  1  0
 12 13  1  0
 13 14  1  0
  5 15  1  0
 15 16  2  0
 16 17  1  0
 16  2  1  0
 14 10  1  0
  1 18  1  0
  1 19  1  0
  1 20  1  0
  3 21  1  0
  4 22  1  0
  7 23  1  0
  7 24  1  0
  8 25  1  0
  8 26  1  0
  9 27  1  0
  9 28  1  0
 11 29  1  0
 11 30  1  0
 12 31  1  0
 12 32  1  0
 13 33  1  0
 13 34  1  0
 14 35  1  0
 14 36  1  0
 15 37  1  0
 17 38  1  0
 17 39  1  0
 17 40  1  0
M  END
>  <UniqueID>  (1) 
1

>  <SMILES>  (1) 
Cc1ccc(SCCCN2CCCC2)cc1C

>  <Energy>  (1) 
35.74111970866463

>  <Genealogy>  (1) 
Cc1ccc(SCCCN2CCCC2)cc1C (3D coordinates assigned)
Cc1ccc(SCCCN2CCCC2)cc1C (nonaromatic ring conformer: 35.74111970866463 kcal/mol)

>  <smiles>  (1) 
Cc1ccc(SCCCN2CCCC2)cc1C

>  <score_type>  (1) 
oracle

>  <origin>  (1) 
adg

>  <m_score__min__energy>  (1) 
-7.3799999999999999

>  <m_primary>  (1) 
energy

$$$$
1:0
     RDKit          3D

 47 50  0  0  0  0  0  0  0  0999 V2000
   55.1490   30.5210   44.4580 O   0  0  0  0  0  0  0  0  0  0  0  0
   56.3580   30.2220   44.6550 C   0  0  0  0  0  0  0  0  0  0  0  0
   57.3120   31.2520   44.9460 N   0  0  0  0  0  0  0  0  0  0  0  0
   58.1420   31.2700   46.1450 C   0  0  0  0  0  0  0  0  0  0  0  0
   58.9070   29.9820   46.2690 C   0  0  0  0  0  0  0  0  0  0  0  0
   59.8150   29.5890   45.2730 C   0  0  0  0  0  0  0  0  0  0  0  0
   60.5380   28.4000   45.4080 C   0  0  0  0  0  0  0  0  0  0  0  0
   60.3590   27.5950   46.5370 C   0  0  0  0  0  0  0  0  0  0  0  0
   61.0600   26.4410   46.6650 F   0  0  0  0  0  0  0  0  0  0  0  0
   59.4610   27.9820   47.5350 C   0  0  0  0  0  0  0  0  0  0  0  0
   58.7390   29.1730   47.4060 C   0  0  0  0  0  0  0  0  0  0  0  0
   56.7820   28.8130   44.5720 C   0  0  0  0  0  0  0  0  0  0  0  0
   57.4400   28.3130   43.4370 C   0  0  0  0  0  0  0  0  0  0  0  0
   57.8380   26.9740   43.3970 C   0  0  0  0  0  0  0  0  0  0  0  0
   58.4330   26.5360   42.3740 O   0  0  0  0  0  0  0  0  0  0  0  0
   57.5700   26.1330   44.4930 C   0  0  0  0  0  0  0  0  0  0  0  0
   57.9490   24.7780   44.5010 C   0  0  0  0  0  0  0  0  0  0  0  0
   57.6710   23.9740   45.6160 C   0  0  0  0  0  0  0  0  0  0  0  0
   58.1660   22.2850   45.6240 S   0  0  0  0  0  0  0  0  0  0  0  0
   59.6660   22.2170   45.5850 O   0  0  0  0  0  0  0  0  0  0  0  0
   57.6110   21.5620   44.4280 O   0  0  0  0  0  0  0  0  0  0  0  0
   57.6000   21.5070   47.0680 N   0  0  0  0  0  0  0  0  0  0  0  0
   56.3160   21.7160   47.6690 C   0  0  0  0  0  0  0  0  0  0  0  0
   55.1780   21.6860   46.8510 C   0  0  0  0  0  0  0  0  0  0  0  0
   53.9070   21.8770   47.3990 C   0  0  0  0  0  0  0  0  0  0  0  0
   53.7610   22.0990   48.7720 C   0  0  0  0  0  0  0  0  0  0  0  0
   52.5260   22.2830   49.3020 F   0  0  0  0  0  0  0  0  0  0  0  0
   54.8890   22.1320   49.5960 C   0  0  0  0  0  0  0  0  0  0  0  0
   56.1620   21.9440   49.0500 C   0  0  0  0  0  0  0  0  0  0  0  0
   57.0040   24.5200   46.7210 C   0  0  0  0  0  0  0  0  0  0  0  0
   56.6240   25.8650   46.7210 C   0  0  0  0  0  0  0  0  0  0  0  0
   56.9040   26.6740   45.6150 C   0  0  0  0  0  0  0  0  0  0  0  0
   56.5350   27.9820   45.6220 N   0  0  0  0  0  0  0  0  0  0  0  0
   58.8510   32.1087   46.0830 H   0  0  0  0  0  0  0  0  0  0  0  0
   57.4948   31.3882   47.0266 H   0  0  0  0  0  0  0  0  0  0  0  0
   59.9582   30.2191   44.3828 H   0  0  0  0  0  0  0  0  0  0  0  0
   61.2487   28.0974   44.6248 H   0  0  0  0  0  0  0  0  0  0  0  0
   59.3216   27.3489   48.4237 H   0  0  0  0  0  0  0  0  0  0  0  0
   58.0376   29.4774   48.1968 H   0  0  0  0  0  0  0  0  0  0  0  0
   57.6418   28.9738   42.5811 H   0  0  0  0  0  0  0  0  0  0  0  0
   58.4650   24.3479   43.6299 H   0  0  0  0  0  0  0  0  0  0  0  0
   55.2864   21.5109   45.7704 H   0  0  0  0  0  0  0  0  0  0  0  0
   53.0197   21.8527   46.7493 H   0  0  0  0  0  0  0  0  0  0  0  0
   54.7751   22.3062   50.6761 H   0  0  0  0  0  0  0  0  0  0  0  0
   57.0474   21.9743   49.7020 H   0  0  0  0  0  0  0  0  0  0  0  0
   56.7786   23.8873   47.5921 H   0  0  0  0  0  0  0  0  0  0  0  0
   56.1036   26.2882   47.5928 H   0  0  0  0  0  0  0  0  0  0  0  0
  1  2  2  0
  2  3  1  0
  3  4  1  0
  4  5  1  0
  5  6  2  0
  6  7  1  0
  7  8  2  0
  8  9  1  0
  8 10  1  0
 10 11  2  0
  2 12  1  0
 12 13  2  0
 13 14  1  0
 14 15  2  0
 14 16  1  0
 16 17  2  0
 17 18  1  0
 18 19  1  0
 19 20  2  0
 19 21  2  0
 19 22  1  0
 22 23  1  0
 23 24  2  0
 24 25  1  0
 25 26  2  0
 26 27  1  0
 26 28  1  0
 28 29  2  0
 18 30  2  0
 30 31  1  0
 31 32  2  0
 32 33  1  0
 11  5  1  0
 33 12  1  0
 32 16  1  0
 29 23  1  0
  4 34  1  0
  4 35  1  0
  6 36  1  0
  7 37  1  0
 10 38  1  0
 11 39  1  0
 13 40  1  0
 17 41  1  0
 24 42  1  0
 25 43  1  0
 28 44  1  0
 29 45  1  0
 30 46  1  0
 31 47  1  0
M  CHG  3   3  -1  22  -1  33  -1
M  END
>  <UniqueID>  (2) 
2

>  <SMILES>  (2) 
O=C([N-]Cc1ccc(F)cc1)c1cc(=O)c2cc(S(=O)(=O)[N-]c3ccc(F)cc3)ccc2[n-]1

>  <Energy>  (2) 
56.918375123631606

>  <Genealogy>  (2) 
O=C([N-]Cc1ccc(F)cc1)c1cc(=O)c2cc(S(=O)(=O)[N-]c3ccc(F)cc3)ccc2[n-]1 (protonated)
O=C([N-]Cc1ccc(F)cc1)c1cc(=O)c2cc(S(=O)(=O)[N-]c3ccc(F)cc3)ccc2[n-]1 (3D coordinates assigned)
O=C([N-]Cc1ccc(F)cc1)c1cc(=O)c2cc(S(=O)(=O)[N-]c3ccc(F)cc3)ccc2[n-]1 (optimized conformer: 56.918375123631606 kcal/mol)

>  <smiles>  (2) 
O=C(NCc1ccc(F)cc1)c1cc(=O)c2cc(S(=O)(=O)Nc3ccc(F)cc3)ccc2[nH]1

>  <score_type>  (2) 
oracle

>  <origin>  (2) 
adg

>  <m_score__min__energy>  (2) 
-13.289999999999999

>  <m_primary>  (2) 
energy

$$$$
2:0
     RDKit          3D

 37 38  0  0  0  0  0  0  0  0999 V2000
   63.4260   31.9780   47.8520 C   0  0  0  0  0  0  0  0  0  0  0  0
   62.2290   33.2870   47.7240 S   0  0  0  0  0  0  0  0  0  0  0  0
   62.5540   34.1850   46.5640 O   0  0  0  0  0  0  0  0  0  0  0  0
   62.2640   34.0990   48.9880 O   0  0  0  0  0  0  0  0  0  0  0  0
   60.6390   32.6210   47.5340 N   0  0  0  0  0  0  0  0  0  0  0  0
   59.6830   32.9870   46.5270 C   0  0  0  0  0  0  0  0  0  0  0  0
   59.0120   32.0250   45.7460 C   0  0  0  0  0  0  0  0  0  0  0  0
   58.0910   32.4230   44.7630 C   0  0  0  0  0  0  0  0  0  0  0  0
   57.3630   31.4020   43.9300 C   0  0  0  0  0  0  0  0  0  0  0  0
   56.1800   30.9250   44.6380 N   0  0  0  0  0  0  0  0  0  0  0  0
   55.5200   29.6960   44.3290 C   0  0  0  0  0  0  0  0  0  0  0  0
   54.9250   29.5780   43.2250 O   0  0  0  0  0  0  0  0  0  0  0  0
   55.5830   28.5920   45.2390 N   0  0  0  0  0  0  0  0  0  0  0  0
   56.7740   27.8790   45.5960 C   0  0  0  0  0  0  0  0  0  0  0  0
   58.0120   28.5220   45.4560 C   0  0  0  0  0  0  0  0  0  0  0  0
   59.1910   27.8740   45.8320 C   0  0  0  0  0  0  0  0  0  0  0  0
   59.1420   26.5850   46.3650 C   0  0  0  0  0  0  0  0  0  0  0  0
   57.9120   25.9440   46.5340 C   0  0  0  0  0  0  0  0  0  0  0  0
   57.8670   24.7020   47.0790 F   0  0  0  0  0  0  0  0  0  0  0  0
   56.7270   26.5880   46.1600 C   0  0  0  0  0  0  0  0  0  0  0  0
   55.5390   25.9780   46.4010 F   0  0  0  0  0  0  0  0  0  0  0  0
   57.8340   33.7880   44.5700 C   0  0  0  0  0  0  0  0  0  0  0  0
   58.4930   34.7440   45.3430 C   0  0  0  0  0  0  0  0  0  0  0  0
   59.4170   34.3500   46.3190 C   0  0  0  0  0  0  0  0  0  0  0  0
   60.0760   35.3080   47.0880 O   0  0  0  0  0  0  0  0  0  0  0  0
   63.6224   31.7632   48.9128 H   0  0  0  0  0  0  0  0  0  0  0  0
   63.0352   31.0745   47.3612 H   0  0  0  0  0  0  0  0  0  0  0  0
   64.3608   32.2867   47.3612 H   0  0  0  0  0  0  0  0  0  0  0  0
   59.2108   30.9552   45.9072 H   0  0  0  0  0  0  0  0  0  0  0  0
   57.0565   31.8611   42.9785 H   0  0  0  0  0  0  0  0  0  0  0  0
   58.0336   30.5515   43.7378 H   0  0  0  0  0  0  0  0  0  0  0  0
   58.0551   29.5425   45.0478 H   0  0  0  0  0  0  0  0  0  0  0  0
   60.1596   28.3804   45.7078 H   0  0  0  0  0  0  0  0  0  0  0  0
   60.0724   26.0733   46.6523 H   0  0  0  0  0  0  0  0  0  0  0  0
   57.1096   34.1062   43.8058 H   0  0  0  0  0  0  0  0  0  0  0  0
   58.2859   35.8128   45.1852 H   0  0  0  0  0  0  0  0  0  0  0  0
   60.8870   35.0720   47.6480 H   0  0  0  0  0  0  0  0  0  0  0  0
  1  2  1  0
  2  3  2  0
  2  4  2  0
  2  5  1  0
  5  6  1  0
  6  7  2  0
  7  8  1  0
  8  9  1  0
  9 10  1  0
 10 11  1  0
 11 12  2  0
 11 13  1  0
 13 14  1  0
 14 15  2  0
 15 16  1  0
 16 17  2  0
 17 18  1  0
 18 19  1  0
 18 20  2  0
 20 21  1  0
  8 22  2  0
 22 23  1  0
 23 24  2  0
 24 25  1  0
 24  6  1  0
 20 14  1  0
  1 26  1  0
  1 27  1  0
  1 28  1  0
  7 29  1  0
  9 30  1  0
  9 31  1  0
 15 32  1  0
 16 33  1  0
 17 34  1  0
 22 35  1  0
 23 36  1  0
 25 37  1  0
M  CHG  3   5  -1  10  -1  13  -1
M  END
>  <UniqueID>  (3) 
3

>  <SMILES>  (3) 
CS(=O)(=O)[N-]c1cc(C[N-]C(=O)[N-]c2cccc(F)c2F)ccc1O

>  <Energy>  (3) 
36.57196433873932

>  <Genealogy>  (3) 
CS(=O)(=O)[N-]c1cc(C[N-]C(=O)[N-]c2cccc(F)c2F)ccc1O (protonated)
CS(=O)(=O)[N-]c1cc(C[N-]C(=O)[N-]c2cccc(F)c2F)ccc1O (3D coordinates assigned)
CS(=O)(=O)[N-]c1cc(C[N-]C(=O)[N-]c2cccc(F)c2F)ccc1O (optimized conformer: 36.57196433873932 kcal/mol)

>  <smiles>  (3) 
CS(=O)(=O)Nc1cc(CNC(=O)Nc2cccc(F)c2F)ccc1O

>  <score_type>  (3) 
oracle

>  <origin>  (3) 
adg

>  <m_score__min__energy>  (3) 
-11.699999999999999

>  <m_primary>  (3) 
energy

$$$$
3:0
     RDKit          3D

 63 68  0  0  0  0  0  0  0  0999 V2000
   63.2679   32.6728   46.4754 H   0  0  0  0  0  0  0  0  0  0  0  0
   63.0440   32.7020   47.5520 C   0  0  0  0  0  0  0  0  0  0  0  0
   64.0550   32.6740   48.4550 N   0  0  0  0  0  0  0  0  0  0  0  0
   63.8160   32.7140   49.7950 C   0  0  0  0  0  0  0  0  0  0  0  0
   64.9230   32.6570   50.7240 N   0  0  0  0  0  0  0  0  0  0  0  0
   64.7250   32.1280   52.0840 C   0  0  0  0  0  0  0  0  0  0  0  0
   64.1961   32.8821   52.6853 H   0  0  0  0  0  0  0  0  0  0  0  0
   64.1393   31.2001   52.0066 H   0  0  0  0  0  0  0  0  0  0  0  0
   66.0590   31.7930   52.7690 C   0  0  0  0  0  0  0  0  0  0  0  0
   66.5104   32.7254   53.1390 H   0  0  0  0  0  0  0  0  0  0  0  0
   65.8481   31.0940   53.5918 H   0  0  0  0  0  0  0  0  0  0  0  0
   67.0550   31.1060   51.8100 C   0  0  0  0  0  0  0  0  0  0  0  0
   68.0406   31.1201   52.2982 H   0  0  0  0  0  0  0  0  0  0  0  0
   66.6820   29.6440   51.5910 C   0  0  0  0  0  0  0  0  0  0  0  0
   65.5560   29.0650   52.2120 C   0  0  0  0  0  0  0  0  0  0  0  0
   64.9063   29.6821   52.8501 H   0  0  0  0  0  0  0  0  0  0  0  0
   65.2600   27.7120   52.0220 C   0  0  0  0  0  0  0  0  0  0  0  0
   64.3746   27.2717   52.5039 H   0  0  0  0  0  0  0  0  0  0  0  0
   66.0840   26.9180   51.2230 C   0  0  0  0  0  0  0  0  0  0  0  0
   65.8467   25.8543   51.0739 H   0  0  0  0  0  0  0  0  0  0  0  0
   67.2100   27.4750   50.6130 C   0  0  0  0  0  0  0  0  0  0  0  0
   68.0150   26.7020   49.8440 F   0  0  0  0  0  0  0  0  0  0  0  0
   67.5130   28.8280   50.8000 C   0  0  0  0  0  0  0  0  0  0  0  0
   68.4075   29.2576   50.3253 H   0  0  0  0  0  0  0  0  0  0  0  0
   67.2550   31.8900   50.4780 C   0  0  0  0  0  0  0  0  0  0  0  0
   68.2803   32.2879   50.4574 H   0  0  0  0  0  0  0  0  0  0  0  0
   67.0676   31.1861   49.6538 H   0  0  0  0  0  0  0  0  0  0  0  0
   66.2750   33.0590   50.3100 C   0  0  0  0  0  0  0  0  0  0  0  0
   66.6082   33.9036   50.9310 H   0  0  0  0  0  0  0  0  0  0  0  0
   66.2508   33.3553   49.2509 H   0  0  0  0  0  0  0  0  0  0  0  0
   62.5270   32.7940   50.2390 N   0  0  0  0  0  0  0  0  0  0  0  0
   62.3130   32.8440   51.2600 H   0  0  0  0  0  0  0  0  0  0  0  0
   61.4860   32.8290   49.3670 C   0  0  0  0  0  0  0  0  0  0  0  0
   60.4564   32.9057   49.7466 H   0  0  0  0  0  0  0  0  0  0  0  0
   61.7170   32.7680   47.9880 C   0  0  0  0  0  0  0  0  0  0  0  0
   60.5920   32.8200   47.0310 C   0  0  0  0  0  0  0  0  0  0  0  0
   60.0250   33.9760   46.4970 C   0  0  0  0  0  0  0  0  0  0  0  0
   60.3405   35.0014   46.7400 H   0  0  0  0  0  0  0  0  0  0  0  0
   59.0310   33.6560   45.6370 N   0  0  0  0  0  0  0  0  0  0  0  0
   58.2170   34.5950   44.8700 C   0  0  0  0  0  0  0  0  0  0  0  0
   57.6558   35.2423   45.5600 H   0  0  0  0  0  0  0  0  0  0  0  0
   58.8697   35.2133   44.2362 H   0  0  0  0  0  0  0  0  0  0  0  0
   57.5124   34.0367   44.2362 H   0  0  0  0  0  0  0  0  0  0  0  0
   58.9550   32.3120   45.6230 C   0  0  0  0  0  0  0  0  0  0  0  0
   58.0660   31.5140   44.8990 C   0  0  0  0  0  0  0  0  0  0  0  0
   57.3285   31.9640   44.2181 H   0  0  0  0  0  0  0  0  0  0  0  0
   58.1400   30.1170   45.0650 C   0  0  0  0  0  0  0  0  0  0  0  0
   57.0460   29.0810   44.1550 S   0  0  0  0  0  0  0  0  0  0  0  0
   56.1960   29.8940   43.2180 O   0  0  0  0  0  0  0  0  0  0  0  0
   57.8530   28.0980   43.3550 O   0  0  0  0  0  0  0  0  0  0  0  0
   56.0150   28.2190   45.2510 N   0  0  0  0  0  0  0  0  0  0  0  0
   56.2960   27.0360   45.7030 C   0  0  0  0  0  0  0  0  0  0  0  0
   55.3660   26.1040   46.0050 N   0  0  0  0  0  0  0  0  0  0  0  0
   55.9420   24.9610   46.4630 C   0  0  0  0  0  0  0  0  0  0  0  0
   55.3525   24.0815   46.7612 H   0  0  0  0  0  0  0  0  0  0  0  0
   57.3320   24.9850   46.5270 C   0  0  0  0  0  0  0  0  0  0  0  0
   57.9763   24.1618   46.8692 H   0  0  0  0  0  0  0  0  0  0  0  0
   57.8570   26.4920   45.9900 S   0  0  0  0  0  0  0  0  0  0  0  0
   59.0850   29.5580   45.9570 C   0  0  0  0  0  0  0  0  0  0  0  0
   59.1293   28.4671   46.0915 H   0  0  0  0  0  0  0  0  0  0  0  0
   59.9680   30.3850   46.6730 C   0  0  0  0  0  0  0  0  0  0  0  0
   60.7000   29.9582   47.3744 H   0  0  0  0  0  0  0  0  0  0  0  0
   59.8890   31.7640   46.4680 C   0  0  0  0  0  0  0  0  0  0  0  0
  1  2  1  0
  2  3  2  0
  3  4  1  0
  4  5  1  0
  5  6  1  0
  6  7  1  0
  6  8  1  0
  6  9  1  0
  9 10  1  0
  9 11  1  0
  9 12  1  0
 12 13  1  0
 12 14  1  0
 14 15  2  0
 15 16  1  0
 15 17  1  0
 17 18  1  0
 17 19  2  0
 19 20  1  0
 19 21  1  0
 21 22  1  0
 21 23  2  0
 23 24  1  0
 12 25  1  0
 25 26  1  0
 25 27  1  0
 25 28  1  0
 28 29  1  0
 28 30  1  0
  4 31  2  0
 31 32  1  0
 31 33  1  0
 33 34  1  0
 33 35  2  0
 35 36  1  0
 36 37  2  0
 37 38  1  0
 37 39  1  0
 39 40  1  0
 40 41  1  0
 40 42  1  0
 40 43  1  0
 39 44  1  0
 44 45  2  0
 45 46  1  0
 45 47  1  0
 47 48  1  0
 48 49  2  0
 48 50  2  0
 48 51  1  0
 51 52  2  0
 52 53  1  0
 53 54  1  0
 54 55  1  0
 54 56  2  0
 56 57  1  0
 56 58  1  0
 47 59  2  0
 59 60  1  0
 59 61  1  0
 61 62  1  0
 61 63  2  0
 35  2  1  0
 63 36  1  0
 28  5  1  0
 63 44  1  0
 23 14  1  0
 58 52  1  0
M  CHG  2  31   1  53  -1
M  END
>  <UniqueID>  (4) 
4

>  <SMILES>  (4) 
Cn1cc(-c2cnc(N3CCC(c4cccc(F)c4)CC3)[nH+]c2)c2ccc(S(=O)(=O)/N=c3\[n-]ccs3)cc21

>  <Energy>  (4) 
147.29216688733652

>  <Genealogy>  (4) 
Cn1cc(-c2cnc(N3CCC(c4cccc(F)c4)CC3)[nH+]c2)c2ccc(S(=O)(=O)N=c3[n-]ccs3)cc21 (protonated)
Cn1cc(-c2cnc(N3CCC(c4cccc(F)c4)CC3)[nH+]c2)c2ccc(S(=O)(=O)/N=c3\[n-]ccs3)cc21 (cis-trans isomerization)
Cn1cc(-c2cnc(N3CCC(c4cccc(F)c4)CC3)[nH+]c2)c2ccc(S(=O)(=O)/N=c3\[n-]ccs3)cc21 (3D coordinates assigned)
Cn1cc(-c2cnc(N3CCC(c4cccc(F)c4)CC3)[nH+]c2)c2ccc(S(=O)(=O)/N=c3\[n-]ccs3)cc21 (nonaromatic ring conformer: 147.29216688733652 kcal/mol)

>  <smiles>  (4) 
Cn1cc(-c2cnc(N3CCC(c4cccc(F)c4)CC3)nc2)c2ccc(S(=O)(=O)N=c3[nH]ccs3)cc21

>  <score_type>  (4) 
oracle

>  <origin>  (4) 
adg

>  <m_score__min__energy>  (4) 
-11.869999999999999

>  <m_primary>  (4) 
energy

$$$$
4:0
     RDKit          3D

 35 37  0  0  0  0  0  0  0  0999 V2000
   56.8600   33.1060   45.1810 O   0  0  0  0  0  0  0  0  0  0  0  0
   57.5590   32.0980   45.4730 C   0  0  0  0  0  0  0  0  0  0  0  0
   57.4700   30.8930   44.6950 N   0  0  0  0  0  0  0  0  0  0  0  0
   57.7590   29.6660   45.0370 C   0  0  0  0  0  0  0  0  0  0  0  0
   56.7700   28.7110   45.3600 C   0  0  0  0  0  0  0  0  0  0  0  0
   57.1500   27.4090   45.7230 C   0  0  0  0  0  0  0  0  0  0  0  0
   56.1900   26.4260   46.0450 C   0  0  0  0  0  0  0  0  0  0  0  0
   54.8300   26.7160   46.0100 O   0  0  0  0  0  0  0  0  0  0  0  0
   56.6020   25.1380   46.4040 C   0  0  0  0  0  0  0  0  0  0  0  0
   57.9610   24.8170   46.4480 C   0  0  0  0  0  0  0  0  0  0  0  0
   58.9200   25.7820   46.1350 C   0  0  0  0  0  0  0  0  0  0  0  0
   58.5220   27.0780   45.7730 C   0  0  0  0  0  0  0  0  0  0  0  0
   59.4710   28.0590   45.4680 C   0  0  0  0  0  0  0  0  0  0  0  0
   59.0750   29.3120   45.1190 N   0  0  0  0  0  0  0  0  0  0  0  0
   58.5360   32.1750   46.5200 N   0  0  0  0  0  0  0  0  0  0  0  0
   58.6740   33.2980   47.4060 C   0  0  0  0  0  0  0  0  0  0  0  0
   57.7720   34.1770   47.4640 O   0  0  0  0  0  0  0  0  0  0  0  0
   59.8400   33.4030   48.3100 C   0  0  0  0  0  0  0  0  0  0  0  0
   59.6330   33.3220   49.6980 C   0  0  0  0  0  0  0  0  0  0  0  0
   60.7100   33.3990   50.5830 C   0  0  0  0  0  0  0  0  0  0  0  0
   62.0060   33.5700   50.0940 C   0  0  0  0  0  0  0  0  0  0  0  0
   62.2260   33.6740   48.7190 C   0  0  0  0  0  0  0  0  0  0  0  0
   61.1540   33.5970   47.8220 C   0  0  0  0  0  0  0  0  0  0  0  0
   61.4940   33.8370   46.1090 Cl  0  0  0  0  0  0  0  0  0  0  0  0
   55.7055   28.9863   45.3273 H   0  0  0  0  0  0  0  0  0  0  0  0
   55.8514   24.3735   46.6531 H   0  0  0  0  0  0  0  0  0  0  0  0
   58.2761   23.8015   46.7299 H   0  0  0  0  0  0  0  0  0  0  0  0
   59.9892   25.5261   46.1722 H   0  0  0  0  0  0  0  0  0  0  0  0
   60.5429   27.8157   45.5107 H   0  0  0  0  0  0  0  0  0  0  0  0
   59.8130   30.0190   44.8980 H   0  0  0  0  0  0  0  0  0  0  0  0
   59.1570   31.3470   46.6650 H   0  0  0  0  0  0  0  0  0  0  0  0
   58.6131   33.1968   50.0905 H   0  0  0  0  0  0  0  0  0  0  0  0
   60.5370   33.3248   51.6668 H   0  0  0  0  0  0  0  0  0  0  0  0
   62.8545   33.6229   50.7921 H   0  0  0  0  0  0  0  0  0  0  0  0
   63.2480   33.8173   48.3383 H   0  0  0  0  0  0  0  0  0  0  0  0
  1  2  2  0
  2  3  1  0
  3  4  2  3
  4  5  1  0
  5  6  2  0
  6  7  1  0
  7  8  1  0
  7  9  2  0
  9 10  1  0
 10 11  2  0
 11 12  1  0
 12 13  2  0
 13 14  1  0
  2 15  1  0
 15 16  1  0
 16 17  2  0
 16 18  1  0
 18 19  2  0
 19 20  1  0
 20 21  2  0
 21 22  1  0
 22 23  2  0
 23 24  1  0
 14  4  1  0
 23 18  1  0
 12  6  1  0
  5 25  1  0
  9 26  1  0
 10 27  1  0
 11 28  1  0
 13 29  1  0
 14 30  1  0
 15 31  1  0
 19 32  1  0
 20 33  1  0
 21 34  1  0
 22 35  1  0
M  CHG  1   8  -1
M  END
>  <UniqueID>  (5) 
5

>  <SMILES>  (5) 
O=C(N=c1cc2c([O-])cccc2c[nH]1)NC(=O)c1ccccc1Cl

>  <Energy>  (5) 
55.89416287366756

>  <Genealogy>  (5) 
O=C(N=c1cc2c([O-])cccc2c[nH]1)NC(=O)c1ccccc1Cl (protonated)
O=C(N=c1cc2c([O-])cccc2c[nH]1)NC(=O)c1ccccc1Cl (3D coordinates assigned)
O=C(N=c1cc2c([O-])cccc2c[nH]1)NC(=O)c1ccccc1Cl (optimized conformer: 55.89416287366756 kcal/mol)

>  <smiles>  (5) 
O=C(N=c1cc2c(O)cccc2c[nH]1)NC(=O)c1ccccc1Cl

>  <score_type>  (5) 
oracle

>  <origin>  (5) 
adg

>  <m_score__min__energy>  (5) 
-12.460000000000001

>  <m_primary>  (5) 
energy

$$$$
5:0
     RDKit          3D

 45 48  0  0  0  0  0  0  0  0999 V2000
   57.5920   24.6170   47.8380 O   0  0  0  0  0  0  0  0  0  0  0  0
   57.0630   24.9780   46.7520 C   0  0  0  0  0  0  0  0  0  0  0  0
   55.7420   24.4130   46.3510 C   0  0  0  0  0  0  0  0  0  0  0  0
   54.6780   25.2590   45.9820 C   0  0  0  0  0  0  0  0  0  0  0  0
   54.8220   26.6420   46.0000 O   0  0  0  0  0  0  0  0  0  0  0  0
   53.4800   24.7310   45.6200 N   0  0  0  0  0  0  0  0  0  0  0  0
   53.2800   23.3910   45.6020 C   0  0  0  0  0  0  0  0  0  0  0  0
   52.1600   22.9280   45.2630 O   0  0  0  0  0  0  0  0  0  0  0  0
   54.2850   22.5500   45.9480 N   0  0  0  0  0  0  0  0  0  0  0  0
   55.5040   23.0210   46.3180 C   0  0  0  0  0  0  0  0  0  0  0  0
   56.4080   22.1970   46.6110 O   0  0  0  0  0  0  0  0  0  0  0  0
   57.7990   25.9310   45.8860 C   0  0  0  0  0  0  0  0  0  0  0  0
   57.6380   25.9070   44.4790 C   0  0  0  0  0  0  0  0  0  0  0  0
   56.7570   24.8790   43.7880 C   0  0  0  0  0  0  0  0  0  0  0  0
   57.4030   23.5240   43.8090 C   0  0  0  0  0  0  0  0  0  0  0  0
   58.5190   23.2170   44.6030 C   0  0  0  0  0  0  0  0  0  0  0  0
   58.9320   21.8970   44.4920 C   0  0  0  0  0  0  0  0  0  0  0  0
   57.9110   21.1200   43.4080 S   0  0  0  0  0  0  0  0  0  0  0  0
   56.9370   22.4440   43.0650 C   0  0  0  0  0  0  0  0  0  0  0  0
   58.3980   26.8110   43.7200 C   0  0  0  0  0  0  0  0  0  0  0  0
   58.3250   26.8250   42.4620 O   0  0  0  0  0  0  0  0  0  0  0  0
   59.2260   27.6850   44.3380 N   0  0  0  0  0  0  0  0  0  0  0  0
   59.3670   27.7030   45.6850 C   0  0  0  0  0  0  0  0  0  0  0  0
   60.1210   28.5670   46.2040 O   0  0  0  0  0  0  0  0  0  0  0  0
   58.6790   26.8100   46.4630 N   0  0  0  0  0  0  0  0  0  0  0  0
   58.7930   26.8080   47.8480 O   0  0  0  0  0  0  0  0  0  0  0  0
   60.0260   26.9900   48.5450 C   0  0  0  0  0  0  0  0  0  0  0  0
   60.0560   28.3310   49.2260 C   0  0  0  0  0  0  0  0  0  0  0  0
   59.0710   29.2940   48.9470 C   0  0  0  0  0  0  0  0  0  0  0  0
   59.1190   30.5490   49.5610 C   0  0  0  0  0  0  0  0  0  0  0  0
   60.1550   30.8560   50.4480 C   0  0  0  0  0  0  0  0  0  0  0  0
   61.1480   29.9110   50.7180 C   0  0  0  0  0  0  0  0  0  0  0  0
   61.1040   28.6540   50.1050 C   0  0  0  0  0  0  0  0  0  0  0  0
   55.7892   24.8254   44.3081 H   0  0  0  0  0  0  0  0  0  0  0  0
   56.6123   25.1848   42.7413 H   0  0  0  0  0  0  0  0  0  0  0  0
   59.0183   23.9523   45.2511 H   0  0  0  0  0  0  0  0  0  0  0  0
   59.7804   21.4391   45.0217 H   0  0  0  0  0  0  0  0  0  0  0  0
   56.0813   22.4557   42.3739 H   0  0  0  0  0  0  0  0  0  0  0  0
   60.1344   26.1982   49.3008 H   0  0  0  0  0  0  0  0  0  0  0  0
   60.8531   26.9410   47.8215 H   0  0  0  0  0  0  0  0  0  0  0  0
   58.2592   29.0593   48.2428 H   0  0  0  0  0  0  0  0  0  0  0  0
   58.3406   31.2959   49.3459 H   0  0  0  0  0  0  0  0  0  0  0  0
   60.1884   31.8424   50.9338 H   0  0  0  0  0  0  0  0  0  0  0  0
   61.9649   30.1553   51.4129 H   0  0  0  0  0  0  0  0  0  0  0  0
   61.8927   27.9157   50.3119 H   0  0  0  0  0  0  0  0  0  0  0  0
  1  2  2  0
  2  3  1  0
  3  4  2  0
  4  5  1  0
  4  6  1  0
  6  7  1  0
  7  8  2  0
  7  9  1  0
  9 10  1  0
 10 11  2  0
  2 12  1  0
 12 13  2  0
 13 14  1  0
 14 15  1  0
 15 16  1  0
 16 17  2  0
 17 18  1  0
 18 19  1  0
 13 20  1  0
 20 21  2  0
 20 22  1  0
 22 23  1  0
 23 24  2  0
 23 25  1  0
 25 26  1  0
 26 27  1  0
 27 28  1  0
 28 29  2  0
 29 30  1  0
 30 31  2  0
 31 32  1  0
 32 33  2  0
 10  3  1  0
 25 12  1  0
 33 28  1  0
 19 15  2  0
 14 34  1  0
 14 35  1  0
 16 36  1  0
 17 37  1  0
 19 38  1  0
 27 39  1  0
 27 40  1  0
 29 41  1  0
 30 42  1  0
 31 43  1  0
 32 44  1  0
 33 45  1  0
M  CHG  4   5  -1   6  -1   9  -1  22  -1
M  END
>  <UniqueID>  (6) 
6

>  <SMILES>  (6) 
O=C(c1c([O-])[n-]c(=O)[n-]c1=O)c1c(Cc2ccsc2)c(=O)[n-]c(=O)n1OCc1ccccc1

>  <Energy>  (6) 
94.23499576245989

>  <Genealogy>  (6) 
O=C(c1c([O-])[n-]c(=O)[n-]c1=O)c1c(Cc2ccsc2)c(=O)[n-]c(=O)n1OCc1ccccc1 (protonated)
O=C(c1c([O-])[n-]c(=O)[n-]c1=O)c1c(Cc2ccsc2)c(=O)[n-]c(=O)n1OCc1ccccc1 (3D coordinates assigned)
O=C(c1c([O-])[n-]c(=O)[n-]c1=O)c1c(Cc2ccsc2)c(=O)[n-]c(=O)n1OCc1ccccc1 (optimized conformer: 94.23499576245989 kcal/mol)

>  <smiles>  (6) 
O=C(c1c(O)[nH]c(=O)[nH]c1=O)c1c(Cc2ccsc2)c(=O)[nH]c(=O)n1OCc1ccccc1

>  <score_type>  (6) 
oracle

>  <origin>  (6) 
adg

>  <m_score__min__energy>  (6) 
-15.289999999999999

>  <m_primary>  (6) 
energy

$$$$
6:0
     RDKit          3D

 62 65  0  0  1  0  0  0  0  0999 V2000
   59.8530   32.9520   45.8350 N   0  0  0  0  0  0  0  0  0  0  0  0
   58.1710   32.6580   45.8250 S   0  0  0  0  0  0  0  0  0  0  0  0
   57.7310   32.4780   47.2670 O   0  0  0  0  0  0  0  0  0  0  0  0
   57.4510   33.8430   45.2620 O   0  0  0  0  0  0  0  0  0  0  0  0
   57.7300   31.2250   44.9140 C   0  0  0  0  0  0  0  0  0  0  0  0
   56.5400   31.2210   44.2130 C   0  0  0  0  0  0  0  0  0  0  0  0
   56.1850   30.0990   43.4930 C   0  0  0  0  0  0  0  0  0  0  0  0
   57.0270   28.9910   43.4820 C   0  0  0  0  0  0  0  0  0  0  0  0
   60.6000   33.2490   50.8120 C   0  0  0  0  0  0  0  0  0  0  0  0
   60.4480   31.8830   50.7420 C   0  0  0  0  0  0  0  0  0  0  0  0
   59.3390   31.2380   50.1360 N   0  0  0  0  0  0  0  0  0  0  0  0
   59.4770   30.3790   49.1820 C   0  0  0  0  0  0  0  0  0  0  0  0
   59.5470   30.7720   47.8880 N   0  0  0  0  0  0  0  0  0  0  0  0
   59.6920   29.8820   46.8880 C   0  0  0  0  0  0  0  0  0  0  0  0
   59.7630   30.2150   45.6470 N   0  0  0  0  0  0  0  0  0  0  0  0
   58.5510   30.1050   44.8850 C   0  0  0  0  0  0  0  0  0  0  0  0
   61.4400   31.1090   51.2950 C   0  0  0  0  0  0  0  0  0  0  0  0
   61.7240   33.8100   51.4250 C   0  0  0  0  0  0  0  0  0  0  0  0
   62.7230   33.0580   51.9830 C   0  0  0  0  0  0  0  0  0  0  0  0
   63.8450   33.4830   52.6010 O   0  0  0  0  0  0  0  0  0  0  0  0
   65.0960   33.7640   52.0210 C   0  0  0  0  0  0  0  0  0  0  0  0
   65.5520   32.7920   50.9900 C   0  0  0  0  0  0  0  0  0  0  0  0
   65.1730   33.1430   49.6100 C   0  0  0  0  0  0  0  0  0  0  0  0
   63.8550   32.8710   49.2180 N   0  0  0  0  0  0  0  0  0  0  0  0
   63.4440   31.5720   48.8820 C   0  0  0  0  0  0  0  0  0  0  0  0
   62.7880   31.5810   47.4840 C   0  0  0  0  0  0  0  0  0  0  0  0
   61.7400   32.4610   47.4000 O   0  0  0  0  0  0  0  0  0  0  0  0
   61.9470   33.6860   48.0140 C   0  0  0  0  0  0  0  0  0  0  0  0
   63.4210   33.8480   48.2630 C   0  0  0  0  0  0  0  0  0  0  0  0
   62.5430   31.6650   51.8970 C   0  0  0  0  0  0  0  0  0  0  0  0
   58.2290   28.9840   44.1840 C   0  0  0  0  0  0  0  0  0  0  0  0
   59.5570   29.0580   49.4740 N   0  0  0  0  0  0  0  0  0  0  0  0
   59.7020   28.1260   48.5080 C   0  0  0  0  0  0  0  0  0  0  0  0
   59.7710   28.5420   47.1900 C   0  0  0  0  0  0  0  0  0  0  0  0
   59.9620   27.3510   45.8980 Cl  0  0  0  0  0  0  0  0  0  0  0  0
   60.1600   33.6350   46.5510 H   0  0  0  0  0  0  0  0  0  0  0  0
   60.4060   32.0920   45.7860 H   0  0  0  0  0  0  0  0  0  0  0  0
   55.8825   32.1027   44.2286 H   0  0  0  0  0  0  0  0  0  0  0  0
   55.2402   30.0803   42.9299 H   0  0  0  0  0  0  0  0  0  0  0  0
   56.7361   28.1005   42.9055 H   0  0  0  0  0  0  0  0  0  0  0  0
   59.8296   33.9056   50.3815 H   0  0  0  0  0  0  0  0  0  0  0  0
   59.4860   31.7890   47.6710 H   0  0  0  0  0  0  0  0  0  0  0  0
   61.3484   30.0136   51.2545 H   0  0  0  0  0  0  0  0  0  0  0  0
   61.8099   34.9061   51.4608 H   0  0  0  0  0  0  0  0  0  0  0  0
   65.0370   34.7563   51.5500 H   0  0  0  0  0  0  0  0  0  0  0  0
   65.8299   33.7070   52.8384 H   0  0  0  0  0  0  0  0  0  0  0  0
   66.6490   32.7280   51.0394 H   0  0  0  0  0  0  0  0  0  0  0  0
   65.0550   31.8375   51.2180 H   0  0  0  0  0  0  0  0  0  0  0  0
   65.3386   34.2234   49.4861 H   0  0  0  0  0  0  0  0  0  0  0  0
   65.7966   32.4990   48.9726 H   0  0  0  0  0  0  0  0  0  0  0  0
   64.3170   30.9029   48.8723 H   0  0  0  0  0  0  0  0  0  0  0  0
   62.7152   31.2160   49.6250 H   0  0  0  0  0  0  0  0  0  0  0  0
   63.5471   31.8649   46.7402 H   0  0  0  0  0  0  0  0  0  0  0  0
   62.3925   30.5722   47.2946 H   0  0  0  0  0  0  0  0  0  0  0  0
   61.5895   34.4948   47.3597 H   0  0  0  0  0  0  0  0  0  0  0  0
   61.3955   33.7306   48.9647 H   0  0  0  0  0  0  0  0  0  0  0  0
   63.9697   33.7078   47.3200 H   0  0  0  0  0  0  0  0  0  0  0  0
   63.6177   34.8566   48.6554 H   0  0  0  0  0  0  0  0  0  0  0  0
   63.3086   31.0010   52.3247 H   0  0  0  0  0  0  0  0  0  0  0  0
   58.8925   28.1067   44.1725 H   0  0  0  0  0  0  0  0  0  0  0  0
   59.5010   28.7630   50.4920 H   0  0  0  0  0  0  0  0  0  0  0  0
   59.7640   27.0579   48.7634 H   0  0  0  0  0  0  0  0  0  0  0  0
  1  2  1  0
  2  3  2  0
  2  4  2  0
  2  5  1  0
  5  6  2  0
  6  7  1  0
  7  8  2  0
  8  9  1  0
  9 10  2  0
 10 11  1  0
 11 12  2  0
 12 13  1  0
 13 14  1  0
 14 15  2  0
 15 16  1  0
 16 17  2  0
 17 18  1  0
 18 19  2  0
 19 20  1  0
 20 21  1  0
 21 22  1  0
 22 23  1  0
 23 24  1  0
 24 25  1  0
 25 26  1  0
 26 27  1  0
 27 28  1  0
 28 29  1  0
 19 30  1  0
 30 31  2  0
 14 32  1  0
 32 33  1  0
 33 34  2  0
 34 35  1  0
 10  5  1  0
 34 12  1  0
 31 16  1  0
 29 24  1  0
  1 36  1  0
  1 37  1  0
  6 38  1  0
  7 39  1  0
  8 40  1  0
  9 41  1  0
 13 42  1  0
 17 43  1  0
 18 44  1  0
 21 45  1  0
 21 46  1  0
 22 47  1  0
 22 48  1  0
 23 49  1  0
 23 50  1  0
 25 51  1  0
 25 52  1  0
 26 53  1  0
 26 54  1  0
 28 55  1  0
 28 56  1  0
 29 57  1  0
 29 58  1  0
 30 59  1  0
 31 60  1  0
 32 61  1  0
 33 62  1  0
M  END
>  <smiles>  (7) 
NS(=O)(=O)c1ccccc1N=c1[nH]c(=Nc2ccc(OCCCN3CCOCC3)cc2)[nH]cc1Cl

>  <score_type>  (7) 
oracle

>  <origin>  (7) 
adg

>  <m_score__min__energy>  (7) 
-10.67

>  <m_primary>  (7) 
energy

$$$$
7:0
     RDKit          3D

 48 51  0  0  0  0  0  0  0  0999 V2000
   65.0950   32.4430   49.7510 C   0  0  0  0  0  0  0  0  0  0  0  0
   63.7470   31.8440   49.6770 N   0  0  0  0  0  0  0  0  0  0  0  0
   63.4150   30.8160   50.5210 C   0  0  0  0  0  0  0  0  0  0  0  0
   64.2480   30.3770   51.3640 O   0  0  0  0  0  0  0  0  0  0  0  0
   62.1460   30.2320   50.4650 C   0  0  0  0  0  0  0  0  0  0  0  0
   61.8790   29.2870   51.2600 O   0  0  0  0  0  0  0  0  0  0  0  0
   61.2120   30.6790   49.5670 N   0  0  0  0  0  0  0  0  0  0  0  0
   59.8770   30.0430   49.5270 C   0  0  0  0  0  0  0  0  0  0  0  0
   61.5250   31.7140   48.7120 C   0  0  0  0  0  0  0  0  0  0  0  0
   60.5890   32.2060   47.7700 C   0  0  0  0  0  0  0  0  0  0  0  0
   60.9120   33.2460   46.8930 C   0  0  0  0  0  0  0  0  0  0  0  0
   59.9170   33.7270   45.9720 N   0  0  0  0  0  0  0  0  0  0  0  0
   58.5080   33.7600   46.2490 C   0  0  0  0  0  0  0  0  0  0  0  0
   58.0770   33.5670   47.4180 O   0  0  0  0  0  0  0  0  0  0  0  0
   57.5350   34.0380   45.1430 C   0  0  0  0  0  0  0  0  0  0  0  0
   57.7550   33.0670   43.9810 C   0  0  0  0  0  0  0  0  0  0  0  0
   57.7650   31.6550   44.4750 C   0  0  0  0  0  0  0  0  0  0  0  0
   56.6150   30.9280   44.4800 N   0  0  0  0  0  0  0  0  0  0  0  0
   56.5850   29.6530   44.9490 C   0  0  0  0  0  0  0  0  0  0  0  0
   55.4990   29.0150   44.9310 O   0  0  0  0  0  0  0  0  0  0  0  0
   57.7600   29.0670   45.4480 C   0  0  0  0  0  0  0  0  0  0  0  0
   57.7970   27.7520   45.9460 C   0  0  0  0  0  0  0  0  0  0  0  0
   58.9960   27.2230   46.4330 C   0  0  0  0  0  0  0  0  0  0  0  0
   60.1610   27.9970   46.4290 C   0  0  0  0  0  0  0  0  0  0  0  0
   60.1340   29.3050   45.9360 C   0  0  0  0  0  0  0  0  0  0  0  0
   58.9390   29.8440   45.4440 C   0  0  0  0  0  0  0  0  0  0  0  0
   58.9120   31.1140   44.9640 N   0  0  0  0  0  0  0  0  0  0  0  0
   62.1730   33.8420   46.9770 C   0  0  0  0  0  0  0  0  0  0  0  0
   63.1140   33.3800   47.8930 C   0  0  0  0  0  0  0  0  0  0  0  0
   62.8190   32.3090   48.7710 C   0  0  0  0  0  0  0  0  0  0  0  0
   65.3822   32.5706   50.8052 H   0  0  0  0  0  0  0  0  0  0  0  0
   65.8181   31.7815   49.2515 H   0  0  0  0  0  0  0  0  0  0  0  0
   65.0887   33.4230   49.2515 H   0  0  0  0  0  0  0  0  0  0  0  0
   59.5208   29.8733   50.5538 H   0  0  0  0  0  0  0  0  0  0  0  0
   59.1725   30.7022   48.9987 H   0  0  0  0  0  0  0  0  0  0  0  0
   59.9450   29.0806   48.9987 H   0  0  0  0  0  0  0  0  0  0  0  0
   59.5845   31.7596   47.7273 H   0  0  0  0  0  0  0  0  0  0  0  0
   60.2440   34.1420   45.0700 H   0  0  0  0  0  0  0  0  0  0  0  0
   56.5099   33.9204   45.5243 H   0  0  0  0  0  0  0  0  0  0  0  0
   57.6892   35.0658   44.7826 H   0  0  0  0  0  0  0  0  0  0  0  0
   56.9435   33.1888   43.2485 H   0  0  0  0  0  0  0  0  0  0  0  0
   58.7250   33.2872   43.5112 H   0  0  0  0  0  0  0  0  0  0  0  0
   56.8829   27.1401   45.9523 H   0  0  0  0  0  0  0  0  0  0  0  0
   59.0233   26.1940   46.8208 H   0  0  0  0  0  0  0  0  0  0  0  0
   61.1009   27.5755   46.8148 H   0  0  0  0  0  0  0  0  0  0  0  0
   61.0520   29.9110   45.9346 H   0  0  0  0  0  0  0  0  0  0  0  0
   62.4242   34.6830   46.3140 H   0  0  0  0  0  0  0  0  0  0  0  0
   64.1049   33.8557   47.9355 H   0  0  0  0  0  0  0  0  0  0  0  0
  1  2  1  0
  2  3  1  0
  3  4  2  0
  3  5  1  0
  5  6  2  0
  5  7  1  0
  7  8  1  0
  7  9  1  0
  9 10  2  0
 10 11  1  0
 11 12  1  0
 12 13  1  0
 13 14  2  0
 13 15  1  0
 15 16  1  0
 16 17  1  0
 17 18  2  0
 18 19  1  0
 19 20  2  0
 19 21  1  0
 21 22  2  0
 22 23  1  0
 23 24  2  0
 24 25  1  0
 25 26  2  0
 26 27  1  0
 11 28  2  0
 28 29  1  0
 29 30  2  0
 30  2  1  0
 30  9  1  0
 27 17  1  0
 26 21  1  0
  1 31  1  0
  1 32  1  0
  1 33  1  0
  8 34  1  0
  8 35  1  0
  8 36  1  0
 10 37  1  0
 12 38  1  0
 15 39  1  0
 15 40  1  0
 16 41  1  0
 16 42  1  0
 22 43  1  0
 23 44  1  0
 24 45  1  0
 25 46  1  0
 28 47  1  0
 29 48  1  0
M  CHG  1  27  -1
M  END
>  <UniqueID>  (8) 
7

>  <SMILES>  (8) 
Cn1c(=O)c(=O)n(C)c2cc(NC(=O)CCc3nc(=O)c4ccccc4[n-]3)ccc21

>  <Energy>  (8) 
73.48656209542767

>  <Genealogy>  (8) 
Cn1c(=O)c(=O)n(C)c2cc(NC(=O)CCc3nc(=O)c4ccccc4[n-]3)ccc21 (protonated)
Cn1c(=O)c(=O)n(C)c2cc(NC(=O)CCc3nc(=O)c4ccccc4[n-]3)ccc21 (3D coordinates assigned)
Cn1c(=O)c(=O)n(C)c2cc(NC(=O)CCc3nc(=O)c4ccccc4[n-]3)ccc21 (optimized conformer: 73.48656209542767 kcal/mol)

>  <smiles>  (8) 
Cn1c(=O)c(=O)n(C)c2cc(NC(=O)CCc3nc(=O)c4ccccc4[nH]3)ccc21

>  <score_type>  (8) 
oracle

>  <origin>  (8) 
adg

>  <m_score__min__energy>  (8) 
-10.51

>  <m_primary>  (8) 
energy

$$$$
8:0
     RDKit          3D

 36 38  0  0  0  0  0  0  0  0999 V2000
   55.1450   27.5160   45.2310 H   0  0  0  0  0  0  0  0  0  0  0  0
   55.2420   26.9160   46.0410 O   0  0  0  0  0  0  0  0  0  0  0  0
   55.8700   25.6700   45.9890 C   0  0  0  0  0  0  0  0  0  0  0  0
   55.0990   24.5520   46.0260 N   0  0  0  0  0  0  0  0  0  0  0  0
   55.6490   23.3120   45.9840 C   0  0  0  0  0  0  0  0  0  0  0  0
   54.6900   21.9930   46.0330 S   0  0  0  0  0  0  0  0  0  0  0  0
   56.9940   23.1680   45.8920 N   0  0  0  0  0  0  0  0  0  0  0  0
   57.8150   24.2500   45.8480 C   0  0  0  0  0  0  0  0  0  0  0  0
   59.0580   24.0760   45.7330 O   0  0  0  0  0  0  0  0  0  0  0  0
   57.2720   25.5460   45.9130 C   0  0  0  0  0  0  0  0  0  0  0  0
   58.1370   26.7440   45.8370 C   0  0  0  0  0  0  0  0  0  0  0  0
   59.1484   26.6894   46.2661 H   0  0  0  0  0  0  0  0  0  0  0  0
   57.7420   27.8990   45.2660 C   0  0  0  0  0  0  0  0  0  0  0  0
   57.3810   29.3080   46.1140 S   0  0  0  0  0  0  0  0  0  0  0  0
   56.9860   30.1890   44.7520 C   0  0  0  0  0  0  0  0  0  0  0  0
   56.7140   31.4640   44.8270 N   0  0  0  0  0  0  0  0  0  0  0  0
   57.5460   32.5390   45.2780 C   0  0  0  0  0  0  0  0  0  0  0  0
   58.2240   33.3570   44.3590 C   0  0  0  0  0  0  0  0  0  0  0  0
   58.0812   33.2050   43.2789 H   0  0  0  0  0  0  0  0  0  0  0  0
   59.0800   34.3640   44.8150 C   0  0  0  0  0  0  0  0  0  0  0  0
   59.5929   35.0172   44.0937 H   0  0  0  0  0  0  0  0  0  0  0  0
   59.2850   34.5420   46.1870 C   0  0  0  0  0  0  0  0  0  0  0  0
   59.9520   35.3402   46.5449 H   0  0  0  0  0  0  0  0  0  0  0  0
   58.6410   33.7040   47.1040 C   0  0  0  0  0  0  0  0  0  0  0  0
   58.8088   33.8380   48.1828 H   0  0  0  0  0  0  0  0  0  0  0  0
   57.7840   32.6960   46.6500 C   0  0  0  0  0  0  0  0  0  0  0  0
   57.2956   32.0248   47.3718 H   0  0  0  0  0  0  0  0  0  0  0  0
   57.0370   29.4180   43.6200 N   0  0  0  0  0  0  0  0  0  0  0  0
   56.4640   29.7930   42.3150 C   0  0  0  0  0  0  0  0  0  0  0  0
   55.5530   30.3892   42.4722 H   0  0  0  0  0  0  0  0  0  0  0  0
   57.1975   30.3864   41.7494 H   0  0  0  0  0  0  0  0  0  0  0  0
   56.2138   28.8833   41.7494 H   0  0  0  0  0  0  0  0  0  0  0  0
   57.5170   28.1520   43.8930 C   0  0  0  0  0  0  0  0  0  0  0  0
   57.7780   27.2530   42.9230 C   0  0  0  0  0  0  0  0  0  0  0  0
   57.5822   27.5068   41.8707 H   0  0  0  0  0  0  0  0  0  0  0  0
   58.1868   26.2656   43.1837 H   0  0  0  0  0  0  0  0  0  0  0  0
  1  2  1  0
  2  3  1  0
  3  4  1  0
  4  5  1  0
  5  6  2  0
  5  7  1  0
  7  8  1  0
  8  9  2  0
  8 10  1  0
 10 11  1  0
 11 12  1  0
 11 13  2  0
 13 14  1  0
 14 15  1  0
 15 16  2  3
 16 17  1  0
 17 18  2  0
 18 19  1  0
 18 20  1  0
 20 21  1  0
 20 22  2  0
 22 23  1  0
 22 24  1  0
 24 25  1  0
 24 26  2  0
 26 27  1  0
 15 28  1  0
 28 29  1  0
 29 30  1  0
 29 31  1  0
 29 32  1  0
 28 33  1  0
 33 34  2  0
 34 35  1  0
 34 36  1  0
 10  3  2  0
 33 13  1  0
 26 17  1  0
M  CHG  2   4  -1   7  -1
M  END
>  <UniqueID>  (9) 
8

>  <SMILES>  (9) 
C=c1/c(=C/c2c(O)[n-]c(=S)[n-]c2=O)sc(=Nc2ccccc2)n1C

>  <Energy>  (9) 
100.40082445970658

>  <Genealogy>  (9) 
C=c1c(=Cc2c(O)[n-]c(=S)[n-]c2=O)sc(=Nc2ccccc2)n1C (protonated)
C=c1/c(=C/c2c(O)[n-]c(=S)[n-]c2=O)sc(=Nc2ccccc2)n1C (cis-trans isomerization)
C=c1/c(=C/c2c(O)[n-]c(=S)[n-]c2=O)sc(=Nc2ccccc2)n1C (3D coordinates assigned)
C=c1/c(=C/c2c(O)[n-]c(=S)[n-]c2=O)sc(=Nc2ccccc2)n1C (optimized conformer: 100.40082445970658 kcal/mol)

>  <smiles>  (9) 
C=c1c(=Cc2c(O)[nH]c(=S)[nH]c2=O)sc(=Nc2ccccc2)n1C

>  <score_type>  (9) 
oracle

>  <origin>  (9) 
adg

>  <m_score__min__energy>  (9) 
-13.029999999999999

>  <m_primary>  (9) 
energy

$$$$
9:0
     RDKit          3D

 36 38  0  0  0  0  0  0  0  0999 V2000
   56.8780   21.5110   43.0780 C   0  0  0  0  0  0  0  0  0  0  0  0
   55.9940   22.4730   43.6450 O   0  0  0  0  0  0  0  0  0  0  0  0
   56.4040   23.5580   44.4330 C   0  0  0  0  0  0  0  0  0  0  0  0
   57.7500   23.7720   44.7800 C   0  0  0  0  0  0  0  0  0  0  0  0
   58.1090   24.8700   45.5640 C   0  0  0  0  0  0  0  0  0  0  0  0
   57.1360   25.7800   46.0100 C   0  0  0  0  0  0  0  0  0  0  0  0
   57.5620   26.9600   46.8510 C   0  0  0  0  0  0  0  0  0  0  0  0
   57.6440   28.1790   46.0290 N   0  0  0  0  0  0  0  0  0  0  0  0
   56.7120   28.3470   44.9000 C   0  0  0  0  0  0  0  0  0  0  0  0
   56.2480   29.7700   44.7930 C   0  0  0  0  0  0  0  0  0  0  0  0
   55.1420   30.0360   44.2520 O   0  0  0  0  0  0  0  0  0  0  0  0
   57.0930   30.8310   45.2360 N   0  0  0  0  0  0  0  0  0  0  0  0
   58.3080   30.5490   45.9310 C   0  0  0  0  0  0  0  0  0  0  0  0
   59.1890   31.5900   46.2400 C   0  0  0  0  0  0  0  0  0  0  0  0
   60.3740   31.3250   46.9290 C   0  0  0  0  0  0  0  0  0  0  0  0
   60.6810   30.0170   47.3120 C   0  0  0  0  0  0  0  0  0  0  0  0
   59.8020   28.9730   47.0130 C   0  0  0  0  0  0  0  0  0  0  0  0
   58.6000   29.2280   46.3230 C   0  0  0  0  0  0  0  0  0  0  0  0
   55.7850   25.5600   45.6760 C   0  0  0  0  0  0  0  0  0  0  0  0
   54.7940   26.4330   46.1250 O   0  0  0  0  0  0  0  0  0  0  0  0
   55.4320   24.4560   44.8870 C   0  0  0  0  0  0  0  0  0  0  0  0
   57.3849   20.9593   43.8834 H   0  0  0  0  0  0  0  0  0  0  0  0
   56.3046   20.8076   42.4563 H   0  0  0  0  0  0  0  0  0  0  0  0
   57.6272   22.0230   42.4563 H   0  0  0  0  0  0  0  0  0  0  0  0
   58.5233   23.0712   44.4322 H   0  0  0  0  0  0  0  0  0  0  0  0
   59.1639   25.0241   45.8351 H   0  0  0  0  0  0  0  0  0  0  0  0
   56.8276   27.1148   47.6551 H   0  0  0  0  0  0  0  0  0  0  0  0
   58.5545   26.7521   47.2773 H   0  0  0  0  0  0  0  0  0  0  0  0
   57.2219   28.0638   43.9674 H   0  0  0  0  0  0  0  0  0  0  0  0
   55.8356   27.7045   45.0704 H   0  0  0  0  0  0  0  0  0  0  0  0
   58.9478   32.6203   45.9395 H   0  0  0  0  0  0  0  0  0  0  0  0
   61.0656   32.1457   47.1702 H   0  0  0  0  0  0  0  0  0  0  0  0
   61.6173   29.8085   47.8504 H   0  0  0  0  0  0  0  0  0  0  0  0
   60.0497   27.9456   47.3181 H   0  0  0  0  0  0  0  0  0  0  0  0
   54.7300   26.7100   47.0970 H   0  0  0  0  0  0  0  0  0  0  0  0
   54.3769   24.2938   44.6215 H   0  0  0  0  0  0  0  0  0  0  0  0
  1  2  1  0
  2  3  1  0
  3  4  2  0
  4  5  1  0
  5  6  2  0
  6  7  1  0
  7  8  1  0
  8  9  1  0
  9 10  1  0
 10 11  2  0
 10 12  1  0
 12 13  1  0
 13 14  2  0
 14 15  1  0
 15 16  2  0
 16 17  1  0
 17 18  2  0
  6 19  1  0
 19 20  1  0
 19 21  2  0
 21  3  1  0
 18  8  1  0
 18 13  1  0
  1 22  1  0
  1 23  1  0
  1 24  1  0
  4 25  1  0
  5 26  1  0
  7 27  1  0
  7 28  1  0
  9 29  1  0
  9 30  1  0
 14 31  1  0
 15 32  1  0
 16 33  1  0
 17 34  1  0
 20 35  1  0
 21 36  1  0
M  CHG  1  12  -1
M  END
>  <UniqueID>  (10) 
9

>  <SMILES>  (10) 
COc1ccc(CN2CC(=O)[N-]c3ccccc32)c(O)c1

>  <Energy>  (10) 
39.678016696172676

>  <Genealogy>  (10) 
COc1ccc(CN2CC(=O)[N-]c3ccccc32)c(O)c1 (protonated)
COc1ccc(CN2CC(=O)[N-]c3ccccc32)c(O)c1 (3D coordinates assigned)
COc1ccc(CN2CC(=O)[N-]c3ccccc32)c(O)c1 (nonaromatic ring conformer: 39.678016696172676 kcal/mol)

>  <smiles>  (10) 
COc1ccc(CN2CC(=O)Nc3ccccc32)c(O)c1

>  <score_type>  (10) 
oracle

>  <origin>  (10) 
adg

>  <m_score__min__energy>  (10) 
-9.8399999999999999

>  <m_primary>  (10) 
energy

$$$$
10:0
     RDKit          3D

 68 72  0  0  0  0  0  0  0  0999 V2000
   50.2550   34.0100   53.6480 C   0  0  0  0  0  0  0  0  0  0  0  0
   50.5420   33.4860   52.3560 O   0  0  0  0  0  0  0  0  0  0  0  0
   51.0330   32.1950   52.1120 C   0  0  0  0  0  0  0  0  0  0  0  0
   51.2950   31.2820   53.1490 C   0  0  0  0  0  0  0  0  0  0  0  0
   51.8090   30.0060   52.8630 C   0  0  0  0  0  0  0  0  0  0  0  0
   52.0790   29.0260   53.9730 C   0  0  0  0  0  0  0  0  0  0  0  0
   52.7430   27.8320   53.4430 N   0  0  0  0  0  0  0  0  0  0  0  0
   53.1480   26.7240   54.2730 C   0  0  0  0  0  0  0  0  0  0  0  0
   52.1670   25.9260   54.8950 C   0  0  0  0  0  0  0  0  0  0  0  0
   52.5290   24.8820   55.7460 C   0  0  0  0  0  0  0  0  0  0  0  0
   53.8690   24.6290   56.0080 C   0  0  0  0  0  0  0  0  0  0  0  0
   54.8560   25.4060   55.4070 C   0  0  0  0  0  0  0  0  0  0  0  0
   54.5220   26.4420   54.5120 C   0  0  0  0  0  0  0  0  0  0  0  0
   55.6580   27.2150   53.8470 C   0  0  0  0  0  0  0  0  0  0  0  0
   55.4680   28.6850   53.8440 N   0  0  0  0  0  0  0  0  0  0  0  0
   55.3440   29.2640   52.4890 C   0  0  0  0  0  0  0  0  0  0  0  0
   55.4080   30.7930   52.5210 C   0  0  0  0  0  0  0  0  0  0  0  0
   56.7360   31.3010   53.1280 C   0  0  0  0  0  0  0  0  0  0  0  0
   57.6580   31.7610   52.0810 N   0  0  0  0  0  0  0  0  0  0  0  0
   58.2100   33.1170   52.0310 C   0  0  0  0  0  0  0  0  0  0  0  0
   58.9410   33.1530   50.7190 C   0  0  0  0  0  0  0  0  0  0  0  0
   59.6560   34.2150   50.1610 C   0  0  0  0  0  0  0  0  0  0  0  0
   60.2660   34.0280   48.9070 C   0  0  0  0  0  0  0  0  0  0  0  0
   60.1450   32.7940   48.2320 C   0  0  0  0  0  0  0  0  0  0  0  0
   59.4230   31.7380   48.8110 C   0  0  0  0  0  0  0  0  0  0  0  0
   58.8330   31.9500   50.0570 C   0  0  0  0  0  0  0  0  0  0  0  0
   58.0550   31.0730   50.8890 C   0  0  0  0  0  0  0  0  0  0  0  0
   57.8030   29.8690   50.6310 O   0  0  0  0  0  0  0  0  0  0  0  0
   57.4070   30.2660   54.0580 C   0  0  0  0  0  0  0  0  0  0  0  0
   56.3430   29.4330   54.7840 C   0  0  0  0  0  0  0  0  0  0  0  0
   52.0460   29.6380   51.5320 C   0  0  0  0  0  0  0  0  0  0  0  0
   51.7840   30.5400   50.4840 C   0  0  0  0  0  0  0  0  0  0  0  0
   52.0190   30.2160   49.1390 O   0  0  0  0  0  0  0  0  0  0  0  0
   51.0160   29.7880   48.2260 C   0  0  0  0  0  0  0  0  0  0  0  0
   51.2760   31.8110   50.7850 C   0  0  0  0  0  0  0  0  0  0  0  0
   51.0160   32.7060   49.7540 O   0  0  0  0  0  0  0  0  0  0  0  0
   50.6333   33.3194   54.4161 H   0  0  0  0  0  0  0  0  0  0  0  0
   50.7427   34.9892   53.7632 H   0  0  0  0  0  0  0  0  0  0  0  0
   49.1672   34.1263   53.7632 H   0  0  0  0  0  0  0  0  0  0  0  0
   51.0960   31.5690   54.1921 H   0  0  0  0  0  0  0  0  0  0  0  0
   52.7275   29.4987   54.7254 H   0  0  0  0  0  0  0  0  0  0  0  0
   51.1238   28.7316   54.4324 H   0  0  0  0  0  0  0  0  0  0  0  0
   53.0770   27.8700   52.4580 H   0  0  0  0  0  0  0  0  0  0  0  0
   51.1024   26.1291   54.7070 H   0  0  0  0  0  0  0  0  0  0  0  0
   51.7515   24.2578   56.2106 H   0  0  0  0  0  0  0  0  0  0  0  0
   54.1511   23.8141   56.6909 H   0  0  0  0  0  0  0  0  0  0  0  0
   55.9138   25.2078   55.6346 H   0  0  0  0  0  0  0  0  0  0  0  0
   56.5910   26.9882   54.3838 H   0  0  0  0  0  0  0  0  0  0  0  0
   55.6856   26.8962   52.7946 H   0  0  0  0  0  0  0  0  0  0  0  0
   56.1652   28.8855   51.8626 H   0  0  0  0  0  0  0  0  0  0  0  0
   54.3675   28.9693   52.0772 H   0  0  0  0  0  0  0  0  0  0  0  0
   55.3177   31.1745   51.4932 H   0  0  0  0  0  0  0  0  0  0  0  0
   54.5834   31.1559   53.1521 H   0  0  0  0  0  0  0  0  0  0  0  0
   56.4806   32.1634   53.7613 H   0  0  0  0  0  0  0  0  0  0  0  0
   57.4074   33.8688   52.0541 H   0  0  0  0  0  0  0  0  0  0  0  0
   58.8598   33.3457   52.8886 H   0  0  0  0  0  0  0  0  0  0  0  0
   59.7403   35.1758   50.6899 H   0  0  0  0  0  0  0  0  0  0  0  0
   60.8402   34.8475   48.4502 H   0  0  0  0  0  0  0  0  0  0  0  0
   60.6184   32.6592   47.2483 H   0  0  0  0  0  0  0  0  0  0  0  0
   59.3254   30.7707   48.2964 H   0  0  0  0  0  0  0  0  0  0  0  0
   58.0435   29.5985   53.4585 H   0  0  0  0  0  0  0  0  0  0  0  0
   58.0156   30.7976   54.8044 H   0  0  0  0  0  0  0  0  0  0  0  0
   56.8485   28.7130   55.4444 H   0  0  0  0  0  0  0  0  0  0  0  0
   55.7067   30.1261   55.3538 H   0  0  0  0  0  0  0  0  0  0  0  0
   52.4399   28.6364   51.3045 H   0  0  0  0  0  0  0  0  0  0  0  0
   50.1451   29.4164   48.7858 H   0  0  0  0  0  0  0  0  0  0  0  0
   50.7111   30.6344   47.5930 H   0  0  0  0  0  0  0  0  0  0  0  0
   51.4161   28.9822   47.5930 H   0  0  0  0  0  0  0  0  0  0  0  0
  1  2  1  0
  2  3  1  0
  3  4  2  0
  4  5  1  0
  5  6  1  0
  6  7  1  0
  7  8  1  0
  8  9  2  0
  9 10  1  0
 10 11  2  0
 11 12  1  0
 12 13  2  0
 13 14  1  0
 14 15  1  0
 15 16  1  0
 16 17  1  0
 17 18  1  0
 18 19  1  0
 19 20  1  0
 20 21  1  0
 21 22  2  0
 22 23  1  0
 23 24  2  0
 24 25  1  0
 25 26  2  0
 26 27  1  0
 27 28  2  0
 18 29  1  0
 29 30  1  0
  5 31  2  0
 31 32  1  0
 32 33  1  0
 33 34  1  0
 32 35  2  0
 35 36  1  0
 35  3  1  0
 13  8  1  0
 30 15  1  0
 27 19  1  0
 26 21  1  0
  1 37  1  0
  1 38  1  0
  1 39  1  0
  4 40  1  0
  6 41  1  0
  6 42  1  0
  7 43  1  0
  9 44  1  0
 10 45  1  0
 11 46  1  0
 12 47  1  0
 14 48  1  0
 14 49  1  0
 16 50  1  0
 16 51  1  0
 17 52  1  0
 17 53  1  0
 18 54  1  0
 20 55  1  0
 20 56  1  0
 22 57  1  0
 23 58  1  0
 24 59  1  0
 25 60  1  0
 29 61  1  0
 29 62  1  0
 30 63  1  0
 30 64  1  0
 31 65  1  0
 34 66  1  0
 34 67  1  0
 34 68  1  0
M  CHG  1  36  -1
M  END
>  <UniqueID>  (11) 
10

>  <SMILES>  (11) 
COc1cc(CNc2ccccc2CN2CCC(N3Cc4ccccc4C3=O)CC2)cc(OC)c1[O-]

>  <Energy>  (11) 
101.81330443981875

>  <Genealogy>  (11) 
COc1cc(CNc2ccccc2CN2CCC(N3Cc4ccccc4C3=O)CC2)cc(OC)c1[O-] (protonated)
COc1cc(CNc2ccccc2CN2CCC(N3Cc4ccccc4C3=O)CC2)cc(OC)c1[O-] (3D coordinates assigned)
COc1cc(CNc2ccccc2CN2CCC(N3Cc4ccccc4C3=O)CC2)cc(OC)c1[O-] (nonaromatic ring conformer: 101.81330443981875 kcal/mol)

>  <smiles>  (11) 
COc1cc(CNc2ccccc2CN2CCC(N3Cc4ccccc4C3=O)CC2)cc(OC)c1O

>  <score_type>  (11) 
oracle

>  <origin>  (11) 
adg

>  <m_score__min__energy>  (11) 
-13.43

>  <m_primary>  (11) 
energy

$$$$
11:0
     RDKit          3D

 28 29  0  0  0  0  0  0  0  0999 V2000
   57.3910   32.0120   42.7160 N   0  0  0  0  0  0  0  0  0  0  0  0
   57.8180   31.7390   43.7570 C   0  0  0  0  0  0  0  0  0  0  0  0
   58.3530   31.3970   45.0550 C   0  0  0  0  0  0  0  0  0  0  0  0
   57.9730   32.1010   46.2080 C   0  0  0  0  0  0  0  0  0  0  0  0
   57.0350   33.1810   46.1560 N   0  0  0  0  0  0  0  0  0  0  0  0
   58.5140   31.7570   47.4030 N   0  0  0  0  0  0  0  0  0  0  0  0
   59.4020   30.7390   47.5220 C   0  0  0  0  0  0  0  0  0  0  0  0
   59.9870   30.3840   49.0130 S   0  0  0  0  0  0  0  0  0  0  0  0
   59.7700   30.0120   46.4220 N   0  0  0  0  0  0  0  0  0  0  0  0
   60.6730   28.9400   46.5770 N   0  0  0  0  0  0  0  0  0  0  0  0
   60.1970   27.3680   47.1370 S   0  0  0  0  0  0  0  0  0  0  0  0
   60.3160   27.3180   48.6330 O   0  0  0  0  0  0  0  0  0  0  0  0
   61.1040   26.3310   46.5340 O   0  0  0  0  0  0  0  0  0  0  0  0
   58.5200   27.0630   46.6940 C   0  0  0  0  0  0  0  0  0  0  0  0
   57.8030   27.9880   45.9200 C   0  0  0  0  0  0  0  0  0  0  0  0
   56.4640   27.7440   45.5980 C   0  0  0  0  0  0  0  0  0  0  0  0
   55.8360   26.5780   46.0480 C   0  0  0  0  0  0  0  0  0  0  0  0
   54.5040   26.3400   45.7300 O   0  0  0  0  0  0  0  0  0  0  0  0
   56.5480   25.6540   46.8170 C   0  0  0  0  0  0  0  0  0  0  0  0
   57.8860   25.8940   47.1390 C   0  0  0  0  0  0  0  0  0  0  0  0
   59.2800   30.3520   45.1860 C   0  0  0  0  0  0  0  0  0  0  0  0
   59.6770   29.7420   44.1550 O   0  0  0  0  0  0  0  0  0  0  0  0
   56.7760   33.6870   47.0320 H   0  0  0  0  0  0  0  0  0  0  0  0
   56.5900   33.4880   45.2630 H   0  0  0  0  0  0  0  0  0  0  0  0
   58.2946   28.9062   45.5660 H   0  0  0  0  0  0  0  0  0  0  0  0
   55.9041   28.4699   44.9901 H   0  0  0  0  0  0  0  0  0  0  0  0
   56.0543   24.7363   47.1694 H   0  0  0  0  0  0  0  0  0  0  0  0
   58.4440   25.1637   47.7435 H   0  0  0  0  0  0  0  0  0  0  0  0
  1  2  3  0
  2  3  1  0
  3  4  2  0
  4  5  1  0
  4  6  1  0
  6  7  1  0
  7  8  2  0
  7  9  1  0
  9 10  1  0
 10 11  1  0
 11 12  2  0
 11 13  2  0
 11 14  1  0
 14 15  2  0
 15 16  1  0
 16 17  2  0
 17 18  1  0
 17 19  1  0
 19 20  2  0
  9 21  1  0
 21 22  2  0
 21  3  1  0
 20 14  1  0
  5 23  1  0
  5 24  1  0
 15 25  1  0
 16 26  1  0
 19 27  1  0
 20 28  1  0
M  CHG  3   6  -1  10  -1  18  -1
M  END
>  <UniqueID>  (12) 
11

>  <SMILES>  (12) 
N#Cc1c(N)[n-]c(=S)n([N-]S(=O)(=O)c2ccc([O-])cc2)c1=O

>  <Energy>  (12) 
39.47871360678818

>  <Genealogy>  (12) 
N#Cc1c(N)[n-]c(=S)n([N-]S(=O)(=O)c2ccc([O-])cc2)c1=O (protonated)
N#Cc1c(N)[n-]c(=S)n([N-]S(=O)(=O)c2ccc([O-])cc2)c1=O (3D coordinates assigned)
N#Cc1c(N)[n-]c(=S)n([N-]S(=O)(=O)c2ccc([O-])cc2)c1=O (optimized conformer: 39.47871360678818 kcal/mol)

>  <smiles>  (12) 
N#Cc1c(N)[nH]c(=S)n(NS(=O)(=O)c2ccc(O)cc2)c1=O

>  <score_type>  (12) 
oracle

>  <origin>  (12) 
adg

>  <m_score__min__energy>  (12) 
-10.9

>  <m_primary>  (12) 
energy

$$$$
12:0
     RDKit          3D

 45 47  0  0  0  0  0  0  0  0999 V2000
   56.2580   31.5820   51.5020 N   0  0  0  0  0  0  0  0  0  0  0  0
   57.2000   30.5240   51.6880 C   0  0  0  0  0  0  0  0  0  0  0  0
   56.7920   29.3710   51.9890 O   0  0  0  0  0  0  0  0  0  0  0  0
   58.6680   30.7790   51.5270 C   0  0  0  0  0  0  0  0  0  0  0  0
   58.9230   32.2080   51.3580 N   0  0  0  0  0  0  0  0  0  0  0  0
   58.4550   33.1510   52.1560 N   0  0  0  0  0  0  0  0  0  0  0  0
   58.8880   34.3260   51.7210 N   0  0  0  0  0  0  0  0  0  0  0  0
   59.6430   34.1640   50.6430 N   0  0  0  0  0  0  0  0  0  0  0  0
   59.6730   32.8340   50.4320 C   0  0  0  0  0  0  0  0  0  0  0  0
   60.3740   32.1770   49.2780 C   0  0  0  0  0  0  0  0  0  0  0  0
   59.4140   31.5030   48.4040 N   0  0  0  0  0  0  0  0  0  0  0  0
   58.7250   32.1390   47.3090 C   0  0  0  0  0  0  0  0  0  0  0  0
   58.6550   33.5400   47.2610 C   0  0  0  0  0  0  0  0  0  0  0  0
   57.9850   34.1810   46.2170 C   0  0  0  0  0  0  0  0  0  0  0  0
   57.3860   33.4330   45.2000 C   0  0  0  0  0  0  0  0  0  0  0  0
   57.4680   32.0300   45.2160 C   0  0  0  0  0  0  0  0  0  0  0  0
   56.8560   31.2140   44.2080 N   0  0  0  0  0  0  0  0  0  0  0  0
   56.3010   29.9030   44.3750 C   0  0  0  0  0  0  0  0  0  0  0  0
   55.1570   29.7420   44.8770 O   0  0  0  0  0  0  0  0  0  0  0  0
   57.0830   28.7140   43.9150 C   0  0  0  0  0  0  0  0  0  0  0  0
   57.6570   27.9810   45.1000 C   0  0  0  0  0  0  0  0  0  0  0  0
   59.0370   28.0430   45.3550 C   0  0  0  0  0  0  0  0  0  0  0  0
   59.5900   27.3410   46.4290 C   0  0  0  0  0  0  0  0  0  0  0  0
   58.7720   26.5620   47.2520 C   0  0  0  0  0  0  0  0  0  0  0  0
   57.4010   26.4810   46.9990 C   0  0  0  0  0  0  0  0  0  0  0  0
   56.8390   27.1820   45.9260 C   0  0  0  0  0  0  0  0  0  0  0  0
   55.4730   27.0760   45.6860 O   0  0  0  0  0  0  0  0  0  0  0  0
   58.1170   31.3930   46.2810 C   0  0  0  0  0  0  0  0  0  0  0  0
   55.2370   31.4060   51.6340 H   0  0  0  0  0  0  0  0  0  0  0  0
   56.5770   32.5400   51.2400 H   0  0  0  0  0  0  0  0  0  0  0  0
   59.1982   30.4198   52.4214 H   0  0  0  0  0  0  0  0  0  0  0  0
   59.0263   30.2453   50.6344 H   0  0  0  0  0  0  0  0  0  0  0  0
   60.9127   32.9423   48.7000 H   0  0  0  0  0  0  0  0  0  0  0  0
   61.0781   31.4294   49.6720 H   0  0  0  0  0  0  0  0  0  0  0  0
   59.2370   30.4880   48.5820 H   0  0  0  0  0  0  0  0  0  0  0  0
   59.1316   34.1377   48.0520 H   0  0  0  0  0  0  0  0  0  0  0  0
   57.9285   35.2793   46.1950 H   0  0  0  0  0  0  0  0  0  0  0  0
   56.8497   33.9428   44.3860 H   0  0  0  0  0  0  0  0  0  0  0  0
   56.4207   28.0376   43.3549 H   0  0  0  0  0  0  0  0  0  0  0  0
   57.9059   29.0528   43.2684 H   0  0  0  0  0  0  0  0  0  0  0  0
   59.6863   28.6480   44.7051 H   0  0  0  0  0  0  0  0  0  0  0  0
   60.6703   27.4015   46.6270 H   0  0  0  0  0  0  0  0  0  0  0  0
   59.2082   26.0125   48.0992 H   0  0  0  0  0  0  0  0  0  0  0  0
   56.7602   25.8637   47.6457 H   0  0  0  0  0  0  0  0  0  0  0  0
   58.1523   30.2941   46.3150 H   0  0  0  0  0  0  0  0  0  0  0  0
  1  2  1  0
  2  3  2  0
  2  4  1  0
  4  5  1  0
  5  6  1  0
  6  7  2  0
  7  8  1  0
  8  9  2  0
  9 10  1  0
 10 11  1  0
 11 12  1  0
 12 13  2  0
 13 14  1  0
 14 15  2  0
 15 16  1  0
 16 17  1  0
 17 18  1  0
 18 19  2  0
 18 20  1  0
 20 21  1  0
 21 22  2  0
 22 23  1  0
 23 24  2  0
 24 25  1  0
 25 26  2  0
 26 27  1  0
 16 28  2  0
  9  5  1  0
 28 12  1  0
 26 21  1  0
  1 29  1  0
  1 30  1  0
  4 31  1  0
  4 32  1  0
 10 33  1  0
 10 34  1  0
 11 35  1  0
 13 36  1  0
 14 37  1  0
 15 38  1  0
 20 39  1  0
 20 40  1  0
 22 41  1  0
 23 42  1  0
 24 43  1  0
 25 44  1  0
 28 45  1  0
M  CHG  2  17  -1  27  -1
M  END
>  <UniqueID>  (13) 
12

>  <SMILES>  (13) 
NC(=O)Cn1nnnc1CNc1cccc([N-]C(=O)Cc2ccccc2[O-])c1

>  <Energy>  (13) 
83.64950821839686

>  <Genealogy>  (13) 
NC(=O)Cn1nnnc1CNc1cccc([N-]C(=O)Cc2ccccc2[O-])c1 (protonated)
NC(=O)Cn1nnnc1CNc1cccc([N-]C(=O)Cc2ccccc2[O-])c1 (3D coordinates assigned)
NC(=O)Cn1nnnc1CNc1cccc([N-]C(=O)Cc2ccccc2[O-])c1 (optimized conformer: 83.64950821839686 kcal/mol)

>  <smiles>  (13) 
NC(=O)Cn1nnnc1CNc1cccc(NC(=O)Cc2ccccc2O)c1

>  <score_type>  (13) 
oracle

>  <origin>  (13) 
adg

>  <m_score__min__energy>  (13) 
-13.35

>  <m_primary>  (13) 
energy

$$$$
13:0
     RDKit          3D

 60 62  0  0  0  0  0  0  0  0999 V2000
   57.8020   32.1700   41.7930 C   0  0  0  0  0  0  0  0  0  0  0  0
   57.0370   31.5510   42.9580 C   0  0  0  0  0  0  0  0  0  0  0  0
   57.7000   30.3320   43.4170 N   0  0  0  0  0  0  0  0  0  0  0  0
   57.1020   29.4390   44.3670 C   0  0  0  0  0  0  0  0  0  0  0  0
   55.9620   29.6890   44.8470 O   0  0  0  0  0  0  0  0  0  0  0  0
   57.8120   28.1830   44.7670 C   0  0  0  0  0  0  0  0  0  0  0  0
   59.6220   28.4280   44.7760 S   0  0  0  0  0  0  0  0  0  0  0  0
   59.6300   29.4760   46.2410 C   0  0  0  0  0  0  0  0  0  0  0  0
   59.4610   30.8060   46.0770 N   0  0  0  0  0  0  0  0  0  0  0  0
   59.4410   31.6870   47.1100 C   0  0  0  0  0  0  0  0  0  0  0  0
   59.0850   33.0430   46.8090 N   0  0  0  0  0  0  0  0  0  0  0  0
   57.6770   33.4410   46.9110 C   0  0  0  0  0  0  0  0  0  0  0  0
   57.0980   33.7750   45.5160 C   0  0  0  0  0  0  0  0  0  0  0  0
   58.0810   33.9880   44.5120 O   0  0  0  0  0  0  0  0  0  0  0  0
   59.1660   34.7330   45.0240 C   0  0  0  0  0  0  0  0  0  0  0  0
   59.9830   33.8480   45.9680 C   0  0  0  0  0  0  0  0  0  0  0  0
   59.6530   31.2220   48.4410 C   0  0  0  0  0  0  0  0  0  0  0  0
   59.7380   29.8230   48.6390 C   0  0  0  0  0  0  0  0  0  0  0  0
   59.7520   28.9450   47.5310 C   0  0  0  0  0  0  0  0  0  0  0  0
   59.8890   27.5150   47.7040 C   0  0  0  0  0  0  0  0  0  0  0  0
   60.0010   26.3710   47.8410 N   0  0  0  0  0  0  0  0  0  0  0  0
   59.6490   29.2970   50.0520 C   0  0  0  0  0  0  0  0  0  0  0  0
   60.5440   30.0910   51.0400 C   0  0  0  0  0  0  0  0  0  0  0  0
   61.9230   29.3860   51.1250 C   0  0  0  0  0  0  0  0  0  0  0  0
   59.9190   30.0550   52.4470 C   0  0  0  0  0  0  0  0  0  0  0  0
   60.7390   31.5160   50.6500 N   0  0  0  0  0  0  0  0  0  0  0  0
   59.7890   32.1270   49.6840 C   0  0  0  0  0  0  0  0  0  0  0  0
   58.4160   32.3500   50.3530 C   0  0  0  0  0  0  0  0  0  0  0  0
   60.3720   33.5250   49.3520 C   0  0  0  0  0  0  0  0  0  0  0  0
   58.6018   32.8172   42.1821 H   0  0  0  0  0  0  0  0  0  0  0  0
   58.2429   31.3714   41.1783 H   0  0  0  0  0  0  0  0  0  0  0  0
   57.1130   32.7679   41.1783 H   0  0  0  0  0  0  0  0  0  0  0  0
   56.9934   32.2731   43.7866 H   0  0  0  0  0  0  0  0  0  0  0  0
   56.0209   31.2976   42.6213 H   0  0  0  0  0  0  0  0  0  0  0  0
   58.6120   30.0680   42.9800 H   0  0  0  0  0  0  0  0  0  0  0  0
   57.4838   27.8898   45.7751 H   0  0  0  0  0  0  0  0  0  0  0  0
   57.5687   27.3959   44.0381 H   0  0  0  0  0  0  0  0  0  0  0  0
   57.0999   32.6152   47.3527 H   0  0  0  0  0  0  0  0  0  0  0  0
   57.6091   34.3375   47.5447 H   0  0  0  0  0  0  0  0  0  0  0  0
   56.4574   32.9387   45.1994 H   0  0  0  0  0  0  0  0  0  0  0  0
   56.5449   34.7200   45.6218 H   0  0  0  0  0  0  0  0  0  0  0  0
   59.8033   35.0725   44.1942 H   0  0  0  0  0  0  0  0  0  0  0  0
   58.7874   35.6079   45.5728 H   0  0  0  0  0  0  0  0  0  0  0  0
   60.6240   33.1786   45.3755 H   0  0  0  0  0  0  0  0  0  0  0  0
   60.6042   34.4867   46.6130 H   0  0  0  0  0  0  0  0  0  0  0  0
   58.6042   29.3664   50.3889 H   0  0  0  0  0  0  0  0  0  0  0  0
   60.0033   28.2557   50.0435 H   0  0  0  0  0  0  0  0  0  0  0  0
   62.1984   29.2452   52.1806 H   0  0  0  0  0  0  0  0  0  0  0  0
   61.8655   28.4067   50.6273 H   0  0  0  0  0  0  0  0  0  0  0  0
   62.6831   30.0061   50.6273 H   0  0  0  0  0  0  0  0  0  0  0  0
   60.7162   30.1009   53.2036 H   0  0  0  0  0  0  0  0  0  0  0  0
   59.2456   30.9158   52.5712 H   0  0  0  0  0  0  0  0  0  0  0  0
   59.3489   29.1225   52.5712 H   0  0  0  0  0  0  0  0  0  0  0  0
   61.7100   31.6480   50.2770 H   0  0  0  0  0  0  0  0  0  0  0  0
   58.5335   32.3309   51.4465 H   0  0  0  0  0  0  0  0  0  0  0  0
   58.0120   33.3255   50.0446 H   0  0  0  0  0  0  0  0  0  0  0  0
   57.7240   31.5525   50.0446 H   0  0  0  0  0  0  0  0  0  0  0  0
   60.5953   34.0605   50.2865 H   0  0  0  0  0  0  0  0  0  0  0  0
   61.2961   33.4074   48.7670 H   0  0  0  0  0  0  0  0  0  0  0  0
   59.6382   34.0988   48.7670 H   0  0  0  0  0  0  0  0  0  0  0  0
  1  2  1  0
  2  3  1  0
  3  4  1  0
  4  5  2  0
  4  6  1  0
  6  7  1  0
  7  8  1  0
  8  9  2  0
  9 10  1  0
 10 11  1  0
 11 12  1  0
 12 13  1  0
 13 14  1  0
 14 15  1  0
 15 16  1  0
 10 17  2  0
 17 18  1  0
 18 19  2  0
 19 20  1  0
 20 21  3  0
 18 22  1  0
 22 23  1  0
 23 24  1  0
 23 25  1  0
 23 26  1  0
 26 27  1  0
 27 28  1  0
 27 29  1  0
 19  8  1  0
 16 11  1  0
 27 17  1  0
  1 30  1  0
  1 31  1  0
  1 32  1  0
  2 33  1  0
  2 34  1  0
  3 35  1  0
  6 36  1  0
  6 37  1  0
 12 38  1  0
 12 39  1  0
 13 40  1  0
 13 41  1  0
 15 42  1  0
 15 43  1  0
 16 44  1  0
 16 45  1  0
 22 46  1  0
 22 47  1  0
 24 48  1  0
 24 49  1  0
 24 50  1  0
 25 51  1  0
 25 52  1  0
 25 53  1  0
 26 54  1  0
 28 55  1  0
 28 56  1  0
 28 57  1  0
 29 58  1  0
 29 59  1  0
 29 60  1  0
M  END
>  <UniqueID>  (14) 
13

>  <SMILES>  (14) 
CCNC(=O)CSc1nc(N2CCOCC2)c2c(c1C#N)CC(C)(C)NC2(C)C

>  <Energy>  (14) 
81.91081261376753

>  <Genealogy>  (14) 
CCNC(=O)CSc1nc(N2CCOCC2)c2c(c1C#N)CC(C)(C)NC2(C)C (3D coordinates assigned)
CCNC(=O)CSc1nc(N2CCOCC2)c2c(c1C#N)CC(C)(C)NC2(C)C (nonaromatic ring conformer: 81.91081261376753 kcal/mol)

>  <smiles>  (14) 
CCNC(=O)CSc1nc(N2CCOCC2)c2c(c1C#N)CC(C)(C)NC2(C)C

>  <score_type>  (14) 
oracle

>  <origin>  (14) 
adg

>  <m_score__min__energy>  (14) 
-8.1699999999999999

>  <m_primary>  (14) 
energy

$$$$
14:0
     RDKit          3D

 22 23  0  0  0  0  0  0  0  0999 V2000
   57.9103   29.7335   44.8736 H   0  0  0  0  0  0  0  0  0  0  0  0
   57.4520   28.7940   45.2160 C   0  0  0  0  0  0  0  0  0  0  0  0
   56.1110   28.4870   45.2490 C   0  0  0  0  0  0  0  0  0  0  0  0
   55.0960   29.3420   44.8430 O   0  0  0  0  0  0  0  0  0  0  0  0
   55.8860   27.2480   45.7260 N   0  0  0  0  0  0  0  0  0  0  0  0
   57.1120   26.7580   46.0010 C   0  0  0  0  0  0  0  0  0  0  0  0
   57.3390   25.4170   46.5550 C   0  0  0  0  0  0  0  0  0  0  0  0
   58.3840   24.7820   46.2540 O   0  0  0  0  0  0  0  0  0  0  0  0
   56.3160   24.7960   47.3400 N   0  0  0  0  0  0  0  0  0  0  0  0
   55.5160   23.8190   47.0140 C   0  0  0  0  0  0  0  0  0  0  0  0
   54.5190   24.0090   46.1220 N   0  0  0  0  0  0  0  0  0  0  0  0
   53.9210   22.8070   46.0580 C   0  0  0  0  0  0  0  0  0  0  0  0
   52.8260   22.5320   45.2500 O   0  0  0  0  0  0  0  0  0  0  0  0
   54.5300   21.9120   46.9000 C   0  0  0  0  0  0  0  0  0  0  0  0
   54.2464   20.8586   47.0412 H   0  0  0  0  0  0  0  0  0  0  0  0
   55.5370   22.5530   47.5230 N   0  0  0  0  0  0  0  0  0  0  0  0
   56.3410   21.9660   48.5960 C   0  0  0  0  0  0  0  0  0  0  0  0
   55.9284   22.2673   49.5702 H   0  0  0  0  0  0  0  0  0  0  0  0
   56.3198   20.8694   48.5121 H   0  0  0  0  0  0  0  0  0  0  0  0
   57.3790   22.3202   48.5121 H   0  0  0  0  0  0  0  0  0  0  0  0
   58.1010   27.6800   45.7010 C   0  0  0  0  0  0  0  0  0  0  0  0
   59.1861   27.5491   45.8250 H   0  0  0  0  0  0  0  0  0  0  0  0
  1  2  1  0
  2  3  2  0
  3  4  1  0
  3  5  1  0
  5  6  1  0
  6  7  1  0
  7  8  2  0
  7  9  1  0
  9 10  2  0
 10 11  1  0
 11 12  1  0
 12 13  1  0
 12 14  2  0
 14 15  1  0
 14 16  1  0
 16 17  1  0
 17 18  1  0
 17 19  1  0
 17 20  1  0
  6 21  2  0
 21 22  1  0
 21  2  1  0
 16 10  1  0
M  CHG  4   4  -1   5  -1  11  -1  13  -1
M  END
>  <UniqueID>  (15) 
14

>  <SMILES>  (15) 
Cn1cc([O-])[n-]/c1=N/C(=O)c1ccc([O-])[n-]1

>  <Energy>  (15) 
88.73839051388175

>  <Genealogy>  (15) 
Cn1cc([O-])[n-]c1=NC(=O)c1ccc([O-])[n-]1 (protonated)
Cn1cc([O-])[n-]/c1=N/C(=O)c1ccc([O-])[n-]1 (cis-trans isomerization)
Cn1cc([O-])[n-]/c1=N/C(=O)c1ccc([O-])[n-]1 (3D coordinates assigned)
Cn1cc([O-])[n-]/c1=N/C(=O)c1ccc([O-])[n-]1 (optimized conformer: 88.73839051388175 kcal/mol)

>  <smiles>  (15) 
Cn1cc(O)[nH]c1=NC(=O)c1ccc(O)[nH]1

>  <score_type>  (15) 
oracle

>  <origin>  (15) 
adg

>  <m_score__min__energy>  (15) 
-13.630000000000001

>  <m_primary>  (15) 
energy

$$$$
15:0
     RDKit          3D

 39 40  0  0  0  0  0  0  0  0999 V2000
   63.7230   33.1390   47.0560 C   0  0  0  0  0  0  0  0  0  0  0  0
   62.5390   33.6750   46.7480 C   0  0  0  0  0  0  0  0  0  0  0  0
   61.3560   33.6020   47.6780 C   0  0  0  0  0  0  0  0  0  0  0  0
   60.1100   33.3160   46.9330 N   0  0  0  0  0  0  0  0  0  0  0  0
   59.3020   34.3340   46.4610 C   0  0  0  0  0  0  0  0  0  0  0  0
   59.6170   35.7230   46.6600 N   0  0  0  0  0  0  0  0  0  0  0  0
   58.1310   34.0290   45.7640 C   0  0  0  0  0  0  0  0  0  0  0  0
   57.7710   32.7020   45.5900 C   0  0  0  0  0  0  0  0  0  0  0  0
   56.7070   32.4120   44.9800 O   0  0  0  0  0  0  0  0  0  0  0  0
   58.5650   31.7190   46.0770 N   0  0  0  0  0  0  0  0  0  0  0  0
   59.7310   32.0040   46.7170 C   0  0  0  0  0  0  0  0  0  0  0  0
   60.7690   30.6090   47.2280 S   0  0  0  0  0  0  0  0  0  0  0  0
   59.5080   29.8500   48.3170 C   0  0  0  0  0  0  0  0  0  0  0  0
   59.5720   28.3570   48.2570 C   0  0  0  0  0  0  0  0  0  0  0  0
   60.1830   27.7220   49.1590 O   0  0  0  0  0  0  0  0  0  0  0  0
   58.9750   27.6780   47.1410 N   0  0  0  0  0  0  0  0  0  0  0  0
   58.3690   28.2290   46.1300 C   0  0  0  0  0  0  0  0  0  0  0  0
   58.6630   27.7960   44.8360 C   0  0  0  0  0  0  0  0  0  0  0  0
   57.9800   28.3550   43.7570 C   0  0  0  0  0  0  0  0  0  0  0  0
   57.0110   29.3320   43.9960 C   0  0  0  0  0  0  0  0  0  0  0  0
   56.2710   29.9660   42.8620 C   0  0  0  0  0  0  0  0  0  0  0  0
   56.7650   29.7250   45.2750 N   0  0  0  0  0  0  0  0  0  0  0  0
   57.4180   29.1890   46.3070 N   0  0  0  0  0  0  0  0  0  0  0  0
   64.5617   33.2145   46.3483 H   0  0  0  0  0  0  0  0  0  0  0  0
   63.8594   32.6221   48.0173 H   0  0  0  0  0  0  0  0  0  0  0  0
   62.4236   34.1876   45.7816 H   0  0  0  0  0  0  0  0  0  0  0  0
   61.5263   32.8023   48.4139 H   0  0  0  0  0  0  0  0  0  0  0  0
   61.2469   34.5738   48.1816 H   0  0  0  0  0  0  0  0  0  0  0  0
   59.1460   36.2590   47.4230 H   0  0  0  0  0  0  0  0  0  0  0  0
   60.3930   36.2150   46.1710 H   0  0  0  0  0  0  0  0  0  0  0  0
   57.5008   34.8337   45.3573 H   0  0  0  0  0  0  0  0  0  0  0  0
   58.2870   30.7220   45.9350 H   0  0  0  0  0  0  0  0  0  0  0  0
   59.6849   30.1757   49.3527 H   0  0  0  0  0  0  0  0  0  0  0  0
   58.5129   30.1707   47.9751 H   0  0  0  0  0  0  0  0  0  0  0  0
   59.4260   27.0214   44.6694 H   0  0  0  0  0  0  0  0  0  0  0  0
   58.2016   28.0305   42.7296 H   0  0  0  0  0  0  0  0  0  0  0  0
   55.4922   30.6332   43.2598 H   0  0  0  0  0  0  0  0  0  0  0  0
   56.9725   30.5477   42.2459 H   0  0  0  0  0  0  0  0  0  0  0  0
   55.8038   29.1835   42.2459 H   0  0  0  0  0  0  0  0  0  0  0  0
  1  2  2  0
  2  3  1  0
  3  4  1  0
  4  5  1  0
  5  6  1  0
  5  7  2  0
  7  8  1  0
  8  9  2  0
  8 10  1  0
 10 11  2  0
 11 12  1  0
 12 13  1  0
 13 14  1  0
 14 15  2  0
 14 16  1  0
 16 17  2  3
 17 18  1  0
 18 19  2  0
 19 20  1  0
 20 21  1  0
 20 22  2  0
 22 23  1  0
 11  4  1  0
 23 17  1  0
  1 24  1  0
  1 25  1  0
  2 26  1  0
  3 27  1  0
  3 28  1  0
  6 29  1  0
  6 30  1  0
  7 31  1  0
 10 32  1  0
 13 33  1  0
 13 34  1  0
 18 35  1  0
 19 36  1  0
 21 37  1  0
 21 38  1  0
 21 39  1  0
M  CHG  2  10   1  23  -1
M  END
>  <UniqueID>  (16) 
15

>  <SMILES>  (16) 
C=CCn1c(N)cc(=O)[nH+]c1SCC(=O)N=c1ccc(C)n[n-]1

>  <Energy>  (16) 
39.081146163468354

>  <Genealogy>  (16) 
C=CCn1c(N)cc(=O)[nH+]c1SCC(=O)N=c1ccc(C)n[n-]1 (protonated)
C=CCn1c(N)cc(=O)[nH+]c1SCC(=O)N=c1ccc(C)n[n-]1 (3D coordinates assigned)
C=CCn1c(N)cc(=O)[nH+]c1SCC(=O)N=c1ccc(C)n[n-]1 (optimized conformer: 39.081146163468354 kcal/mol)

>  <smiles>  (16) 
C=CCn1c(N)cc(=O)nc1SCC(=O)N=c1ccc(C)n[nH]1

>  <score_type>  (16) 
oracle

>  <origin>  (16) 
adg

>  <m_score__min__energy>  (16) 
-7.7699999999999996

>  <m_primary>  (16) 
energy

$$$$
16:0
     RDKit          3D

 59 61  0  0  0  0  0  0  0  0999 V2000
   58.1140   26.8420   43.0190 C   0  0  0  0  0  0  0  0  0  0  0  0
   58.8630   27.8540   43.6820 O   0  0  0  0  0  0  0  0  0  0  0  0
   59.0510   27.9340   45.0700 C   0  0  0  0  0  0  0  0  0  0  0  0
   60.2720   27.5520   45.6640 C   0  0  0  0  0  0  0  0  0  0  0  0
   60.4260   27.5740   47.0530 C   0  0  0  0  0  0  0  0  0  0  0  0
   59.3680   27.9710   47.8670 C   0  0  0  0  0  0  0  0  0  0  0  0
   58.1610   28.3680   47.2930 C   0  0  0  0  0  0  0  0  0  0  0  0
   57.9930   28.3760   45.9020 C   0  0  0  0  0  0  0  0  0  0  0  0
   56.7200   28.8000   45.3940 N   0  0  0  0  0  0  0  0  0  0  0  0
   56.4090   29.9620   44.1430 S   0  0  0  0  0  0  0  0  0  0  0  0
   56.8090   29.3990   42.8080 O   0  0  0  0  0  0  0  0  0  0  0  0
   54.9430   30.2960   44.1500 O   0  0  0  0  0  0  0  0  0  0  0  0
   57.3740   31.4160   44.4500 C   0  0  0  0  0  0  0  0  0  0  0  0
   57.7650   31.6850   45.7700 C   0  0  0  0  0  0  0  0  0  0  0  0
   58.5160   32.8270   46.0860 C   0  0  0  0  0  0  0  0  0  0  0  0
   58.9050   33.0990   47.4890 C   0  0  0  0  0  0  0  0  0  0  0  0
   59.1060   34.2850   47.8670 O   0  0  0  0  0  0  0  0  0  0  0  0
   59.0590   32.0200   48.4180 N   0  0  0  0  0  0  0  0  0  0  0  0
   58.9750   32.2200   49.8630 C   0  0  0  0  0  0  0  0  0  0  0  0
   59.8710   31.2480   50.5620 C   0  0  0  0  0  0  0  0  0  0  0  0
   59.4220   30.5460   51.5090 O   0  0  0  0  0  0  0  0  0  0  0  0
   61.2280   31.1030   50.1320 N   0  0  0  0  0  0  0  0  0  0  0  0
   61.9190   32.0650   49.3230 C   0  0  0  0  0  0  0  0  0  0  0  0
   62.0540   31.8290   47.9390 C   0  0  0  0  0  0  0  0  0  0  0  0
   61.4880   30.5810   47.3170 C   0  0  0  0  0  0  0  0  0  0  0  0
   62.7650   32.7420   47.1460 C   0  0  0  0  0  0  0  0  0  0  0  0
   63.3190   33.8880   47.7120 C   0  0  0  0  0  0  0  0  0  0  0  0
   63.1420   34.1530   49.0690 C   0  0  0  0  0  0  0  0  0  0  0  0
   62.4190   33.2660   49.8810 C   0  0  0  0  0  0  0  0  0  0  0  0
   62.1800   33.6260   51.3210 C   0  0  0  0  0  0  0  0  0  0  0  0
   58.8630   33.7190   45.0630 C   0  0  0  0  0  0  0  0  0  0  0  0
   58.5020   33.4520   43.7420 C   0  0  0  0  0  0  0  0  0  0  0  0
   57.7770   32.2930   43.4140 C   0  0  0  0  0  0  0  0  0  0  0  0
   57.4170   32.0420   41.9750 C   0  0  0  0  0  0  0  0  0  0  0  0
   57.6335   26.1928   43.7658 H   0  0  0  0  0  0  0  0  0  0  0  0
   57.3428   27.3097   42.3893 H   0  0  0  0  0  0  0  0  0  0  0  0
   58.7867   26.2411   42.3893 H   0  0  0  0  0  0  0  0  0  0  0  0
   61.1111   27.2337   45.0279 H   0  0  0  0  0  0  0  0  0  0  0  0
   61.3844   27.2773   47.5040 H   0  0  0  0  0  0  0  0  0  0  0  0
   59.4844   27.9714   48.9608 H   0  0  0  0  0  0  0  0  0  0  0  0
   57.3288   28.6794   47.9414 H   0  0  0  0  0  0  0  0  0  0  0  0
   57.4777   30.9883   46.5713 H   0  0  0  0  0  0  0  0  0  0  0  0
   59.2920   31.0690   48.0500 H   0  0  0  0  0  0  0  0  0  0  0  0
   59.2870   33.2459   50.1084 H   0  0  0  0  0  0  0  0  0  0  0  0
   57.9378   32.0592   50.1921 H   0  0  0  0  0  0  0  0  0  0  0  0
   61.1731   29.8866   48.1098 H   0  0  0  0  0  0  0  0  0  0  0  0
   60.6207   30.8431   46.6933 H   0  0  0  0  0  0  0  0  0  0  0  0
   62.2566   30.1011   46.6933 H   0  0  0  0  0  0  0  0  0  0  0  0
   62.8859   32.5516   46.0694 H   0  0  0  0  0  0  0  0  0  0  0  0
   63.8970   34.5848   47.0872 H   0  0  0  0  0  0  0  0  0  0  0  0
   63.5728   35.0654   49.5071 H   0  0  0  0  0  0  0  0  0  0  0  0
   62.6711   32.8862   51.9703 H   0  0  0  0  0  0  0  0  0  0  0  0
   62.5953   34.6243   51.5232 H   0  0  0  0  0  0  0  0  0  0  0  0
   61.0987   33.6308   51.5232 H   0  0  0  0  0  0  0  0  0  0  0  0
   59.4231   34.6349   45.3025 H   0  0  0  0  0  0  0  0  0  0  0  0
   58.7881   34.1569   42.9475 H   0  0  0  0  0  0  0  0  0  0  0  0
   56.5155   31.4135   41.9268 H   0  0  0  0  0  0  0  0  0  0  0  0
   57.2224   33.0012   41.4730 H   0  0  0  0  0  0  0  0  0  0  0  0
   58.2498   31.5277   41.4730 H   0  0  0  0  0  0  0  0  0  0  0  0
  1  2  1  0
  2  3  1  0
  3  4  2  0
  4  5  1  0
  5  6  2  0
  6  7  1  0
  7  8  2  0
  8  9  1  0
  9 10  1  0
 10 11  2  0
 10 12  2  0
 10 13  1  0
 13 14  2  0
 14 15  1  0
 15 16  1  0
 16 17  2  0
 16 18  1  0
 18 19  1  0
 19 20  1  0
 20 21  2  0
 20 22  1  0
 22 23  1  0
 23 24  2  0
 24 25  1  0
 24 26  1  0
 26 27  2  0
 27 28  1  0
 28 29  2  0
 29 30  1  0
 15 31  2  0
 31 32  1  0
 32 33  2  0
 33 34  1  0
  8  3  1  0
 33 13  1  0
 29 23  1  0
  1 35  1  0
  1 36  1  0
  1 37  1  0
  4 38  1  0
  5 39  1  0
  6 40  1  0
  7 41  1  0
 14 42  1  0
 18 43  1  0
 19 44  1  0
 19 45  1  0
 25 46  1  0
 25 47  1  0
 25 48  1  0
 26 49  1  0
 27 50  1  0
 28 51  1  0
 30 52  1  0
 30 53  1  0
 30 54  1  0
 31 55  1  0
 32 56  1  0
 34 57  1  0
 34 58  1  0
 34 59  1  0
M  CHG  2   9  -1  22  -1
M  END
>  <UniqueID>  (17) 
16

>  <SMILES>  (17) 
COc1ccccc1[N-]S(=O)(=O)c1cc(C(=O)NCC(=O)[N-]c2c(C)cccc2C)ccc1C

>  <Energy>  (17) 
72.78599658829637

>  <Genealogy>  (17) 
COc1ccccc1[N-]S(=O)(=O)c1cc(C(=O)NCC(=O)[N-]c2c(C)cccc2C)ccc1C (protonated)
COc1ccccc1[N-]S(=O)(=O)c1cc(C(=O)NCC(=O)[N-]c2c(C)cccc2C)ccc1C (3D coordinates assigned)
COc1ccccc1[N-]S(=O)(=O)c1cc(C(=O)NCC(=O)[N-]c2c(C)cccc2C)ccc1C (optimized conformer: 72.78599658829637 kcal/mol)

>  <smiles>  (17) 
COc1ccccc1NS(=O)(=O)c1cc(C(=O)NCC(=O)Nc2c(C)cccc2C)ccc1C

>  <score_type>  (17) 
oracle

>  <origin>  (17) 
adg

>  <m_score__min__energy>  (17) 
-12.56

>  <m_primary>  (17) 
energy

$$$$
17:0
     RDKit          3D

 39 41  0  0  0  0  0  0  0  0999 V2000
   63.9480   33.6870   48.9770 C   0  0  0  0  0  0  0  0  0  0  0  0
   62.9130   32.8090   48.3370 C   0  0  0  0  0  0  0  0  0  0  0  0
   62.7200   31.4950   48.7870 C   0  0  0  0  0  0  0  0  0  0  0  0
   61.7300   30.6910   48.2150 C   0  0  0  0  0  0  0  0  0  0  0  0
   60.9050   31.1900   47.1900 C   0  0  0  0  0  0  0  0  0  0  0  0
   59.8470   30.3450   46.5790 C   0  0  0  0  0  0  0  0  0  0  0  0
   58.6550   30.7880   46.0020 C   0  0  0  0  0  0  0  0  0  0  0  0
   57.8420   29.7530   45.5030 C   0  0  0  0  0  0  0  0  0  0  0  0
   56.5360   30.0030   44.8590 C   0  0  0  0  0  0  0  0  0  0  0  0
   55.5230   29.0020   44.8800 N   0  0  0  0  0  0  0  0  0  0  0  0
   56.3020   31.1030   44.2890 O   0  0  0  0  0  0  0  0  0  0  0  0
   58.4040   28.4900   45.6900 C   0  0  0  0  0  0  0  0  0  0  0  0
   57.7900   27.2520   45.3020 N   0  0  0  0  0  0  0  0  0  0  0  0
   57.9200   25.9870   45.9670 C   0  0  0  0  0  0  0  0  0  0  0  0
   58.9140   25.7680   46.7110 O   0  0  0  0  0  0  0  0  0  0  0  0
   56.9040   24.9190   45.7700 C   0  0  0  0  0  0  0  0  0  0  0  0
   57.3310   23.5910   45.5630 C   0  0  0  0  0  0  0  0  0  0  0  0
   56.4070   22.5630   45.3650 C   0  0  0  0  0  0  0  0  0  0  0  0
   55.0400   22.8410   45.3680 C   0  0  0  0  0  0  0  0  0  0  0  0
   54.5950   24.1470   45.5740 C   0  0  0  0  0  0  0  0  0  0  0  0
   55.5120   25.1890   45.7780 C   0  0  0  0  0  0  0  0  0  0  0  0
   55.0350   26.4800   45.9950 O   0  0  0  0  0  0  0  0  0  0  0  0
   59.8840   28.6630   46.4710 S   0  0  0  0  0  0  0  0  0  0  0  0
   61.0900   32.5180   46.7590 C   0  0  0  0  0  0  0  0  0  0  0  0
   62.0820   33.3190   47.3320 C   0  0  0  0  0  0  0  0  0  0  0  0
   63.8636   33.6154   50.0714 H   0  0  0  0  0  0  0  0  0  0  0  0
   64.9506   33.3597   48.6644 H   0  0  0  0  0  0  0  0  0  0  0  0
   63.7886   34.7295   48.6644 H   0  0  0  0  0  0  0  0  0  0  0  0
   63.3510   31.0949   49.5943 H   0  0  0  0  0  0  0  0  0  0  0  0
   61.5945   29.6585   48.5694 H   0  0  0  0  0  0  0  0  0  0  0  0
   58.3764   31.8505   45.9428 H   0  0  0  0  0  0  0  0  0  0  0  0
   55.7700   27.9870   44.8650 H   0  0  0  0  0  0  0  0  0  0  0  0
   58.4068   23.3618   45.5574 H   0  0  0  0  0  0  0  0  0  0  0  0
   56.7575   21.5325   45.2064 H   0  0  0  0  0  0  0  0  0  0  0  0
   54.3133   22.0308   45.2080 H   0  0  0  0  0  0  0  0  0  0  0  0
   53.5161   24.3616   45.5765 H   0  0  0  0  0  0  0  0  0  0  0  0
   55.6560   27.2800   46.0380 H   0  0  0  0  0  0  0  0  0  0  0  0
   60.4487   32.9282   45.9650 H   0  0  0  0  0  0  0  0  0  0  0  0
   62.2107   34.3569   46.9911 H   0  0  0  0  0  0  0  0  0  0  0  0
  1  2  1  0
  2  3  2  0
  3  4  1  0
  4  5  2  0
  5  6  1  0
  6  7  2  0
  7  8  1  0
  8  9  1  0
  9 10  1  0
  9 11  2  0
  8 12  2  0
 12 13  1  0
 13 14  1  0
 14 15  2  0
 14 16  1  0
 16 17  2  0
 17 18  1  0
 18 19  2  0
 19 20  1  0
 20 21  2  0
 21 22  1  0
 12 23  1  0
  5 24  1  0
 24 25  2  0
 25  2  1  0
 23  6  1  0
 21 16  1  0
  1 26  1  0
  1 27  1  0
  1 28  1  0
  3 29  1  0
  4 30  1  0
  7 31  1  0
 10 32  1  0
 17 33  1  0
 18 34  1  0
 19 35  1  0
 20 36  1  0
 22 37  1  0
 24 38  1  0
 25 39  1  0
M  CHG  2  10  -1  13  -1
M  END
>  <UniqueID>  (18) 
17

>  <SMILES>  (18) 
Cc1ccc(-c2cc(C([NH-])=O)c([N-]C(=O)c3ccccc3O)s2)cc1

>  <Energy>  (18) 
73.4941453755893

>  <Genealogy>  (18) 
Cc1ccc(-c2cc(C([NH-])=O)c([N-]C(=O)c3ccccc3O)s2)cc1 (protonated)
Cc1ccc(-c2cc(C([NH-])=O)c([N-]C(=O)c3ccccc3O)s2)cc1 (3D coordinates assigned)
Cc1ccc(-c2cc(C([NH-])=O)c([N-]C(=O)c3ccccc3O)s2)cc1 (optimized conformer: 73.4941453755893 kcal/mol)

>  <smiles>  (18) 
Cc1ccc(-c2cc(C(N)=O)c(NC(=O)c3ccccc3O)s2)cc1

>  <score_type>  (18) 
oracle

>  <origin>  (18) 
adg

>  <m_score__min__energy>  (18) 
-13.02

>  <m_primary>  (18) 
energy

$$$$
18:0
     RDKit          3D

 32 34  0  0  0  0  0  0  0  0999 V2000
   55.1440   30.5390   44.4980 O   0  0  0  0  0  0  0  0  0  0  0  0
   55.9890   29.6350   44.7310 C   0  0  0  0  0  0  0  0  0  0  0  0
   55.5690   28.4150   45.2430 O   0  0  0  0  0  0  0  0  0  0  0  0
   57.4320   29.8550   44.4090 C   0  0  0  0  0  0  0  0  0  0  0  0
   58.1050   30.5050   45.5380 N   0  0  0  0  0  0  0  0  0  0  0  0
   58.7240   29.8980   46.5830 C   0  0  0  0  0  0  0  0  0  0  0  0
   59.3600   30.8330   47.3840 C   0  0  0  0  0  0  0  0  0  0  0  0
   59.0910   32.0610   46.8250 C   0  0  0  0  0  0  0  0  0  0  0  0
   59.4690   33.3450   47.2130 C   0  0  0  0  0  0  0  0  0  0  0  0
   59.0620   34.4240   46.4080 C   0  0  0  0  0  0  0  0  0  0  0  0
   59.4240   35.7200   46.7690 O   0  0  0  0  0  0  0  0  0  0  0  0
   58.2950   34.1910   45.2420 C   0  0  0  0  0  0  0  0  0  0  0  0
   57.9290   32.8840   44.8740 C   0  0  0  0  0  0  0  0  0  0  0  0
   58.3380   31.8290   45.6970 C   0  0  0  0  0  0  0  0  0  0  0  0
   60.1160   30.5040   48.6370 C   0  0  0  0  0  0  0  0  0  0  0  0
   60.5170   29.0180   48.6450 C   0  0  0  0  0  0  0  0  0  0  0  0
   59.3400   28.1120   48.2330 C   0  0  0  0  0  0  0  0  0  0  0  0
   58.8570   28.4150   46.8020 C   0  0  0  0  0  0  0  0  0  0  0  0
   57.9121   28.8859   44.2078 H   0  0  0  0  0  0  0  0  0  0  0  0
   57.5093   30.5013   43.5222 H   0  0  0  0  0  0  0  0  0  0  0  0
   60.0674   33.5095   48.1212 H   0  0  0  0  0  0  0  0  0  0  0  0
   58.9260   36.2260   47.4930 H   0  0  0  0  0  0  0  0  0  0  0  0
   57.9819   35.0405   44.6173 H   0  0  0  0  0  0  0  0  0  0  0  0
   57.3382   32.6965   43.9653 H   0  0  0  0  0  0  0  0  0  0  0  0
   61.0228   31.1247   48.6872 H   0  0  0  0  0  0  0  0  0  0  0  0
   59.4726   30.7054   49.5062 H   0  0  0  0  0  0  0  0  0  0  0  0
   61.3472   28.8682   47.9391 H   0  0  0  0  0  0  0  0  0  0  0  0
   60.8184   28.7478   49.6678 H   0  0  0  0  0  0  0  0  0  0  0  0
   59.6642   27.0621   48.2843 H   0  0  0  0  0  0  0  0  0  0  0  0
   58.5047   28.3026   48.9228 H   0  0  0  0  0  0  0  0  0  0  0  0
   59.5835   28.0085   46.0830 H   0  0  0  0  0  0  0  0  0  0  0  0
   57.8713   27.9485   46.6575 H   0  0  0  0  0  0  0  0  0  0  0  0
  1  2  2  0
  2  3  1  0
  2  4  1  0
  4  5  1  0
  5  6  1  0
  6  7  2  0
  7  8  1  0
  8  9  2  0
  9 10  1  0
 10 11  1  0
 10 12  2  0
 12 13  1  0
 13 14  2  0
  7 15  1  0
 15 16  1  0
 16 17  1  0
 17 18  1  0
 14  5  1  0
 18  6  1  0
 14  8  1  0
  4 19  1  0
  4 20  1  0
  9 21  1  0
 11 22  1  0
 12 23  1  0
 13 24  1  0
 15 25  1  0
 15 26  1  0
 16 27  1  0
 16 28  1  0
 17 29  1  0
 17 30  1  0
 18 31  1  0
 18 32  1  0
M  CHG  1   3  -1
M  END
>  <UniqueID>  (19) 
18

>  <SMILES>  (19) 
O=C([O-])Cn1c2c(c3cc(O)ccc31)CCCC2

>  <Energy>  (19) 
64.96959037505088

>  <Genealogy>  (19) 
O=C([O-])Cn1c2c(c3cc(O)ccc31)CCCC2 (protonated)
O=C([O-])Cn1c2c(c3cc(O)ccc31)CCCC2 (3D coordinates assigned)
O=C([O-])Cn1c2c(c3cc(O)ccc31)CCCC2 (nonaromatic ring conformer: 64.96959037505088 kcal/mol)

>  <smiles>  (19) 
O=C(O)Cn1c2c(c3cc(O)ccc31)CCCC2

>  <score_type>  (19) 
oracle

>  <origin>  (19) 
adg

>  <m_score__min__energy>  (19) 
-9.0199999999999996

>  <m_primary>  (19) 
energy

$$$$
19:0
     RDKit          3D

 72 76  0  0  0  0  0  0  0  0999 V2000
   62.7800   33.8110   48.2360 N   0  0  0  0  0  0  0  0  0  0  0  0
   61.7720   32.4140   48.0780 S   0  0  0  0  0  0  0  0  0  0  0  0
   61.1590   32.3870   46.7080 O   0  0  0  0  0  0  0  0  0  0  0  0
   62.6290   31.1930   48.2530 O   0  0  0  0  0  0  0  0  0  0  0  0
   60.4920   32.4350   49.3050 C   0  0  0  0  0  0  0  0  0  0  0  0
   60.2870   33.6100   50.0450 C   0  0  0  0  0  0  0  0  0  0  0  0
   59.2580   33.6880   50.9870 C   0  0  0  0  0  0  0  0  0  0  0  0
   58.4200   32.5930   51.1990 C   0  0  0  0  0  0  0  0  0  0  0  0
   58.6150   31.4140   50.4790 C   0  0  0  0  0  0  0  0  0  0  0  0
   59.6540   31.3150   49.5380 C   0  0  0  0  0  0  0  0  0  0  0  0
   59.8300   30.0360   48.8210 C   0  0  0  0  0  0  0  0  0  0  0  0
   60.2050   28.8820   49.5260 C   0  0  0  0  0  0  0  0  0  0  0  0
   60.3790   27.6710   48.8500 C   0  0  0  0  0  0  0  0  0  0  0  0
   60.1910   27.6010   47.4610 C   0  0  0  0  0  0  0  0  0  0  0  0
   60.3940   26.2930   46.7450 C   0  0  0  0  0  0  0  0  0  0  0  0
   59.0900   25.6440   46.4830 N   0  0  0  0  0  0  0  0  0  0  0  0
   58.0680   26.0030   47.4890 C   0  0  0  0  0  0  0  0  0  0  0  0
   57.0930   24.8340   47.7130 C   0  0  1  0  0  0  0  0  0  0  0  0
   55.9160   24.8900   46.7510 C   0  0  0  0  0  0  0  0  0  0  0  0
   55.5940   23.4440   46.5500 C   0  0  0  0  0  0  0  0  0  0  0  0
   56.9270   22.7610   46.7820 C   0  0  0  0  0  0  0  0  0  0  0  0
   57.7650   23.6060   47.5400 O   0  0  0  0  0  0  0  0  0  0  0  0
   58.6180   25.8350   45.0890 C   0  0  0  0  0  0  0  0  0  0  0  0
   57.8850   27.0950   44.9050 N   0  0  0  0  0  0  0  0  0  0  0  0
   56.6430   27.3840   45.3530 C   0  0  0  0  0  0  0  0  0  0  0  0
   56.3510   28.6800   44.9890 C   0  0  0  0  0  0  0  0  0  0  0  0
   55.1540   29.3430   45.2380 O   0  0  0  0  0  0  0  0  0  0  0  0
   57.4050   29.2210   44.3490 N   0  0  0  0  0  0  0  0  0  0  0  0
   57.4930   30.5440   43.7330 C   0  0  0  0  0  0  0  0  0  0  0  0
   56.6660   31.5520   44.5350 C   0  0  0  0  0  0  0  0  0  0  0  0
   57.5520   32.6120   45.1300 C   0  0  0  0  0  0  0  0  0  0  0  0
   58.3390   33.4280   44.3000 C   0  0  0  0  0  0  0  0  0  0  0  0
   59.1390   34.4330   44.8540 C   0  0  0  0  0  0  0  0  0  0  0  0
   59.1500   34.6360   46.2370 C   0  0  0  0  0  0  0  0  0  0  0  0
   59.9250   35.6120   46.7720 F   0  0  0  0  0  0  0  0  0  0  0  0
   58.3590   33.8370   47.0680 C   0  0  0  0  0  0  0  0  0  0  0  0
   57.5590   32.8310   46.5180 C   0  0  0  0  0  0  0  0  0  0  0  0
   58.3230   28.2330   44.3160 C   0  0  0  0  0  0  0  0  0  0  0  0
   59.4700   28.3670   43.8120 O   0  0  0  0  0  0  0  0  0  0  0  0
   59.8320   28.7590   46.7560 C   0  0  0  0  0  0  0  0  0  0  0  0
   59.6590   29.9710   47.4300 C   0  0  0  0  0  0  0  0  0  0  0  0
   62.6300   34.1880   49.1980 H   0  0  0  0  0  0  0  0  0  0  0  0
   60.9428   34.4779   49.8817 H   0  0  0  0  0  0  0  0  0  0  0  0
   59.1085   34.6137   51.5620 H   0  0  0  0  0  0  0  0  0  0  0  0
   57.6047   32.6592   51.9345 H   0  0  0  0  0  0  0  0  0  0  0  0
   57.9498   30.5546   50.6493 H   0  0  0  0  0  0  0  0  0  0  0  0
   60.3624   28.9306   50.6136 H   0  0  0  0  0  0  0  0  0  0  0  0
   60.6648   26.7681   49.4096 H   0  0  0  0  0  0  0  0  0  0  0  0
   60.9060   26.4780   45.7891 H   0  0  0  0  0  0  0  0  0  0  0  0
   61.0036   25.6299   47.3764 H   0  0  0  0  0  0  0  0  0  0  0  0
   58.5660   26.2453   48.4394 H   0  0  0  0  0  0  0  0  0  0  0  0
   57.5011   26.8719   47.1235 H   0  0  0  0  0  0  0  0  0  0  0  0
   56.7093   24.9185   48.7404 H   0  0  0  0  0  0  0  0  0  0  0  0
   55.0656   25.4289   47.1942 H   0  0  0  0  0  0  0  0  0  0  0  0
   56.1390   25.4240   45.8155 H   0  0  0  0  0  0  0  0  0  0  0  0
   54.8428   23.1017   47.2770 H   0  0  0  0  0  0  0  0  0  0  0  0
   55.1641   23.2297   45.5604 H   0  0  0  0  0  0  0  0  0  0  0  0
   56.7661   21.8195   47.3276 H   0  0  0  0  0  0  0  0  0  0  0  0
   57.4023   22.5479   45.8132 H   0  0  0  0  0  0  0  0  0  0  0  0
   59.4905   25.8346   44.4191 H   0  0  0  0  0  0  0  0  0  0  0  0
   57.9261   25.0118   44.8573 H   0  0  0  0  0  0  0  0  0  0  0  0
   55.9818   26.7040   45.9102 H   0  0  0  0  0  0  0  0  0  0  0  0
   58.5441   30.8679   43.7147 H   0  0  0  0  0  0  0  0  0  0  0  0
   57.1006   30.4909   42.7067 H   0  0  0  0  0  0  0  0  0  0  0  0
   55.9311   32.0276   43.8689 H   0  0  0  0  0  0  0  0  0  0  0  0
   56.1536   31.0204   45.3504 H   0  0  0  0  0  0  0  0  0  0  0  0
   58.3260   33.2760   43.2106 H   0  0  0  0  0  0  0  0  0  0  0  0
   59.7598   35.0639   44.2009 H   0  0  0  0  0  0  0  0  0  0  0  0
   58.3661   34.0001   48.1558 H   0  0  0  0  0  0  0  0  0  0  0  0
   56.9328   32.2087   47.1742 H   0  0  0  0  0  0  0  0  0  0  0  0
   59.6858   28.7131   45.6667 H   0  0  0  0  0  0  0  0  0  0  0  0
   59.3879   30.8769   46.8681 H   0  0  0  0  0  0  0  0  0  0  0  0
  1  2  1  0
  2  3  2  0
  2  4  2  0
  2  5  1  0
  5  6  2  0
  6  7  1  0
  7  8  2  0
  8  9  1  0
  9 10  2  0
 10 11  1  0
 11 12  2  0
 12 13  1  0
 13 14  2  0
 14 15  1  0
 15 16  1  0
 16 17  1  0
 17 18  1  0
 18 19  1  0
 19 20  1  0
 20 21  1  0
 21 22  1  0
 16 23  1  0
 23 24  1  0
 24 25  1  0
 25 26  2  0
 26 27  1  0
 26 28  1  0
 28 29  1  0
 29 30  1  0
 30 31  1  0
 31 32  2  0
 32 33  1  0
 33 34  2  0
 34 35  1  0
 34 36  1  0
 36 37  2  0
 28 38  1  0
 38 39  2  0
 14 40  1  0
 40 41  2  0
 10  5  1  0
 41 11  1  0
 22 18  1  0
 38 24  1  0
 37 31  1  0
  1 42  1  0
  6 43  1  0
  7 44  1  0
  8 45  1  0
  9 46  1  0
 12 47  1  0
 13 48  1  0
 15 49  1  0
 15 50  1  0
 17 51  1  0
 17 52  1  0
 18 53  1  1
 19 54  1  0
 19 55  1  0
 20 56  1  0
 20 57  1  0
 21 58  1  0
 21 59  1  0
 23 60  1  0
 23 61  1  0
 25 62  1  0
 29 63  1  0
 29 64  1  0
 30 65  1  0
 30 66  1  0
 32 67  1  0
 33 68  1  0
 36 69  1  0
 37 70  1  0
 40 71  1  0
 41 72  1  0
M  CHG  2   1  -1  27  -1
M  END
>  <UniqueID>  (20) 
19

>  <SMILES>  (20) 
[NH-]S(=O)(=O)c1ccccc1-c1ccc(CN(C[C@H]2CCCO2)Cn2cc([O-])n(CCc3ccc(F)cc3)c2=O)cc1

>  <Energy>  (20) 
117.6919258806244

>  <Genealogy>  (20) 
[NH-]S(=O)(=O)c1ccccc1-c1ccc(CN(CC2CCCO2)Cn2cc([O-])n(CCc3ccc(F)cc3)c2=O)cc1 (protonated)
[NH-]S(=O)(=O)c1ccccc1-c1ccc(CN(C[C@H]2CCCO2)Cn2cc([O-])n(CCc3ccc(F)cc3)c2=O)cc1 (chirality)
[NH-]S(=O)(=O)c1ccccc1-c1ccc(CN(C[C@H]2CCCO2)Cn2cc([O-])n(CCc3ccc(F)cc3)c2=O)cc1 (3D coordinates assigned)
[NH-]S(=O)(=O)c1ccccc1-c1ccc(CN(C[C@H]2CCCO2)Cn2cc([O-])n(CCc3ccc(F)cc3)c2=O)cc1 (nonaromatic ring conformer: 117.6919258806244 kcal/mol)

>  <smiles>  (20) 
NS(=O)(=O)c1ccccc1-c1ccc(CN(CC2CCCO2)Cn2cc(O)n(CCc3ccc(F)cc3)c2=O)cc1

>  <score_type>  (20) 
oracle

>  <origin>  (20) 
adg

>  <m_score__min__energy>  (20) 
-15.19

>  <m_primary>  (20) 
energy

$$$$
20:0
     RDKit          3D

101105  0  0  0  0  0  0  0  0999 V2000
   63.2640   33.7780   46.3800 C   0  0  0  0  0  0  0  0  0  0  0  0
   63.6910   33.6750   47.8430 C   0  0  0  0  0  0  0  0  0  0  0  0
   63.5170   32.2660   48.4650 C   0  0  0  0  0  0  0  0  0  0  0  0
   63.7220   32.1600   49.9350 N   0  0  0  0  0  0  0  0  0  0  0  0
   65.1310   31.9200   50.3240 C   0  0  0  0  0  0  0  0  0  0  0  0
   65.8790   33.2510   50.4470 C   0  0  0  0  0  0  0  0  0  0  0  0
   67.3860   33.0370   50.4900 C   0  0  0  0  0  0  0  0  0  0  0  0
   63.0580   33.2260   50.7180 C   0  0  0  0  0  0  0  0  0  0  0  0
   61.7200   32.7520   51.3110 C   0  0  0  0  0  0  0  0  0  0  0  0
   60.9420   31.8820   50.3510 C   0  0  0  0  0  0  0  0  0  0  0  0
   61.0100   30.4850   50.4760 C   0  0  0  0  0  0  0  0  0  0  0  0
   60.3200   29.6600   49.5900 C   0  0  0  0  0  0  0  0  0  0  0  0
   59.5420   30.2190   48.5720 C   0  0  0  0  0  0  0  0  0  0  0  0
   58.7800   29.3790   47.7110 N   0  0  0  0  0  0  0  0  0  0  0  0
   58.5780   29.7910   46.0410 S   0  0  0  0  0  0  0  0  0  0  0  0
   59.8460   30.4180   45.5360 O   0  0  0  0  0  0  0  0  0  0  0  0
   57.4570   30.7840   45.9020 O   0  0  0  0  0  0  0  0  0  0  0  0
   58.2130   28.3460   45.0990 C   0  0  0  0  0  0  0  0  0  0  0  0
   58.6790   28.2130   43.7840 C   0  0  0  0  0  0  0  0  0  0  0  0
   58.4380   27.0370   43.0680 C   0  0  0  0  0  0  0  0  0  0  0  0
   57.7410   25.9730   43.6600 C   0  0  0  0  0  0  0  0  0  0  0  0
   57.5410   24.8110   42.9000 O   0  0  0  0  0  0  0  0  0  0  0  0
   56.4950   23.8590   43.0920 C   0  0  0  0  0  0  0  0  0  0  0  0
   56.6680   23.1280   44.4320 C   0  0  0  0  0  0  0  0  0  0  0  0
   57.8810   22.3950   44.4850 O   0  0  0  0  0  0  0  0  0  0  0  0
   57.7120   21.0880   43.9630 C   0  0  0  0  0  0  0  0  0  0  0  0
   57.0460   20.1840   45.0070 C   0  0  2  0  0  0  0  0  0  0  0  0
   55.6780   20.0540   44.6960 O   0  0  0  0  0  0  0  0  0  0  0  0
   54.9590   19.9880   45.9100 C   0  0  2  0  0  0  0  0  0  0  0  0
   53.8600   20.9790   45.8920 N   0  0  0  0  0  0  0  0  0  0  0  0
   54.1630   22.3070   45.7500 C   0  0  0  0  0  0  0  0  0  0  0  0
   53.1570   23.2770   45.7310 C   0  0  0  0  0  0  0  0  0  0  0  0
   53.5080   24.7290   45.5450 C   0  0  0  0  0  0  0  0  0  0  0  0
   51.8280   22.8490   45.8180 C   0  0  0  0  0  0  0  0  0  0  0  0
   50.8790   23.6760   45.7640 O   0  0  0  0  0  0  0  0  0  0  0  0
   51.5550   21.5280   45.9570 N   0  0  0  0  0  0  0  0  0  0  0  0
   52.5440   20.5980   46.0000 C   0  0  0  0  0  0  0  0  0  0  0  0
   52.2280   19.3850   46.1390 O   0  0  0  0  0  0  0  0  0  0  0  0
   55.9100   20.2380   47.0810 C   0  0  0  0  0  0  0  0  0  0  0  0
   57.1700   20.7330   46.4240 C   0  0  1  0  0  0  0  0  0  0  0  0
   58.3110   20.2160   47.0610 O   0  0  0  0  0  0  0  0  0  0  0  0
   57.2690   26.1110   44.9780 C   0  0  0  0  0  0  0  0  0  0  0  0
   57.4970   27.2930   45.6870 C   0  0  0  0  0  0  0  0  0  0  0  0
   59.4600   31.6070   48.4410 C   0  0  0  0  0  0  0  0  0  0  0  0
   60.1370   32.4540   49.3410 C   0  0  0  0  0  0  0  0  0  0  0  0
   60.0150   33.8550   49.2770 O   0  0  0  0  0  0  0  0  0  0  0  0
   60.3650   34.6630   48.1510 C   0  0  0  0  0  0  0  0  0  0  0  0
   59.4960   34.3310   46.9660 C   0  0  0  0  0  0  0  0  0  0  0  0
   60.0320   34.3610   45.6660 C   0  0  0  0  0  0  0  0  0  0  0  0
   59.2130   34.1010   44.5590 C   0  0  0  0  0  0  0  0  0  0  0  0
   57.8610   33.7970   44.7430 C   0  0  0  0  0  0  0  0  0  0  0  0
   57.3260   33.7420   46.0360 C   0  0  0  0  0  0  0  0  0  0  0  0
   58.1400   34.0010   47.1450 C   0  0  0  0  0  0  0  0  0  0  0  0
   62.1959   34.0356   46.3270 H   0  0  0  0  0  0  0  0  0  0  0  0
   63.8549   34.5594   45.8797 H   0  0  0  0  0  0  0  0  0  0  0  0
   63.4337   32.8132   45.8797 H   0  0  0  0  0  0  0  0  0  0  0  0
   64.7534   33.9520   47.9113 H   0  0  0  0  0  0  0  0  0  0  0  0
   63.0334   34.3507   48.4095 H   0  0  0  0  0  0  0  0  0  0  0  0
   62.4938   31.9274   48.2448 H   0  0  0  0  0  0  0  0  0  0  0  0
   64.3088   31.6490   48.0151 H   0  0  0  0  0  0  0  0  0  0  0  0
   65.1570   31.3976   51.2917 H   0  0  0  0  0  0  0  0  0  0  0  0
   65.6169   31.3048   49.5524 H   0  0  0  0  0  0  0  0  0  0  0  0
   65.6314   33.8825   49.5811 H   0  0  0  0  0  0  0  0  0  0  0  0
   65.5705   33.7372   51.3843 H   0  0  0  0  0  0  0  0  0  0  0  0
   67.7199   32.9896   51.5370 H   0  0  0  0  0  0  0  0  0  0  0  0
   67.6371   32.0942   49.9820 H   0  0  0  0  0  0  0  0  0  0  0  0
   67.8897   33.8726   49.9820 H   0  0  0  0  0  0  0  0  0  0  0  0
   63.7231   33.5310   51.5394 H   0  0  0  0  0  0  0  0  0  0  0  0
   62.8521   34.0686   50.0415 H   0  0  0  0  0  0  0  0  0  0  0  0
   61.9231   32.1754   52.2255 H   0  0  0  0  0  0  0  0  0  0  0  0
   61.1123   33.6437   51.5243 H   0  0  0  0  0  0  0  0  0  0  0  0
   61.6131   30.0381   51.2801 H   0  0  0  0  0  0  0  0  0  0  0  0
   60.3876   28.5668   49.6918 H   0  0  0  0  0  0  0  0  0  0  0  0
   59.2362   29.0367   43.3138 H   0  0  0  0  0  0  0  0  0  0  0  0
   58.7975   26.9450   42.0325 H   0  0  0  0  0  0  0  0  0  0  0  0
   55.5264   24.3803   43.0871 H   0  0  0  0  0  0  0  0  0  0  0  0
   56.5340   23.1205   42.2777 H   0  0  0  0  0  0  0  0  0  0  0  0
   56.6657   23.8700   45.2441 H   0  0  0  0  0  0  0  0  0  0  0  0
   55.8362   22.4164   44.5405 H   0  0  0  0  0  0  0  0  0  0  0  0
   57.0784   21.1343   43.0650 H   0  0  0  0  0  0  0  0  0  0  0  0
   58.6979   20.6737   43.7054 H   0  0  0  0  0  0  0  0  0  0  0  0
   57.5616   19.2128   44.9756 H   0  0  0  0  0  0  0  0  0  0  0  0
   54.5175   18.9877   46.0303 H   0  0  0  0  0  0  0  0  0  0  0  0
   55.2142   22.6149   45.6494 H   0  0  0  0  0  0  0  0  0  0  0  0
   53.6236   25.2072   46.5288 H   0  0  0  0  0  0  0  0  0  0  0  0
   54.4514   24.8094   44.9851 H   0  0  0  0  0  0  0  0  0  0  0  0
   52.7054   25.2314   44.9851 H   0  0  0  0  0  0  0  0  0  0  0  0
   55.4999   20.9973   47.7631 H   0  0  0  0  0  0  0  0  0  0  0  0
   56.0754   19.3389   47.6928 H   0  0  0  0  0  0  0  0  0  0  0  0
   57.2805   21.8267   46.4649 H   0  0  0  0  0  0  0  0  0  0  0  0
   58.9060   19.8800   46.3400 H   0  0  0  0  0  0  0  0  0  0  0  0
   56.7184   25.2852   45.4521 H   0  0  0  0  0  0  0  0  0  0  0  0
   57.1128   27.3984   46.7123 H   0  0  0  0  0  0  0  0  0  0  0  0
   58.8614   32.0431   47.6277 H   0  0  0  0  0  0  0  0  0  0  0  0
   60.2304   35.7232   48.4116 H   0  0  0  0  0  0  0  0  0  0  0  0
   61.4142   34.4650   47.8864 H   0  0  0  0  0  0  0  0  0  0  0  0
   61.0978   34.5893   45.5177 H   0  0  0  0  0  0  0  0  0  0  0  0
   59.6347   34.1362   43.5436 H   0  0  0  0  0  0  0  0  0  0  0  0
   57.2177   33.6011   43.8725 H   0  0  0  0  0  0  0  0  0  0  0  0
   56.2639   33.4948   46.1805 H   0  0  0  0  0  0  0  0  0  0  0  0
   57.7182   33.9464   48.1595 H   0  0  0  0  0  0  0  0  0  0  0  0
  1  2  1  0
  2  3  1  0
  3  4  1  0
  4  5  1  0
  5  6  1  0
  6  7  1  0
  4  8  1  0
  8  9  1  0
  9 10  1  0
 10 11  2  0
 11 12  1  0
 12 13  2  0
 13 14  1  0
 14 15  1  0
 15 16  2  0
 15 17  2  0
 15 18  1  0
 18 19  2  0
 19 20  1  0
 20 21  2  0
 21 22  1  0
 22 23  1  0
 23 24  1  0
 24 25  1  0
 25 26  1  0
 26 27  1  0
 27 28  1  0
 28 29  1  0
 29 30  1  0
 30 31  1  0
 31 32  2  0
 32 33  1  0
 32 34  1  0
 34 35  2  0
 34 36  1  0
 36 37  1  0
 37 38  2  0
 29 39  1  0
 39 40  1  0
 40 41  1  0
 21 42  1  0
 42 43  2  0
 13 44  1  0
 44 45  2  0
 45 46  1  0
 46 47  1  0
 47 48  1  0
 48 49  2  0
 49 50  1  0
 50 51  2  0
 51 52  1  0
 52 53  2  0
 45 10  1  0
 53 48  1  0
 43 18  1  0
 40 27  1  0
 37 30  1  0
  1 54  1  0
  1 55  1  0
  1 56  1  0
  2 57  1  0
  2 58  1  0
  3 59  1  0
  3 60  1  0
  5 61  1  0
  5 62  1  0
  6 63  1  0
  6 64  1  0
  7 65  1  0
  7 66  1  0
  7 67  1  0
  8 68  1  0
  8 69  1  0
  9 70  1  0
  9 71  1  0
 11 72  1  0
 12 73  1  0
 19 74  1  0
 20 75  1  0
 23 76  1  0
 23 77  1  0
 24 78  1  0
 24 79  1  0
 26 80  1  0
 26 81  1  0
 27 82  1  1
 29 83  1  1
 31 84  1  0
 33 85  1  0
 33 86  1  0
 33 87  1  0
 39 88  1  0
 39 89  1  0
 40 90  1  6
 41 91  1  0
 42 92  1  0
 43 93  1  0
 44 94  1  0
 47 95  1  0
 47 96  1  0
 49 97  1  0
 50 98  1  0
 51 99  1  0
 52100  1  0
 53101  1  0
M  CHG  2  14  -1  36  -1
M  END
>  <UniqueID>  (21) 
20

>  <SMILES>  (21) 
CCCN(CCC)CCc1ccc([N-]S(=O)(=O)c2ccc(OCCOC[C@@H]3O[C@H](n4cc(C)c(=O)[n-]c4=O)CC3O)cc2)cc1OCc1ccccc1

>  <Energy>  (21) 
117.36154326743458

>  <Genealogy>  (21) 
CCCN(CCC)CCc1ccc([N-]S(=O)(=O)c2ccc(OCCOCC3OC(n4cc(C)c(=O)[n-]c4=O)CC3O)cc2)cc1OCc1ccccc1 (protonated)
CCCN(CCC)CCc1ccc([N-]S(=O)(=O)c2ccc(OCCOC[C@@H]3O[C@H](n4cc(C)c(=O)[n-]c4=O)CC3O)cc2)cc1OCc1ccccc1 (chirality)
CCCN(CCC)CCc1ccc([N-]S(=O)(=O)c2ccc(OCCOC[C@@H]3O[C@H](n4cc(C)c(=O)[n-]c4=O)CC3O)cc2)cc1OCc1ccccc1 (3D coordinates assigned)
CCCN(CCC)CCc1ccc([N-]S(=O)(=O)c2ccc(OCCOC[C@@H]3O[C@H](n4cc(C)c(=O)[n-]c4=O)CC3O)cc2)cc1OCc1ccccc1 (nonaromatic ring conformer: 117.36154326743458 kcal/mol)

>  <smiles>  (21) 
CCCN(CCC)CCc1ccc(NS(=O)(=O)c2ccc(OCCOCC3OC(n4cc(C)c(=O)[nH]c4=O)CC3O)cc2)cc1OCc1ccccc1

>  <score_type>  (21) 
oracle

>  <origin>  (21) 
adg

>  <m_score__min__energy>  (21) 
-11.93

>  <m_primary>  (21) 
energy

$$$$
21:0
     RDKit          3D

 36 37  0  0  1  0  0  0  0  0999 V2000
   64.1210   32.5300   47.3490 N   0  0  0  0  0  0  0  0  0  0  0  0
   62.9780   33.2410   46.9410 C   0  0  0  0  0  0  0  0  0  0  0  0
   63.1660   34.2240   46.1520 O   0  0  0  0  0  0  0  0  0  0  0  0
   61.6500   32.9040   47.3740 C   0  0  0  0  0  0  0  0  0  0  0  0
   61.1060   31.6730   47.0700 C   0  0  0  0  0  0  0  0  0  0  0  0
   59.8270   31.3100   47.4700 C   0  0  0  0  0  0  0  0  0  0  0  0
   59.4150   30.1360   47.1330 N   0  0  0  0  0  0  0  0  0  0  0  0
   58.9570   29.8860   45.7960 C   0  0  0  0  0  0  0  0  0  0  0  0
   57.5080   30.2490   45.5640 C   0  0  1  0  0  0  0  0  0  0  0  0
   57.4360   31.5670   44.8710 C   0  0  0  0  0  0  0  0  0  0  0  0
   57.7000   31.4300   43.3830 C   0  0  0  0  0  0  0  0  0  0  0  0
   56.6150   30.5110   42.8500 C   0  0  0  0  0  0  0  0  0  0  0  0
   57.0120   29.1230   43.3600 C   0  0  0  0  0  0  0  0  0  0  0  0
   56.8030   29.1250   44.8500 C   0  0  2  0  0  0  0  0  0  0  0  0
   55.4360   29.2630   45.0740 O   0  0  0  0  0  0  0  0  0  0  0  0
   59.0830   32.1750   48.1760 N   0  0  0  0  0  0  0  0  0  0  0  0
   59.6170   33.3750   48.4720 C   0  0  0  0  0  0  0  0  0  0  0  0
   60.8540   33.7430   48.0920 N   0  0  0  0  0  0  0  0  0  0  0  0
   64.4170   31.6920   46.7720 H   0  0  0  0  0  0  0  0  0  0  0  0
   64.7170   32.7390   48.1640 H   0  0  0  0  0  0  0  0  0  0  0  0
   61.7058   30.9551   46.4913 H   0  0  0  0  0  0  0  0  0  0  0  0
   59.5761   30.4742   45.1027 H   0  0  0  0  0  0  0  0  0  0  0  0
   59.0444   28.8025   45.6272 H   0  0  0  0  0  0  0  0  0  0  0  0
   56.9716   30.3728   46.5163 H   0  0  0  0  0  0  0  0  0  0  0  0
   56.4327   31.9934   45.0179 H   0  0  0  0  0  0  0  0  0  0  0  0
   58.2080   32.2236   45.2987 H   0  0  0  0  0  0  0  0  0  0  0  0
   57.6437   32.4130   42.8925 H   0  0  0  0  0  0  0  0  0  0  0  0
   58.7039   31.0254   43.1868 H   0  0  0  0  0  0  0  0  0  0  0  0
   55.6295   30.8031   43.2418 H   0  0  0  0  0  0  0  0  0  0  0  0
   56.5329   30.5487   41.7537 H   0  0  0  0  0  0  0  0  0  0  0  0
   56.3810   28.3536   42.8911 H   0  0  0  0  0  0  0  0  0  0  0  0
   58.0596   28.8983   43.1110 H   0  0  0  0  0  0  0  0  0  0  0  0
   57.2201   28.1870   45.2452 H   0  0  0  0  0  0  0  0  0  0  0  0
   55.2380   30.0840   45.6210 H   0  0  0  0  0  0  0  0  0  0  0  0
   58.1300   31.8900   48.4690 H   0  0  0  0  0  0  0  0  0  0  0  0
   59.0132   34.0884   49.0521 H   0  0  0  0  0  0  0  0  0  0  0  0
  1  2  1  0
  2  3  2  0
  2  4  1  0
  4  5  2  0
  5  6  1  0
  6  7  2  0
  7  8  1  0
  8  9  1  0
  9 10  1  0
 10 11  1  0
 11 12  1  0
 12 13  1  0
 13 14  1  0
 14 15  1  0
  6 16  1  0
 16 17  1  0
 17 18  2  0
 18  4  1  0
 14  9  1  0
  1 19  1  0
  1 20  1  0
  5 21  1  0
  8 22  1  0
  8 23  1  0
  9 24  1  1
 10 25  1  0
 10 26  1  0
 11 27  1  0
 11 28  1  0
 12 29  1  0
 12 30  1  0
 13 31  1  0
 13 32  1  0
 14 33  1  1
 15 34  1  0
 16 35  1  0
 17 36  1  0
M  END
>  <smiles>  (22) 
NC(=O)c1cc(=NCC2CCCCC2O)[nH]cn1

>  <score_type>  (22) 
oracle

>  <origin>  (22) 
adg

>  <m_score__min__energy>  (22) 
-7.2699999999999996

>  <m_primary>  (22) 
energy

$$$$
22:0
     RDKit          3D

 42 45  0  0  0  0  0  0  0  0999 V2000
   59.6587   24.8017   46.3602 H   0  0  0  0  0  0  0  0  0  0  0  0
   58.6340   25.1940   46.2820 C   0  0  0  0  0  0  0  0  0  0  0  0
   58.3900   26.3190   45.5580 N   0  0  0  0  0  0  0  0  0  0  0  0
   57.1340   26.8370   45.4250 C   0  0  0  0  0  0  0  0  0  0  0  0
   56.9270   27.9230   44.7390 N   0  0  0  0  0  0  0  0  0  0  0  0
   57.1500   29.2670   45.1950 C   0  0  0  0  0  0  0  0  0  0  0  0
   56.2090   30.0990   45.0990 O   0  0  0  0  0  0  0  0  0  0  0  0
   58.4640   29.7170   45.7160 C   0  0  0  0  0  0  0  0  0  0  0  0
   59.5140   28.7870   45.9110 C   0  0  0  0  0  0  0  0  0  0  0  0
   59.3578   27.7276   45.6594 H   0  0  0  0  0  0  0  0  0  0  0  0
   60.7510   29.2050   46.4220 C   0  0  0  0  0  0  0  0  0  0  0  0
   61.5619   28.4838   46.6017 H   0  0  0  0  0  0  0  0  0  0  0  0
   60.9230   30.5570   46.6950 C   0  0  0  0  0  0  0  0  0  0  0  0
   62.0030   31.1990   47.2510 C   0  0  0  0  0  0  0  0  0  0  0  0
   62.9663   30.7580   47.5469 H   0  0  0  0  0  0  0  0  0  0  0  0
   61.6120   32.5240   47.3570 C   0  0  0  0  0  0  0  0  0  0  0  0
   60.3670   32.7240   46.8450 N   0  0  0  0  0  0  0  0  0  0  0  0
   59.9340   31.4890   46.4740 C   0  0  0  0  0  0  0  0  0  0  0  0
   58.6770   31.0850   45.9990 C   0  0  0  0  0  0  0  0  0  0  0  0
   57.8721   31.8197   45.8497 H   0  0  0  0  0  0  0  0  0  0  0  0
   59.7660   34.0730   46.7330 C   0  0  1  0  0  0  0  0  0  0  0  0
   60.5878   34.7223   46.3968 H   0  0  0  0  0  0  0  0  0  0  0  0
   58.6940   34.2170   45.6430 C   0  0  0  0  0  0  0  0  0  0  0  0
   57.7084   34.3494   46.1132 H   0  0  0  0  0  0  0  0  0  0  0  0
   58.9224   35.0925   45.0175 H   0  0  0  0  0  0  0  0  0  0  0  0
   58.6833   33.3122   45.0175 H   0  0  0  0  0  0  0  0  0  0  0  0
   59.2660   34.5810   48.0990 C   0  0  0  0  0  0  0  0  0  0  0  0
   59.0404   35.6537   48.0074 H   0  0  0  0  0  0  0  0  0  0  0  0
   58.3801   33.9817   48.3561 H   0  0  0  0  0  0  0  0  0  0  0  0
   60.2780   34.3950   49.2470 C   0  0  0  0  0  0  0  0  0  0  0  0
   60.0534   35.1269   50.0369 H   0  0  0  0  0  0  0  0  0  0  0  0
   60.1817   33.3620   49.6125 H   0  0  0  0  0  0  0  0  0  0  0  0
   61.6650   34.5850   48.8110 N   0  0  0  0  0  0  0  0  0  0  0  0
   62.2110   35.3820   49.2090 H   0  0  0  0  0  0  0  0  0  0  0  0
   62.3650   33.5620   48.0850 C   0  0  0  0  0  0  0  0  0  0  0  0
   63.6230   33.5370   48.0960 O   0  0  0  0  0  0  0  0  0  0  0  0
   56.0590   26.2050   46.0690 C   0  0  0  0  0  0  0  0  0  0  0  0
   54.7690   26.7170   45.9650 O   0  0  0  0  0  0  0  0  0  0  0  0
   56.2900   25.0490   46.8180 C   0  0  0  0  0  0  0  0  0  0  0  0
   55.4535   24.5428   47.3220 H   0  0  0  0  0  0  0  0  0  0  0  0
   57.5840   24.5370   46.9260 C   0  0  0  0  0  0  0  0  0  0  0  0
   57.7743   23.6258   47.5121 H   0  0  0  0  0  0  0  0  0  0  0  0
  1  2  1  0
  2  3  1  0
  3  4  1  0
  4  5  2  0
  5  6  1  0
  6  7  2  0
  6  8  1  0
  8  9  2  0
  9 10  1  0
  9 11  1  0
 11 12  1  0
 11 13  2  0
 13 14  1  0
 14 15  1  0
 14 16  2  0
 16 17  1  0
 17 18  1  0
 18 19  2  0
 19 20  1  0
 17 21  1  0
 21 22  1  6
 21 23  1  0
 23 24  1  0
 23 25  1  0
 23 26  1  0
 21 27  1  0
 27 28  1  0
 27 29  1  0
 27 30  1  0
 30 31  1  0
 30 32  1  0
 30 33  1  0
 33 34  1  0
 33 35  1  0
 35 36  2  0
  4 37  1  0
 37 38  1  0
 37 39  2  0
 39 40  1  0
 39 41  1  0
 41 42  1  0
 41  2  2  0
 19  8  1  0
 18 13  1  0
 35 16  1  0
M  CHG  2   3  -1  38  -1
M  END
>  <UniqueID>  (23) 
21

>  <SMILES>  (23) 
C[C@H]1CCNC(=O)c2cc3ccc(C(=O)/N=c4\[n-]cccc4[O-])cc3n21

>  <Energy>  (23) 
98.90774583745137

>  <Genealogy>  (23) 
CC1CCNC(=O)c2cc3ccc(C(=O)N=c4[n-]cccc4[O-])cc3n21 (protonated)
C[C@H]1CCNC(=O)c2cc3ccc(C(=O)N=c4[n-]cccc4[O-])cc3n21 (chirality)
C[C@H]1CCNC(=O)c2cc3ccc(C(=O)/N=c4\[n-]cccc4[O-])cc3n21 (cis-trans isomerization)
C[C@H]1CCNC(=O)c2cc3ccc(C(=O)/N=c4\[n-]cccc4[O-])cc3n21 (3D coordinates assigned)
C[C@H]1CCNC(=O)c2cc3ccc(C(=O)/N=c4\[n-]cccc4[O-])cc3n21 (nonaromatic ring conformer: 98.90774583745137 kcal/mol)

>  <smiles>  (23) 
CC1CCNC(=O)c2cc3ccc(C(=O)N=c4[nH]cccc4O)cc3n21

>  <score_type>  (23) 
oracle

>  <origin>  (23) 
adg

>  <m_score__min__energy>  (23) 
-12.210000000000001

>  <m_primary>  (23) 
energy

$$$$
23:0
     RDKit          3D

 64 68  0  0  0  0  0  0  0  0999 V2000
   63.4805   32.3716   51.3083 H   0  0  0  0  0  0  0  0  0  0  0  0
   62.9150   31.4380   51.1720 C   0  0  0  0  0  0  0  0  0  0  0  0
   63.4120   30.2730   51.6430 N   0  0  0  0  0  0  0  0  0  0  0  0
   62.7350   29.1030   51.5260 C   0  0  0  0  0  0  0  0  0  0  0  0
   63.3140   27.9460   52.0580 C   0  0  0  0  0  0  0  0  0  0  0  0
   64.3061   27.9973   52.5303 H   0  0  0  0  0  0  0  0  0  0  0  0
   62.6390   26.7290   51.9920 C   0  0  0  0  0  0  0  0  0  0  0  0
   63.3720   25.2840   52.6590 Cl  0  0  0  0  0  0  0  0  0  0  0  0
   61.3740   26.6680   51.4120 C   0  0  0  0  0  0  0  0  0  0  0  0
   60.8358   25.7093   51.3787 H   0  0  0  0  0  0  0  0  0  0  0  0
   60.7820   27.8130   50.8720 C   0  0  0  0  0  0  0  0  0  0  0  0
   59.7739   27.7479   50.4367 H   0  0  0  0  0  0  0  0  0  0  0  0
   61.4610   29.0560   50.8770 C   0  0  0  0  0  0  0  0  0  0  0  0
   60.9590   30.2770   50.3120 C   0  0  0  0  0  0  0  0  0  0  0  0
   59.9040   30.4040   49.5470 N   0  0  0  0  0  0  0  0  0  0  0  0
   58.6830   31.1920   49.6530 C   0  0  0  0  0  0  0  0  0  0  0  0
   58.7353   31.8313   50.5466 H   0  0  0  0  0  0  0  0  0  0  0  0
   57.8172   30.5184   49.7349 H   0  0  0  0  0  0  0  0  0  0  0  0
   58.5320   32.0720   48.4010 C   0  0  0  0  0  0  0  0  0  0  0  0
   57.4720   32.3401   48.2800 H   0  0  0  0  0  0  0  0  0  0  0  0
   58.8966   31.4999   47.5351 H   0  0  0  0  0  0  0  0  0  0  0  0
   59.3590   33.3560   48.5050 C   0  0  0  0  0  0  0  0  0  0  0  0
   60.4135   33.0972   48.6810 H   0  0  0  0  0  0  0  0  0  0  0  0
   58.9805   33.9635   49.3402 H   0  0  0  0  0  0  0  0  0  0  0  0
   59.2470   34.1320   47.2480 N   0  0  0  0  0  0  0  0  0  0  0  0
   60.5780   34.5020   46.7150 C   0  0  0  0  0  0  0  0  0  0  0  0
   60.5021   34.6383   45.6261 H   0  0  0  0  0  0  0  0  0  0  0  0
   60.8997   35.4335   47.2037 H   0  0  0  0  0  0  0  0  0  0  0  0
   61.5980   33.4410   47.0040 C   0  0  0  0  0  0  0  0  0  0  0  0
   61.3940   32.1580   46.8230 O   0  0  0  0  0  0  0  0  0  0  0  0
   62.4810   31.5070   47.1790 C   0  0  0  0  0  0  0  0  0  0  0  0
   62.6066   30.4149   47.1403 H   0  0  0  0  0  0  0  0  0  0  0  0
   63.4410   32.4040   47.6090 C   0  0  0  0  0  0  0  0  0  0  0  0
   64.4534   32.1683   47.9688 H   0  0  0  0  0  0  0  0  0  0  0  0
   62.8710   33.6540   47.4950 C   0  0  0  0  0  0  0  0  0  0  0  0
   63.3340   34.6204   47.7435 H   0  0  0  0  0  0  0  0  0  0  0  0
   58.3720   33.4620   46.2550 C   0  0  0  0  0  0  0  0  0  0  0  0
   57.3748   33.3329   46.7010 H   0  0  0  0  0  0  0  0  0  0  0  0
   58.8449   32.5011   46.0039 H   0  0  0  0  0  0  0  0  0  0  0  0
   58.2190   34.2500   44.9370 C   0  0  0  0  0  0  0  0  0  0  0  0
   59.1702   34.7536   44.7098 H   0  0  0  0  0  0  0  0  0  0  0  0
   57.4078   34.9817   45.0660 H   0  0  0  0  0  0  0  0  0  0  0  0
   57.8510   33.3260   43.7640 C   0  0  0  0  0  0  0  0  0  0  0  0
   58.3858   33.6584   42.8620 H   0  0  0  0  0  0  0  0  0  0  0  0
   56.7636   33.3749   43.6054 H   0  0  0  0  0  0  0  0  0  0  0  0
   58.2190   31.9420   44.0560 N   0  0  0  0  0  0  0  0  0  0  0  0
   57.5800   30.9160   44.5690 C   0  0  0  0  0  0  0  0  0  0  0  0
   56.2430   30.7940   44.1620 C   0  0  0  0  0  0  0  0  0  0  0  0
   55.7777   31.6042   43.5815 H   0  0  0  0  0  0  0  0  0  0  0  0
   55.4970   29.6650   44.4810 C   0  0  0  0  0  0  0  0  0  0  0  0
   54.4518   29.5843   44.1477 H   0  0  0  0  0  0  0  0  0  0  0  0
   56.0560   28.6660   45.2010 N   0  0  0  0  0  0  0  0  0  0  0  0
   57.3270   28.7410   45.6750 C   0  0  0  0  0  0  0  0  0  0  0  0
   57.8240   27.6700   46.4320 C   0  0  0  0  0  0  0  0  0  0  0  0
   57.2000   26.7779   46.5897 H   0  0  0  0  0  0  0  0  0  0  0  0
   59.1010   27.7260   46.9860 C   0  0  0  0  0  0  0  0  0  0  0  0
   59.7190   26.3730   47.9250 Cl  0  0  0  0  0  0  0  0  0  0  0  0
   59.8720   28.8730   46.8240 C   0  0  0  0  0  0  0  0  0  0  0  0
   60.8674   28.9326   47.2884 H   0  0  0  0  0  0  0  0  0  0  0  0
   59.3890   29.9510   46.0740 C   0  0  0  0  0  0  0  0  0  0  0  0
   59.9978   30.8631   45.9880 H   0  0  0  0  0  0  0  0  0  0  0  0
   58.1300   29.8920   45.4220 C   0  0  0  0  0  0  0  0  0  0  0  0
   61.6890   31.4580   50.5150 C   0  0  0  0  0  0  0  0  0  0  0  0
   61.2858   32.4138   50.1492 H   0  0  0  0  0  0  0  0  0  0  0  0
  1  2  1  0
  2  3  1  0
  3  4  1  0
  4  5  2  0
  5  6  1  0
  5  7  1  0
  7  8  1  0
  7  9  2  0
  9 10  1  0
  9 11  1  0
 11 12  1  0
 11 13  2  0
 13 14  1  0
 14 15  2  0
 15 16  1  0
 16 17  1  0
 16 18  1  0
 16 19  1  0
 19 20  1  0
 19 21  1  0
 19 22  1  0
 22 23  1  0
 22 24  1  0
 22 25  1  0
 25 26  1  0
 26 27  1  0
 26 28  1  0
 26 29  1  0
 29 30  1  0
 30 31  1  0
 31 32  1  0
 31 33  2  0
 33 34  1  0
 33 35  1  0
 35 36  1  0
 25 37  1  0
 37 38  1  0
 37 39  1  0
 37 40  1  0
 40 41  1  0
 40 42  1  0
 40 43  1  0
 43 44  1  0
 43 45  1  0
 43 46  1  0
 46 47  2  0
 47 48  1  0
 48 49  1  0
 48 50  2  0
 50 51  1  0
 50 52  1  0
 52 53  1  0
 53 54  2  0
 54 55  1  0
 54 56  1  0
 56 57  1  0
 56 58  2  0
 58 59  1  0
 58 60  1  0
 60 61  1  0
 60 62  2  0
 14 63  1  0
 63 64  1  0
 63  2  2  0
 13  4  1  0
 35 29  2  0
 62 47  1  0
 62 53  1  0
M  CHG  2   3  -1  52  -1
M  END
>  <UniqueID>  (24) 
22

>  <SMILES>  (24) 
Clc1ccc2/c(=N\CCCN(CCC/N=c3/cc[n-]c4cc(Cl)ccc34)Cc3ccco3)cc[n-]c2c1

>  <Energy>  (24) 
130.24187954869467

>  <Genealogy>  (24) 
Clc1ccc2c(=NCCCN(CCCN=c3cc[n-]c4cc(Cl)ccc34)Cc3ccco3)cc[n-]c2c1 (protonated)
Clc1ccc2/c(=N\CCCN(CCC/N=c3/cc[n-]c4cc(Cl)ccc34)Cc3ccco3)cc[n-]c2c1 (cis-trans isomerization)
Clc1ccc2/c(=N\CCCN(CCC/N=c3/cc[n-]c4cc(Cl)ccc34)Cc3ccco3)cc[n-]c2c1 (3D coordinates assigned)
Clc1ccc2/c(=N\CCCN(CCC/N=c3/cc[n-]c4cc(Cl)ccc34)Cc3ccco3)cc[n-]c2c1 (optimized conformer: 130.24187954869467 kcal/mol)

>  <smiles>  (24) 
Clc1ccc2c(=NCCCN(CCCN=c3cc[nH]c4cc(Cl)ccc34)Cc3ccco3)cc[nH]c2c1

>  <score_type>  (24) 
oracle

>  <origin>  (24) 
adg

>  <m_score__min__energy>  (24) 
-11.34

>  <m_primary>  (24) 
energy

$$$$
24:0
     RDKit          3D

 53 55  0  0  0  0  0  0  0  0999 V2000
   60.6290   26.3650   46.6350 C   0  0  0  0  0  0  0  0  0  0  0  0
   59.4740   26.1660   47.4470 O   0  0  0  0  0  0  0  0  0  0  0  0
   58.2200   25.7510   46.9640 C   0  0  0  0  0  0  0  0  0  0  0  0
   57.7200   24.4590   47.2100 C   0  0  0  0  0  0  0  0  0  0  0  0
   56.4760   24.0690   46.7120 C   0  0  0  0  0  0  0  0  0  0  0  0
   55.6980   24.9710   45.9870 C   0  0  0  0  0  0  0  0  0  0  0  0
   56.1760   26.2600   45.7470 C   0  0  0  0  0  0  0  0  0  0  0  0
   57.4480   26.6540   46.1950 C   0  0  0  0  0  0  0  0  0  0  0  0
   57.9820   28.0420   45.9070 C   0  0  0  0  0  0  0  0  0  0  0  0
   57.3670   28.6680   44.7220 N   0  0  0  0  0  0  0  0  0  0  0  0
   57.7380   28.1810   43.3810 C   0  0  0  0  0  0  0  0  0  0  0  0
   56.3560   29.7020   44.8070 C   0  0  0  0  0  0  0  0  0  0  0  0
   55.1400   29.3790   44.7560 O   0  0  0  0  0  0  0  0  0  0  0  0
   56.6820   31.0920   44.7740 N   0  0  0  0  0  0  0  0  0  0  0  0
   57.7950   31.7330   45.4070 C   0  0  0  0  0  0  0  0  0  0  0  0
   58.2400   33.0080   45.0140 C   0  0  0  0  0  0  0  0  0  0  0  0
   59.3410   33.5960   45.6520 C   0  0  0  0  0  0  0  0  0  0  0  0
   60.0140   32.9040   46.6730 C   0  0  0  0  0  0  0  0  0  0  0  0
   61.4390   33.5850   47.4580 S   0  0  0  0  0  0  0  0  0  0  0  0
   60.9850   34.6630   48.4050 O   0  0  0  0  0  0  0  0  0  0  0  0
   62.3650   34.1990   46.4400 O   0  0  0  0  0  0  0  0  0  0  0  0
   62.2520   32.3170   48.3490 N   0  0  0  0  0  0  0  0  0  0  0  0
   63.7010   32.3070   48.0840 C   0  0  0  0  0  0  0  0  0  0  0  0
   64.4650   33.3840   48.8930 C   0  0  0  0  0  0  0  0  0  0  0  0
   63.7260   33.9130   49.9770 O   0  0  0  0  0  0  0  0  0  0  0  0
   63.0630   32.8780   50.6620 C   0  0  0  0  0  0  0  0  0  0  0  0
   61.9210   32.3290   49.7930 C   0  0  0  0  0  0  0  0  0  0  0  0
   59.5850   31.6240   47.0390 C   0  0  0  0  0  0  0  0  0  0  0  0
   58.4900   31.0370   46.4020 C   0  0  0  0  0  0  0  0  0  0  0  0
   61.5081   26.5165   47.2787 H   0  0  0  0  0  0  0  0  0  0  0  0
   60.7875   25.4809   45.9999 H   0  0  0  0  0  0  0  0  0  0  0  0
   60.4825   27.2511   45.9999 H   0  0  0  0  0  0  0  0  0  0  0  0
   58.3162   23.7485   47.8014 H   0  0  0  0  0  0  0  0  0  0  0  0
   56.1084   23.0479   46.8918 H   0  0  0  0  0  0  0  0  0  0  0  0
   54.7117   24.6678   45.6059 H   0  0  0  0  0  0  0  0  0  0  0  0
   55.5478   26.9779   45.1992 H   0  0  0  0  0  0  0  0  0  0  0  0
   57.7853   28.6803   46.7810 H   0  0  0  0  0  0  0  0  0  0  0  0
   59.0580   27.9416   45.7016 H   0  0  0  0  0  0  0  0  0  0  0  0
   58.4020   27.3094   43.4782 H   0  0  0  0  0  0  0  0  0  0  0  0
   56.8300   27.8908   42.8321 H   0  0  0  0  0  0  0  0  0  0  0  0
   58.2589   28.9794   42.8321 H   0  0  0  0  0  0  0  0  0  0  0  0
   57.7232   33.5446   44.2047 H   0  0  0  0  0  0  0  0  0  0  0  0
   59.6782   34.5995   45.3532 H   0  0  0  0  0  0  0  0  0  0  0  0
   64.1005   31.3175   48.3508 H   0  0  0  0  0  0  0  0  0  0  0  0
   63.8446   32.5299   47.0164 H   0  0  0  0  0  0  0  0  0  0  0  0
   65.3865   32.9321   49.2888 H   0  0  0  0  0  0  0  0  0  0  0  0
   64.6678   34.2182   48.2053 H   0  0  0  0  0  0  0  0  0  0  0  0
   63.7761   32.0698   50.8817 H   0  0  0  0  0  0  0  0  0  0  0  0
   62.6483   33.2711   51.6020 H   0  0  0  0  0  0  0  0  0  0  0  0
   61.7010   31.2994   50.1115 H   0  0  0  0  0  0  0  0  0  0  0  0
   61.0541   32.9925   49.9282 H   0  0  0  0  0  0  0  0  0  0  0  0
   60.1134   31.0766   47.8334 H   0  0  0  0  0  0  0  0  0  0  0  0
   58.1722   30.0223   46.6838 H   0  0  0  0  0  0  0  0  0  0  0  0
  1  2  1  0
  2  3  1  0
  3  4  2  0
  4  5  1  0
  5  6  2  0
  6  7  1  0
  7  8  2  0
  8  9  1  0
  9 10  1  0
 10 11  1  0
 10 12  1  0
 12 13  2  0
 12 14  1  0
 14 15  1  0
 15 16  2  0
 16 17  1  0
 17 18  2  0
 18 19  1  0
 19 20  2  0
 19 21  2  0
 19 22  1  0
 22 23  1  0
 23 24  1  0
 24 25  1  0
 25 26  1  0
 26 27  1  0
 18 28  1  0
 28 29  2  0
  8  3  1  0
 29 15  1  0
 27 22  1  0
  1 30  1  0
  1 31  1  0
  1 32  1  0
  4 33  1  0
  5 34  1  0
  6 35  1  0
  7 36  1  0
  9 37  1  0
  9 38  1  0
 11 39  1  0
 11 40  1  0
 11 41  1  0
 16 42  1  0
 17 43  1  0
 23 44  1  0
 23 45  1  0
 24 46  1  0
 24 47  1  0
 26 48  1  0
 26 49  1  0
 27 50  1  0
 27 51  1  0
 28 52  1  0
 29 53  1  0
M  CHG  1  14  -1
M  END
>  <UniqueID>  (25) 
23

>  <SMILES>  (25) 
COc1ccccc1CN(C)C(=O)[N-]c1ccc(S(=O)(=O)N2CCOCC2)cc1

>  <Energy>  (25) 
70.82046214606117

>  <Genealogy>  (25) 
COc1ccccc1CN(C)C(=O)[N-]c1ccc(S(=O)(=O)N2CCOCC2)cc1 (protonated)
COc1ccccc1CN(C)C(=O)[N-]c1ccc(S(=O)(=O)N2CCOCC2)cc1 (3D coordinates assigned)
COc1ccccc1CN(C)C(=O)[N-]c1ccc(S(=O)(=O)N2CCOCC2)cc1 (nonaromatic ring conformer: 70.82046214606117 kcal/mol)

>  <smiles>  (25) 
COc1ccccc1CN(C)C(=O)Nc1ccc(S(=O)(=O)N2CCOCC2)cc1

>  <score_type>  (25) 
oracle

>  <origin>  (25) 
adg

>  <m_score__min__energy>  (25) 
-10.06

>  <m_primary>  (25) 
energy

$$$$
25:0
     RDKit          3D

 50 52  0  0  0  0  0  0  0  0999 V2000
   59.6740   34.0160   49.9730 C   0  0  0  0  0  0  0  0  0  0  0  0
   60.7560   33.7410   49.0100 N   0  0  0  0  0  0  0  0  0  0  0  0
   61.8710   33.0390   49.4170 C   0  0  0  0  0  0  0  0  0  0  0  0
   61.9810   32.4940   50.7420 N   0  0  0  0  0  0  0  0  0  0  0  0
   62.9260   32.8220   48.5240 C   0  0  0  0  0  0  0  0  0  0  0  0
   62.8110   33.2890   47.2210 C   0  0  0  0  0  0  0  0  0  0  0  0
   63.7440   33.1050   46.3980 O   0  0  0  0  0  0  0  0  0  0  0  0
   61.6850   33.9290   46.8350 N   0  0  0  0  0  0  0  0  0  0  0  0
   60.6590   34.1480   47.6980 C   0  0  0  0  0  0  0  0  0  0  0  0
   59.1870   34.9560   47.0360 S   0  0  0  0  0  0  0  0  0  0  0  0
   59.1060   33.9120   45.5410 C   0  0  0  0  0  0  0  0  0  0  0  0
   58.9440   32.4760   45.9270 C   0  0  0  0  0  0  0  0  0  0  0  0
   57.7960   31.9560   45.9210 O   0  0  0  0  0  0  0  0  0  0  0  0
   60.0920   31.7030   46.3060 N   0  0  0  0  0  0  0  0  0  0  0  0
   60.0220   30.4950   47.0810 C   0  0  0  0  0  0  0  0  0  0  0  0
   59.5810   29.3110   46.4730 C   0  0  0  0  0  0  0  0  0  0  0  0
   59.5410   28.1160   47.1970 C   0  0  0  0  0  0  0  0  0  0  0  0
   59.9630   28.0900   48.5280 C   0  0  0  0  0  0  0  0  0  0  0  0
   60.4440   29.2560   49.1370 C   0  0  0  0  0  0  0  0  0  0  0  0
   61.0060   29.2180   50.8080 S   0  0  0  0  0  0  0  0  0  0  0  0
   60.9970   27.7940   51.2900 O   0  0  0  0  0  0  0  0  0  0  0  0
   62.4290   29.7040   50.8520 O   0  0  0  0  0  0  0  0  0  0  0  0
   60.0330   30.1970   51.8850 N   0  0  0  0  0  0  0  0  0  0  0  0
   59.1740   31.1700   51.1830 C   0  0  0  0  0  0  0  0  0  0  0  0
   57.7780   30.6120   50.8770 C   0  0  0  0  0  0  0  0  0  0  0  0
   57.1780   30.0970   52.0450 O   0  0  0  0  0  0  0  0  0  0  0  0
   57.9230   28.9870   52.4940 C   0  0  0  0  0  0  0  0  0  0  0  0
   59.3330   29.4150   52.9230 C   0  0  0  0  0  0  0  0  0  0  0  0
   60.4580   30.4590   48.4180 C   0  0  0  0  0  0  0  0  0  0  0  0
   60.0614   33.9175   50.9978 H   0  0  0  0  0  0  0  0  0  0  0  0
   59.2979   35.0383   49.8198 H   0  0  0  0  0  0  0  0  0  0  0  0
   58.8554   33.2973   49.8198 H   0  0  0  0  0  0  0  0  0  0  0  0
   62.6480   32.9110   51.4300 H   0  0  0  0  0  0  0  0  0  0  0  0
   61.4820   31.6280   51.0380 H   0  0  0  0  0  0  0  0  0  0  0  0
   63.8323   32.2899   48.8488 H   0  0  0  0  0  0  0  0  0  0  0  0
   58.2486   34.2227   44.9259 H   0  0  0  0  0  0  0  0  0  0  0  0
   60.0380   34.0287   44.9686 H   0  0  0  0  0  0  0  0  0  0  0  0
   61.0310   32.0240   45.9750 H   0  0  0  0  0  0  0  0  0  0  0  0
   59.2645   29.3226   45.4196 H   0  0  0  0  0  0  0  0  0  0  0  0
   59.1768   27.1952   46.7179 H   0  0  0  0  0  0  0  0  0  0  0  0
   59.9175   27.1513   49.0996 H   0  0  0  0  0  0  0  0  0  0  0  0
   59.0653   32.0640   51.8147 H   0  0  0  0  0  0  0  0  0  0  0  0
   59.6555   31.4075   50.2229 H   0  0  0  0  0  0  0  0  0  0  0  0
   57.1479   31.4181   50.4731 H   0  0  0  0  0  0  0  0  0  0  0  0
   57.8762   29.7988   50.1428 H   0  0  0  0  0  0  0  0  0  0  0  0
   57.4080   28.5302   53.3520 H   0  0  0  0  0  0  0  0  0  0  0  0
   58.0094   28.2635   51.6699 H   0  0  0  0  0  0  0  0  0  0  0  0
   59.2527   30.0295   53.8318 H   0  0  0  0  0  0  0  0  0  0  0  0
   59.9178   28.5003   53.0999 H   0  0  0  0  0  0  0  0  0  0  0  0
   60.8122   31.3810   48.9023 H   0  0  0  0  0  0  0  0  0  0  0  0
  1  2  1  0
  2  3  1  0
  3  4  1  0
  3  5  2  0
  5  6  1  0
  6  7  2  0
  6  8  1  0
  8  9  2  0
  9 10  1  0
 10 11  1  0
 11 12  1  0
 12 13  2  0
 12 14  1  0
 14 15  1  0
 15 16  2  0
 16 17  1  0
 17 18  2  0
 18 19  1  0
 19 20  1  0
 20 21  2  0
 20 22  2  0
 20 23  1  0
 23 24  1  0
 24 25  1  0
 25 26  1  0
 26 27  1  0
 27 28  1  0
 19 29  2  0
  9  2  1  0
 29 15  1  0
 28 23  1  0
  1 30  1  0
  1 31  1  0
  1 32  1  0
  4 33  1  0
  4 34  1  0
  5 35  1  0
 11 36  1  0
 11 37  1  0
 14 38  1  0
 16 39  1  0
 17 40  1  0
 18 41  1  0
 24 42  1  0
 24 43  1  0
 25 44  1  0
 25 45  1  0
 27 46  1  0
 27 47  1  0
 28 48  1  0
 28 49  1  0
 29 50  1  0
M  END
>  <UniqueID>  (26) 
24

>  <SMILES>  (26) 
Cn1c(N)cc(=O)nc1SCC(=O)Nc1cccc(S(=O)(=O)N2CCOCC2)c1

>  <Energy>  (26) 
58.89673435566332

>  <Genealogy>  (26) 
Cn1c(N)cc(=O)nc1SCC(=O)Nc1cccc(S(=O)(=O)N2CCOCC2)c1 (3D coordinates assigned)
Cn1c(N)cc(=O)nc1SCC(=O)Nc1cccc(S(=O)(=O)N2CCOCC2)c1 (nonaromatic ring conformer: 58.89673435566332 kcal/mol)

>  <smiles>  (26) 
Cn1c(N)cc(=O)nc1SCC(=O)Nc1cccc(S(=O)(=O)N2CCOCC2)c1

>  <score_type>  (26) 
oracle

>  <origin>  (26) 
adg

>  <m_score__min__energy>  (26) 
-8.9900000000000002

>  <m_primary>  (26) 
energy

$$$$
26:0
     RDKit          3D

 22 22  0  0  0  0  0  0  0  0999 V2000
   55.1490   27.6020   45.6270 H   0  0  0  0  0  0  0  0  0  0  0  0
   55.0170   26.6680   45.9970 O   0  0  0  0  0  0  0  0  0  0  0  0
   56.0780   25.7700   46.1110 C   0  0  0  0  0  0  0  0  0  0  0  0
   55.8340   24.4030   46.2900 C   0  0  0  0  0  0  0  0  0  0  0  0
   54.8002   24.0306   46.3408 H   0  0  0  0  0  0  0  0  0  0  0  0
   56.9030   23.5130   46.4040 C   0  0  0  0  0  0  0  0  0  0  0  0
   56.7191   22.4378   46.5458 H   0  0  0  0  0  0  0  0  0  0  0  0
   58.2080   24.0030   46.3360 C   0  0  0  0  0  0  0  0  0  0  0  0
   59.0597   23.3124   46.4234 H   0  0  0  0  0  0  0  0  0  0  0  0
   58.4270   25.3320   46.1620 N   0  0  0  0  0  0  0  0  0  0  0  0
   57.4030   26.2270   46.0480 C   0  0  0  0  0  0  0  0  0  0  0  0
   57.6340   27.4990   45.8810 N   0  0  0  0  0  0  0  0  0  0  0  0
   58.3810   28.1110   44.8160 C   0  0  0  0  0  0  0  0  0  0  0  0
   59.5160   28.6220   45.0200 O   0  0  0  0  0  0  0  0  0  0  0  0
   57.7790   28.1780   43.4490 C   0  0  0  0  0  0  0  0  0  0  0  0
   58.5776   28.3214   42.7063 H   0  0  0  0  0  0  0  0  0  0  0  0
   57.2427   27.2395   43.2451 H   0  0  0  0  0  0  0  0  0  0  0  0
   56.8130   29.3240   43.3670 C   0  0  0  0  0  0  0  0  0  0  0  0
   56.4660   29.7580   42.2360 O   0  0  0  0  0  0  0  0  0  0  0  0
   56.2300   29.9230   44.5790 C   0  0  0  0  0  0  0  0  0  0  0  0
   56.7160   30.9740   45.0720 O   0  0  0  0  0  0  0  0  0  0  0  0
   55.1340   29.3250   45.1900 O   0  0  0  0  0  0  0  0  0  0  0  0
  1  2  1  0
  2  3  1  0
  3  4  2  0
  4  5  1  0
  4  6  1  0
  6  7  1  0
  6  8  2  0
  8  9  1  0
  8 10  1  0
 10 11  1  0
 11 12  2  0
 12 13  1  0
 13 14  2  0
 13 15  1  0
 15 16  1  0
 15 17  1  0
 15 18  1  0
 18 19  2  0
 18 20  1  0
 20 21  2  0
 20 22  1  0
 11  3  1  0
M  CHG  2  10  -1  22  -1
M  END
>  <UniqueID>  (27) 
25

>  <SMILES>  (27) 
O=C(CC(=O)C(=O)[O-])/N=c1\[n-]cccc1O

>  <Energy>  (27) 
20.46038592597906

>  <Genealogy>  (27) 
O=C(CC(=O)C(=O)[O-])N=c1[n-]cccc1O (protonated)
O=C(CC(=O)C(=O)[O-])/N=c1\[n-]cccc1O (cis-trans isomerization)
O=C(CC(=O)C(=O)[O-])/N=c1\[n-]cccc1O (3D coordinates assigned)
O=C(CC(=O)C(=O)[O-])/N=c1\[n-]cccc1O (optimized conformer: 20.46038592597906 kcal/mol)

>  <smiles>  (27) 
O=C(CC(=O)C(=O)O)N=c1[nH]cccc1O

>  <score_type>  (27) 
oracle

>  <origin>  (27) 
adg

>  <m_score__min__energy>  (27) 
-10.08

>  <m_primary>  (27) 
energy

$$$$
27:0
     RDKit          3D

 34 35  0  0  0  0  0  0  0  0999 V2000
   62.4250   33.7610   46.7030 C   0  0  0  0  0  0  0  0  0  0  0  0
   61.3540   33.9070   47.6820 N   0  0  0  0  0  0  0  0  0  0  0  0
   61.4470   33.6840   49.0030 C   0  0  0  0  0  0  0  0  0  0  0  0
   60.2030   33.8840   49.5590 C   0  0  0  0  0  0  0  0  0  0  0  0
   59.3260   34.2300   48.5940 N   0  0  0  0  0  0  0  0  0  0  0  0
   60.0600   34.2200   47.4620 C   0  0  0  0  0  0  0  0  0  0  0  0
   59.3810   34.6770   45.8630 S   0  0  0  0  0  0  0  0  0  0  0  0
   58.0800   33.3910   45.8410 C   0  0  0  0  0  0  0  0  0  0  0  0
   58.6240   32.0520   45.4220 C   0  0  0  0  0  0  0  0  0  0  0  0
   59.7440   31.7150   45.7740 O   0  0  0  0  0  0  0  0  0  0  0  0
   57.8400   31.1510   44.5100 C   0  0  0  0  0  0  0  0  0  0  0  0
   56.6860   30.6050   45.2120 N   0  0  0  0  0  0  0  0  0  0  0  0
   56.2310   29.2560   45.0590 C   0  0  0  0  0  0  0  0  0  0  0  0
   55.1210   29.0360   44.5000 O   0  0  0  0  0  0  0  0  0  0  0  0
   57.0520   28.1140   45.5400 C   0  0  0  0  0  0  0  0  0  0  0  0
   58.4570   28.2270   45.5480 C   0  0  0  0  0  0  0  0  0  0  0  0
   59.2570   27.1630   45.9700 C   0  0  0  0  0  0  0  0  0  0  0  0
   58.6710   25.9710   46.3920 C   0  0  0  0  0  0  0  0  0  0  0  0
   57.2820   25.8390   46.3920 C   0  0  0  0  0  0  0  0  0  0  0  0
   56.4690   26.8980   45.9690 C   0  0  0  0  0  0  0  0  0  0  0  0
   55.0910   26.7170   45.9750 O   0  0  0  0  0  0  0  0  0  0  0  0
   63.3841   33.6303   47.2255 H   0  0  0  0  0  0  0  0  0  0  0  0
   62.2281   32.8814   46.0725 H   0  0  0  0  0  0  0  0  0  0  0  0
   62.4707   34.6612   46.0725 H   0  0  0  0  0  0  0  0  0  0  0  0
   62.3580   33.3924   49.5462 H   0  0  0  0  0  0  0  0  0  0  0  0
   59.9614   33.7778   50.6269 H   0  0  0  0  0  0  0  0  0  0  0  0
   57.6513   33.3011   46.8500 H   0  0  0  0  0  0  0  0  0  0  0  0
   57.3142   33.6922   45.1111 H   0  0  0  0  0  0  0  0  0  0  0  0
   57.4959   31.7269   43.6382 H   0  0  0  0  0  0  0  0  0  0  0  0
   58.4854   30.3228   44.1821 H   0  0  0  0  0  0  0  0  0  0  0  0
   58.9288   29.1643   45.2180 H   0  0  0  0  0  0  0  0  0  0  0  0
   60.3522   27.2660   45.9693 H   0  0  0  0  0  0  0  0  0  0  0  0
   59.3032   25.1347   46.7249 H   0  0  0  0  0  0  0  0  0  0  0  0
   56.8226   24.8971   46.7264 H   0  0  0  0  0  0  0  0  0  0  0  0
  1  2  1  0
  2  3  1  0
  3  4  2  0
  4  5  1  0
  5  6  2  0
  6  7  1  0
  7  8  1  0
  8  9  1  0
  9 10  2  0
  9 11  1  0
 11 12  1  0
 12 13  1  0
 13 14  2  0
 13 15  1  0
 15 16  2  0
 16 17  1  0
 17 18  2  0
 18 19  1  0
 19 20  2  0
 20 21  1  0
  6  2  1  0
 20 15  1  0
  1 22  1  0
  1 23  1  0
  1 24  1  0
  3 25  1  0
  4 26  1  0
  8 27  1  0
  8 28  1  0
 11 29  1  0
 11 30  1  0
 16 31  1  0
 17 32  1  0
 18 33  1  0
 19 34  1  0
M  CHG  2  12  -1  21  -1
M  END
>  <UniqueID>  (28) 
26

>  <SMILES>  (28) 
Cn1ccnc1SCC(=O)C[N-]C(=O)c1ccccc1[O-]

>  <Energy>  (28) 
54.473273885545154

>  <Genealogy>  (28) 
Cn1ccnc1SCC(=O)C[N-]C(=O)c1ccccc1[O-] (protonated)
Cn1ccnc1SCC(=O)C[N-]C(=O)c1ccccc1[O-] (3D coordinates assigned)
Cn1ccnc1SCC(=O)C[N-]C(=O)c1ccccc1[O-] (optimized conformer: 54.473273885545154 kcal/mol)

>  <smiles>  (28) 
Cn1ccnc1SCC(=O)CNC(=O)c1ccccc1O

>  <score_type>  (28) 
oracle

>  <origin>  (28) 
adg

>  <m_score__min__energy>  (28) 
-12.77

>  <m_primary>  (28) 
energy

$$$$
28:0
     RDKit          3D

 52 54  0  0  0  0  0  0  0  0999 V2000
   58.5430   33.8480   52.6440 C   0  0  0  0  0  0  0  0  0  0  0  0
   58.1810   32.4980   52.3700 O   0  0  0  0  0  0  0  0  0  0  0  0
   58.6750   31.7420   51.2950 C   0  0  0  0  0  0  0  0  0  0  0  0
   59.7570   32.1820   50.5100 C   0  0  0  0  0  0  0  0  0  0  0  0
   60.2280   31.4170   49.4320 C   0  0  0  0  0  0  0  0  0  0  0  0
   61.3580   31.8720   48.6670 N   0  0  0  0  0  0  0  0  0  0  0  0
   61.4440   33.4690   47.9970 S   0  0  0  0  0  0  0  0  0  0  0  0
   62.6620   33.5790   47.1220 O   0  0  0  0  0  0  0  0  0  0  0  0
   61.5540   34.4740   49.1090 O   0  0  0  0  0  0  0  0  0  0  0  0
   60.0140   33.7730   47.0150 C   0  0  0  0  0  0  0  0  0  0  0  0
   60.1640   34.1920   45.6850 C   0  0  0  0  0  0  0  0  0  0  0  0
   59.0390   34.3990   44.8830 C   0  0  0  0  0  0  0  0  0  0  0  0
   57.7590   34.1840   45.4040 C   0  0  0  0  0  0  0  0  0  0  0  0
   56.6670   34.3810   44.6230 F   0  0  0  0  0  0  0  0  0  0  0  0
   57.6050   33.7640   46.7280 C   0  0  0  0  0  0  0  0  0  0  0  0
   58.7290   33.5580   47.5330 C   0  0  0  0  0  0  0  0  0  0  0  0
   59.6120   30.1780   49.1430 C   0  0  0  0  0  0  0  0  0  0  0  0
   60.0270   29.3610   47.9800 C   0  0  0  0  0  0  0  0  0  0  0  0
   60.7700   28.3610   48.1760 O   0  0  0  0  0  0  0  0  0  0  0  0
   59.6010   29.6890   46.6380 N   0  0  0  0  0  0  0  0  0  0  0  0
   60.3830   29.2380   45.4760 C   0  0  0  0  0  0  0  0  0  0  0  0
   59.4870   28.4610   44.5020 C   0  0  0  0  0  0  0  0  0  0  0  0
   58.1320   29.1510   44.2280 C   0  0  0  0  0  0  0  0  0  0  0  0
   57.9850   30.5080   44.9290 C   0  0  0  0  0  0  0  0  0  0  0  0
   58.3230   30.3900   46.4210 C   0  0  0  0  0  0  0  0  0  0  0  0
   58.5330   29.7430   49.9260 C   0  0  0  0  0  0  0  0  0  0  0  0
   58.0660   30.5130   51.0070 C   0  0  0  0  0  0  0  0  0  0  0  0
   56.9990   30.0930   51.8170 O   0  0  0  0  0  0  0  0  0  0  0  0
   55.8060   30.8400   52.0340 C   0  0  0  0  0  0  0  0  0  0  0  0
   58.5845   34.0028   53.7323 H   0  0  0  0  0  0  0  0  0  0  0  0
   59.5295   34.0593   52.2057 H   0  0  0  0  0  0  0  0  0  0  0  0
   57.7945   34.5245   52.2057 H   0  0  0  0  0  0  0  0  0  0  0  0
   60.2414   33.1412   50.7453 H   0  0  0  0  0  0  0  0  0  0  0  0
   62.1100   31.1990   48.3960 H   0  0  0  0  0  0  0  0  0  0  0  0
   61.1700   34.3581   45.2723 H   0  0  0  0  0  0  0  0  0  0  0  0
   59.1600   34.7312   43.8414 H   0  0  0  0  0  0  0  0  0  0  0  0
   56.5980   33.5953   47.1372 H   0  0  0  0  0  0  0  0  0  0  0  0
   58.6052   33.2267   48.5746 H   0  0  0  0  0  0  0  0  0  0  0  0
   60.8058   30.1132   44.9610 H   0  0  0  0  0  0  0  0  0  0  0  0
   61.1921   28.5784   45.8227 H   0  0  0  0  0  0  0  0  0  0  0  0
   60.0222   28.3529   43.5471 H   0  0  0  0  0  0  0  0  0  0  0  0
   59.2672   27.4896   44.9689 H   0  0  0  0  0  0  0  0  0  0  0  0
   58.0332   29.3065   43.1435 H   0  0  0  0  0  0  0  0  0  0  0  0
   57.3464   28.4929   44.6276 H   0  0  0  0  0  0  0  0  0  0  0  0
   58.6682   31.2318   44.4606 H   0  0  0  0  0  0  0  0  0  0  0  0
   56.9428   30.8453   44.8292 H   0  0  0  0  0  0  0  0  0  0  0  0
   58.3931   31.3999   46.8513 H   0  0  0  0  0  0  0  0  0  0  0  0
   57.5264   29.8079   46.9074 H   0  0  0  0  0  0  0  0  0  0  0  0
   58.0445   28.7857   49.6916 H   0  0  0  0  0  0  0  0  0  0  0  0
   55.6328   30.9485   53.1148 H   0  0  0  0  0  0  0  0  0  0  0  0
   55.9085   31.8355   51.5774 H   0  0  0  0  0  0  0  0  0  0  0  0
   54.9552   30.3130   51.5774 H   0  0  0  0  0  0  0  0  0  0  0  0
  1  2  1  0
  2  3  1  0
  3  4  2  0
  4  5  1  0
  5  6  1  0
  6  7  1  0
  7  8  2  0
  7  9  2  0
  7 10  1  0
 10 11  2  0
 11 12  1  0
 12 13  2  0
 13 14  1  0
 13 15  1  0
 15 16  2  0
  5 17  2  0
 17 18  1  0
 18 19  2  0
 18 20  1  0
 20 21  1  0
 21 22  1  0
 22 23  1  0
 23 24  1  0
 24 25  1  0
 17 26  1  0
 26 27  2  0
 27 28  1  0
 28 29  1  0
 27  3  1  0
 16 10  1  0
 25 20  1  0
  1 30  1  0
  1 31  1  0
  1 32  1  0
  4 33  1  0
  6 34  1  0
 11 35  1  0
 12 36  1  0
 15 37  1  0
 16 38  1  0
 21 39  1  0
 21 40  1  0
 22 41  1  0
 22 42  1  0
 23 43  1  0
 23 44  1  0
 24 45  1  0
 24 46  1  0
 25 47  1  0
 25 48  1  0
 26 49  1  0
 29 50  1  0
 29 51  1  0
 29 52  1  0
M  END
>  <UniqueID>  (29) 
27

>  <SMILES>  (29) 
COc1cc(NS(=O)(=O)c2ccc(F)cc2)c(C(=O)N2CCCCC2)cc1OC

>  <Energy>  (29) 
62.75630326751387

>  <Genealogy>  (29) 
COc1cc(NS(=O)(=O)c2ccc(F)cc2)c(C(=O)N2CCCCC2)cc1OC (3D coordinates assigned)
COc1cc(NS(=O)(=O)c2ccc(F)cc2)c(C(=O)N2CCCCC2)cc1OC (nonaromatic ring conformer: 62.75630326751387 kcal/mol)

>  <smiles>  (29) 
COc1cc(NS(=O)(=O)c2ccc(F)cc2)c(C(=O)N2CCCCC2)cc1OC

>  <score_type>  (29) 
oracle

>  <origin>  (29) 
adg

>  <m_score__min__energy>  (29) 
-9.1600000000000001

>  <m_primary>  (29) 
energy

$$$$
29:0
     RDKit          3D

 27 28  0  0  0  0  0  0  0  0999 V2000
   54.7210   26.3440   45.9810 O   0  0  0  0  0  0  0  0  0  0  0  0
   54.9530   25.1520   45.6460 C   0  0  0  0  0  0  0  0  0  0  0  0
   53.9070   24.2390   45.6640 O   0  0  0  0  0  0  0  0  0  0  0  0
   56.3240   24.7420   45.2540 C   0  0  0  0  0  0  0  0  0  0  0  0
   57.4300   25.3050   45.8050 C   0  0  0  0  0  0  0  0  0  0  0  0
   57.3490   26.5930   47.0660 S   0  0  0  0  0  0  0  0  0  0  0  0
   57.2110   27.9160   45.8630 C   0  0  0  0  0  0  0  0  0  0  0  0
   56.0640   28.2720   45.2470 N   0  0  0  0  0  0  0  0  0  0  0  0
   56.2360   29.3150   44.3930 C   0  0  0  0  0  0  0  0  0  0  0  0
   57.5350   29.8050   44.3270 C   0  0  0  0  0  0  0  0  0  0  0  0
   58.4870   28.8960   45.3780 S   0  0  0  0  0  0  0  0  0  0  0  0
   58.8000   24.8040   45.4120 C   0  0  0  0  0  0  0  0  0  0  0  0
   58.7540   23.2980   45.1580 C   0  0  0  0  0  0  0  0  0  0  0  0
   57.6560   22.9850   44.2440 N   0  0  0  0  0  0  0  0  0  0  0  0
   56.5140   23.6110   44.2900 C   0  0  0  0  0  0  0  0  0  0  0  0
   55.4400   23.2080   43.3180 C   0  0  0  0  0  0  0  0  0  0  0  0
   55.9110   22.1820   42.4890 O   0  0  0  0  0  0  0  0  0  0  0  0
   55.1430   27.8110   45.4100 H   0  0  0  0  0  0  0  0  0  0  0  0
   55.4117   29.7383   43.8003 H   0  0  0  0  0  0  0  0  0  0  0  0
   57.8805   30.6394   43.6990 H   0  0  0  0  0  0  0  0  0  0  0  0
   59.1266   25.3179   44.4959 H   0  0  0  0  0  0  0  0  0  0  0  0
   59.5074   25.0105   46.2287 H   0  0  0  0  0  0  0  0  0  0  0  0
   59.7053   22.9734   44.7112 H   0  0  0  0  0  0  0  0  0  0  0  0
   58.5951   22.7727   46.1113 H   0  0  0  0  0  0  0  0  0  0  0  0
   54.5592   22.8534   43.8734 H   0  0  0  0  0  0  0  0  0  0  0  0
   55.1644   24.0759   42.7009 H   0  0  0  0  0  0  0  0  0  0  0  0
   56.6230   22.5860   41.9280 H   0  0  0  0  0  0  0  0  0  0  0  0
  1  2  2  0
  2  3  1  0
  2  4  1  0
  4  5  2  0
  5  6  1  0
  6  7  1  0
  7  8  2  0
  8  9  1  0
  9 10  2  0
 10 11  1  0
  5 12  1  0
 12 13  1  0
 13 14  1  0
 14 15  2  0
 15 16  1  0
 16 17  1  0
 15  4  1  0
 11  7  1  0
  8 18  1  0
  9 19  1  0
 10 20  1  0
 12 21  1  0
 12 22  1  0
 13 23  1  0
 13 24  1  0
 16 25  1  0
 16 26  1  0
 17 27  1  0
M  CHG  2   3  -1   8   1
M  END
>  <UniqueID>  (30) 
28

>  <SMILES>  (30) 
O=C([O-])C1=C(Sc2[nH+]ccs2)CCN=C1CO

>  <Energy>  (30) 
58.92776721271023

>  <Genealogy>  (30) 
O=C([O-])C1=C(Sc2[nH+]ccs2)CCN=C1CO (protonated)
O=C([O-])C1=C(Sc2[nH+]ccs2)CCN=C1CO (3D coordinates assigned)
O=C([O-])C1=C(Sc2[nH+]ccs2)CCN=C1CO (nonaromatic ring conformer: 58.92776721271023 kcal/mol)

>  <smiles>  (30) 
O=C(O)C1=C(Sc2nccs2)CCN=C1CO

>  <score_type>  (30) 
oracle

>  <origin>  (30) 
adg

>  <m_score__min__energy>  (30) 
-8.1899999999999995

>  <m_primary>  (30) 
energy

$$$$
30:0
     RDKit          3D

 51 53  0  0  0  0  0  0  0  0999 V2000
   55.6530   30.7810   43.8260 O   0  0  0  0  0  0  0  0  0  0  0  0
   56.6790   30.5190   44.5110 C   0  0  0  0  0  0  0  0  0  0  0  0
   57.1490   29.0930   44.6100 C   0  0  0  0  0  0  0  0  0  0  0  0
   56.1270   28.2680   45.2540 N   0  0  0  0  0  0  0  0  0  0  0  0
   56.8400   26.7940   45.8330 S   0  0  0  0  0  0  0  0  0  0  0  0
   57.2040   25.9150   44.6690 O   0  0  0  0  0  0  0  0  0  0  0  0
   55.8400   26.0650   46.6850 O   0  0  0  0  0  0  0  0  0  0  0  0
   58.2710   27.1460   46.7990 C   0  0  0  0  0  0  0  0  0  0  0  0
   59.4240   26.3550   46.6790 C   0  0  0  0  0  0  0  0  0  0  0  0
   60.5610   26.6520   47.4370 C   0  0  0  0  0  0  0  0  0  0  0  0
   60.5520   27.7400   48.3150 C   0  0  0  0  0  0  0  0  0  0  0  0
   59.4080   28.5350   48.4320 C   0  0  0  0  0  0  0  0  0  0  0  0
   58.2700   28.2400   47.6750 C   0  0  0  0  0  0  0  0  0  0  0  0
   57.3480   31.5820   45.2250 N   0  0  0  0  0  0  0  0  0  0  0  0
   57.4090   32.9210   44.6360 C   0  0  0  0  0  0  0  0  0  0  0  0
   57.2620   33.9920   45.7210 C   0  0  0  0  0  0  0  0  0  0  0  0
   58.1360   33.7490   46.8850 N   0  0  0  0  0  0  0  0  0  0  0  0
   59.4080   34.4970   46.9450 C   0  0  0  0  0  0  0  0  0  0  0  0
   60.4910   33.9600   46.0000 C   0  0  0  0  0  0  0  0  0  0  0  0
   61.5910   33.3000   46.7860 C   0  0  0  0  0  0  0  0  0  0  0  0
   62.8810   33.8580   46.8080 C   0  0  0  0  0  0  0  0  0  0  0  0
   63.8940   33.2620   47.5680 C   0  0  0  0  0  0  0  0  0  0  0  0
   63.6230   32.1140   48.3180 C   0  0  0  0  0  0  0  0  0  0  0  0
   62.3390   31.5630   48.3140 C   0  0  0  0  0  0  0  0  0  0  0  0
   61.3240   32.1540   47.5550 C   0  0  0  0  0  0  0  0  0  0  0  0
   58.1340   32.3750   47.4240 C   0  0  0  0  0  0  0  0  0  0  0  0
   58.2540   31.2970   46.3410 C   0  0  0  0  0  0  0  0  0  0  0  0
   57.3463   28.7045   43.6000 H   0  0  0  0  0  0  0  0  0  0  0  0
   58.0692   29.0593   45.2117 H   0  0  0  0  0  0  0  0  0  0  0  0
   59.4334   25.4997   45.9873 H   0  0  0  0  0  0  0  0  0  0  0  0
   61.4629   26.0293   47.3424 H   0  0  0  0  0  0  0  0  0  0  0  0
   61.4454   27.9706   48.9139 H   0  0  0  0  0  0  0  0  0  0  0  0
   59.4031   29.3932   49.1201 H   0  0  0  0  0  0  0  0  0  0  0  0
   57.3717   28.8681   47.7672 H   0  0  0  0  0  0  0  0  0  0  0  0
   58.3768   33.0497   44.1292 H   0  0  0  0  0  0  0  0  0  0  0  0
   56.5856   33.0301   43.9149 H   0  0  0  0  0  0  0  0  0  0  0  0
   57.5181   34.9698   45.2870 H   0  0  0  0  0  0  0  0  0  0  0  0
   56.2213   33.9638   46.0761 H   0  0  0  0  0  0  0  0  0  0  0  0
   59.2060   35.5453   46.6799 H   0  0  0  0  0  0  0  0  0  0  0  0
   59.7948   34.3869   47.9688 H   0  0  0  0  0  0  0  0  0  0  0  0
   60.0429   33.2247   45.3155 H   0  0  0  0  0  0  0  0  0  0  0  0
   60.9143   34.7990   45.4282 H   0  0  0  0  0  0  0  0  0  0  0  0
   63.0951   34.7664   46.2258 H   0  0  0  0  0  0  0  0  0  0  0  0
   64.9042   33.6973   47.5751 H   0  0  0  0  0  0  0  0  0  0  0  0
   64.4210   31.6441   48.9117 H   0  0  0  0  0  0  0  0  0  0  0  0
   62.1261   30.6626   48.9090 H   0  0  0  0  0  0  0  0  0  0  0  0
   60.3130   31.7205   47.5598 H   0  0  0  0  0  0  0  0  0  0  0  0
   58.9828   32.2704   48.1158 H   0  0  0  0  0  0  0  0  0  0  0  0
   57.1673   32.2245   47.9269 H   0  0  0  0  0  0  0  0  0  0  0  0
   59.2889   31.2724   45.9689 H   0  0  0  0  0  0  0  0  0  0  0  0
   57.9827   30.3246   46.7778 H   0  0  0  0  0  0  0  0  0  0  0  0
  1  2  2  0
  2  3  1  0
  3  4  1  0
  4  5  1  0
  5  6  2  0
  5  7  2  0
  5  8  1  0
  8  9  2  0
  9 10  1  0
 10 11  2  0
 11 12  1  0
 12 13  2  0
  2 14  1  0
 14 15  1  0
 15 16  1  0
 16 17  1  0
 17 18  1  0
 18 19  1  0
 19 20  1  0
 20 21  2  0
 21 22  1  0
 22 23  2  0
 23 24  1  0
 24 25  2  0
 17 26  1  0
 26 27  1  0
 13  8  1  0
 27 14  1  0
 25 20  1  0
  3 28  1  0
  3 29  1  0
  9 30  1  0
 10 31  1  0
 11 32  1  0
 12 33  1  0
 13 34  1  0
 15 35  1  0
 15 36  1  0
 16 37  1  0
 16 38  1  0
 18 39  1  0
 18 40  1  0
 19 41  1  0
 19 42  1  0
 21 43  1  0
 22 44  1  0
 23 45  1  0
 24 46  1  0
 25 47  1  0
 26 48  1  0
 26 49  1  0
 27 50  1  0
 27 51  1  0
M  CHG  1   4  -1
M  END
>  <UniqueID>  (31) 
29

>  <SMILES>  (31) 
O=C(C[N-]S(=O)(=O)c1ccccc1)N1CCN(CCc2ccccc2)CC1

>  <Energy>  (31) 
59.848224736306

>  <Genealogy>  (31) 
O=C(C[N-]S(=O)(=O)c1ccccc1)N1CCN(CCc2ccccc2)CC1 (protonated)
O=C(C[N-]S(=O)(=O)c1ccccc1)N1CCN(CCc2ccccc2)CC1 (3D coordinates assigned)
O=C(C[N-]S(=O)(=O)c1ccccc1)N1CCN(CCc2ccccc2)CC1 (nonaromatic ring conformer: 59.848224736306 kcal/mol)

>  <smiles>  (31) 
O=C(CNS(=O)(=O)c1ccccc1)N1CCN(CCc2ccccc2)CC1

>  <score_type>  (31) 
oracle

>  <origin>  (31) 
adg

>  <m_score__min__energy>  (31) 
-11.25

>  <m_primary>  (31) 
energy

$$$$
31:0
     RDKit          3D

 41 43  0  0  0  0  0  0  0  0999 V2000
   56.4500   22.2690   41.5160 H   0  0  0  0  0  0  0  0  0  0  0  0
   56.2260   21.8010   42.4230 N   0  0  0  0  0  0  0  0  0  0  0  0
   56.7640   22.1630   43.5450 C   0  0  0  0  0  0  0  0  0  0  0  0
   57.6730   21.3140   44.1820 C   0  0  0  0  0  0  0  0  0  0  0  0
   57.9384   20.3467   43.7304 H   0  0  0  0  0  0  0  0  0  0  0  0
   58.2410   21.7030   45.3950 C   0  0  0  0  0  0  0  0  0  0  0  0
   58.9527   21.0380   45.9060 H   0  0  0  0  0  0  0  0  0  0  0  0
   57.9170   22.9020   45.9470 N   0  0  0  0  0  0  0  0  0  0  0  0
   57.0470   23.7630   45.3480 C   0  0  0  0  0  0  0  0  0  0  0  0
   56.7300   25.0440   46.0190 C   0  0  0  0  0  0  0  0  0  0  0  0
   55.7320   25.0960   46.7870 O   0  0  0  0  0  0  0  0  0  0  0  0
   57.5310   26.2710   45.8100 C   0  0  0  0  0  0  0  0  0  0  0  0
   58.9310   26.1750   45.7650 C   0  0  0  0  0  0  0  0  0  0  0  0
   59.4158   25.1936   45.8738 H   0  0  0  0  0  0  0  0  0  0  0  0
   59.7110   27.3180   45.5830 C   0  0  0  0  0  0  0  0  0  0  0  0
   60.8078   27.2361   45.5641 H   0  0  0  0  0  0  0  0  0  0  0  0
   59.1040   28.5640   45.4250 C   0  0  0  0  0  0  0  0  0  0  0  0
   59.7260   29.4628   45.3019 H   0  0  0  0  0  0  0  0  0  0  0  0
   57.7030   28.6790   45.4220 C   0  0  0  0  0  0  0  0  0  0  0  0
   57.0670   29.9600   45.2750 N   0  0  0  0  0  0  0  0  0  0  0  0
   56.1030   30.0820   45.6610 H   0  0  0  0  0  0  0  0  0  0  0  0
   57.6500   31.0670   44.5690 C   0  0  0  0  0  0  0  0  0  0  0  0
   58.6510   30.8970   43.8220 O   0  0  0  0  0  0  0  0  0  0  0  0
   57.0690   32.4390   44.7210 C   0  0  0  0  0  0  0  0  0  0  0  0
   56.9721   32.9056   43.7296 H   0  0  0  0  0  0  0  0  0  0  0  0
   56.0793   32.3620   45.1950 H   0  0  0  0  0  0  0  0  0  0  0  0
   57.9650   33.2830   45.5830 C   0  0  0  0  0  0  0  0  0  0  0  0
   58.0780   33.0220   46.9600 C   0  0  0  0  0  0  0  0  0  0  0  0
   57.4845   32.2153   47.4150 H   0  0  0  0  0  0  0  0  0  0  0  0
   58.9410   33.7830   47.7530 C   0  0  0  0  0  0  0  0  0  0  0  0
   59.0200   33.5793   48.8311 H   0  0  0  0  0  0  0  0  0  0  0  0
   59.7040   34.8030   47.1770 C   0  0  0  0  0  0  0  0  0  0  0  0
   60.3811   35.4031   47.8026 H   0  0  0  0  0  0  0  0  0  0  0  0
   59.6070   35.0610   45.8060 C   0  0  0  0  0  0  0  0  0  0  0  0
   60.2094   35.8625   45.3536 H   0  0  0  0  0  0  0  0  0  0  0  0
   58.7450   34.3010   45.0100 C   0  0  0  0  0  0  0  0  0  0  0  0
   58.6773   34.5010   43.9305 H   0  0  0  0  0  0  0  0  0  0  0  0
   56.9180   27.5270   45.6200 C   0  0  0  0  0  0  0  0  0  0  0  0
   55.5300   27.6310   45.5940 O   0  0  0  0  0  0  0  0  0  0  0  0
   56.4410   23.3950   44.1340 C   0  0  0  0  0  0  0  0  0  0  0  0
   55.7186   24.0682   43.6492 H   0  0  0  0  0  0  0  0  0  0  0  0
  1  2  1  0
  2  3  2  0
  3  4  1  0
  4  5  1  0
  4  6  2  0
  6  7  1  0
  6  8  1  0
  8  9  1  0
  9 10  1  0
 10 11  2  0
 10 12  1  0
 12 13  2  0
 13 14  1  0
 13 15  1  0
 15 16  1  0
 15 17  2  0
 17 18  1  0
 17 19  1  0
 19 20  1  0
 20 21  1  0
 20 22  1  0
 22 23  2  0
 22 24  1  0
 24 25  1  0
 24 26  1  0
 24 27  1  0
 27 28  2  0
 28 29  1  0
 28 30  1  0
 30 31  1  0
 30 32  2  0
 32 33  1  0
 32 34  1  0
 34 35  1  0
 34 36  2  0
 36 37  1  0
 19 38  2  0
 38 39  1  0
  9 40  2  0
 40 41  1  0
 40  3  1  0
 38 12  1  0
 36 27  1  0
M  CHG  2   8  -1  39  -1
M  END
>  <UniqueID>  (32) 
30

>  <SMILES>  (32) 
[H]/N=c1/cc[n-]c(C(=O)c2cccc(NC(=O)Cc3ccccc3)c2[O-])c1

>  <Energy>  (32) 
53.7031327025437

>  <Genealogy>  (32) 
N=c1cc[n-]c(C(=O)c2cccc(NC(=O)Cc3ccccc3)c2[O-])c1 (protonated)
[H]/N=c1/cc[n-]c(C(=O)c2cccc(NC(=O)Cc3ccccc3)c2[O-])c1 (cis-trans isomerization)
[H]/N=c1/cc[n-]c(C(=O)c2cccc(NC(=O)Cc3ccccc3)c2[O-])c1 (3D coordinates assigned)
[H]/N=c1/cc[n-]c(C(=O)c2cccc(NC(=O)Cc3ccccc3)c2[O-])c1 (optimized conformer: 53.7031327025437 kcal/mol)

>  <smiles>  (32) 
N=c1cc[nH]c(C(=O)c2cccc(NC(=O)Cc3ccccc3)c2O)c1

>  <score_type>  (32) 
oracle

>  <origin>  (32) 
adg

>  <m_score__min__energy>  (32) 
-14.74

>  <m_primary>  (32) 
energy

$$$$
32:0
     RDKit          3D

 39 41  0  0  0  0  0  0  0  0999 V2000
   62.5940   32.7350   48.2330 C   0  0  0  0  0  0  0  0  0  0  0  0
   61.3230   32.5560   47.4590 C   0  0  0  0  0  0  0  0  0  0  0  0
   60.5940   33.6750   47.0290 C   0  0  0  0  0  0  0  0  0  0  0  0
   59.4380   33.5120   46.2620 C   0  0  0  0  0  0  0  0  0  0  0  0
   59.0010   32.2290   45.9090 C   0  0  0  0  0  0  0  0  0  0  0  0
   57.5690   32.0450   44.9010 S   0  0  0  0  0  0  0  0  0  0  0  0
   57.9770   32.1240   43.4570 O   0  0  0  0  0  0  0  0  0  0  0  0
   56.5690   33.1320   45.1810 O   0  0  0  0  0  0  0  0  0  0  0  0
   56.8380   30.5020   45.2050 N   0  0  0  0  0  0  0  0  0  0  0  0
   57.5120   29.2390   45.1250 C   0  0  0  0  0  0  0  0  0  0  0  0
   58.5570   29.0940   44.2040 C   0  0  0  0  0  0  0  0  0  0  0  0
   59.2440   27.8830   44.1000 C   0  0  0  0  0  0  0  0  0  0  0  0
   58.8900   26.8030   44.9130 C   0  0  0  0  0  0  0  0  0  0  0  0
   57.8480   26.9280   45.8450 C   0  0  0  0  0  0  0  0  0  0  0  0
   57.4890   25.8020   46.7400 C   0  0  0  0  0  0  0  0  0  0  0  0
   58.1270   25.6440   47.8180 O   0  0  0  0  0  0  0  0  0  0  0  0
   56.4010   24.8510   46.4060 C   0  0  0  0  0  0  0  0  0  0  0  0
   55.1330   25.3190   46.0150 C   0  0  0  0  0  0  0  0  0  0  0  0
   54.8580   26.6820   45.9820 O   0  0  0  0  0  0  0  0  0  0  0  0
   54.1570   24.4390   45.6760 N   0  0  0  0  0  0  0  0  0  0  0  0
   54.3810   23.1020   45.7010 C   0  0  0  0  0  0  0  0  0  0  0  0
   53.4620   22.3050   45.3800 O   0  0  0  0  0  0  0  0  0  0  0  0
   55.5960   22.6220   46.0680 N   0  0  0  0  0  0  0  0  0  0  0  0
   56.6080   23.4590   46.4150 C   0  0  0  0  0  0  0  0  0  0  0  0
   57.7290   22.9750   46.7240 O   0  0  0  0  0  0  0  0  0  0  0  0
   57.1650   28.1530   45.9490 C   0  0  0  0  0  0  0  0  0  0  0  0
   59.7340   31.1090   46.3260 C   0  0  0  0  0  0  0  0  0  0  0  0
   60.8940   31.2710   47.0880 C   0  0  0  0  0  0  0  0  0  0  0  0
   62.3746   32.7041   49.3105 H   0  0  0  0  0  0  0  0  0  0  0  0
   63.2953   31.9268   47.9783 H   0  0  0  0  0  0  0  0  0  0  0  0
   63.0448   33.7055   47.9783 H   0  0  0  0  0  0  0  0  0  0  0  0
   60.9346   34.6860   47.2973 H   0  0  0  0  0  0  0  0  0  0  0  0
   58.8689   34.3944   45.9341 H   0  0  0  0  0  0  0  0  0  0  0  0
   58.8382   29.9393   43.5587 H   0  0  0  0  0  0  0  0  0  0  0  0
   60.0659   27.7788   43.3764 H   0  0  0  0  0  0  0  0  0  0  0  0
   59.4310   25.8496   44.8220 H   0  0  0  0  0  0  0  0  0  0  0  0
   56.3518   28.2629   46.6816 H   0  0  0  0  0  0  0  0  0  0  0  0
   59.3947   30.0991   46.0523 H   0  0  0  0  0  0  0  0  0  0  0  0
   61.4733   30.3890   47.3985 H   0  0  0  0  0  0  0  0  0  0  0  0
  1  2  1  0
  2  3  2  0
  3  4  1  0
  4  5  2  0
  5  6  1  0
  6  7  2  0
  6  8  2  0
  6  9  1  0
  9 10  1  0
 10 11  2  0
 11 12  1  0
 12 13  2  0
 13 14  1  0
 14 15  1  0
 15 16  2  0
 15 17  1  0
 17 18  2  0
 18 19  1  0
 18 20  1  0
 20 21  1  0
 21 22  2  0
 21 23  1  0
 23 24  1  0
 24 25  2  0
 14 26  2  0
  5 27  1  0
 27 28  2  0
 28  2  1  0
 26 10  1  0
 24 17  1  0
  1 29  1  0
  1 30  1  0
  1 31  1  0
  3 32  1  0
  4 33  1  0
 11 34  1  0
 12 35  1  0
 13 36  1  0
 26 37  1  0
 27 38  1  0
 28 39  1  0
M  CHG  4   9  -1  19  -1  20  -1  23  -1
M  END
>  <UniqueID>  (33) 
31

>  <SMILES>  (33) 
Cc1ccc(S(=O)(=O)[N-]c2cccc(C(=O)c3c([O-])[n-]c(=O)[n-]c3=O)c2)cc1

>  <Energy>  (33) 
54.099893210408176

>  <Genealogy>  (33) 
Cc1ccc(S(=O)(=O)[N-]c2cccc(C(=O)c3c([O-])[n-]c(=O)[n-]c3=O)c2)cc1 (protonated)
Cc1ccc(S(=O)(=O)[N-]c2cccc(C(=O)c3c([O-])[n-]c(=O)[n-]c3=O)c2)cc1 (3D coordinates assigned)
Cc1ccc(S(=O)(=O)[N-]c2cccc(C(=O)c3c([O-])[n-]c(=O)[n-]c3=O)c2)cc1 (optimized conformer: 54.099893210408176 kcal/mol)

>  <smiles>  (33) 
Cc1ccc(S(=O)(=O)Nc2cccc(C(=O)c3c(O)[nH]c(=O)[nH]c3=O)c2)cc1

>  <score_type>  (33) 
oracle

>  <origin>  (33) 
adg

>  <m_score__min__energy>  (33) 
-17.68

>  <m_primary>  (33) 
energy

$$$$
33:0
     RDKit          3D

 44 46  0  0  0  0  0  0  0  0999 V2000
   60.8400   34.5740   48.1540 O   0  0  0  0  0  0  0  0  0  0  0  0
   60.9720   33.8060   47.1610 C   0  0  0  0  0  0  0  0  0  0  0  0
   62.2770   33.5600   46.6100 N   0  0  0  0  0  0  0  0  0  0  0  0
   63.5040   33.8970   47.3260 C   0  0  0  0  0  0  0  0  0  0  0  0
   63.7000   32.9460   48.4670 C   0  0  0  0  0  0  0  0  0  0  0  0
   64.8020   33.0680   49.3270 C   0  0  0  0  0  0  0  0  0  0  0  0
   64.9240   32.1920   50.4080 C   0  0  0  0  0  0  0  0  0  0  0  0
   63.9510   31.2150   50.6270 C   0  0  0  0  0  0  0  0  0  0  0  0
   62.8620   31.1300   49.7570 C   0  0  0  0  0  0  0  0  0  0  0  0
   62.7590   31.9910   48.7100 N   0  0  0  0  0  0  0  0  0  0  0  0
   59.7780   33.1770   46.5640 C   0  0  0  0  0  0  0  0  0  0  0  0
   59.2920   31.9550   47.0560 C   0  0  0  0  0  0  0  0  0  0  0  0
   58.1520   31.3680   46.4970 C   0  0  0  0  0  0  0  0  0  0  0  0
   57.4860   31.9920   45.4290 C   0  0  0  0  0  0  0  0  0  0  0  0
   56.3110   31.4300   44.8300 N   0  0  0  0  0  0  0  0  0  0  0  0
   56.2490   29.9250   43.9710 S   0  0  0  0  0  0  0  0  0  0  0  0
   54.8410   29.3970   44.0020 O   0  0  0  0  0  0  0  0  0  0  0  0
   56.6440   30.1600   42.5400 O   0  0  0  0  0  0  0  0  0  0  0  0
   57.3720   28.7750   44.6910 C   0  0  0  0  0  0  0  0  0  0  0  0
   58.7530   28.9080   44.5000 C   0  0  0  0  0  0  0  0  0  0  0  0
   59.6320   27.9880   45.0770 C   0  0  0  0  0  0  0  0  0  0  0  0
   59.1390   26.9350   45.8500 C   0  0  0  0  0  0  0  0  0  0  0  0
   57.7550   26.7870   46.0560 C   0  0  0  0  0  0  0  0  0  0  0  0
   57.2480   25.7060   46.8580 N   0  0  0  0  0  0  0  0  0  0  0  0
   58.0020   25.0830   47.6350 O   0  0  0  0  0  0  0  0  0  0  0  0
   55.9300   25.3260   46.7700 O   0  0  0  0  0  0  0  0  0  0  0  0
   56.8770   27.7170   45.4660 C   0  0  0  0  0  0  0  0  0  0  0  0
   57.9770   33.2040   44.9330 C   0  0  0  0  0  0  0  0  0  0  0  0
   59.1080   33.8020   45.5000 C   0  0  0  0  0  0  0  0  0  0  0  0
   62.3610   33.0850   45.6830 H   0  0  0  0  0  0  0  0  0  0  0  0
   64.3599   33.8250   46.6388 H   0  0  0  0  0  0  0  0  0  0  0  0
   63.4285   34.9229   47.7156 H   0  0  0  0  0  0  0  0  0  0  0  0
   65.5611   33.8446   49.1518 H   0  0  0  0  0  0  0  0  0  0  0  0
   65.7862   32.2718   51.0864 H   0  0  0  0  0  0  0  0  0  0  0  0
   64.0412   30.5202   51.4750 H   0  0  0  0  0  0  0  0  0  0  0  0
   62.0872   30.3661   49.9189 H   0  0  0  0  0  0  0  0  0  0  0  0
   59.8115   31.4556   47.8871 H   0  0  0  0  0  0  0  0  0  0  0  0
   57.7756   30.4142   46.8952 H   0  0  0  0  0  0  0  0  0  0  0  0
   59.1462   29.7381   43.8948 H   0  0  0  0  0  0  0  0  0  0  0  0
   60.7159   28.0936   44.9218 H   0  0  0  0  0  0  0  0  0  0  0  0
   59.8380   26.2155   46.3014 H   0  0  0  0  0  0  0  0  0  0  0  0
   55.7922   27.6120   45.6148 H   0  0  0  0  0  0  0  0  0  0  0  0
   57.4688   33.6923   44.0884 H   0  0  0  0  0  0  0  0  0  0  0  0
   59.4731   34.7641   45.1112 H   0  0  0  0  0  0  0  0  0  0  0  0
  1  2  2  0
  2  3  1  0
  3  4  1  0
  4  5  1  0
  5  6  2  0
  6  7  1  0
  7  8  2  0
  8  9  1  0
  9 10  2  0
  2 11  1  0
 11 12  2  0
 12 13  1  0
 13 14  2  0
 14 15  1  0
 15 16  1  0
 16 17  2  0
 16 18  2  0
 16 19  1  0
 19 20  2  0
 20 21  1  0
 21 22  2  0
 22 23  1  0
 23 24  1  0
 24 25  2  0
 24 26  1  0
 23 27  2  0
 14 28  1  0
 28 29  2  0
 10  5  1  0
 29 11  1  0
 27 19  1  0
  3 30  1  0
  4 31  1  0
  4 32  1  0
  6 33  1  0
  7 34  1  0
  8 35  1  0
  9 36  1  0
 12 37  1  0
 13 38  1  0
 20 39  1  0
 21 40  1  0
 22 41  1  0
 27 42  1  0
 28 43  1  0
 29 44  1  0
M  CHG  3  15  -1  24   1  26  -1
M  END
>  <UniqueID>  (34) 
32

>  <SMILES>  (34) 
O=C(NCc1ccccn1)c1ccc([N-]S(=O)(=O)c2cccc([N+](=O)[O-])c2)cc1

>  <Energy>  (34) 
52.3514581927597

>  <Genealogy>  (34) 
O=C(NCc1ccccn1)c1ccc([N-]S(=O)(=O)c2cccc([N+](=O)[O-])c2)cc1 (protonated)
O=C(NCc1ccccn1)c1ccc([N-]S(=O)(=O)c2cccc([N+](=O)[O-])c2)cc1 (3D coordinates assigned)
O=C(NCc1ccccn1)c1ccc([N-]S(=O)(=O)c2cccc([N+](=O)[O-])c2)cc1 (optimized conformer: 52.3514581927597 kcal/mol)

>  <smiles>  (34) 
O=C(NCc1ccccn1)c1ccc(NS(=O)(=O)c2cccc([N+](=O)[O-])c2)cc1

>  <score_type>  (34) 
oracle

>  <origin>  (34) 
adg

>  <m_score__min__energy>  (34) 
-10.550000000000001

>  <m_primary>  (34) 
energy

$$$$
34:0
     RDKit          3D

 49 51  0  0  0  0  0  0  0  0999 V2000
   60.4193   27.6109   45.9496 H   0  0  0  0  0  0  0  0  0  0  0  0
   59.3570   27.8130   45.7480 C   0  0  0  0  0  0  0  0  0  0  0  0
   58.9870   28.9770   45.0720 C   0  0  0  0  0  0  0  0  0  0  0  0
   59.7600   29.6867   44.7422 H   0  0  0  0  0  0  0  0  0  0  0  0
   57.6320   29.2480   44.8100 C   0  0  0  0  0  0  0  0  0  0  0  0
   57.2370   30.4840   44.0910 C   0  0  0  0  0  0  0  0  0  0  0  0
   57.1350   30.4680   42.8340 O   0  0  0  0  0  0  0  0  0  0  0  0
   56.9130   31.6690   44.8370 N   0  0  0  0  0  0  0  0  0  0  0  0
   57.7010   32.4250   45.5460 C   0  0  0  0  0  0  0  0  0  0  0  0
   58.2840   31.9680   47.0500 S   0  0  0  0  0  0  0  0  0  0  0  0
   59.1920   33.3740   47.2560 C   0  0  0  0  0  0  0  0  0  0  0  0
   59.9990   33.6980   48.4520 C   0  0  0  0  0  0  0  0  0  0  0  0
   59.9440   34.8550   48.9450 O   0  0  0  0  0  0  0  0  0  0  0  0
   60.8130   32.7140   49.1040 N   0  0  0  0  0  0  0  0  0  0  0  0
   62.2220   32.8370   49.3540 C   0  0  0  0  0  0  0  0  0  0  0  0
   62.6880   32.7990   50.6850 C   0  0  0  0  0  0  0  0  0  0  0  0
   61.7230   32.6230   51.8250 C   0  0  0  0  0  0  0  0  0  0  0  0
   62.2611   32.7211   52.7794 H   0  0  0  0  0  0  0  0  0  0  0  0
   60.9399   33.3931   51.7647 H   0  0  0  0  0  0  0  0  0  0  0  0
   61.2622   31.6260   51.7647 H   0  0  0  0  0  0  0  0  0  0  0  0
   64.0660   32.8540   50.9430 C   0  0  0  0  0  0  0  0  0  0  0  0
   64.4280   32.8110   51.9808 H   0  0  0  0  0  0  0  0  0  0  0  0
   64.9840   32.9630   49.8930 C   0  0  0  0  0  0  0  0  0  0  0  0
   66.4540   33.0500   50.1820 C   0  0  0  0  0  0  0  0  0  0  0  0
   66.6138   33.0595   51.2703 H   0  0  0  0  0  0  0  0  0  0  0  0
   66.9659   32.1806   49.7438 H   0  0  0  0  0  0  0  0  0  0  0  0
   66.8598   33.9737   49.7438 H   0  0  0  0  0  0  0  0  0  0  0  0
   64.5180   33.0680   48.5760 C   0  0  0  0  0  0  0  0  0  0  0  0
   65.2378   33.1855   47.7525 H   0  0  0  0  0  0  0  0  0  0  0  0
   63.1440   33.0250   48.2950 C   0  0  0  0  0  0  0  0  0  0  0  0
   62.6950   33.1690   46.8650 C   0  0  0  0  0  0  0  0  0  0  0  0
   61.6478   33.5048   46.8416 H   0  0  0  0  0  0  0  0  0  0  0  0
   63.3289   33.9089   46.3544 H   0  0  0  0  0  0  0  0  0  0  0  0
   62.7803   32.1984   46.3544 H   0  0  0  0  0  0  0  0  0  0  0  0
   59.0110   34.1730   46.1170 C   0  0  0  0  0  0  0  0  0  0  0  0
   59.6750   35.5010   45.9150 C   0  0  0  0  0  0  0  0  0  0  0  0
   59.9000   35.9510   46.8932 H   0  0  0  0  0  0  0  0  0  0  0  0
   60.6095   35.3618   45.3518 H   0  0  0  0  0  0  0  0  0  0  0  0
   59.0029   36.1651   45.3518 H   0  0  0  0  0  0  0  0  0  0  0  0
   58.1850   33.6350   45.1740 N   0  0  0  0  0  0  0  0  0  0  0  0
   58.0000   34.1090   44.2650 H   0  0  0  0  0  0  0  0  0  0  0  0
   56.6570   28.3260   45.2370 C   0  0  0  0  0  0  0  0  0  0  0  0
   55.5946   28.5269   45.0348 H   0  0  0  0  0  0  0  0  0  0  0  0
   57.0240   27.1510   45.9190 C   0  0  0  0  0  0  0  0  0  0  0  0
   56.0180   26.2170   46.3530 N   0  0  0  0  0  0  0  0  0  0  0  0
   54.8360   26.3310   45.9700 O   0  0  0  0  0  0  0  0  0  0  0  0
   56.3430   25.1800   47.1990 O   0  0  0  0  0  0  0  0  0  0  0  0
   58.3850   26.9050   46.1690 C   0  0  0  0  0  0  0  0  0  0  0  0
   58.6860   25.9901   46.7004 H   0  0  0  0  0  0  0  0  0  0  0  0
  1  2  1  0
  2  3  2  0
  3  4  1  0
  3  5  1  0
  5  6  1  0
  6  7  2  0
  6  8  1  0
  8  9  2  0
  9 10  1  0
 10 11  1  0
 11 12  1  0
 12 13  2  0
 12 14  1  0
 14 15  1  0
 15 16  2  0
 16 17  1  0
 17 18  1  0
 17 19  1  0
 17 20  1  0
 16 21  1  0
 21 22  1  0
 21 23  2  0
 23 24  1  0
 24 25  1  0
 24 26  1  0
 24 27  1  0
 23 28  1  0
 28 29  1  0
 28 30  2  0
 30 31  1  0
 31 32  1  0
 31 33  1  0
 31 34  1  0
 11 35  2  0
 35 36  1  0
 36 37  1  0
 36 38  1  0
 36 39  1  0
 35 40  1  0
 40 41  1  0
  5 42  2  0
 42 43  1  0
 42 44  1  0
 44 45  1  0
 45 46  2  0
 45 47  1  0
 44 48  2  0
 48 49  1  0
 48  2  1  0
 40  9  1  0
 30 15  1  0
M  CHG  3  14  -1  45   1  47  -1
M  END
>  <UniqueID>  (35) 
33

>  <SMILES>  (35) 
Cc1cc(C)c([N-]C(=O)c2s/c(=N/C(=O)c3cccc([N+](=O)[O-])c3)[nH]c2C)c(C)c1

>  <Energy>  (35) 
94.86657882054344

>  <Genealogy>  (35) 
Cc1cc(C)c([N-]C(=O)c2sc(=NC(=O)c3cccc([N+](=O)[O-])c3)[nH]c2C)c(C)c1 (protonated)
Cc1cc(C)c([N-]C(=O)c2s/c(=N/C(=O)c3cccc([N+](=O)[O-])c3)[nH]c2C)c(C)c1 (cis-trans isomerization)
Cc1cc(C)c([N-]C(=O)c2s/c(=N/C(=O)c3cccc([N+](=O)[O-])c3)[nH]c2C)c(C)c1 (3D coordinates assigned)
Cc1cc(C)c([N-]C(=O)c2s/c(=N/C(=O)c3cccc([N+](=O)[O-])c3)[nH]c2C)c(C)c1 (optimized conformer: 94.86657882054344 kcal/mol)

>  <smiles>  (35) 
Cc1cc(C)c(NC(=O)c2sc(=NC(=O)c3cccc([N+](=O)[O-])c3)[nH]c2C)c(C)c1

>  <score_type>  (35) 
oracle

>  <origin>  (35) 
adg

>  <m_score__min__energy>  (35) 
-10.84

>  <m_primary>  (35) 
energy

$$$$
35:0
     RDKit          3D

 33 34  0  0  0  0  0  0  0  0999 V2000
   60.9900   30.1380   46.2130 O   0  0  0  0  0  0  0  0  0  0  0  0
   60.3350   29.5960   47.1440 C   0  0  0  0  0  0  0  0  0  0  0  0
   59.3760   30.4210   47.9480 C   0  0  0  0  0  0  0  0  0  0  0  0
   58.9160   31.5930   47.1220 C   0  0  0  0  0  0  0  0  0  0  0  0
   58.1490   31.3900   45.9630 C   0  0  0  0  0  0  0  0  0  0  0  0
   57.7940   32.4720   45.1530 C   0  0  0  0  0  0  0  0  0  0  0  0
   58.2110   33.7640   45.4870 C   0  0  0  0  0  0  0  0  0  0  0  0
   57.8640   34.8380   44.6770 O   0  0  0  0  0  0  0  0  0  0  0  0
   58.9820   33.9740   46.6340 C   0  0  0  0  0  0  0  0  0  0  0  0
   59.3370   32.8930   47.4470 C   0  0  0  0  0  0  0  0  0  0  0  0
   60.4220   28.1380   47.3500 C   0  0  0  0  0  0  0  0  0  0  0  0
   60.6670   27.6860   48.5010 O   0  0  0  0  0  0  0  0  0  0  0  0
   60.0720   27.1960   46.2320 C   0  0  1  0  0  0  0  0  0  0  0  0
   60.7290   25.9670   46.4130 O   0  0  0  0  0  0  0  0  0  0  0  0
   58.5710   26.9990   46.2200 C   0  0  0  0  0  0  0  0  0  0  0  0
   58.0160   25.7800   46.6460 C   0  0  0  0  0  0  0  0  0  0  0  0
   56.6380   25.5630   46.5580 C   0  0  0  0  0  0  0  0  0  0  0  0
   55.8030   26.5530   46.0320 C   0  0  0  0  0  0  0  0  0  0  0  0
   54.4340   26.3280   45.9430 O   0  0  0  0  0  0  0  0  0  0  0  0
   56.3470   27.7650   45.5940 C   0  0  0  0  0  0  0  0  0  0  0  0
   55.5230   28.7500   45.0590 O   0  0  0  0  0  0  0  0  0  0  0  0
   57.7260   27.9870   45.6830 C   0  0  0  0  0  0  0  0  0  0  0  0
   58.5083   29.8062   48.2293 H   0  0  0  0  0  0  0  0  0  0  0  0
   59.8751   30.7844   48.8584 H   0  0  0  0  0  0  0  0  0  0  0  0
   57.8261   30.3741   45.6915 H   0  0  0  0  0  0  0  0  0  0  0  0
   57.1857   32.3070   44.2515 H   0  0  0  0  0  0  0  0  0  0  0  0
   59.3097   34.9905   46.8973 H   0  0  0  0  0  0  0  0  0  0  0  0
   59.9489   33.0616   48.3454 H   0  0  0  0  0  0  0  0  0  0  0  0
   60.3963   27.6171   45.2689 H   0  0  0  0  0  0  0  0  0  0  0  0
   61.2440   26.0400   47.2600 H   0  0  0  0  0  0  0  0  0  0  0  0
   58.6693   24.9929   47.0506 H   0  0  0  0  0  0  0  0  0  0  0  0
   56.2095   24.6107   46.9036 H   0  0  0  0  0  0  0  0  0  0  0  0
   58.1510   28.9387   45.3313 H   0  0  0  0  0  0  0  0  0  0  0  0
  1  2  2  0
  2  3  1  0
  3  4  1  0
  4  5  2  0
  5  6  1  0
  6  7  2  0
  7  8  1  0
  7  9  1  0
  9 10  2  0
  2 11  1  0
 11 12  2  0
 11 13  1  0
 13 14  1  0
 13 15  1  0
 15 16  2  0
 16 17  1  0
 17 18  2  0
 18 19  1  0
 18 20  1  0
 20 21  1  0
 20 22  2  0
 10  4  1  0
 22 15  1  0
  3 23  1  0
  3 24  1  0
  5 25  1  0
  6 26  1  0
  9 27  1  0
 10 28  1  0
 13 29  1  6
 14 30  1  0
 16 31  1  0
 17 32  1  0
 22 33  1  0
M  CHG  3   8  -1  19  -1  21  -1
M  END
>  <UniqueID>  (36) 
34

>  <SMILES>  (36) 
O=C(Cc1ccc([O-])cc1)C(=O)[C@@H](O)c1ccc([O-])c([O-])c1

>  <Energy>  (36) 
29.761784615369972

>  <Genealogy>  (36) 
O=C(Cc1ccc([O-])cc1)C(=O)C(O)c1ccc([O-])c([O-])c1 (protonated)
O=C(Cc1ccc([O-])cc1)C(=O)[C@@H](O)c1ccc([O-])c([O-])c1 (chirality)
O=C(Cc1ccc([O-])cc1)C(=O)[C@@H](O)c1ccc([O-])c([O-])c1 (3D coordinates assigned)
O=C(Cc1ccc([O-])cc1)C(=O)[C@@H](O)c1ccc([O-])c([O-])c1 (optimized conformer: 29.761784615369972 kcal/mol)

>  <smiles>  (36) 
O=C(Cc1ccc(O)cc1)C(=O)C(O)c1ccc(O)c(O)c1

>  <score_type>  (36) 
oracle

>  <origin>  (36) 
adg

>  <m_score__min__energy>  (36) 
-15.640000000000001

>  <m_primary>  (36) 
energy

$$$$
36:0
     RDKit          3D

 61 63  0  0  0  0  0  0  0  0999 V2000
   57.0580   22.1840   44.1030 C   0  0  0  0  0  0  0  0  0  0  0  0
   57.7300   22.7710   45.6460 S   0  0  0  0  0  0  0  0  0  0  0  0
   59.2240   22.8860   45.5210 O   0  0  0  0  0  0  0  0  0  0  0  0
   57.4090   21.7570   46.7090 O   0  0  0  0  0  0  0  0  0  0  0  0
   57.0340   24.3130   46.1020 N   0  0  0  0  0  0  0  0  0  0  0  0
   56.9860   25.2640   44.9720 C   0  0  0  0  0  0  0  0  0  0  0  0
   58.3600   25.8740   44.6400 C   0  0  0  0  0  0  0  0  0  0  0  0
   59.1390   26.2900   45.9070 C   0  0  0  0  0  0  0  0  0  0  0  0
   59.8100   27.5500   45.7590 O   0  0  0  0  0  0  0  0  0  0  0  0
   59.5860   28.7580   46.4490 C   0  0  0  0  0  0  0  0  0  0  0  0
   59.7980   28.9000   47.8350 C   0  0  0  0  0  0  0  0  0  0  0  0
   59.5170   30.1060   48.4790 C   0  0  0  0  0  0  0  0  0  0  0  0
   59.0310   31.1960   47.7540 C   0  0  0  0  0  0  0  0  0  0  0  0
   58.5480   32.6640   48.6000 S   0  0  0  0  0  0  0  0  0  0  0  0
   57.7510   32.3330   49.8320 O   0  0  0  0  0  0  0  0  0  0  0  0
   57.6970   33.5000   47.6840 O   0  0  0  0  0  0  0  0  0  0  0  0
   59.9710   33.5520   49.0360 N   0  0  0  0  0  0  0  0  0  0  0  0
   61.2130   33.3600   48.3410 C   0  0  0  0  0  0  0  0  0  0  0  0
   62.2870   32.7330   48.9950 C   0  0  0  0  0  0  0  0  0  0  0  0
   63.5100   32.5540   48.3450 C   0  0  0  0  0  0  0  0  0  0  0  0
   63.6790   33.0120   47.0380 C   0  0  0  0  0  0  0  0  0  0  0  0
   62.6240   33.6450   46.3760 C   0  0  0  0  0  0  0  0  0  0  0  0
   61.3800   33.8120   47.0100 C   0  0  0  0  0  0  0  0  0  0  0  0
   60.2630   34.4860   46.2610 C   0  0  0  0  0  0  0  0  0  0  0  0
   59.5940   35.3660   47.1210 O   0  0  0  0  0  0  0  0  0  0  0  0
   58.8340   31.0760   46.3750 C   0  0  0  0  0  0  0  0  0  0  0  0
   59.1050   29.8660   45.7160 C   0  0  0  0  0  0  0  0  0  0  0  0
   58.7990   29.7520   44.2400 C   0  0  0  0  0  0  0  0  0  0  0  0
   57.4950   28.9820   43.9870 C   0  0  0  0  0  0  0  0  0  0  0  0
   56.3040   29.6940   44.5520 C   0  0  0  0  0  0  0  0  0  0  0  0
   56.3280   30.9440   44.7020 O   0  0  0  0  0  0  0  0  0  0  0  0
   55.1570   28.9760   44.8870 O   0  0  0  0  0  0  0  0  0  0  0  0
   58.2910   26.2370   47.1870 C   0  0  0  0  0  0  0  0  0  0  0  0
   57.6540   24.8440   47.3430 C   0  0  0  0  0  0  0  0  0  0  0  0
   56.2436   21.4726   44.3048 H   0  0  0  0  0  0  0  0  0  0  0  0
   56.6670   23.0350   43.5260 H   0  0  0  0  0  0  0  0  0  0  0  0
   57.8487   21.6821   43.5260 H   0  0  0  0  0  0  0  0  0  0  0  0
   56.6140   24.7335   44.0831 H   0  0  0  0  0  0  0  0  0  0  0  0
   56.3216   26.0901   45.2654 H   0  0  0  0  0  0  0  0  0  0  0  0
   58.9533   25.1298   44.0885 H   0  0  0  0  0  0  0  0  0  0  0  0
   58.1896   26.7787   44.0379 H   0  0  0  0  0  0  0  0  0  0  0  0
   59.9219   25.5267   46.0271 H   0  0  0  0  0  0  0  0  0  0  0  0
   60.1891   28.0514   48.4154 H   0  0  0  0  0  0  0  0  0  0  0  0
   59.6792   30.1983   49.5631 H   0  0  0  0  0  0  0  0  0  0  0  0
   59.8590   34.3590   49.6900 H   0  0  0  0  0  0  0  0  0  0  0  0
   62.1632   32.3796   50.0293 H   0  0  0  0  0  0  0  0  0  0  0  0
   64.3401   32.0519   48.8635 H   0  0  0  0  0  0  0  0  0  0  0  0
   64.6440   32.8746   46.5282 H   0  0  0  0  0  0  0  0  0  0  0  0
   62.7677   34.0158   45.3504 H   0  0  0  0  0  0  0  0  0  0  0  0
   60.6771   35.0473   45.4104 H   0  0  0  0  0  0  0  0  0  0  0  0
   59.5585   33.7275   45.8890 H   0  0  0  0  0  0  0  0  0  0  0  0
   58.7540   34.9060   47.3880 H   0  0  0  0  0  0  0  0  0  0  0  0
   58.4631   31.9378   45.8007 H   0  0  0  0  0  0  0  0  0  0  0  0
   58.7037   30.7629   43.8168 H   0  0  0  0  0  0  0  0  0  0  0  0
   59.6212   29.1996   43.7615 H   0  0  0  0  0  0  0  0  0  0  0  0
   57.3568   28.8645   42.9021 H   0  0  0  0  0  0  0  0  0  0  0  0
   57.5751   28.0050   44.4861 H   0  0  0  0  0  0  0  0  0  0  0  0
   58.9320   26.4433   48.0568 H   0  0  0  0  0  0  0  0  0  0  0  0
   57.4937   26.9920   47.1219 H   0  0  0  0  0  0  0  0  0  0  0  0
   58.4367   24.1414   47.6650 H   0  0  0  0  0  0  0  0  0  0  0  0
   56.8441   24.9487   48.0799 H   0  0  0  0  0  0  0  0  0  0  0  0
  1  2  1  0
  2  3  2  0
  2  4  2  0
  2  5  1  0
  5  6  1  0
  6  7  1  0
  7  8  1  0
  8  9  1  0
  9 10  1  0
 10 11  2  0
 11 12  1  0
 12 13  2  0
 13 14  1  0
 14 15  2  0
 14 16  2  0
 14 17  1  0
 17 18  1  0
 18 19  2  0
 19 20  1  0
 20 21  2  0
 21 22  1  0
 22 23  2  0
 23 24  1  0
 24 25  1  0
 13 26  1  0
 26 27  2  0
 27 28  1  0
 28 29  1  0
 29 30  1  0
 30 31  2  0
 30 32  1  0
  8 33  1  0
 33 34  1  0
 34  5  1  0
 27 10  1  0
 23 18  1  0
  1 35  1  0
  1 36  1  0
  1 37  1  0
  6 38  1  0
  6 39  1  0
  7 40  1  0
  7 41  1  0
  8 42  1  0
 11 43  1  0
 12 44  1  0
 17 45  1  0
 19 46  1  0
 20 47  1  0
 21 48  1  0
 22 49  1  0
 24 50  1  0
 24 51  1  0
 25 52  1  0
 26 53  1  0
 28 54  1  0
 28 55  1  0
 29 56  1  0
 29 57  1  0
 33 58  1  0
 33 59  1  0
 34 60  1  0
 34 61  1  0
M  CHG  1  32  -1
M  END
>  <UniqueID>  (37) 
35

>  <SMILES>  (37) 
CS(=O)(=O)N1CCC(Oc2ccc(S(=O)(=O)Nc3ccccc3CO)cc2CCC(=O)[O-])CC1

>  <Energy>  (37) 
69.26751642324058

>  <Genealogy>  (37) 
CS(=O)(=O)N1CCC(Oc2ccc(S(=O)(=O)Nc3ccccc3CO)cc2CCC(=O)[O-])CC1 (protonated)
CS(=O)(=O)N1CCC(Oc2ccc(S(=O)(=O)Nc3ccccc3CO)cc2CCC(=O)[O-])CC1 (3D coordinates assigned)
CS(=O)(=O)N1CCC(Oc2ccc(S(=O)(=O)Nc3ccccc3CO)cc2CCC(=O)[O-])CC1 (nonaromatic ring conformer: 69.26751642324058 kcal/mol)

>  <smiles>  (37) 
CS(=O)(=O)N1CCC(Oc2ccc(S(=O)(=O)Nc3ccccc3CO)cc2CCC(=O)O)CC1

>  <score_type>  (37) 
oracle

>  <origin>  (37) 
adg

>  <m_score__min__energy>  (37) 
-12.369999999999999

>  <m_primary>  (37) 
energy

$$$$
37:0
     RDKit          3D

 65 68  0  0  0  0  0  0  0  0999 V2000
   56.6810   19.5240   43.1080 H   0  0  0  0  0  0  0  0  0  0  0  0
   56.2640   20.4480   43.1030 O   0  0  0  0  0  0  0  0  0  0  0  0
   56.8930   21.5310   43.7140 C   0  0  0  0  0  0  0  0  0  0  0  0
   58.2780   21.5070   43.9050 C   0  0  0  0  0  0  0  0  0  0  0  0
   58.8644   20.6402   43.5661 H   0  0  0  0  0  0  0  0  0  0  0  0
   58.9180   22.5830   44.5260 C   0  0  0  0  0  0  0  0  0  0  0  0
   60.0068   22.5576   44.6804 H   0  0  0  0  0  0  0  0  0  0  0  0
   58.1800   23.6920   44.9520 C   0  0  0  0  0  0  0  0  0  0  0  0
   58.6893   24.5320   45.4471 H   0  0  0  0  0  0  0  0  0  0  0  0
   56.7850   23.7370   44.7490 C   0  0  0  0  0  0  0  0  0  0  0  0
   55.9590   24.8770   45.2090 C   0  0  0  0  0  0  0  0  0  0  0  0
   55.0452   25.1195   44.6468 H   0  0  0  0  0  0  0  0  0  0  0  0
   56.2670   25.6270   46.2730 C   0  0  0  0  0  0  0  0  0  0  0  0
   55.9189   26.6698   46.3115 H   0  0  0  0  0  0  0  0  0  0  0  0
   57.0600   25.0940   47.3950 C   0  0  0  0  0  0  0  0  0  0  0  0
   56.5610   24.1880   48.1130 O   0  0  0  0  0  0  0  0  0  0  0  0
   58.3640   25.5980   47.7200 N   0  0  0  0  0  0  0  0  0  0  0  0
   59.3470   26.0810   46.7530 C   0  0  0  0  0  0  0  0  0  0  0  0
   60.3120   26.2297   47.2596 H   0  0  0  0  0  0  0  0  0  0  0  0
   59.4545   25.3375   45.9495 H   0  0  0  0  0  0  0  0  0  0  0  0
   58.8930   27.3860   46.1560 C   0  0  0  0  0  0  0  0  0  0  0  0
   58.9130   28.5660   46.9170 C   0  0  0  0  0  0  0  0  0  0  0  0
   59.2211   28.5318   47.9724 H   0  0  0  0  0  0  0  0  0  0  0  0
   58.5430   29.7840   46.3390 C   0  0  0  0  0  0  0  0  0  0  0  0
   58.5595   30.7041   46.9417 H   0  0  0  0  0  0  0  0  0  0  0  0
   58.1510   29.8370   44.9940 C   0  0  0  0  0  0  0  0  0  0  0  0
   57.6590   31.3720   44.2810 S   0  0  0  0  0  0  0  0  0  0  0  0
   56.3480   31.8120   44.8710 O   0  0  0  0  0  0  0  0  0  0  0  0
   57.4740   31.1870   42.8020 O   0  0  0  0  0  0  0  0  0  0  0  0
   58.8670   32.5950   44.5520 N   0  0  0  0  0  0  0  0  0  0  0  0
   58.3700   33.6540   45.4410 C   0  0  0  0  0  0  0  0  0  0  0  0
   57.5617   34.2162   44.9505 H   0  0  0  0  0  0  0  0  0  0  0  0
   59.5260   34.6250   45.7510 C   0  0  0  0  0  0  0  0  0  0  0  0
   60.4694   34.0606   45.7900 H   0  0  0  0  0  0  0  0  0  0  0  0
   59.5659   35.3872   44.9589 H   0  0  0  0  0  0  0  0  0  0  0  0
   59.3060   35.3290   47.0970 C   0  0  0  0  0  0  0  0  0  0  0  0
   60.1314   36.0368   47.2635 H   0  0  0  0  0  0  0  0  0  0  0  0
   58.3345   35.8428   47.0495 H   0  0  0  0  0  0  0  0  0  0  0  0
   59.2570   34.3770   48.2390 N   0  0  0  0  0  0  0  0  0  0  0  0
   60.5450   34.3380   48.9660 C   0  0  0  0  0  0  0  0  0  0  0  0
   60.9819   35.3474   48.9793 H   0  0  0  0  0  0  0  0  0  0  0  0
   60.3595   33.9865   49.9917 H   0  0  0  0  0  0  0  0  0  0  0  0
   61.5100   33.3910   48.2990 C   0  0  0  0  0  0  0  0  0  0  0  0
   62.4450   33.8770   47.3710 C   0  0  0  0  0  0  0  0  0  0  0  0
   62.4489   34.9444   47.1051 H   0  0  0  0  0  0  0  0  0  0  0  0
   63.3720   33.0090   46.7830 C   0  0  0  0  0  0  0  0  0  0  0  0
   64.0990   33.3934   46.0525 H   0  0  0  0  0  0  0  0  0  0  0  0
   63.3740   31.6540   47.1240 C   0  0  0  0  0  0  0  0  0  0  0  0
   64.1041   30.9727   46.6627 H   0  0  0  0  0  0  0  0  0  0  0  0
   62.4500   31.1630   48.0500 C   0  0  0  0  0  0  0  0  0  0  0  0
   62.4529   30.0955   48.3156 H   0  0  0  0  0  0  0  0  0  0  0  0
   61.5210   32.0270   48.6400 C   0  0  0  0  0  0  0  0  0  0  0  0
   60.7978   31.6384   49.3721 H   0  0  0  0  0  0  0  0  0  0  0  0
   58.8090   33.0090   47.8640 C   0  0  0  0  0  0  0  0  0  0  0  0
   59.6829   32.4257   47.5385 H   0  0  0  0  0  0  0  0  0  0  0  0
   58.3329   32.5536   48.7448 H   0  0  0  0  0  0  0  0  0  0  0  0
   57.7800   33.0340   46.7290 C   0  0  0  0  0  0  0  0  0  0  0  0
   57.4591   32.0038   46.5150 H   0  0  0  0  0  0  0  0  0  0  0  0
   56.9281   33.6515   47.0498 H   0  0  0  0  0  0  0  0  0  0  0  0
   58.1250   28.6600   44.2340 C   0  0  0  0  0  0  0  0  0  0  0  0
   57.8098   28.6948   43.1807 H   0  0  0  0  0  0  0  0  0  0  0  0
   58.4980   27.4420   44.8090 C   0  0  0  0  0  0  0  0  0  0  0  0
   58.4822   26.5233   44.2043 H   0  0  0  0  0  0  0  0  0  0  0  0
   56.1490   22.6410   44.1420 C   0  0  0  0  0  0  0  0  0  0  0  0
   55.0581   22.6532   44.0011 H   0  0  0  0  0  0  0  0  0  0  0  0
  1  2  1  0
  2  3  1  0
  3  4  2  0
  4  5  1  0
  4  6  1  0
  6  7  1  0
  6  8  2  0
  8  9  1  0
  8 10  1  0
 10 11  1  0
 11 12  1  0
 11 13  2  0
 13 14  1  0
 13 15  1  0
 15 16  2  0
 15 17  1  0
 17 18  1  0
 18 19  1  0
 18 20  1  0
 18 21  1  0
 21 22  2  0
 22 23  1  0
 22 24  1  0
 24 25  1  0
 24 26  2  0
 26 27  1  0
 27 28  2  0
 27 29  2  0
 27 30  1  0
 30 31  1  0
 31 32  1  0
 31 33  1  0
 33 34  1  0
 33 35  1  0
 33 36  1  0
 36 37  1  0
 36 38  1  0
 36 39  1  0
 39 40  1  0
 40 41  1  0
 40 42  1  0
 40 43  1  0
 43 44  2  0
 44 45  1  0
 44 46  1  0
 46 47  1  0
 46 48  2  0
 48 49  1  0
 48 50  1  0
 50 51  1  0
 50 52  2  0
 52 53  1  0
 39 54  1  0
 54 55  1  0
 54 56  1  0
 54 57  1  0
 57 58  1  0
 57 59  1  0
 26 60  1  0
 60 61  1  0
 60 62  2  0
 62 63  1  0
 10 64  2  0
 64 65  1  0
 64  3  1  0
 62 21  1  0
 57 31  1  0
 52 43  1  0
M  CHG  2  17  -1  30  -1
M  END
>  <UniqueID>  (38) 
36

>  <SMILES>  (38) 
O=C(/C=C/c1cccc(O)c1)[N-]Cc1ccc(S(=O)(=O)[N-]C2CCN(Cc3ccccc3)CC2)cc1

>  <Energy>  (38) 
78.95008513172417

>  <Genealogy>  (38) 
O=C(C=Cc1cccc(O)c1)[N-]Cc1ccc(S(=O)(=O)[N-]C2CCN(Cc3ccccc3)CC2)cc1 (protonated)
O=C(/C=C/c1cccc(O)c1)[N-]Cc1ccc(S(=O)(=O)[N-]C2CCN(Cc3ccccc3)CC2)cc1 (cis-trans isomerization)
O=C(/C=C/c1cccc(O)c1)[N-]Cc1ccc(S(=O)(=O)[N-]C2CCN(Cc3ccccc3)CC2)cc1 (3D coordinates assigned)
O=C(/C=C/c1cccc(O)c1)[N-]Cc1ccc(S(=O)(=O)[N-]C2CCN(Cc3ccccc3)CC2)cc1 (nonaromatic ring conformer: 78.95008513172417 kcal/mol)

>  <smiles>  (38) 
O=C(C=Cc1cccc(O)c1)NCc1ccc(S(=O)(=O)NC2CCN(Cc3ccccc3)CC2)cc1

>  <score_type>  (38) 
oracle

>  <origin>  (38) 
adg

>  <m_score__min__energy>  (38) 
-13.56

>  <m_primary>  (38) 
energy

$$$$
38:0
     RDKit          3D

 41 44  0  0  0  0  0  0  0  0999 V2000
   57.6088   30.4693   42.9834 H   0  0  0  0  0  0  0  0  0  0  0  0
   57.4650   30.5620   44.0700 C   0  0  0  0  0  0  0  0  0  0  0  0
   57.2330   31.7750   44.5860 C   0  0  0  0  0  0  0  0  0  0  0  0
   56.3541   32.3373   44.2375 H   0  0  0  0  0  0  0  0  0  0  0  0
   58.1070   32.3880   45.6020 C   0  0  0  0  0  0  0  0  0  0  0  0
   57.7240   33.7330   46.5700 S   0  0  0  0  0  0  0  0  0  0  0  0
   59.2080   33.6940   47.3560 C   0  0  0  0  0  0  0  0  0  0  0  0
   59.6870   34.5350   48.3570 C   0  0  0  0  0  0  0  0  0  0  0  0
   59.0735   35.3628   48.7423 H   0  0  0  0  0  0  0  0  0  0  0  0
   60.9750   34.2960   48.8600 C   0  0  0  0  0  0  0  0  0  0  0  0
   61.3813   34.9425   49.6518 H   0  0  0  0  0  0  0  0  0  0  0  0
   61.7510   33.2330   48.3570 C   0  0  0  0  0  0  0  0  0  0  0  0
   62.7596   33.0555   48.7584 H   0  0  0  0  0  0  0  0  0  0  0  0
   61.2450   32.3970   47.3450 C   0  0  0  0  0  0  0  0  0  0  0  0
   61.8474   31.5658   46.9498 H   0  0  0  0  0  0  0  0  0  0  0  0
   59.9600   32.6450   46.8520 C   0  0  0  0  0  0  0  0  0  0  0  0
   59.3500   31.9200   45.8790 N   0  0  0  0  0  0  0  0  0  0  0  0
   59.7850   31.0980   45.4020 H   0  0  0  0  0  0  0  0  0  0  0  0
   57.5360   29.3370   44.9050 C   0  0  0  0  0  0  0  0  0  0  0  0
   56.3930   28.5960   45.2410 C   0  0  0  0  0  0  0  0  0  0  0  0
   55.1340   28.9640   44.7800 O   0  0  0  0  0  0  0  0  0  0  0  0
   56.5110   27.4850   46.0050 N   0  0  0  0  0  0  0  0  0  0  0  0
   57.7150   27.0470   46.4480 C   0  0  0  0  0  0  0  0  0  0  0  0
   57.7560   26.0080   47.1600 O   0  0  0  0  0  0  0  0  0  0  0  0
   58.8630   27.7230   46.1160 N   0  0  0  0  0  0  0  0  0  0  0  0
   60.1770   27.2570   46.6080 C   0  0  0  0  0  0  0  0  0  0  0  0
   60.2288   26.1618   46.5193 H   0  0  0  0  0  0  0  0  0  0  0  0
   60.9686   27.7249   46.0043 H   0  0  0  0  0  0  0  0  0  0  0  0
   60.3710   27.6480   48.0540 C   0  0  0  0  0  0  0  0  0  0  0  0
   60.7460   26.6750   48.9940 C   0  0  0  0  0  0  0  0  0  0  0  0
   60.9119   25.6372   48.6693 H   0  0  0  0  0  0  0  0  0  0  0  0
   60.9100   27.0160   50.3400 C   0  0  0  0  0  0  0  0  0  0  0  0
   61.2032   26.2469   51.0698 H   0  0  0  0  0  0  0  0  0  0  0  0
   60.7020   28.3320   50.7590 C   0  0  0  0  0  0  0  0  0  0  0  0
   60.8302   28.5990   51.8184 H   0  0  0  0  0  0  0  0  0  0  0  0
   60.3310   29.3090   49.8320 C   0  0  0  0  0  0  0  0  0  0  0  0
   60.1688   30.3453   50.1632 H   0  0  0  0  0  0  0  0  0  0  0  0
   60.1650   28.9740   48.4840 C   0  0  0  0  0  0  0  0  0  0  0  0
   59.8090   29.9460   47.6050 F   0  0  0  0  0  0  0  0  0  0  0  0
   58.7830   28.8580   45.3470 C   0  0  0  0  0  0  0  0  0  0  0  0
   59.8320   29.4900   45.0390 O   0  0  0  0  0  0  0  0  0  0  0  0
  1  2  1  0
  2  3  2  0
  3  4  1  0
  3  5  1  0
  5  6  1  0
  6  7  1  0
  7  8  2  0
  8  9  1  0
  8 10  1  0
 10 11  1  0
 10 12  2  0
 12 13  1  0
 12 14  1  0
 14 15  1  0
 14 16  2  0
 16 17  1  0
 17 18  1  0
  2 19  1  0
 19 20  2  0
 20 21  1  0
 20 22  1  0
 22 23  1  0
 23 24  2  0
 23 25  1  0
 25 26  1  0
 26 27  1  0
 26 28  1  0
 26 29  1  0
 29 30  2  0
 30 31  1  0
 30 32  1  0
 32 33  1  0
 32 34  2  0
 34 35  1  0
 34 36  1  0
 36 37  1  0
 36 38  2  0
 38 39  1  0
 25 40  1  0
 40 41  2  0
 17  5  2  0
 40 19  1  0
 16  7  1  0
 38 29  1  0
M  CHG  3  17   1  21  -1  22  -1
M  END
>  <UniqueID>  (39) 
37

>  <SMILES>  (39) 
O=c1[n-]c([O-])c(/C=C/c2[nH+]c3ccccc3s2)c(=O)n1Cc1ccccc1F

>  <Energy>  (39) 
90.06420282422016

>  <Genealogy>  (39) 
O=c1[n-]c([O-])c(C=Cc2[nH+]c3ccccc3s2)c(=O)n1Cc1ccccc1F (protonated)
O=c1[n-]c([O-])c(/C=C/c2[nH+]c3ccccc3s2)c(=O)n1Cc1ccccc1F (cis-trans isomerization)
O=c1[n-]c([O-])c(/C=C/c2[nH+]c3ccccc3s2)c(=O)n1Cc1ccccc1F (3D coordinates assigned)
O=c1[n-]c([O-])c(/C=C/c2[nH+]c3ccccc3s2)c(=O)n1Cc1ccccc1F (optimized conformer: 90.06420282422016 kcal/mol)

>  <smiles>  (39) 
O=c1[nH]c(O)c(C=Cc2nc3ccccc3s2)c(=O)n1Cc1ccccc1F

>  <score_type>  (39) 
oracle

>  <origin>  (39) 
adg

>  <m_score__min__energy>  (39) 
-11.41

>  <m_primary>  (39) 
energy

$$$$
39:0
     RDKit          3D

 42 46  0  0  0  0  0  0  0  0999 V2000
   54.3910   27.0940   46.3560 H   0  0  0  0  0  0  0  0  0  0  0  0
   55.1420   26.7530   45.7690 O   0  0  0  0  0  0  0  0  0  0  0  0
   56.1660   25.9610   46.2830 C   0  0  0  0  0  0  0  0  0  0  0  0
   55.9540   24.9380   47.1260 N   0  0  0  0  0  0  0  0  0  0  0  0
   57.2050   24.5130   47.4010 C   0  0  0  0  0  0  0  0  0  0  0  0
   57.4380   23.5510   48.1770 O   0  0  0  0  0  0  0  0  0  0  0  0
   58.1880   25.2060   46.7860 N   0  0  0  0  0  0  0  0  0  0  0  0
   57.5180   26.1140   46.0560 C   0  0  0  0  0  0  0  0  0  0  0  0
   58.1820   27.1500   45.2480 C   0  0  0  0  0  0  0  0  0  0  0  0
   58.9702   26.8340   44.5488 H   0  0  0  0  0  0  0  0  0  0  0  0
   57.8840   28.4550   45.3130 C   0  0  0  0  0  0  0  0  0  0  0  0
   57.0170   29.1440   44.4650 C   0  0  0  0  0  0  0  0  0  0  0  0
   56.4787   28.6980   43.6157 H   0  0  0  0  0  0  0  0  0  0  0  0
   56.9350   30.4440   44.8410 N   0  0  0  0  0  0  0  0  0  0  0  0
   57.7180   30.5840   45.8980 N   0  0  0  0  0  0  0  0  0  0  0  0
   57.9310   31.7000   46.6330 C   0  0  0  0  0  0  0  0  0  0  0  0
   57.3700   32.8270   46.3080 N   0  0  0  0  0  0  0  0  0  0  0  0
   58.1030   33.9390   45.7100 C   0  0  0  0  0  0  0  0  0  0  0  0
   57.2628   34.3909   45.1624 H   0  0  0  0  0  0  0  0  0  0  0  0
   59.2220   34.4730   46.5860 C   0  0  0  0  0  0  0  0  0  0  0  0
   59.4724   35.5440   46.5672 H   0  0  0  0  0  0  0  0  0  0  0  0
   59.4536   34.4383   47.6608 H   0  0  0  0  0  0  0  0  0  0  0  0
   59.5440   33.5940   45.3850 C   0  0  0  0  0  0  0  0  0  0  0  0
   60.0275   34.0296   44.4982 H   0  0  0  0  0  0  0  0  0  0  0  0
   60.1053   32.6604   45.2320 H   0  0  0  0  0  0  0  0  0  0  0  0
   58.7530   31.6060   47.7160 N   0  0  0  0  0  0  0  0  0  0  0  0
   59.3490   30.4160   48.0420 C   0  0  0  0  0  0  0  0  0  0  0  0
   60.1820   30.3130   49.1620 O   0  0  0  0  0  0  0  0  0  0  0  0
   61.4540   30.8950   49.2780 C   0  0  0  0  0  0  0  0  0  0  0  0
   62.1850   30.6760   50.4510 C   0  0  0  0  0  0  0  0  0  0  0  0
   61.7553   30.0604   51.2550 H   0  0  0  0  0  0  0  0  0  0  0  0
   63.4580   31.2340   50.6090 C   0  0  0  0  0  0  0  0  0  0  0  0
   64.0211   31.0638   51.5385 H   0  0  0  0  0  0  0  0  0  0  0  0
   64.0160   32.0090   49.5850 C   0  0  0  0  0  0  0  0  0  0  0  0
   65.3260   32.5840   49.7470 C   0  0  0  0  0  0  0  0  0  0  0  0
   66.3790   33.0460   49.8770 N   0  0  0  0  0  0  0  0  0  0  0  0
   63.3010   32.2140   48.3980 C   0  0  0  0  0  0  0  0  0  0  0  0
   63.7406   32.8153   47.5886 H   0  0  0  0  0  0  0  0  0  0  0  0
   62.0290   31.6550   48.2410 C   0  0  0  0  0  0  0  0  0  0  0  0
   61.4749   31.8095   47.3034 H   0  0  0  0  0  0  0  0  0  0  0  0
   59.1060   29.3050   47.2900 N   0  0  0  0  0  0  0  0  0  0  0  0
   58.2960   29.4230   46.2110 C   0  0  0  0  0  0  0  0  0  0  0  0
  1  2  1  0
  2  3  1  0
  3  4  1  0
  4  5  1  0
  5  6  2  0
  5  7  1  0
  7  8  1  0
  8  9  1  0
  9 10  1  0
  9 11  2  3
 11 12  1  0
 12 13  1  0
 12 14  2  0
 14 15  1  0
 15 16  1  0
 16 17  2  0
 17 18  1  0
 18 19  1  0
 18 20  1  0
 20 21  1  0
 20 22  1  0
 20 23  1  0
 23 24  1  0
 23 25  1  0
 16 26  1  0
 26 27  2  0
 27 28  1  0
 28 29  1  0
 29 30  2  0
 30 31  1  0
 30 32  1  0
 32 33  1  0
 32 34  2  0
 34 35  1  0
 35 36  3  0
 34 37  1  0
 37 38  1  0
 37 39  2  0
 39 40  1  0
 27 41  1  0
 41 42  2  0
  8  3  2  0
 42 11  1  0
 42 15  1  0
 23 18  1  0
 39 29  1  0
M  CHG  2   4  -1   7  -1
M  END
>  <UniqueID>  (40) 
38

>  <SMILES>  (40) 
N#Cc1ccc(Oc2n/c(=N\C3CC3)n3ncc(=Cc4[n-]c(=O)[n-]c4O)c3n2)cc1

>  <Energy>  (40) 
389.63194383463133

>  <Genealogy>  (40) 
N#Cc1ccc(Oc2nc(=NC3CC3)n3ncc(=Cc4[n-]c(=O)[n-]c4O)c3n2)cc1 (protonated)
N#Cc1ccc(Oc2n/c(=N\C3CC3)n3ncc(=Cc4[n-]c(=O)[n-]c4O)c3n2)cc1 (cis-trans isomerization)
N#Cc1ccc(Oc2n/c(=N\C3CC3)n3ncc(=Cc4[n-]c(=O)[n-]c4O)c3n2)cc1 (3D coordinates assigned)
N#Cc1ccc(Oc2n/c(=N\C3CC3)n3ncc(=Cc4[n-]c(=O)[n-]c4O)c3n2)cc1 (nonaromatic ring conformer: 389.63194383463133 kcal/mol)

>  <smiles>  (40) 
N#Cc1ccc(Oc2nc(=NC3CC3)n3ncc(=Cc4[nH]c(=O)[nH]c4O)c3n2)cc1

>  <score_type>  (40) 
oracle

>  <origin>  (40) 
adg

>  <m_score__min__energy>  (40) 
-13

>  <m_primary>  (40) 
energy

$$$$
40:0
     RDKit          3D

 40 42  0  0  0  0  0  0  0  0999 V2000
   56.4190   30.6630   44.4430 N   0  0  0  0  0  0  0  0  0  0  0  0
   57.0880   31.4960   44.8880 C   0  0  0  0  0  0  0  0  0  0  0  0
   57.9190   32.5360   45.4460 C   0  0  0  0  0  0  0  0  0  0  0  0
   58.0030   33.7640   44.7740 C   0  0  0  0  0  0  0  0  0  0  0  0
   58.8660   34.7620   45.2330 C   0  0  0  0  0  0  0  0  0  0  0  0
   59.6610   34.5360   46.3580 C   0  0  0  0  0  0  0  0  0  0  0  0
   59.5850   33.3170   47.0350 C   0  0  0  0  0  0  0  0  0  0  0  0
   58.6990   32.3200   46.6070 C   0  0  0  0  0  0  0  0  0  0  0  0
   58.6610   31.0810   47.3290 N   0  0  0  0  0  0  0  0  0  0  0  0
   59.5010   29.9580   47.0440 C   0  0  0  0  0  0  0  0  0  0  0  0
   60.4280   30.0510   46.1950 O   0  0  0  0  0  0  0  0  0  0  0  0
   59.3060   28.6810   47.7960 C   0  0  0  0  0  0  0  0  0  0  0  0
   58.6050   27.6880   46.9130 C   0  0  0  0  0  0  0  0  0  0  0  0
   58.4900   26.3470   47.3110 C   0  0  0  0  0  0  0  0  0  0  0  0
   57.9290   25.4000   46.4490 C   0  0  0  0  0  0  0  0  0  0  0  0
   57.4840   25.7800   45.1730 C   0  0  0  0  0  0  0  0  0  0  0  0
   56.9430   24.7540   44.2130 C   0  0  0  0  0  0  0  0  0  0  0  0
   55.6740   24.2180   44.7100 N   0  0  0  0  0  0  0  0  0  0  0  0
   54.7710   24.8170   45.5070 C   0  0  0  0  0  0  0  0  0  0  0  0
   54.8420   26.1300   45.9660 O   0  0  0  0  0  0  0  0  0  0  0  0
   53.7630   23.9270   45.8020 C   0  0  0  0  0  0  0  0  0  0  0  0
   54.0250   22.7490   45.1990 N   0  0  0  0  0  0  0  0  0  0  0  0
   55.1910   22.9670   44.5530 C   0  0  0  0  0  0  0  0  0  0  0  0
   55.7700   22.0770   43.8740 O   0  0  0  0  0  0  0  0  0  0  0  0
   57.5940   27.1220   44.7780 C   0  0  0  0  0  0  0  0  0  0  0  0
   58.1550   28.0680   45.6400 C   0  0  0  0  0  0  0  0  0  0  0  0
   57.3862   33.9423   43.8809 H   0  0  0  0  0  0  0  0  0  0  0  0
   58.9192   35.7269   44.7074 H   0  0  0  0  0  0  0  0  0  0  0  0
   60.3480   35.3189   46.7116 H   0  0  0  0  0  0  0  0  0  0  0  0
   60.2258   33.1383   47.9111 H   0  0  0  0  0  0  0  0  0  0  0  0
   60.2845   28.2786   48.0972 H   0  0  0  0  0  0  0  0  0  0  0  0
   58.6983   28.8703   48.6932 H   0  0  0  0  0  0  0  0  0  0  0  0
   58.8431   26.0395   48.3064 H   0  0  0  0  0  0  0  0  0  0  0  0
   57.8359   24.3526   46.7720 H   0  0  0  0  0  0  0  0  0  0  0  0
   56.7798   25.2243   43.2321 H   0  0  0  0  0  0  0  0  0  0  0  0
   57.6681   23.9322   44.1187 H   0  0  0  0  0  0  0  0  0  0  0  0
   55.1270   26.3470   46.9120 H   0  0  0  0  0  0  0  0  0  0  0  0
   52.8849   24.1419   46.4288 H   0  0  0  0  0  0  0  0  0  0  0  0
   57.2367   27.4309   43.7846 H   0  0  0  0  0  0  0  0  0  0  0  0
   58.2442   29.1162   45.3185 H   0  0  0  0  0  0  0  0  0  0  0  0
  1  2  3  0
  2  3  1  0
  3  4  2  0
  4  5  1  0
  5  6  2  0
  6  7  1  0
  7  8  2  0
  8  9  1  0
  9 10  1  0
 10 11  2  0
 10 12  1  0
 12 13  1  0
 13 14  2  0
 14 15  1  0
 15 16  2  0
 16 17  1  0
 17 18  1  0
 18 19  1  0
 19 20  1  0
 19 21  2  0
 21 22  1  0
 22 23  1  0
 23 24  2  0
 16 25  1  0
 25 26  2  0
  8  3  1  0
 26 13  1  0
 23 18  1  0
  4 27  1  0
  5 28  1  0
  6 29  1  0
  7 30  1  0
 12 31  1  0
 12 32  1  0
 14 33  1  0
 15 34  1  0
 17 35  1  0
 17 36  1  0
 20 37  1  0
 21 38  1  0
 25 39  1  0
 26 40  1  0
M  CHG  2   9  -1  22  -1
M  END
>  <UniqueID>  (41) 
39

>  <SMILES>  (41) 
N#Cc1ccccc1[N-]C(=O)Cc1ccc(Cn2c(O)c[n-]c2=O)cc1

>  <Energy>  (41) 
75.3917346530448

>  <Genealogy>  (41) 
N#Cc1ccccc1[N-]C(=O)Cc1ccc(Cn2c(O)c[n-]c2=O)cc1 (protonated)
N#Cc1ccccc1[N-]C(=O)Cc1ccc(Cn2c(O)c[n-]c2=O)cc1 (3D coordinates assigned)
N#Cc1ccccc1[N-]C(=O)Cc1ccc(Cn2c(O)c[n-]c2=O)cc1 (optimized conformer: 75.3917346530448 kcal/mol)

>  <smiles>  (41) 
N#Cc1ccccc1NC(=O)Cc1ccc(Cn2c(O)c[nH]c2=O)cc1

>  <score_type>  (41) 
oracle

>  <origin>  (41) 
adg

>  <m_score__min__energy>  (41) 
-12.460000000000001

>  <m_primary>  (41) 
energy

$$$$
41:0
     RDKit          3D

 51 54  0  0  0  0  0  0  0  0999 V2000
   58.4770   32.9410   50.6450 O   0  0  0  0  0  0  0  0  0  0  0  0
   58.5190   32.1060   49.7020 C   0  0  0  0  0  0  0  0  0  0  0  0
   57.8910   32.4210   48.4540 N   0  0  0  0  0  0  0  0  0  0  0  0
   58.5020   33.2650   47.4300 C   0  0  2  0  0  0  0  0  0  0  0  0
   57.8220   33.0090   46.0760 C   0  0  0  0  0  0  0  0  0  0  0  0
   58.2870   31.7560   45.4830 N   0  0  0  0  0  0  0  0  0  0  0  0
   57.4510   30.6560   45.0980 C   0  0  0  0  0  0  0  0  0  0  0  0
   56.3570   30.8980   44.5230 O   0  0  0  0  0  0  0  0  0  0  0  0
   57.8460   29.2530   45.3310 C   0  0  0  0  0  0  0  0  0  0  0  0
   59.2000   28.9250   45.4820 C   0  0  0  0  0  0  0  0  0  0  0  0
   59.5930   27.6000   45.6740 C   0  0  0  0  0  0  0  0  0  0  0  0
   58.6330   26.5810   45.7280 C   0  0  0  0  0  0  0  0  0  0  0  0
   59.0240   25.2460   45.9150 C   0  0  0  0  0  0  0  0  0  0  0  0
   58.0640   24.2330   45.9710 C   0  0  0  0  0  0  0  0  0  0  0  0
   56.7090   24.5430   45.8420 C   0  0  0  0  0  0  0  0  0  0  0  0
   56.3040   25.8680   45.6560 C   0  0  0  0  0  0  0  0  0  0  0  0
   57.2580   26.9000   45.5970 C   0  0  0  0  0  0  0  0  0  0  0  0
   56.8700   28.2410   45.4030 C   0  0  0  0  0  0  0  0  0  0  0  0
   55.5240   28.5690   45.2610 O   0  0  0  0  0  0  0  0  0  0  0  0
   59.9870   32.9960   47.3240 C   0  0  0  0  0  0  0  0  0  0  0  0
   60.9200   34.0460   47.4040 C   0  0  0  0  0  0  0  0  0  0  0  0
   62.2910   33.7790   47.3360 C   0  0  0  0  0  0  0  0  0  0  0  0
   62.7420   32.4630   47.2030 C   0  0  0  0  0  0  0  0  0  0  0  0
   64.0730   32.2050   47.1420 F   0  0  0  0  0  0  0  0  0  0  0  0
   61.8240   31.4120   47.1420 C   0  0  0  0  0  0  0  0  0  0  0  0
   60.4520   31.6740   47.2070 C   0  0  0  0  0  0  0  0  0  0  0  0
   59.2290   30.8120   49.8900 C   0  0  0  0  0  0  0  0  0  0  0  0
   60.1200   30.6670   50.9720 C   0  0  0  0  0  0  0  0  0  0  0  0
   60.8100   29.4690   51.1740 C   0  0  0  0  0  0  0  0  0  0  0  0
   60.6210   28.3980   50.3020 C   0  0  0  0  0  0  0  0  0  0  0  0
   59.7400   28.5190   49.2270 C   0  0  0  0  0  0  0  0  0  0  0  0
   59.0380   29.7170   49.0140 C   0  0  0  0  0  0  0  0  0  0  0  0
   58.1510   29.8020   47.9400 O   0  0  0  0  0  0  0  0  0  0  0  0
   58.3640   34.3182   47.7158 H   0  0  0  0  0  0  0  0  0  0  0  0
   56.7335   32.9539   46.2251 H   0  0  0  0  0  0  0  0  0  0  0  0
   58.0772   33.8342   45.3949 H   0  0  0  0  0  0  0  0  0  0  0  0
   59.9601   29.7195   45.4489 H   0  0  0  0  0  0  0  0  0  0  0  0
   60.6597   27.3548   45.7833 H   0  0  0  0  0  0  0  0  0  0  0  0
   60.0904   24.9966   46.0178 H   0  0  0  0  0  0  0  0  0  0  0  0
   58.3764   23.1885   46.1171 H   0  0  0  0  0  0  0  0  0  0  0  0
   55.9570   23.7415   45.8869 H   0  0  0  0  0  0  0  0  0  0  0  0
   55.2345   26.1046   45.5553 H   0  0  0  0  0  0  0  0  0  0  0  0
   60.5693   35.0821   47.5206 H   0  0  0  0  0  0  0  0  0  0  0  0
   63.0150   34.6055   47.3872 H   0  0  0  0  0  0  0  0  0  0  0  0
   62.1810   30.3763   47.0426 H   0  0  0  0  0  0  0  0  0  0  0  0
   59.7332   30.8423   47.1664 H   0  0  0  0  0  0  0  0  0  0  0  0
   60.2741   31.5067   51.6656 H   0  0  0  0  0  0  0  0  0  0  0  0
   61.5033   29.3708   52.0223 H   0  0  0  0  0  0  0  0  0  0  0  0
   61.1670   27.4565   50.4616 H   0  0  0  0  0  0  0  0  0  0  0  0
   59.5941   27.6709   48.5418 H   0  0  0  0  0  0  0  0  0  0  0  0
   58.0350   30.6580   47.4100 H   0  0  0  0  0  0  0  0  0  0  0  0
  1  2  2  0
  2  3  1  0
  3  4  1  0
  4  5  1  0
  5  6  1  0
  6  7  1  0
  7  8  2  0
  7  9  1  0
  9 10  2  0
 10 11  1  0
 11 12  2  0
 12 13  1  0
 13 14  2  0
 14 15  1  0
 15 16  2  0
 16 17  1  0
 17 18  2  0
 18 19  1  0
  4 20  1  0
 20 21  2  0
 21 22  1  0
 22 23  2  0
 23 24  1  0
 23 25  1  0
 25 26  2  0
  2 27  1  0
 27 28  2  0
 28 29  1  0
 29 30  2  0
 30 31  1  0
 31 32  2  0
 32 33  1  0
 18  9  1  0
 26 20  1  0
 32 27  1  0
 17 12  1  0
  4 34  1  1
  5 35  1  0
  5 36  1  0
 10 37  1  0
 11 38  1  0
 13 39  1  0
 14 40  1  0
 15 41  1  0
 16 42  1  0
 21 43  1  0
 22 44  1  0
 25 45  1  0
 26 46  1  0
 28 47  1  0
 29 48  1  0
 30 49  1  0
 31 50  1  0
 33 51  1  0
M  CHG  3   3  -1   6  -1  19  -1
M  END
>  <UniqueID>  (42) 
40

>  <SMILES>  (42) 
O=C([N-][C@H](C[N-]C(=O)c1ccc2ccccc2c1[O-])c1ccc(F)cc1)c1ccccc1O

>  <Energy>  (42) 
62.58878784331203

>  <Genealogy>  (42) 
O=C([N-]C(C[N-]C(=O)c1ccc2ccccc2c1[O-])c1ccc(F)cc1)c1ccccc1O (protonated)
O=C([N-][C@H](C[N-]C(=O)c1ccc2ccccc2c1[O-])c1ccc(F)cc1)c1ccccc1O (chirality)
O=C([N-][C@H](C[N-]C(=O)c1ccc2ccccc2c1[O-])c1ccc(F)cc1)c1ccccc1O (3D coordinates assigned)
O=C([N-][C@H](C[N-]C(=O)c1ccc2ccccc2c1[O-])c1ccc(F)cc1)c1ccccc1O (optimized conformer: 62.58878784331203 kcal/mol)

>  <smiles>  (42) 
O=C(NC(CNC(=O)c1ccc2ccccc2c1O)c1ccc(F)cc1)c1ccccc1O

>  <score_type>  (42) 
oracle

>  <origin>  (42) 
adg

>  <m_score__min__energy>  (42) 
-14.74

>  <m_primary>  (42) 
energy

$$$$
42:0
     RDKit          3D

 38 40  0  0  0  0  0  0  0  0999 V2000
   58.0220   32.4200   43.2070 C   0  0  0  0  0  0  0  0  0  0  0  0
   57.3980   32.4060   44.6030 C   0  0  1  0  0  0  0  0  0  0  0  0
   56.9370   31.0950   44.9280 O   0  0  0  0  0  0  0  0  0  0  0  0
   57.7310   29.9460   44.8240 C   0  0  0  0  0  0  0  0  0  0  0  0
   58.8720   29.9980   44.2910 O   0  0  0  0  0  0  0  0  0  0  0  0
   57.2240   28.6670   45.3340 C   0  0  0  0  0  0  0  0  0  0  0  0
   57.9920   27.6960   45.9520 C   0  0  0  0  0  0  0  0  0  0  0  0
   57.1310   26.6700   46.2700 C   0  0  0  0  0  0  0  0  0  0  0  0
   55.8910   27.0750   45.8260 C   0  0  0  0  0  0  0  0  0  0  0  0
   54.7270   26.3290   45.9490 O   0  0  0  0  0  0  0  0  0  0  0  0
   55.9320   28.2920   45.2520 N   0  0  0  0  0  0  0  0  0  0  0  0
   58.4180   32.8380   45.6190 C   0  0  0  0  0  0  0  0  0  0  0  0
   58.6440   34.0660   45.7910 O   0  0  0  0  0  0  0  0  0  0  0  0
   59.0920   31.8600   46.4230 N   0  0  0  0  0  0  0  0  0  0  0  0
   60.1330   32.2170   47.3830 C   0  0  0  0  0  0  0  0  0  0  0  0
   59.5610   32.2660   48.7730 C   0  0  0  0  0  0  0  0  0  0  0  0
   59.8190   33.3870   49.6040 C   0  0  0  0  0  0  0  0  0  0  0  0
   59.2700   33.4590   50.8970 C   0  0  0  0  0  0  0  0  0  0  0  0
   58.4700   32.4040   51.3220 C   0  0  0  0  0  0  0  0  0  0  0  0
   58.2150   31.3310   50.5320 C   0  0  0  0  0  0  0  0  0  0  0  0
   58.7390   31.2200   49.2470 C   0  0  0  0  0  0  0  0  0  0  0  0
   57.3950   30.4470   51.2070 O   0  0  0  0  0  0  0  0  0  0  0  0
   57.1190   30.9990   52.5010 C   0  0  0  0  0  0  0  0  0  0  0  0
   57.8230   32.2480   52.5330 O   0  0  0  0  0  0  0  0  0  0  0  0
   59.1182   32.4446   43.2956 H   0  0  0  0  0  0  0  0  0  0  0  0
   57.7185   31.5148   42.6606 H   0  0  0  0  0  0  0  0  0  0  0  0
   57.6782   33.3107   42.6606 H   0  0  0  0  0  0  0  0  0  0  0  0
   56.5452   33.1007   44.6133 H   0  0  0  0  0  0  0  0  0  0  0  0
   59.0734   27.7359   46.1495 H   0  0  0  0  0  0  0  0  0  0  0  0
   57.3807   25.7244   46.7734 H   0  0  0  0  0  0  0  0  0  0  0  0
   58.8310   30.8520   46.3250 H   0  0  0  0  0  0  0  0  0  0  0  0
   60.9350   31.4650   47.3461 H   0  0  0  0  0  0  0  0  0  0  0  0
   60.5357   33.2075   47.1248 H   0  0  0  0  0  0  0  0  0  0  0  0
   60.4533   34.2060   49.2341 H   0  0  0  0  0  0  0  0  0  0  0  0
   59.4670   34.3216   51.5506 H   0  0  0  0  0  0  0  0  0  0  0  0
   58.5193   30.3436   48.6195 H   0  0  0  0  0  0  0  0  0  0  0  0
   56.0386   31.1614   52.6290 H   0  0  0  0  0  0  0  0  0  0  0  0
   57.4361   30.3266   53.3118 H   0  0  0  0  0  0  0  0  0  0  0  0
  1  2  1  0
  2  3  1  0
  3  4  1  0
  4  5  2  0
  4  6  1  0
  6  7  2  0
  7  8  1  0
  8  9  2  0
  9 10  1  0
  9 11  1  0
  2 12  1  0
 12 13  2  0
 12 14  1  0
 14 15  1  0
 15 16  1  0
 16 17  2  0
 17 18  1  0
 18 19  2  0
 19 20  1  0
 20 21  2  0
 20 22  1  0
 22 23  1  0
 23 24  1  0
 11  6  1  0
 21 16  1  0
 24 19  1  0
  1 25  1  0
  1 26  1  0
  1 27  1  0
  2 28  1  6
  7 29  1  0
  8 30  1  0
 14 31  1  0
 15 32  1  0
 15 33  1  0
 17 34  1  0
 18 35  1  0
 21 36  1  0
 23 37  1  0
 23 38  1  0
M  CHG  2  10  -1  11  -1
M  END
>  <UniqueID>  (43) 
41

>  <SMILES>  (43) 
C[C@@H](OC(=O)c1ccc([O-])[n-]1)C(=O)NCc1ccc2c(c1)OCO2

>  <Energy>  (43) 
84.27586352643239

>  <Genealogy>  (43) 
CC(OC(=O)c1ccc([O-])[n-]1)C(=O)NCc1ccc2c(c1)OCO2 (protonated)
C[C@@H](OC(=O)c1ccc([O-])[n-]1)C(=O)NCc1ccc2c(c1)OCO2 (chirality)
C[C@@H](OC(=O)c1ccc([O-])[n-]1)C(=O)NCc1ccc2c(c1)OCO2 (3D coordinates assigned)
C[C@@H](OC(=O)c1ccc([O-])[n-]1)C(=O)NCc1ccc2c(c1)OCO2 (nonaromatic ring conformer: 84.27586352643239 kcal/mol)

>  <smiles>  (43) 
CC(OC(=O)c1ccc(O)[nH]1)C(=O)NCc1ccc2c(c1)OCO2

>  <score_type>  (43) 
oracle

>  <origin>  (43) 
adg

>  <m_score__min__energy>  (43) 
-13.02

>  <m_primary>  (43) 
energy

$$$$
43:0
     RDKit          3D

 58 61  0  0  0  0  0  0  0  0999 V2000
   54.7740   26.7230   45.3170 H   0  0  0  0  0  0  0  0  0  0  0  0
   54.3060   25.9350   45.8180 N   0  0  0  0  0  0  0  0  0  0  0  0
   55.4930   24.6990   46.0390 S   0  0  0  0  0  0  0  0  0  0  0  0
   55.2450   24.0120   47.3530 O   0  0  0  0  0  0  0  0  0  0  0  0
   55.3860   23.6910   44.9300 O   0  0  0  0  0  0  0  0  0  0  0  0
   57.1020   25.4180   46.0220 C   0  0  0  0  0  0  0  0  0  0  0  0
   58.2470   24.6610   46.3390 C   0  0  0  0  0  0  0  0  0  0  0  0
   58.1449   23.5961   46.5950 H   0  0  0  0  0  0  0  0  0  0  0  0
   59.5240   25.2610   46.3300 C   0  0  0  0  0  0  0  0  0  0  0  0
   60.4103   24.6611   46.5839 H   0  0  0  0  0  0  0  0  0  0  0  0
   59.6730   26.6200   45.9990 C   0  0  0  0  0  0  0  0  0  0  0  0
   60.6639   27.0976   45.9955 H   0  0  0  0  0  0  0  0  0  0  0  0
   58.5200   27.3460   45.6740 C   0  0  0  0  0  0  0  0  0  0  0  0
   57.2860   26.7630   45.6960 C   0  0  0  0  0  0  0  0  0  0  0  0
   56.3400   27.6650   45.3880 N   0  0  0  0  0  0  0  0  0  0  0  0
   57.0410   28.8070   45.1790 C   0  0  0  0  0  0  0  0  0  0  0  0
   56.4090   29.9050   44.8610 N   0  0  0  0  0  0  0  0  0  0  0  0
   56.7420   30.9920   43.9440 C   0  0  0  0  0  0  0  0  0  0  0  0
   57.3117   30.5792   43.0984 H   0  0  0  0  0  0  0  0  0  0  0  0
   55.7995   31.4496   43.6090 H   0  0  0  0  0  0  0  0  0  0  0  0
   57.5680   32.0690   44.6060 C   0  0  0  0  0  0  0  0  0  0  0  0
   58.1430   33.1120   43.8630 C   0  0  0  0  0  0  0  0  0  0  0  0
   58.0213   33.1354   42.7700 H   0  0  0  0  0  0  0  0  0  0  0  0
   58.8690   34.1210   44.5020 C   0  0  0  0  0  0  0  0  0  0  0  0
   59.3267   34.9228   43.9040 H   0  0  0  0  0  0  0  0  0  0  0  0
   59.0220   34.1240   45.9040 C   0  0  0  0  0  0  0  0  0  0  0  0
   59.7750   35.1720   46.5680 N   0  0  0  0  0  0  0  0  0  0  0  0
   60.3120   34.9640   47.9190 C   0  0  0  0  0  0  0  0  0  0  0  0
   59.5564   35.2567   48.6630 H   0  0  0  0  0  0  0  0  0  0  0  0
   60.5665   33.9023   48.0530 H   0  0  0  0  0  0  0  0  0  0  0  0
   61.2153   35.5773   48.0530 H   0  0  0  0  0  0  0  0  0  0  0  0
   60.0120   36.4570   45.8990 C   0  0  0  0  0  0  0  0  0  0  0  0
   60.1569   37.2428   46.6550 H   0  0  0  0  0  0  0  0  0  0  0  0
   60.9116   36.3827   45.2703 H   0  0  0  0  0  0  0  0  0  0  0  0
   59.1451   36.7085   45.2703 H   0  0  0  0  0  0  0  0  0  0  0  0
   58.4110   33.0920   46.6430 C   0  0  0  0  0  0  0  0  0  0  0  0
   58.5072   33.0787   47.7387 H   0  0  0  0  0  0  0  0  0  0  0  0
   57.6850   32.0860   46.0030 C   0  0  0  0  0  0  0  0  0  0  0  0
   57.2004   31.2995   46.6001 H   0  0  0  0  0  0  0  0  0  0  0  0
   58.3970   28.6510   45.3430 N   0  0  0  0  0  0  0  0  0  0  0  0
   59.5060   29.6170   45.2700 C   0  0  0  0  0  0  0  0  0  0  0  0
   59.1652   30.5045   44.7167 H   0  0  0  0  0  0  0  0  0  0  0  0
   60.3474   29.1230   44.7621 H   0  0  0  0  0  0  0  0  0  0  0  0
   59.9840   30.0510   46.6350 C   0  0  0  0  0  0  0  0  0  0  0  0
   59.3360   29.6320   47.8110 C   0  0  0  0  0  0  0  0  0  0  0  0
   58.4395   28.9980   47.7452 H   0  0  0  0  0  0  0  0  0  0  0  0
   59.8240   30.0160   49.0610 C   0  0  0  0  0  0  0  0  0  0  0  0
   59.3031   29.6956   49.9753 H   0  0  0  0  0  0  0  0  0  0  0  0
   60.9720   30.8060   49.1540 C   0  0  0  0  0  0  0  0  0  0  0  0
   61.3458   31.1120   50.1423 H   0  0  0  0  0  0  0  0  0  0  0  0
   61.6500   31.2110   47.9990 C   0  0  0  0  0  0  0  0  0  0  0  0
   62.8020   31.9990   48.1440 O   0  0  0  0  0  0  0  0  0  0  0  0
   63.2740   32.9190   47.1650 C   0  0  0  0  0  0  0  0  0  0  0  0
   63.7210   33.7903   47.6660 H   0  0  0  0  0  0  0  0  0  0  0  0
   64.0319   32.4287   46.5364 H   0  0  0  0  0  0  0  0  0  0  0  0
   62.4337   33.2487   46.5364 H   0  0  0  0  0  0  0  0  0  0  0  0
   61.1580   30.8170   46.7400 C   0  0  0  0  0  0  0  0  0  0  0  0
   61.6983   31.1119   45.8284 H   0  0  0  0  0  0  0  0  0  0  0  0
  1  2  1  0
  2  3  1  0
  3  4  2  0
  3  5  2  0
  3  6  1  0
  6  7  2  0
  7  8  1  0
  7  9  1  0
  9 10  1  0
  9 11  2  0
 11 12  1  0
 11 13  1  0
 13 14  2  0
 14 15  1  0
 15 16  1  0
 16 17  2  0
 17 18  1  0
 18 19  1  0
 18 20  1  0
 18 21  1  0
 21 22  2  0
 22 23  1  0
 22 24  1  0
 24 25  1  0
 24 26  2  0
 26 27  1  0
 27 28  1  0
 28 29  1  0
 28 30  1  0
 28 31  1  0
 27 32  1  0
 32 33  1  0
 32 34  1  0
 32 35  1  0
 26 36  1  0
 36 37  1  0
 36 38  2  0
 38 39  1  0
 16 40  1  0
 40 41  1  0
 41 42  1  0
 41 43  1  0
 41 44  1  0
 44 45  2  0
 45 46  1  0
 45 47  1  0
 47 48  1  0
 47 49  2  0
 49 50  1  0
 49 51  1  0
 51 52  1  0
 52 53  1  0
 53 54  1  0
 53 55  1  0
 53 56  1  0
 51 57  2  0
 57 58  1  0
 14  6  1  0
 38 21  1  0
 57 44  1  0
 40 13  1  0
M  CHG  2   2  -1  15  -1
M  END
>  <UniqueID>  (44) 
42

>  <SMILES>  (44) 
COc1cccc(Cn2/c(=N\Cc3ccc(N(C)C)cc3)[n-]c3c(S([NH-])(=O)=O)cccc32)c1

>  <Energy>  (44) 
107.96908783143756

>  <Genealogy>  (44) 
COc1cccc(Cn2c(=NCc3ccc(N(C)C)cc3)[n-]c3c(S([NH-])(=O)=O)cccc32)c1 (protonated)
COc1cccc(Cn2/c(=N\Cc3ccc(N(C)C)cc3)[n-]c3c(S([NH-])(=O)=O)cccc32)c1 (cis-trans isomerization)
COc1cccc(Cn2/c(=N\Cc3ccc(N(C)C)cc3)[n-]c3c(S([NH-])(=O)=O)cccc32)c1 (3D coordinates assigned)
COc1cccc(Cn2/c(=N\Cc3ccc(N(C)C)cc3)[n-]c3c(S([NH-])(=O)=O)cccc32)c1 (optimized conformer: 107.96908783143756 kcal/mol)

>  <smiles>  (44) 
COc1cccc(Cn2c(=NCc3ccc(N(C)C)cc3)[nH]c3c(S(N)(=O)=O)cccc32)c1

>  <score_type>  (44) 
oracle

>  <origin>  (44) 
adg

>  <m_score__min__energy>  (44) 
-13.460000000000001

>  <m_primary>  (44) 
energy

$$$$
44:0
     RDKit          3D

 44 45  0  0  0  0  0  0  0  0999 V2000
   59.3325   28.5151   44.6647 H   0  0  0  0  0  0  0  0  0  0  0  0
   58.2440   28.5520   44.8190 C   0  0  0  0  0  0  0  0  0  0  0  0
   57.6090   27.5090   45.4110 N   0  0  0  0  0  0  0  0  0  0  0  0
   56.2640   27.5290   45.6190 C   0  0  0  0  0  0  0  0  0  0  0  0
   55.6580   26.5290   46.1870 N   0  0  0  0  0  0  0  0  0  0  0  0
   56.1590   25.1540   46.2190 C   0  0  0  0  0  0  0  0  0  0  0  0
   57.2324   25.1531   45.9787 H   0  0  0  0  0  0  0  0  0  0  0  0
   55.9977   24.7375   47.2243 H   0  0  0  0  0  0  0  0  0  0  0  0
   55.4060   24.2860   45.1890 C   0  0  0  0  0  0  0  0  0  0  0  0
   55.2108   23.3036   45.6438 H   0  0  0  0  0  0  0  0  0  0  0  0
   54.4849   24.8300   44.9329 H   0  0  0  0  0  0  0  0  0  0  0  0
   56.1370   24.0720   43.9210 N   0  0  0  0  0  0  0  0  0  0  0  0
   56.3310   22.6490   43.6010 C   0  0  0  0  0  0  0  0  0  0  0  0
   56.4098   22.0709   44.5335 H   0  0  0  0  0  0  0  0  0  0  0  0
   55.4742   22.2848   43.0151 H   0  0  0  0  0  0  0  0  0  0  0  0
   57.2540   22.5275   43.0151 H   0  0  0  0  0  0  0  0  0  0  0  0
   57.4080   24.8100   43.8600 C   0  0  0  0  0  0  0  0  0  0  0  0
   57.7620   25.0156   44.8810 H   0  0  0  0  0  0  0  0  0  0  0  0
   58.1572   24.2065   43.3267 H   0  0  0  0  0  0  0  0  0  0  0  0
   57.2552   25.7599   43.3267 H   0  0  0  0  0  0  0  0  0  0  0  0
   55.5410   28.6140   45.2370 N   0  0  0  0  0  0  0  0  0  0  0  0
   56.1320   29.6820   44.6410 C   0  0  0  0  0  0  0  0  0  0  0  0
   55.4260   30.6710   44.3080 O   0  0  0  0  0  0  0  0  0  0  0  0
   57.5180   29.6750   44.4040 C   0  0  0  0  0  0  0  0  0  0  0  0
   58.2270   30.8510   43.7790 C   0  0  0  0  0  0  0  0  0  0  0  0
   57.5899   31.2824   42.9928 H   0  0  0  0  0  0  0  0  0  0  0  0
   59.1783   30.5062   43.3475 H   0  0  0  0  0  0  0  0  0  0  0  0
   58.5140   31.9020   44.8170 C   0  0  0  0  0  0  0  0  0  0  0  0
   58.1790   33.2440   44.5810 C   0  0  0  0  0  0  0  0  0  0  0  0
   57.7260   33.5343   43.6216 H   0  0  0  0  0  0  0  0  0  0  0  0
   58.4180   34.2140   45.5590 C   0  0  0  0  0  0  0  0  0  0  0  0
   58.1657   35.2659   45.3593 H   0  0  0  0  0  0  0  0  0  0  0  0
   58.9780   33.8530   46.7940 C   0  0  0  0  0  0  0  0  0  0  0  0
   59.2660   34.9020   47.8350 C   0  0  0  0  0  0  0  0  0  0  0  0
   58.3176   35.3452   48.1730 H   0  0  0  0  0  0  0  0  0  0  0  0
   59.9110   35.6740   47.3900 H   0  0  0  0  0  0  0  0  0  0  0  0
   59.9870   34.2910   49.0310 C   0  0  0  0  0  0  0  0  0  0  0  0
   59.5396   34.6701   49.9617 H   0  0  0  0  0  0  0  0  0  0  0  0
   59.8902   33.1958   48.9972 H   0  0  0  0  0  0  0  0  0  0  0  0
   61.0515   34.5662   48.9972 H   0  0  0  0  0  0  0  0  0  0  0  0
   59.3160   32.5100   47.0300 C   0  0  0  0  0  0  0  0  0  0  0  0
   59.7707   32.2200   47.9887 H   0  0  0  0  0  0  0  0  0  0  0  0
   59.0770   31.5410   46.0520 C   0  0  0  0  0  0  0  0  0  0  0  0
   59.3313   30.4894   46.2505 H   0  0  0  0  0  0  0  0  0  0  0  0
  1  2  1  0
  2  3  1  0
  3  4  1  0
  4  5  2  0
  5  6  1  0
  6  7  1  0
  6  8  1  0
  6  9  1  0
  9 10  1  0
  9 11  1  0
  9 12  1  0
 12 13  1  0
 13 14  1  0
 13 15  1  0
 13 16  1  0
 12 17  1  0
 17 18  1  0
 17 19  1  0
 17 20  1  0
  4 21  1  0
 21 22  1  0
 22 23  2  0
 22 24  1  0
 24 25  1  0
 25 26  1  0
 25 27  1  0
 25 28  1  0
 28 29  2  0
 29 30  1  0
 29 31  1  0
 31 32  1  0
 31 33  2  0
 33 34  1  0
 34 35  1  0
 34 36  1  0
 34 37  1  0
 37 38  1  0
 37 39  1  0
 37 40  1  0
 33 41  1  0
 41 42  1  0
 41 43  2  0
 43 44  1  0
 24  2  2  0
 43 28  1  0
M  CHG  2   3  -1  21  -1
M  END
>  <UniqueID>  (45) 
43

>  <SMILES>  (45) 
CCc1ccc(Cc2c[n-]/c(=N\CCN(C)C)[n-]c2=O)cc1

>  <Energy>  (45) 
42.07089782494207

>  <Genealogy>  (45) 
CCc1ccc(Cc2c[n-]c(=NCCN(C)C)[n-]c2=O)cc1 (protonated)
CCc1ccc(Cc2c[n-]/c(=N\CCN(C)C)[n-]c2=O)cc1 (cis-trans isomerization)
CCc1ccc(Cc2c[n-]/c(=N\CCN(C)C)[n-]c2=O)cc1 (3D coordinates assigned)
CCc1ccc(Cc2c[n-]/c(=N\CCN(C)C)[n-]c2=O)cc1 (optimized conformer: 42.07089782494207 kcal/mol)

>  <smiles>  (45) 
CCc1ccc(Cc2c[nH]c(=NCCN(C)C)[nH]c2=O)cc1

>  <score_type>  (45) 
oracle

>  <origin>  (45) 
adg

>  <m_score__min__energy>  (45) 
-10.779999999999999

>  <m_primary>  (45) 
energy

$$$$
45:0
     RDKit          3D

 67 70  0  0  0  0  0  0  0  0999 V2000
   62.9370   34.0110   46.8390 C   0  0  0  0  0  0  0  0  0  0  0  0
   63.1640   32.9610   47.8440 N   0  0  0  0  0  0  0  0  0  0  0  0
   63.3730   31.6500   47.2070 C   0  0  0  0  0  0  0  0  0  0  0  0
   62.1180   32.9350   48.8910 C   0  0  0  0  0  0  0  0  0  0  0  0
   61.3620   34.2680   49.0680 C   0  0  0  0  0  0  0  0  0  0  0  0
   60.0240   34.1510   48.5830 O   0  0  0  0  0  0  0  0  0  0  0  0
   59.6360   34.0990   47.2290 C   0  0  0  0  0  0  0  0  0  0  0  0
   59.5700   35.2630   46.4420 C   0  0  0  0  0  0  0  0  0  0  0  0
   59.1700   35.1970   45.1140 C   0  0  0  0  0  0  0  0  0  0  0  0
   58.8110   33.9790   44.5520 C   0  0  0  0  0  0  0  0  0  0  0  0
   58.8440   32.7930   45.3060 C   0  0  0  0  0  0  0  0  0  0  0  0
   59.3140   32.8410   46.6550 C   0  0  0  0  0  0  0  0  0  0  0  0
   59.3980   31.6080   47.5490 C   0  0  0  0  0  0  0  0  0  0  0  0
   60.0560   30.3860   46.8850 C   0  0  0  0  0  0  0  0  0  0  0  0
   59.0960   29.5920   46.0910 N   0  0  0  0  0  0  0  0  0  0  0  0
   59.7990   28.8010   45.0580 C   0  0  0  0  0  0  0  0  0  0  0  0
   59.1820   27.4330   44.9340 C   0  0  0  0  0  0  0  0  0  0  0  0
   59.4380   26.4580   45.9120 C   0  0  0  0  0  0  0  0  0  0  0  0
   58.8530   25.1930   45.8180 C   0  0  0  0  0  0  0  0  0  0  0  0
   58.0120   24.8850   44.7380 C   0  0  0  0  0  0  0  0  0  0  0  0
   57.3790   23.5570   44.6500 C   0  0  0  0  0  0  0  0  0  0  0  0
   57.9290   22.6150   43.7670 C   0  0  0  0  0  0  0  0  0  0  0  0
   57.3820   21.3350   43.6650 C   0  0  0  0  0  0  0  0  0  0  0  0
   56.2800   20.9830   44.4450 C   0  0  0  0  0  0  0  0  0  0  0  0
   55.7170   21.9120   45.3210 C   0  0  0  0  0  0  0  0  0  0  0  0
   56.2480   23.2080   45.4290 C   0  0  0  0  0  0  0  0  0  0  0  0
   55.4650   24.3610   46.5260 S   0  0  0  0  0  0  0  0  0  0  0  0
   54.7350   25.6480   45.6300 N   0  0  0  0  0  0  0  0  0  0  0  0
   56.4900   24.9440   47.4580 O   0  0  0  0  0  0  0  0  0  0  0  0
   54.4230   23.6610   47.3540 O   0  0  0  0  0  0  0  0  0  0  0  0
   57.7430   25.8600   43.7690 C   0  0  0  0  0  0  0  0  0  0  0  0
   58.3290   27.1250   43.8620 C   0  0  0  0  0  0  0  0  0  0  0  0
   57.9820   30.3910   45.5230 C   0  0  0  0  0  0  0  0  0  0  0  0
   58.4490   31.5160   44.5850 C   0  0  0  0  0  0  0  0  0  0  0  0
   62.7307   34.9652   47.3458 H   0  0  0  0  0  0  0  0  0  0  0  0
   63.8331   34.1162   46.2098 H   0  0  0  0  0  0  0  0  0  0  0  0
   62.0774   33.7367   46.2098 H   0  0  0  0  0  0  0  0  0  0  0  0
   63.4957   30.8805   47.9834 H   0  0  0  0  0  0  0  0  0  0  0  0
   62.5028   31.4037   46.5809 H   0  0  0  0  0  0  0  0  0  0  0  0
   64.2767   31.6865   46.5809 H   0  0  0  0  0  0  0  0  0  0  0  0
   61.3866   32.1567   48.6277 H   0  0  0  0  0  0  0  0  0  0  0  0
   62.6312   32.7357   49.8433 H   0  0  0  0  0  0  0  0  0  0  0  0
   61.3385   34.5321   50.1356 H   0  0  0  0  0  0  0  0  0  0  0  0
   61.8813   35.0508   48.4957 H   0  0  0  0  0  0  0  0  0  0  0  0
   59.8378   36.2346   46.8827 H   0  0  0  0  0  0  0  0  0  0  0  0
   59.1374   36.1125   44.5051 H   0  0  0  0  0  0  0  0  0  0  0  0
   58.4954   33.9415   43.4989 H   0  0  0  0  0  0  0  0  0  0  0  0
   59.9827   31.8703   48.4431 H   0  0  0  0  0  0  0  0  0  0  0  0
   58.3629   31.3188   47.7836 H   0  0  0  0  0  0  0  0  0  0  0  0
   60.8603   30.7351   46.2208 H   0  0  0  0  0  0  0  0  0  0  0  0
   60.4461   29.7391   47.6846 H   0  0  0  0  0  0  0  0  0  0  0  0
   59.7256   29.3207   44.0913 H   0  0  0  0  0  0  0  0  0  0  0  0
   60.8541   28.6915   45.3492 H   0  0  0  0  0  0  0  0  0  0  0  0
   60.1028   26.6918   46.7566 H   0  0  0  0  0  0  0  0  0  0  0  0
   59.0520   24.4371   46.5920 H   0  0  0  0  0  0  0  0  0  0  0  0
   58.7981   22.8876   43.1504 H   0  0  0  0  0  0  0  0  0  0  0  0
   57.8197   20.6037   42.9696 H   0  0  0  0  0  0  0  0  0  0  0  0
   55.8543   19.9715   44.3693 H   0  0  0  0  0  0  0  0  0  0  0  0
   54.8487   21.6266   45.9331 H   0  0  0  0  0  0  0  0  0  0  0  0
   54.2810   26.2920   46.3180 H   0  0  0  0  0  0  0  0  0  0  0  0
   55.5030   26.1850   45.1680 H   0  0  0  0  0  0  0  0  0  0  0  0
   57.0680   25.6290   42.9318 H   0  0  0  0  0  0  0  0  0  0  0  0
   58.1212   27.8828   43.0922 H   0  0  0  0  0  0  0  0  0  0  0  0
   57.3235   29.7163   44.9563 H   0  0  0  0  0  0  0  0  0  0  0  0
   57.4636   30.8687   46.3674 H   0  0  0  0  0  0  0  0  0  0  0  0
   59.3195   31.1550   44.0175 H   0  0  0  0  0  0  0  0  0  0  0  0
   57.5965   31.7658   43.9362 H   0  0  0  0  0  0  0  0  0  0  0  0
  1  2  1  0
  2  3  1  0
  2  4  1  0
  4  5  1  0
  5  6  1  0
  6  7  1  0
  7  8  2  0
  8  9  1  0
  9 10  2  0
 10 11  1  0
 11 12  2  0
 12 13  1  0
 13 14  1  0
 14 15  1  0
 15 16  1  0
 16 17  1  0
 17 18  2  0
 18 19  1  0
 19 20  2  0
 20 21  1  0
 21 22  2  0
 22 23  1  0
 23 24  2  0
 24 25  1  0
 25 26  2  0
 26 27  1  0
 27 28  1  0
 27 29  2  0
 27 30  2  0
 20 31  1  0
 31 32  2  0
 15 33  1  0
 33 34  1  0
 12  7  1  0
 32 17  1  0
 34 11  1  0
 26 21  1  0
  1 35  1  0
  1 36  1  0
  1 37  1  0
  3 38  1  0
  3 39  1  0
  3 40  1  0
  4 41  1  0
  4 42  1  0
  5 43  1  0
  5 44  1  0
  8 45  1  0
  9 46  1  0
 10 47  1  0
 13 48  1  0
 13 49  1  0
 14 50  1  0
 14 51  1  0
 16 52  1  0
 16 53  1  0
 18 54  1  0
 19 55  1  0
 22 56  1  0
 23 57  1  0
 24 58  1  0
 25 59  1  0
 28 60  1  0
 28 61  1  0
 31 62  1  0
 32 63  1  0
 33 64  1  0
 33 65  1  0
 34 66  1  0
 34 67  1  0
M  END
>  <UniqueID>  (46) 
44

>  <SMILES>  (46) 
CN(C)CCOc1cccc2c1CCN(Cc1ccc(-c3ccccc3S(N)(=O)=O)cc1)CC2

>  <Energy>  (46) 
94.30344238100659

>  <Genealogy>  (46) 
CN(C)CCOc1cccc2c1CCN(Cc1ccc(-c3ccccc3S(N)(=O)=O)cc1)CC2 (3D coordinates assigned)
CN(C)CCOc1cccc2c1CCN(Cc1ccc(-c3ccccc3S(N)(=O)=O)cc1)CC2 (nonaromatic ring conformer: 94.30344238100659 kcal/mol)

>  <smiles>  (46) 
CN(C)CCOc1cccc2c1CCN(Cc1ccc(-c3ccccc3S(N)(=O)=O)cc1)CC2

>  <score_type>  (46) 
oracle

>  <origin>  (46) 
adg

>  <m_score__min__energy>  (46) 
-7.2599999999999998

>  <m_primary>  (46) 
energy

$$$$
46:0
     RDKit          3D

 60 63  0  0  0  0  0  0  0  0999 V2000
   60.7910   30.1020   46.2990 C   0  0  0  0  0  0  0  0  0  0  0  0
   59.4800   29.8430   46.7890 O   0  0  0  0  0  0  0  0  0  0  0  0
   58.8360   28.5970   46.7210 C   0  0  0  0  0  0  0  0  0  0  0  0
   59.2140   27.5200   47.5430 C   0  0  0  0  0  0  0  0  0  0  0  0
   58.5290   26.3050   47.4780 C   0  0  0  0  0  0  0  0  0  0  0  0
   57.4650   26.1420   46.5860 C   0  0  0  0  0  0  0  0  0  0  0  0
   56.5450   24.6390   46.5710 S   0  0  0  0  0  0  0  0  0  0  0  0
   56.5680   24.0110   47.9370 O   0  0  0  0  0  0  0  0  0  0  0  0
   55.1170   24.9380   46.2110 O   0  0  0  0  0  0  0  0  0  0  0  0
   57.2040   23.5280   45.4110 N   0  0  0  0  0  0  0  0  0  0  0  0
   56.1950   23.2480   44.3930 C   0  0  0  0  0  0  0  0  0  0  0  0
   56.6750   22.2380   43.3690 C   0  0  0  0  0  0  0  0  0  0  0  0
   56.5680   23.7070   42.9950 C   0  0  0  0  0  0  0  0  0  0  0  0
   57.0890   27.2040   45.7570 C   0  0  0  0  0  0  0  0  0  0  0  0
   57.7700   28.4280   45.8150 C   0  0  0  0  0  0  0  0  0  0  0  0
   57.2120   29.7800   44.8260 S   0  0  0  0  0  0  0  0  0  0  0  0
   57.5860   29.5320   43.3910 O   0  0  0  0  0  0  0  0  0  0  0  0
   55.7140   29.8990   44.9070 O   0  0  0  0  0  0  0  0  0  0  0  0
   57.9420   31.2650   45.3630 N   0  0  0  0  0  0  0  0  0  0  0  0
   57.2670   32.4500   44.7900 C   0  0  0  0  0  0  0  0  0  0  0  0
   56.7940   33.4420   45.8780 C   0  0  0  0  0  0  0  0  0  0  0  0
   57.9630   34.1370   46.6110 C   0  0  0  0  0  0  0  0  0  0  0  0
   59.2500   33.9430   45.9090 N   0  0  0  0  0  0  0  0  0  0  0  0
   60.3740   34.6620   46.5490 C   0  0  0  0  0  0  0  0  0  0  0  0
   61.4540   33.7540   47.0960 C   0  0  0  0  0  0  0  0  0  0  0  0
   62.7600   33.8060   46.5790 C   0  0  0  0  0  0  0  0  0  0  0  0
   63.7550   32.9660   47.0890 C   0  0  0  0  0  0  0  0  0  0  0  0
   63.4540   32.0660   48.1160 C   0  0  0  0  0  0  0  0  0  0  0  0
   62.1560   31.9980   48.6270 C   0  0  0  0  0  0  0  0  0  0  0  0
   61.1570   32.8350   48.1190 C   0  0  0  0  0  0  0  0  0  0  0  0
   59.1250   34.2100   44.4650 C   0  0  0  0  0  0  0  0  0  0  0  0
   58.2190   33.1560   43.7990 C   0  0  0  0  0  0  0  0  0  0  0  0
   61.4790   30.2379   47.1465 H   0  0  0  0  0  0  0  0  0  0  0  0
   61.1277   29.2530   45.6859 H   0  0  0  0  0  0  0  0  0  0  0  0
   60.7795   31.0152   45.6859 H   0  0  0  0  0  0  0  0  0  0  0  0
   60.0553   27.6358   48.2421 H   0  0  0  0  0  0  0  0  0  0  0  0
   58.8279   25.4723   48.1316 H   0  0  0  0  0  0  0  0  0  0  0  0
   55.3068   23.3699   45.0304 H   0  0  0  0  0  0  0  0  0  0  0  0
   57.6640   21.7694   43.4803 H   0  0  0  0  0  0  0  0  0  0  0  0
   56.2767   21.2993   42.9564 H   0  0  0  0  0  0  0  0  0  0  0  0
   57.4793   24.3022   42.8360 H   0  0  0  0  0  0  0  0  0  0  0  0
   56.0602   24.2729   42.2001 H   0  0  0  0  0  0  0  0  0  0  0  0
   56.2524   27.0778   45.0540 H   0  0  0  0  0  0  0  0  0  0  0  0
   57.9060   31.2710   46.4080 H   0  0  0  0  0  0  0  0  0  0  0  0
   56.3671   32.1010   44.2624 H   0  0  0  0  0  0  0  0  0  0  0  0
   56.1708   34.2133   45.4019 H   0  0  0  0  0  0  0  0  0  0  0  0
   56.2324   32.8650   46.6275 H   0  0  0  0  0  0  0  0  0  0  0  0
   57.7519   35.2147   46.6745 H   0  0  0  0  0  0  0  0  0  0  0  0
   58.0508   33.6893   47.6119 H   0  0  0  0  0  0  0  0  0  0  0  0
   60.8286   35.3287   45.8014 H   0  0  0  0  0  0  0  0  0  0  0  0
   59.9547   35.2097   47.4059 H   0  0  0  0  0  0  0  0  0  0  0  0
   63.0006   34.5108   45.7694 H   0  0  0  0  0  0  0  0  0  0  0  0
   64.7757   33.0133   46.6817 H   0  0  0  0  0  0  0  0  0  0  0  0
   64.2396   31.4115   48.5215 H   0  0  0  0  0  0  0  0  0  0  0  0
   61.9189   31.2850   49.4304 H   0  0  0  0  0  0  0  0  0  0  0  0
   60.1349   32.7744   48.5211 H   0  0  0  0  0  0  0  0  0  0  0  0
   58.6877   35.2086   44.3178 H   0  0  0  0  0  0  0  0  0  0  0  0
   60.1236   34.1626   44.0061 H   0  0  0  0  0  0  0  0  0  0  0  0
   57.6127   33.6545   43.0283 H   0  0  0  0  0  0  0  0  0  0  0  0
   58.8774   32.3834   43.3753 H   0  0  0  0  0  0  0  0  0  0  0  0
  1  2  1  0
  2  3  1  0
  3  4  2  0
  4  5  1  0
  5  6  2  0
  6  7  1  0
  7  8  2  0
  7  9  2  0
  7 10  1  0
 10 11  1  0
 11 12  1  0
 12 13  1  0
  6 14  1  0
 14 15  2  0
 15 16  1  0
 16 17  2  0
 16 18  2  0
 16 19  1  0
 19 20  1  0
 20 21  1  0
 21 22  1  0
 22 23  1  0
 23 24  1  0
 24 25  1  0
 25 26  2  0
 26 27  1  0
 27 28  2  0
 28 29  1  0
 29 30  2  0
 23 31  1  0
 31 32  1  0
 15  3  1  0
 32 20  1  0
 13 11  1  0
 30 25  1  0
  1 33  1  0
  1 34  1  0
  1 35  1  0
  4 36  1  0
  5 37  1  0
 11 38  1  0
 12 39  1  0
 12 40  1  0
 13 41  1  0
 13 42  1  0
 14 43  1  0
 19 44  1  0
 20 45  1  0
 21 46  1  0
 21 47  1  0
 22 48  1  0
 22 49  1  0
 24 50  1  0
 24 51  1  0
 26 52  1  0
 27 53  1  0
 28 54  1  0
 29 55  1  0
 30 56  1  0
 31 57  1  0
 31 58  1  0
 32 59  1  0
 32 60  1  0
M  CHG  1  10  -1
M  END
>  <UniqueID>  (47) 
45

>  <SMILES>  (47) 
COc1ccc(S(=O)(=O)[N-]C2CC2)cc1S(=O)(=O)NC1CCN(Cc2ccccc2)CC1

>  <Energy>  (47) 
330.93073103098453

>  <Genealogy>  (47) 
COc1ccc(S(=O)(=O)[N-]C2CC2)cc1S(=O)(=O)NC1CCN(Cc2ccccc2)CC1 (protonated)
COc1ccc(S(=O)(=O)[N-]C2CC2)cc1S(=O)(=O)NC1CCN(Cc2ccccc2)CC1 (3D coordinates assigned)
COc1ccc(S(=O)(=O)[N-]C2CC2)cc1S(=O)(=O)NC1CCN(Cc2ccccc2)CC1 (nonaromatic ring conformer: 330.93073103098453 kcal/mol)

>  <smiles>  (47) 
COc1ccc(S(=O)(=O)NC2CC2)cc1S(=O)(=O)NC1CCN(Cc2ccccc2)CC1

>  <score_type>  (47) 
oracle

>  <origin>  (47) 
adg

>  <m_score__min__energy>  (47) 
-12.32

>  <m_primary>  (47) 
energy

$$$$
47:0
     RDKit          3D

 27 28  0  0  0  0  0  0  0  0999 V2000
   58.9310   27.8280   47.7290 C   0  0  0  0  0  0  0  0  0  0  0  0
   58.5330   27.4330   46.3110 C   0  0  0  0  0  0  0  0  0  0  0  0
   57.5980   28.4470   45.7160 C   0  0  0  0  0  0  0  0  0  0  0  0
   56.3740   28.1430   45.2510 N   0  0  0  0  0  0  0  0  0  0  0  0
   55.9100   29.2920   44.7290 C   0  0  0  0  0  0  0  0  0  0  0  0
   54.7750   29.3940   44.1940 O   0  0  0  0  0  0  0  0  0  0  0  0
   56.7720   30.3220   44.8230 N   0  0  0  0  0  0  0  0  0  0  0  0
   57.8460   29.7870   45.4440 C   0  0  0  0  0  0  0  0  0  0  0  0
   59.0680   30.5600   45.7490 C   0  0  0  0  0  0  0  0  0  0  0  0
   60.1990   30.0100   45.6860 O   0  0  0  0  0  0  0  0  0  0  0  0
   58.9820   31.9650   46.1940 C   0  0  0  0  0  0  0  0  0  0  0  0
   59.3680   32.2850   47.5060 C   0  0  0  0  0  0  0  0  0  0  0  0
   59.2880   33.6020   47.9660 C   0  0  0  0  0  0  0  0  0  0  0  0
   58.8340   34.6130   47.1170 C   0  0  0  0  0  0  0  0  0  0  0  0
   58.4690   34.3110   45.8040 C   0  0  0  0  0  0  0  0  0  0  0  0
   58.5450   32.9950   45.3310 C   0  0  0  0  0  0  0  0  0  0  0  0
   58.1240   32.6760   43.4860 Br  0  0  0  0  0  0  0  0  0  0  0  0
   58.3422   27.2436   48.4513 H   0  0  0  0  0  0  0  0  0  0  0  0
   60.0016   27.6252   47.8793 H   0  0  0  0  0  0  0  0  0  0  0  0
   58.7363   28.9001   47.8793 H   0  0  0  0  0  0  0  0  0  0  0  0
   59.4372   27.3673   45.6880 H   0  0  0  0  0  0  0  0  0  0  0  0
   58.0206   26.4603   46.3472 H   0  0  0  0  0  0  0  0  0  0  0  0
   55.8950   27.2150   45.2740 H   0  0  0  0  0  0  0  0  0  0  0  0
   59.7357   31.4937   48.1758 H   0  0  0  0  0  0  0  0  0  0  0  0
   59.5830   33.8424   48.9981 H   0  0  0  0  0  0  0  0  0  0  0  0
   58.7639   35.6480   47.4829 H   0  0  0  0  0  0  0  0  0  0  0  0
   58.1193   35.1121   45.1362 H   0  0  0  0  0  0  0  0  0  0  0  0
  1  2  1  0
  2  3  1  0
  3  4  1  0
  4  5  1  0
  5  6  2  0
  5  7  1  0
  7  8  1  0
  8  9  1  0
  9 10  2  0
  9 11  1  0
 11 12  2  0
 12 13  1  0
 13 14  2  0
 14 15  1  0
 15 16  2  0
 16 17  1  0
  8  3  2  0
 16 11  1  0
  1 18  1  0
  1 19  1  0
  1 20  1  0
  2 21  1  0
  2 22  1  0
  4 23  1  0
 12 24  1  0
 13 25  1  0
 14 26  1  0
 15 27  1  0
M  CHG  1   7  -1
M  END
>  <UniqueID>  (48) 
46

>  <SMILES>  (48) 
CCc1[nH]c(=O)[n-]c1C(=O)c1ccccc1Br

>  <Energy>  (48) 
61.021540087494365

>  <Genealogy>  (48) 
CCc1[nH]c(=O)[n-]c1C(=O)c1ccccc1Br (protonated)
CCc1[nH]c(=O)[n-]c1C(=O)c1ccccc1Br (3D coordinates assigned)
CCc1[nH]c(=O)[n-]c1C(=O)c1ccccc1Br (optimized conformer: 61.021540087494365 kcal/mol)

>  <smiles>  (48) 
CCc1[nH]c(=O)[nH]c1C(=O)c1ccccc1Br

>  <score_type>  (48) 
oracle

>  <origin>  (48) 
adg

>  <m_score__min__energy>  (48) 
-8.8200000000000003

>  <m_primary>  (48) 
energy

$$$$
48:0
     RDKit          3D

 53 56  0  0  0  0  0  0  0  0999 V2000
   56.2890   25.1980   47.2390 O   0  0  0  0  0  0  0  0  0  0  0  0
   56.3070   26.2860   46.6070 C   0  0  0  0  0  0  0  0  0  0  0  0
   55.1440   26.7220   45.9820 O   0  0  0  0  0  0  0  0  0  0  0  0
   57.5450   27.0910   46.5310 C   0  0  0  0  0  0  0  0  0  0  0  0
   58.0270   27.5480   45.2930 C   0  0  0  0  0  0  0  0  0  0  0  0
   59.1900   28.3200   45.2290 C   0  0  0  0  0  0  0  0  0  0  0  0
   59.8880   28.6380   46.3960 C   0  0  0  0  0  0  0  0  0  0  0  0
   59.4350   28.1660   47.6400 C   0  0  0  0  0  0  0  0  0  0  0  0
   60.1190   28.4850   48.8610 N   0  0  0  0  0  0  0  0  0  0  0  0
   60.4640   29.7990   49.3180 C   0  0  0  0  0  0  0  0  0  0  0  0
   61.5370   30.3180   48.9080 O   0  0  0  0  0  0  0  0  0  0  0  0
   59.5650   30.5830   50.2000 C   0  0  0  0  0  0  0  0  0  0  0  0
   58.1760   30.3710   50.1310 C   0  0  0  0  0  0  0  0  0  0  0  0
   57.3060   31.0940   50.9490 C   0  0  0  0  0  0  0  0  0  0  0  0
   57.8110   32.0480   51.8340 C   0  0  0  0  0  0  0  0  0  0  0  0
   59.1860   32.2740   51.9110 C   0  0  0  0  0  0  0  0  0  0  0  0
   60.0780   31.5330   51.1140 C   0  0  0  0  0  0  0  0  0  0  0  0
   61.4960   31.7540   51.1870 N   0  0  0  0  0  0  0  0  0  0  0  0
   62.1970   32.9510   50.8310 C   0  0  0  0  0  0  0  0  0  0  0  0
   62.5680   33.7580   51.7260 O   0  0  0  0  0  0  0  0  0  0  0  0
   62.4930   33.2300   49.4040 C   0  0  0  0  0  0  0  0  0  0  0  0
   63.7760   32.9200   48.9160 C   0  0  0  0  0  0  0  0  0  0  0  0
   64.0840   33.0800   47.5640 C   0  0  0  0  0  0  0  0  0  0  0  0
   63.1190   33.5520   46.6780 C   0  0  0  0  0  0  0  0  0  0  0  0
   61.8460   33.8810   47.1430 C   0  0  0  0  0  0  0  0  0  0  0  0
   61.5180   33.7380   48.5020 C   0  0  0  0  0  0  0  0  0  0  0  0
   60.1800   34.1890   48.9480 C   0  0  0  0  0  0  0  0  0  0  0  0
   59.9730   34.3980   50.1730 O   0  0  0  0  0  0  0  0  0  0  0  0
   59.1360   34.4890   48.0110 N   0  0  0  0  0  0  0  0  0  0  0  0
   58.6690   33.6230   46.9670 C   0  0  0  0  0  0  0  0  0  0  0  0
   58.6280   32.2260   47.1310 C   0  0  0  0  0  0  0  0  0  0  0  0
   58.1430   31.4120   46.1040 C   0  0  0  0  0  0  0  0  0  0  0  0
   57.6820   31.9840   44.9150 C   0  0  0  0  0  0  0  0  0  0  0  0
   57.6960   33.3730   44.7580 C   0  0  0  0  0  0  0  0  0  0  0  0
   58.1820   34.1890   45.7830 C   0  0  0  0  0  0  0  0  0  0  0  0
   58.2550   27.4130   47.7020 C   0  0  0  0  0  0  0  0  0  0  0  0
   57.4858   27.2967   44.3689 H   0  0  0  0  0  0  0  0  0  0  0  0
   59.5570   28.6785   44.2560 H   0  0  0  0  0  0  0  0  0  0  0  0
   60.7942   29.2592   46.3415 H   0  0  0  0  0  0  0  0  0  0  0  0
   57.7720   29.6292   49.4264 H   0  0  0  0  0  0  0  0  0  0  0  0
   56.2225   30.9119   50.8961 H   0  0  0  0  0  0  0  0  0  0  0  0
   57.1237   32.6229   52.4721 H   0  0  0  0  0  0  0  0  0  0  0  0
   59.5756   33.0376   52.6003 H   0  0  0  0  0  0  0  0  0  0  0  0
   64.5453   32.5472   49.6082 H   0  0  0  0  0  0  0  0  0  0  0  0
   65.0913   32.8327   47.1976 H   0  0  0  0  0  0  0  0  0  0  0  0
   63.3608   33.6654   45.6109 H   0  0  0  0  0  0  0  0  0  0  0  0
   61.0900   34.2568   46.4379 H   0  0  0  0  0  0  0  0  0  0  0  0
   58.9787   31.7735   48.0703 H   0  0  0  0  0  0  0  0  0  0  0  0
   58.1240   30.3196   46.2315 H   0  0  0  0  0  0  0  0  0  0  0  0
   57.3086   31.3419   44.1037 H   0  0  0  0  0  0  0  0  0  0  0  0
   57.3239   33.8242   43.8264 H   0  0  0  0  0  0  0  0  0  0  0  0
   58.1819   35.2820   45.6588 H   0  0  0  0  0  0  0  0  0  0  0  0
   57.8796   27.0698   48.6773 H   0  0  0  0  0  0  0  0  0  0  0  0
  1  2  2  0
  2  3  1  0
  2  4  1  0
  4  5  2  0
  5  6  1  0
  6  7  2  0
  7  8  1  0
  8  9  1  0
  9 10  1  0
 10 11  2  0
 10 12  1  0
 12 13  2  0
 13 14  1  0
 14 15  2  0
 15 16  1  0
 16 17  2  0
 17 18  1  0
 18 19  1  0
 19 20  2  0
 19 21  1  0
 21 22  2  0
 22 23  1  0
 23 24  2  0
 24 25  1  0
 25 26  2  0
 26 27  1  0
 27 28  2  0
 27 29  1  0
 29 30  1  0
 30 31  2  0
 31 32  1  0
 32 33  2  0
 33 34  1  0
 34 35  2  0
  8 36  2  0
 36  4  1  0
 17 12  1  0
 26 21  1  0
 35 30  1  0
  5 37  1  0
  6 38  1  0
  7 39  1  0
 13 40  1  0
 14 41  1  0
 15 42  1  0
 16 43  1  0
 22 44  1  0
 23 45  1  0
 24 46  1  0
 25 47  1  0
 31 48  1  0
 32 49  1  0
 33 50  1  0
 34 51  1  0
 35 52  1  0
 36 53  1  0
M  CHG  4   3  -1   9  -1  18  -1  29  -1
M  END
>  <UniqueID>  (49) 
47

>  <SMILES>  (49) 
O=C([O-])c1cccc([N-]C(=O)c2ccccc2[N-]C(=O)c2ccccc2C(=O)[N-]c2ccccc2)c1

>  <Energy>  (49) 
83.6638382810738

>  <Genealogy>  (49) 
O=C([O-])c1cccc([N-]C(=O)c2ccccc2[N-]C(=O)c2ccccc2C(=O)[N-]c2ccccc2)c1 (protonated)
O=C([O-])c1cccc([N-]C(=O)c2ccccc2[N-]C(=O)c2ccccc2C(=O)[N-]c2ccccc2)c1 (3D coordinates assigned)
O=C([O-])c1cccc([N-]C(=O)c2ccccc2[N-]C(=O)c2ccccc2C(=O)[N-]c2ccccc2)c1 (optimized conformer: 83.6638382810738 kcal/mol)

>  <smiles>  (49) 
O=C(O)c1cccc(NC(=O)c2ccccc2NC(=O)c2ccccc2C(=O)Nc2ccccc2)c1

>  <score_type>  (49) 
oracle

>  <origin>  (49) 
adg

>  <m_score__min__energy>  (49) 
-16.82

>  <m_primary>  (49) 
energy

$$$$
49:0
     RDKit          3D

 48 51  0  0  0  0  0  0  0  0999 V2000
   55.2180   29.3740   44.8800 O   0  0  0  0  0  0  0  0  0  0  0  0
   56.1820   30.0330   44.4020 C   0  0  0  0  0  0  0  0  0  0  0  0
   57.2470   29.3590   43.7300 N   0  0  0  0  0  0  0  0  0  0  0  0
   57.9480   28.2180   44.3030 C   0  0  0  0  0  0  0  0  0  0  0  0
   58.7950   28.6790   45.4530 C   0  0  0  0  0  0  0  0  0  0  0  0
   60.0090   29.3460   45.2140 C   0  0  0  0  0  0  0  0  0  0  0  0
   60.7770   29.8130   46.2850 C   0  0  0  0  0  0  0  0  0  0  0  0
   60.3350   29.6300   47.5980 C   0  0  0  0  0  0  0  0  0  0  0  0
   59.1210   28.9810   47.8430 C   0  0  0  0  0  0  0  0  0  0  0  0
   58.3500   28.5110   46.7750 C   0  0  0  0  0  0  0  0  0  0  0  0
   56.2590   31.4210   44.5710 O   0  0  0  0  0  0  0  0  0  0  0  0
   57.3860   32.1270   45.0210 C   0  0  0  0  0  0  0  0  0  0  0  0
   57.9890   33.0420   44.1500 C   0  0  0  0  0  0  0  0  0  0  0  0
   59.1060   33.7760   44.5560 C   0  0  0  0  0  0  0  0  0  0  0  0
   59.6430   33.6020   45.8360 C   0  0  0  0  0  0  0  0  0  0  0  0
   60.7770   34.3910   46.2230 N   0  0  0  0  0  0  0  0  0  0  0  0
   62.0400   33.8890   46.6790 C   0  0  0  0  0  0  0  0  0  0  0  0
   63.0990   34.2180   46.0760 O   0  0  0  0  0  0  0  0  0  0  0  0
   62.1190   33.0420   47.8980 C   0  0  0  0  0  0  0  0  0  0  0  0
   61.3010   33.3310   49.0020 C   0  0  0  0  0  0  0  0  0  0  0  0
   61.3720   32.5380   50.1500 C   0  0  0  0  0  0  0  0  0  0  0  0
   60.5630   32.7910   51.2680 C   0  0  0  0  0  0  0  0  0  0  0  0
   60.6670   31.9790   52.4030 C   0  0  0  0  0  0  0  0  0  0  0  0
   61.5770   30.9150   52.4300 C   0  0  0  0  0  0  0  0  0  0  0  0
   61.6710   30.1210   53.5700 O   0  0  0  0  0  0  0  0  0  0  0  0
   62.3840   30.6570   51.3120 C   0  0  0  0  0  0  0  0  0  0  0  0
   62.2840   31.4640   50.1720 C   0  0  0  0  0  0  0  0  0  0  0  0
   63.0520   31.2170   49.1160 O   0  0  0  0  0  0  0  0  0  0  0  0
   63.0080   31.9460   48.0040 C   0  0  0  0  0  0  0  0  0  0  0  0
   63.7810   31.6470   47.0560 O   0  0  0  0  0  0  0  0  0  0  0  0
   59.0170   32.7140   46.7280 C   0  0  0  0  0  0  0  0  0  0  0  0
   57.8970   31.9800   46.3230 C   0  0  0  0  0  0  0  0  0  0  0  0
   57.2156   27.4789   44.6598 H   0  0  0  0  0  0  0  0  0  0  0  0
   58.5887   27.7578   43.5364 H   0  0  0  0  0  0  0  0  0  0  0  0
   60.3557   29.5010   44.1816 H   0  0  0  0  0  0  0  0  0  0  0  0
   61.7313   30.3256   46.0936 H   0  0  0  0  0  0  0  0  0  0  0  0
   60.9422   29.9965   48.4388 H   0  0  0  0  0  0  0  0  0  0  0  0
   58.7720   28.8400   48.8766 H   0  0  0  0  0  0  0  0  0  0  0  0
   57.3916   28.0079   46.9708 H   0  0  0  0  0  0  0  0  0  0  0  0
   57.5803   33.1840   43.1387 H   0  0  0  0  0  0  0  0  0  0  0  0
   59.5668   34.4963   43.8640 H   0  0  0  0  0  0  0  0  0  0  0  0
   60.6045   34.1815   48.9630 H   0  0  0  0  0  0  0  0  0  0  0  0
   59.8478   33.6266   51.2524 H   0  0  0  0  0  0  0  0  0  0  0  0
   60.0308   32.1775   53.2782 H   0  0  0  0  0  0  0  0  0  0  0  0
   62.3820   30.2850   54.2730 H   0  0  0  0  0  0  0  0  0  0  0  0
   63.0966   29.8193   51.3309 H   0  0  0  0  0  0  0  0  0  0  0  0
   59.4094   32.5958   47.7488 H   0  0  0  0  0  0  0  0  0  0  0  0
   57.4141   31.2851   47.0258 H   0  0  0  0  0  0  0  0  0  0  0  0
  1  2  2  0
  2  3  1  0
  3  4  1  0
  4  5  1  0
  5  6  2  0
  6  7  1  0
  7  8  2  0
  8  9  1  0
  9 10  2  0
  2 11  1  0
 11 12  1  0
 12 13  2  0
 13 14  1  0
 14 15  2  0
 15 16  1  0
 16 17  1  0
 17 18  2  0
 17 19  1  0
 19 20  2  0
 20 21  1  0
 21 22  2  0
 22 23  1  0
 23 24  2  0
 24 25  1  0
 24 26  1  0
 26 27  2  0
 27 28  1  0
 28 29  1  0
 29 30  2  0
 15 31  1  0
 31 32  2  0
 10  5  1  0
 32 12  1  0
 29 19  1  0
 27 21  1  0
  4 33  1  0
  4 34  1  0
  6 35  1  0
  7 36  1  0
  8 37  1  0
  9 38  1  0
 10 39  1  0
 13 40  1  0
 14 41  1  0
 20 42  1  0
 22 43  1  0
 23 44  1  0
 25 45  1  0
 26 46  1  0
 31 47  1  0
 32 48  1  0
M  CHG  2   3  -1  16  -1
M  END
>  <UniqueID>  (50) 
48

>  <SMILES>  (50) 
O=C([N-]Cc1ccccc1)Oc1ccc([N-]C(=O)c2cc3ccc(O)cc3oc2=O)cc1

>  <Energy>  (50) 
64.93547566059674

>  <Genealogy>  (50) 
O=C([N-]Cc1ccccc1)Oc1ccc([N-]C(=O)c2cc3ccc(O)cc3oc2=O)cc1 (protonated)
O=C([N-]Cc1ccccc1)Oc1ccc([N-]C(=O)c2cc3ccc(O)cc3oc2=O)cc1 (3D coordinates assigned)
O=C([N-]Cc1ccccc1)Oc1ccc([N-]C(=O)c2cc3ccc(O)cc3oc2=O)cc1 (optimized conformer: 64.93547566059674 kcal/mol)

>  <smiles>  (50) 
O=C(NCc1ccccc1)Oc1ccc(NC(=O)c2cc3ccc(O)cc3oc2=O)cc1

>  <score_type>  (50) 
oracle

>  <origin>  (50) 
adg

>  <m_score__min__energy>  (50) 
-11.529999999999999

>  <m_primary>  (50) 
energy

$$$$
50:0
     RDKit          3D

 64 67  0  0  0  0  0  0  0  0999 V2000
   61.8260   33.8480   46.7260 C   0  0  0  0  0  0  0  0  0  0  0  0
   62.3130   33.3960   48.0330 N   0  0  0  0  0  0  0  0  0  0  0  0
   63.6930   32.8990   48.1350 C   0  0  0  0  0  0  0  0  0  0  0  0
   61.4700   33.4640   49.2130 C   0  0  0  0  0  0  0  0  0  0  0  0
   62.0030   33.2270   50.5020 C   0  0  0  0  0  0  0  0  0  0  0  0
   61.1820   33.2510   51.6310 C   0  0  0  0  0  0  0  0  0  0  0  0
   59.8110   33.5210   51.5080 C   0  0  0  0  0  0  0  0  0  0  0  0
   58.9270   33.4870   52.7240 C   0  0  0  0  0  0  0  0  0  0  0  0
   58.3960   32.1040   52.9340 C   0  0  0  0  0  0  0  0  0  0  0  0
   58.0060   31.7500   54.0810 O   0  0  0  0  0  0  0  0  0  0  0  0
   58.3650   31.1830   51.8370 N   0  0  0  0  0  0  0  0  0  0  0  0
   59.4990   30.3530   51.4400 C   0  0  0  0  0  0  0  0  0  0  0  0
   59.2380   29.6560   50.0980 C   0  0  0  0  0  0  0  0  0  0  0  0
   59.4410   30.6080   48.9130 C   0  0  0  0  0  0  0  0  0  0  0  0
   59.0230   29.9960   47.6950 O   0  0  0  0  0  0  0  0  0  0  0  0
   58.7460   30.6680   46.4900 C   0  0  0  0  0  0  0  0  0  0  0  0
   59.0800   32.0210   46.2940 C   0  0  0  0  0  0  0  0  0  0  0  0
   58.7610   32.6640   45.0990 C   0  0  0  0  0  0  0  0  0  0  0  0
   58.0810   31.9840   44.0860 C   0  0  0  0  0  0  0  0  0  0  0  0
   57.7260   32.6550   42.9060 C   0  0  0  0  0  0  0  0  0  0  0  0
   57.0450   31.9780   41.8930 C   0  0  0  0  0  0  0  0  0  0  0  0
   56.7230   30.6280   42.0440 C   0  0  0  0  0  0  0  0  0  0  0  0
   57.0700   29.9480   43.2120 C   0  0  0  0  0  0  0  0  0  0  0  0
   57.7470   30.6160   44.2550 C   0  0  0  0  0  0  0  0  0  0  0  0
   58.0960   29.9580   45.4620 C   0  0  0  0  0  0  0  0  0  0  0  0
   57.7610   28.5310   45.6900 C   0  0  0  0  0  0  0  0  0  0  0  0
   58.7660   27.5800   45.9990 C   0  0  0  0  0  0  0  0  0  0  0  0
   60.1900   27.9760   46.1140 C   0  0  0  0  0  0  0  0  0  0  0  0
   60.7430   28.1020   47.2420 O   0  0  0  0  0  0  0  0  0  0  0  0
   58.3980   26.2350   46.1930 C   0  0  0  0  0  0  0  0  0  0  0  0
   57.0650   25.8390   46.0750 C   0  0  0  0  0  0  0  0  0  0  0  0
   56.0790   26.7770   45.7650 C   0  0  0  0  0  0  0  0  0  0  0  0
   54.7550   26.3680   45.6490 O   0  0  0  0  0  0  0  0  0  0  0  0
   56.4200   28.1190   45.5680 C   0  0  0  0  0  0  0  0  0  0  0  0
   55.4260   29.0410   45.2440 O   0  0  0  0  0  0  0  0  0  0  0  0
   59.2700   33.7460   50.2370 C   0  0  0  0  0  0  0  0  0  0  0  0
   60.0880   33.7250   49.1030 C   0  0  0  0  0  0  0  0  0  0  0  0
   61.0266   34.5899   46.8691 H   0  0  0  0  0  0  0  0  0  0  0  0
   62.6540   34.3049   46.1642 H   0  0  0  0  0  0  0  0  0  0  0  0
   61.4320   32.9883   46.1642 H   0  0  0  0  0  0  0  0  0  0  0  0
   63.9695   32.7994   49.1950 H   0  0  0  0  0  0  0  0  0  0  0  0
   63.7667   31.9179   47.6431 H   0  0  0  0  0  0  0  0  0  0  0  0
   64.3753   33.6079   47.6431 H   0  0  0  0  0  0  0  0  0  0  0  0
   63.0776   33.0213   50.6161 H   0  0  0  0  0  0  0  0  0  0  0  0
   61.6134   33.0568   52.6241 H   0  0  0  0  0  0  0  0  0  0  0  0
   59.5096   33.7911   53.6061 H   0  0  0  0  0  0  0  0  0  0  0  0
   58.0841   34.1781   52.5763 H   0  0  0  0  0  0  0  0  0  0  0  0
   60.3922   30.9881   51.3460 H   0  0  0  0  0  0  0  0  0  0  0  0
   59.6494   29.5806   52.2086 H   0  0  0  0  0  0  0  0  0  0  0  0
   59.9313   28.8081   49.9964 H   0  0  0  0  0  0  0  0  0  0  0  0
   58.1922   29.3150   50.0875 H   0  0  0  0  0  0  0  0  0  0  0  0
   58.8508   31.5213   49.0789 H   0  0  0  0  0  0  0  0  0  0  0  0
   60.5108   30.8523   48.8360 H   0  0  0  0  0  0  0  0  0  0  0  0
   59.5972   32.5759   47.0906 H   0  0  0  0  0  0  0  0  0  0  0  0
   59.0473   33.7160   44.9525 H   0  0  0  0  0  0  0  0  0  0  0  0
   57.9849   33.7165   42.7790 H   0  0  0  0  0  0  0  0  0  0  0  0
   56.7612   32.5098   40.9729 H   0  0  0  0  0  0  0  0  0  0  0  0
   56.1934   30.0980   41.2386 H   0  0  0  0  0  0  0  0  0  0  0  0
   56.8141   28.8837   43.3207 H   0  0  0  0  0  0  0  0  0  0  0  0
   60.7746   28.1632   45.2012 H   0  0  0  0  0  0  0  0  0  0  0  0
   59.1682   25.4894   46.4398 H   0  0  0  0  0  0  0  0  0  0  0  0
   56.7906   24.7846   46.2267 H   0  0  0  0  0  0  0  0  0  0  0  0
   58.1928   33.9409   50.1292 H   0  0  0  0  0  0  0  0  0  0  0  0
   59.6483   33.9144   48.1127 H   0  0  0  0  0  0  0  0  0  0  0  0
  1  2  1  0
  2  3  1  0
  2  4  1  0
  4  5  2  0
  5  6  1  0
  6  7  2  0
  7  8  1  0
  8  9  1  0
  9 10  2  0
  9 11  1  0
 11 12  1  0
 12 13  1  0
 13 14  1  0
 14 15  1  0
 15 16  1  0
 16 17  2  0
 17 18  1  0
 18 19  2  0
 19 20  1  0
 20 21  2  0
 21 22  1  0
 22 23  2  0
 23 24  1  0
 24 25  2  0
 25 26  1  0
 26 27  2  0
 27 28  1  0
 28 29  2  0
 27 30  1  0
 30 31  2  0
 31 32  1  0
 32 33  1  0
 32 34  2  0
 34 35  1  0
  7 36  1  0
 36 37  2  0
 37  4  1  0
 25 16  1  0
 34 26  1  0
 24 19  1  0
  1 38  1  0
  1 39  1  0
  1 40  1  0
  3 41  1  0
  3 42  1  0
  3 43  1  0
  5 44  1  0
  6 45  1  0
  8 46  1  0
  8 47  1  0
 12 48  1  0
 12 49  1  0
 13 50  1  0
 13 51  1  0
 14 52  1  0
 14 53  1  0
 17 54  1  0
 18 55  1  0
 20 56  1  0
 21 57  1  0
 22 58  1  0
 23 59  1  0
 28 60  1  0
 30 61  1  0
 31 62  1  0
 36 63  1  0
 37 64  1  0
M  CHG  3  11  -1  33  -1  35  -1
M  END
>  <UniqueID>  (51) 
49

>  <SMILES>  (51) 
CN(C)c1ccc(CC(=O)[N-]CCCOc2ccc3ccccc3c2-c2c(C=O)ccc([O-])c2[O-])cc1

>  <Energy>  (51) 
71.15574916758946

>  <Genealogy>  (51) 
CN(C)c1ccc(CC(=O)[N-]CCCOc2ccc3ccccc3c2-c2c(C=O)ccc([O-])c2[O-])cc1 (protonated)
CN(C)c1ccc(CC(=O)[N-]CCCOc2ccc3ccccc3c2-c2c(C=O)ccc([O-])c2[O-])cc1 (3D coordinates assigned)
CN(C)c1ccc(CC(=O)[N-]CCCOc2ccc3ccccc3c2-c2c(C=O)ccc([O-])c2[O-])cc1 (optimized conformer: 71.15574916758946 kcal/mol)

>  <smiles>  (51) 
CN(C)c1ccc(CC(=O)NCCCOc2ccc3ccccc3c2-c2c(C=O)ccc(O)c2O)cc1

>  <score_type>  (51) 
oracle

>  <origin>  (51) 
adg

>  <m_score__min__energy>  (51) 
-16.170000000000002

>  <m_primary>  (51) 
energy

$$$$
51:0
     RDKit          3D

 48 50  0  0  0  0  0  0  0  0999 V2000
   56.6440   34.3660   45.2310 N   0  0  0  0  0  0  0  0  0  0  0  0
   58.3320   34.0600   44.9980 S   0  0  0  0  0  0  0  0  0  0  0  0
   58.5330   33.2900   43.7220 O   0  0  0  0  0  0  0  0  0  0  0  0
   59.0680   35.3670   44.8900 O   0  0  0  0  0  0  0  0  0  0  0  0
   58.9500   33.1280   46.3540 C   0  0  0  0  0  0  0  0  0  0  0  0
   60.3270   32.9260   46.4900 C   0  0  0  0  0  0  0  0  0  0  0  0
   60.8260   32.1590   47.5420 C   0  0  0  0  0  0  0  0  0  0  0  0
   59.9510   31.5810   48.4740 C   0  0  0  0  0  0  0  0  0  0  0  0
   60.4860   30.7410   49.6040 C   0  0  0  0  0  0  0  0  0  0  0  0
   61.1300   29.4390   49.1090 C   0  0  0  0  0  0  0  0  0  0  0  0
   60.1260   28.5430   48.5170 N   0  0  0  0  0  0  0  0  0  0  0  0
   60.2420   28.4070   46.7790 S   0  0  0  0  0  0  0  0  0  0  0  0
   61.1530   29.4570   46.2100 O   0  0  0  0  0  0  0  0  0  0  0  0
   60.7790   27.0500   46.4320 O   0  0  0  0  0  0  0  0  0  0  0  0
   58.6350   28.5780   46.0830 C   0  0  0  0  0  0  0  0  0  0  0  0
   58.2890   29.7290   45.3650 C   0  0  0  0  0  0  0  0  0  0  0  0
   57.0040   29.8620   44.8370 C   0  0  0  0  0  0  0  0  0  0  0  0
   56.0600   28.8460   45.0190 C   0  0  0  0  0  0  0  0  0  0  0  0
   54.7860   28.9900   44.4880 O   0  0  0  0  0  0  0  0  0  0  0  0
   56.4060   27.6860   45.7180 C   0  0  0  0  0  0  0  0  0  0  0  0
   55.4380   26.6530   45.9040 N   0  0  0  0  0  0  0  0  0  0  0  0
   55.9140   25.0020   46.1200 S   0  0  0  0  0  0  0  0  0  0  0  0
   56.9230   24.6020   45.0830 O   0  0  0  0  0  0  0  0  0  0  0  0
   56.5320   24.8460   47.4820 O   0  0  0  0  0  0  0  0  0  0  0  0
   54.4900   23.9830   46.0100 C   0  0  0  0  0  0  0  0  0  0  0  0
   54.3360   22.7430   46.6090 C   0  0  0  0  0  0  0  0  0  0  0  0
   53.0760   22.1800   46.3740 C   0  0  0  0  0  0  0  0  0  0  0  0
   52.2360   22.9830   45.6060 C   0  0  0  0  0  0  0  0  0  0  0  0
   53.0660   24.3910   45.2110 S   0  0  0  0  0  0  0  0  0  0  0  0
   57.6940   27.5530   46.2480 C   0  0  0  0  0  0  0  0  0  0  0  0
   58.5680   31.7850   48.3380 C   0  0  0  0  0  0  0  0  0  0  0  0
   58.0700   32.5520   47.2830 C   0  0  0  0  0  0  0  0  0  0  0  0
   56.4160   34.0980   46.2110 H   0  0  0  0  0  0  0  0  0  0  0  0
   56.5090   35.3960   45.1620 H   0  0  0  0  0  0  0  0  0  0  0  0
   61.0202   33.3746   45.7632 H   0  0  0  0  0  0  0  0  0  0  0  0
   61.9108   32.0064   47.6417 H   0  0  0  0  0  0  0  0  0  0  0  0
   61.2420   31.3238   50.1506 H   0  0  0  0  0  0  0  0  0  0  0  0
   59.6394   30.4717   50.2526 H   0  0  0  0  0  0  0  0  0  0  0  0
   61.8888   29.6796   48.3498 H   0  0  0  0  0  0  0  0  0  0  0  0
   61.5903   28.9286   49.9679 H   0  0  0  0  0  0  0  0  0  0  0  0
   59.0299   30.5285   45.2170 H   0  0  0  0  0  0  0  0  0  0  0  0
   56.7327   30.7685   44.2761 H   0  0  0  0  0  0  0  0  0  0  0  0
   55.1200   22.2534   47.2054 H   0  0  0  0  0  0  0  0  0  0  0  0
   52.7769   21.1944   46.7602 H   0  0  0  0  0  0  0  0  0  0  0  0
   51.2057   22.7379   45.3087 H   0  0  0  0  0  0  0  0  0  0  0  0
   57.9690   26.6400   46.7965 H   0  0  0  0  0  0  0  0  0  0  0  0
   57.8744   31.3386   49.0657 H   0  0  0  0  0  0  0  0  0  0  0  0
   56.9856   32.7051   47.1798 H   0  0  0  0  0  0  0  0  0  0  0  0
  1  2  1  0
  2  3  2  0
  2  4  2  0
  2  5  1  0
  5  6  2  0
  6  7  1  0
  7  8  2  0
  8  9  1  0
  9 10  1  0
 10 11  1  0
 11 12  1  0
 12 13  2  0
 12 14  2  0
 12 15  1  0
 15 16  2  0
 16 17  1  0
 17 18  2  0
 18 19  1  0
 18 20  1  0
 20 21  1  0
 21 22  1  0
 22 23  2  0
 22 24  2  0
 22 25  1  0
 25 26  2  0
 26 27  1  0
 27 28  2  0
 28 29  1  0
 20 30  2  0
  8 31  1  0
 31 32  2  0
 32  5  1  0
 30 15  1  0
 29 25  1  0
  1 33  1  0
  1 34  1  0
  6 35  1  0
  7 36  1  0
  9 37  1  0
  9 38  1  0
 10 39  1  0
 10 40  1  0
 16 41  1  0
 17 42  1  0
 26 43  1  0
 27 44  1  0
 28 45  1  0
 30 46  1  0
 31 47  1  0
 32 48  1  0
M  CHG  3  11  -1  19  -1  21  -1
M  END
>  <UniqueID>  (52) 
50

>  <SMILES>  (52) 
NS(=O)(=O)c1ccc(CC[N-]S(=O)(=O)c2ccc([O-])c([N-]S(=O)(=O)c3cccs3)c2)cc1

>  <Energy>  (52) 
83.5241571052857

>  <Genealogy>  (52) 
NS(=O)(=O)c1ccc(CC[N-]S(=O)(=O)c2ccc([O-])c([N-]S(=O)(=O)c3cccs3)c2)cc1 (protonated)
NS(=O)(=O)c1ccc(CC[N-]S(=O)(=O)c2ccc([O-])c([N-]S(=O)(=O)c3cccs3)c2)cc1 (3D coordinates assigned)
NS(=O)(=O)c1ccc(CC[N-]S(=O)(=O)c2ccc([O-])c([N-]S(=O)(=O)c3cccs3)c2)cc1 (optimized conformer: 83.5241571052857 kcal/mol)

>  <smiles>  (52) 
NS(=O)(=O)c1ccc(CCNS(=O)(=O)c2ccc(O)c(NS(=O)(=O)c3cccs3)c2)cc1

>  <score_type>  (52) 
oracle

>  <origin>  (52) 
adg

>  <m_score__min__energy>  (52) 
-16.050000000000001

>  <m_primary>  (52) 
energy

$$$$
52:0
     RDKit          3D

 73 76  0  0  0  0  0  0  0  0999 V2000
   54.7650   25.7250   45.9860 N   0  0  0  0  0  0  0  0  0  0  0  0
   53.6420   24.8680   45.6190 C   0  0  0  0  0  0  0  0  0  0  0  0
   54.1210   23.4530   45.3060 C   0  0  0  0  0  0  0  0  0  0  0  0
   55.5490   23.3330   45.5750 N   0  0  0  0  0  0  0  0  0  0  0  0
   56.5750   23.6170   44.6140 C   0  0  0  0  0  0  0  0  0  0  0  0
   56.4720   23.1390   43.4540 O   0  0  0  0  0  0  0  0  0  0  0  0
   57.7970   24.4060   44.9770 C   0  0  0  0  0  0  0  0  0  0  0  0
   57.4030   25.5190   45.8370 N   0  0  0  0  0  0  0  0  0  0  0  0
   57.6610   26.7920   45.7010 C   0  0  0  0  0  0  0  0  0  0  0  0
   56.6560   27.5900   45.2690 N   0  0  0  0  0  0  0  0  0  0  0  0
   56.8170   28.9190   45.0730 C   0  0  0  0  0  0  0  0  0  0  0  0
   55.4410   29.8530   44.4970 Cl  0  0  0  0  0  0  0  0  0  0  0  0
   58.0660   29.5090   45.3160 C   0  0  0  0  0  0  0  0  0  0  0  0
   58.2340   30.9560   45.0530 C   0  0  0  0  0  0  0  0  0  0  0  0
   58.3130   31.4040   43.7270 C   0  0  0  0  0  0  0  0  0  0  0  0
   58.4630   32.7620   43.4540 C   0  0  0  0  0  0  0  0  0  0  0  0
   58.5420   33.6830   44.4990 C   0  0  0  0  0  0  0  0  0  0  0  0
   58.4810   33.2510   45.8360 C   0  0  0  0  0  0  0  0  0  0  0  0
   58.5340   34.1950   46.9190 N   0  0  0  0  0  0  0  0  0  0  0  0
   59.2850   34.0270   48.1280 C   0  0  0  0  0  0  0  0  0  0  0  0
   58.8080   33.3100   49.0440 O   0  0  0  0  0  0  0  0  0  0  0  0
   60.6470   34.5930   48.2470 C   0  0  0  0  0  0  0  0  0  0  0  0
   61.7830   33.8940   48.0930 C   0  0  0  0  0  0  0  0  0  0  0  0
   62.3460   33.5970   46.7510 C   0  0  0  0  0  0  0  0  0  0  0  0
   63.7650   33.1140   47.0220 C   0  0  0  0  0  0  0  0  0  0  0  0
   63.8280   32.7210   48.5000 C   0  0  0  0  0  0  0  0  0  0  0  0
   62.6690   33.4260   49.1980 C   0  0  0  0  0  0  0  0  0  0  0  0
   58.3020   31.8800   46.1130 C   0  0  0  0  0  0  0  0  0  0  0  0
   58.1930   31.4220   47.4290 O   0  0  0  0  0  0  0  0  0  0  0  0
   59.1110   28.7270   45.7610 N   0  0  0  0  0  0  0  0  0  0  0  0
   60.4260   29.3270   46.0920 C   0  0  0  0  0  0  0  0  0  0  0  0
   60.4150   29.9370   47.4610 C   0  0  0  0  0  0  0  0  0  0  0  0
   61.1050   30.9630   47.7080 O   0  0  0  0  0  0  0  0  0  0  0  0
   59.6500   29.3180   48.4980 N   0  0  0  0  0  0  0  0  0  0  0  0
   59.9070   29.5400   49.9180 C   0  0  0  0  0  0  0  0  0  0  0  0
   61.4000   29.7190   50.1930 C   0  0  0  0  0  0  0  0  0  0  0  0
   61.5200   30.8150   51.2530 C   0  0  0  0  0  0  0  0  0  0  0  0
   60.1050   31.2960   51.5520 C   0  0  0  0  0  0  0  0  0  0  0  0
   59.2510   30.8270   50.3890 C   0  0  0  0  0  0  0  0  0  0  0  0
   58.9230   27.3790   45.9690 C   0  0  0  0  0  0  0  0  0  0  0  0
   59.8750   26.6760   46.4090 O   0  0  0  0  0  0  0  0  0  0  0  0
   55.3660   25.8670   45.1410 H   0  0  0  0  0  0  0  0  0  0  0  0
   55.3490   25.2090   46.6820 H   0  0  0  0  0  0  0  0  0  0  0  0
   52.9283   24.8306   46.4552 H   0  0  0  0  0  0  0  0  0  0  0  0
   53.1590   25.2836   44.7223 H   0  0  0  0  0  0  0  0  0  0  0  0
   53.5716   22.7363   45.9341 H   0  0  0  0  0  0  0  0  0  0  0  0
   53.9371   23.2391   44.2428 H   0  0  0  0  0  0  0  0  0  0  0  0
   58.5084   23.7597   45.5120 H   0  0  0  0  0  0  0  0  0  0  0  0
   58.2766   24.7911   44.0651 H   0  0  0  0  0  0  0  0  0  0  0  0
   58.2564   30.6813   42.8997 H   0  0  0  0  0  0  0  0  0  0  0  0
   58.5193   33.1090   42.4117 H   0  0  0  0  0  0  0  0  0  0  0  0
   58.6528   34.7544   44.2757 H   0  0  0  0  0  0  0  0  0  0  0  0
   60.7353   35.6647   48.4786 H   0  0  0  0  0  0  0  0  0  0  0  0
   61.7592   32.8134   46.2495 H   0  0  0  0  0  0  0  0  0  0  0  0
   62.3258   34.4752   46.0889 H   0  0  0  0  0  0  0  0  0  0  0  0
   63.9955   32.2441   46.3894 H   0  0  0  0  0  0  0  0  0  0  0  0
   64.4986   33.9010   46.7929 H   0  0  0  0  0  0  0  0  0  0  0  0
   63.7261   31.6309   48.6058 H   0  0  0  0  0  0  0  0  0  0  0  0
   64.7908   33.0143   48.9438 H   0  0  0  0  0  0  0  0  0  0  0  0
   62.1311   32.7277   49.8560 H   0  0  0  0  0  0  0  0  0  0  0  0
   63.0115   34.2557   49.8338 H   0  0  0  0  0  0  0  0  0  0  0  0
   58.9850   31.3740   48.0550 H   0  0  0  0  0  0  0  0  0  0  0  0
   61.1973   28.5436   46.0546 H   0  0  0  0  0  0  0  0  0  0  0  0
   60.6413   30.1191   45.3598 H   0  0  0  0  0  0  0  0  0  0  0  0
   59.5069   28.6592   50.4415 H   0  0  0  0  0  0  0  0  0  0  0  0
   61.8324   28.7795   50.5677 H   0  0  0  0  0  0  0  0  0  0  0  0
   61.9426   29.9925   49.2760 H   0  0  0  0  0  0  0  0  0  0  0  0
   61.9830   30.4105   52.1651 H   0  0  0  0  0  0  0  0  0  0  0  0
   62.1506   31.6423   50.8954 H   0  0  0  0  0  0  0  0  0  0  0  0
   59.7430   30.8575   52.4936 H   0  0  0  0  0  0  0  0  0  0  0  0
   60.0661   32.3894   51.6660 H   0  0  0  0  0  0  0  0  0  0  0  0
   58.2187   30.6375   50.7183 H   0  0  0  0  0  0  0  0  0  0  0  0
   59.1915   31.5791   49.5885 H   0  0  0  0  0  0  0  0  0  0  0  0
  1  2  1  0
  2  3  1  0
  3  4  1  0
  4  5  1  0
  5  6  2  0
  5  7  1  0
  7  8  1  0
  8  9  2  3
  9 10  1  0
 10 11  1  0
 11 12  1  0
 11 13  2  0
 13 14  1  0
 14 15  2  0
 15 16  1  0
 16 17  2  0
 17 18  1  0
 18 19  1  0
 19 20  1  0
 20 21  2  0
 20 22  1  0
 22 23  2  3
 23 24  1  0
 24 25  1  0
 25 26  1  0
 26 27  1  0
 18 28  2  0
 28 29  1  0
 13 30  1  0
 30 31  1  0
 31 32  1  0
 32 33  2  0
 32 34  1  0
 34 35  1  0
 35 36  1  0
 36 37  1  0
 37 38  1  0
 38 39  1  0
 30 40  1  0
 40 41  2  0
 40  9  1  0
 28 14  1  0
 39 35  1  0
 27 23  1  0
  1 42  1  0
  1 43  1  0
  2 44  1  0
  2 45  1  0
  3 46  1  0
  3 47  1  0
  7 48  1  0
  7 49  1  0
 15 50  1  0
 16 51  1  0
 17 52  1  0
 22 53  1  0
 24 54  1  0
 24 55  1  0
 25 56  1  0
 25 57  1  0
 26 58  1  0
 26 59  1  0
 27 60  1  0
 27 61  1  0
 29 62  1  0
 31 63  1  0
 31 64  1  0
 35 65  1  0
 36 66  1  0
 36 67  1  0
 37 68  1  0
 37 69  1  0
 38 70  1  0
 38 71  1  0
 39 72  1  0
 39 73  1  0
M  CHG  4   4  -1  10  -1  19  -1  34  -1
M  END
>  <UniqueID>  (53) 
51

>  <SMILES>  (53) 
NCC[N-]C(=O)CN=c1[n-]c(Cl)c(-c2cccc([N-]C(=O)C=C3CCCC3)c2O)n(CC(=O)[N-]C2CCCC2)c1=O

>  <Energy>  (53) 
89.48715136329938

>  <Genealogy>  (53) 
NCC[N-]C(=O)CN=c1[n-]c(Cl)c(-c2cccc([N-]C(=O)C=C3CCCC3)c2O)n(CC(=O)[N-]C2CCCC2)c1=O (protonated)
NCC[N-]C(=O)CN=c1[n-]c(Cl)c(-c2cccc([N-]C(=O)C=C3CCCC3)c2O)n(CC(=O)[N-]C2CCCC2)c1=O (3D coordinates assigned)
NCC[N-]C(=O)CN=c1[n-]c(Cl)c(-c2cccc([N-]C(=O)C=C3CCCC3)c2O)n(CC(=O)[N-]C2CCCC2)c1=O (nonaromatic ring conformer: 89.48715136329938 kcal/mol)

>  <smiles>  (53) 
NCCNC(=O)CN=c1[nH]c(Cl)c(-c2cccc(NC(=O)C=C3CCCC3)c2O)n(CC(=O)NC2CCCC2)c1=O

>  <score_type>  (53) 
oracle

>  <origin>  (53) 
adg

>  <m_score__min__energy>  (53) 
-13.890000000000001

>  <m_primary>  (53) 
energy

$$$$
53:0
     RDKit          3D

 53 56  0  0  0  0  0  0  0  0999 V2000
   53.7510   26.7040   46.3700 H   0  0  0  0  0  0  0  0  0  0  0  0
   54.5080   26.1280   45.9360 N   0  0  0  0  0  0  0  0  0  0  0  0
   55.8760   26.3310   46.2820 C   0  0  0  0  0  0  0  0  0  0  0  0
   56.4400   25.5370   47.0800 O   0  0  0  0  0  0  0  0  0  0  0  0
   56.6140   27.4610   45.7010 C   0  0  0  0  0  0  0  0  0  0  0  0
   56.0090   28.5440   45.1540 N   0  0  0  0  0  0  0  0  0  0  0  0
   56.9520   29.3680   44.7100 N   0  0  0  0  0  0  0  0  0  0  0  0
   56.6720   30.6700   44.1090 C   0  0  0  0  0  0  0  0  0  0  0  0
   56.8608   30.6198   43.0265 H   0  0  0  0  0  0  0  0  0  0  0  0
   55.6199   30.9337   44.2921 H   0  0  0  0  0  0  0  0  0  0  0  0
   57.5550   31.7160   44.7190 C   0  0  0  0  0  0  0  0  0  0  0  0
   57.9170   32.6970   44.0150 O   0  0  0  0  0  0  0  0  0  0  0  0
   57.9760   31.6020   46.0920 N   0  0  0  0  0  0  0  0  0  0  0  0
   57.6610   30.7490   46.6100 H   0  0  0  0  0  0  0  0  0  0  0  0
   58.8070   32.6000   46.7980 C   0  0  0  0  0  0  0  0  0  0  0  0
   59.0590   32.1470   48.2460 C   0  0  0  0  0  0  0  0  0  0  0  0
   58.6860   31.0030   48.6110 O   0  0  0  0  0  0  0  0  0  0  0  0
   59.7870   32.9420   49.2010 N   0  0  0  0  0  0  0  0  0  0  0  0
   61.0740   32.9770   49.3870 C   0  0  0  0  0  0  0  0  0  0  0  0
   61.6870   34.0770   49.9060 N   0  0  0  0  0  0  0  0  0  0  0  0
   63.0300   34.1280   50.1060 C   0  0  0  0  0  0  0  0  0  0  0  0
   63.4899   35.0357   50.5238 H   0  0  0  0  0  0  0  0  0  0  0  0
   63.8260   33.0280   49.7810 C   0  0  0  0  0  0  0  0  0  0  0  0
   65.5600   33.0830   50.0320 Cl  0  0  0  0  0  0  0  0  0  0  0  0
   63.2230   31.8810   49.2590 C   0  0  0  0  0  0  0  0  0  0  0  0
   63.8358   31.0043   49.0022 H   0  0  0  0  0  0  0  0  0  0  0  0
   61.8410   31.8500   49.0640 C   0  0  0  0  0  0  0  0  0  0  0  0
   61.3582   30.9480   48.6600 H   0  0  0  0  0  0  0  0  0  0  0  0
   60.1660   32.7380   46.0440 C   0  0  0  0  0  0  0  0  0  0  0  0
   60.7587   31.8299   46.2283 H   0  0  0  0  0  0  0  0  0  0  0  0
   59.9289   32.8769   44.9789 H   0  0  0  0  0  0  0  0  0  0  0  0
   60.9940   33.9520   46.4790 C   0  0  0  0  0  0  0  0  0  0  0  0
   61.2667   33.8412   47.5389 H   0  0  0  0  0  0  0  0  0  0  0  0
   61.8977   34.0041   45.8540 H   0  0  0  0  0  0  0  0  0  0  0  0
   60.2000   35.2440   46.2990 C   0  0  0  0  0  0  0  0  0  0  0  0
   60.8088   36.0928   46.6437 H   0  0  0  0  0  0  0  0  0  0  0  0
   59.9509   35.3601   45.2339 H   0  0  0  0  0  0  0  0  0  0  0  0
   58.9030   35.1980   47.1040 C   0  0  0  0  0  0  0  0  0  0  0  0
   59.1501   35.1616   48.1753 H   0  0  0  0  0  0  0  0  0  0  0  0
   58.3192   36.0986   46.8630 H   0  0  0  0  0  0  0  0  0  0  0  0
   58.0510   33.9660   46.7470 C   0  0  0  0  0  0  0  0  0  0  0  0
   57.2101   33.9167   47.4544 H   0  0  0  0  0  0  0  0  0  0  0  0
   57.7368   34.1033   45.7018 H   0  0  0  0  0  0  0  0  0  0  0  0
   58.1600   28.8330   44.9810 C   0  0  0  0  0  0  0  0  0  0  0  0
   59.4310   29.3520   44.7180 C   0  0  0  0  0  0  0  0  0  0  0  0
   59.5559   30.3251   44.2205 H   0  0  0  0  0  0  0  0  0  0  0  0
   60.5450   28.5880   45.1110 C   0  0  0  0  0  0  0  0  0  0  0  0
   61.5607   28.9636   44.9178 H   0  0  0  0  0  0  0  0  0  0  0  0
   60.3680   27.3420   45.7520 C   0  0  0  0  0  0  0  0  0  0  0  0
   61.2474   26.7549   46.0554 H   0  0  0  0  0  0  0  0  0  0  0  0
   59.0750   26.8450   46.0060 C   0  0  0  0  0  0  0  0  0  0  0  0
   58.9259   25.8759   46.5046 H   0  0  0  0  0  0  0  0  0  0  0  0
   57.9880   27.6250   45.6030 C   0  0  0  0  0  0  0  0  0  0  0  0
  1  2  1  0
  2  3  1  0
  3  4  2  0
  3  5  1  0
  5  6  2  0
  6  7  1  0
  7  8  1  0
  8  9  1  0
  8 10  1  0
  8 11  1  0
 11 12  2  0
 11 13  1  0
 13 14  1  0
 13 15  1  0
 15 16  1  0
 16 17  2  0
 16 18  1  0
 18 19  2  0
 19 20  1  0
 20 21  1  0
 21 22  1  0
 21 23  2  0
 23 24  1  0
 23 25  1  0
 25 26  1  0
 25 27  2  0
 27 28  1  0
 15 29  1  0
 29 30  1  0
 29 31  1  0
 29 32  1  0
 32 33  1  0
 32 34  1  0
 32 35  1  0
 35 36  1  0
 35 37  1  0
 35 38  1  0
 38 39  1  0
 38 40  1  0
 38 41  1  0
 41 42  1  0
 41 43  1  0
  7 44  1  0
 44 45  2  0
 45 46  1  0
 45 47  1  0
 47 48  1  0
 47 49  2  0
 49 50  1  0
 49 51  1  0
 51 52  1  0
 51 53  2  0
 53  5  1  0
 41 15  1  0
 53 44  1  0
 27 19  1  0
M  CHG  2   2  -1  20  -1
M  END
>  <UniqueID>  (54) 
52

>  <SMILES>  (54) 
[NH-]C(=O)c1nn(CC(=O)NC2(C(=O)/N=c3/ccc(Cl)c[n-]3)CCCCC2)c2ccccc12

>  <Energy>  (54) 
99.43312472796606

>  <Genealogy>  (54) 
[NH-]C(=O)c1nn(CC(=O)NC2(C(=O)N=c3ccc(Cl)c[n-]3)CCCCC2)c2ccccc12 (protonated)
[NH-]C(=O)c1nn(CC(=O)NC2(C(=O)/N=c3/ccc(Cl)c[n-]3)CCCCC2)c2ccccc12 (cis-trans isomerization)
[NH-]C(=O)c1nn(CC(=O)NC2(C(=O)/N=c3/ccc(Cl)c[n-]3)CCCCC2)c2ccccc12 (3D coordinates assigned)
[NH-]C(=O)c1nn(CC(=O)NC2(C(=O)/N=c3/ccc(Cl)c[n-]3)CCCCC2)c2ccccc12 (nonaromatic ring conformer: 99.43312472796606 kcal/mol)

>  <smiles>  (54) 
NC(=O)c1nn(CC(=O)NC2(C(=O)N=c3ccc(Cl)c[nH]3)CCCCC2)c2ccccc12

>  <score_type>  (54) 
oracle

>  <origin>  (54) 
adg

>  <m_score__min__energy>  (54) 
-13.449999999999999

>  <m_primary>  (54) 
energy

$$$$
54:0
     RDKit          3D

 46 50  0  0  0  0  0  0  0  0999 V2000
   53.9210   29.1820   51.7470 O   0  0  0  0  0  0  0  0  0  0  0  0
   54.2560   30.2880   52.2500 C   0  0  0  0  0  0  0  0  0  0  0  0
   53.2470   31.3860   52.3580 C   0  0  0  0  0  0  0  0  0  0  0  0
   52.3590   31.3920   51.1540 C   0  0  0  0  0  0  0  0  0  0  0  0
   52.3750   30.4470   50.1980 N   0  0  0  0  0  0  0  0  0  0  0  0
   51.3960   30.8410   49.3550 C   0  0  0  0  0  0  0  0  0  0  0  0
   51.1040   30.2050   48.3090 O   0  0  0  0  0  0  0  0  0  0  0  0
   50.7520   31.9720   49.7210 N   0  0  0  0  0  0  0  0  0  0  0  0
   51.3710   32.3030   50.8660 C   0  0  0  0  0  0  0  0  0  0  0  0
   51.0390   33.4130   51.6320 O   0  0  0  0  0  0  0  0  0  0  0  0
   55.5620   30.4750   52.8090 N   0  0  0  0  0  0  0  0  0  0  0  0
   56.6660   31.1590   52.1990 C   0  0  0  0  0  0  0  0  0  0  0  0
   57.1160   32.4070   52.6620 C   0  0  0  0  0  0  0  0  0  0  0  0
   58.2090   33.0290   52.0530 C   0  0  0  0  0  0  0  0  0  0  0  0
   58.8680   32.4090   50.9900 C   0  0  0  0  0  0  0  0  0  0  0  0
   58.4480   31.1500   50.5280 C   0  0  0  0  0  0  0  0  0  0  0  0
   59.1550   30.4830   49.4040 C   0  0  0  0  0  0  0  0  0  0  0  0
   60.3860   30.9800   48.9410 C   0  0  0  0  0  0  0  0  0  0  0  0
   61.0510   30.3490   47.8870 C   0  0  0  0  0  0  0  0  0  0  0  0
   60.4990   29.2180   47.2830 C   0  0  0  0  0  0  0  0  0  0  0  0
   59.2700   28.7030   47.7280 C   0  0  0  0  0  0  0  0  0  0  0  0
   58.6840   27.5030   47.0900 C   0  0  0  0  0  0  0  0  0  0  0  0
   57.3770   27.4290   46.7150 N   0  0  0  0  0  0  0  0  0  0  0  0
   57.2900   26.1960   46.1970 C   0  0  0  0  0  0  0  0  0  0  0  0
   56.1670   25.5780   45.6500 C   0  0  0  0  0  0  0  0  0  0  0  0
   56.3160   24.2650   45.1630 C   0  0  0  0  0  0  0  0  0  0  0  0
   55.2540   23.6230   44.6200 F   0  0  0  0  0  0  0  0  0  0  0  0
   57.5700   23.6140   45.2370 C   0  0  0  0  0  0  0  0  0  0  0  0
   58.6820   24.2710   45.7970 C   0  0  0  0  0  0  0  0  0  0  0  0
   58.4950   25.5690   46.2660 C   0  0  0  0  0  0  0  0  0  0  0  0
   59.4030   26.3780   46.8300 N   0  0  0  0  0  0  0  0  0  0  0  0
   58.6040   29.3430   48.7900 C   0  0  0  0  0  0  0  0  0  0  0  0
   57.3460   30.5310   51.1480 C   0  0  0  0  0  0  0  0  0  0  0  0
   52.6360   31.2306   53.2594 H   0  0  0  0  0  0  0  0  0  0  0  0
   53.7718   32.3507   52.4217 H   0  0  0  0  0  0  0  0  0  0  0  0
   56.6067   32.8954   53.5058 H   0  0  0  0  0  0  0  0  0  0  0  0
   58.5513   34.0106   52.4125 H   0  0  0  0  0  0  0  0  0  0  0  0
   59.7222   32.9095   50.5105 H   0  0  0  0  0  0  0  0  0  0  0  0
   60.8279   31.8707   49.4114 H   0  0  0  0  0  0  0  0  0  0  0  0
   62.0137   30.7450   47.5315 H   0  0  0  0  0  0  0  0  0  0  0  0
   61.0294   28.7271   46.4537 H   0  0  0  0  0  0  0  0  0  0  0  0
   55.1986   26.0973   45.6004 H   0  0  0  0  0  0  0  0  0  0  0  0
   57.6767   22.5881   44.8546 H   0  0  0  0  0  0  0  0  0  0  0  0
   59.6628   23.7772   45.8618 H   0  0  0  0  0  0  0  0  0  0  0  0
   57.6408   28.9471   49.1444 H   0  0  0  0  0  0  0  0  0  0  0  0
   57.0146   29.5407   50.8023 H   0  0  0  0  0  0  0  0  0  0  0  0
  1  2  2  0
  2  3  1  0
  3  4  1  0
  4  5  1  0
  5  6  1  0
  6  7  2  0
  6  8  1  0
  8  9  1  0
  9 10  1  0
  2 11  1  0
 11 12  1  0
 12 13  2  0
 13 14  1  0
 14 15  2  0
 15 16  1  0
 16 17  1  0
 17 18  2  0
 18 19  1  0
 19 20  2  0
 20 21  1  0
 21 22  1  0
 22 23  2  0
 23 24  1  0
 24 25  2  0
 25 26  1  0
 26 27  1  0
 26 28  2  0
 28 29  1  0
 29 30  2  0
 30 31  1  0
 21 32  2  0
 16 33  2  0
  9  4  2  0
 33 12  1  0
 32 17  1  0
 31 22  1  0
 30 24  1  0
  3 34  1  0
  3 35  1  0
 13 36  1  0
 14 37  1  0
 15 38  1  0
 18 39  1  0
 19 40  1  0
 20 41  1  0
 25 42  1  0
 28 43  1  0
 29 44  1  0
 32 45  1  0
 33 46  1  0
M  CHG  5   5  -1   8  -1  10  -1  11  -1  31  -1
M  END
>  <UniqueID>  (55) 
53

>  <SMILES>  (55) 
O=C(Cc1[n-]c(=O)[n-]c1[O-])[N-]c1cccc(-c2cccc(-c3nc4cc(F)ccc4[n-]3)c2)c1

>  <Energy>  (55) 
124.12280538145322

>  <Genealogy>  (55) 
O=C(Cc1[n-]c(=O)[n-]c1[O-])[N-]c1cccc(-c2cccc(-c3nc4cc(F)ccc4[n-]3)c2)c1 (protonated)
O=C(Cc1[n-]c(=O)[n-]c1[O-])[N-]c1cccc(-c2cccc(-c3nc4cc(F)ccc4[n-]3)c2)c1 (3D coordinates assigned)
O=C(Cc1[n-]c(=O)[n-]c1[O-])[N-]c1cccc(-c2cccc(-c3nc4cc(F)ccc4[n-]3)c2)c1 (optimized conformer: 124.12280538145322 kcal/mol)

>  <smiles>  (55) 
O=C(Cc1[nH]c(=O)[nH]c1O)Nc1cccc(-c2cccc(-c3nc4cc(F)ccc4[nH]3)c2)c1

>  <score_type>  (55) 
oracle

>  <origin>  (55) 
adg

>  <m_score__min__energy>  (55) 
-21.460000000000001

>  <m_primary>  (55) 
energy

$$$$
55:0
     RDKit          3D

 45 48  0  0  0  0  0  0  0  0999 V2000
   55.3460   21.4440   45.9980 C   0  0  0  0  0  0  0  0  0  0  0  0
   55.3620   22.9170   45.9860 N   0  0  0  0  0  0  0  0  0  0  0  0
   54.3150   23.6130   45.4360 C   0  0  0  0  0  0  0  0  0  0  0  0
   53.3380   23.0070   44.9190 O   0  0  0  0  0  0  0  0  0  0  0  0
   54.3190   24.9690   45.4370 N   0  0  0  0  0  0  0  0  0  0  0  0
   55.3290   25.6770   45.9960 C   0  0  0  0  0  0  0  0  0  0  0  0
   55.3030   27.0650   45.9290 O   0  0  0  0  0  0  0  0  0  0  0  0
   56.3860   25.0040   46.6230 C   0  0  0  0  0  0  0  0  0  0  0  0
   57.5060   25.7380   47.2560 C   0  0  0  0  0  0  0  0  0  0  0  0
   58.6320   26.1110   46.6270 C   0  0  0  0  0  0  0  0  0  0  0  0
   59.2990   27.4250   46.7770 C   0  0  0  0  0  0  0  0  0  0  0  0
   59.1860   28.1820   47.9570 C   0  0  0  0  0  0  0  0  0  0  0  0
   59.8440   29.4080   48.0750 C   0  0  0  0  0  0  0  0  0  0  0  0
   60.6380   29.8910   47.0240 C   0  0  0  0  0  0  0  0  0  0  0  0
   61.3790   31.1930   47.1700 C   0  0  0  0  0  0  0  0  0  0  0  0
   60.4310   32.3480   47.0300 C   0  0  0  0  0  0  0  0  0  0  0  0
   60.5830   33.6250   47.5550 C   0  0  0  0  0  0  0  0  0  0  0  0
   61.6320   34.0200   48.3770 O   0  0  0  0  0  0  0  0  0  0  0  0
   59.5880   34.4610   47.1710 N   0  0  0  0  0  0  0  0  0  0  0  0
   58.8060   33.6970   46.3850 C   0  0  0  0  0  0  0  0  0  0  0  0
   57.6460   34.1020   45.7260 C   0  0  0  0  0  0  0  0  0  0  0  0
   56.9710   33.1570   44.9320 C   0  0  0  0  0  0  0  0  0  0  0  0
   57.4650   31.8380   44.8150 C   0  0  0  0  0  0  0  0  0  0  0  0
   56.5360   30.5680   43.7330 Br  0  0  0  0  0  0  0  0  0  0  0  0
   58.6370   31.4560   45.4900 C   0  0  0  0  0  0  0  0  0  0  0  0
   59.2850   32.4150   46.2690 C   0  0  0  0  0  0  0  0  0  0  0  0
   60.7830   29.1180   45.8610 C   0  0  0  0  0  0  0  0  0  0  0  0
   60.1240   27.8920   45.7430 C   0  0  0  0  0  0  0  0  0  0  0  0
   56.3870   23.5990   46.5930 C   0  0  0  0  0  0  0  0  0  0  0  0
   57.3340   22.9680   47.1420 O   0  0  0  0  0  0  0  0  0  0  0  0
   55.3421   21.0858   47.0380 H   0  0  0  0  0  0  0  0  0  0  0  0
   54.4439   21.0829   45.4825 H   0  0  0  0  0  0  0  0  0  0  0  0
   56.2401   21.0634   45.4825 H   0  0  0  0  0  0  0  0  0  0  0  0
   57.4080   25.9968   48.3206 H   0  0  0  0  0  0  0  0  0  0  0  0
   59.0963   25.3826   45.9459 H   0  0  0  0  0  0  0  0  0  0  0  0
   58.5759   27.8062   48.7916 H   0  0  0  0  0  0  0  0  0  0  0  0
   59.7392   29.9984   48.9972 H   0  0  0  0  0  0  0  0  0  0  0  0
   61.8543   31.2313   48.1613 H   0  0  0  0  0  0  0  0  0  0  0  0
   62.1448   31.2601   46.3832 H   0  0  0  0  0  0  0  0  0  0  0  0
   61.8290   33.5230   49.2370 H   0  0  0  0  0  0  0  0  0  0  0  0
   57.2694   35.1309   45.8241 H   0  0  0  0  0  0  0  0  0  0  0  0
   56.0533   33.4464   44.3991 H   0  0  0  0  0  0  0  0  0  0  0  0
   59.0312   30.4325   45.4067 H   0  0  0  0  0  0  0  0  0  0  0  0
   61.4184   29.4794   45.0390 H   0  0  0  0  0  0  0  0  0  0  0  0
   60.2529   27.2883   44.8325 H   0  0  0  0  0  0  0  0  0  0  0  0
  1  2  1  0
  2  3  1  0
  3  4  2  0
  3  5  1  0
  5  6  1  0
  6  7  1  0
  6  8  2  0
  8  9  1  0
  9 10  2  3
 10 11  1  0
 11 12  2  0
 12 13  1  0
 13 14  2  0
 14 15  1  0
 15 16  1  0
 16 17  2  0
 17 18  1  0
 17 19  1  0
 19 20  1  0
 20 21  2  0
 21 22  1  0
 22 23  2  0
 23 24  1  0
 23 25  1  0
 25 26  2  0
 14 27  1  0
 27 28  2  0
  8 29  1  0
 29 30  2  0
 29  2  1  0
 28 11  1  0
 26 16  1  0
 26 20  1  0
  1 31  1  0
  1 32  1  0
  1 33  1  0
  9 34  1  0
 10 35  1  0
 12 36  1  0
 13 37  1  0
 15 38  1  0
 15 39  1  0
 18 40  1  0
 21 41  1  0
 22 42  1  0
 25 43  1  0
 27 44  1  0
 28 45  1  0
M  CHG  3   5  -1   7  -1  19  -1
M  END
>  <UniqueID>  (56) 
54

>  <SMILES>  (56) 
Cn1c(=O)[n-]c([O-])c(C=Cc2ccc(Cc3c(O)[n-]c4ccc(Br)cc34)cc2)c1=O

>  <Energy>  (56) 
95.28325551197152

>  <Genealogy>  (56) 
Cn1c(=O)[n-]c([O-])c(C=Cc2ccc(Cc3c(O)[n-]c4ccc(Br)cc34)cc2)c1=O (protonated)
Cn1c(=O)[n-]c([O-])c(C=Cc2ccc(Cc3c(O)[n-]c4ccc(Br)cc34)cc2)c1=O (3D coordinates assigned)
Cn1c(=O)[n-]c([O-])c(C=Cc2ccc(Cc3c(O)[n-]c4ccc(Br)cc34)cc2)c1=O (optimized conformer: 95.28325551197152 kcal/mol)

>  <smiles>  (56) 
Cn1c(=O)[nH]c(O)c(C=Cc2ccc(Cc3c(O)[nH]c4ccc(Br)cc34)cc2)c1=O

>  <score_type>  (56) 
oracle

>  <origin>  (56) 
adg

>  <m_score__min__energy>  (56) 
-15.23

>  <m_primary>  (56) 
energy

$$$$
56:0
     RDKit          3D

 55 58  0  0  0  0  0  0  0  0999 V2000
   56.0760   28.4230   45.2260 N   0  0  0  0  0  0  0  0  0  0  0  0
   56.5320   29.8870   44.4300 S   0  0  0  0  0  0  0  0  0  0  0  0
   55.3260   30.7790   44.3330 O   0  0  0  0  0  0  0  0  0  0  0  0
   57.0140   29.5770   43.0410 O   0  0  0  0  0  0  0  0  0  0  0  0
   57.8190   30.6910   45.3430 C   0  0  0  0  0  0  0  0  0  0  0  0
   57.9030   32.0930   45.3240 C   0  0  0  0  0  0  0  0  0  0  0  0
   58.9060   32.7540   46.0360 C   0  0  0  0  0  0  0  0  0  0  0  0
   59.8360   32.0240   46.7770 C   0  0  0  0  0  0  0  0  0  0  0  0
   59.7650   30.6300   46.8070 C   0  0  0  0  0  0  0  0  0  0  0  0
   58.7640   29.9530   46.0950 C   0  0  0  0  0  0  0  0  0  0  0  0
   58.7290   28.4800   46.1570 C   0  0  0  0  0  0  0  0  0  0  0  0
   58.5050   27.8550   47.3920 C   0  0  0  0  0  0  0  0  0  0  0  0
   58.4770   26.4610   47.4830 C   0  0  0  0  0  0  0  0  0  0  0  0
   58.6940   25.6760   46.3470 C   0  0  0  0  0  0  0  0  0  0  0  0
   58.6480   24.2490   46.4710 N   0  0  0  0  0  0  0  0  0  0  0  0
   58.8860   23.3160   45.4120 C   0  0  0  0  0  0  0  0  0  0  0  0
   59.8890   22.5590   45.4870 O   0  0  0  0  0  0  0  0  0  0  0  0
   57.9800   23.2060   44.2040 C   0  0  1  0  0  0  0  0  0  0  0  0
   57.6150   21.7980   43.7460 C   0  0  0  0  0  0  0  0  0  0  0  0
   56.3530   21.9950   42.9210 C   0  0  0  0  0  0  0  0  0  0  0  0
   55.8530   23.4020   43.2540 C   0  0  0  0  0  0  0  0  0  0  0  0
   56.7100   23.9510   44.3170 N   0  0  0  0  0  0  0  0  0  0  0  0
   56.0420   24.0130   45.6510 C   0  0  0  0  0  0  0  0  0  0  0  0
   54.5890   23.5480   45.7010 C   0  0  0  0  0  0  0  0  0  0  0  0
   53.5650   24.4120   45.2640 C   0  0  0  0  0  0  0  0  0  0  0  0
   52.2310   24.0010   45.2620 C   0  0  0  0  0  0  0  0  0  0  0  0
   51.8880   22.7370   45.7370 C   0  0  0  0  0  0  0  0  0  0  0  0
   52.8740   21.8990   46.2560 C   0  0  0  0  0  0  0  0  0  0  0  0
   54.2150   22.3020   46.2700 C   0  0  0  0  0  0  0  0  0  0  0  0
   55.3590   21.2430   47.0920 Cl  0  0  0  0  0  0  0  0  0  0  0  0
   58.9080   26.2970   45.1060 C   0  0  0  0  0  0  0  0  0  0  0  0
   58.9370   27.6920   45.0050 C   0  0  0  0  0  0  0  0  0  0  0  0
   59.1710   28.2670   43.7550 O   0  0  0  0  0  0  0  0  0  0  0  0
   55.1420   28.5920   45.6630 H   0  0  0  0  0  0  0  0  0  0  0  0
   57.1724   32.6752   44.7433 H   0  0  0  0  0  0  0  0  0  0  0  0
   58.9630   33.8523   46.0127 H   0  0  0  0  0  0  0  0  0  0  0  0
   60.6250   32.5468   47.3375 H   0  0  0  0  0  0  0  0  0  0  0  0
   60.4995   30.0584   47.3933 H   0  0  0  0  0  0  0  0  0  0  0  0
   58.3505   28.4654   48.2940 H   0  0  0  0  0  0  0  0  0  0  0  0
   58.2834   25.9793   48.4528 H   0  0  0  0  0  0  0  0  0  0  0  0
   58.6385   23.6610   43.4494 H   0  0  0  0  0  0  0  0  0  0  0  0
   58.4194   21.3655   43.1329 H   0  0  0  0  0  0  0  0  0  0  0  0
   57.4671   21.1043   44.5868 H   0  0  0  0  0  0  0  0  0  0  0  0
   56.5802   21.9132   41.8478 H   0  0  0  0  0  0  0  0  0  0  0  0
   55.5956   21.2311   43.1509 H   0  0  0  0  0  0  0  0  0  0  0  0
   55.9123   24.0403   42.3601 H   0  0  0  0  0  0  0  0  0  0  0  0
   54.8059   23.3655   43.5889 H   0  0  0  0  0  0  0  0  0  0  0  0
   56.6194   23.3842   46.3447 H   0  0  0  0  0  0  0  0  0  0  0  0
   56.0184   25.0798   45.9183 H   0  0  0  0  0  0  0  0  0  0  0  0
   53.8206   25.4249   44.9195 H   0  0  0  0  0  0  0  0  0  0  0  0
   51.4491   24.6764   44.8847 H   0  0  0  0  0  0  0  0  0  0  0  0
   50.8412   22.4008   45.7026 H   0  0  0  0  0  0  0  0  0  0  0  0
   52.5963   20.9133   46.6577 H   0  0  0  0  0  0  0  0  0  0  0  0
   59.0540   25.6817   44.2060 H   0  0  0  0  0  0  0  0  0  0  0  0
   58.5110   28.8920   43.3080 H   0  0  0  0  0  0  0  0  0  0  0  0
  1  2  1  0
  2  3  2  0
  2  4  2  0
  2  5  1  0
  5  6  2  0
  6  7  1  0
  7  8  2  0
  8  9  1  0
  9 10  2  0
 10 11  1  0
 11 12  2  0
 12 13  1  0
 13 14  2  0
 14 15  1  0
 15 16  1  0
 16 17  2  0
 16 18  1  0
 18 19  1  0
 19 20  1  0
 20 21  1  0
 21 22  1  0
 22 23  1  0
 23 24  1  0
 24 25  2  0
 25 26  1  0
 26 27  2  0
 27 28  1  0
 28 29  2  0
 29 30  1  0
 14 31  1  0
 31 32  2  0
 32 33  1  0
 10  5  1  0
 32 11  1  0
 22 18  1  0
 29 24  1  0
  1 34  1  0
  6 35  1  0
  7 36  1  0
  8 37  1  0
  9 38  1  0
 12 39  1  0
 13 40  1  0
 18 41  1  6
 19 42  1  0
 19 43  1  0
 20 44  1  0
 20 45  1  0
 21 46  1  0
 21 47  1  0
 23 48  1  0
 23 49  1  0
 25 50  1  0
 26 51  1  0
 27 52  1  0
 28 53  1  0
 31 54  1  0
 33 55  1  0
M  CHG  2   1  -1  15  -1
M  END
>  <UniqueID>  (57) 
55

>  <SMILES>  (57) 
[NH-]S(=O)(=O)c1ccccc1-c1ccc([N-]C(=O)[C@H]2CCCN2Cc2ccccc2Cl)cc1O

>  <Energy>  (57) 
91.09191404619911

>  <Genealogy>  (57) 
[NH-]S(=O)(=O)c1ccccc1-c1ccc([N-]C(=O)C2CCCN2Cc2ccccc2Cl)cc1O (protonated)
[NH-]S(=O)(=O)c1ccccc1-c1ccc([N-]C(=O)[C@H]2CCCN2Cc2ccccc2Cl)cc1O (chirality)
[NH-]S(=O)(=O)c1ccccc1-c1ccc([N-]C(=O)[C@H]2CCCN2Cc2ccccc2Cl)cc1O (3D coordinates assigned)
[NH-]S(=O)(=O)c1ccccc1-c1ccc([N-]C(=O)[C@H]2CCCN2Cc2ccccc2Cl)cc1O (nonaromatic ring conformer: 91.09191404619911 kcal/mol)

>  <smiles>  (57) 
NS(=O)(=O)c1ccccc1-c1ccc(NC(=O)C2CCCN2Cc2ccccc2Cl)cc1O

>  <score_type>  (57) 
oracle

>  <origin>  (57) 
adg

>  <m_score__min__energy>  (57) 
-13.57

>  <m_primary>  (57) 
energy

$$$$
57:0
     RDKit          3D

 23 23  0  0  0  0  0  0  0  0999 V2000
   55.2120   29.1300   44.8260 O   0  0  0  0  0  0  0  0  0  0  0  0
   56.4190   28.9960   45.1570 C   0  0  0  0  0  0  0  0  0  0  0  0
   56.9010   27.6380   45.5730 C   0  0  0  0  0  0  0  0  0  0  0  0
   55.5130   26.6090   45.9960 S   0  0  0  0  0  0  0  0  0  0  0  0
   57.3570   30.1460   45.0930 C   0  0  0  0  0  0  0  0  0  0  0  0
   58.5930   29.9290   45.1990 O   0  0  0  0  0  0  0  0  0  0  0  0
   56.9230   31.5020   44.9170 N   0  0  0  0  0  0  0  0  0  0  0  0
   57.6790   32.5790   44.2920 C   0  0  0  0  0  0  0  0  0  0  0  0
   58.3220   33.4170   45.3590 C   0  0  0  0  0  0  0  0  0  0  0  0
   58.2560   33.0240   46.7050 C   0  0  0  0  0  0  0  0  0  0  0  0
   58.8840   33.7870   47.6940 C   0  0  0  0  0  0  0  0  0  0  0  0
   59.5930   34.9410   47.3440 C   0  0  0  0  0  0  0  0  0  0  0  0
   59.6770   35.3290   46.0040 C   0  0  0  0  0  0  0  0  0  0  0  0
   59.0490   34.5690   45.0130 C   0  0  0  0  0  0  0  0  0  0  0  0
   57.4571   27.1778   44.7429 H   0  0  0  0  0  0  0  0  0  0  0  0
   57.5586   27.7388   46.4491 H   0  0  0  0  0  0  0  0  0  0  0  0
   58.4565   32.1527   43.6411 H   0  0  0  0  0  0  0  0  0  0  0  0
   57.0024   33.2036   43.6903 H   0  0  0  0  0  0  0  0  0  0  0  0
   57.7078   32.1117   46.9828 H   0  0  0  0  0  0  0  0  0  0  0  0
   58.8205   33.4796   48.7483 H   0  0  0  0  0  0  0  0  0  0  0  0
   60.0841   35.5427   48.1230 H   0  0  0  0  0  0  0  0  0  0  0  0
   60.2383   36.2341   45.7286 H   0  0  0  0  0  0  0  0  0  0  0  0
   59.1241   34.8736   43.9587 H   0  0  0  0  0  0  0  0  0  0  0  0
  1  2  2  0
  2  3  1  0
  3  4  1  0
  2  5  1  0
  5  6  2  0
  5  7  1  0
  7  8  1  0
  8  9  1  0
  9 10  2  0
 10 11  1  0
 11 12  2  0
 12 13  1  0
 13 14  2  0
 14  9  1  0
  3 15  1  0
  3 16  1  0
  8 17  1  0
  8 18  1  0
 10 19  1  0
 11 20  1  0
 12 21  1  0
 13 22  1  0
 14 23  1  0
M  CHG  2   4  -1   7  -1
M  END
>  <UniqueID>  (58) 
56

>  <SMILES>  (58) 
O=C(C[S-])C(=O)[N-]Cc1ccccc1

>  <Energy>  (58) 
18.896529457423572

>  <Genealogy>  (58) 
O=C(C[S-])C(=O)[N-]Cc1ccccc1 (protonated)
O=C(C[S-])C(=O)[N-]Cc1ccccc1 (3D coordinates assigned)
O=C(C[S-])C(=O)[N-]Cc1ccccc1 (optimized conformer: 18.896529457423572 kcal/mol)

>  <smiles>  (58) 
O=C(CS)C(=O)NCc1ccccc1

>  <score_type>  (58) 
oracle

>  <origin>  (58) 
adg

>  <m_score__min__energy>  (58) 
-9.3300000000000001

>  <m_primary>  (58) 
energy

$$$$
58:0
     RDKit          3D

 36 38  0  0  0  0  0  0  0  0999 V2000
   63.7630   34.5070   46.8830 O   0  0  0  0  0  0  0  0  0  0  0  0
   63.2750   33.3290   47.1650 C   0  0  0  0  0  0  0  0  0  0  0  0
   63.6710   32.1170   47.0460 N   0  0  0  0  0  0  0  0  0  0  0  0
   62.8280   31.2250   47.4760 N   0  0  0  0  0  0  0  0  0  0  0  0
   61.8060   31.2910   47.9380 C   0  0  0  0  0  0  0  0  0  0  0  0
   60.4460   30.3000   48.6080 S   0  0  0  0  0  0  0  0  0  0  0  0
   60.4040   28.6960   47.7460 C   0  0  0  0  0  0  0  0  0  0  0  0
   59.2260   28.5910   46.8600 C   0  0  0  0  0  0  0  0  0  0  0  0
   58.6690   27.3780   46.5790 C   0  0  0  0  0  0  0  0  0  0  0  0
   57.5780   27.3280   45.7520 C   0  0  0  0  0  0  0  0  0  0  0  0
   57.0450   28.4650   45.2100 C   0  0  0  0  0  0  0  0  0  0  0  0
   57.5930   29.7420   45.4760 C   0  0  0  0  0  0  0  0  0  0  0  0
   56.9810   30.7830   44.8850 O   0  0  0  0  0  0  0  0  0  0  0  0
   57.3700   31.9550   44.2820 C   0  0  0  0  0  0  0  0  0  0  0  0
   57.9930   32.9810   45.1450 C   0  0  0  0  0  0  0  0  0  0  0  0
   57.8630   33.0950   46.4910 C   0  0  0  0  0  0  0  0  0  0  0  0
   58.4740   34.0650   47.2540 C   0  0  0  0  0  0  0  0  0  0  0  0
   59.2780   34.9980   46.6230 C   0  0  0  0  0  0  0  0  0  0  0  0
   59.4370   34.9190   45.2550 C   0  0  0  0  0  0  0  0  0  0  0  0
   58.8090   33.9280   44.5100 C   0  0  0  0  0  0  0  0  0  0  0  0
   58.6760   29.7420   46.3030 C   0  0  0  0  0  0  0  0  0  0  0  0
   61.5760   33.2100   47.9460 S   0  0  0  0  0  0  0  0  0  0  0  0
   64.6160   31.8310   46.6290 H   0  0  0  0  0  0  0  0  0  0  0  0
   61.3170   28.5904   47.1416 H   0  0  0  0  0  0  0  0  0  0  0  0
   60.3415   27.8986   48.5011 H   0  0  0  0  0  0  0  0  0  0  0  0
   59.0884   26.4564   47.0088 H   0  0  0  0  0  0  0  0  0  0  0  0
   57.1218   26.3545   45.5193 H   0  0  0  0  0  0  0  0  0  0  0  0
   56.1682   28.3846   44.5507 H   0  0  0  0  0  0  0  0  0  0  0  0
   58.0951   31.6985   43.4956 H   0  0  0  0  0  0  0  0  0  0  0  0
   56.4371   32.4136   43.9222 H   0  0  0  0  0  0  0  0  0  0  0  0
   57.2259   32.3624   47.0080 H   0  0  0  0  0  0  0  0  0  0  0  0
   58.3259   34.0976   48.3435 H   0  0  0  0  0  0  0  0  0  0  0  0
   59.7806   35.7874   47.2011 H   0  0  0  0  0  0  0  0  0  0  0  0
   60.0739   35.6555   44.7433 H   0  0  0  0  0  0  0  0  0  0  0  0
   58.9524   33.8865   43.4202 H   0  0  0  0  0  0  0  0  0  0  0  0
   59.1430   30.7082   46.5446 H   0  0  0  0  0  0  0  0  0  0  0  0
  1  2  2  0
  2  3  1  0
  3  4  1  0
  4  5  2  0
  5  6  1  0
  6  7  1  0
  7  8  1  0
  8  9  2  0
  9 10  1  0
 10 11  2  0
 11 12  1  0
 12 13  1  0
 13 14  1  0
 14 15  1  0
 15 16  2  0
 16 17  1  0
 17 18  2  0
 18 19  1  0
 19 20  2  0
 12 21  2  0
  5 22  1  0
 22  2  1  0
 21  8  1  0
 20 15  1  0
  3 23  1  0
  7 24  1  0
  7 25  1  0
  9 26  1  0
 10 27  1  0
 11 28  1  0
 14 29  1  0
 14 30  1  0
 16 31  1  0
 17 32  1  0
 18 33  1  0
 19 34  1  0
 20 35  1  0
 21 36  1  0
M  END
>  <smiles>  (59) 
O=c1[nH]nc(SCc2cccc(OCc3ccccc3)c2)s1

>  <score_type>  (59) 
oracle

>  <origin>  (59) 
adg

>  <m_score__min__energy>  (59) 
-8.5

>  <m_primary>  (59) 
energy

$$$$
59:0
     RDKit          3D

 44 46  0  0  0  0  0  0  0  0999 V2000
   56.9520   30.1040   43.9120 C   0  0  0  0  0  0  0  0  0  0  0  0
   56.7460   30.9430   45.0430 O   0  0  0  0  0  0  0  0  0  0  0  0
   57.5370   32.0590   45.3660 C   0  0  0  0  0  0  0  0  0  0  0  0
   57.4770   33.2480   44.6130 C   0  0  0  0  0  0  0  0  0  0  0  0
   58.2740   34.3430   44.9530 C   0  0  0  0  0  0  0  0  0  0  0  0
   59.1410   34.2660   46.0430 C   0  0  0  0  0  0  0  0  0  0  0  0
   59.2120   33.0950   46.7980 C   0  0  0  0  0  0  0  0  0  0  0  0
   58.4110   31.9860   46.4740 C   0  0  0  0  0  0  0  0  0  0  0  0
   58.5150   30.7390   47.3180 C   0  0  0  0  0  0  0  0  0  0  0  0
   59.3560   29.7390   46.6650 N   0  0  0  0  0  0  0  0  0  0  0  0
   58.9140   28.4620   46.1900 C   0  0  0  0  0  0  0  0  0  0  0  0
   59.4900   27.9600   45.1870 O   0  0  0  0  0  0  0  0  0  0  0  0
   57.8150   27.7000   46.8830 C   0  0  0  0  0  0  0  0  0  0  0  0
   57.5140   26.4510   46.1820 N   0  0  0  0  0  0  0  0  0  0  0  0
   56.2930   26.0040   45.8130 C   0  0  0  0  0  0  0  0  0  0  0  0
   55.1140   26.7190   45.9860 O   0  0  0  0  0  0  0  0  0  0  0  0
   56.3890   24.7440   45.2600 C   0  0  0  0  0  0  0  0  0  0  0  0
   57.7280   24.4150   45.2640 C   0  0  0  0  0  0  0  0  0  0  0  0
   58.3880   25.4700   45.8660 C   0  0  0  0  0  0  0  0  0  0  0  0
   59.7530   25.5310   46.1380 O   0  0  0  0  0  0  0  0  0  0  0  0
   58.2620   23.0850   44.8240 C   0  0  0  0  0  0  0  0  0  0  0  0
   57.2300   22.3590   43.9370 C   0  0  0  0  0  0  0  0  0  0  0  0
   55.8090   22.4270   44.5380 C   0  0  0  0  0  0  0  0  0  0  0  0
   55.3130   23.8810   44.6760 C   0  0  0  0  0  0  0  0  0  0  0  0
   57.2016   29.0875   44.2502 H   0  0  0  0  0  0  0  0  0  0  0  0
   56.0346   30.0739   43.3058 H   0  0  0  0  0  0  0  0  0  0  0  0
   57.7791   30.5022   43.3058 H   0  0  0  0  0  0  0  0  0  0  0  0
   56.7972   33.3144   43.7507 H   0  0  0  0  0  0  0  0  0  0  0  0
   58.2180   35.2679   44.3602 H   0  0  0  0  0  0  0  0  0  0  0  0
   59.7693   35.1293   46.3075 H   0  0  0  0  0  0  0  0  0  0  0  0
   59.9005   33.0389   47.6540 H   0  0  0  0  0  0  0  0  0  0  0  0
   58.9542   30.9987   48.2925 H   0  0  0  0  0  0  0  0  0  0  0  0
   57.5072   30.3189   47.4518 H   0  0  0  0  0  0  0  0  0  0  0  0
   58.1322   27.4675   47.9103 H   0  0  0  0  0  0  0  0  0  0  0  0
   56.9088   28.3235   46.8887 H   0  0  0  0  0  0  0  0  0  0  0  0
   60.2950   26.3580   45.9190 H   0  0  0  0  0  0  0  0  0  0  0  0
   59.1887   23.2378   44.2513 H   0  0  0  0  0  0  0  0  0  0  0  0
   58.4646   22.4696   45.7130 H   0  0  0  0  0  0  0  0  0  0  0  0
   57.2195   22.8312   42.9436 H   0  0  0  0  0  0  0  0  0  0  0  0
   57.5221   21.3007   43.8685 H   0  0  0  0  0  0  0  0  0  0  0  0
   55.1186   21.8763   43.8822 H   0  0  0  0  0  0  0  0  0  0  0  0
   55.8416   21.9806   45.5428 H   0  0  0  0  0  0  0  0  0  0  0  0
   55.0377   24.2663   43.6831 H   0  0  0  0  0  0  0  0  0  0  0  0
   54.4384   23.8990   45.3429 H   0  0  0  0  0  0  0  0  0  0  0  0
  1  2  1  0
  2  3  1  0
  3  4  2  0
  4  5  1  0
  5  6  2  0
  6  7  1  0
  7  8  2  0
  8  9  1  0
  9 10  1  0
 10 11  1  0
 11 12  2  0
 11 13  1  0
 13 14  1  0
 14 15  1  0
 15 16  1  0
 15 17  2  0
 17 18  1  0
 18 19  2  0
 19 20  1  0
 18 21  1  0
 21 22  1  0
 22 23  1  0
 23 24  1  0
  8  3  1  0
 19 14  1  0
 24 17  1  0
  1 25  1  0
  1 26  1  0
  1 27  1  0
  4 28  1  0
  5 29  1  0
  6 30  1  0
  7 31  1  0
  9 32  1  0
  9 33  1  0
 13 34  1  0
 13 35  1  0
 20 36  1  0
 21 37  1  0
 21 38  1  0
 22 39  1  0
 22 40  1  0
 23 41  1  0
 23 42  1  0
 24 43  1  0
 24 44  1  0
M  CHG  2  10  -1  16  -1
M  END
>  <UniqueID>  (60) 
57

>  <SMILES>  (60) 
COc1ccccc1C[N-]C(=O)Cn1c([O-])c2c(c1O)CCCC2

>  <Energy>  (60) 
70.11896149626905

>  <Genealogy>  (60) 
COc1ccccc1C[N-]C(=O)Cn1c([O-])c2c(c1O)CCCC2 (protonated)
COc1ccccc1C[N-]C(=O)Cn1c([O-])c2c(c1O)CCCC2 (3D coordinates assigned)
COc1ccccc1C[N-]C(=O)Cn1c([O-])c2c(c1O)CCCC2 (nonaromatic ring conformer: 70.11896149626905 kcal/mol)

>  <smiles>  (60) 
COc1ccccc1CNC(=O)Cn1c(O)c2c(c1O)CCCC2

>  <score_type>  (60) 
oracle

>  <origin>  (60) 
adg

>  <m_score__min__energy>  (60) 
-11.69

>  <m_primary>  (60) 
energy

$$$$
60:0
     RDKit          3D

 47 49  0  0  0  0  0  0  0  0999 V2000
   61.5730   33.7160   46.7440 C   0  0  0  0  0  0  0  0  0  0  0  0
   60.3710   34.5920   46.4180 C   0  0  0  0  0  0  0  0  0  0  0  0
   59.2080   33.7510   45.9940 C   0  0  0  0  0  0  0  0  0  0  0  0
   57.9590   34.2190   45.6370 C   0  0  0  0  0  0  0  0  0  0  0  0
   57.2260   33.1030   45.2930 C   0  0  0  0  0  0  0  0  0  0  0  0
   58.0810   32.0270   45.4570 C   0  0  0  0  0  0  0  0  0  0  0  0
   57.7510   30.6120   45.2000 C   0  0  0  0  0  0  0  0  0  0  0  0
   56.5700   30.3160   44.8680 O   0  0  0  0  0  0  0  0  0  0  0  0
   58.7840   29.5960   45.2720 N   0  0  0  0  0  0  0  0  0  0  0  0
   58.8690   28.9330   46.5960 C   0  0  0  0  0  0  0  0  0  0  0  0
   57.7890   27.8540   46.8100 C   0  0  0  0  0  0  0  0  0  0  0  0
   57.7680   26.9000   45.6900 N   0  0  0  0  0  0  0  0  0  0  0  0
   56.5060   25.7070   45.9260 S   0  0  0  0  0  0  0  0  0  0  0  0
   55.1760   26.4080   45.9560 O   0  0  0  0  0  0  0  0  0  0  0  0
   56.6990   25.0080   47.2450 O   0  0  0  0  0  0  0  0  0  0  0  0
   56.4440   24.5240   44.6360 N   0  0  0  0  0  0  0  0  0  0  0  0
   57.7440   23.8990   44.3860 C   0  0  0  0  0  0  0  0  0  0  0  0
   57.4570   22.5030   43.8750 C   0  0  0  0  0  0  0  0  0  0  0  0
   56.1500   22.1240   44.5400 C   0  0  0  0  0  0  0  0  0  0  0  0
   55.4720   23.4490   44.8750 C   0  0  0  0  0  0  0  0  0  0  0  0
   57.5250   27.6140   44.4280 C   0  0  0  0  0  0  0  0  0  0  0  0
   58.6530   28.6180   44.1720 C   0  0  0  0  0  0  0  0  0  0  0  0
   59.2540   32.4440   45.8750 O   0  0  0  0  0  0  0  0  0  0  0  0
   61.6830   33.6358   47.8355 H   0  0  0  0  0  0  0  0  0  0  0  0
   61.4232   32.7138   46.3160 H   0  0  0  0  0  0  0  0  0  0  0  0
   62.4812   34.1655   46.3160 H   0  0  0  0  0  0  0  0  0  0  0  0
   60.0924   35.1709   47.3109 H   0  0  0  0  0  0  0  0  0  0  0  0
   60.6384   35.2700   45.5941 H   0  0  0  0  0  0  0  0  0  0  0  0
   57.6192   35.2652   45.6287 H   0  0  0  0  0  0  0  0  0  0  0  0
   56.1788   33.0738   44.9577 H   0  0  0  0  0  0  0  0  0  0  0  0
   59.7020   30.0830   45.1370 H   0  0  0  0  0  0  0  0  0  0  0  0
   59.8578   28.4595   46.6862 H   0  0  0  0  0  0  0  0  0  0  0  0
   58.7089   29.7090   47.3590 H   0  0  0  0  0  0  0  0  0  0  0  0
   58.0034   27.3102   47.7418 H   0  0  0  0  0  0  0  0  0  0  0  0
   56.8075   28.3472   46.8689 H   0  0  0  0  0  0  0  0  0  0  0  0
   58.3030   24.4725   43.6319 H   0  0  0  0  0  0  0  0  0  0  0  0
   58.3549   23.8708   45.3003 H   0  0  0  0  0  0  0  0  0  0  0  0
   57.3519   22.5025   42.7800 H   0  0  0  0  0  0  0  0  0  0  0  0
   58.2672   21.7956   44.1056 H   0  0  0  0  0  0  0  0  0  0  0  0
   55.5251   21.5337   43.8537 H   0  0  0  0  0  0  0  0  0  0  0  0
   56.3089   21.5057   45.4358 H   0  0  0  0  0  0  0  0  0  0  0  0
   54.5909   23.5915   44.2321 H   0  0  0  0  0  0  0  0  0  0  0  0
   55.1409   23.4567   45.9240 H   0  0  0  0  0  0  0  0  0  0  0  0
   57.4864   26.8899   43.6008 H   0  0  0  0  0  0  0  0  0  0  0  0
   56.5685   28.1530   44.4951 H   0  0  0  0  0  0  0  0  0  0  0  0
   59.6007   28.0690   44.0702 H   0  0  0  0  0  0  0  0  0  0  0  0
   58.4129   29.1714   43.2522 H   0  0  0  0  0  0  0  0  0  0  0  0
  1  2  1  0
  2  3  1  0
  3  4  2  0
  4  5  1  0
  5  6  2  0
  6  7  1  0
  7  8  2  0
  7  9  1  0
  9 10  1  0
 10 11  1  0
 11 12  1  0
 12 13  1  0
 13 14  2  0
 13 15  2  0
 13 16  1  0
 16 17  1  0
 17 18  1  0
 18 19  1  0
 19 20  1  0
 12 21  1  0
 21 22  1  0
  6 23  1  0
 23  3  1  0
 22  9  1  0
 20 16  1  0
  1 24  1  0
  1 25  1  0
  1 26  1  0
  2 27  1  0
  2 28  1  0
  4 29  1  0
  5 30  1  0
  9 31  1  0
 10 32  1  0
 10 33  1  0
 11 34  1  0
 11 35  1  0
 17 36  1  0
 17 37  1  0
 18 38  1  0
 18 39  1  0
 19 40  1  0
 19 41  1  0
 20 42  1  0
 20 43  1  0
 21 44  1  0
 21 45  1  0
 22 46  1  0
 22 47  1  0
M  CHG  1   9   1
M  END
>  <UniqueID>  (61) 
58

>  <SMILES>  (61) 
CCc1ccc(C(=O)[NH+]2CCN(S(=O)(=O)N3CCCC3)CC2)o1

>  <Energy>  (61) 
72.94936277873208

>  <Genealogy>  (61) 
CCc1ccc(C(=O)[NH+]2CCN(S(=O)(=O)N3CCCC3)CC2)o1 (protonated)
CCc1ccc(C(=O)[NH+]2CCN(S(=O)(=O)N3CCCC3)CC2)o1 (3D coordinates assigned)
CCc1ccc(C(=O)[NH+]2CCN(S(=O)(=O)N3CCCC3)CC2)o1 (nonaromatic ring conformer: 72.94936277873208 kcal/mol)

>  <smiles>  (61) 
CCc1ccc(C(=O)N2CCN(S(=O)(=O)N3CCCC3)CC2)o1

>  <score_type>  (61) 
oracle

>  <origin>  (61) 
adg

>  <m_score__min__energy>  (61) 
-6.8700000000000001

>  <m_primary>  (61) 
energy

$$$$
61:0
     RDKit          3D

 58 60  0  0  0  0  0  0  0  0999 V2000
   58.6109   28.0549   43.8526 H   0  0  0  0  0  0  0  0  0  0  0  0
   58.7900   28.9440   44.4750 C   0  0  0  0  0  0  0  0  0  0  0  0
   59.9650   29.0460   45.2250 C   0  0  0  0  0  0  0  0  0  0  0  0
   60.7091   28.2365   45.1939 H   0  0  0  0  0  0  0  0  0  0  0  0
   60.1950   30.1770   46.0150 C   0  0  0  0  0  0  0  0  0  0  0  0
   61.1197   30.2548   46.6057 H   0  0  0  0  0  0  0  0  0  0  0  0
   59.2490   31.2130   46.0560 C   0  0  0  0  0  0  0  0  0  0  0  0
   59.4780   32.4030   46.9170 C   0  0  0  0  0  0  0  0  0  0  0  0
   60.0020   32.1750   48.1620 C   0  0  0  0  0  0  0  0  0  0  0  0
   59.1780   31.5750   49.2350 C   0  0  0  0  0  0  0  0  0  0  0  0
   59.3000   30.2110   49.5400 C   0  0  0  0  0  0  0  0  0  0  0  0
   60.0186   29.5872   48.9881 H   0  0  0  0  0  0  0  0  0  0  0  0
   58.5100   29.6430   50.5440 C   0  0  0  0  0  0  0  0  0  0  0  0
   58.6056   28.5727   50.7790 H   0  0  0  0  0  0  0  0  0  0  0  0
   57.5980   30.4350   51.2500 C   0  0  0  0  0  0  0  0  0  0  0  0
   56.8120   29.8690   52.2460 O   0  0  0  0  0  0  0  0  0  0  0  0
   57.4780   31.7960   50.9540 C   0  0  0  0  0  0  0  0  0  0  0  0
   56.7628   32.4185   51.5116 H   0  0  0  0  0  0  0  0  0  0  0  0
   58.2660   32.3670   49.9500 C   0  0  0  0  0  0  0  0  0  0  0  0
   58.1711   33.4385   49.7201 H   0  0  0  0  0  0  0  0  0  0  0  0
   61.3910   32.4750   48.5560 C   0  0  0  0  0  0  0  0  0  0  0  0
   61.6490   33.5200   49.4560 C   0  0  0  0  0  0  0  0  0  0  0  0
   60.8120   34.0743   49.9056 H   0  0  0  0  0  0  0  0  0  0  0  0
   62.9640   33.8600   49.7840 C   0  0  0  0  0  0  0  0  0  0  0  0
   63.1577   34.6642   50.5091 H   0  0  0  0  0  0  0  0  0  0  0  0
   64.0430   33.1760   49.1890 C   0  0  0  0  0  0  0  0  0  0  0  0
   65.3850   33.4700   49.4830 O   0  0  0  0  0  0  0  0  0  0  0  0
   66.3200   32.5710   50.0810 C   0  0  0  0  0  0  0  0  0  0  0  0
   65.7905   31.6647   50.4101 H   0  0  0  0  0  0  0  0  0  0  0  0
   67.0894   32.3133   49.3383 H   0  0  0  0  0  0  0  0  0  0  0  0
   66.9990   33.2250   51.2900 C   0  0  0  0  0  0  0  0  0  0  0  0
   66.8632   32.5806   52.1711 H   0  0  0  0  0  0  0  0  0  0  0  0
   68.0686   33.3507   51.0659 H   0  0  0  0  0  0  0  0  0  0  0  0
   66.4230   34.5400   51.5660 N   0  0  0  0  0  0  0  0  0  0  0  0
   66.5820   34.8000   52.5670 H   0  0  0  0  0  0  0  0  0  0  0  0
   65.3940   34.5080   51.3840 H   0  0  0  0  0  0  0  0  0  0  0  0
   66.8550   35.2590   50.9400 H   0  0  0  0  0  0  0  0  0  0  0  0
   63.7780   32.1700   48.2520 C   0  0  0  0  0  0  0  0  0  0  0  0
   64.6130   31.6416   47.7688 H   0  0  0  0  0  0  0  0  0  0  0  0
   62.4620   31.8310   47.9250 C   0  0  0  0  0  0  0  0  0  0  0  0
   62.2672   31.0557   47.1694 H   0  0  0  0  0  0  0  0  0  0  0  0
   58.9840   33.7810   46.3900 C   0  0  0  0  0  0  0  0  0  0  0  0
   59.6020   34.9720   47.1620 C   0  0  0  0  0  0  0  0  0  0  0  0
   59.5102   34.7950   48.2438 H   0  0  0  0  0  0  0  0  0  0  0  0
   60.6647   35.0700   46.8954 H   0  0  0  0  0  0  0  0  0  0  0  0
   59.0703   35.8973   46.8954 H   0  0  0  0  0  0  0  0  0  0  0  0
   57.4460   33.8510   46.4760 C   0  0  0  0  0  0  0  0  0  0  0  0
   57.1381   33.8650   47.5319 H   0  0  0  0  0  0  0  0  0  0  0  0
   57.0922   34.7662   45.9787 H   0  0  0  0  0  0  0  0  0  0  0  0
   57.0106   32.9717   45.9787 H   0  0  0  0  0  0  0  0  0  0  0  0
   59.3730   33.9760   44.8990 C   0  0  0  0  0  0  0  0  0  0  0  0
   60.3548   34.4682   44.8376 H   0  0  0  0  0  0  0  0  0  0  0  0
   59.4223   32.9961   44.4017 H   0  0  0  0  0  0  0  0  0  0  0  0
   58.6173   34.6019   44.4017 H   0  0  0  0  0  0  0  0  0  0  0  0
   58.0690   31.1030   45.3030 C   0  0  0  0  0  0  0  0  0  0  0  0
   57.3215   31.9095   45.3333 H   0  0  0  0  0  0  0  0  0  0  0  0
   57.8420   29.9710   44.5150 C   0  0  0  0  0  0  0  0  0  0  0  0
   56.9168   29.8881   43.9259 H   0  0  0  0  0  0  0  0  0  0  0  0
  1  2  1  0
  2  3  2  0
  3  4  1  0
  3  5  1  0
  5  6  1  0
  5  7  2  0
  7  8  1  0
  8  9  2  0
  9 10  1  0
 10 11  2  0
 11 12  1  0
 11 13  1  0
 13 14  1  0
 13 15  2  0
 15 16  1  0
 15 17  1  0
 17 18  1  0
 17 19  2  0
 19 20  1  0
  9 21  1  0
 21 22  2  0
 22 23  1  0
 22 24  1  0
 24 25  1  0
 24 26  2  0
 26 27  1  0
 27 28  1  0
 28 29  1  0
 28 30  1  0
 28 31  1  0
 31 32  1  0
 31 33  1  0
 31 34  1  0
 34 35  1  0
 34 36  1  0
 34 37  1  0
 26 38  1  0
 38 39  1  0
 38 40  2  0
 40 41  1  0
  8 42  1  0
 42 43  1  0
 43 44  1  0
 43 45  1  0
 43 46  1  0
 42 47  1  0
 47 48  1  0
 47 49  1  0
 47 50  1  0
 42 51  1  0
 51 52  1  0
 51 53  1  0
 51 54  1  0
  7 55  1  0
 55 56  1  0
 55 57  2  0
 57 58  1  0
 57  2  1  0
 19 10  1  0
 40 21  1  0
M  CHG  2  16  -1  34   1
M  END
>  <UniqueID>  (62) 
59

>  <SMILES>  (62) 
CC(C)(C)/C(=C(/c1ccc([O-])cc1)c1ccc(OCC[NH3+])cc1)c1ccccc1

>  <Energy>  (62) 
84.25692567313875

>  <Genealogy>  (62) 
CC(C)(C)C(=C(c1ccc([O-])cc1)c1ccc(OCC[NH3+])cc1)c1ccccc1 (protonated)
CC(C)(C)/C(=C(/c1ccc([O-])cc1)c1ccc(OCC[NH3+])cc1)c1ccccc1 (cis-trans isomerization)
CC(C)(C)/C(=C(/c1ccc([O-])cc1)c1ccc(OCC[NH3+])cc1)c1ccccc1 (3D coordinates assigned)
CC(C)(C)/C(=C(/c1ccc([O-])cc1)c1ccc(OCC[NH3+])cc1)c1ccccc1 (optimized conformer: 84.25692567313875 kcal/mol)

>  <smiles>  (62) 
CC(C)(C)C(=C(c1ccc(O)cc1)c1ccc(OCCN)cc1)c1ccccc1

>  <score_type>  (62) 
oracle

>  <origin>  (62) 
adg

>  <m_score__min__energy>  (62) 
-8.1500000000000004

>  <m_primary>  (62) 
energy

$$$$
62:0
     RDKit          3D

 48 51  0  0  0  0  0  0  0  0999 V2000
   56.9370   22.1450   43.3270 C   0  0  0  0  0  0  0  0  0  0  0  0
   55.9550   23.0000   43.0290 C   0  0  0  0  0  0  0  0  0  0  0  0
   55.0690   23.5920   44.0910 C   0  0  0  0  0  0  0  0  0  0  0  0
   55.7450   23.5890   45.4680 C   0  0  0  0  0  0  0  0  0  0  0  0
   56.5360   24.8050   45.6760 N   0  0  0  0  0  0  0  0  0  0  0  0
   56.0360   26.0490   45.8880 C   0  0  0  0  0  0  0  0  0  0  0  0
   54.6810   26.3470   45.9710 O   0  0  0  0  0  0  0  0  0  0  0  0
   57.0650   26.9610   45.9970 C   0  0  0  0  0  0  0  0  0  0  0  0
   57.0790   28.3350   46.2040 C   0  0  0  0  0  0  0  0  0  0  0  0
   58.3390   28.9680   46.2470 C   0  0  0  0  0  0  0  0  0  0  0  0
   58.4420   30.3510   46.4480 C   0  0  0  0  0  0  0  0  0  0  0  0
   59.7020   30.9690   46.4720 C   0  0  0  0  0  0  0  0  0  0  0  0
   59.8280   32.7140   46.6930 S   0  0  0  0  0  0  0  0  0  0  0  0
   61.2770   33.0780   46.8570 O   0  0  0  0  0  0  0  0  0  0  0  0
   59.1130   33.1050   47.9580 O   0  0  0  0  0  0  0  0  0  0  0  0
   59.1570   33.6130   45.3460 N   0  0  0  0  0  0  0  0  0  0  0  0
   58.0180   34.4620   45.7420 C   0  0  0  0  0  0  0  0  0  0  0  0
   56.6800   33.6900   45.8110 C   0  0  0  0  0  0  0  0  0  0  0  0
   56.7630   32.3790   45.2860 O   0  0  0  0  0  0  0  0  0  0  0  0
   57.3870   32.4120   44.0240 C   0  0  0  0  0  0  0  0  0  0  0  0
   58.8780   32.7600   44.1720 C   0  0  0  0  0  0  0  0  0  0  0  0
   60.8620   30.1960   46.3130 C   0  0  0  0  0  0  0  0  0  0  0  0
   60.7750   28.8150   46.1160 C   0  0  0  0  0  0  0  0  0  0  0  0
   59.5260   28.1890   46.0770 C   0  0  0  0  0  0  0  0  0  0  0  0
   59.4450   26.8380   45.8760 N   0  0  0  0  0  0  0  0  0  0  0  0
   58.2230   26.2540   45.8430 C   0  0  0  0  0  0  0  0  0  0  0  0
   57.8890   24.9360   45.6400 C   0  0  0  0  0  0  0  0  0  0  0  0
   58.8000   23.9050   45.4150 O   0  0  0  0  0  0  0  0  0  0  0  0
   57.5670   21.7302   42.5263 H   0  0  0  0  0  0  0  0  0  0  0  0
   57.1157   21.8557   44.3731 H   0  0  0  0  0  0  0  0  0  0  0  0
   55.7895   23.2790   41.9779 H   0  0  0  0  0  0  0  0  0  0  0  0
   54.8282   24.6294   43.8154 H   0  0  0  0  0  0  0  0  0  0  0  0
   54.1591   22.9774   44.1569 H   0  0  0  0  0  0  0  0  0  0  0  0
   54.9708   23.5276   46.2470 H   0  0  0  0  0  0  0  0  0  0  0  0
   56.4204   22.7224   45.5211 H   0  0  0  0  0  0  0  0  0  0  0  0
   56.1467   28.9052   46.3291 H   0  0  0  0  0  0  0  0  0  0  0  0
   57.5327   30.9541   46.5874 H   0  0  0  0  0  0  0  0  0  0  0  0
   58.2276   34.8883   46.7342 H   0  0  0  0  0  0  0  0  0  0  0  0
   57.9074   35.2412   44.9735 H   0  0  0  0  0  0  0  0  0  0  0  0
   56.3680   33.6254   46.8638 H   0  0  0  0  0  0  0  0  0  0  0  0
   55.9533   34.2417   45.1966 H   0  0  0  0  0  0  0  0  0  0  0  0
   57.2907   31.4259   43.5461 H   0  0  0  0  0  0  0  0  0  0  0  0
   56.9008   33.1809   43.4055 H   0  0  0  0  0  0  0  0  0  0  0  0
   59.4479   31.8248   44.2746 H   0  0  0  0  0  0  0  0  0  0  0  0
   59.1750   33.3250   43.2761 H   0  0  0  0  0  0  0  0  0  0  0  0
   61.8488   30.6811   46.3437 H   0  0  0  0  0  0  0  0  0  0  0  0
   61.6915   28.2196   45.9914 H   0  0  0  0  0  0  0  0  0  0  0  0
   59.7930   24.0730   45.3310 H   0  0  0  0  0  0  0  0  0  0  0  0
  1  2  2  0
  2  3  1  0
  3  4  1  0
  4  5  1  0
  5  6  1  0
  6  7  1  0
  6  8  2  0
  8  9  1  0
  9 10  2  0
 10 11  1  0
 11 12  2  0
 12 13  1  0
 13 14  2  0
 13 15  2  0
 13 16  1  0
 16 17  1  0
 17 18  1  0
 18 19  1  0
 19 20  1  0
 20 21  1  0
 12 22  1  0
 22 23  2  0
 23 24  1  0
 24 25  2  0
 25 26  1  0
 26 27  2  0
 27 28  1  0
 27  5  1  0
 26  8  1  0
 24 10  1  0
 21 16  1  0
  1 29  1  0
  1 30  1  0
  2 31  1  0
  3 32  1  0
  3 33  1  0
  4 34  1  0
  4 35  1  0
  9 36  1  0
 11 37  1  0
 17 38  1  0
 17 39  1  0
 18 40  1  0
 18 41  1  0
 20 42  1  0
 20 43  1  0
 21 44  1  0
 21 45  1  0
 22 46  1  0
 23 47  1  0
 28 48  1  0
M  CHG  1   7  -1
M  END
>  <UniqueID>  (63) 
60

>  <SMILES>  (63) 
C=CCCn1c([O-])c2cc3cc(S(=O)(=O)N4CCOCC4)ccc3nc2c1O

>  <Energy>  (63) 
97.3838482198443

>  <Genealogy>  (63) 
C=CCCn1c([O-])c2cc3cc(S(=O)(=O)N4CCOCC4)ccc3nc2c1O (protonated)
C=CCCn1c([O-])c2cc3cc(S(=O)(=O)N4CCOCC4)ccc3nc2c1O (3D coordinates assigned)
C=CCCn1c([O-])c2cc3cc(S(=O)(=O)N4CCOCC4)ccc3nc2c1O (nonaromatic ring conformer: 97.3838482198443 kcal/mol)

>  <smiles>  (63) 
C=CCCn1c(O)c2cc3cc(S(=O)(=O)N4CCOCC4)ccc3nc2c1O

>  <score_type>  (63) 
oracle

>  <origin>  (63) 
adg

>  <m_score__min__energy>  (63) 
-10.42

>  <m_primary>  (63) 
energy

$$$$
63:0
     RDKit          3D

 48 50  0  0  0  0  0  0  0  0999 V2000
   56.6570   31.9090   44.9740 O   0  0  0  0  0  0  0  0  0  0  0  0
   57.7150   31.2510   45.1680 C   0  0  0  0  0  0  0  0  0  0  0  0
   58.2800   30.4120   44.0660 C   0  0  0  0  0  0  0  0  0  0  0  0
   57.4120   29.2700   43.8020 N   0  0  0  0  0  0  0  0  0  0  0  0
   56.6200   28.6240   44.8040 C   0  0  0  0  0  0  0  0  0  0  0  0
   55.5150   29.1290   45.1410 O   0  0  0  0  0  0  0  0  0  0  0  0
   57.0690   27.3490   45.4260 C   0  0  0  0  0  0  0  0  0  0  0  0
   58.4410   27.0320   45.4260 C   0  0  0  0  0  0  0  0  0  0  0  0
   58.9040   25.8610   46.0240 C   0  0  0  0  0  0  0  0  0  0  0  0
   58.0060   24.9800   46.6270 C   0  0  0  0  0  0  0  0  0  0  0  0
   56.6380   25.2620   46.6280 C   0  0  0  0  0  0  0  0  0  0  0  0
   55.7640   24.3530   47.2230 O   0  0  0  0  0  0  0  0  0  0  0  0
   56.1620   26.4430   46.0280 C   0  0  0  0  0  0  0  0  0  0  0  0
   54.7950   26.6930   46.0140 O   0  0  0  0  0  0  0  0  0  0  0  0
   58.4080   31.3320   46.4200 N   0  0  0  0  0  0  0  0  0  0  0  0
   59.1570   32.4560   46.9020 C   0  0  0  0  0  0  0  0  0  0  0  0
   58.5260   33.6150   47.3930 C   0  0  0  0  0  0  0  0  0  0  0  0
   59.2930   34.6820   47.8700 C   0  0  0  0  0  0  0  0  0  0  0  0
   60.6900   34.5990   47.8730 C   0  0  0  0  0  0  0  0  0  0  0  0
   61.3250   33.4410   47.4030 C   0  0  0  0  0  0  0  0  0  0  0  0
   63.0810   33.3050   47.4150 S   0  0  0  0  0  0  0  0  0  0  0  0
   63.4470   31.8810   47.0970 O   0  0  0  0  0  0  0  0  0  0  0  0
   63.6770   34.2070   46.3690 O   0  0  0  0  0  0  0  0  0  0  0  0
   63.6740   33.7400   49.0050 N   0  0  0  0  0  0  0  0  0  0  0  0
   62.6550   33.5160   50.0470 C   0  0  0  0  0  0  0  0  0  0  0  0
   62.4890   32.0180   50.3930 C   0  0  0  0  0  0  0  0  0  0  0  0
   63.5620   31.2070   49.9520 O   0  0  0  0  0  0  0  0  0  0  0  0
   64.7920   31.8440   50.2210 C   0  0  0  0  0  0  0  0  0  0  0  0
   64.9600   33.0770   49.3160 C   0  0  0  0  0  0  0  0  0  0  0  0
   60.5550   32.3700   46.9310 C   0  0  0  0  0  0  0  0  0  0  0  0
   58.3656   31.0210   43.1540 H   0  0  0  0  0  0  0  0  0  0  0  0
   59.2716   30.0447   44.3690 H   0  0  0  0  0  0  0  0  0  0  0  0
   59.1566   27.7172   44.9480 H   0  0  0  0  0  0  0  0  0  0  0  0
   59.9797   25.6311   46.0204 H   0  0  0  0  0  0  0  0  0  0  0  0
   58.3765   24.0602   47.1032 H   0  0  0  0  0  0  0  0  0  0  0  0
   54.7610   24.4800   47.2030 H   0  0  0  0  0  0  0  0  0  0  0  0
   57.4280   33.6810   47.4013 H   0  0  0  0  0  0  0  0  0  0  0  0
   58.7969   35.5897   48.2442 H   0  0  0  0  0  0  0  0  0  0  0  0
   61.2901   35.4428   48.2443 H   0  0  0  0  0  0  0  0  0  0  0  0
   62.9538   34.0581   50.9563 H   0  0  0  0  0  0  0  0  0  0  0  0
   61.6921   33.8807   49.6600 H   0  0  0  0  0  0  0  0  0  0  0  0
   62.4078   31.9215   51.4857 H   0  0  0  0  0  0  0  0  0  0  0  0
   61.5867   31.6669   49.8709 H   0  0  0  0  0  0  0  0  0  0  0  0
   64.8148   32.1604   51.2743 H   0  0  0  0  0  0  0  0  0  0  0  0
   65.6127   31.1387   50.0233 H   0  0  0  0  0  0  0  0  0  0  0  0
   65.6140   33.8001   49.8252 H   0  0  0  0  0  0  0  0  0  0  0  0
   65.3936   32.7332   48.3653 H   0  0  0  0  0  0  0  0  0  0  0  0
   61.0524   31.4537   46.5802 H   0  0  0  0  0  0  0  0  0  0  0  0
  1  2  2  0
  2  3  1  0
  3  4  1  0
  4  5  1  0
  5  6  2  0
  5  7  1  0
  7  8  2  0
  8  9  1  0
  9 10  2  0
 10 11  1  0
 11 12  1  0
 11 13  2  0
 13 14  1  0
  2 15  1  0
 15 16  1  0
 16 17  2  0
 17 18  1  0
 18 19  2  0
 19 20  1  0
 20 21  1  0
 21 22  2  0
 21 23  2  0
 21 24  1  0
 24 25  1  0
 25 26  1  0
 26 27  1  0
 27 28  1  0
 28 29  1  0
 20 30  2  0
 13  7  1  0
 30 16  1  0
 29 24  1  0
  3 31  1  0
  3 32  1  0
  8 33  1  0
  9 34  1  0
 10 35  1  0
 12 36  1  0
 17 37  1  0
 18 38  1  0
 19 39  1  0
 25 40  1  0
 25 41  1  0
 26 42  1  0
 26 43  1  0
 28 44  1  0
 28 45  1  0
 29 46  1  0
 29 47  1  0
 30 48  1  0
M  CHG  3   4  -1  14  -1  15  -1
M  END
>  <UniqueID>  (64) 
61

>  <SMILES>  (64) 
O=C(C[N-]C(=O)c1cccc(O)c1[O-])[N-]c1cccc(S(=O)(=O)N2CCOCC2)c1

>  <Energy>  (64) 
64.4367429937829

>  <Genealogy>  (64) 
O=C(C[N-]C(=O)c1cccc(O)c1[O-])[N-]c1cccc(S(=O)(=O)N2CCOCC2)c1 (protonated)
O=C(C[N-]C(=O)c1cccc(O)c1[O-])[N-]c1cccc(S(=O)(=O)N2CCOCC2)c1 (3D coordinates assigned)
O=C(C[N-]C(=O)c1cccc(O)c1[O-])[N-]c1cccc(S(=O)(=O)N2CCOCC2)c1 (nonaromatic ring conformer: 64.4367429937829 kcal/mol)

>  <smiles>  (64) 
O=C(CNC(=O)c1cccc(O)c1O)Nc1cccc(S(=O)(=O)N2CCOCC2)c1

>  <score_type>  (64) 
oracle

>  <origin>  (64) 
adg

>  <m_score__min__energy>  (64) 
-15.890000000000001

>  <m_primary>  (64) 
energy

$$$$
64:0
     RDKit          3D

 63 66  0  0  0  0  0  0  0  0999 V2000
   55.4590   19.8840   49.9770 C   0  0  0  0  0  0  0  0  0  0  0  0
   55.0340   21.1330   49.4410 O   0  0  0  0  0  0  0  0  0  0  0  0
   53.7910   21.7360   49.6980 C   0  0  0  0  0  0  0  0  0  0  0  0
   53.5780   22.5300   50.8440 C   0  0  0  0  0  0  0  0  0  0  0  0
   52.3350   23.1270   51.0720 C   0  0  0  0  0  0  0  0  0  0  0  0
   51.2900   22.9370   50.1670 C   0  0  0  0  0  0  0  0  0  0  0  0
   51.4850   22.1460   49.0330 C   0  0  0  0  0  0  0  0  0  0  0  0
   52.7300   21.5440   48.7850 C   0  0  0  0  0  0  0  0  0  0  0  0
   52.9100   20.7380   47.5190 C   0  0  0  0  0  0  0  0  0  0  0  0
   54.2410   20.9670   46.9620 N   0  0  0  0  0  0  0  0  0  0  0  0
   54.7680   20.1660   45.8920 C   0  0  0  0  0  0  0  0  0  0  0  0
   54.0060   19.3950   45.2440 O   0  0  0  0  0  0  0  0  0  0  0  0
   56.2160   20.2610   45.5060 C   0  0  0  0  0  0  0  0  0  0  0  0
   56.6080   21.6620   45.2420 N   0  0  0  0  0  0  0  0  0  0  0  0
   56.5890   22.1640   43.9630 C   0  0  0  0  0  0  0  0  0  0  0  0
   56.2140   21.4530   42.9920 O   0  0  0  0  0  0  0  0  0  0  0  0
   56.9750   23.4420   43.7210 N   0  0  0  0  0  0  0  0  0  0  0  0
   57.3810   24.2640   44.7190 C   0  0  0  0  0  0  0  0  0  0  0  0
   57.7940   25.5670   44.4260 C   0  0  0  0  0  0  0  0  0  0  0  0
   58.2200   26.4190   45.4520 C   0  0  0  0  0  0  0  0  0  0  0  0
   58.7160   28.0660   45.0710 S   0  0  0  0  0  0  0  0  0  0  0  0
   58.8060   28.2390   43.5810 O   0  0  0  0  0  0  0  0  0  0  0  0
   60.0690   28.3340   45.6680 O   0  0  0  0  0  0  0  0  0  0  0  0
   57.5790   29.2000   45.7180 N   0  0  0  0  0  0  0  0  0  0  0  0
   57.7890   30.6070   45.5890 C   0  0  0  0  0  0  0  0  0  0  0  0
   57.4900   31.2450   44.3750 C   0  0  0  0  0  0  0  0  0  0  0  0
   56.9960   30.4730   43.3110 O   0  0  0  0  0  0  0  0  0  0  0  0
   55.7840   29.7270   43.3500 C   0  0  0  0  0  0  0  0  0  0  0  0
   57.6880   32.6340   44.2610 C   0  0  0  0  0  0  0  0  0  0  0  0
   58.1670   33.3700   45.3480 C   0  0  0  0  0  0  0  0  0  0  0  0
   58.4570   32.7330   46.5540 C   0  0  0  0  0  0  0  0  0  0  0  0
   58.2750   31.3430   46.6840 C   0  0  0  0  0  0  0  0  0  0  0  0
   58.5590   30.6620   47.8780 O   0  0  0  0  0  0  0  0  0  0  0  0
   59.7840   29.9970   48.1510 C   0  0  0  0  0  0  0  0  0  0  0  0
   58.2120   25.9650   46.7790 C   0  0  0  0  0  0  0  0  0  0  0  0
   57.8020   24.6610   47.0770 C   0  0  0  0  0  0  0  0  0  0  0  0
   57.3910   23.7970   46.0460 C   0  0  0  0  0  0  0  0  0  0  0  0
   56.9900   22.4720   46.2870 C   0  0  0  0  0  0  0  0  0  0  0  0
   56.9860   22.0250   47.4700 O   0  0  0  0  0  0  0  0  0  0  0  0
   55.4427   19.9320   51.0758 H   0  0  0  0  0  0  0  0  0  0  0  0
   54.7810   19.0883   49.6346 H   0  0  0  0  0  0  0  0  0  0  0  0
   56.4816   19.6670   49.6346 H   0  0  0  0  0  0  0  0  0  0  0  0
   54.3962   22.6805   51.5637 H   0  0  0  0  0  0  0  0  0  0  0  0
   52.1802   23.7479   51.9667 H   0  0  0  0  0  0  0  0  0  0  0  0
   50.3133   23.4100   50.3468 H   0  0  0  0  0  0  0  0  0  0  0  0
   50.6557   21.9927   48.3268 H   0  0  0  0  0  0  0  0  0  0  0  0
   52.7909   19.6688   47.7486 H   0  0  0  0  0  0  0  0  0  0  0  0
   52.1538   21.0499   46.7835 H   0  0  0  0  0  0  0  0  0  0  0  0
   54.8390   21.7070   47.3930 H   0  0  0  0  0  0  0  0  0  0  0  0
   56.8327   19.8642   46.3259 H   0  0  0  0  0  0  0  0  0  0  0  0
   56.3706   19.6769   44.5868 H   0  0  0  0  0  0  0  0  0  0  0  0
   57.7842   25.9241   43.3856 H   0  0  0  0  0  0  0  0  0  0  0  0
   55.4961   29.5498   44.3967 H   0  0  0  0  0  0  0  0  0  0  0  0
   54.9890   30.2923   42.8417 H   0  0  0  0  0  0  0  0  0  0  0  0
   55.9305   28.7626   42.8417 H   0  0  0  0  0  0  0  0  0  0  0  0
   57.4646   33.1426   43.3116 H   0  0  0  0  0  0  0  0  0  0  0  0
   58.3158   34.4556   45.2519 H   0  0  0  0  0  0  0  0  0  0  0  0
   58.8295   33.3189   47.4072 H   0  0  0  0  0  0  0  0  0  0  0  0
   59.9250   29.9204   49.2392 H   0  0  0  0  0  0  0  0  0  0  0  0
   59.7593   28.9884   47.7126 H   0  0  0  0  0  0  0  0  0  0  0  0
   60.6163   30.5671   47.7126 H   0  0  0  0  0  0  0  0  0  0  0  0
   58.5297   26.6375   47.5894 H   0  0  0  0  0  0  0  0  0  0  0  0
   57.8011   24.3107   48.1197 H   0  0  0  0  0  0  0  0  0  0  0  0
  1  2  1  0
  2  3  1  0
  3  4  2  0
  4  5  1  0
  5  6  2  0
  6  7  1  0
  7  8  2  0
  8  9  1  0
  9 10  1  0
 10 11  1  0
 11 12  2  0
 11 13  1  0
 13 14  1  0
 14 15  1  0
 15 16  2  0
 15 17  1  0
 17 18  1  0
 18 19  2  0
 19 20  1  0
 20 21  1  0
 21 22  2  0
 21 23  2  0
 21 24  1  0
 24 25  1  0
 25 26  2  0
 26 27  1  0
 27 28  1  0
 26 29  1  0
 29 30  2  0
 30 31  1  0
 31 32  2  0
 32 33  1  0
 33 34  1  0
 20 35  2  0
 35 36  1  0
 36 37  2  0
 37 38  1  0
 38 39  2  0
  8  3  1  0
 38 14  1  0
 37 18  1  0
 32 25  1  0
  1 40  1  0
  1 41  1  0
  1 42  1  0
  4 43  1  0
  5 44  1  0
  6 45  1  0
  7 46  1  0
  9 47  1  0
  9 48  1  0
 10 49  1  0
 13 50  1  0
 13 51  1  0
 19 52  1  0
 28 53  1  0
 28 54  1  0
 28 55  1  0
 29 56  1  0
 30 57  1  0
 31 58  1  0
 34 59  1  0
 34 60  1  0
 34 61  1  0
 35 62  1  0
 36 63  1  0
M  CHG  2  17  -1  24  -1
M  END
>  <UniqueID>  (65) 
62

>  <SMILES>  (65) 
COc1ccccc1CNC(=O)Cn1c(=O)[n-]c2cc(S(=O)(=O)[N-]c3c(OC)cccc3OC)ccc2c1=O

>  <Energy>  (65) 
76.53707191099518

>  <Genealogy>  (65) 
COc1ccccc1CNC(=O)Cn1c(=O)[n-]c2cc(S(=O)(=O)[N-]c3c(OC)cccc3OC)ccc2c1=O (protonated)
COc1ccccc1CNC(=O)Cn1c(=O)[n-]c2cc(S(=O)(=O)[N-]c3c(OC)cccc3OC)ccc2c1=O (3D coordinates assigned)
COc1ccccc1CNC(=O)Cn1c(=O)[n-]c2cc(S(=O)(=O)[N-]c3c(OC)cccc3OC)ccc2c1=O (optimized conformer: 76.53707191099518 kcal/mol)

>  <smiles>  (65) 
COc1ccccc1CNC(=O)Cn1c(=O)[nH]c2cc(S(=O)(=O)Nc3c(OC)cccc3OC)ccc2c1=O

>  <score_type>  (65) 
oracle

>  <origin>  (65) 
adg

>  <m_score__min__energy>  (65) 
-11.44

>  <m_primary>  (65) 
energy

$$$$
65:0
     RDKit          3D

 21 21  0  0  0  0  0  0  0  0999 V2000
   60.0640   34.2050   45.6220 C   0  0  0  0  0  0  0  0  0  0  0  0
   59.2780   33.7930   46.8630 C   0  0  0  0  0  0  0  0  0  0  0  0
   57.7740   33.7680   46.5810 C   0  0  0  0  0  0  0  0  0  0  0  0
   57.4500   33.5550   44.7960 S   0  0  0  0  0  0  0  0  0  0  0  0
   57.5050   31.7660   44.8370 C   0  0  0  0  0  0  0  0  0  0  0  0
   56.3500   31.0500   44.8410 N   0  0  0  0  0  0  0  0  0  0  0  0
   56.3670   29.6920   44.8760 C   0  0  0  0  0  0  0  0  0  0  0  0
   55.1660   28.9890   44.8750 O   0  0  0  0  0  0  0  0  0  0  0  0
   57.5910   29.0160   44.9110 C   0  0  0  0  0  0  0  0  0  0  0  0
   58.7660   29.7690   44.9120 C   0  0  0  0  0  0  0  0  0  0  0  0
   59.8870   29.1950   44.9470 O   0  0  0  0  0  0  0  0  0  0  0  0
   58.7030   31.1250   44.8770 N   0  0  0  0  0  0  0  0  0  0  0  0
   61.0001   34.6957   45.9270 H   0  0  0  0  0  0  0  0  0  0  0  0
   60.2963   33.3127   45.0221 H   0  0  0  0  0  0  0  0  0  0  0  0
   59.4623   34.9037   45.0221 H   0  0  0  0  0  0  0  0  0  0  0  0
   59.6013   32.7892   47.1759 H   0  0  0  0  0  0  0  0  0  0  0  0
   59.4716   34.5277   47.6584 H   0  0  0  0  0  0  0  0  0  0  0  0
   57.3179   32.9324   47.1322 H   0  0  0  0  0  0  0  0  0  0  0  0
   57.3392   34.7248   46.9058 H   0  0  0  0  0  0  0  0  0  0  0  0
   55.1450   27.9770   44.9060 H   0  0  0  0  0  0  0  0  0  0  0  0
   57.6266   27.9169   44.9371 H   0  0  0  0  0  0  0  0  0  0  0  0
  1  2  1  0
  2  3  1  0
  3  4  1  0
  4  5  1  0
  5  6  2  0
  6  7  1  0
  7  8  1  0
  7  9  2  0
  9 10  1  0
 10 11  2  0
 10 12  1  0
 12  5  1  0
  1 13  1  0
  1 14  1  0
  1 15  1  0
  2 16  1  0
  2 17  1  0
  3 18  1  0
  3 19  1  0
  8 20  1  0
  9 21  1  0
M  CHG  1  12  -1
M  END
>  <UniqueID>  (66) 
63

>  <SMILES>  (66) 
CCCSc1nc(O)cc(=O)[n-]1

>  <Energy>  (66) 
11.5996110455511

>  <Genealogy>  (66) 
CCCSc1nc(O)cc(=O)[n-]1 (protonated)
CCCSc1nc(O)cc(=O)[n-]1 (3D coordinates assigned)
CCCSc1nc(O)cc(=O)[n-]1 (optimized conformer: 11.5996110455511 kcal/mol)

>  <smiles>  (66) 
CCCSc1nc(O)cc(=O)[nH]1

>  <score_type>  (66) 
oracle

>  <origin>  (66) 
adg

>  <m_score__min__energy>  (66) 
-7.4699999999999998

>  <m_primary>  (66) 
energy

$$$$
66:0
     RDKit          3D

 45 47  0  0  0  0  0  0  0  0999 V2000
   58.6680   31.6280   50.5720 C   0  0  0  0  0  0  0  0  0  0  0  0
   58.9670   32.5880   49.4620 C   0  0  0  0  0  0  0  0  0  0  0  0
   58.4250   32.3860   48.1870 C   0  0  0  0  0  0  0  0  0  0  0  0
   58.6870   33.3140   47.1630 C   0  0  0  0  0  0  0  0  0  0  0  0
   58.1610   33.1470   45.8600 C   0  0  0  0  0  0  0  0  0  0  0  0
   57.3690   31.9860   45.5580 N   0  0  0  0  0  0  0  0  0  0  0  0
   57.7840   30.6140   45.6170 C   0  0  0  0  0  0  0  0  0  0  0  0
   58.9990   30.3140   45.7560 O   0  0  0  0  0  0  0  0  0  0  0  0
   56.8240   29.5690   45.4620 N   0  0  0  0  0  0  0  0  0  0  0  0
   57.0100   28.4640   44.5310 C   0  0  0  0  0  0  0  0  0  0  0  0
   57.4190   27.2270   45.2890 C   0  0  0  0  0  0  0  0  0  0  0  0
   58.7830   26.8990   45.3730 C   0  0  0  0  0  0  0  0  0  0  0  0
   59.1960   25.7650   46.0690 C   0  0  0  0  0  0  0  0  0  0  0  0
   58.2590   24.9460   46.6970 C   0  0  0  0  0  0  0  0  0  0  0  0
   56.8900   25.2590   46.6370 C   0  0  0  0  0  0  0  0  0  0  0  0
   55.8980   24.4430   47.2790 N   0  0  0  0  0  0  0  0  0  0  0  0
   54.6060   23.5960   46.4890 S   0  0  0  0  0  0  0  0  0  0  0  0
   53.8610   22.4320   47.6120 C   0  0  0  0  0  0  0  0  0  0  0  0
   55.1710   22.8410   45.3190 O   0  0  0  0  0  0  0  0  0  0  0  0
   53.5810   24.5720   45.9860 O   0  0  0  0  0  0  0  0  0  0  0  0
   56.4690   26.4040   45.9400 C   0  0  0  0  0  0  0  0  0  0  0  0
   55.1020   26.7000   45.9160 O   0  0  0  0  0  0  0  0  0  0  0  0
   58.4790   34.0910   44.8660 C   0  0  0  0  0  0  0  0  0  0  0  0
   59.2670   35.2040   45.1660 C   0  0  0  0  0  0  0  0  0  0  0  0
   59.7650   35.3860   46.4560 C   0  0  0  0  0  0  0  0  0  0  0  0
   59.4870   34.4450   47.4550 C   0  0  0  0  0  0  0  0  0  0  0  0
   59.9940   34.6100   48.7510 C   0  0  0  0  0  0  0  0  0  0  0  0
   59.7200   33.6910   49.7130 N   0  0  0  0  0  0  0  0  0  0  0  0
   58.8234   32.1268   51.5400 H   0  0  0  0  0  0  0  0  0  0  0  0
   57.6230   31.2931   50.4956 H   0  0  0  0  0  0  0  0  0  0  0  0
   59.3380   30.7590   50.4956 H   0  0  0  0  0  0  0  0  0  0  0  0
   57.7970   31.5053   47.9869 H   0  0  0  0  0  0  0  0  0  0  0  0
   56.0671   28.2717   43.9981 H   0  0  0  0  0  0  0  0  0  0  0  0
   57.7958   28.7250   43.8069 H   0  0  0  0  0  0  0  0  0  0  0  0
   59.5302   27.5425   44.8855 H   0  0  0  0  0  0  0  0  0  0  0  0
   60.2658   25.5149   46.1232 H   0  0  0  0  0  0  0  0  0  0  0  0
   58.5925   24.0506   47.2420 H   0  0  0  0  0  0  0  0  0  0  0  0
   54.0602   22.7432   48.6481 H   0  0  0  0  0  0  0  0  0  0  0  0
   52.7748   22.4011   47.4408 H   0  0  0  0  0  0  0  0  0  0  0  0
   54.2878   21.4327   47.4408 H   0  0  0  0  0  0  0  0  0  0  0  0
   54.4000   26.1300   46.3700 H   0  0  0  0  0  0  0  0  0  0  0  0
   58.1028   33.9506   43.8419 H   0  0  0  0  0  0  0  0  0  0  0  0
   59.4960   35.9404   44.3816 H   0  0  0  0  0  0  0  0  0  0  0  0
   60.3769   36.2699   46.6889 H   0  0  0  0  0  0  0  0  0  0  0  0
   60.6153   35.4858   48.9898 H   0  0  0  0  0  0  0  0  0  0  0  0
  1  2  1  0
  2  3  2  0
  3  4  1  0
  4  5  2  0
  5  6  1  0
  6  7  1  0
  7  8  2  0
  7  9  1  0
  9 10  1  0
 10 11  1  0
 11 12  2  0
 12 13  1  0
 13 14  2  0
 14 15  1  0
 15 16  1  0
 16 17  1  0
 17 18  1  0
 17 19  2  0
 17 20  2  0
 15 21  2  0
 21 22  1  0
  5 23  1  0
 23 24  2  0
 24 25  1  0
 25 26  2  0
 26 27  1  0
 27 28  2  0
 28  2  1  0
 26  4  1  0
 21 11  1  0
  1 29  1  0
  1 30  1  0
  1 31  1  0
  3 32  1  0
 10 33  1  0
 10 34  1  0
 12 35  1  0
 13 36  1  0
 14 37  1  0
 18 38  1  0
 18 39  1  0
 18 40  1  0
 22 41  1  0
 23 42  1  0
 24 43  1  0
 25 44  1  0
 27 45  1  0
M  CHG  3   6  -1   9  -1  16  -1
M  END
>  <UniqueID>  (67) 
64

>  <SMILES>  (67) 
Cc1cc2c([N-]C(=O)[N-]Cc3cccc([N-]S(C)(=O)=O)c3O)cccc2cn1

>  <Energy>  (67) 
52.38499742553535

>  <Genealogy>  (67) 
Cc1cc2c([N-]C(=O)[N-]Cc3cccc([N-]S(C)(=O)=O)c3O)cccc2cn1 (protonated)
Cc1cc2c([N-]C(=O)[N-]Cc3cccc([N-]S(C)(=O)=O)c3O)cccc2cn1 (3D coordinates assigned)
Cc1cc2c([N-]C(=O)[N-]Cc3cccc([N-]S(C)(=O)=O)c3O)cccc2cn1 (optimized conformer: 52.38499742553535 kcal/mol)

>  <smiles>  (67) 
Cc1cc2c(NC(=O)NCc3cccc(NS(C)(=O)=O)c3O)cccc2cn1

>  <score_type>  (67) 
oracle

>  <origin>  (67) 
adg

>  <m_score__min__energy>  (67) 
-14.460000000000001

>  <m_primary>  (67) 
energy

$$$$
67:0
     RDKit          3D

 63 66  0  0  1  0  0  0  0  0999 V2000
   56.2150   22.0840   48.7160 C   0  0  0  0  0  0  0  0  0  0  0  0
   57.3050   22.2600   47.8300 O   0  0  0  0  0  0  0  0  0  0  0  0
   57.2020   23.1110   46.7470 C   0  0  0  0  0  0  0  0  0  0  0  0
   56.9610   22.6000   45.4930 C   0  0  0  0  0  0  0  0  0  0  0  0
   56.8670   23.5140   44.4400 C   0  0  0  0  0  0  0  0  0  0  0  0
   57.0090   24.8670   44.6580 C   0  0  0  0  0  0  0  0  0  0  0  0
   57.2520   25.3810   45.9320 C   0  0  0  0  0  0  0  0  0  0  0  0
   57.3910   26.7560   46.1290 O   0  0  0  0  0  0  0  0  0  0  0  0
   58.5220   27.4460   45.7470 C   0  0  0  0  0  0  0  0  0  0  0  0
   59.7040   27.3610   46.4310 C   0  0  0  0  0  0  0  0  0  0  0  0
   59.7460   26.5450   47.5480 O   0  0  0  0  0  0  0  0  0  0  0  0
   60.7760   26.8060   48.4890 C   0  0  0  0  0  0  0  0  0  0  0  0
   60.3230   27.7310   49.5940 C   0  0  0  0  0  0  0  0  0  0  0  0
   59.6400   28.8670   49.0710 O   0  0  0  0  0  0  0  0  0  0  0  0
   60.4520   29.9040   48.6250 C   0  0  0  0  0  0  0  0  0  0  0  0
   61.5440   30.2770   49.3570 N   0  0  0  0  0  0  0  0  0  0  0  0
   62.3260   31.2840   48.9220 C   0  0  0  0  0  0  0  0  0  0  0  0
   62.0070   31.9290   47.7270 C   0  0  0  0  0  0  0  0  0  0  0  0
   63.1420   33.3510   47.1570 Br  0  0  0  0  0  0  0  0  0  0  0  0
   60.9010   31.5410   46.9970 C   0  0  0  0  0  0  0  0  0  0  0  0
   60.1660   30.5420   47.4760 N   0  0  0  0  0  0  0  0  0  0  0  0
   60.7420   28.0670   45.9820 N   0  0  0  0  0  0  0  0  0  0  0  0
   60.7320   28.8650   44.9030 C   0  0  0  0  0  0  0  0  0  0  0  0
   59.5710   28.9600   44.2160 N   0  0  0  0  0  0  0  0  0  0  0  0
   58.4840   28.2570   44.6400 C   0  0  0  0  0  0  0  0  0  0  0  0
   57.4070   28.3970   44.0240 N   0  0  0  0  0  0  0  0  0  0  0  0
   56.3510   29.6720   43.8140 S   0  0  0  0  0  0  0  0  0  0  0  0
   56.6410   30.4820   45.0850 O   0  0  0  0  0  0  0  0  0  0  0  0
   54.8860   29.4430   44.1260 O   0  0  0  0  0  0  0  0  0  0  0  0
   56.6800   30.8350   42.6050 C   0  0  0  0  0  0  0  0  0  0  0  0
   57.9470   31.6130   42.8760 C   0  0  0  0  0  0  0  0  0  0  0  0
   58.1840   32.3160   43.9280 O   0  0  0  0  0  0  0  0  0  0  0  0
   58.4250   33.0240   44.9910 C   0  0  0  0  0  0  0  0  0  0  0  0
   57.9150   32.7560   46.2520 C   0  0  0  0  0  0  0  0  0  0  0  0
   58.1840   33.5260   47.3650 C   0  0  0  0  0  0  0  0  0  0  0  0
   59.0100   34.6150   47.1780 C   0  0  0  0  0  0  0  0  0  0  0  0
   59.5520   34.9450   45.9660 C   0  0  0  0  0  0  0  0  0  0  0  0
   59.2610   34.1560   44.8850 C   0  0  0  0  0  0  0  0  0  0  0  0
   57.3470   24.4720   46.9810 C   0  0  0  0  0  0  0  0  0  0  0  0
   56.5735   22.1419   49.7543 H   0  0  0  0  0  0  0  0  0  0  0  0
   55.4691   22.8733   48.5410 H   0  0  0  0  0  0  0  0  0  0  0  0
   55.7555   21.1000   48.5410 H   0  0  0  0  0  0  0  0  0  0  0  0
   56.8472   21.5187   45.3261 H   0  0  0  0  0  0  0  0  0  0  0  0
   56.6766   23.1473   43.4206 H   0  0  0  0  0  0  0  0  0  0  0  0
   56.9288   25.5589   43.8066 H   0  0  0  0  0  0  0  0  0  0  0  0
   61.0973   25.8532   48.9349 H   0  0  0  0  0  0  0  0  0  0  0  0
   61.6020   27.2989   47.9553 H   0  0  0  0  0  0  0  0  0  0  0  0
   59.6451   27.1828   50.2648 H   0  0  0  0  0  0  0  0  0  0  0  0
   61.2116   28.0811   50.1398 H   0  0  0  0  0  0  0  0  0  0  0  0
   63.2069   31.5944   49.5031 H   0  0  0  0  0  0  0  0  0  0  0  0
   60.6375   32.0405   46.0530 H   0  0  0  0  0  0  0  0  0  0  0  0
   61.6300   29.4183   44.5907 H   0  0  0  0  0  0  0  0  0  0  0  0
   59.5550   29.5760   43.3810 H   0  0  0  0  0  0  0  0  0  0  0  0
   56.7832   30.3193   41.6389 H   0  0  0  0  0  0  0  0  0  0  0  0
   55.8450   31.5511   42.5957 H   0  0  0  0  0  0  0  0  0  0  0  0
   58.7580   30.8710   42.8339 H   0  0  0  0  0  0  0  0  0  0  0  0
   57.8437   32.4141   42.1292 H   0  0  0  0  0  0  0  0  0  0  0  0
   57.2595   31.8809   46.3719 H   0  0  0  0  0  0  0  0  0  0  0  0
   57.7613   33.2838   48.3512 H   0  0  0  0  0  0  0  0  0  0  0  0
   59.2443   35.2490   48.0459 H   0  0  0  0  0  0  0  0  0  0  0  0
   60.2061   35.8233   45.8622 H   0  0  0  0  0  0  0  0  0  0  0  0
   59.6914   34.4121   43.9056 H   0  0  0  0  0  0  0  0  0  0  0  0
   57.5382   24.8337   48.0021 H   0  0  0  0  0  0  0  0  0  0  0  0
  1  2  1  0
  2  3  1  0
  3  4  2  0
  4  5  1  0
  5  6  2  0
  6  7  1  0
  7  8  1  0
  8  9  1  0
  9 10  2  0
 10 11  1  0
 11 12  1  0
 12 13  1  0
 13 14  1  0
 14 15  1  0
 15 16  2  0
 16 17  1  0
 17 18  2  0
 18 19  1  0
 18 20  1  0
 20 21  2  0
 10 22  1  0
 22 23  2  0
 23 24  1  0
 24 25  1  0
 25 26  2  0
 26 27  1  0
 27 28  2  0
 27 29  2  0
 27 30  1  0
 30 31  1  0
 31 32  1  0
 32 33  1  0
 33 34  2  0
 34 35  1  0
 35 36  2  0
 36 37  1  0
 37 38  2  0
  7 39  2  0
 39  3  1  0
 25  9  1  0
 38 33  1  0
 21 15  1  0
  1 40  1  0
  1 41  1  0
  1 42  1  0
  4 43  1  0
  5 44  1  0
  6 45  1  0
 12 46  1  0
 12 47  1  0
 13 48  1  0
 13 49  1  0
 17 50  1  0
 20 51  1  0
 23 52  1  0
 24 53  1  0
 30 54  1  0
 30 55  1  0
 31 56  1  0
 31 57  1  0
 34 58  1  0
 35 59  1  0
 36 60  1  0
 37 61  1  0
 38 62  1  0
 39 63  1  0
M  END
>  <smiles>  (68) 
COc1cccc(Oc2c(OCCOc3ncc(Br)cn3)nc[nH]c2=NS(=O)(=O)CCOc2ccccc2)c1

>  <score_type>  (68) 
oracle

>  <origin>  (68) 
adg

>  <m_score__min__energy>  (68) 
-9.3699999999999992

>  <m_primary>  (68) 
energy

$$$$
68:0
     RDKit          3D

 48 51  0  0  0  0  0  0  0  0999 V2000
   63.6922   34.4184   49.8481 H   0  0  0  0  0  0  0  0  0  0  0  0
   63.0920   33.8270   49.1410 C   0  0  0  0  0  0  0  0  0  0  0  0
   61.7220   34.0710   49.0120 C   0  0  0  0  0  0  0  0  0  0  0  0
   61.2433   34.8516   49.6215 H   0  0  0  0  0  0  0  0  0  0  0  0
   60.9590   33.3240   48.1090 C   0  0  0  0  0  0  0  0  0  0  0  0
   59.8792   33.5130   48.0183 H   0  0  0  0  0  0  0  0  0  0  0  0
   61.5620   32.3360   47.3190 C   0  0  0  0  0  0  0  0  0  0  0  0
   60.7610   31.5940   46.4390 O   0  0  0  0  0  0  0  0  0  0  0  0
   60.0290   30.4530   46.7920 C   0  0  0  0  0  0  0  0  0  0  0  0
   59.0730   29.9590   45.8970 C   0  0  0  0  0  0  0  0  0  0  0  0
   58.9178   30.4603   44.9302 H   0  0  0  0  0  0  0  0  0  0  0  0
   58.3160   28.8340   46.2250 C   0  0  0  0  0  0  0  0  0  0  0  0
   57.5539   28.4633   45.5238 H   0  0  0  0  0  0  0  0  0  0  0  0
   58.5230   28.1720   47.4480 C   0  0  0  0  0  0  0  0  0  0  0  0
   57.7680   27.0030   47.7960 N   0  0  0  0  0  0  0  0  0  0  0  0
   57.5640   25.8830   46.9260 C   0  0  0  0  0  0  0  0  0  0  0  0
   58.5670   25.2580   46.4940 O   0  0  0  0  0  0  0  0  0  0  0  0
   56.1990   25.4140   46.6000 C   0  0  0  0  0  0  0  0  0  0  0  0
   55.8450   24.1400   46.9200 N   0  0  0  0  0  0  0  0  0  0  0  0
   54.6180   23.6260   46.6420 C   0  0  0  0  0  0  0  0  0  0  0  0
   54.3930   22.3800   46.9640 N   0  0  0  0  0  0  0  0  0  0  0  0
   54.1730   21.2680   46.0860 C   0  0  0  0  0  0  0  0  0  0  0  0
   53.0550   20.6910   46.0920 O   0  0  0  0  0  0  0  0  0  0  0  0
   55.1910   20.8140   45.1860 N   0  0  0  0  0  0  0  0  0  0  0  0
   56.4520   21.4570   44.9660 C   0  0  0  0  0  0  0  0  0  0  0  0
   57.6000   21.0900   45.6920 C   0  0  0  0  0  0  0  0  0  0  0  0
   57.5520   20.2593   46.4114 H   0  0  0  0  0  0  0  0  0  0  0  0
   58.8020   21.7790   45.5010 C   0  0  0  0  0  0  0  0  0  0  0  0
   59.6950   21.4946   46.0769 H   0  0  0  0  0  0  0  0  0  0  0  0
   58.8710   22.8270   44.5810 C   0  0  0  0  0  0  0  0  0  0  0  0
   59.8218   23.3566   44.4209 H   0  0  0  0  0  0  0  0  0  0  0  0
   57.7330   23.2030   43.8640 C   0  0  0  0  0  0  0  0  0  0  0  0
   57.7877   24.0303   43.1411 H   0  0  0  0  0  0  0  0  0  0  0  0
   56.5240   22.5290   44.0640 C   0  0  0  0  0  0  0  0  0  0  0  0
   55.4210   22.9130   43.3730 F   0  0  0  0  0  0  0  0  0  0  0  0
   53.6820   24.4570   45.9760 C   0  0  0  0  0  0  0  0  0  0  0  0
   52.5440   24.0420   45.6360 O   0  0  0  0  0  0  0  0  0  0  0  0
   54.0340   25.7310   45.6620 N   0  0  0  0  0  0  0  0  0  0  0  0
   55.2600   26.2320   45.9550 C   0  0  0  0  0  0  0  0  0  0  0  0
   55.5600   27.5470   45.6190 O   0  0  0  0  0  0  0  0  0  0  0  0
   59.5170   28.6320   48.3180 C   0  0  0  0  0  0  0  0  0  0  0  0
   59.7156   28.0935   49.2564 H   0  0  0  0  0  0  0  0  0  0  0  0
   60.2590   29.7730   48.0000 C   0  0  0  0  0  0  0  0  0  0  0  0
   61.0259   30.1400   48.6980 H   0  0  0  0  0  0  0  0  0  0  0  0
   62.9400   32.0830   47.4650 C   0  0  0  0  0  0  0  0  0  0  0  0
   63.4201   31.2957   46.8653 H   0  0  0  0  0  0  0  0  0  0  0  0
   63.6990   32.8310   48.3710 C   0  0  0  0  0  0  0  0  0  0  0  0
   64.7761   32.6349   48.4777 H   0  0  0  0  0  0  0  0  0  0  0  0
  1  2  1  0
  2  3  2  0
  3  4  1  0
  3  5  1  0
  5  6  1  0
  5  7  2  0
  7  8  1  0
  8  9  1  0
  9 10  2  0
 10 11  1  0
 10 12  1  0
 12 13  1  0
 12 14  2  0
 14 15  1  0
 15 16  1  0
 16 17  2  0
 16 18  1  0
 18 19  1  0
 19 20  1  0
 20 21  2  0
 21 22  1  0
 22 23  2  0
 22 24  1  0
 24 25  1  0
 25 26  2  0
 26 27  1  0
 26 28  1  0
 28 29  1  0
 28 30  2  0
 30 31  1  0
 30 32  1  0
 32 33  1  0
 32 34  2  0
 34 35  1  0
 20 36  1  0
 36 37  2  0
 36 38  1  0
 38 39  1  0
 39 40  1  0
 14 41  1  0
 41 42  1  0
 41 43  2  0
 43 44  1  0
  7 45  1  0
 45 46  1  0
 45 47  2  0
 47 48  1  0
 47  2  1  0
 43  9  1  0
 39 18  2  0
 34 25  1  0
M  CHG  5  15  -1  19  -1  24  -1  38  -1  40  -1
M  END
>  <UniqueID>  (69) 
65

>  <SMILES>  (69) 
O=C(/N=c1/[n-]c(C(=O)[N-]c2ccc(Oc3ccccc3)cc2)c([O-])[n-]c1=O)[N-]c1ccccc1F

>  <Energy>  (69) 
81.11635989619303

>  <Genealogy>  (69) 
O=C(N=c1[n-]c(C(=O)[N-]c2ccc(Oc3ccccc3)cc2)c([O-])[n-]c1=O)[N-]c1ccccc1F (protonated)
O=C(/N=c1/[n-]c(C(=O)[N-]c2ccc(Oc3ccccc3)cc2)c([O-])[n-]c1=O)[N-]c1ccccc1F (cis-trans isomerization)
O=C(/N=c1/[n-]c(C(=O)[N-]c2ccc(Oc3ccccc3)cc2)c([O-])[n-]c1=O)[N-]c1ccccc1F (3D coordinates assigned)
O=C(/N=c1/[n-]c(C(=O)[N-]c2ccc(Oc3ccccc3)cc2)c([O-])[n-]c1=O)[N-]c1ccccc1F (optimized conformer: 81.11635989619303 kcal/mol)

>  <smiles>  (69) 
O=C(N=c1[nH]c(C(=O)Nc2ccc(Oc3ccccc3)cc2)c(O)[nH]c1=O)Nc1ccccc1F

>  <score_type>  (69) 
oracle

>  <origin>  (69) 
adg

>  <m_score__min__energy>  (69) 
-17.170000000000002

>  <m_primary>  (69) 
energy

$$$$
69:0
     RDKit          3D

 32 34  0  0  1  0  0  0  0  0999 V2000
   58.4220   34.5870   46.5000 O   0  0  0  0  0  0  0  0  0  0  0  0
   59.1430   33.8330   45.8490 C   0  0  0  0  0  0  0  0  0  0  0  0
   60.5410   33.8020   45.7870 N   0  0  0  0  0  0  0  0  0  0  0  0
   61.2550   33.8420   46.8370 C   0  0  0  0  0  0  0  0  0  0  0  0
   62.5880   33.4950   47.0370 C   0  0  0  0  0  0  0  0  0  0  0  0
   62.8160   33.7440   48.3810 C   0  0  0  0  0  0  0  0  0  0  0  0
   61.6920   34.2130   48.9610 N   0  0  0  0  0  0  0  0  0  0  0  0
   60.7720   34.2660   48.0310 N   0  0  0  0  0  0  0  0  0  0  0  0
   58.4390   32.8180   45.0160 C   0  0  0  0  0  0  0  0  0  0  0  0
   58.3150   32.9840   43.6520 C   0  0  0  0  0  0  0  0  0  0  0  0
   57.6900   32.0890   42.8220 C   0  0  0  0  0  0  0  0  0  0  0  0
   57.5510   32.3390   41.0800 Cl  0  0  0  0  0  0  0  0  0  0  0  0
   57.1580   30.9580   43.4050 C   0  0  0  0  0  0  0  0  0  0  0  0
   57.2670   30.7680   44.7660 C   0  0  0  0  0  0  0  0  0  0  0  0
   56.6940   29.5810   45.2590 O   0  0  0  0  0  0  0  0  0  0  0  0
   57.4240   28.3940   45.3330 C   0  0  0  0  0  0  0  0  0  0  0  0
   57.7710   27.6230   44.2600 C   0  0  0  0  0  0  0  0  0  0  0  0
   58.4870   26.4890   44.5050 N   0  0  0  0  0  0  0  0  0  0  0  0
   58.8450   26.1300   45.7440 C   0  0  0  0  0  0  0  0  0  0  0  0
   58.4970   26.9020   46.8120 N   0  0  0  0  0  0  0  0  0  0  0  0
   57.7900   28.0380   46.6460 C   0  0  0  0  0  0  0  0  0  0  0  0
   57.9010   31.6780   45.5990 C   0  0  0  0  0  0  0  0  0  0  0  0
   63.3014   33.1092   46.2939 H   0  0  0  0  0  0  0  0  0  0  0  0
   63.7730   33.5829   48.8989 H   0  0  0  0  0  0  0  0  0  0  0  0
   61.5440   34.4900   49.9670 H   0  0  0  0  0  0  0  0  0  0  0  0
   59.7840   34.6050   48.2240 H   0  0  0  0  0  0  0  0  0  0  0  0
   58.7444   33.8912   43.2020 H   0  0  0  0  0  0  0  0  0  0  0  0
   56.6468   30.2076   42.7840 H   0  0  0  0  0  0  0  0  0  0  0  0
   57.4835   27.9065   43.2368 H   0  0  0  0  0  0  0  0  0  0  0  0
   59.4229   25.2073   45.9009 H   0  0  0  0  0  0  0  0  0  0  0  0
   57.5090   28.6646   47.5053 H   0  0  0  0  0  0  0  0  0  0  0  0
   57.9750   31.5030   46.6825 H   0  0  0  0  0  0  0  0  0  0  0  0
  1  2  2  0
  2  3  1  0
  3  4  2  0
  4  5  1  0
  5  6  2  0
  6  7  1  0
  7  8  1  0
  2  9  1  0
  9 10  2  0
 10 11  1  0
 11 12  1  0
 11 13  2  0
 13 14  1  0
 14 15  1  0
 15 16  1  0
 16 17  2  0
 17 18  1  0
 18 19  2  0
 19 20  1  0
 20 21  2  0
 14 22  2  0
  8  4  1  0
 22  9  1  0
 21 16  1  0
  5 23  1  0
  6 24  1  0
  7 25  1  0
  8 26  1  0
 10 27  1  0
 13 28  1  0
 17 29  1  0
 19 30  1  0
 21 31  1  0
 22 32  1  0
M  END
>  <smiles>  (70) 
O=C(N=c1cc[nH][nH]1)c1cc(Cl)cc(Oc2cncnc2)c1

>  <score_type>  (70) 
oracle

>  <origin>  (70) 
adg

>  <m_score__min__energy>  (70) 
-7.5999999999999996

>  <m_primary>  (70) 
energy

$$$$
70:0
     RDKit          3D

 48 51  0  0  0  0  0  0  0  0999 V2000
   56.2490   20.1120   44.7340 C   0  0  0  0  0  0  0  0  0  0  0  0
   56.5220   21.5850   44.6490 C   0  0  0  0  0  0  0  0  0  0  0  0
   56.7710   22.1850   43.4090 C   0  0  0  0  0  0  0  0  0  0  0  0
   56.9960   23.5600   43.3250 C   0  0  0  0  0  0  0  0  0  0  0  0
   56.9490   24.3660   44.4760 C   0  0  0  0  0  0  0  0  0  0  0  0
   57.2200   25.7760   44.3800 N   0  0  0  0  0  0  0  0  0  0  0  0
   58.2930   26.4240   45.0820 C   0  0  0  0  0  0  0  0  0  0  0  0
   59.1910   25.7350   45.6380 O   0  0  0  0  0  0  0  0  0  0  0  0
   58.3440   27.9010   45.1650 C   0  0  0  0  0  0  0  0  0  0  0  0
   57.2870   28.7260   44.8180 C   0  0  0  0  0  0  0  0  0  0  0  0
   57.7200   30.0030   45.0880 C   0  0  0  0  0  0  0  0  0  0  0  0
   57.0750   31.2120   44.8680 C   0  0  0  0  0  0  0  0  0  0  0  0
   55.9120   31.2100   44.3790 O   0  0  0  0  0  0  0  0  0  0  0  0
   57.7220   32.3880   45.1770 N   0  0  0  0  0  0  0  0  0  0  0  0
   57.0510   33.6740   44.9000 C   0  0  0  0  0  0  0  0  0  0  0  0
   58.9820   32.3610   45.7670 C   0  0  0  0  0  0  0  0  0  0  0  0
   59.6410   33.5570   46.1460 C   0  0  0  0  0  0  0  0  0  0  0  0
   60.8680   33.5240   46.8040 C   0  0  0  0  0  0  0  0  0  0  0  0
   61.4590   32.3080   47.1280 C   0  0  0  0  0  0  0  0  0  0  0  0
   62.9690   32.2820   48.0220 Cl  0  0  0  0  0  0  0  0  0  0  0  0
   60.8450   31.1120   46.7620 C   0  0  0  0  0  0  0  0  0  0  0  0
   59.6380   31.1130   46.0320 C   0  0  0  0  0  0  0  0  0  0  0  0
   58.9850   29.9330   45.6060 C   0  0  0  0  0  0  0  0  0  0  0  0
   59.4020   28.6360   45.6100 N   0  0  0  0  0  0  0  0  0  0  0  0
   60.7620   28.1220   45.8040 C   0  0  0  0  0  0  0  0  0  0  0  0
   56.6800   23.7670   45.7280 C   0  0  0  0  0  0  0  0  0  0  0  0
   56.6270   24.5910   46.9860 C   0  0  0  0  0  0  0  0  0  0  0  0
   56.4670   22.3800   45.8020 C   0  0  0  0  0  0  0  0  0  0  0  0
   56.1930   19.8098   45.7902 H   0  0  0  0  0  0  0  0  0  0  0  0
   55.2938   19.8868   44.2371 H   0  0  0  0  0  0  0  0  0  0  0  0
   57.0600   19.5595   44.2371 H   0  0  0  0  0  0  0  0  0  0  0  0
   56.7894   21.5703   42.4970 H   0  0  0  0  0  0  0  0  0  0  0  0
   57.2123   24.0176   42.3484 H   0  0  0  0  0  0  0  0  0  0  0  0
   56.6580   26.3460   43.7090 H   0  0  0  0  0  0  0  0  0  0  0  0
   56.3098   28.4242   44.4129 H   0  0  0  0  0  0  0  0  0  0  0  0
   56.7944   34.1658   45.8499 H   0  0  0  0  0  0  0  0  0  0  0  0
   57.7257   34.3225   44.3219 H   0  0  0  0  0  0  0  0  0  0  0  0
   56.1331   33.4916   44.3219 H   0  0  0  0  0  0  0  0  0  0  0  0
   59.1759   34.5271   45.9168 H   0  0  0  0  0  0  0  0  0  0  0  0
   61.3722   34.4651   47.0688 H   0  0  0  0  0  0  0  0  0  0  0  0
   61.3073   30.1551   47.0459 H   0  0  0  0  0  0  0  0  0  0  0  0
   60.9737   28.0420   46.8805 H   0  0  0  0  0  0  0  0  0  0  0  0
   60.8486   27.1291   45.3385 H   0  0  0  0  0  0  0  0  0  0  0  0
   61.4837   28.8094   45.3385 H   0  0  0  0  0  0  0  0  0  0  0  0
   56.6697   23.9266   47.8616 H   0  0  0  0  0  0  0  0  0  0  0  0
   57.4826   25.2820   47.0080 H   0  0  0  0  0  0  0  0  0  0  0  0
   55.6900   25.1667   47.0080 H   0  0  0  0  0  0  0  0  0  0  0  0
   56.2548   21.9132   46.7752 H   0  0  0  0  0  0  0  0  0  0  0  0
  1  2  1  0
  2  3  2  0
  3  4  1  0
  4  5  2  0
  5  6  1  0
  6  7  1  0
  7  8  2  0
  7  9  1  0
  9 10  2  0
 10 11  1  0
 11 12  1  0
 12 13  2  0
 12 14  1  0
 14 15  1  0
 14 16  1  0
 16 17  2  0
 17 18  1  0
 18 19  2  0
 19 20  1  0
 19 21  1  0
 21 22  2  0
 22 23  1  0
 23 24  1  0
 24 25  1  0
  5 26  1  0
 26 27  1  0
 26 28  2  0
 28  2  1  0
 24  9  1  0
 23 11  2  0
 22 16  1  0
  1 29  1  0
  1 30  1  0
  1 31  1  0
  3 32  1  0
  4 33  1  0
  6 34  1  0
 10 35  1  0
 15 36  1  0
 15 37  1  0
 15 38  1  0
 17 39  1  0
 18 40  1  0
 21 41  1  0
 25 42  1  0
 25 43  1  0
 25 44  1  0
 27 45  1  0
 27 46  1  0
 27 47  1  0
 28 48  1  0
M  END
>  <UniqueID>  (71) 
66

>  <SMILES>  (71) 
Cc1ccc(NC(=O)c2cc3c(=O)n(C)c4ccc(Cl)cc4c3n2C)c(C)c1

>  <Energy>  (71) 
109.66063822705416

>  <Genealogy>  (71) 
Cc1ccc(NC(=O)c2cc3c(=O)n(C)c4ccc(Cl)cc4c3n2C)c(C)c1 (3D coordinates assigned)
Cc1ccc(NC(=O)c2cc3c(=O)n(C)c4ccc(Cl)cc4c3n2C)c(C)c1 (optimized conformer: 109.66063822705416 kcal/mol)

>  <smiles>  (71) 
Cc1ccc(NC(=O)c2cc3c(=O)n(C)c4ccc(Cl)cc4c3n2C)c(C)c1

>  <score_type>  (71) 
oracle

>  <origin>  (71) 
adg

>  <m_score__min__energy>  (71) 
-8.7200000000000006

>  <m_primary>  (71) 
energy

$$$$
71:0
     RDKit          3D

 48 50  0  0  0  0  0  0  0  0999 V2000
   57.8030   29.5680   46.2320 H   0  0  0  0  0  0  0  0  0  0  0  0
   58.1520   30.4570   46.5690 O   0  0  0  0  0  0  0  0  0  0  0  0
   58.2860   31.5780   45.7470 C   0  0  0  0  0  0  0  0  0  0  0  0
   57.9320   31.5040   44.3850 C   0  0  0  0  0  0  0  0  0  0  0  0
   57.4230   30.2710   43.8520 N   0  0  0  0  0  0  0  0  0  0  0  0
   56.1280   29.7220   44.1160 C   0  0  0  0  0  0  0  0  0  0  0  0
   55.1950   29.9370   43.2990 O   0  0  0  0  0  0  0  0  0  0  0  0
   55.9270   28.8840   45.2650 N   0  0  0  0  0  0  0  0  0  0  0  0
   56.5710   27.8030   45.5860 C   0  0  0  0  0  0  0  0  0  0  0  0
   57.9140   27.7860   45.6900 N   0  0  0  0  0  0  0  0  0  0  0  0
   58.3800   26.5800   46.1150 C   0  0  0  0  0  0  0  0  0  0  0  0
   59.8180   26.3060   46.3130 C   0  0  0  0  0  0  0  0  0  0  0  0
   60.2633   25.4854   45.7313 H   0  0  0  0  0  0  0  0  0  0  0  0
   60.6240   26.9820   47.1490 C   0  0  0  0  0  0  0  0  0  0  0  0
   61.7051   26.9472   46.9491 H   0  0  0  0  0  0  0  0  0  0  0  0
   60.1730   27.7680   48.3150 C   0  0  0  0  0  0  0  0  0  0  0  0
   59.0900   28.5830   48.1820 N   0  0  0  0  0  0  0  0  0  0  0  0
   58.6310   29.3420   49.2140 C   0  0  0  0  0  0  0  0  0  0  0  0
   57.7490   29.9841   49.0736 H   0  0  0  0  0  0  0  0  0  0  0  0
   59.2780   29.3070   50.4510 C   0  0  0  0  0  0  0  0  0  0  0  0
   58.8995   29.9041   51.2937 H   0  0  0  0  0  0  0  0  0  0  0  0
   60.4100   28.5060   50.6060 C   0  0  0  0  0  0  0  0  0  0  0  0
   60.9357   28.4758   51.5718 H   0  0  0  0  0  0  0  0  0  0  0  0
   60.8740   27.7430   49.5330 C   0  0  0  0  0  0  0  0  0  0  0  0
   61.7797   27.1280   49.6397 H   0  0  0  0  0  0  0  0  0  0  0  0
   57.3990   25.6110   46.3170 C   0  0  0  0  0  0  0  0  0  0  0  0
   57.5728   24.5713   46.6312 H   0  0  0  0  0  0  0  0  0  0  0  0
   55.9010   26.3100   45.9960 S   0  0  0  0  0  0  0  0  0  0  0  0
   58.1380   32.6180   43.5580 C   0  0  0  0  0  0  0  0  0  0  0  0
   57.8953   32.5550   42.4870 H   0  0  0  0  0  0  0  0  0  0  0  0
   58.6470   33.8020   44.0820 C   0  0  0  0  0  0  0  0  0  0  0  0
   58.7966   34.6698   43.4228 H   0  0  0  0  0  0  0  0  0  0  0  0
   58.9700   33.8990   45.4380 C   0  0  0  0  0  0  0  0  0  0  0  0
   59.6560   35.4250   45.9860 Cl  0  0  0  0  0  0  0  0  0  0  0  0
   58.7790   32.7860   46.2910 C   0  0  0  0  0  0  0  0  0  0  0  0
   59.1890   32.8470   48.0230 S   0  0  0  0  0  0  0  0  0  0  0  0
   58.1540   32.0840   48.8010 O   0  0  0  0  0  0  0  0  0  0  0  0
   59.1900   34.2600   48.5350 O   0  0  0  0  0  0  0  0  0  0  0  0
   60.7980   32.1000   48.2920 C   0  0  0  0  0  0  0  0  0  0  0  0
   60.7956   31.6150   49.2793 H   0  0  0  0  0  0  0  0  0  0  0  0
   61.0810   31.0280   47.2370 C   0  0  0  0  0  0  0  0  0  0  0  0
   61.3313   30.0799   47.7356 H   0  0  0  0  0  0  0  0  0  0  0  0
   60.1892   30.8875   46.6086 H   0  0  0  0  0  0  0  0  0  0  0  0
   61.9260   31.3460   46.6086 H   0  0  0  0  0  0  0  0  0  0  0  0
   61.8900   33.1710   48.2800 C   0  0  0  0  0  0  0  0  0  0  0  0
   62.1576   33.4334   49.3142 H   0  0  0  0  0  0  0  0  0  0  0  0
   62.7778   32.7837   47.7586 H   0  0  0  0  0  0  0  0  0  0  0  0
   61.5200   34.0661   47.7586 H   0  0  0  0  0  0  0  0  0  0  0  0
  1  2  1  0
  2  3  1  0
  3  4  2  0
  4  5  1  0
  5  6  1  0
  6  7  2  0
  6  8  1  0
  8  9  2  0
  9 10  1  0
 10 11  1  0
 11 12  1  0
 12 13  1  0
 12 14  2  3
 14 15  1  0
 14 16  1  0
 16 17  2  0
 17 18  1  0
 18 19  1  0
 18 20  2  0
 20 21  1  0
 20 22  1  0
 22 23  1  0
 22 24  2  0
 24 25  1  0
 11 26  2  0
 26 27  1  0
 26 28  1  0
  4 29  1  0
 29 30  1  0
 29 31  2  0
 31 32  1  0
 31 33  1  0
 33 34  1  0
 33 35  2  0
 35 36  1  0
 36 37  2  0
 36 38  2  0
 36 39  1  0
 39 40  1  0
 39 41  1  0
 41 42  1  0
 41 43  1  0
 41 44  1  0
 39 45  1  0
 45 46  1  0
 45 47  1  0
 45 48  1  0
 35  3  1  0
 28  9  1  0
 24 16  1  0
M  CHG  2   5  -1  10  -1
M  END
>  <UniqueID>  (72) 
67

>  <SMILES>  (72) 
CC(C)S(=O)(=O)c1c(Cl)ccc([N-]C(=O)/N=c2/[n-]c(C=Cc3ccccn3)cs2)c1O

>  <Energy>  (72) 
90.76029271439522

>  <Genealogy>  (72) 
CC(C)S(=O)(=O)c1c(Cl)ccc([N-]C(=O)N=c2[n-]c(C=Cc3ccccn3)cs2)c1O (protonated)
CC(C)S(=O)(=O)c1c(Cl)ccc([N-]C(=O)/N=c2/[n-]c(C=Cc3ccccn3)cs2)c1O (cis-trans isomerization)
CC(C)S(=O)(=O)c1c(Cl)ccc([N-]C(=O)/N=c2/[n-]c(C=Cc3ccccn3)cs2)c1O (3D coordinates assigned)
CC(C)S(=O)(=O)c1c(Cl)ccc([N-]C(=O)/N=c2/[n-]c(C=Cc3ccccn3)cs2)c1O (optimized conformer: 90.76029271439522 kcal/mol)

>  <smiles>  (72) 
CC(C)S(=O)(=O)c1c(Cl)ccc(NC(=O)N=c2[nH]c(C=Cc3ccccn3)cs2)c1O

>  <score_type>  (72) 
oracle

>  <origin>  (72) 
adg

>  <m_score__min__energy>  (72) 
-13.18

>  <m_primary>  (72) 
energy

$$$$
72:0
     RDKit          3D

 50 52  0  0  0  0  0  0  0  0999 V2000
   57.4630   31.9240   42.1480 C   0  0  0  0  0  0  0  0  0  0  0  0
   57.7610   31.7220   43.6390 C   0  0  0  0  0  0  0  0  0  0  0  0
   58.3850   32.9860   44.2480 C   0  0  0  0  0  0  0  0  0  0  0  0
   56.5340   31.2170   44.4390 C   0  0  0  0  0  0  0  0  0  0  0  0
   55.8420   29.9670   43.8720 C   0  0  0  0  0  0  0  0  0  0  0  0
   55.7730   28.9190   44.8860 N   0  0  0  0  0  0  0  0  0  0  0  0
   56.9060   28.2230   45.4220 C   0  0  0  0  0  0  0  0  0  0  0  0
   56.8470   26.9690   45.5370 O   0  0  0  0  0  0  0  0  0  0  0  0
   58.1140   28.9300   45.8880 C   0  0  0  0  0  0  0  0  0  0  0  0
   59.2450   29.0440   45.0660 C   0  0  0  0  0  0  0  0  0  0  0  0
   60.3820   29.7210   45.5170 C   0  0  0  0  0  0  0  0  0  0  0  0
   60.4140   30.2750   46.8100 C   0  0  0  0  0  0  0  0  0  0  0  0
   61.5500   31.0200   47.2820 N   0  0  0  0  0  0  0  0  0  0  0  0
   61.4670   32.1200   48.2040 C   0  0  0  0  0  0  0  0  0  0  0  0
   60.3740   32.7320   48.3590 O   0  0  0  0  0  0  0  0  0  0  0  0
   62.6300   32.5560   48.9270 N   0  0  0  0  0  0  0  0  0  0  0  0
   62.6140   33.6630   49.8860 C   0  0  0  0  0  0  0  0  0  0  0  0
   64.0020   33.6690   50.4130 C   0  0  0  0  0  0  0  0  0  0  0  0
   64.5500   34.5130   51.3800 C   0  0  0  0  0  0  0  0  0  0  0  0
   65.8920   34.3290   51.7470 C   0  0  0  0  0  0  0  0  0  0  0  0
   66.6590   33.3110   51.1450 C   0  0  0  0  0  0  0  0  0  0  0  0
   66.0870   32.4730   50.1740 C   0  0  0  0  0  0  0  0  0  0  0  0
   64.7510   32.6750   49.8260 C   0  0  0  0  0  0  0  0  0  0  0  0
   63.9400   31.9070   48.8490 C   0  0  0  0  0  0  0  0  0  0  0  0
   59.2830   30.1540   47.6310 C   0  0  0  0  0  0  0  0  0  0  0  0
   58.1480   29.4740   47.1800 C   0  0  0  0  0  0  0  0  0  0  0  0
   56.5573   32.5379   42.0350 H   0  0  0  0  0  0  0  0  0  0  0  0
   58.3129   32.4329   41.6699 H   0  0  0  0  0  0  0  0  0  0  0  0
   57.3051   30.9460   41.6699 H   0  0  0  0  0  0  0  0  0  0  0  0
   58.5049   30.9152   43.7149 H   0  0  0  0  0  0  0  0  0  0  0  0
   58.3519   32.9190   45.3455 H   0  0  0  0  0  0  0  0  0  0  0  0
   59.4304   33.0747   43.9174 H   0  0  0  0  0  0  0  0  0  0  0  0
   57.8197   33.8698   43.9174 H   0  0  0  0  0  0  0  0  0  0  0  0
   56.8681   30.9850   45.4610 H   0  0  0  0  0  0  0  0  0  0  0  0
   55.7880   32.0238   44.3883 H   0  0  0  0  0  0  0  0  0  0  0  0
   54.8227   30.2303   43.5531 H   0  0  0  0  0  0  0  0  0  0  0  0
   56.4226   29.5960   43.0145 H   0  0  0  0  0  0  0  0  0  0  0  0
   59.2372   28.5980   44.0605 H   0  0  0  0  0  0  0  0  0  0  0  0
   61.2565   29.8211   44.8573 H   0  0  0  0  0  0  0  0  0  0  0  0
   62.4840   30.7840   46.8800 H   0  0  0  0  0  0  0  0  0  0  0  0
   62.3763   34.6144   49.3876 H   0  0  0  0  0  0  0  0  0  0  0  0
   61.8528   33.5450   50.6713 H   0  0  0  0  0  0  0  0  0  0  0  0
   63.9436   35.3047   51.8441 H   0  0  0  0  0  0  0  0  0  0  0  0
   66.3469   34.9813   52.5070 H   0  0  0  0  0  0  0  0  0  0  0  0
   67.7104   33.1723   51.4371 H   0  0  0  0  0  0  0  0  0  0  0  0
   66.6782   31.6762   49.6990 H   0  0  0  0  0  0  0  0  0  0  0  0
   64.3612   31.9868   47.8360 H   0  0  0  0  0  0  0  0  0  0  0  0
   63.9039   30.8295   49.0672 H   0  0  0  0  0  0  0  0  0  0  0  0
   59.2893   30.5977   48.6375 H   0  0  0  0  0  0  0  0  0  0  0  0
   57.2766   29.3650   47.8424 H   0  0  0  0  0  0  0  0  0  0  0  0
  1  2  1  0
  2  3  1  0
  2  4  1  0
  4  5  1  0
  5  6  1  0
  6  7  1  0
  7  8  2  0
  7  9  1  0
  9 10  2  0
 10 11  1  0
 11 12  2  0
 12 13  1  0
 13 14  1  0
 14 15  2  0
 14 16  1  0
 16 17  1  0
 17 18  1  0
 18 19  2  0
 19 20  1  0
 20 21  2  0
 21 22  1  0
 22 23  2  0
 23 24  1  0
 12 25  1  0
 25 26  2  0
 26  9  1  0
 24 16  1  0
 23 18  1  0
  1 27  1  0
  1 28  1  0
  1 29  1  0
  2 30  1  0
  3 31  1  0
  3 32  1  0
  3 33  1  0
  4 34  1  0
  4 35  1  0
  5 36  1  0
  5 37  1  0
 10 38  1  0
 11 39  1  0
 13 40  1  0
 17 41  1  0
 17 42  1  0
 19 43  1  0
 20 44  1  0
 21 45  1  0
 22 46  1  0
 24 47  1  0
 24 48  1  0
 25 49  1  0
 26 50  1  0
M  CHG  1   6  -1
M  END
>  <UniqueID>  (73) 
68

>  <SMILES>  (73) 
CC(C)CC[N-]C(=O)c1ccc(NC(=O)N2Cc3ccccc3C2)cc1

>  <Energy>  (73) 
63.213300645867896

>  <Genealogy>  (73) 
CC(C)CC[N-]C(=O)c1ccc(NC(=O)N2Cc3ccccc3C2)cc1 (protonated)
CC(C)CC[N-]C(=O)c1ccc(NC(=O)N2Cc3ccccc3C2)cc1 (3D coordinates assigned)
CC(C)CC[N-]C(=O)c1ccc(NC(=O)N2Cc3ccccc3C2)cc1 (nonaromatic ring conformer: 63.213300645867896 kcal/mol)

>  <smiles>  (73) 
CC(C)CCNC(=O)c1ccc(NC(=O)N2Cc3ccccc3C2)cc1

>  <score_type>  (73) 
oracle

>  <origin>  (73) 
adg

>  <m_score__min__energy>  (73) 
-8.9700000000000006

>  <m_primary>  (73) 
energy

$$$$
73:0
     RDKit          3D

 72 75  0  0  0  0  0  0  0  0999 V2000
   64.1400   32.9020   51.4670 C   0  0  0  0  0  0  0  0  0  0  0  0
   64.0140   31.4560   51.7180 N   0  0  0  0  0  0  0  0  0  0  0  0
   65.3080   30.9190   52.1690 C   0  0  0  0  0  0  0  0  0  0  0  0
   62.9740   31.1870   52.7330 C   0  0  0  0  0  0  0  0  0  0  0  0
   61.7500   30.5680   52.0900 C   0  0  0  0  0  0  0  0  0  0  0  0
   60.4920   31.1920   52.1980 C   0  0  0  0  0  0  0  0  0  0  0  0
   60.3600   32.3780   52.9170 O   0  0  0  0  0  0  0  0  0  0  0  0
   59.3680   30.6320   51.5750 C   0  0  0  0  0  0  0  0  0  0  0  0
   58.0250   31.3130   51.6570 C   0  0  0  0  0  0  0  0  0  0  0  0
   58.1360   32.6770   51.1260 N   0  0  0  0  0  0  0  0  0  0  0  0
   58.6830   32.7030   49.7610 C   0  0  0  0  0  0  0  0  0  0  0  0
   59.6480   33.8790   49.5350 C   0  0  0  0  0  0  0  0  0  0  0  0
   60.8080   33.4530   48.6680 C   0  0  0  0  0  0  0  0  0  0  0  0
   61.8130   32.6380   49.2160 C   0  0  0  0  0  0  0  0  0  0  0  0
   62.9120   32.2500   48.4450 C   0  0  0  0  0  0  0  0  0  0  0  0
   63.0240   32.6800   47.1220 C   0  0  0  0  0  0  0  0  0  0  0  0
   62.0420   33.5030   46.5680 C   0  0  0  0  0  0  0  0  0  0  0  0
   60.9370   33.8980   47.3320 C   0  0  0  0  0  0  0  0  0  0  0  0
   59.7430   34.9560   46.5840 Cl  0  0  0  0  0  0  0  0  0  0  0  0
   59.5090   29.4640   50.8170 C   0  0  0  0  0  0  0  0  0  0  0  0
   60.7490   28.8180   50.6990 C   0  0  0  0  0  0  0  0  0  0  0  0
   60.8090   27.5690   49.8440 C   0  0  0  0  0  0  0  0  0  0  0  0
   60.6570   27.8960   48.4090 N   0  0  0  0  0  0  0  0  0  0  0  0
   59.4360   27.2820   47.8390 C   0  0  0  0  0  0  0  0  0  0  0  0
   59.1780   27.7840   46.4150 C   0  0  0  0  0  0  0  0  0  0  0  0
   59.0600   29.2470   46.4010 N   0  0  0  0  0  0  0  0  0  0  0  0
   58.3890   29.9080   45.3050 C   0  0  0  0  0  0  0  0  0  0  0  0
   57.5580   29.1800   44.4310 C   0  0  0  0  0  0  0  0  0  0  0  0
   56.9060   29.8210   43.3740 C   0  0  0  0  0  0  0  0  0  0  0  0
   57.0720   31.1930   43.1750 C   0  0  0  0  0  0  0  0  0  0  0  0
   57.8890   31.9290   44.0360 C   0  0  0  0  0  0  0  0  0  0  0  0
   58.5450   31.2920   45.0950 C   0  0  0  0  0  0  0  0  0  0  0  0
   59.5180   30.0070   47.5700 C   0  0  0  0  0  0  0  0  0  0  0  0
   60.7790   29.3610   48.1650 C   0  0  0  0  0  0  0  0  0  0  0  0
   61.8850   29.3830   51.3340 C   0  0  0  0  0  0  0  0  0  0  0  0
   63.1590   28.8140   51.2290 O   0  0  0  0  0  0  0  0  0  0  0  0
   64.1867   33.4380   52.4264 H   0  0  0  0  0  0  0  0  0  0  0  0
   65.0584   33.0960   50.8936 H   0  0  0  0  0  0  0  0  0  0  0  0
   63.2689   33.2519   50.8936 H   0  0  0  0  0  0  0  0  0  0  0  0
   65.3368   30.9070   53.2686 H   0  0  0  0  0  0  0  0  0  0  0  0
   65.4329   29.8948   51.7878 H   0  0  0  0  0  0  0  0  0  0  0  0
   66.1214   31.5539   51.7878 H   0  0  0  0  0  0  0  0  0  0  0  0
   63.3755   30.4944   53.4874 H   0  0  0  0  0  0  0  0  0  0  0  0
   62.6846   32.1374   53.2052 H   0  0  0  0  0  0  0  0  0  0  0  0
   57.2902   30.7476   51.0651 H   0  0  0  0  0  0  0  0  0  0  0  0
   57.6971   31.3530   52.7062 H   0  0  0  0  0  0  0  0  0  0  0  0
   58.7500   33.2420   51.7600 H   0  0  0  0  0  0  0  0  0  0  0  0
   59.2244   31.7627   49.5801 H   0  0  0  0  0  0  0  0  0  0  0  0
   57.8396   32.8246   49.0654 H   0  0  0  0  0  0  0  0  0  0  0  0
   59.1084   34.6998   49.0398 H   0  0  0  0  0  0  0  0  0  0  0  0
   60.0358   34.2127   50.5088 H   0  0  0  0  0  0  0  0  0  0  0  0
   61.7340   32.3026   50.2606 H   0  0  0  0  0  0  0  0  0  0  0  0
   63.6893   31.6053   48.8811 H   0  0  0  0  0  0  0  0  0  0  0  0
   63.8873   32.3699   46.5149 H   0  0  0  0  0  0  0  0  0  0  0  0
   62.1367   33.8429   45.5261 H   0  0  0  0  0  0  0  0  0  0  0  0
   58.6311   29.0444   50.3040 H   0  0  0  0  0  0  0  0  0  0  0  0
   61.7793   27.0744   49.9986 H   0  0  0  0  0  0  0  0  0  0  0  0
   59.9838   26.9043   50.1394 H   0  0  0  0  0  0  0  0  0  0  0  0
   59.5601   26.1892   47.8175 H   0  0  0  0  0  0  0  0  0  0  0  0
   58.5784   27.5620   48.4683 H   0  0  0  0  0  0  0  0  0  0  0  0
   60.0141   27.4817   45.7672 H   0  0  0  0  0  0  0  0  0  0  0  0
   58.2377   27.3470   46.0478 H   0  0  0  0  0  0  0  0  0  0  0  0
   57.4213   28.0990   44.5816 H   0  0  0  0  0  0  0  0  0  0  0  0
   56.2601   29.2429   42.6968 H   0  0  0  0  0  0  0  0  0  0  0  0
   56.5595   31.6940   42.3405 H   0  0  0  0  0  0  0  0  0  0  0  0
   58.0169   33.0106   43.8814 H   0  0  0  0  0  0  0  0  0  0  0  0
   59.1879   31.8769   45.7692 H   0  0  0  0  0  0  0  0  0  0  0  0
   59.7481   31.0385   47.2649 H   0  0  0  0  0  0  0  0  0  0  0  0
   58.7232   30.0076   48.3305 H   0  0  0  0  0  0  0  0  0  0  0  0
   61.6134   29.5264   47.4675 H   0  0  0  0  0  0  0  0  0  0  0  0
   60.9435   29.8324   49.1452 H   0  0  0  0  0  0  0  0  0  0  0  0
   64.0250   29.3320   51.2540 H   0  0  0  0  0  0  0  0  0  0  0  0
  1  2  1  0
  2  3  1  0
  2  4  1  0
  4  5  1  0
  5  6  2  0
  6  7  1  0
  6  8  1  0
  8  9  1  0
  9 10  1  0
 10 11  1  0
 11 12  1  0
 12 13  1  0
 13 14  2  0
 14 15  1  0
 15 16  2  0
 16 17  1  0
 17 18  2  0
 18 19  1  0
  8 20  2  0
 20 21  1  0
 21 22  1  0
 22 23  1  0
 23 24  1  0
 24 25  1  0
 25 26  1  0
 26 27  1  0
 27 28  2  0
 28 29  1  0
 29 30  2  0
 30 31  1  0
 31 32  2  0
 26 33  1  0
 33 34  1  0
 21 35  2  0
 35 36  1  0
 35  5  1  0
 18 13  1  0
 34 23  1  0
 32 27  1  0
  1 37  1  0
  1 38  1  0
  1 39  1  0
  3 40  1  0
  3 41  1  0
  3 42  1  0
  4 43  1  0
  4 44  1  0
  9 45  1  0
  9 46  1  0
 10 47  1  0
 11 48  1  0
 11 49  1  0
 12 50  1  0
 12 51  1  0
 14 52  1  0
 15 53  1  0
 16 54  1  0
 17 55  1  0
 20 56  1  0
 22 57  1  0
 22 58  1  0
 24 59  1  0
 24 60  1  0
 25 61  1  0
 25 62  1  0
 28 63  1  0
 29 64  1  0
 30 65  1  0
 31 66  1  0
 32 67  1  0
 33 68  1  0
 33 69  1  0
 34 70  1  0
 34 71  1  0
 36 72  1  0
M  CHG  1   7  -1
M  END
>  <UniqueID>  (74) 
69

>  <SMILES>  (74) 
CN(C)Cc1c([O-])c(CNCCc2ccccc2Cl)cc(CN2CCN(c3ccccc3)CC2)c1O

>  <Energy>  (74) 
88.52047799711129

>  <Genealogy>  (74) 
CN(C)Cc1c([O-])c(CNCCc2ccccc2Cl)cc(CN2CCN(c3ccccc3)CC2)c1O (protonated)
CN(C)Cc1c([O-])c(CNCCc2ccccc2Cl)cc(CN2CCN(c3ccccc3)CC2)c1O (3D coordinates assigned)
CN(C)Cc1c([O-])c(CNCCc2ccccc2Cl)cc(CN2CCN(c3ccccc3)CC2)c1O (nonaromatic ring conformer: 88.52047799711129 kcal/mol)

>  <smiles>  (74) 
CN(C)Cc1c(O)c(CNCCc2ccccc2Cl)cc(CN2CCN(c3ccccc3)CC2)c1O

>  <score_type>  (74) 
oracle

>  <origin>  (74) 
adg

>  <m_score__min__energy>  (74) 
-11.26

>  <m_primary>  (74) 
energy

$$$$
74:0
     RDKit          3D

 37 38  0  0  0  0  0  0  0  0999 V2000
   56.2920   20.9500   44.3990 C   0  0  0  0  0  0  0  0  0  0  0  0
   55.5230   22.1470   44.3720 O   0  0  0  0  0  0  0  0  0  0  0  0
   55.9970   23.4030   44.7810 C   0  0  0  0  0  0  0  0  0  0  0  0
   57.3730   23.6400   44.7390 C   0  0  0  0  0  0  0  0  0  0  0  0
   57.8960   24.8720   45.1350 C   0  0  0  0  0  0  0  0  0  0  0  0
   57.0480   25.9040   45.5820 C   0  0  0  0  0  0  0  0  0  0  0  0
   57.6150   27.2200   45.9920 C   0  0  0  0  0  0  0  0  0  0  0  0
   57.3980   27.6630   47.1520 O   0  0  0  0  0  0  0  0  0  0  0  0
   58.4630   28.0440   45.0620 C   0  0  0  0  0  0  0  0  0  0  0  0
   57.6460   28.8440   44.2100 O   0  0  0  0  0  0  0  0  0  0  0  0
   56.8800   29.9230   44.6660 C   0  0  0  0  0  0  0  0  0  0  0  0
   55.6420   29.7750   44.8590 O   0  0  0  0  0  0  0  0  0  0  0  0
   57.5190   31.2410   44.9240 C   0  0  0  0  0  0  0  0  0  0  0  0
   57.5290   32.2150   43.9150 C   0  0  0  0  0  0  0  0  0  0  0  0
   58.1280   33.4510   44.1380 C   0  0  0  0  0  0  0  0  0  0  0  0
   58.7200   33.7150   45.3690 C   0  0  0  0  0  0  0  0  0  0  0  0
   58.7160   32.7760   46.3600 N   0  0  0  0  0  0  0  0  0  0  0  0
   59.3620   33.0800   47.6450 C   0  0  0  0  0  0  0  0  0  0  0  0
   58.1360   31.5460   46.1600 C   0  0  0  0  0  0  0  0  0  0  0  0
   58.1630   30.6850   47.0820 O   0  0  0  0  0  0  0  0  0  0  0  0
   55.6560   25.6640   45.6220 C   0  0  0  0  0  0  0  0  0  0  0  0
   54.7710   26.6540   46.0370 O   0  0  0  0  0  0  0  0  0  0  0  0
   55.1410   24.4250   45.2280 C   0  0  0  0  0  0  0  0  0  0  0  0
   56.4795   20.6581   45.4429 H   0  0  0  0  0  0  0  0  0  0  0  0
   55.7398   20.1478   43.8875 H   0  0  0  0  0  0  0  0  0  0  0  0
   57.2511   21.1187   43.8875 H   0  0  0  0  0  0  0  0  0  0  0  0
   58.0514   22.8475   44.3902 H   0  0  0  0  0  0  0  0  0  0  0  0
   58.9826   25.0389   45.0976 H   0  0  0  0  0  0  0  0  0  0  0  0
   59.1167   28.7001   45.6554 H   0  0  0  0  0  0  0  0  0  0  0  0
   59.0657   27.3664   44.4394 H   0  0  0  0  0  0  0  0  0  0  0  0
   57.0611   32.0009   42.9428 H   0  0  0  0  0  0  0  0  0  0  0  0
   58.1334   34.2144   43.3461 H   0  0  0  0  0  0  0  0  0  0  0  0
   59.1963   34.6906   45.5457 H   0  0  0  0  0  0  0  0  0  0  0  0
   58.7029   32.7698   48.4692 H   0  0  0  0  0  0  0  0  0  0  0  0
   60.3157   32.5362   47.7137 H   0  0  0  0  0  0  0  0  0  0  0  0
   59.5508   34.1615   47.7137 H   0  0  0  0  0  0  0  0  0  0  0  0
   54.0560   24.2483   45.2682 H   0  0  0  0  0  0  0  0  0  0  0  0
  1  2  1  0
  2  3  1  0
  3  4  2  0
  4  5  1  0
  5  6  2  0
  6  7  1  0
  7  8  2  0
  7  9  1  0
  9 10  1  0
 10 11  1  0
 11 12  2  0
 11 13  1  0
 13 14  2  0
 14 15  1  0
 15 16  2  0
 16 17  1  0
 17 18  1  0
 17 19  1  0
 19 20  2  0
  6 21  1  0
 21 22  1  0
 21 23  2  0
 23  3  1  0
 19 13  1  0
  1 24  1  0
  1 25  1  0
  1 26  1  0
  4 27  1  0
  5 28  1  0
  9 29  1  0
  9 30  1  0
 14 31  1  0
 15 32  1  0
 16 33  1  0
 18 34  1  0
 18 35  1  0
 18 36  1  0
 23 37  1  0
M  CHG  1  22  -1
M  END
>  <UniqueID>  (75) 
70

>  <SMILES>  (75) 
COc1ccc(C(=O)COC(=O)c2cccn(C)c2=O)c([O-])c1

>  <Energy>  (75) 
42.26955144824556

>  <Genealogy>  (75) 
COc1ccc(C(=O)COC(=O)c2cccn(C)c2=O)c([O-])c1 (protonated)
COc1ccc(C(=O)COC(=O)c2cccn(C)c2=O)c([O-])c1 (3D coordinates assigned)
COc1ccc(C(=O)COC(=O)c2cccn(C)c2=O)c([O-])c1 (optimized conformer: 42.26955144824556 kcal/mol)

>  <smiles>  (75) 
COc1ccc(C(=O)COC(=O)c2cccn(C)c2=O)c(O)c1

>  <score_type>  (75) 
oracle

>  <origin>  (75) 
adg

>  <m_score__min__energy>  (75) 
-11.81

>  <m_primary>  (75) 
energy

$$$$
75:0
     RDKit          3D

 29 30  0  0  0  0  0  0  0  0999 V2000
   59.9410   34.7500   45.0230 H   0  0  0  0  0  0  0  0  0  0  0  0
   59.6060   34.3580   44.1510 O   0  0  0  0  0  0  0  0  0  0  0  0
   58.7270   33.2770   44.1280 C   0  0  0  0  0  0  0  0  0  0  0  0
   58.2930   32.7450   42.9080 C   0  0  0  0  0  0  0  0  0  0  0  0
   58.6467   33.1839   41.9634 H   0  0  0  0  0  0  0  0  0  0  0  0
   57.4150   31.6620   42.8830 C   0  0  0  0  0  0  0  0  0  0  0  0
   57.0736   31.2572   41.9188 H   0  0  0  0  0  0  0  0  0  0  0  0
   56.9640   31.0850   44.0810 C   0  0  0  0  0  0  0  0  0  0  0  0
   56.0210   29.9410   44.0630 C   0  0  0  0  0  0  0  0  0  0  0  0
   55.3690   29.6970   43.0120 O   0  0  0  0  0  0  0  0  0  0  0  0
   55.8670   29.0560   45.1850 N   0  0  0  0  0  0  0  0  0  0  0  0
   56.6730   28.0870   45.5120 C   0  0  0  0  0  0  0  0  0  0  0  0
   58.0270   28.2520   45.4640 N   0  0  0  0  0  0  0  0  0  0  0  0
   58.8880   27.2600   45.8160 C   0  0  0  0  0  0  0  0  0  0  0  0
   59.9737   27.4277   45.7595 H   0  0  0  0  0  0  0  0  0  0  0  0
   58.3930   26.0290   46.2490 C   0  0  0  0  0  0  0  0  0  0  0  0
   59.0835   25.2209   46.5321 H   0  0  0  0  0  0  0  0  0  0  0  0
   57.0130   25.8340   46.3190 C   0  0  0  0  0  0  0  0  0  0  0  0
   56.6099   24.8694   46.6612 H   0  0  0  0  0  0  0  0  0  0  0  0
   56.1440   26.8650   45.9540 C   0  0  0  0  0  0  0  0  0  0  0  0
   54.7690   26.6700   46.0270 O   0  0  0  0  0  0  0  0  0  0  0  0
   57.3880   31.6310   45.3060 C   0  0  0  0  0  0  0  0  0  0  0  0
   57.0227   31.2005   46.2500 H   0  0  0  0  0  0  0  0  0  0  0  0
   58.2760   32.7240   45.3350 C   0  0  0  0  0  0  0  0  0  0  0  0
   58.7290   33.2880   46.5390 O   0  0  0  0  0  0  0  0  0  0  0  0
   58.5290   32.7110   47.8250 C   0  0  0  0  0  0  0  0  0  0  0  0
   58.7843   33.4476   48.6011 H   0  0  0  0  0  0  0  0  0  0  0  0
   57.4755   32.4140   47.9338 H   0  0  0  0  0  0  0  0  0  0  0  0
   59.1727   31.8257   47.9338 H   0  0  0  0  0  0  0  0  0  0  0  0
  1  2  1  0
  2  3  1  0
  3  4  2  0
  4  5  1  0
  4  6  1  0
  6  7  1  0
  6  8  2  0
  8  9  1  0
  9 10  2  0
  9 11  1  0
 11 12  2  0
 12 13  1  0
 13 14  1  0
 14 15  1  0
 14 16  2  0
 16 17  1  0
 16 18  1  0
 18 19  1  0
 18 20  2  0
 20 21  1  0
  8 22  1  0
 22 23  1  0
 22 24  2  0
 24 25  1  0
 25 26  1  0
 26 27  1  0
 26 28  1  0
 26 29  1  0
 24  3  1  0
 20 12  1  0
M  CHG  2  13  -1  21  -1
M  END
>  <UniqueID>  (76) 
71

>  <SMILES>  (76) 
COc1cc(C(=O)/N=c2\[n-]cccc2[O-])ccc1O

>  <Energy>  (76) 
38.11756527309393

>  <Genealogy>  (76) 
COc1cc(C(=O)N=c2[n-]cccc2[O-])ccc1O (protonated)
COc1cc(C(=O)/N=c2\[n-]cccc2[O-])ccc1O (cis-trans isomerization)
COc1cc(C(=O)/N=c2\[n-]cccc2[O-])ccc1O (3D coordinates assigned)
COc1cc(C(=O)/N=c2\[n-]cccc2[O-])ccc1O (optimized conformer: 38.11756527309393 kcal/mol)

>  <smiles>  (76) 
COc1cc(C(=O)N=c2[nH]cccc2O)ccc1O

>  <score_type>  (76) 
oracle

>  <origin>  (76) 
adg

>  <m_score__min__energy>  (76) 
-11.06

>  <m_primary>  (76) 
energy

$$$$
76:0
     RDKit          3D

 51 55  0  0  0  0  0  0  0  0999 V2000
   60.3972   26.3887   47.4073 H   0  0  0  0  0  0  0  0  0  0  0  0
   59.8830   27.3580   47.4850 C   0  0  0  0  0  0  0  0  0  0  0  0
   60.1750   28.3020   48.3320 N   0  0  0  0  0  0  0  0  0  0  0  0
   59.2770   29.3520   48.1010 N   0  0  0  0  0  0  0  0  0  0  0  0
   59.5180   30.6760   48.1210 C   0  0  0  0  0  0  0  0  0  0  0  0
   60.3260   31.2820   48.9390 N   0  0  0  0  0  0  0  0  0  0  0  0
   61.7560   31.4660   48.7140 C   0  0  0  0  0  0  0  0  0  0  0  0
   62.2796   31.4555   49.6813 H   0  0  0  0  0  0  0  0  0  0  0  0
   62.1253   30.6495   48.0760 H   0  0  0  0  0  0  0  0  0  0  0  0
   62.0170   32.8000   48.0140 C   0  0  0  0  0  0  0  0  0  0  0  0
   62.3658   33.5363   48.7531 H   0  0  0  0  0  0  0  0  0  0  0  0
   62.7836   32.6550   47.2385 H   0  0  0  0  0  0  0  0  0  0  0  0
   60.7740   33.2950   47.3790 N   0  0  0  0  0  0  0  0  0  0  0  0
   60.0680   34.2590   48.2510 C   0  0  0  0  0  0  0  0  0  0  0  0
   59.6510   33.7192   49.1140 H   0  0  0  0  0  0  0  0  0  0  0  0
   60.7919   35.0217   48.5738 H   0  0  0  0  0  0  0  0  0  0  0  0
   58.9190   34.9730   47.5050 C   0  0  0  0  0  0  0  0  0  0  0  0
   58.0366   35.0104   48.1608 H   0  0  0  0  0  0  0  0  0  0  0  0
   59.2568   35.9864   47.2424 H   0  0  0  0  0  0  0  0  0  0  0  0
   58.5620   34.2730   46.2660 N   0  0  0  0  0  0  0  0  0  0  0  0
   58.2640   33.2980   46.5070 H   0  0  0  0  0  0  0  0  0  0  0  0
   59.7080   34.2060   45.3420 C   0  0  0  0  0  0  0  0  0  0  0  0
   59.5201   33.4110   44.6054 H   0  0  0  0  0  0  0  0  0  0  0  0
   59.8056   35.1908   44.8618 H   0  0  0  0  0  0  0  0  0  0  0  0
   61.0370   33.9060   46.0630 C   0  0  0  0  0  0  0  0  0  0  0  0
   61.6333   33.2120   45.4525 H   0  0  0  0  0  0  0  0  0  0  0  0
   61.5883   34.8469   46.2071 H   0  0  0  0  0  0  0  0  0  0  0  0
   58.8730   31.3150   47.1190 N   0  0  0  0  0  0  0  0  0  0  0  0
   58.2570   30.2930   46.4690 C   0  0  0  0  0  0  0  0  0  0  0  0
   57.7080   30.4520   45.1150 C   0  0  0  0  0  0  0  0  0  0  0  0
   56.6300   29.6540   44.7040 C   0  0  0  0  0  0  0  0  0  0  0  0
   56.2022   28.9118   45.3940 H   0  0  0  0  0  0  0  0  0  0  0  0
   56.0980   29.8000   43.4190 C   0  0  0  0  0  0  0  0  0  0  0  0
   55.2624   29.1625   43.0945 H   0  0  0  0  0  0  0  0  0  0  0  0
   56.6270   30.7550   42.5470 C   0  0  0  0  0  0  0  0  0  0  0  0
   56.2126   30.8641   41.5339 H   0  0  0  0  0  0  0  0  0  0  0  0
   57.6830   31.5720   42.9620 C   0  0  0  0  0  0  0  0  0  0  0  0
   58.0926   32.3299   42.2781 H   0  0  0  0  0  0  0  0  0  0  0  0
   58.2190   31.4270   44.2450 C   0  0  0  0  0  0  0  0  0  0  0  0
   59.0426   32.0783   44.5729 H   0  0  0  0  0  0  0  0  0  0  0  0
   58.4710   29.1130   47.1000 N   0  0  0  0  0  0  0  0  0  0  0  0
   58.7560   27.7950   46.6490 C   0  0  0  0  0  0  0  0  0  0  0  0
   58.0460   27.0290   45.8120 C   0  0  0  0  0  0  0  0  0  0  0  0
   58.0426   27.3006   44.7461 H   0  0  0  0  0  0  0  0  0  0  0  0
   57.2690   25.8470   46.2220 C   0  0  0  0  0  0  0  0  0  0  0  0
   57.8340   24.7180   46.6810 N   0  0  0  0  0  0  0  0  0  0  0  0
   56.7760   23.9350   46.9820 C   0  0  0  0  0  0  0  0  0  0  0  0
   56.9030   22.7680   47.4340 O   0  0  0  0  0  0  0  0  0  0  0  0
   55.5710   24.5050   46.7670 N   0  0  0  0  0  0  0  0  0  0  0  0
   55.8990   25.7190   46.2970 C   0  0  0  0  0  0  0  0  0  0  0  0
   54.9630   26.6960   45.9790 O   0  0  0  0  0  0  0  0  0  0  0  0
  1  2  1  0
  2  3  2  0
  3  4  1  0
  4  5  1  0
  5  6  2  3
  6  7  1  0
  7  8  1  0
  7  9  1  0
  7 10  1  0
 10 11  1  0
 10 12  1  0
 10 13  1  0
 13 14  1  0
 14 15  1  0
 14 16  1  0
 14 17  1  0
 17 18  1  0
 17 19  1  0
 17 20  1  0
 20 21  1  0
 20 22  1  0
 22 23  1  0
 22 24  1  0
 22 25  1  0
 25 26  1  0
 25 27  1  0
  5 28  1  0
 28 29  2  0
 29 30  1  0
 30 31  2  0
 31 32  1  0
 31 33  1  0
 33 34  1  0
 33 35  2  0
 35 36  1  0
 35 37  1  0
 37 38  1  0
 37 39  2  0
 39 40  1  0
 29 41  1  0
 41 42  1  0
 42 43  2  0
 43 44  1  0
 43 45  1  0
 45 46  1  0
 46 47  1  0
 47 48  2  0
 47 49  1  0
 49 50  1  0
 50 51  1  0
 42  2  1  0
 50 45  2  0
 41  4  1  0
 25 13  1  0
 39 30  1  0
M  CHG  3  46  -1  49  -1  51  -1
M  END
>  <UniqueID>  (77) 
72

>  <SMILES>  (77) 
O=c1[n-]c([O-])c(/C=C2/C=Nn3c(=NCCN4CCNCC4)nc(-c4ccccc4)n32)[n-]1

>  <Energy>  (77) 
196.6310710302256

>  <Genealogy>  (77) 
O=c1[n-]c([O-])c(C=C2C=Nn3c(=NCCN4CCNCC4)nc(-c4ccccc4)n32)[n-]1 (protonated)
O=c1[n-]c([O-])c(/C=C2/C=Nn3c(=NCCN4CCNCC4)nc(-c4ccccc4)n32)[n-]1 (cis-trans isomerization)
O=c1[n-]c([O-])c(/C=C2/C=Nn3c(=NCCN4CCNCC4)nc(-c4ccccc4)n32)[n-]1 (3D coordinates assigned)
O=c1[n-]c([O-])c(/C=C2/C=Nn3c(=NCCN4CCNCC4)nc(-c4ccccc4)n32)[n-]1 (nonaromatic ring conformer: 196.6310710302256 kcal/mol)

>  <smiles>  (77) 
O=c1[nH]c(O)c(C=C2C=Nn3c(=NCCN4CCNCC4)nc(-c4ccccc4)n32)[nH]1

>  <score_type>  (77) 
oracle

>  <origin>  (77) 
adg

>  <m_score__min__energy>  (77) 
-16.25

>  <m_primary>  (77) 
energy

$$$$
77:0
     RDKit          3D

 64 68  0  0  0  0  0  0  0  0999 V2000
   55.8900   27.7880   45.5510 N   0  0  0  0  0  0  0  0  0  0  0  0
   57.5070   28.3800   45.7240 S   0  0  0  0  0  0  0  0  0  0  0  0
   58.4340   27.4150   45.0420 O   0  0  0  0  0  0  0  0  0  0  0  0
   57.8480   28.4560   47.1840 O   0  0  0  0  0  0  0  0  0  0  0  0
   57.6440   29.9890   44.9940 C   0  0  0  0  0  0  0  0  0  0  0  0
   56.9830   30.2310   43.7780 C   0  0  0  0  0  0  0  0  0  0  0  0
   57.1080   31.4640   43.1320 C   0  0  0  0  0  0  0  0  0  0  0  0
   57.8950   32.4700   43.6910 C   0  0  0  0  0  0  0  0  0  0  0  0
   58.5460   32.2550   44.9070 C   0  0  0  0  0  0  0  0  0  0  0  0
   58.4190   31.0240   45.5780 C   0  0  0  0  0  0  0  0  0  0  0  0
   59.0980   30.8670   46.8810 C   0  0  0  0  0  0  0  0  0  0  0  0
   58.5450   31.4360   48.0360 C   0  0  0  0  0  0  0  0  0  0  0  0
   59.1690   31.2660   49.2760 C   0  0  0  0  0  0  0  0  0  0  0  0
   60.3520   30.5140   49.3770 C   0  0  0  0  0  0  0  0  0  0  0  0
   61.0200   30.3250   50.7210 C   0  0  0  0  0  0  0  0  0  0  0  0
   61.7280   29.0340   50.8140 N   0  0  0  0  0  0  0  0  0  0  0  0
   62.7190   28.9910   51.9070 C   0  0  0  0  0  0  0  0  0  0  0  0
   63.9580   29.7940   51.5810 C   0  0  0  0  0  0  0  0  0  0  0  0
   65.2310   29.2050   51.6610 C   0  0  0  0  0  0  0  0  0  0  0  0
   66.3730   29.9550   51.3740 C   0  0  0  0  0  0  0  0  0  0  0  0
   66.2580   31.2980   51.0060 C   0  0  0  0  0  0  0  0  0  0  0  0
   64.9930   31.9030   50.9200 C   0  0  0  0  0  0  0  0  0  0  0  0
   64.8590   33.3410   50.4960 C   0  0  0  0  0  0  0  0  0  0  0  0
   63.4770   33.6320   50.1140 N   0  0  0  0  0  0  0  0  0  0  0  0
   62.3860   33.8530   51.0640 C   0  0  0  0  0  0  0  0  0  0  0  0
   61.1020   34.0080   50.2130 C   0  0  0  0  0  0  0  0  0  0  0  0
   61.5940   33.8700   48.8140 C   0  0  0  0  0  0  0  0  0  0  0  0
   60.8560   33.9430   47.6300 C   0  0  0  0  0  0  0  0  0  0  0  0
   61.5310   33.7950   46.4080 C   0  0  0  0  0  0  0  0  0  0  0  0
   62.9230   33.5830   46.3890 C   0  0  0  0  0  0  0  0  0  0  0  0
   63.6450   33.5140   47.5910 C   0  0  0  0  0  0  0  0  0  0  0  0
   62.9450   33.6530   48.7980 C   0  0  0  0  0  0  0  0  0  0  0  0
   63.8440   31.1410   51.1990 C   0  0  0  0  0  0  0  0  0  0  0  0
   60.9010   29.9400   48.2200 C   0  0  0  0  0  0  0  0  0  0  0  0
   60.2730   30.1080   46.9820 C   0  0  0  0  0  0  0  0  0  0  0  0
   55.2540   28.6100   45.6430 H   0  0  0  0  0  0  0  0  0  0  0  0
   56.3609   29.4421   43.3300 H   0  0  0  0  0  0  0  0  0  0  0  0
   56.5846   31.6411   42.1809 H   0  0  0  0  0  0  0  0  0  0  0  0
   58.0031   33.4344   43.1731 H   0  0  0  0  0  0  0  0  0  0  0  0
   59.1631   33.0537   45.3443 H   0  0  0  0  0  0  0  0  0  0  0  0
   57.6151   32.0195   47.9670 H   0  0  0  0  0  0  0  0  0  0  0  0
   58.7320   31.7229   50.1762 H   0  0  0  0  0  0  0  0  0  0  0  0
   61.7446   31.1384   50.8741 H   0  0  0  0  0  0  0  0  0  0  0  0
   60.2362   30.3370   51.4927 H   0  0  0  0  0  0  0  0  0  0  0  0
   62.2190   28.8370   49.9110 H   0  0  0  0  0  0  0  0  0  0  0  0
   61.0220   28.2720   50.9500 H   0  0  0  0  0  0  0  0  0  0  0  0
   62.2600   29.4009   52.8187 H   0  0  0  0  0  0  0  0  0  0  0  0
   63.0215   27.9431   52.0500 H   0  0  0  0  0  0  0  0  0  0  0  0
   65.3283   28.1484   51.9510 H   0  0  0  0  0  0  0  0  0  0  0  0
   67.3665   29.4872   51.4378 H   0  0  0  0  0  0  0  0  0  0  0  0
   67.1617   31.8840   50.7827 H   0  0  0  0  0  0  0  0  0  0  0  0
   65.1494   33.9942   51.3320 H   0  0  0  0  0  0  0  0  0  0  0  0
   65.5144   33.5212   49.6311 H   0  0  0  0  0  0  0  0  0  0  0  0
   62.2920   32.9937   51.7443 H   0  0  0  0  0  0  0  0  0  0  0  0
   62.5671   34.7429   51.6847 H   0  0  0  0  0  0  0  0  0  0  0  0
   60.3734   33.2197   50.4532 H   0  0  0  0  0  0  0  0  0  0  0  0
   60.5813   34.9602   50.3923 H   0  0  0  0  0  0  0  0  0  0  0  0
   59.7695   34.1128   47.6547 H   0  0  0  0  0  0  0  0  0  0  0  0
   60.9709   33.8448   45.4626 H   0  0  0  0  0  0  0  0  0  0  0  0
   63.4469   33.4710   45.4283 H   0  0  0  0  0  0  0  0  0  0  0  0
   64.7334   33.3548   47.5861 H   0  0  0  0  0  0  0  0  0  0  0  0
   62.8491   31.6032   51.1175 H   0  0  0  0  0  0  0  0  0  0  0  0
   61.8301   29.3550   48.2874 H   0  0  0  0  0  0  0  0  0  0  0  0
   60.7027   29.6425   46.0828 H   0  0  0  0  0  0  0  0  0  0  0  0
  1  2  1  0
  2  3  2  0
  2  4  2  0
  2  5  1  0
  5  6  2  0
  6  7  1  0
  7  8  2  0
  8  9  1  0
  9 10  2  0
 10 11  1  0
 11 12  2  0
 12 13  1  0
 13 14  2  0
 14 15  1  0
 15 16  1  0
 16 17  1  0
 17 18  1  0
 18 19  2  0
 19 20  1  0
 20 21  2  0
 21 22  1  0
 22 23  1  0
 23 24  1  0
 24 25  1  0
 25 26  1  0
 26 27  1  0
 27 28  2  0
 28 29  1  0
 29 30  2  0
 30 31  1  0
 31 32  2  0
 22 33  2  0
 14 34  1  0
 34 35  2  0
 10  5  1  0
 35 11  1  0
 33 18  1  0
 32 24  1  0
 32 27  1  0
  1 36  1  0
  6 37  1  0
  7 38  1  0
  8 39  1  0
  9 40  1  0
 12 41  1  0
 13 42  1  0
 15 43  1  0
 15 44  1  0
 16 45  1  0
 16 46  1  0
 17 47  1  0
 17 48  1  0
 19 49  1  0
 20 50  1  0
 21 51  1  0
 23 52  1  0
 23 53  1  0
 25 54  1  0
 25 55  1  0
 26 56  1  0
 26 57  1  0
 28 58  1  0
 29 59  1  0
 30 60  1  0
 31 61  1  0
 33 62  1  0
 34 63  1  0
 35 64  1  0
M  CHG  2   1  -1  16   1
M  END
>  <UniqueID>  (78) 
73

>  <SMILES>  (78) 
[NH-]S(=O)(=O)c1ccccc1-c1ccc(C[NH2+]Cc2cccc(CN3CCc4ccccc43)c2)cc1

>  <Energy>  (78) 
90.2105143906221

>  <Genealogy>  (78) 
[NH-]S(=O)(=O)c1ccccc1-c1ccc(C[NH2+]Cc2cccc(CN3CCc4ccccc43)c2)cc1 (protonated)
[NH-]S(=O)(=O)c1ccccc1-c1ccc(C[NH2+]Cc2cccc(CN3CCc4ccccc43)c2)cc1 (3D coordinates assigned)
[NH-]S(=O)(=O)c1ccccc1-c1ccc(C[NH2+]Cc2cccc(CN3CCc4ccccc43)c2)cc1 (nonaromatic ring conformer: 90.2105143906221 kcal/mol)

>  <smiles>  (78) 
NS(=O)(=O)c1ccccc1-c1ccc(CNCc2cccc(CN3CCc4ccccc43)c2)cc1

>  <score_type>  (78) 
oracle

>  <origin>  (78) 
adg

>  <m_score__min__energy>  (78) 
-12.06

>  <m_primary>  (78) 
energy

$$$$
78:0
     RDKit          3D

 48 50  0  0  0  0  0  0  0  0999 V2000
   56.0630   24.2594   46.8125 H   0  0  0  0  0  0  0  0  0  0  0  0
   56.4940   25.1710   46.3730 C   0  0  0  0  0  0  0  0  0  0  0  0
   58.1310   25.4820   46.1410 S   0  0  0  0  0  0  0  0  0  0  0  0
   57.8500   27.0020   45.4630 C   0  0  0  0  0  0  0  0  0  0  0  0
   58.7570   27.8260   45.0360 N   0  0  0  0  0  0  0  0  0  0  0  0
   59.5430   29.0120   46.0290 S   0  0  0  0  0  0  0  0  0  0  0  0
   59.3110   28.6740   47.4760 O   0  0  0  0  0  0  0  0  0  0  0  0
   61.0170   29.0310   45.7360 O   0  0  0  0  0  0  0  0  0  0  0  0
   58.8690   30.6010   45.6820 C   0  0  0  0  0  0  0  0  0  0  0  0
   58.1570   30.8180   44.4950 C   0  0  0  0  0  0  0  0  0  0  0  0
   57.9979   29.9877   43.7912 H   0  0  0  0  0  0  0  0  0  0  0  0
   57.6490   32.0850   44.2030 C   0  0  0  0  0  0  0  0  0  0  0  0
   57.0944   32.2523   43.2679 H   0  0  0  0  0  0  0  0  0  0  0  0
   57.8440   33.1410   45.0970 C   0  0  0  0  0  0  0  0  0  0  0  0
   57.4499   34.1397   44.8575 H   0  0  0  0  0  0  0  0  0  0  0  0
   58.5380   32.9360   46.2960 C   0  0  0  0  0  0  0  0  0  0  0  0
   58.7390   34.0530   47.1730 N   0  0  0  0  0  0  0  0  0  0  0  0
   59.8140   34.2250   48.1070 C   0  0  0  0  0  0  0  0  0  0  0  0
   59.6550   34.9430   49.1280 O   0  0  0  0  0  0  0  0  0  0  0  0
   61.1150   33.5580   47.8480 C   0  0  0  0  0  0  0  0  0  0  0  0
   62.0100   34.1940   46.9660 C   0  0  0  0  0  0  0  0  0  0  0  0
   61.7242   35.1476   46.4982 H   0  0  0  0  0  0  0  0  0  0  0  0
   63.2540   33.6320   46.6770 C   0  0  0  0  0  0  0  0  0  0  0  0
   63.9371   34.1391   45.9797 H   0  0  0  0  0  0  0  0  0  0  0  0
   63.6320   32.4300   47.2700 C   0  0  0  0  0  0  0  0  0  0  0  0
   64.6124   31.9876   47.0395 H   0  0  0  0  0  0  0  0  0  0  0  0
   62.7680   31.7870   48.1560 C   0  0  0  0  0  0  0  0  0  0  0  0
   63.0793   30.8432   48.6275 H   0  0  0  0  0  0  0  0  0  0  0  0
   61.5030   32.3280   48.4560 C   0  0  0  0  0  0  0  0  0  0  0  0
   60.6590   31.6120   49.4940 C   0  0  0  0  0  0  0  0  0  0  0  0
   61.0871   30.6147   49.6731 H   0  0  0  0  0  0  0  0  0  0  0  0
   59.6321   31.5408   49.1061 H   0  0  0  0  0  0  0  0  0  0  0  0
   60.6110   32.3760   50.8230 C   0  0  0  0  0  0  0  0  0  0  0  0
   60.2219   33.3887   50.6414 H   0  0  0  0  0  0  0  0  0  0  0  0
   61.6292   32.4215   51.2368 H   0  0  0  0  0  0  0  0  0  0  0  0
   59.7450   31.6970   51.7910 N   0  0  0  0  0  0  0  0  0  0  0  0
   58.1110   31.5880   51.2060 S   0  0  0  0  0  0  0  0  0  0  0  0
   57.9920   32.3100   49.8920 O   0  0  0  0  0  0  0  0  0  0  0  0
   57.7090   30.1520   51.0290 O   0  0  0  0  0  0  0  0  0  0  0  0
   57.0270   32.3510   52.3900 C   0  0  0  0  0  0  0  0  0  0  0  0
   57.3683   32.1108   53.4077 H   0  0  0  0  0  0  0  0  0  0  0  0
   57.0379   33.4417   52.2475 H   0  0  0  0  0  0  0  0  0  0  0  0
   56.0039   31.9728   52.2475 H   0  0  0  0  0  0  0  0  0  0  0  0
   59.0720   31.6640   46.5750 C   0  0  0  0  0  0  0  0  0  0  0  0
   59.6506   31.5027   47.4965 H   0  0  0  0  0  0  0  0  0  0  0  0
   56.5330   27.2880   45.4050 N   0  0  0  0  0  0  0  0  0  0  0  0
   55.7840   26.2720   45.9100 C   0  0  0  0  0  0  0  0  0  0  0  0
   54.3980   26.3390   45.9540 O   0  0  0  0  0  0  0  0  0  0  0  0
  1  2  1  0
  2  3  1  0
  3  4  1  0
  4  5  2  0
  5  6  1  0
  6  7  2  0
  6  8  2  0
  6  9  1  0
  9 10  2  0
 10 11  1  0
 10 12  1  0
 12 13  1  0
 12 14  2  0
 14 15  1  0
 14 16  1  0
 16 17  1  0
 17 18  1  0
 18 19  2  0
 18 20  1  0
 20 21  2  0
 21 22  1  0
 21 23  1  0
 23 24  1  0
 23 25  2  0
 25 26  1  0
 25 27  1  0
 27 28  1  0
 27 29  2  0
 29 30  1  0
 30 31  1  0
 30 32  1  0
 30 33  1  0
 33 34  1  0
 33 35  1  0
 33 36  1  0
 36 37  1  0
 37 38  2  0
 37 39  2  0
 37 40  1  0
 40 41  1  0
 40 42  1  0
 40 43  1  0
 16 44  2  0
 44 45  1  0
  4 46  1  0
 46 47  1  0
 47 48  1  0
 47  2  2  0
 44  9  1  0
 29 20  1  0
M  CHG  4  17  -1  36  -1  46  -1  48  -1
M  END
>  <UniqueID>  (79) 
74

>  <SMILES>  (79) 
CS(=O)(=O)[N-]CCc1ccccc1C(=O)[N-]c1cccc(S(=O)(=O)/N=c2/[n-]c([O-])cs2)c1

>  <Energy>  (79) 
87.61271111311216

>  <Genealogy>  (79) 
CS(=O)(=O)[N-]CCc1ccccc1C(=O)[N-]c1cccc(S(=O)(=O)N=c2[n-]c([O-])cs2)c1 (protonated)
CS(=O)(=O)[N-]CCc1ccccc1C(=O)[N-]c1cccc(S(=O)(=O)/N=c2/[n-]c([O-])cs2)c1 (cis-trans isomerization)
CS(=O)(=O)[N-]CCc1ccccc1C(=O)[N-]c1cccc(S(=O)(=O)/N=c2/[n-]c([O-])cs2)c1 (3D coordinates assigned)
CS(=O)(=O)[N-]CCc1ccccc1C(=O)[N-]c1cccc(S(=O)(=O)/N=c2/[n-]c([O-])cs2)c1 (optimized conformer: 87.61271111311216 kcal/mol)

>  <smiles>  (79) 
CS(=O)(=O)NCCc1ccccc1C(=O)Nc1cccc(S(=O)(=O)N=c2[nH]c(O)cs2)c1

>  <score_type>  (79) 
oracle

>  <origin>  (79) 
adg

>  <m_score__min__energy>  (79) 
-18.859999999999999

>  <m_primary>  (79) 
energy

$$$$
79:0
     RDKit          3D

 53 55  0  0  0  0  0  0  0  0999 V2000
   59.1150   34.7020   54.0400 C   0  0  0  0  0  0  0  0  0  0  0  0
   58.4890   34.0710   52.7920 C   0  0  1  0  0  0  0  0  0  0  0  0
   59.5500   33.8390   51.6990 C   0  0  0  0  0  0  0  0  0  0  0  0
   59.1620   32.8540   50.6630 N   0  0  0  0  0  0  0  0  0  0  0  0
   60.0570   32.6390   49.5220 C   0  0  0  0  0  0  0  0  0  0  0  0
   61.3300   33.2550   49.4600 C   0  0  0  0  0  0  0  0  0  0  0  0
   62.1780   33.0530   48.3700 C   0  0  0  0  0  0  0  0  0  0  0  0
   63.7420   33.8500   48.3190 Cl  0  0  0  0  0  0  0  0  0  0  0  0
   61.7890   32.2240   47.3200 C   0  0  0  0  0  0  0  0  0  0  0  0
   60.5470   31.5760   47.3530 C   0  0  0  0  0  0  0  0  0  0  0  0
   60.1240   30.6860   46.2440 C   0  0  0  0  0  0  0  0  0  0  0  0
   58.9690   30.8180   45.7530 O   0  0  0  0  0  0  0  0  0  0  0  0
   61.0000   29.6680   45.7330 N   0  0  0  0  0  0  0  0  0  0  0  0
   60.6360   28.8220   44.5990 C   0  0  0  0  0  0  0  0  0  0  0  0
   59.5230   27.8850   44.9830 C   0  0  0  0  0  0  0  0  0  0  0  0
   58.7740   27.2230   43.9970 C   0  0  0  0  0  0  0  0  0  0  0  0
   57.7260   26.3720   44.3610 C   0  0  0  0  0  0  0  0  0  0  0  0
   57.4180   26.1710   45.7140 C   0  0  0  0  0  0  0  0  0  0  0  0
   56.0890   25.1130   46.1750 S   0  0  0  0  0  0  0  0  0  0  0  0
   54.5870   25.9330   45.9360 N   0  0  0  0  0  0  0  0  0  0  0  0
   56.1140   23.8620   45.3410 O   0  0  0  0  0  0  0  0  0  0  0  0
   56.2260   24.7300   47.6220 O   0  0  0  0  0  0  0  0  0  0  0  0
   58.1570   26.8390   46.6990 C   0  0  0  0  0  0  0  0  0  0  0  0
   59.2040   27.6910   46.3350 C   0  0  0  0  0  0  0  0  0  0  0  0
   59.6890   31.7920   48.4460 C   0  0  0  0  0  0  0  0  0  0  0  0
   58.0120   31.9410   50.8500 C   0  0  0  0  0  0  0  0  0  0  0  0
   57.0650   32.3370   51.9990 C   0  0  1  0  0  0  0  0  0  0  0  0
   56.1830   31.1580   52.4160 C   0  0  0  0  0  0  0  0  0  0  0  0
   57.8190   32.8220   53.1560 N   0  0  0  0  0  0  0  0  0  0  0  0
   58.6699   34.2533   54.9403 H   0  0  0  0  0  0  0  0  0  0  0  0
   60.1999   34.5203   54.0378 H   0  0  0  0  0  0  0  0  0  0  0  0
   58.9247   35.7854   54.0378 H   0  0  0  0  0  0  0  0  0  0  0  0
   57.7414   34.7636   52.3781 H   0  0  0  0  0  0  0  0  0  0  0  0
   60.4704   33.4821   52.1843 H   0  0  0  0  0  0  0  0  0  0  0  0
   59.6805   34.8009   51.1817 H   0  0  0  0  0  0  0  0  0  0  0  0
   61.6567   33.9044   50.2855 H   0  0  0  0  0  0  0  0  0  0  0  0
   62.4601   32.0774   46.4609 H   0  0  0  0  0  0  0  0  0  0  0  0
   61.9040   29.4680   46.2150 H   0  0  0  0  0  0  0  0  0  0  0  0
   60.3042   29.4569   43.7643 H   0  0  0  0  0  0  0  0  0  0  0  0
   61.5133   28.2311   44.2971 H   0  0  0  0  0  0  0  0  0  0  0  0
   59.0126   27.3745   42.9339 H   0  0  0  0  0  0  0  0  0  0  0  0
   57.1413   25.8586   43.5835 H   0  0  0  0  0  0  0  0  0  0  0  0
   54.7700   26.7140   45.2670 H   0  0  0  0  0  0  0  0  0  0  0  0
   57.9129   26.6928   47.7616 H   0  0  0  0  0  0  0  0  0  0  0  0
   59.7808   28.2121   47.1133 H   0  0  0  0  0  0  0  0  0  0  0  0
   58.7093   31.2922   48.4667 H   0  0  0  0  0  0  0  0  0  0  0  0
   58.4026   30.9339   51.0577 H   0  0  0  0  0  0  0  0  0  0  0  0
   57.4196   31.9888   49.9244 H   0  0  0  0  0  0  0  0  0  0  0  0
   56.4202   33.1480   51.6294 H   0  0  0  0  0  0  0  0  0  0  0  0
   56.1410   31.1018   53.5138 H   0  0  0  0  0  0  0  0  0  0  0  0
   55.1679   31.3004   52.0170 H   0  0  0  0  0  0  0  0  0  0  0  0
   56.6062   30.2244   52.0170 H   0  0  0  0  0  0  0  0  0  0  0  0
   58.5360   32.1080   53.4300 H   0  0  0  0  0  0  0  0  0  0  0  0
  1  2  1  0
  2  3  1  0
  3  4  1  0
  4  5  1  0
  5  6  2  0
  6  7  1  0
  7  8  1  0
  7  9  2  0
  9 10  1  0
 10 11  1  0
 11 12  2  0
 11 13  1  0
 13 14  1  0
 14 15  1  0
 15 16  2  0
 16 17  1  0
 17 18  2  0
 18 19  1  0
 19 20  1  0
 19 21  2  0
 19 22  2  0
 18 23  1  0
 23 24  2  0
 10 25  2  0
  4 26  1  0
 26 27  1  0
 27 28  1  0
 27 29  1  0
 29  2  1  0
 25  5  1  0
 24 15  1  0
  1 30  1  0
  1 31  1  0
  1 32  1  0
  2 33  1  6
  3 34  1  0
  3 35  1  0
  6 36  1  0
  9 37  1  0
 13 38  1  0
 14 39  1  0
 14 40  1  0
 16 41  1  0
 17 42  1  0
 20 43  1  0
 23 44  1  0
 24 45  1  0
 25 46  1  0
 26 47  1  0
 26 48  1  0
 27 49  1  6
 28 50  1  0
 28 51  1  0
 28 52  1  0
 29 53  1  0
M  CHG  1  20  -1
M  END
>  <UniqueID>  (80) 
75

>  <SMILES>  (80) 
C[C@@H]1CN(c2cc(Cl)cc(C(=O)NCc3ccc(S([NH-])(=O)=O)cc3)c2)C[C@H](C)N1

>  <Energy>  (80) 
57.99603566103494

>  <Genealogy>  (80) 
CC1CN(c2cc(Cl)cc(C(=O)NCc3ccc(S([NH-])(=O)=O)cc3)c2)CC(C)N1 (protonated)
C[C@@H]1CN(c2cc(Cl)cc(C(=O)NCc3ccc(S([NH-])(=O)=O)cc3)c2)C[C@H](C)N1 (chirality)
C[C@@H]1CN(c2cc(Cl)cc(C(=O)NCc3ccc(S([NH-])(=O)=O)cc3)c2)C[C@H](C)N1 (3D coordinates assigned)
C[C@@H]1CN(c2cc(Cl)cc(C(=O)NCc3ccc(S([NH-])(=O)=O)cc3)c2)C[C@H](C)N1 (nonaromatic ring conformer: 57.99603566103494 kcal/mol)

>  <smiles>  (80) 
CC1CN(c2cc(Cl)cc(C(=O)NCc3ccc(S(N)(=O)=O)cc3)c2)CC(C)N1

>  <score_type>  (80) 
oracle

>  <origin>  (80) 
adg

>  <m_score__min__energy>  (80) 
-11.630000000000001

>  <m_primary>  (80) 
energy

$$$$
80:0
     RDKit          3D

 42 45  0  0  0  0  0  0  0  0999 V2000
   55.1530   27.0920   45.1700 H   0  0  0  0  0  0  0  0  0  0  0  0
   55.3970   26.4790   45.9800 N   0  0  0  0  0  0  0  0  0  0  0  0
   56.7280   26.4300   46.4850 C   0  0  0  0  0  0  0  0  0  0  0  0
   57.4590   25.4370   46.2220 O   0  0  0  0  0  0  0  0  0  0  0  0
   57.2010   27.4880   47.2650 O   0  0  0  0  0  0  0  0  0  0  0  0
   58.4770   28.0390   47.1150 C   0  0  0  0  0  0  0  0  0  0  0  0
   59.3420   27.5439   47.5805 H   0  0  0  0  0  0  0  0  0  0  0  0
   58.6570   29.1640   46.4100 C   0  0  0  0  0  0  0  0  0  0  0  0
   58.9170   30.4920   46.9800 C   0  0  0  0  0  0  0  0  0  0  0  0
   59.3430   30.8890   48.2550 C   0  0  0  0  0  0  0  0  0  0  0  0
   59.6780   29.9400   49.2200 O   0  0  0  0  0  0  0  0  0  0  0  0
   59.9840   30.1990   50.1490 H   0  0  0  0  0  0  0  0  0  0  0  0
   59.4410   32.2720   48.5300 C   0  0  0  0  0  0  0  0  0  0  0  0
   59.8310   32.6970   49.8020 O   0  0  0  0  0  0  0  0  0  0  0  0
   61.1760   33.0650   50.0760 C   0  0  0  0  0  0  0  0  0  0  0  0
   61.3302   33.1072   51.1643 H   0  0  0  0  0  0  0  0  0  0  0  0
   61.8565   32.3200   49.6379 H   0  0  0  0  0  0  0  0  0  0  0  0
   61.3824   34.0526   49.6379 H   0  0  0  0  0  0  0  0  0  0  0  0
   59.1530   33.2260   47.5190 C   0  0  0  0  0  0  0  0  0  0  0  0
   59.2410   34.7000   47.8160 C   0  0  0  0  0  0  0  0  0  0  0  0
   59.2502   34.8547   48.9050 H   0  0  0  0  0  0  0  0  0  0  0  0
   60.1651   35.1074   47.3799 H   0  0  0  0  0  0  0  0  0  0  0  0
   58.3720   35.2144   47.3799 H   0  0  0  0  0  0  0  0  0  0  0  0
   58.7190   32.7870   46.2500 C   0  0  0  0  0  0  0  0  0  0  0  0
   58.4020   33.6950   45.2440 O   0  0  0  0  0  0  0  0  0  0  0  0
   58.6200   31.4150   46.0120 C   0  0  0  0  0  0  0  0  0  0  0  0
   58.2010   30.7990   44.7960 N   0  0  0  0  0  0  0  0  0  0  0  0
   56.9800   31.1650   44.1010 C   0  0  0  0  0  0  0  0  0  0  0  0
   57.2129   31.6415   43.1373 H   0  0  0  0  0  0  0  0  0  0  0  0
   56.3810   31.8868   44.6756 H   0  0  0  0  0  0  0  0  0  0  0  0
   56.2340   29.8520   43.8820 C   0  0  2  0  0  0  0  0  0  0  0  0
   55.7046   30.0988   42.9499 H   0  0  0  0  0  0  0  0  0  0  0  0
   55.8160   29.1640   45.1240 N   0  0  0  0  0  0  0  0  0  0  0  0
   56.0540   29.7460   45.9610 H   0  0  0  0  0  0  0  0  0  0  0  0
   57.0460   28.7540   44.4060 C   0  0  2  0  0  0  0  0  0  0  0  0
   57.4120   27.7667   44.0878 H   0  0  0  0  0  0  0  0  0  0  0  0
   58.3770   29.3560   44.9170 C   0  0  2  0  0  0  0  0  0  0  0  0
   59.4770   29.0050   44.0840 O   0  0  0  0  0  0  0  0  0  0  0  0
   60.6040   28.5470   44.8000 C   0  0  0  0  0  0  0  0  0  0  0  0
   60.4094   28.6261   45.8798 H   0  0  0  0  0  0  0  0  0  0  0  0
   60.8023   27.4969   44.5391 H   0  0  0  0  0  0  0  0  0  0  0  0
   61.4786   29.1611   44.5391 H   0  0  0  0  0  0  0  0  0  0  0  0
  1  2  1  0
  2  3  1  0
  3  4  2  0
  3  5  1  0
  5  6  1  0
  6  7  1  0
  6  8  2  0
  8  9  1  0
  9 10  2  0
 10 11  1  0
 11 12  1  0
 10 13  1  0
 13 14  1  0
 14 15  1  0
 15 16  1  0
 15 17  1  0
 15 18  1  0
 13 19  2  0
 19 20  1  0
 20 21  1  0
 20 22  1  0
 20 23  1  0
 19 24  1  0
 24 25  1  0
 24 26  2  0
 26 27  1  0
 27 28  1  0
 28 29  1  0
 28 30  1  0
 28 31  1  0
 31 32  1  6
 31 33  1  0
 33 34  1  0
 33 35  1  0
 35 36  1  6
 35 37  1  0
 37 38  1  6
 38 39  1  0
 39 40  1  0
 39 41  1  0
 39 42  1  0
 37  8  1  0
 26  9  1  0
 37 27  1  0
 35 31  1  0
M  CHG  2   2  -1  25  -1
M  END
>  <UniqueID>  (81) 
76

>  <SMILES>  (81) 
COc1c(C)c([O-])c2c(c1O)/C(=C/OC([NH-])=O)[C@@]1(OC)[C@H]3NC3CN21

>  <Energy>  (81) 
427.06239728724813

>  <Genealogy>  (81) 
COc1c(C)c([O-])c2c(c1O)C(=COC([NH-])=O)C1(OC)C3NC3CN21 (protonated)
COc1c(C)c([O-])c2c(c1O)C(=COC([NH-])=O)[C@@]1(OC)[C@H]3NC3CN21 (chirality)
COc1c(C)c([O-])c2c(c1O)/C(=C/OC([NH-])=O)[C@@]1(OC)[C@H]3NC3CN21 (cis-trans isomerization)
COc1c(C)c([O-])c2c(c1O)/C(=C/OC([NH-])=O)[C@@]1(OC)[C@H]3NC3CN21 (3D coordinates assigned)
COc1c(C)c([O-])c2c(c1O)/C(=C/OC([NH-])=O)[C@@]1(OC)[C@H]3NC3CN21 (nonaromatic ring conformer: 427.06239728724813 kcal/mol)

>  <smiles>  (81) 
COc1c(C)c(O)c2c(c1O)C(=COC(N)=O)C1(OC)C3NC3CN21

>  <score_type>  (81) 
oracle

>  <origin>  (81) 
adg

>  <m_score__min__energy>  (81) 
-10.800000000000001

>  <m_primary>  (81) 
energy

$$$$
81:0
     RDKit          3D

 41 44  0  0  0  0  0  0  0  0999 V2000
   58.1794   26.7107   43.9263 H   0  0  0  0  0  0  0  0  0  0  0  0
   57.6340   27.0260   44.8280 C   0  0  0  0  0  0  0  0  0  0  0  0
   57.1410   25.9780   45.7410 C   0  0  0  0  0  0  0  0  0  0  0  0
   55.8700   25.8630   46.2670 C   0  0  0  0  0  0  0  0  0  0  0  0
   54.8010   26.7110   46.0040 O   0  0  0  0  0  0  0  0  0  0  0  0
   55.7990   24.8130   47.1100 N   0  0  0  0  0  0  0  0  0  0  0  0
   57.0560   24.3210   47.0900 C   0  0  0  0  0  0  0  0  0  0  0  0
   57.4010   23.3060   47.7510 O   0  0  0  0  0  0  0  0  0  0  0  0
   57.9000   25.0160   46.2960 N   0  0  0  0  0  0  0  0  0  0  0  0
   59.2960   24.7030   45.9980 C   0  0  0  0  0  0  0  0  0  0  0  0
   59.8526   24.5782   46.9385 H   0  0  0  0  0  0  0  0  0  0  0  0
   59.3466   23.7712   45.4156 H   0  0  0  0  0  0  0  0  0  0  0  0
   59.7396   25.5240   45.4156 H   0  0  0  0  0  0  0  0  0  0  0  0
   57.4580   28.3390   45.0300 C   0  0  0  0  0  0  0  0  0  0  0  0
   56.3560   29.0890   44.6260 C   0  0  0  0  0  0  0  0  0  0  0  0
   55.4963   28.6952   44.0640 H   0  0  0  0  0  0  0  0  0  0  0  0
   56.4990   30.3740   45.0270 N   0  0  0  0  0  0  0  0  0  0  0  0
   57.6520   30.4530   45.6720 N   0  0  0  0  0  0  0  0  0  0  0  0
   58.1680   31.5490   46.2860 C   0  0  0  0  0  0  0  0  0  0  0  0
   57.4670   32.8000   46.1880 N   0  0  0  0  0  0  0  0  0  0  0  0
   57.1210   33.2390   47.0720 H   0  0  0  0  0  0  0  0  0  0  0  0
   57.4500   33.6240   44.9810 C   0  0  0  0  0  0  0  0  0  0  0  0
   56.4639   34.0841   45.1418 H   0  0  0  0  0  0  0  0  0  0  0  0
   58.1550   33.0150   43.7770 C   0  0  0  0  0  0  0  0  0  0  0  0
   58.5288   31.9815   43.8233 H   0  0  0  0  0  0  0  0  0  0  0  0
   57.9016   32.8759   42.7157 H   0  0  0  0  0  0  0  0  0  0  0  0
   58.8370   34.1060   44.5840 C   0  0  0  0  0  0  0  0  0  0  0  0
   59.7049   33.8624   45.2144 H   0  0  0  0  0  0  0  0  0  0  0  0
   59.2820   35.0840   44.3484 H   0  0  0  0  0  0  0  0  0  0  0  0
   59.4070   31.4030   46.9720 C   0  0  0  0  0  0  0  0  0  0  0  0
   60.1310   32.5820   47.5950 C   0  0  0  0  0  0  0  0  0  0  0  0
   60.3185   33.3387   46.8190 H   0  0  0  0  0  0  0  0  0  0  0  0
   61.0784   32.2224   48.0230 H   0  0  0  0  0  0  0  0  0  0  0  0
   59.3030   33.2100   48.7130 C   0  0  0  0  0  0  0  0  0  0  0  0
   59.7093   32.9018   49.6876 H   0  0  0  0  0  0  0  0  0  0  0  0
   59.3442   34.3060   48.6285 H   0  0  0  0  0  0  0  0  0  0  0  0
   58.2587   32.8748   48.6285 H   0  0  0  0  0  0  0  0  0  0  0  0
   60.0080   30.1110   46.9850 C   0  0  0  0  0  0  0  0  0  0  0  0
   61.1060   29.9190   47.5710 O   0  0  0  0  0  0  0  0  0  0  0  0
   59.4080   29.0600   46.3600 N   0  0  0  0  0  0  0  0  0  0  0  0
   58.2460   29.2570   45.6990 C   0  0  0  0  0  0  0  0  0  0  0  0
  1  2  1  0
  2  3  1  0
  3  4  2  0
  4  5  1  0
  4  6  1  0
  6  7  1  0
  7  8  2  0
  7  9  1  0
  9 10  1  0
 10 11  1  0
 10 12  1  0
 10 13  1  0
  2 14  2  0
 14 15  1  0
 15 16  1  0
 15 17  2  0
 17 18  1  0
 18 19  1  0
 19 20  1  0
 20 21  1  0
 20 22  1  0
 22 23  1  0
 22 24  1  0
 24 25  1  0
 24 26  1  0
 24 27  1  0
 27 28  1  0
 27 29  1  0
 19 30  2  0
 30 31  1  0
 31 32  1  0
 31 33  1  0
 31 34  1  0
 34 35  1  0
 34 36  1  0
 34 37  1  0
 30 38  1  0
 38 39  2  0
 38 40  1  0
 40 41  2  0
  9  3  1  0
 41 14  1  0
 41 18  1  0
 27 22  1  0
M  CHG  2   5  -1   6  -1
M  END
>  <UniqueID>  (82) 
77

>  <SMILES>  (82) 
CCc1c(NC2CC2)n2nc/c(=C/c3c([O-])[n-]c(=O)n3C)c2nc1=O

>  <Energy>  (82) 
389.14357082771363

>  <Genealogy>  (82) 
CCc1c(NC2CC2)n2ncc(=Cc3c([O-])[n-]c(=O)n3C)c2nc1=O (protonated)
CCc1c(NC2CC2)n2nc/c(=C/c3c([O-])[n-]c(=O)n3C)c2nc1=O (cis-trans isomerization)
CCc1c(NC2CC2)n2nc/c(=C/c3c([O-])[n-]c(=O)n3C)c2nc1=O (3D coordinates assigned)
CCc1c(NC2CC2)n2nc/c(=C/c3c([O-])[n-]c(=O)n3C)c2nc1=O (nonaromatic ring conformer: 389.14357082771363 kcal/mol)

>  <smiles>  (82) 
CCc1c(NC2CC2)n2ncc(=Cc3c(O)[nH]c(=O)n3C)c2nc1=O

>  <score_type>  (82) 
oracle

>  <origin>  (82) 
adg

>  <m_score__min__energy>  (82) 
-13.960000000000001

>  <m_primary>  (82) 
energy

$$$$
82:0
     RDKit          3D

 43 46  0  0  0  0  0  0  0  0999 V2000
   55.3220   23.3350   43.0010 C   0  0  0  0  0  0  0  0  0  0  0  0
   56.5600   23.0020   43.7150 N   0  0  0  0  0  0  0  0  0  0  0  0
   56.9540   21.7210   43.7800 C   0  0  0  0  0  0  0  0  0  0  0  0
   56.2770   20.7940   43.2410 O   0  0  0  0  0  0  0  0  0  0  0  0
   58.0970   21.3920   44.4290 N   0  0  0  0  0  0  0  0  0  0  0  0
   58.8670   22.3400   45.0250 C   0  0  0  0  0  0  0  0  0  0  0  0
   59.9180   21.9990   45.6170 O   0  0  0  0  0  0  0  0  0  0  0  0
   58.4240   23.6420   44.9340 C   0  0  0  0  0  0  0  0  0  0  0  0
   58.9240   24.7930   45.3980 N   0  0  0  0  0  0  0  0  0  0  0  0
   58.0900   25.8120   45.0340 C   0  0  0  0  0  0  0  0  0  0  0  0
   58.4280   27.4990   45.5030 S   0  0  0  0  0  0  0  0  0  0  0  0
   58.2340   28.6540   44.1390 C   0  0  0  0  0  0  0  0  0  0  0  0
   57.5410   29.8780   44.6720 C   0  0  0  0  0  0  0  0  0  0  0  0
   56.3130   29.8350   44.9360 O   0  0  0  0  0  0  0  0  0  0  0  0
   58.3400   31.0380   44.8480 N   0  0  0  0  0  0  0  0  0  0  0  0
   58.0510   32.2970   44.1390 C   0  0  0  0  0  0  0  0  0  0  0  0
   57.4320   33.2350   45.1890 C   0  0  0  0  0  0  0  0  0  0  0  0
   58.5290   33.3750   46.2120 C   0  0  0  0  0  0  0  0  0  0  0  0
   58.5270   34.5880   46.9000 C   0  0  0  0  0  0  0  0  0  0  0  0
   59.4910   34.8200   47.8560 C   0  0  0  0  0  0  0  0  0  0  0  0
   60.4350   33.8550   48.1170 C   0  0  0  0  0  0  0  0  0  0  0  0
   60.4130   32.6630   47.4210 C   0  0  0  0  0  0  0  0  0  0  0  0
   59.4540   32.3880   46.4460 C   0  0  0  0  0  0  0  0  0  0  0  0
   59.4900   31.0850   45.7390 C   0  0  0  0  0  0  0  0  0  0  0  0
   57.0560   25.3140   44.3360 N   0  0  0  0  0  0  0  0  0  0  0  0
   57.2550   23.9970   44.2740 C   0  0  0  0  0  0  0  0  0  0  0  0
   54.5254   23.5493   43.7286 H   0  0  0  0  0  0  0  0  0  0  0  0
   55.4896   24.2200   42.3696 H   0  0  0  0  0  0  0  0  0  0  0  0
   55.0230   22.4854   42.3696 H   0  0  0  0  0  0  0  0  0  0  0  0
   58.4300   20.3850   44.4940 H   0  0  0  0  0  0  0  0  0  0  0  0
   59.2204   28.9274   43.7363 H   0  0  0  0  0  0  0  0  0  0  0  0
   57.6444   28.1990   43.3295 H   0  0  0  0  0  0  0  0  0  0  0  0
   58.9778   32.7313   43.7359 H   0  0  0  0  0  0  0  0  0  0  0  0
   57.3723   32.1366   43.2883 H   0  0  0  0  0  0  0  0  0  0  0  0
   57.1779   34.2096   44.7468 H   0  0  0  0  0  0  0  0  0  0  0  0
   56.4928   32.8497   45.6125 H   0  0  0  0  0  0  0  0  0  0  0  0
   57.7647   35.3504   46.6818 H   0  0  0  0  0  0  0  0  0  0  0  0
   59.5056   35.7717   48.4074 H   0  0  0  0  0  0  0  0  0  0  0  0
   61.2073   34.0327   48.8799 H   0  0  0  0  0  0  0  0  0  0  0  0
   61.1778   31.9041   47.6428 H   0  0  0  0  0  0  0  0  0  0  0  0
   60.4195   30.9991   45.1571 H   0  0  0  0  0  0  0  0  0  0  0  0
   59.4568   30.2533   46.4581 H   0  0  0  0  0  0  0  0  0  0  0  0
   56.2700   25.8980   43.9400 H   0  0  0  0  0  0  0  0  0  0  0  0
  1  2  1  0
  2  3  1  0
  3  4  2  0
  3  5  1  0
  5  6  1  0
  6  7  2  0
  6  8  1  0
  8  9  1  0
  9 10  2  0
 10 11  1  0
 11 12  1  0
 12 13  1  0
 13 14  2  0
 13 15  1  0
 15 16  1  0
 16 17  1  0
 17 18  1  0
 18 19  2  0
 19 20  1  0
 20 21  2  0
 21 22  1  0
 22 23  2  0
 23 24  1  0
 10 25  1  0
 25 26  1  0
 26  2  1  0
 26  8  2  0
 24 15  1  0
 23 18  1  0
  1 27  1  0
  1 28  1  0
  1 29  1  0
  5 30  1  0
 12 31  1  0
 12 32  1  0
 16 33  1  0
 16 34  1  0
 17 35  1  0
 17 36  1  0
 19 37  1  0
 20 38  1  0
 21 39  1  0
 22 40  1  0
 24 41  1  0
 24 42  1  0
 25 43  1  0
M  END
>  <smiles>  (83) 
Cn1c(=O)[nH]c(=O)c2nc(SCC(=O)N3CCc4ccccc4C3)[nH]c21

>  <score_type>  (83) 
oracle

>  <origin>  (83) 
adg

>  <m_score__min__energy>  (83) 
-9.4900000000000002

>  <m_primary>  (83) 
energy

$$$$
83:0
     RDKit          3D

 52 55  0  0  0  0  0  0  0  0999 V2000
   56.2587   22.1497   42.0304 H   0  0  0  0  0  0  0  0  0  0  0  0
   56.6630   22.0350   43.0470 C   0  0  0  0  0  0  0  0  0  0  0  0
   55.8820   22.4700   44.4720 S   0  0  0  0  0  0  0  0  0  0  0  0
   57.1170   21.9910   45.5080 C   0  0  0  0  0  0  0  0  0  0  0  0
   57.0830   22.0890   47.0020 C   0  0  0  0  0  0  0  0  0  0  0  0
   57.8334   21.4055   47.4260 H   0  0  0  0  0  0  0  0  0  0  0  0
   56.0768   21.8150   47.3518 H   0  0  0  0  0  0  0  0  0  0  0  0
   57.3770   23.4550   47.4370 N   0  0  0  0  0  0  0  0  0  0  0  0
   56.8740   24.5280   46.9040 C   0  0  0  0  0  0  0  0  0  0  0  0
   55.5650   24.5800   46.5360 N   0  0  0  0  0  0  0  0  0  0  0  0
   55.0530   25.7090   45.9860 C   0  0  0  0  0  0  0  0  0  0  0  0
   53.7060   25.7450   45.6170 O   0  0  0  0  0  0  0  0  0  0  0  0
   52.9730   24.5750   45.2730 C   0  0  0  0  0  0  0  0  0  0  0  0
   52.6510   24.0610   46.1907 H   0  0  0  0  0  0  0  0  0  0  0  0
   52.0896   24.8566   44.6812 H   0  0  0  0  0  0  0  0  0  0  0  0
   53.6118   23.9029   44.6812 H   0  0  0  0  0  0  0  0  0  0  0  0
   55.8560   26.7880   45.8000 N   0  0  0  0  0  0  0  0  0  0  0  0
   57.1680   26.7410   46.1520 C   0  0  0  0  0  0  0  0  0  0  0  0
   57.9470   27.7730   45.9990 N   0  0  0  0  0  0  0  0  0  0  0  0
   57.6320   28.9970   45.3140 C   0  0  0  0  0  0  0  0  0  0  0  0
   56.9780   29.0060   44.0680 C   0  0  0  0  0  0  0  0  0  0  0  0
   56.6638   28.0581   43.6067 H   0  0  0  0  0  0  0  0  0  0  0  0
   56.7270   30.2140   43.4160 C   0  0  0  0  0  0  0  0  0  0  0  0
   56.2065   30.2156   42.4469 H   0  0  0  0  0  0  0  0  0  0  0  0
   57.1340   31.4210   43.9890 C   0  0  0  0  0  0  0  0  0  0  0  0
   56.9283   32.3688   43.4700 H   0  0  0  0  0  0  0  0  0  0  0  0
   57.8050   31.4330   45.2250 C   0  0  0  0  0  0  0  0  0  0  0  0
   58.2470   32.7220   45.8130 C   0  0  0  0  0  0  0  0  0  0  0  0
   57.4530   33.7040   45.8090 O   0  0  0  0  0  0  0  0  0  0  0  0
   59.5500   32.8680   46.4020 N   0  0  0  0  0  0  0  0  0  0  0  0
   60.1570   32.0290   46.5420 H   0  0  0  0  0  0  0  0  0  0  0  0
   60.0280   34.1420   46.9320 C   0  0  0  0  0  0  0  0  0  0  0  0
   60.1033   34.8715   46.1122 H   0  0  0  0  0  0  0  0  0  0  0  0
   59.3196   34.5036   47.6919 H   0  0  0  0  0  0  0  0  0  0  0  0
   61.3810   33.9650   47.5660 C   0  0  0  0  0  0  0  0  0  0  0  0
   62.4730   33.5470   46.7850 C   0  0  0  0  0  0  0  0  0  0  0  0
   62.3392   33.3650   45.7084 H   0  0  0  0  0  0  0  0  0  0  0  0
   63.7280   33.3620   47.3720 C   0  0  0  0  0  0  0  0  0  0  0  0
   64.5802   33.0395   46.7557 H   0  0  0  0  0  0  0  0  0  0  0  0
   63.9020   33.5860   48.7400 C   0  0  0  0  0  0  0  0  0  0  0  0
   64.8905   33.4400   49.1999 H   0  0  0  0  0  0  0  0  0  0  0  0
   62.8190   33.9960   49.5250 C   0  0  0  0  0  0  0  0  0  0  0  0
   62.9566   34.1715   50.6022 H   0  0  0  0  0  0  0  0  0  0  0  0
   61.5620   34.1830   48.9420 C   0  0  0  0  0  0  0  0  0  0  0  0
   60.7118   34.5019   49.5629 H   0  0  0  0  0  0  0  0  0  0  0  0
   58.0680   30.2090   45.8680 C   0  0  0  0  0  0  0  0  0  0  0  0
   58.6229   30.2031   46.8177 H   0  0  0  0  0  0  0  0  0  0  0  0
   57.6680   25.6110   46.7110 N   0  0  0  0  0  0  0  0  0  0  0  0
   58.1620   21.4810   44.7490 C   0  0  0  0  0  0  0  0  0  0  0  0
   59.0960   21.0965   45.1847 H   0  0  0  0  0  0  0  0  0  0  0  0
   57.9060   21.5060   43.3730 C   0  0  0  0  0  0  0  0  0  0  0  0
   58.6211   21.1414   42.6209 H   0  0  0  0  0  0  0  0  0  0  0  0
  1  2  1  0
  2  3  1  0
  3  4  1  0
  4  5  1  0
  5  6  1  0
  5  7  1  0
  5  8  1  0
  8  9  2  0
  9 10  1  0
 10 11  2  0
 11 12  1  0
 12 13  1  0
 13 14  1  0
 13 15  1  0
 13 16  1  0
 11 17  1  0
 17 18  1  0
 18 19  2  0
 19 20  1  0
 20 21  2  0
 21 22  1  0
 21 23  1  0
 23 24  1  0
 23 25  2  0
 25 26  1  0
 25 27  1  0
 27 28  1  0
 28 29  2  0
 28 30  1  0
 30 31  1  0
 30 32  1  0
 32 33  1  0
 32 34  1  0
 32 35  1  0
 35 36  2  0
 36 37  1  0
 36 38  1  0
 38 39  1  0
 38 40  2  0
 40 41  1  0
 40 42  1  0
 42 43  1  0
 42 44  2  0
 44 45  1  0
 27 46  2  0
 46 47  1  0
 18 48  1  0
  4 49  2  0
 49 50  1  0
 49 51  1  0
 51 52  1  0
 51  2  2  0
 48  9  1  0
 46 20  1  0
 44 35  1  0
M  CHG  2  17  -1  48  -1
M  END
>  <UniqueID>  (84) 
78

>  <SMILES>  (84) 
COc1n/c(=N\Cc2cccs2)[n-]/c(=N/c2cccc(C(=O)NCc3ccccc3)c2)[n-]1

>  <Energy>  (84) 
85.3949620823087

>  <Genealogy>  (84) 
COc1nc(=NCc2cccs2)[n-]c(=Nc2cccc(C(=O)NCc3ccccc3)c2)[n-]1 (protonated)
COc1n/c(=N\Cc2cccs2)[n-]/c(=N/c2cccc(C(=O)NCc3ccccc3)c2)[n-]1 (cis-trans isomerization)
COc1n/c(=N\Cc2cccs2)[n-]/c(=N/c2cccc(C(=O)NCc3ccccc3)c2)[n-]1 (3D coordinates assigned)
COc1n/c(=N\Cc2cccs2)[n-]/c(=N/c2cccc(C(=O)NCc3ccccc3)c2)[n-]1 (optimized conformer: 85.3949620823087 kcal/mol)

>  <smiles>  (84) 
COc1nc(=NCc2cccs2)[nH]c(=Nc2cccc(C(=O)NCc3ccccc3)c2)[nH]1

>  <score_type>  (84) 
oracle

>  <origin>  (84) 
adg

>  <m_score__min__energy>  (84) 
-12.890000000000001

>  <m_primary>  (84) 
energy

$$$$
84:0
     RDKit          3D

 32 33  0  0  0  0  0  0  0  0999 V2000
   56.2580   29.8620   43.7700 C   0  0  0  0  0  0  0  0  0  0  0  0
   56.5160   30.7610   44.8250 O   0  0  0  0  0  0  0  0  0  0  0  0
   57.4970   31.7090   44.4410 C   0  0  0  0  0  0  0  0  0  0  0  0
   58.3410   32.1570   45.6410 C   0  0  0  0  0  0  0  0  0  0  0  0
   59.1520   31.0180   46.1800 C   0  0  0  0  0  0  0  0  0  0  0  0
   60.3950   31.1590   46.3380 O   0  0  0  0  0  0  0  0  0  0  0  0
   58.5260   29.7550   46.4470 N   0  0  0  0  0  0  0  0  0  0  0  0
   59.2940   28.5220   46.5960 C   0  0  0  0  0  0  0  0  0  0  0  0
   58.4270   27.3390   46.2660 C   0  0  0  0  0  0  0  0  0  0  0  0
   59.0220   26.0740   46.0230 C   0  0  0  0  0  0  0  0  0  0  0  0
   58.2230   24.9480   45.7570 C   0  0  0  0  0  0  0  0  0  0  0  0
   56.8430   25.1190   45.7490 C   0  0  0  0  0  0  0  0  0  0  0  0
   56.2660   26.3240   45.9850 C   0  0  0  0  0  0  0  0  0  0  0  0
   57.0200   27.4630   46.2530 C   0  0  0  0  0  0  0  0  0  0  0  0
   54.8920   26.1990   45.9190 O   0  0  0  0  0  0  0  0  0  0  0  0
   54.5860   24.8290   45.6210 C   0  0  0  0  0  0  0  0  0  0  0  0
   55.8590   24.1760   45.5210 O   0  0  0  0  0  0  0  0  0  0  0  0
   55.9768   28.8823   44.1836 H   0  0  0  0  0  0  0  0  0  0  0  0
   55.4346   30.2489   43.1516 H   0  0  0  0  0  0  0  0  0  0  0  0
   57.1612   29.7534   43.1516 H   0  0  0  0  0  0  0  0  0  0  0  0
   58.1579   31.2553   43.6878 H   0  0  0  0  0  0  0  0  0  0  0  0
   56.9844   32.5909   44.0293 H   0  0  0  0  0  0  0  0  0  0  0  0
   59.0188   32.9631   45.3236 H   0  0  0  0  0  0  0  0  0  0  0  0
   57.6651   32.5125   46.4327 H   0  0  0  0  0  0  0  0  0  0  0  0
   57.4830   29.6890   46.4210 H   0  0  0  0  0  0  0  0  0  0  0  0
   60.1565   28.5443   45.9137 H   0  0  0  0  0  0  0  0  0  0  0  0
   59.6454   28.4363   47.6348 H   0  0  0  0  0  0  0  0  0  0  0  0
   60.1172   25.9734   46.0429 H   0  0  0  0  0  0  0  0  0  0  0  0
   58.6747   23.9642   45.5617 H   0  0  0  0  0  0  0  0  0  0  0  0
   56.5347   28.4306   46.4488 H   0  0  0  0  0  0  0  0  0  0  0  0
   53.9853   24.3831   46.4274 H   0  0  0  0  0  0  0  0  0  0  0  0
   53.9975   24.7293   44.6970 H   0  0  0  0  0  0  0  0  0  0  0  0
  1  2  1  0
  2  3  1  0
  3  4  1  0
  4  5  1  0
  5  6  2  0
  5  7  1  0
  7  8  1  0
  8  9  1  0
  9 10  2  0
 10 11  1  0
 11 12  2  0
 12 13  1  0
 13 14  2  0
 13 15  1  0
 15 16  1  0
 16 17  1  0
 14  9  1  0
 17 12  1  0
  1 18  1  0
  1 19  1  0
  1 20  1  0
  3 21  1  0
  3 22  1  0
  4 23  1  0
  4 24  1  0
  7 25  1  0
  8 26  1  0
  8 27  1  0
 10 28  1  0
 11 29  1  0
 14 30  1  0
 16 31  1  0
 16 32  1  0
M  END
>  <UniqueID>  (85) 
79

>  <SMILES>  (85) 
COCCC(=O)NCc1ccc2c(c1)OCO2

>  <Energy>  (85) 
54.38031542775969

>  <Genealogy>  (85) 
COCCC(=O)NCc1ccc2c(c1)OCO2 (3D coordinates assigned)
COCCC(=O)NCc1ccc2c(c1)OCO2 (nonaromatic ring conformer: 54.38031542775969 kcal/mol)

>  <smiles>  (85) 
COCCC(=O)NCc1ccc2c(c1)OCO2

>  <score_type>  (85) 
oracle

>  <origin>  (85) 
adg

>  <m_score__min__energy>  (85) 
-5.9299999999999997

>  <m_primary>  (85) 
energy

$$$$
85:0
     RDKit          3D

 38 40  0  0  0  0  0  0  0  0999 V2000
   56.8016   25.2741   47.7368 H   0  0  0  0  0  0  0  0  0  0  0  0
   57.1720   25.0310   46.7300 C   0  0  0  0  0  0  0  0  0  0  0  0
   57.9440   25.9310   46.1040 C   0  0  0  0  0  0  0  0  0  0  0  0
   58.9947   25.6762   45.9012 H   0  0  0  0  0  0  0  0  0  0  0  0
   57.4360   27.2580   45.6740 C   0  0  0  0  0  0  0  0  0  0  0  0
   56.0650   27.5470   45.6110 C   0  0  0  0  0  0  0  0  0  0  0  0
   55.1100   26.5880   45.9290 O   0  0  0  0  0  0  0  0  0  0  0  0
   55.6530   28.7710   45.2040 N   0  0  0  0  0  0  0  0  0  0  0  0
   56.5330   29.7340   44.8350 C   0  0  0  0  0  0  0  0  0  0  0  0
   56.0850   30.8540   44.4690 O   0  0  0  0  0  0  0  0  0  0  0  0
   57.8830   29.4860   44.8560 N   0  0  0  0  0  0  0  0  0  0  0  0
   58.8380   30.5200   44.4070 C   0  0  0  0  0  0  0  0  0  0  0  0
   59.8641   30.1733   44.5990 H   0  0  0  0  0  0  0  0  0  0  0  0
   58.6932   30.6958   43.3308 H   0  0  0  0  0  0  0  0  0  0  0  0
   58.6030   31.8110   45.1490 C   0  0  0  0  0  0  0  0  0  0  0  0
   58.6750   31.8440   46.5520 C   0  0  0  0  0  0  0  0  0  0  0  0
   58.9276   30.9296   47.1087 H   0  0  0  0  0  0  0  0  0  0  0  0
   58.4270   33.0340   47.2440 C   0  0  0  0  0  0  0  0  0  0  0  0
   58.4886   33.0539   48.3421 H   0  0  0  0  0  0  0  0  0  0  0  0
   58.1010   34.1980   46.5420 C   0  0  0  0  0  0  0  0  0  0  0  0
   57.9060   35.1332   47.0874 H   0  0  0  0  0  0  0  0  0  0  0  0
   58.0230   34.1730   45.1470 C   0  0  0  0  0  0  0  0  0  0  0  0
   57.7669   35.0892   44.5948 H   0  0  0  0  0  0  0  0  0  0  0  0
   58.2700   32.9850   44.4520 C   0  0  0  0  0  0  0  0  0  0  0  0
   58.2033   32.9693   43.3541 H   0  0  0  0  0  0  0  0  0  0  0  0
   58.3380   28.2560   45.2630 C   0  0  0  0  0  0  0  0  0  0  0  0
   59.5780   28.0140   45.2850 O   0  0  0  0  0  0  0  0  0  0  0  0
   56.7900   23.7240   46.1380 C   0  0  0  0  0  0  0  0  0  0  0  0
   56.3320   23.6170   44.8080 C   0  0  0  0  0  0  0  0  0  0  0  0
   56.2394   24.5210   44.1881 H   0  0  0  0  0  0  0  0  0  0  0  0
   55.9950   22.3710   44.2720 C   0  0  0  0  0  0  0  0  0  0  0  0
   55.5440   22.2780   42.9600 O   0  0  0  0  0  0  0  0  0  0  0  0
   56.1160   21.2180   45.0500 C   0  0  0  0  0  0  0  0  0  0  0  0
   55.8429   20.2392   44.6288 H   0  0  0  0  0  0  0  0  0  0  0  0
   56.5830   21.3070   46.3610 C   0  0  0  0  0  0  0  0  0  0  0  0
   56.6846   20.3956   46.9684 H   0  0  0  0  0  0  0  0  0  0  0  0
   56.9230   22.5490   46.9080 C   0  0  0  0  0  0  0  0  0  0  0  0
   57.3820   22.6080   48.2190 O   0  0  0  0  0  0  0  0  0  0  0  0
  1  2  1  0
  2  3  2  0
  3  4  1  0
  3  5  1  0
  5  6  2  0
  6  7  1  0
  6  8  1  0
  8  9  1  0
  9 10  2  0
  9 11  1  0
 11 12  1  0
 12 13  1  0
 12 14  1  0
 12 15  1  0
 15 16  2  0
 16 17  1  0
 16 18  1  0
 18 19  1  0
 18 20  2  0
 20 21  1  0
 20 22  1  0
 22 23  1  0
 22 24  2  0
 24 25  1  0
 11 26  1  0
 26 27  2  0
  2 28  1  0
 28 29  2  0
 29 30  1  0
 29 31  1  0
 31 32  1  0
 31 33  2  0
 33 34  1  0
 33 35  1  0
 35 36  1  0
 35 37  2  0
 37 38  1  0
 26  5  1  0
 37 28  1  0
 24 15  1  0
M  CHG  4   7  -1   8  -1  32  -1  38  -1
M  END
>  <UniqueID>  (86) 
80

>  <SMILES>  (86) 
O=c1[n-]c([O-])c(/C=C/c2cc([O-])ccc2[O-])c(=O)n1Cc1ccccc1

>  <Energy>  (86) 
54.39711833026982

>  <Genealogy>  (86) 
O=c1[n-]c([O-])c(C=Cc2cc([O-])ccc2[O-])c(=O)n1Cc1ccccc1 (protonated)
O=c1[n-]c([O-])c(/C=C/c2cc([O-])ccc2[O-])c(=O)n1Cc1ccccc1 (cis-trans isomerization)
O=c1[n-]c([O-])c(/C=C/c2cc([O-])ccc2[O-])c(=O)n1Cc1ccccc1 (3D coordinates assigned)
O=c1[n-]c([O-])c(/C=C/c2cc([O-])ccc2[O-])c(=O)n1Cc1ccccc1 (optimized conformer: 54.39711833026982 kcal/mol)

>  <smiles>  (86) 
O=c1[nH]c(O)c(C=Cc2cc(O)ccc2O)c(=O)n1Cc1ccccc1

>  <score_type>  (86) 
oracle

>  <origin>  (86) 
adg

>  <m_score__min__energy>  (86) 
-17.960000000000001

>  <m_primary>  (86) 
energy

$$$$
86:0
     RDKit          3D

 64 68  0  0  0  0  0  0  0  0999 V2000
   61.0660   27.8960   50.8620 O   0  0  0  0  0  0  0  0  0  0  0  0
   61.1600   29.1530   50.8810 C   0  0  0  0  0  0  0  0  0  0  0  0
   60.6910   29.9050   52.0050 N   0  0  0  0  0  0  0  0  0  0  0  0
   60.0340   31.1810   51.9770 C   0  0  0  0  0  0  0  0  0  0  0  0
   60.7690   32.3210   52.3260 C   0  0  0  0  0  0  0  0  0  0  0  0
   60.1610   33.5800   52.3350 C   0  0  0  0  0  0  0  0  0  0  0  0
   58.8080   33.7070   52.0110 C   0  0  0  0  0  0  0  0  0  0  0  0
   58.0600   32.5740   51.6860 C   0  0  0  0  0  0  0  0  0  0  0  0
   58.6640   31.3120   51.6740 C   0  0  0  0  0  0  0  0  0  0  0  0
   61.6980   29.8510   49.7570 N   0  0  0  0  0  0  0  0  0  0  0  0
   61.1100   31.0630   49.1930 C   0  0  1  0  0  0  0  0  0  0  0  0
   62.0750   31.7230   48.2550 C   0  0  0  0  0  0  0  0  0  0  0  0
   63.1680   31.1690   47.9610 O   0  0  0  0  0  0  0  0  0  0  0  0
   61.8100   33.0550   47.7980 N   0  0  0  0  0  0  0  0  0  0  0  0
   62.7410   34.1000   48.2550 C   0  0  0  0  0  0  0  0  0  0  0  0
   63.0400   33.9680   49.7290 C   0  0  0  0  0  0  0  0  0  0  0  0
   62.3750   34.6520   50.5560 O   0  0  0  0  0  0  0  0  0  0  0  0
   64.0870   33.0400   50.2270 C   0  0  0  0  0  0  0  0  0  0  0  0
   63.7880   32.0340   51.1710 C   0  0  0  0  0  0  0  0  0  0  0  0
   64.7860   31.1620   51.6160 C   0  0  0  0  0  0  0  0  0  0  0  0
   66.0900   31.2800   51.1320 C   0  0  0  0  0  0  0  0  0  0  0  0
   66.4000   32.2760   50.2030 C   0  0  0  0  0  0  0  0  0  0  0  0
   65.4090   33.1510   49.7550 C   0  0  0  0  0  0  0  0  0  0  0  0
   60.6730   33.3580   46.9420 C   0  0  0  0  0  0  0  0  0  0  0  0
   60.5400   34.6590   46.4040 C   0  0  0  0  0  0  0  0  0  0  0  0
   59.4560   35.0010   45.5970 C   0  0  0  0  0  0  0  0  0  0  0  0
   58.4760   34.0600   45.3070 C   0  0  0  0  0  0  0  0  0  0  0  0
   58.5870   32.7650   45.8050 C   0  0  0  0  0  0  0  0  0  0  0  0
   59.6830   32.3830   46.6020 C   0  0  0  0  0  0  0  0  0  0  0  0
   59.7630   31.0120   47.0510 N   0  0  0  0  0  0  0  0  0  0  0  0
   59.9090   29.9060   46.0920 C   0  0  0  0  0  0  0  0  0  0  0  0
   58.6560   29.0690   46.0600 C   0  0  0  0  0  0  0  0  0  0  0  0
   58.6290   27.8040   46.6680 C   0  0  0  0  0  0  0  0  0  0  0  0
   57.4850   27.0060   46.5860 C   0  0  0  0  0  0  0  0  0  0  0  0
   56.3560   27.4650   45.9000 C   0  0  0  0  0  0  0  0  0  0  0  0
   55.2270   26.6600   45.8160 O   0  0  0  0  0  0  0  0  0  0  0  0
   56.3650   28.7290   45.3010 C   0  0  0  0  0  0  0  0  0  0  0  0
   55.2350   29.1840   44.6240 O   0  0  0  0  0  0  0  0  0  0  0  0
   57.5140   29.5290   45.3830 C   0  0  0  0  0  0  0  0  0  0  0  0
   59.8630   30.7250   48.4490 C   0  0  0  0  0  0  0  0  0  0  0  0
   58.9130   30.1440   49.0360 O   0  0  0  0  0  0  0  0  0  0  0  0
   61.8314   32.2252   52.5947 H   0  0  0  0  0  0  0  0  0  0  0  0
   60.7489   34.4719   52.5976 H   0  0  0  0  0  0  0  0  0  0  0  0
   58.3325   34.6989   52.0120 H   0  0  0  0  0  0  0  0  0  0  0  0
   56.9928   32.6737   51.4387 H   0  0  0  0  0  0  0  0  0  0  0  0
   58.0685   30.4206   51.4276 H   0  0  0  0  0  0  0  0  0  0  0  0
   60.8754   31.7515   50.0182 H   0  0  0  0  0  0  0  0  0  0  0  0
   63.6810   34.0132   47.6903 H   0  0  0  0  0  0  0  0  0  0  0  0
   62.2710   35.0798   48.0844 H   0  0  0  0  0  0  0  0  0  0  0  0
   62.7634   31.9356   51.5589 H   0  0  0  0  0  0  0  0  0  0  0  0
   64.5428   30.3799   52.3503 H   0  0  0  0  0  0  0  0  0  0  0  0
   66.8720   30.5899   51.4815 H   0  0  0  0  0  0  0  0  0  0  0  0
   67.4280   32.3711   49.8234 H   0  0  0  0  0  0  0  0  0  0  0  0
   65.6632   33.9348   49.0262 H   0  0  0  0  0  0  0  0  0  0  0  0
   61.3067   35.4157   46.6266 H   0  0  0  0  0  0  0  0  0  0  0  0
   59.3763   36.0192   45.1885 H   0  0  0  0  0  0  0  0  0  0  0  0
   57.6130   34.3381   44.6843 H   0  0  0  0  0  0  0  0  0  0  0  0
   57.8050   32.0273   45.5719 H   0  0  0  0  0  0  0  0  0  0  0  0
   60.0952   30.3181   45.0892 H   0  0  0  0  0  0  0  0  0  0  0  0
   60.7529   29.2729   46.4035 H   0  0  0  0  0  0  0  0  0  0  0  0
   59.5129   27.4392   47.2117 H   0  0  0  0  0  0  0  0  0  0  0  0
   57.4723   26.0145   47.0621 H   0  0  0  0  0  0  0  0  0  0  0  0
   54.4290   28.5890   44.4810 H   0  0  0  0  0  0  0  0  0  0  0  0
   57.5212   30.5239   44.9138 H   0  0  0  0  0  0  0  0  0  0  0  0
  1  2  2  0
  2  3  1  0
  3  4  1  0
  4  5  2  0
  5  6  1  0
  6  7  2  0
  7  8  1  0
  8  9  2  0
  2 10  1  0
 10 11  1  0
 11 12  1  0
 12 13  2  0
 12 14  1  0
 14 15  1  0
 15 16  1  0
 16 17  2  0
 16 18  1  0
 18 19  2  0
 19 20  1  0
 20 21  2  0
 21 22  1  0
 22 23  2  0
 14 24  1  0
 24 25  2  0
 25 26  1  0
 26 27  2  0
 27 28  1  0
 28 29  2  0
 29 30  1  0
 30 31  1  0
 31 32  1  0
 32 33  2  0
 33 34  1  0
 34 35  2  0
 35 36  1  0
 35 37  1  0
 37 38  1  0
 37 39  2  0
 30 40  1  0
 40 41  2  0
  9  4  1  0
 40 11  1  0
 23 18  1  0
 29 24  1  0
 39 32  1  0
  5 42  1  0
  6 43  1  0
  7 44  1  0
  8 45  1  0
  9 46  1  0
 11 47  1  1
 15 48  1  0
 15 49  1  0
 19 50  1  0
 20 51  1  0
 21 52  1  0
 22 53  1  0
 23 54  1  0
 25 55  1  0
 26 56  1  0
 27 57  1  0
 28 58  1  0
 31 59  1  0
 31 60  1  0
 33 61  1  0
 34 62  1  0
 38 63  1  0
 39 64  1  0
M  CHG  3   3  -1  10  -1  36  -1
M  END
>  <UniqueID>  (87) 
81

>  <SMILES>  (87) 
O=C([N-]c1ccccc1)[N-][C@H]1C(=O)N(CC(=O)c2ccccc2)c2ccccc2N(Cc2ccc([O-])c(O)c2)C1=O

>  <Energy>  (87) 
97.57744107004984

>  <Genealogy>  (87) 
O=C([N-]c1ccccc1)[N-]C1C(=O)N(CC(=O)c2ccccc2)c2ccccc2N(Cc2ccc([O-])c(O)c2)C1=O (protonated)
O=C([N-]c1ccccc1)[N-][C@H]1C(=O)N(CC(=O)c2ccccc2)c2ccccc2N(Cc2ccc([O-])c(O)c2)C1=O (chirality)
O=C([N-]c1ccccc1)[N-][C@H]1C(=O)N(CC(=O)c2ccccc2)c2ccccc2N(Cc2ccc([O-])c(O)c2)C1=O (3D coordinates assigned)
O=C([N-]c1ccccc1)[N-][C@H]1C(=O)N(CC(=O)c2ccccc2)c2ccccc2N(Cc2ccc([O-])c(O)c2)C1=O (nonaromatic ring conformer: 97.57744107004984 kcal/mol)

>  <smiles>  (87) 
O=C(Nc1ccccc1)NC1C(=O)N(CC(=O)c2ccccc2)c2ccccc2N(Cc2ccc(O)c(O)c2)C1=O

>  <score_type>  (87) 
oracle

>  <origin>  (87) 
adg

>  <m_score__min__energy>  (87) 
-13.699999999999999

>  <m_primary>  (87) 
energy

$$$$
87:0
     RDKit          3D

 57 61  0  0  0  0  0  0  0  0999 V2000
   56.7870   30.5050   45.1500 O   0  0  0  0  0  0  0  0  0  0  0  0
   57.9460   30.9730   44.9620 C   0  0  0  0  0  0  0  0  0  0  0  0
   58.1180   32.2370   44.3100 N   0  0  0  0  0  0  0  0  0  0  0  0
   57.4050   33.3110   44.4940 C   0  0  0  0  0  0  0  0  0  0  0  0
   57.9080   34.5510   45.1830 C   0  0  0  0  0  0  0  0  0  0  0  0
   59.3550   34.3790   45.6700 C   0  0  0  0  0  0  0  0  0  0  0  0
   59.4130   33.9680   47.1220 C   0  0  0  0  0  0  0  0  0  0  0  0
   58.5120   33.0170   47.6340 C   0  0  0  0  0  0  0  0  0  0  0  0
   58.5470   32.6730   48.9930 C   0  0  0  0  0  0  0  0  0  0  0  0
   59.4740   33.2790   49.8500 C   0  0  0  0  0  0  0  0  0  0  0  0
   60.3760   34.2220   49.3480 C   0  0  0  0  0  0  0  0  0  0  0  0
   60.3530   34.5600   47.9900 C   0  0  0  0  0  0  0  0  0  0  0  0
   59.1630   30.1440   45.3100 C   0  0  1  0  0  0  0  0  0  0  0  0
   59.1180   29.6430   46.8040 C   0  0  2  0  0  0  0  0  0  0  0  0
   60.1520   30.2580   47.7150 C   0  0  0  0  0  0  0  0  0  0  0  0
   60.1610   29.9900   48.9460 O   0  0  0  0  0  0  0  0  0  0  0  0
   61.2160   31.0320   47.1290 N   0  0  0  0  0  0  0  0  0  0  0  0
   62.1820   31.6620   47.7400 C   0  0  0  0  0  0  0  0  0  0  0  0
   62.8320   32.7000   47.0600 C   0  0  0  0  0  0  0  0  0  0  0  0
   63.8550   33.4100   47.6910 C   0  0  0  0  0  0  0  0  0  0  0  0
   64.2180   33.0880   48.9970 C   0  0  0  0  0  0  0  0  0  0  0  0
   63.5440   32.0600   49.6590 C   0  0  0  0  0  0  0  0  0  0  0  0
   62.5440   31.3770   49.0330 N   0  0  0  0  0  0  0  0  0  0  0  0
   59.2600   28.1020   46.6750 C   0  0  2  0  0  0  0  0  0  0  0  0
   60.6680   27.7410   46.1460 C   0  0  0  0  0  0  0  0  0  0  0  0
   60.6470   28.2270   44.6730 C   0  0  0  0  0  0  0  0  0  0  0  0
   59.2320   28.8170   44.5000 C   0  0  1  0  0  0  0  0  0  0  0  0
   58.4880   27.9110   45.4190 C   0  0  0  0  0  0  0  0  0  0  0  0
   57.9150   26.5780   44.9900 C   0  0  0  0  0  0  0  0  0  0  0  0
   56.9850   27.7450   45.3840 C   0  0  0  0  0  0  0  0  0  0  0  0
   56.3697   33.3121   44.1224 H   0  0  0  0  0  0  0  0  0  0  0  0
   57.8666   35.3935   44.4770 H   0  0  0  0  0  0  0  0  0  0  0  0
   57.2702   34.7411   46.0588 H   0  0  0  0  0  0  0  0  0  0  0  0
   59.8460   33.6056   45.0612 H   0  0  0  0  0  0  0  0  0  0  0  0
   59.8674   35.3470   45.5679 H   0  0  0  0  0  0  0  0  0  0  0  0
   57.7780   32.5418   46.9666 H   0  0  0  0  0  0  0  0  0  0  0  0
   57.8439   31.9246   49.3872 H   0  0  0  0  0  0  0  0  0  0  0  0
   59.4925   33.0133   50.9173 H   0  0  0  0  0  0  0  0  0  0  0  0
   61.1042   34.6986   50.0208 H   0  0  0  0  0  0  0  0  0  0  0  0
   61.0734   35.2927   47.5972 H   0  0  0  0  0  0  0  0  0  0  0  0
   60.0101   30.8129   45.0981 H   0  0  0  0  0  0  0  0  0  0  0  0
   58.1854   29.9522   47.2987 H   0  0  0  0  0  0  0  0  0  0  0  0
   62.5371   32.9550   46.0314 H   0  0  0  0  0  0  0  0  0  0  0  0
   64.3730   34.2213   47.1586 H   0  0  0  0  0  0  0  0  0  0  0  0
   65.0267   33.6376   49.5010 H   0  0  0  0  0  0  0  0  0  0  0  0
   63.8214   31.7998   50.6912 H   0  0  0  0  0  0  0  0  0  0  0  0
   62.0420   30.6530   49.5940 H   0  0  0  0  0  0  0  0  0  0  0  0
   59.0077   27.5710   47.6047 H   0  0  0  0  0  0  0  0  0  0  0  0
   61.4478   28.2633   46.7197 H   0  0  0  0  0  0  0  0  0  0  0  0
   60.8937   26.6682   46.2363 H   0  0  0  0  0  0  0  0  0  0  0  0
   61.4154   28.9955   44.5030 H   0  0  0  0  0  0  0  0  0  0  0  0
   60.8623   27.4210   43.9561 H   0  0  0  0  0  0  0  0  0  0  0  0
   58.9188   28.9327   43.4519 H   0  0  0  0  0  0  0  0  0  0  0  0
   57.9858   26.2592   43.9396 H   0  0  0  0  0  0  0  0  0  0  0  0
   58.0386   25.5336   45.3125 H   0  0  0  0  0  0  0  0  0  0  0  0
   56.3906   28.2606   44.6153 H   0  0  0  0  0  0  0  0  0  0  0  0
   56.1664   27.8827   46.1057 H   0  0  0  0  0  0  0  0  0  0  0  0
  1  2  2  0
  2  3  1  0
  3  4  2  3
  4  5  1  0
  5  6  1  0
  6  7  1  0
  7  8  2  0
  8  9  1  0
  9 10  2  0
 10 11  1  0
 11 12  2  0
  2 13  1  0
 13 14  1  0
 14 15  1  0
 15 16  2  0
 15 17  1  0
 17 18  2  3
 18 19  1  0
 19 20  2  0
 20 21  1  0
 21 22  2  0
 22 23  1  0
 14 24  1  0
 24 25  1  0
 25 26  1  0
 26 27  1  0
 27 28  1  0
 28 29  1  0
 29 30  1  0
 12  7  1  0
 27 13  1  0
 30 28  1  0
 23 18  1  0
 28 24  1  0
  4 31  1  0
  5 32  1  0
  5 33  1  0
  6 34  1  0
  6 35  1  0
  8 36  1  0
  9 37  1  0
 10 38  1  0
 11 39  1  0
 12 40  1  0
 13 41  1  1
 14 42  1  1
 19 43  1  0
 20 44  1  0
 21 45  1  0
 22 46  1  0
 23 47  1  0
 24 48  1  1
 25 49  1  0
 25 50  1  0
 26 51  1  0
 26 52  1  0
 27 53  1  6
 29 54  1  0
 29 55  1  0
 30 56  1  0
 30 57  1  0
M  END
>  <UniqueID>  (88) 
82

>  <SMILES>  (88) 
O=C(N=CCCc1ccccc1)[C@@H]1C2CCC([C@H]1C(=O)N=c1cccc[nH]1)C21CC1

>  <Energy>  (88) 
379.82717235850413

>  <Genealogy>  (88) 
O=C(N=CCCc1ccccc1)[C@@H]1C2CCC([C@H]1C(=O)N=c1cccc[nH]1)C21CC1 (chirality)
O=C(N=CCCc1ccccc1)[C@@H]1C2CCC([C@H]1C(=O)N=c1cccc[nH]1)C21CC1 (3D coordinates assigned)
O=C(N=CCCc1ccccc1)[C@@H]1C2CCC([C@H]1C(=O)N=c1cccc[nH]1)C21CC1 (nonaromatic ring conformer: 379.82717235850413 kcal/mol)

>  <smiles>  (88) 
O=C(N=CCCc1ccccc1)C1C(C(=O)N=c2cccc[nH]2)C2CCC1C21CC1

>  <score_type>  (88) 
oracle

>  <origin>  (88) 
adg

>  <m_score__min__energy>  (88) 
-10.19

>  <m_primary>  (88) 
energy

$$$$
88:0
     RDKit          3D

 51 53  0  0  0  0  0  0  0  0999 V2000
   63.3190   33.8470   46.5980 C   0  0  0  0  0  0  0  0  0  0  0  0
   63.1990   32.6370   47.1490 C   0  0  0  0  0  0  0  0  0  0  0  0
   63.8560   32.3050   48.4560 C   0  0  0  0  0  0  0  0  0  0  0  0
   64.1440   33.5050   49.1650 O   0  0  0  0  0  0  0  0  0  0  0  0
   63.3420   33.9820   50.2040 C   0  0  0  0  0  0  0  0  0  0  0  0
   63.7570   33.9750   51.3940 O   0  0  0  0  0  0  0  0  0  0  0  0
   61.9800   34.5080   49.8920 C   0  0  0  0  0  0  0  0  0  0  0  0
   60.9550   33.4380   50.0920 C   0  0  0  0  0  0  0  0  0  0  0  0
   59.8430   33.5820   50.9230 C   0  0  0  0  0  0  0  0  0  0  0  0
   58.9270   32.1760   50.8040 S   0  0  0  0  0  0  0  0  0  0  0  0
   59.9780   31.4560   49.7020 C   0  0  0  0  0  0  0  0  0  0  0  0
   59.8550   30.2820   49.1590 N   0  0  0  0  0  0  0  0  0  0  0  0
   60.3410   29.8400   47.8800 C   0  0  0  0  0  0  0  0  0  0  0  0
   61.5130   30.1150   47.5030 O   0  0  0  0  0  0  0  0  0  0  0  0
   59.4390   29.0720   46.9910 C   0  0  0  0  0  0  0  0  0  0  0  0
   59.5090   27.6690   46.9330 C   0  0  0  0  0  0  0  0  0  0  0  0
   58.6590   26.9540   46.0820 C   0  0  0  0  0  0  0  0  0  0  0  0
   57.7440   27.6280   45.2720 C   0  0  0  0  0  0  0  0  0  0  0  0
   57.6580   29.0250   45.3220 C   0  0  0  0  0  0  0  0  0  0  0  0
   56.4890   29.8600   44.3040 S   0  0  0  0  0  0  0  0  0  0  0  0
   56.8610   29.6840   42.8600 O   0  0  0  0  0  0  0  0  0  0  0  0
   55.1310   29.2690   44.5390 O   0  0  0  0  0  0  0  0  0  0  0  0
   56.4300   31.5510   44.7100 N   0  0  0  0  0  0  0  0  0  0  0  0
   57.5870   32.2520   44.1530 C   0  0  0  0  0  0  0  0  0  0  0  0
   58.2130   33.0970   45.2250 C   0  0  0  0  0  0  0  0  0  0  0  0
   59.0820   34.1420   44.8750 C   0  0  0  0  0  0  0  0  0  0  0  0
   59.6420   34.9550   45.8640 C   0  0  0  0  0  0  0  0  0  0  0  0
   59.3420   34.7250   47.2100 C   0  0  0  0  0  0  0  0  0  0  0  0
   58.4720   33.6930   47.5700 C   0  0  0  0  0  0  0  0  0  0  0  0
   57.9040   32.8830   46.5820 C   0  0  0  0  0  0  0  0  0  0  0  0
   58.5090   29.7420   46.1760 C   0  0  0  0  0  0  0  0  0  0  0  0
   61.0180   32.2610   49.4120 N   0  0  0  0  0  0  0  0  0  0  0  0
   62.8274   34.0656   45.6386 H   0  0  0  0  0  0  0  0  0  0  0  0
   63.9095   34.6254   47.1034 H   0  0  0  0  0  0  0  0  0  0  0  0
   62.6058   31.8672   46.6337 H   0  0  0  0  0  0  0  0  0  0  0  0
   63.1802   31.6784   49.0565 H   0  0  0  0  0  0  0  0  0  0  0  0
   64.7923   31.7599   48.2657 H   0  0  0  0  0  0  0  0  0  0  0  0
   61.7562   35.3546   50.5577 H   0  0  0  0  0  0  0  0  0  0  0  0
   61.9543   34.8381   48.8430 H   0  0  0  0  0  0  0  0  0  0  0  0
   59.6076   34.4584   51.5447 H   0  0  0  0  0  0  0  0  0  0  0  0
   60.2354   27.1308   47.5596 H   0  0  0  0  0  0  0  0  0  0  0  0
   58.7122   25.8557   46.0513 H   0  0  0  0  0  0  0  0  0  0  0  0
   57.0895   27.0613   44.5934 H   0  0  0  0  0  0  0  0  0  0  0  0
   58.3206   31.5187   43.7867 H   0  0  0  0  0  0  0  0  0  0  0  0
   57.2657   32.8915   43.3177 H   0  0  0  0  0  0  0  0  0  0  0  0
   59.3235   34.3219   43.8170 H   0  0  0  0  0  0  0  0  0  0  0  0
   60.3186   35.7757   45.5836 H   0  0  0  0  0  0  0  0  0  0  0  0
   59.7925   35.3587   47.9881 H   0  0  0  0  0  0  0  0  0  0  0  0
   58.2341   33.5178   48.6296 H   0  0  0  0  0  0  0  0  0  0  0  0
   57.2131   32.0755   46.8659 H   0  0  0  0  0  0  0  0  0  0  0  0
   58.4483   30.8398   46.2086 H   0  0  0  0  0  0  0  0  0  0  0  0
  1  2  2  0
  2  3  1  0
  3  4  1  0
  4  5  1  0
  5  6  2  0
  5  7  1  0
  7  8  1  0
  8  9  2  0
  9 10  1  0
 10 11  1  0
 11 12  2  3
 12 13  1  0
 13 14  2  0
 13 15  1  0
 15 16  2  0
 16 17  1  0
 17 18  2  0
 18 19  1  0
 19 20  1  0
 20 21  2  0
 20 22  2  0
 20 23  1  0
 23 24  1  0
 24 25  1  0
 25 26  2  0
 26 27  1  0
 27 28  2  0
 28 29  1  0
 29 30  2  0
 19 31  2  0
 11 32  1  0
 32  8  1  0
 31 15  1  0
 30 25  1  0
  1 33  1  0
  1 34  1  0
  2 35  1  0
  3 36  1  0
  3 37  1  0
  7 38  1  0
  7 39  1  0
  9 40  1  0
 16 41  1  0
 17 42  1  0
 18 43  1  0
 24 44  1  0
 24 45  1  0
 26 46  1  0
 27 47  1  0
 28 48  1  0
 29 49  1  0
 30 50  1  0
 31 51  1  0
M  CHG  2  23  -1  32  -1
M  END
>  <UniqueID>  (89) 
83

>  <SMILES>  (89) 
C=CCOC(=O)Cc1csc(=NC(=O)c2cccc(S(=O)(=O)[N-]Cc3ccccc3)c2)[n-]1

>  <Energy>  (89) 
73.64763283624849

>  <Genealogy>  (89) 
C=CCOC(=O)Cc1csc(=NC(=O)c2cccc(S(=O)(=O)[N-]Cc3ccccc3)c2)[n-]1 (protonated)
C=CCOC(=O)Cc1csc(=NC(=O)c2cccc(S(=O)(=O)[N-]Cc3ccccc3)c2)[n-]1 (3D coordinates assigned)
C=CCOC(=O)Cc1csc(=NC(=O)c2cccc(S(=O)(=O)[N-]Cc3ccccc3)c2)[n-]1 (optimized conformer: 73.64763283624849 kcal/mol)

>  <smiles>  (89) 
C=CCOC(=O)Cc1csc(=NC(=O)c2cccc(S(=O)(=O)NCc3ccccc3)c2)[nH]1

>  <score_type>  (89) 
oracle

>  <origin>  (89) 
adg

>  <m_score__min__energy>  (89) 
-12.029999999999999

>  <m_primary>  (89) 
energy

$$$$
89:0
     RDKit          3D

 60 64  0  0  0  0  0  0  0  0999 V2000
   57.0650   33.4560   46.8650 O   0  0  0  0  0  0  0  0  0  0  0  0
   57.9670   33.7730   46.0440 C   0  0  0  0  0  0  0  0  0  0  0  0
   57.9100   33.2100   44.6530 C   0  0  0  0  0  0  0  0  0  0  0  0
   57.4850   31.8170   44.7010 N   0  0  0  0  0  0  0  0  0  0  0  0
   56.2460   31.4080   44.4890 N   0  0  0  0  0  0  0  0  0  0  0  0
   56.1960   30.0980   44.6680 N   0  0  0  0  0  0  0  0  0  0  0  0
   57.4500   29.7370   45.0090 C   0  0  0  0  0  0  0  0  0  0  0  0
   57.8900   28.3480   45.2880 C   0  0  0  0  0  0  0  0  0  0  0  0
   57.8430   27.4010   44.2460 C   0  0  0  0  0  0  0  0  0  0  0  0
   58.2040   26.0710   44.4730 C   0  0  0  0  0  0  0  0  0  0  0  0
   58.6260   25.6680   45.7390 C   0  0  0  0  0  0  0  0  0  0  0  0
   58.6900   26.5930   46.7810 C   0  0  0  0  0  0  0  0  0  0  0  0
   58.3220   27.9330   46.5740 C   0  0  0  0  0  0  0  0  0  0  0  0
   58.4720   28.8780   47.6440 N   0  0  0  0  0  0  0  0  0  0  0  0
   59.5280   29.8540   47.6810 C   0  0  0  0  0  0  0  0  0  0  0  0
   60.3190   29.9570   46.7030 O   0  0  0  0  0  0  0  0  0  0  0  0
   59.7080   30.7440   48.8520 C   0  0  0  0  0  0  0  0  0  0  0  0
   58.6900   31.6210   49.2640 C   0  0  0  0  0  0  0  0  0  0  0  0
   58.8700   32.4430   50.3810 C   0  0  0  0  0  0  0  0  0  0  0  0
   60.0660   32.3990   51.1120 C   0  0  0  0  0  0  0  0  0  0  0  0
   60.2450   33.2480   52.2620 N   0  0  0  0  0  0  0  0  0  0  0  0
   61.5880   33.4560   52.8130 C   0  0  0  0  0  0  0  0  0  0  0  0
   61.4890   33.7840   54.3050 C   0  0  0  0  0  0  0  0  0  0  0  0
   60.5890   34.8540   54.5270 O   0  0  0  0  0  0  0  0  0  0  0  0
   59.2800   34.4610   54.1610 C   0  0  0  0  0  0  0  0  0  0  0  0
   59.1950   34.1910   52.6550 C   0  0  0  0  0  0  0  0  0  0  0  0
   61.0830   31.5210   50.7050 C   0  0  0  0  0  0  0  0  0  0  0  0
   60.9030   30.6960   49.5900 C   0  0  0  0  0  0  0  0  0  0  0  0
   58.2710   30.8080   45.0330 N   0  0  0  0  0  0  0  0  0  0  0  0
   59.0480   34.6020   46.4930 N   0  0  0  0  0  0  0  0  0  0  0  0
   59.6300   34.5930   47.8320 C   0  0  0  0  0  0  0  0  0  0  0  0
   61.0160   34.0330   47.7950 C   0  0  0  0  0  0  0  0  0  0  0  0
   61.5700   33.3170   46.7540 C   0  0  0  0  0  0  0  0  0  0  0  0
   62.8510   33.0070   47.1580 C   0  0  0  0  0  0  0  0  0  0  0  0
   62.9980   33.5540   48.4170 C   0  0  0  0  0  0  0  0  0  0  0  0
   61.8880   34.1610   48.7680 O   0  0  0  0  0  0  0  0  0  0  0  0
   57.1930   33.7900   44.0534 H   0  0  0  0  0  0  0  0  0  0  0  0
   58.9089   33.2693   44.1961 H   0  0  0  0  0  0  0  0  0  0  0  0
   57.5183   27.7126   43.2423 H   0  0  0  0  0  0  0  0  0  0  0  0
   58.1553   25.3407   43.6519 H   0  0  0  0  0  0  0  0  0  0  0  0
   58.9087   24.6198   45.9163 H   0  0  0  0  0  0  0  0  0  0  0  0
   59.0322   26.2700   47.7753 H   0  0  0  0  0  0  0  0  0  0  0  0
   57.7790   28.8360   48.4240 H   0  0  0  0  0  0  0  0  0  0  0  0
   57.7443   31.6612   48.7035 H   0  0  0  0  0  0  0  0  0  0  0  0
   58.0673   33.1293   50.6886 H   0  0  0  0  0  0  0  0  0  0  0  0
   62.1840   32.5413   52.6786 H   0  0  0  0  0  0  0  0  0  0  0  0
   62.0715   34.2927   52.2876 H   0  0  0  0  0  0  0  0  0  0  0  0
   61.1329   32.8952   54.8465 H   0  0  0  0  0  0  0  0  0  0  0  0
   62.4845   34.0804   54.6671 H   0  0  0  0  0  0  0  0  0  0  0  0
   59.0123   33.5447   54.7075 H   0  0  0  0  0  0  0  0  0  0  0  0
   58.5837   35.2742   54.4137 H   0  0  0  0  0  0  0  0  0  0  0  0
   58.2106   33.7627   52.4154 H   0  0  0  0  0  0  0  0  0  0  0  0
   59.3303   35.1355   52.1075 H   0  0  0  0  0  0  0  0  0  0  0  0
   62.0279   31.4816   51.2668 H   0  0  0  0  0  0  0  0  0  0  0  0
   61.7032   30.0041   49.2883 H   0  0  0  0  0  0  0  0  0  0  0  0
   59.6653   35.6222   48.2186 H   0  0  0  0  0  0  0  0  0  0  0  0
   59.0087   33.9640   48.4865 H   0  0  0  0  0  0  0  0  0  0  0  0
   61.0900   33.0495   45.8011 H   0  0  0  0  0  0  0  0  0  0  0  0
   63.6037   32.4388   46.5918 H   0  0  0  0  0  0  0  0  0  0  0  0
   63.9073   33.4909   49.0328 H   0  0  0  0  0  0  0  0  0  0  0  0
  1  2  2  0
  2  3  1  0
  3  4  1  0
  4  5  1  0
  5  6  2  0
  6  7  1  0
  7  8  1  0
  8  9  2  0
  9 10  1  0
 10 11  2  0
 11 12  1  0
 12 13  2  0
 13 14  1  0
 14 15  1  0
 15 16  2  0
 15 17  1  0
 17 18  2  0
 18 19  1  0
 19 20  2  0
 20 21  1  0
 21 22  1  0
 22 23  1  0
 23 24  1  0
 24 25  1  0
 25 26  1  0
 20 27  1  0
 27 28  2  0
  7 29  2  0
  2 30  1  0
 30 31  1  0
 31 32  1  0
 32 33  2  0
 33 34  1  0
 34 35  2  0
 35 36  1  0
 29  4  1  0
 36 32  1  0
 13  8  1  0
 28 17  1  0
 26 21  1  0
  3 37  1  0
  3 38  1  0
  9 39  1  0
 10 40  1  0
 11 41  1  0
 12 42  1  0
 14 43  1  0
 18 44  1  0
 19 45  1  0
 22 46  1  0
 22 47  1  0
 23 48  1  0
 23 49  1  0
 25 50  1  0
 25 51  1  0
 26 52  1  0
 26 53  1  0
 27 54  1  0
 28 55  1  0
 31 56  1  0
 31 57  1  0
 33 58  1  0
 34 59  1  0
 35 60  1  0
M  CHG  1  30  -1
M  END
>  <UniqueID>  (90) 
84

>  <SMILES>  (90) 
O=C(Cn1nnc(-c2ccccc2NC(=O)c2ccc(N3CCOCC3)cc2)n1)[N-]Cc1ccco1

>  <Energy>  (90) 
140.69538560231706

>  <Genealogy>  (90) 
O=C(Cn1nnc(-c2ccccc2NC(=O)c2ccc(N3CCOCC3)cc2)n1)[N-]Cc1ccco1 (protonated)
O=C(Cn1nnc(-c2ccccc2NC(=O)c2ccc(N3CCOCC3)cc2)n1)[N-]Cc1ccco1 (3D coordinates assigned)
O=C(Cn1nnc(-c2ccccc2NC(=O)c2ccc(N3CCOCC3)cc2)n1)[N-]Cc1ccco1 (nonaromatic ring conformer: 140.69538560231706 kcal/mol)

>  <smiles>  (90) 
O=C(Cn1nnc(-c2ccccc2NC(=O)c2ccc(N3CCOCC3)cc2)n1)NCc1ccco1

>  <score_type>  (90) 
oracle

>  <origin>  (90) 
adg

>  <m_score__min__energy>  (90) 
-11.56

>  <m_primary>  (90) 
energy

$$$$
90:0
     RDKit          3D

 48 50  0  0  0  0  0  0  0  0999 V2000
   60.2280   30.5960   50.5000 H   0  0  0  0  0  0  0  0  0  0  0  0
   59.8920   31.4260   51.0380 N   0  0  0  0  0  0  0  0  0  0  0  0
   59.7250   32.7260   49.9130 S   0  0  0  0  0  0  0  0  0  0  0  0
   59.4730   33.9920   50.6840 O   0  0  0  0  0  0  0  0  0  0  0  0
   58.5520   32.4710   49.0090 O   0  0  0  0  0  0  0  0  0  0  0  0
   61.2000   32.8810   48.9430 C   0  0  0  0  0  0  0  0  0  0  0  0
   62.1160   33.8970   49.2680 C   0  0  0  0  0  0  0  0  0  0  0  0
   61.8999   34.5765   50.1056 H   0  0  0  0  0  0  0  0  0  0  0  0
   63.2960   34.0530   48.5400 C   0  0  0  0  0  0  0  0  0  0  0  0
   64.0012   34.8550   48.8034 H   0  0  0  0  0  0  0  0  0  0  0  0
   63.5830   33.1960   47.4810 C   0  0  0  0  0  0  0  0  0  0  0  0
   64.5177   33.3166   46.9138 H   0  0  0  0  0  0  0  0  0  0  0  0
   62.6850   32.1840   47.1390 C   0  0  0  0  0  0  0  0  0  0  0  0
   62.9211   31.5067   46.3050 H   0  0  0  0  0  0  0  0  0  0  0  0
   61.4820   32.0200   47.8480 C   0  0  0  0  0  0  0  0  0  0  0  0
   60.5690   30.8880   47.4510 C   0  0  0  0  0  0  0  0  0  0  0  0
   60.9058   30.4645   46.4933 H   0  0  0  0  0  0  0  0  0  0  0  0
   59.5418   31.2668   47.3447 H   0  0  0  0  0  0  0  0  0  0  0  0
   60.6000   29.8540   48.4760 N   0  0  0  0  0  0  0  0  0  0  0  0
   59.4980   28.9810   48.7220 C   0  0  0  0  0  0  0  0  0  0  0  0
   58.9440   28.9940   49.8520 O   0  0  0  0  0  0  0  0  0  0  0  0
   59.0990   28.0290   47.7300 N   0  0  0  0  0  0  0  0  0  0  0  0
   58.1950   28.1540   46.7970 C   0  0  0  0  0  0  0  0  0  0  0  0
   58.0270   29.3090   46.0660 C   0  0  0  0  0  0  0  0  0  0  0  0
   58.6062   30.2419   46.1313 H   0  0  0  0  0  0  0  0  0  0  0  0
   56.9620   29.0250   45.2310 C   0  0  0  0  0  0  0  0  0  0  0  0
   56.4030   29.9300   44.2100 C   0  0  0  0  0  0  0  0  0  0  0  0
   56.1050   29.4680   43.0760 O   0  0  0  0  0  0  0  0  0  0  0  0
   56.1130   31.3080   44.4920 N   0  0  0  0  0  0  0  0  0  0  0  0
   56.9730   32.2130   44.8590 C   0  0  0  0  0  0  0  0  0  0  0  0
   56.9750   32.7120   46.1290 N   0  0  0  0  0  0  0  0  0  0  0  0
   57.8780   33.6420   46.5380 C   0  0  0  0  0  0  0  0  0  0  0  0
   57.8382   34.0306   47.5663 H   0  0  0  0  0  0  0  0  0  0  0  0
   58.8600   34.1070   45.6520 C   0  0  0  0  0  0  0  0  0  0  0  0
   59.8350   35.1590   46.0860 C   0  0  0  0  0  0  0  0  0  0  0  0
   59.8694   35.1961   47.1848 H   0  0  0  0  0  0  0  0  0  0  0  0
   60.8344   34.9160   45.6959 H   0  0  0  0  0  0  0  0  0  0  0  0
   59.5169   36.1371   45.6959 H   0  0  0  0  0  0  0  0  0  0  0  0
   58.8740   33.6110   44.3420 C   0  0  0  0  0  0  0  0  0  0  0  0
   59.6241   33.9752   43.6246 H   0  0  0  0  0  0  0  0  0  0  0  0
   57.9370   32.6550   43.9460 C   0  0  0  0  0  0  0  0  0  0  0  0
   57.9563   32.2517   42.9228 H   0  0  0  0  0  0  0  0  0  0  0  0
   56.5180   27.7730   45.4630 N   0  0  0  0  0  0  0  0  0  0  0  0
   57.2580   27.2440   46.4240 N   0  0  0  0  0  0  0  0  0  0  0  0
   56.9580   25.9270   46.9820 C   0  0  0  0  0  0  0  0  0  0  0  0
   56.9707   25.9827   48.0805 H   0  0  0  0  0  0  0  0  0  0  0  0
   55.9630   25.6030   46.6427 H   0  0  0  0  0  0  0  0  0  0  0  0
   57.7145   25.2041   46.6427 H   0  0  0  0  0  0  0  0  0  0  0  0
  1  2  1  0
  2  3  1  0
  3  4  2  0
  3  5  2  0
  3  6  1  0
  6  7  2  0
  7  8  1  0
  7  9  1  0
  9 10  1  0
  9 11  2  0
 11 12  1  0
 11 13  1  0
 13 14  1  0
 13 15  2  0
 15 16  1  0
 16 17  1  0
 16 18  1  0
 16 19  1  0
 19 20  1  0
 20 21  2  0
 20 22  1  0
 22 23  2  3
 23 24  1  0
 24 25  1  0
 24 26  2  0
 26 27  1  0
 27 28  2  0
 27 29  1  0
 29 30  2  0
 30 31  1  0
 31 32  1  0
 32 33  1  0
 32 34  2  0
 34 35  1  0
 35 36  1  0
 35 37  1  0
 35 38  1  0
 34 39  1  0
 39 40  1  0
 39 41  2  0
 41 42  1  0
 26 43  1  0
 43 44  1  0
 44 45  1  0
 45 46  1  0
 45 47  1  0
 45 48  1  0
 15  6  1  0
 44 23  1  0
 41 30  1  0
M  CHG  4   2  -1  19  -1  31  -1  43  -1
M  END
>  <UniqueID>  (91) 
85

>  <SMILES>  (91) 
Cc1cc/c(=N/C(=O)c2cc(=NC(=O)[N-]Cc3ccccc3S([NH-])(=O)=O)n(C)[n-]2)[n-]c1

>  <Energy>  (91) 
96.59229125489868

>  <Genealogy>  (91) 
Cc1ccc(=NC(=O)c2cc(=NC(=O)[N-]Cc3ccccc3S([NH-])(=O)=O)n(C)[n-]2)[n-]c1 (protonated)
Cc1cc/c(=N/C(=O)c2cc(=NC(=O)[N-]Cc3ccccc3S([NH-])(=O)=O)n(C)[n-]2)[n-]c1 (cis-trans isomerization)
Cc1cc/c(=N/C(=O)c2cc(=NC(=O)[N-]Cc3ccccc3S([NH-])(=O)=O)n(C)[n-]2)[n-]c1 (3D coordinates assigned)
Cc1cc/c(=N/C(=O)c2cc(=NC(=O)[N-]Cc3ccccc3S([NH-])(=O)=O)n(C)[n-]2)[n-]c1 (optimized conformer: 96.59229125489868 kcal/mol)

>  <smiles>  (91) 
Cc1ccc(=NC(=O)c2cc(=NC(=O)NCc3ccccc3S(N)(=O)=O)n(C)[nH]2)[nH]c1

>  <score_type>  (91) 
oracle

>  <origin>  (91) 
adg

>  <m_score__min__energy>  (91) 
-15.91

>  <m_primary>  (91) 
energy

$$$$
91:0
     RDKit          3D

 22 23  0  0  0  0  0  0  0  0999 V2000
   54.3160   24.9790   45.6270 C   0  0  0  0  0  0  0  0  0  0  0  0
   54.7710   26.3170   45.9730 N   0  0  0  0  0  0  0  0  0  0  0  0
   56.1540   26.6470   46.1330 C   0  0  0  0  0  0  0  0  0  0  0  0
   56.9220   25.8540   46.7400 O   0  0  0  0  0  0  0  0  0  0  0  0
   56.6420   27.9590   45.6560 C   0  0  0  0  0  0  0  0  0  0  0  0
   55.7080   28.8470   45.2240 N   0  0  0  0  0  0  0  0  0  0  0  0
   56.0220   30.0790   44.8270 N   0  0  0  0  0  0  0  0  0  0  0  0
   57.3010   30.5240   44.8330 C   0  0  0  0  0  0  0  0  0  0  0  0
   57.5440   31.7040   44.4590 O   0  0  0  0  0  0  0  0  0  0  0  0
   58.3320   29.6650   45.2430 C   0  0  0  0  0  0  0  0  0  0  0  0
   59.6760   30.0870   45.2400 C   0  0  0  0  0  0  0  0  0  0  0  0
   60.6920   29.2060   45.6100 C   0  0  0  0  0  0  0  0  0  0  0  0
   60.3840   27.8960   45.9710 C   0  0  0  0  0  0  0  0  0  0  0  0
   59.0570   27.4610   45.9840 C   0  0  0  0  0  0  0  0  0  0  0  0
   58.0070   28.3450   45.6490 C   0  0  0  0  0  0  0  0  0  0  0  0
   54.1219   24.4083   46.5471 H   0  0  0  0  0  0  0  0  0  0  0  0
   53.3907   25.0477   45.0361 H   0  0  0  0  0  0  0  0  0  0  0  0
   55.0914   24.4694   45.0361 H   0  0  0  0  0  0  0  0  0  0  0  0
   59.9255   31.1167   44.9443 H   0  0  0  0  0  0  0  0  0  0  0  0
   61.7381   29.5460   45.6168 H   0  0  0  0  0  0  0  0  0  0  0  0
   61.1904   27.2007   46.2472 H   0  0  0  0  0  0  0  0  0  0  0  0
   58.8272   26.4206   46.2576 H   0  0  0  0  0  0  0  0  0  0  0  0
  1  2  1  0
  2  3  1  0
  3  4  2  0
  3  5  1  0
  5  6  2  0
  6  7  1  0
  7  8  1  0
  8  9  2  0
  8 10  1  0
 10 11  2  0
 11 12  1  0
 12 13  2  0
 13 14  1  0
 14 15  2  0
 15  5  1  0
 15 10  1  0
  1 16  1  0
  1 17  1  0
  1 18  1  0
 11 19  1  0
 12 20  1  0
 13 21  1  0
 14 22  1  0
M  CHG  2   2  -1   7  -1
M  END
>  <UniqueID>  (92) 
86

>  <SMILES>  (92) 
C[N-]C(=O)c1n[n-]c(=O)c2ccccc12

>  <Energy>  (92) 
32.02491509324895

>  <Genealogy>  (92) 
C[N-]C(=O)c1n[n-]c(=O)c2ccccc12 (protonated)
C[N-]C(=O)c1n[n-]c(=O)c2ccccc12 (3D coordinates assigned)
C[N-]C(=O)c1n[n-]c(=O)c2ccccc12 (optimized conformer: 32.02491509324895 kcal/mol)

>  <smiles>  (92) 
CNC(=O)c1n[nH]c(=O)c2ccccc12

>  <score_type>  (92) 
oracle

>  <origin>  (92) 
adg

>  <m_score__min__energy>  (92) 
-10.15

>  <m_primary>  (92) 
energy

$$$$
92:0
     RDKit          3D

 36 37  0  0  0  0  0  0  0  0999 V2000
   55.1600   26.4230   46.0340 N   0  0  0  0  0  0  0  0  0  0  0  0
   56.8160   25.9340   45.9360 S   0  0  0  0  0  0  0  0  0  0  0  0
   57.1230   24.9810   47.0560 O   0  0  0  0  0  0  0  0  0  0  0  0
   57.0360   25.2440   44.6190 O   0  0  0  0  0  0  0  0  0  0  0  0
   57.8650   27.3410   46.0570 C   0  0  0  0  0  0  0  0  0  0  0  0
   58.0430   27.9820   47.2900 C   0  0  0  0  0  0  0  0  0  0  0  0
   58.8790   29.0970   47.3900 C   0  0  0  0  0  0  0  0  0  0  0  0
   59.5420   29.5900   46.2550 C   0  0  0  0  0  0  0  0  0  0  0  0
   60.4680   30.7650   46.3700 C   0  0  0  0  0  0  0  0  0  0  0  0
   59.7110   31.9350   46.7930 N   0  0  0  0  0  0  0  0  0  0  0  0
   59.6680   33.1470   46.0370 C   0  0  0  0  0  0  0  0  0  0  0  0
   60.7100   33.8420   45.8850 O   0  0  0  0  0  0  0  0  0  0  0  0
   58.3860   33.5750   45.3970 C   0  0  0  0  0  0  0  0  0  0  0  0
   57.8060   32.4470   44.5870 C   0  0  0  0  0  0  0  0  0  0  0  0
   57.9930   32.4070   43.1950 C   0  0  0  0  0  0  0  0  0  0  0  0
   57.4320   31.3740   42.4370 C   0  0  0  0  0  0  0  0  0  0  0  0
   56.6710   30.3770   43.0610 C   0  0  0  0  0  0  0  0  0  0  0  0
   56.1120   29.3430   42.3120 O   0  0  0  0  0  0  0  0  0  0  0  0
   56.4690   30.4210   44.4470 C   0  0  0  0  0  0  0  0  0  0  0  0
   55.7090   29.4390   45.0730 O   0  0  0  0  0  0  0  0  0  0  0  0
   57.0290   31.4540   45.2070 C   0  0  0  0  0  0  0  0  0  0  0  0
   59.3840   28.9310   45.0260 C   0  0  0  0  0  0  0  0  0  0  0  0
   58.5480   27.8130   44.9270 C   0  0  0  0  0  0  0  0  0  0  0  0
   55.1510   27.4680   46.0610 H   0  0  0  0  0  0  0  0  0  0  0  0
   57.5224   27.6059   48.1830 H   0  0  0  0  0  0  0  0  0  0  0  0
   59.0184   29.5910   48.3629 H   0  0  0  0  0  0  0  0  0  0  0  0
   61.2499   30.5454   47.1119 H   0  0  0  0  0  0  0  0  0  0  0  0
   60.9361   30.9621   45.3943 H   0  0  0  0  0  0  0  0  0  0  0  0
   57.6694   33.8664   46.1790 H   0  0  0  0  0  0  0  0  0  0  0  0
   58.5849   34.4284   44.7320 H   0  0  0  0  0  0  0  0  0  0  0  0
   58.5833   33.1916   42.6991 H   0  0  0  0  0  0  0  0  0  0  0  0
   57.5887   31.3444   41.3486 H   0  0  0  0  0  0  0  0  0  0  0  0
   55.1980   28.9620   42.5340 H   0  0  0  0  0  0  0  0  0  0  0  0
   56.8603   31.4887   46.2934 H   0  0  0  0  0  0  0  0  0  0  0  0
   59.9196   29.2948   44.1367 H   0  0  0  0  0  0  0  0  0  0  0  0
   58.4264   27.3031   43.9600 H   0  0  0  0  0  0  0  0  0  0  0  0
  1  2  1  0
  2  3  2  0
  2  4  2  0
  2  5  1  0
  5  6  2  0
  6  7  1  0
  7  8  2  0
  8  9  1  0
  9 10  1  0
 10 11  1  0
 11 12  2  0
 11 13  1  0
 13 14  1  0
 14 15  2  0
 15 16  1  0
 16 17  2  0
 17 18  1  0
 17 19  1  0
 19 20  1  0
 19 21  2  0
  8 22  1  0
 22 23  2  0
 23  5  1  0
 21 14  1  0
  1 24  1  0
  6 25  1  0
  7 26  1  0
  9 27  1  0
  9 28  1  0
 13 29  1  0
 13 30  1  0
 15 31  1  0
 16 32  1  0
 18 33  1  0
 21 34  1  0
 22 35  1  0
 23 36  1  0
M  CHG  3   1  -1  10  -1  20  -1
M  END
>  <UniqueID>  (93) 
87

>  <SMILES>  (93) 
[NH-]S(=O)(=O)c1ccc(C[N-]C(=O)Cc2ccc(O)c([O-])c2)cc1

>  <Energy>  (93) 
31.119408926783475

>  <Genealogy>  (93) 
[NH-]S(=O)(=O)c1ccc(C[N-]C(=O)Cc2ccc(O)c([O-])c2)cc1 (protonated)
[NH-]S(=O)(=O)c1ccc(C[N-]C(=O)Cc2ccc(O)c([O-])c2)cc1 (3D coordinates assigned)
[NH-]S(=O)(=O)c1ccc(C[N-]C(=O)Cc2ccc(O)c([O-])c2)cc1 (optimized conformer: 31.119408926783475 kcal/mol)

>  <smiles>  (93) 
NS(=O)(=O)c1ccc(CNC(=O)Cc2ccc(O)c(O)c2)cc1

>  <score_type>  (93) 
oracle

>  <origin>  (93) 
adg

>  <m_score__min__energy>  (93) 
-13.48

>  <m_primary>  (93) 
energy

$$$$
93:0
     RDKit          3D

 46 48  0  0  1  0  0  0  0  0999 V2000
   64.1370   33.1530   47.8360 C   0  0  0  0  0  0  0  0  0  0  0  0
   63.1740   32.0100   47.5620 C   0  0  0  0  0  0  0  0  0  0  0  0
   61.8070   32.5630   47.2600 C   0  0  0  0  0  0  0  0  0  0  0  0
   60.6560   32.0390   47.7310 N   0  0  0  0  0  0  0  0  0  0  0  0
   59.6930   32.7970   47.2480 N   0  0  0  0  0  0  0  0  0  0  0  0
   60.1920   33.7870   46.4840 C   0  0  0  0  0  0  0  0  0  0  0  0
   59.2420   35.0400   45.6380 S   0  0  0  0  0  0  0  0  0  0  0  0
   58.1050   34.2030   44.5060 C   0  0  0  0  0  0  0  0  0  0  0  0
   57.8560   32.7930   44.9610 C   0  0  0  0  0  0  0  0  0  0  0  0
   57.1360   32.6120   45.9960 O   0  0  0  0  0  0  0  0  0  0  0  0
   58.3940   31.6820   44.2750 N   0  0  0  0  0  0  0  0  0  0  0  0
   58.1500   30.3500   44.7170 C   0  0  0  0  0  0  0  0  0  0  0  0
   56.8590   29.8660   44.4760 C   0  0  0  0  0  0  0  0  0  0  0  0
   56.5590   28.5800   44.8800 C   0  0  0  0  0  0  0  0  0  0  0  0
   57.5180   27.8070   45.5030 C   0  0  0  0  0  0  0  0  0  0  0  0
   57.0200   26.1810   45.9750 S   0  0  0  0  0  0  0  0  0  0  0  0
   55.5220   26.0930   45.8620 O   0  0  0  0  0  0  0  0  0  0  0  0
   57.3620   25.8850   47.4080 O   0  0  0  0  0  0  0  0  0  0  0  0
   57.7920   24.9960   45.0040 N   0  0  0  0  0  0  0  0  0  0  0  0
   57.1350   24.0760   44.4210 C   0  0  0  0  0  0  0  0  0  0  0  0
   57.6360   22.8220   44.1220 C   0  0  0  0  0  0  0  0  0  0  0  0
   56.5720   22.1680   43.4960 C   0  0  0  0  0  0  0  0  0  0  0  0
   56.6440   20.7690   42.9890 C   0  0  0  0  0  0  0  0  0  0  0  0
   55.5430   22.9780   43.4390 O   0  0  0  0  0  0  0  0  0  0  0  0
   55.8710   24.1090   43.9850 N   0  0  0  0  0  0  0  0  0  0  0  0
   58.7940   28.2770   45.7450 C   0  0  0  0  0  0  0  0  0  0  0  0
   59.1100   29.5760   45.3400 C   0  0  0  0  0  0  0  0  0  0  0  0
   61.5300   33.6370   46.4930 N   0  0  0  0  0  0  0  0  0  0  0  0
   64.2489   33.2858   48.9222 H   0  0  0  0  0  0  0  0  0  0  0  0
   65.1165   32.9216   47.3921 H   0  0  0  0  0  0  0  0  0  0  0  0
   63.7428   34.0790   47.3921 H   0  0  0  0  0  0  0  0  0  0  0  0
   63.5322   31.4282   46.6999 H   0  0  0  0  0  0  0  0  0  0  0  0
   63.1176   31.3596   48.4473 H   0  0  0  0  0  0  0  0  0  0  0  0
   58.6790   32.6020   47.4670 H   0  0  0  0  0  0  0  0  0  0  0  0
   57.1507   34.7496   44.4810 H   0  0  0  0  0  0  0  0  0  0  0  0
   58.5539   34.1798   43.5020 H   0  0  0  0  0  0  0  0  0  0  0  0
   58.9860   31.8700   43.4210 H   0  0  0  0  0  0  0  0  0  0  0  0
   56.1042   30.4927   43.9785 H   0  0  0  0  0  0  0  0  0  0  0  0
   55.5532   28.1706   44.7049 H   0  0  0  0  0  0  0  0  0  0  0  0
   58.6423   22.4293   44.3297 H   0  0  0  0  0  0  0  0  0  0  0  0
   56.6799   20.0722   43.8394 H   0  0  0  0  0  0  0  0  0  0  0  0
   55.7557   20.5547   42.3766 H   0  0  0  0  0  0  0  0  0  0  0  0
   57.5496   20.6471   42.3766 H   0  0  0  0  0  0  0  0  0  0  0  0
   55.2310   24.9290   44.0700 H   0  0  0  0  0  0  0  0  0  0  0  0
   59.5426   27.6442   46.2442 H   0  0  0  0  0  0  0  0  0  0  0  0
   60.1177   29.9805   45.5161 H   0  0  0  0  0  0  0  0  0  0  0  0
  1  2  1  0
  2  3  1  0
  3  4  2  0
  4  5  1  0
  5  6  1  0
  6  7  1  0
  7  8  1  0
  8  9  1  0
  9 10  2  0
  9 11  1  0
 11 12  1  0
 12 13  2  0
 13 14  1  0
 14 15  2  0
 15 16  1  0
 16 17  2  0
 16 18  2  0
 16 19  1  0
 19 20  2  0
 20 21  1  0
 21 22  2  0
 22 23  1  0
 22 24  1  0
 24 25  1  0
 15 26  1  0
 26 27  2  0
  6 28  2  0
 28  3  1  0
 27 12  1  0
 25 20  1  0
  1 29  1  0
  1 30  1  0
  1 31  1  0
  2 32  1  0
  2 33  1  0
  5 34  1  0
  8 35  1  0
  8 36  1  0
 11 37  1  0
 13 38  1  0
 14 39  1  0
 21 40  1  0
 23 41  1  0
 23 42  1  0
 23 43  1  0
 25 44  1  0
 26 45  1  0
 27 46  1  0
M  END
>  <smiles>  (94) 
CCc1n[nH]c(SCC(=O)Nc2ccc(S(=O)(=O)N=c3cc(C)o[nH]3)cc2)n1

>  <score_type>  (94) 
oracle

>  <origin>  (94) 
adg

>  <m_score__min__energy>  (94) 
-9.4000000000000004

>  <m_primary>  (94) 
energy

$$$$
94:0
     RDKit          3D

 53 56  0  0  0  0  0  0  0  0999 V2000
   58.4760   31.1130   48.3340 O   0  0  0  0  0  0  0  0  0  0  0  0
   59.3350   30.7410   47.4940 C   0  0  0  0  0  0  0  0  0  0  0  0
   60.7480   30.4800   47.9520 C   0  0  0  0  0  0  0  0  0  0  0  0
   60.7990   29.2850   48.8190 N   0  0  0  0  0  0  0  0  0  0  0  0
   61.0750   29.3720   50.1680 C   0  0  0  0  0  0  0  0  0  0  0  0
   61.2860   30.9410   51.0410 S   0  0  0  0  0  0  0  0  0  0  0  0
   59.7310   30.8170   51.9360 C   0  0  0  0  0  0  0  0  0  0  0  0
   59.4520   29.6460   52.5740 N   0  0  0  0  0  0  0  0  0  0  0  0
   58.3260   29.4740   53.3120 C   0  0  0  0  0  0  0  0  0  0  0  0
   57.4090   30.5160   53.4370 C   0  0  0  0  0  0  0  0  0  0  0  0
   57.6510   31.7220   52.7820 C   0  0  0  0  0  0  0  0  0  0  0  0
   58.8110   31.8900   52.0070 C   0  0  0  0  0  0  0  0  0  0  0  0
   58.9960   33.1540   51.2530 C   0  0  0  0  0  0  0  0  0  0  0  0
   58.9300   34.2590   51.8550 O   0  0  0  0  0  0  0  0  0  0  0  0
   59.2880   33.1240   49.8490 N   0  0  0  0  0  0  0  0  0  0  0  0
   59.7950   34.2900   49.1290 C   0  0  0  0  0  0  0  0  0  0  0  0
   61.0990   33.9550   48.4500 C   0  0  0  0  0  0  0  0  0  0  0  0
   62.2320   33.6620   49.2300 C   0  0  0  0  0  0  0  0  0  0  0  0
   63.4420   33.3210   48.6200 C   0  0  0  0  0  0  0  0  0  0  0  0
   63.5350   33.2660   47.2300 C   0  0  0  0  0  0  0  0  0  0  0  0
   62.4150   33.5470   46.4430 C   0  0  0  0  0  0  0  0  0  0  0  0
   61.1960   33.8890   47.0420 C   0  0  0  0  0  0  0  0  0  0  0  0
   59.8160   34.2220   46.0010 Cl  0  0  0  0  0  0  0  0  0  0  0  0
   61.1440   28.2110   50.9420 C   0  0  0  0  0  0  0  0  0  0  0  0
   60.9380   26.9800   50.3330 C   0  0  0  0  0  0  0  0  0  0  0  0
   60.9990   25.9190   51.0080 O   0  0  0  0  0  0  0  0  0  0  0  0
   60.6640   26.9220   49.0100 N   0  0  0  0  0  0  0  0  0  0  0  0
   60.5910   28.0480   48.2530 C   0  0  0  0  0  0  0  0  0  0  0  0
   60.3290   27.9350   47.0250 O   0  0  0  0  0  0  0  0  0  0  0  0
   58.9660   30.6980   46.1060 N   0  0  0  0  0  0  0  0  0  0  0  0
   57.8550   30.2770   45.5690 C   0  0  0  0  0  0  0  0  0  0  0  0
   57.0710   31.0650   44.7020 C   0  0  0  0  0  0  0  0  0  0  0  0
   55.9030   30.5320   44.1500 C   0  0  0  0  0  0  0  0  0  0  0  0
   55.5300   29.2570   44.4390 N   0  0  0  0  0  0  0  0  0  0  0  0
   56.2720   28.4690   45.2600 C   0  0  0  0  0  0  0  0  0  0  0  0
   57.4480   28.9620   45.8310 C   0  0  0  0  0  0  0  0  0  0  0  0
   61.3891   30.3171   47.0731 H   0  0  0  0  0  0  0  0  0  0  0  0
   61.1026   31.3499   48.5243 H   0  0  0  0  0  0  0  0  0  0  0  0
   58.1372   28.5123   53.8114 H   0  0  0  0  0  0  0  0  0  0  0  0
   56.5027   30.3877   54.0470 H   0  0  0  0  0  0  0  0  0  0  0  0
   56.9295   32.5474   52.8722 H   0  0  0  0  0  0  0  0  0  0  0  0
   59.1430   32.2380   49.3130 H   0  0  0  0  0  0  0  0  0  0  0  0
   59.0592   34.5977   48.3714 H   0  0  0  0  0  0  0  0  0  0  0  0
   59.9622   35.1091   49.8439 H   0  0  0  0  0  0  0  0  0  0  0  0
   62.1652   33.7015   50.3273 H   0  0  0  0  0  0  0  0  0  0  0  0
   64.3235   33.0954   49.2381 H   0  0  0  0  0  0  0  0  0  0  0  0
   64.4901   33.0014   46.7528 H   0  0  0  0  0  0  0  0  0  0  0  0
   62.4912   33.4993   45.3467 H   0  0  0  0  0  0  0  0  0  0  0  0
   61.3586   28.2711   52.0192 H   0  0  0  0  0  0  0  0  0  0  0  0
   57.3769   32.0938   44.4613 H   0  0  0  0  0  0  0  0  0  0  0  0
   55.2836   31.1459   43.4796 H   0  0  0  0  0  0  0  0  0  0  0  0
   55.9463   27.4407   45.4757 H   0  0  0  0  0  0  0  0  0  0  0  0
   58.0539   28.3184   46.4857 H   0  0  0  0  0  0  0  0  0  0  0  0
  1  2  2  0
  2  3  1  0
  3  4  1  0
  4  5  1  0
  5  6  1  0
  6  7  1  0
  7  8  2  0
  8  9  1  0
  9 10  2  0
 10 11  1  0
 11 12  2  0
 12 13  1  0
 13 14  2  0
 13 15  1  0
 15 16  1  0
 16 17  1  0
 17 18  2  0
 18 19  1  0
 19 20  2  0
 20 21  1  0
 21 22  2  0
 22 23  1  0
  5 24  2  0
 24 25  1  0
 25 26  2  0
 25 27  1  0
 27 28  1  0
 28 29  2  0
  2 30  1  0
 30 31  2  3
 31 32  1  0
 32 33  2  0
 33 34  1  0
 34 35  1  0
 35 36  2  0
 28  4  1  0
 36 31  1  0
 12  7  1  0
 22 17  1  0
  3 37  1  0
  3 38  1  0
  9 39  1  0
 10 40  1  0
 11 41  1  0
 15 42  1  0
 16 43  1  0
 16 44  1  0
 18 45  1  0
 19 46  1  0
 20 47  1  0
 21 48  1  0
 24 49  1  0
 32 50  1  0
 33 51  1  0
 35 52  1  0
 36 53  1  0
M  CHG  2  27  -1  34  -1
M  END
>  <UniqueID>  (95) 
88

>  <SMILES>  (95) 
O=C(Cn1c(Sc2ncccc2C(=O)NCc2ccccc2Cl)cc(=O)[n-]c1=O)N=c1cc[n-]cc1

>  <Energy>  (95) 
71.30557515059597

>  <Genealogy>  (95) 
O=C(Cn1c(Sc2ncccc2C(=O)NCc2ccccc2Cl)cc(=O)[n-]c1=O)N=c1cc[n-]cc1 (protonated)
O=C(Cn1c(Sc2ncccc2C(=O)NCc2ccccc2Cl)cc(=O)[n-]c1=O)N=c1cc[n-]cc1 (3D coordinates assigned)
O=C(Cn1c(Sc2ncccc2C(=O)NCc2ccccc2Cl)cc(=O)[n-]c1=O)N=c1cc[n-]cc1 (optimized conformer: 71.30557515059597 kcal/mol)

>  <smiles>  (95) 
O=C(Cn1c(Sc2ncccc2C(=O)NCc2ccccc2Cl)cc(=O)[nH]c1=O)N=c1cc[nH]cc1

>  <score_type>  (95) 
oracle

>  <origin>  (95) 
adg

>  <m_score__min__energy>  (95) 
-12.710000000000001

>  <m_primary>  (95) 
energy

$$$$
