0:0
     RDKit          3D

 38 40  0  0  0  0  0  0  0  0999 V2000
   54.7700   27.0830   46.4770 H   0  0  0  0  0  0  0  0  0  0  0  0
   54.7890   26.1610   45.9860 N   0  0  0  0  0  0  0  0  0  0  0  0
   56.4440   25.6740   45.8900 S   0  0  0  0  0  0  0  0  0  0  0  0
   56.6550   24.8640   44.6420 O   0  0  0  0  0  0  0  0  0  0  0  0
   56.7880   24.8240   47.0810 O   0  0  0  0  0  0  0  0  0  0  0  0
   57.4750   27.1000   45.8550 C   0  0  0  0  0  0  0  0  0  0  0  0
   57.7110   27.7710   44.6480 C   0  0  0  0  0  0  0  0  0  0  0  0
   57.2582   27.3988   43.7172 H   0  0  0  0  0  0  0  0  0  0  0  0
   58.5190   28.9110   44.6210 C   0  0  0  0  0  0  0  0  0  0  0  0
   58.7013   29.4296   43.6682 H   0  0  0  0  0  0  0  0  0  0  0  0
   59.0980   29.3970   45.8000 C   0  0  0  0  0  0  0  0  0  0  0  0
   59.9160   30.5700   45.7390 N   0  0  0  0  0  0  0  0  0  0  0  0
   59.6040   31.6420   46.3480 N   0  0  0  0  0  0  0  0  0  0  0  0
   58.7450   32.6180   45.7520 C   0  0  0  0  0  0  0  0  0  0  0  0
   59.0100   33.9590   45.5930 C   0  0  0  0  0  0  0  0  0  0  0  0
   60.2370   34.6930   46.0430 C   0  0  0  0  0  0  0  0  0  0  0  0
   60.8958   34.8641   45.1789 H   0  0  0  0  0  0  0  0  0  0  0  0
   59.9389   35.6559   46.4834 H   0  0  0  0  0  0  0  0  0  0  0  0
   60.9720   33.8870   47.0760 C   0  0  0  0  0  0  0  0  0  0  0  0
   62.2190   33.3170   46.7710 C   0  0  0  0  0  0  0  0  0  0  0  0
   62.6452   33.4379   45.7642 H   0  0  0  0  0  0  0  0  0  0  0  0
   62.9210   32.5960   47.7430 C   0  0  0  0  0  0  0  0  0  0  0  0
   63.8935   32.1448   47.4965 H   0  0  0  0  0  0  0  0  0  0  0  0
   62.3880   32.4480   49.0280 C   0  0  0  0  0  0  0  0  0  0  0  0
   63.2710   31.5470   50.2460 Cl  0  0  0  0  0  0  0  0  0  0  0  0
   61.1520   33.0230   49.3410 C   0  0  0  0  0  0  0  0  0  0  0  0
   60.7340   32.9090   50.3521 H   0  0  0  0  0  0  0  0  0  0  0  0
   60.4470   33.7420   48.3720 C   0  0  0  0  0  0  0  0  0  0  0  0
   59.4775   34.1963   48.6243 H   0  0  0  0  0  0  0  0  0  0  0  0
   57.9250   34.5440   45.0430 N   0  0  0  0  0  0  0  0  0  0  0  0
   57.8180   35.5590   44.8220 H   0  0  0  0  0  0  0  0  0  0  0  0
   56.9830   33.6350   44.8300 N   0  0  0  0  0  0  0  0  0  0  0  0
   57.4680   32.4540   45.2590 C   0  0  0  0  0  0  0  0  0  0  0  0
   56.8230   31.3730   45.2130 O   0  0  0  0  0  0  0  0  0  0  0  0
   58.8550   28.7270   47.0140 C   0  0  0  0  0  0  0  0  0  0  0  0
   59.3031   29.1017   47.9461 H   0  0  0  0  0  0  0  0  0  0  0  0
   58.0460   27.5870   47.0390 C   0  0  0  0  0  0  0  0  0  0  0  0
   57.8568   27.0702   47.9914 H   0  0  0  0  0  0  0  0  0  0  0  0
  1  2  1  0
  2  3  1  0
  3  4  2  0
  3  5  2  0
  3  6  1  0
  6  7  2  0
  7  8  1  0
  7  9  1  0
  9 10  1  0
  9 11  2  0
 11 12  1  0
 12 13  2  0
 13 14  1  0
 14 15  2  0
 15 16  1  0
 16 17  1  0
 16 18  1  0
 16 19  1  0
 19 20  2  0
 20 21  1  0
 20 22  1  0
 22 23  1  0
 22 24  2  0
 24 25  1  0
 24 26  1  0
 26 27  1  0
 26 28  2  0
 28 29  1  0
 15 30  1  0
 30 31  1  0
 30 32  1  0
 32 33  1  0
 33 34  2  0
 11 35  1  0
 35 36  1  0
 35 37  2  0
 37 38  1  0
 37  6  1  0
 33 14  1  0
 28 19  1  0
M  CHG  2   2  -1  32  -1
M  END
>  <UniqueID>  (1) 
1

>  <SMILES>  (1) 
[NH-]S(=O)(=O)c1ccc(/N=N/c2c(Cc3ccc(Cl)cc3)[nH][n-]c2=O)cc1

>  <Energy>  (1) 
70.63856762440568

>  <Genealogy>  (1) 
[NH-]S(=O)(=O)c1ccc(N=Nc2c(Cc3ccc(Cl)cc3)[nH][n-]c2=O)cc1 (protonated)
[NH-]S(=O)(=O)c1ccc(/N=N/c2c(Cc3ccc(Cl)cc3)[nH][n-]c2=O)cc1 (cis-trans isomerization)
[NH-]S(=O)(=O)c1ccc(/N=N/c2c(Cc3ccc(Cl)cc3)[nH][n-]c2=O)cc1 (3D coordinates assigned)
[NH-]S(=O)(=O)c1ccc(/N=N/c2c(Cc3ccc(Cl)cc3)[nH][n-]c2=O)cc1 (optimized conformer: 70.63856762440568 kcal/mol)

>  <smiles>  (1) 
NS(=O)(=O)c1ccc(N=Nc2c(Cc3ccc(Cl)cc3)[nH][nH]c2=O)cc1

>  <score_type>  (1) 
oracle

>  <origin>  (1) 
adg

>  <m_score__min__energy>  (1) 
-12.49

>  <m_primary>  (1) 
energy

$$$$
1:0
     RDKit          3D

 63 67  0  0  0  0  0  0  0  0999 V2000
   53.9990   30.6750   51.8640 C   0  0  0  0  0  0  0  0  0  0  0  0
   55.1450   30.9090   52.6750 O   0  0  0  0  0  0  0  0  0  0  0  0
   56.4680   30.8650   52.2080 C   0  0  0  0  0  0  0  0  0  0  0  0
   57.2670   29.7090   52.3060 C   0  0  0  0  0  0  0  0  0  0  0  0
   58.5870   29.7190   51.8490 C   0  0  0  0  0  0  0  0  0  0  0  0
   59.1310   30.8850   51.2850 C   0  0  0  0  0  0  0  0  0  0  0  0
   60.5160   30.8820   50.7680 C   0  0  0  0  0  0  0  0  0  0  0  0
   61.6820   31.0610   51.5020 C   0  0  0  0  0  0  0  0  0  0  0  0
   61.8120   31.3650   52.9740 C   0  0  0  0  0  0  0  0  0  0  0  0
   62.7940   32.4210   53.2020 N   0  0  0  0  0  0  0  0  0  0  0  0
   64.0000   32.2890   53.7890 C   0  0  0  0  0  0  0  0  0  0  0  0
   64.6280   33.4760   53.8380 N   0  0  0  0  0  0  0  0  0  0  0  0
   63.7570   34.3250   53.2520 C   0  0  0  0  0  0  0  0  0  0  0  0
   62.6320   33.6890   52.8590 N   0  0  0  0  0  0  0  0  0  0  0  0
   62.7000   30.8460   50.5770 C   0  0  0  0  0  0  0  0  0  0  0  0
   64.1490   30.9450   50.7920 C   0  0  0  0  0  0  0  0  0  0  0  0
   64.7080   30.0880   51.5230 O   0  0  0  0  0  0  0  0  0  0  0  0
   64.9320   32.0380   50.2900 N   0  0  0  0  0  0  0  0  0  0  0  0
   64.5180   33.4330   50.1230 C   0  0  0  0  0  0  0  0  0  0  0  0
   63.4530   33.5790   49.0650 C   0  0  0  0  0  0  0  0  0  0  0  0
   63.7180   33.2040   47.7380 C   0  0  0  0  0  0  0  0  0  0  0  0
   62.7270   33.3170   46.7580 C   0  0  0  0  0  0  0  0  0  0  0  0
   61.4530   33.8080   47.0950 C   0  0  0  0  0  0  0  0  0  0  0  0
   60.4100   33.9100   46.1610 O   0  0  0  0  0  0  0  0  0  0  0  0
   59.2540   34.7460   46.2920 C   0  0  0  0  0  0  0  0  0  0  0  0
   58.5420   34.3560   47.4090 F   0  0  0  0  0  0  0  0  0  0  0  0
   58.4350   34.6140   45.1770 F   0  0  0  0  0  0  0  0  0  0  0  0
   59.6460   36.0710   46.4520 F   0  0  0  0  0  0  0  0  0  0  0  0
   61.2000   34.2060   48.4160 C   0  0  0  0  0  0  0  0  0  0  0  0
   62.1910   34.0990   49.3940 C   0  0  0  0  0  0  0  0  0  0  0  0
   62.1730   30.5950   49.3620 N   0  0  0  0  0  0  0  0  0  0  0  0
   60.8560   30.6190   49.4840 N   0  0  0  0  0  0  0  0  0  0  0  0
   59.9670   30.3960   48.3790 C   0  0  0  0  0  0  0  0  0  0  0  0
   59.3200   31.4910   47.7860 C   0  0  0  0  0  0  0  0  0  0  0  0
   58.4900   31.3100   46.6770 C   0  0  0  0  0  0  0  0  0  0  0  0
   58.2810   30.0260   46.1650 C   0  0  0  0  0  0  0  0  0  0  0  0
   57.2370   29.7930   44.7750 Cl  0  0  0  0  0  0  0  0  0  0  0  0
   58.8900   28.9220   46.7750 C   0  0  0  0  0  0  0  0  0  0  0  0
   59.7240   29.0990   47.8860 C   0  0  0  0  0  0  0  0  0  0  0  0
   60.3740   27.6770   48.6890 Cl  0  0  0  0  0  0  0  0  0  0  0  0
   58.3290   32.0300   51.1670 C   0  0  0  0  0  0  0  0  0  0  0  0
   57.0100   32.0170   51.6300 C   0  0  0  0  0  0  0  0  0  0  0  0
   53.1248   30.4965   52.5073 H   0  0  0  0  0  0  0  0  0  0  0  0
   53.8136   31.5538   51.2289 H   0  0  0  0  0  0  0  0  0  0  0  0
   54.1729   29.7938   51.2289 H   0  0  0  0  0  0  0  0  0  0  0  0
   56.8484   28.7917   52.7456 H   0  0  0  0  0  0  0  0  0  0  0  0
   59.2025   28.8110   51.9310 H   0  0  0  0  0  0  0  0  0  0  0  0
   60.8357   31.6908   53.3623 H   0  0  0  0  0  0  0  0  0  0  0  0
   62.1470   30.4549   53.4931 H   0  0  0  0  0  0  0  0  0  0  0  0
   64.4117   31.3441   54.1733 H   0  0  0  0  0  0  0  0  0  0  0  0
   65.5690   33.6880   54.2410 H   0  0  0  0  0  0  0  0  0  0  0  0
   63.9406   35.4005   53.1121 H   0  0  0  0  0  0  0  0  0  0  0  0
   64.1222   33.8038   51.0800 H   0  0  0  0  0  0  0  0  0  0  0  0
   65.3963   34.0145   49.8061 H   0  0  0  0  0  0  0  0  0  0  0  0
   64.7121   32.8186   47.4675 H   0  0  0  0  0  0  0  0  0  0  0  0
   62.9444   33.0212   45.7211 H   0  0  0  0  0  0  0  0  0  0  0  0
   60.2112   34.6064   48.6842 H   0  0  0  0  0  0  0  0  0  0  0  0
   61.9825   34.4228   50.4244 H   0  0  0  0  0  0  0  0  0  0  0  0
   59.4676   32.5003   48.1978 H   0  0  0  0  0  0  0  0  0  0  0  0
   58.0016   32.1765   46.2073 H   0  0  0  0  0  0  0  0  0  0  0  0
   58.7123   27.9111   46.3795 H   0  0  0  0  0  0  0  0  0  0  0  0
   58.7396   32.9416   50.7084 H   0  0  0  0  0  0  0  0  0  0  0  0
   56.3921   32.9225   51.5386 H   0  0  0  0  0  0  0  0  0  0  0  0
  1  2  1  0
  2  3  1  0
  3  4  2  0
  4  5  1  0
  5  6  2  0
  6  7  1  0
  7  8  2  0
  8  9  1  0
  9 10  1  0
 10 11  1  0
 11 12  2  0
 12 13  1  0
 13 14  2  0
  8 15  1  0
 15 16  1  0
 16 17  2  0
 16 18  1  0
 18 19  1  0
 19 20  1  0
 20 21  2  0
 21 22  1  0
 22 23  2  0
 23 24  1  0
 24 25  1  0
 25 26  1  0
 25 27  1  0
 25 28  1  0
 23 29  1  0
 29 30  2  0
 15 31  2  0
 31 32  1  0
 32 33  1  0
 33 34  2  0
 34 35  1  0
 35 36  2  0
 36 37  1  0
 36 38  1  0
 38 39  2  0
 39 40  1  0
  6 41  1  0
 41 42  2  0
 42  3  1  0
 32  7  1  0
 39 33  1  0
 14 10  1  0
 30 20  1  0
  1 43  1  0
  1 44  1  0
  1 45  1  0
  4 46  1  0
  5 47  1  0
  9 48  1  0
  9 49  1  0
 11 50  1  0
 12 51  1  0
 13 52  1  0
 19 53  1  0
 19 54  1  0
 21 55  1  0
 22 56  1  0
 29 57  1  0
 30 58  1  0
 34 59  1  0
 35 60  1  0
 38 61  1  0
 41 62  1  0
 42 63  1  0
M  CHG  2  12   1  18  -1
M  END
>  <UniqueID>  (2) 
2

>  <SMILES>  (2) 
COc1ccc(-c2c(Cn3c[nH+]cn3)c(C(=O)[N-]Cc3ccc(OC(F)(F)F)cc3)nn2-c2ccc(Cl)cc2Cl)cc1

>  <Energy>  (2) 
144.54936381333107

>  <Genealogy>  (2) 
COc1ccc(-c2c(Cn3c[nH+]cn3)c(C(=O)[N-]Cc3ccc(OC(F)(F)F)cc3)nn2-c2ccc(Cl)cc2Cl)cc1 (protonated)
COc1ccc(-c2c(Cn3c[nH+]cn3)c(C(=O)[N-]Cc3ccc(OC(F)(F)F)cc3)nn2-c2ccc(Cl)cc2Cl)cc1 (3D coordinates assigned)
COc1ccc(-c2c(Cn3c[nH+]cn3)c(C(=O)[N-]Cc3ccc(OC(F)(F)F)cc3)nn2-c2ccc(Cl)cc2Cl)cc1 (optimized conformer: 144.54936381333107 kcal/mol)

>  <smiles>  (2) 
COc1ccc(-c2c(Cn3cncn3)c(C(=O)NCc3ccc(OC(F)(F)F)cc3)nn2-c2ccc(Cl)cc2Cl)cc1

>  <score_type>  (2) 
oracle

>  <origin>  (2) 
adg

>  <m_score__min__energy>  (2) 
-7.9100000000000001

>  <m_primary>  (2) 
energy

$$$$
2:0
     RDKit          3D

 27 29  0  0  0  0  0  0  0  0999 V2000
   58.5934   33.4554   42.1537 H   0  0  0  0  0  0  0  0  0  0  0  0
   58.0590   32.6770   42.7180 C   0  0  0  0  0  0  0  0  0  0  0  0
   58.0390   32.7160   44.1150 C   0  0  0  0  0  0  0  0  0  0  0  0
   58.5663   33.5195   44.6501 H   0  0  0  0  0  0  0  0  0  0  0  0
   57.3490   31.7340   44.8330 C   0  0  0  0  0  0  0  0  0  0  0  0
   57.3492   31.7596   45.9327 H   0  0  0  0  0  0  0  0  0  0  0  0
   56.6570   30.7170   44.1600 C   0  0  0  0  0  0  0  0  0  0  0  0
   55.9890   29.7080   44.9370 N   0  0  0  0  0  0  0  0  0  0  0  0
   56.4610   28.5430   45.2770 C   0  0  0  0  0  0  0  0  0  0  0  0
   57.8010   28.3010   45.2920 N   0  0  0  0  0  0  0  0  0  0  0  0
   58.2810   27.0800   45.6330 C   0  0  0  0  0  0  0  0  0  0  0  0
   59.6600   26.8420   45.6500 C   0  0  0  0  0  0  0  0  0  0  0  0
   60.3606   27.6475   45.3849 H   0  0  0  0  0  0  0  0  0  0  0  0
   60.1470   25.5800   46.0040 C   0  0  0  0  0  0  0  0  0  0  0  0
   61.2311   25.3943   46.0175 H   0  0  0  0  0  0  0  0  0  0  0  0
   59.2590   24.5530   46.3410 C   0  0  0  0  0  0  0  0  0  0  0  0
   59.6468   23.5618   46.6186 H   0  0  0  0  0  0  0  0  0  0  0  0
   57.8790   24.7830   46.3260 C   0  0  0  0  0  0  0  0  0  0  0  0
   57.1826   23.9739   46.5915 H   0  0  0  0  0  0  0  0  0  0  0  0
   57.3840   26.0500   45.9710 C   0  0  0  0  0  0  0  0  0  0  0  0
   56.0130   26.3510   45.9320 C   0  0  0  0  0  0  0  0  0  0  0  0
   55.1520   25.4770   46.2190 O   0  0  0  0  0  0  0  0  0  0  0  0
   55.6100   27.5710   45.5890 O   0  0  0  0  0  0  0  0  0  0  0  0
   56.7090   30.6660   42.7530 C   0  0  0  0  0  0  0  0  0  0  0  0
   56.2042   29.8500   42.2151 H   0  0  0  0  0  0  0  0  0  0  0  0
   57.4000   31.6490   42.0380 C   0  0  0  0  0  0  0  0  0  0  0  0
   57.4250   31.6132   40.9389 H   0  0  0  0  0  0  0  0  0  0  0  0
  1  2  1  0
  2  3  2  0
  3  4  1  0
  3  5  1  0
  5  6  1  0
  5  7  2  0
  7  8  1  0
  8  9  2  0
  9 10  1  0
 10 11  1  0
 11 12  2  0
 12 13  1  0
 12 14  1  0
 14 15  1  0
 14 16  2  0
 16 17  1  0
 16 18  1  0
 18 19  1  0
 18 20  2  0
 20 21  1  0
 21 22  2  0
 21 23  1  0
  7 24  1  0
 24 25  1  0
 24 26  2  0
 26 27  1  0
 26  2  1  0
 23  9  1  0
 20 11  1  0
M  CHG  1  10  -1
M  END
>  <UniqueID>  (3) 
3

>  <SMILES>  (3) 
O=c1o/c(=N/c2ccccc2)[n-]c2ccccc12

>  <Energy>  (3) 
41.42417853831518

>  <Genealogy>  (3) 
O=c1oc(=Nc2ccccc2)[n-]c2ccccc12 (protonated)
O=c1o/c(=N/c2ccccc2)[n-]c2ccccc12 (cis-trans isomerization)
O=c1o/c(=N/c2ccccc2)[n-]c2ccccc12 (3D coordinates assigned)
O=c1o/c(=N/c2ccccc2)[n-]c2ccccc12 (optimized conformer: 41.42417853831518 kcal/mol)

>  <smiles>  (3) 
O=c1oc(=Nc2ccccc2)[nH]c2ccccc12

>  <score_type>  (3) 
oracle

>  <origin>  (3) 
adg

>  <m_score__min__energy>  (3) 
-8.4299999999999997

>  <m_primary>  (3) 
energy

$$$$
3:0
     RDKit          3D

 65 68  0  0  0  0  0  0  0  0999 V2000
   58.8930   34.2600   53.4980 C   0  0  0  0  0  0  0  0  0  0  0  0
   58.3100   33.9930   52.2270 O   0  0  0  0  0  0  0  0  0  0  0  0
   58.4920   32.8030   51.5010 C   0  0  0  0  0  0  0  0  0  0  0  0
   57.6090   31.7130   51.6370 C   0  0  0  0  0  0  0  0  0  0  0  0
   57.7970   30.5520   50.8840 C   0  0  0  0  0  0  0  0  0  0  0  0
   58.8560   30.4680   49.9780 C   0  0  0  0  0  0  0  0  0  0  0  0
   59.7430   31.5380   49.8370 C   0  0  0  0  0  0  0  0  0  0  0  0
   59.5830   32.7030   50.6060 C   0  0  0  0  0  0  0  0  0  0  0  0
   60.5490   33.8490   50.4210 C   0  0  0  0  0  0  0  0  0  0  0  0
   60.5780   34.3340   48.9660 C   0  0  0  0  0  0  0  0  0  0  0  0
   61.8450   33.9670   48.3230 N   0  0  0  0  0  0  0  0  0  0  0  0
   61.7820   34.2060   46.8780 C   0  0  0  0  0  0  0  0  0  0  0  0
   60.4010   33.8870   46.3800 C   0  0  0  0  0  0  0  0  0  0  0  0
   59.5760   34.8970   45.8630 C   0  0  0  0  0  0  0  0  0  0  0  0
   58.3260   34.5780   45.3290 C   0  0  0  0  0  0  0  0  0  0  0  0
   57.8980   33.2490   45.2870 C   0  0  0  0  0  0  0  0  0  0  0  0
   58.7170   32.2220   45.7880 C   0  0  0  0  0  0  0  0  0  0  0  0
   58.2980   30.8030   45.6980 C   0  0  0  0  0  0  0  0  0  0  0  0
   57.2900   30.4130   44.7990 C   0  0  0  0  0  0  0  0  0  0  0  0
   56.8200   29.0970   44.7880 C   0  0  0  0  0  0  0  0  0  0  0  0
   57.3510   28.1530   45.6750 C   0  0  0  0  0  0  0  0  0  0  0  0
   56.6410   26.5450   45.7590 S   0  0  0  0  0  0  0  0  0  0  0  0
   55.1480   26.6800   45.8750 O   0  0  0  0  0  0  0  0  0  0  0  0
   56.9590   25.7650   44.5110 O   0  0  0  0  0  0  0  0  0  0  0  0
   57.2410   25.6860   47.1470 N   0  0  0  0  0  0  0  0  0  0  0  0
   58.1280   24.5840   46.7600 C   0  0  0  0  0  0  0  0  0  0  0  0
   57.3700   23.5410   45.9690 C   0  0  0  0  0  0  0  0  0  0  0  0
   58.0750   22.6910   45.0950 C   0  0  0  0  0  0  0  0  0  0  0  0
   57.4090   21.6900   44.3820 C   0  0  0  0  0  0  0  0  0  0  0  0
   56.0290   21.5360   44.5140 C   0  0  0  0  0  0  0  0  0  0  0  0
   55.3080   22.3940   45.3490 C   0  0  0  0  0  0  0  0  0  0  0  0
   55.9620   23.4020   46.0730 C   0  0  0  0  0  0  0  0  0  0  0  0
   55.1870   24.2460   46.8740 O   0  0  0  0  0  0  0  0  0  0  0  0
   58.3860   28.5240   46.5450 C   0  0  0  0  0  0  0  0  0  0  0  0
   58.8550   29.8400   46.5580 C   0  0  0  0  0  0  0  0  0  0  0  0
   59.9680   32.5530   46.3370 C   0  0  0  0  0  0  0  0  0  0  0  0
   58.2013   33.9432   54.2925 H   0  0  0  0  0  0  0  0  0  0  0  0
   59.8381   33.7050   53.5918 H   0  0  0  0  0  0  0  0  0  0  0  0
   59.0901   35.3381   53.5918 H   0  0  0  0  0  0  0  0  0  0  0  0
   56.7662   31.7772   52.3409 H   0  0  0  0  0  0  0  0  0  0  0  0
   57.1094   29.7020   51.0049 H   0  0  0  0  0  0  0  0  0  0  0  0
   58.9920   29.5584   49.3746 H   0  0  0  0  0  0  0  0  0  0  0  0
   60.5730   31.4679   49.1185 H   0  0  0  0  0  0  0  0  0  0  0  0
   60.2418   34.6830   51.0692 H   0  0  0  0  0  0  0  0  0  0  0  0
   61.5565   33.4958   50.6860 H   0  0  0  0  0  0  0  0  0  0  0  0
   59.7459   33.8720   48.4145 H   0  0  0  0  0  0  0  0  0  0  0  0
   60.4802   35.4296   48.9560 H   0  0  0  0  0  0  0  0  0  0  0  0
   61.9930   32.9400   48.4700 H   0  0  0  0  0  0  0  0  0  0  0  0
   62.0126   35.2613   46.6700 H   0  0  0  0  0  0  0  0  0  0  0  0
   62.5147   33.5642   46.3668 H   0  0  0  0  0  0  0  0  0  0  0  0
   59.9149   35.9434   45.8784 H   0  0  0  0  0  0  0  0  0  0  0  0
   57.6762   35.3758   44.9401 H   0  0  0  0  0  0  0  0  0  0  0  0
   56.9144   33.0046   44.8594 H   0  0  0  0  0  0  0  0  0  0  0  0
   56.8681   31.1492   44.0990 H   0  0  0  0  0  0  0  0  0  0  0  0
   56.0309   28.8021   44.0807 H   0  0  0  0  0  0  0  0  0  0  0  0
   58.9480   24.9800   46.1429 H   0  0  0  0  0  0  0  0  0  0  0  0
   58.5285   24.1154   47.6710 H   0  0  0  0  0  0  0  0  0  0  0  0
   59.1609   22.8161   44.9722 H   0  0  0  0  0  0  0  0  0  0  0  0
   57.9744   21.0223   43.7154 H   0  0  0  0  0  0  0  0  0  0  0  0
   55.5086   20.7399   43.9614 H   0  0  0  0  0  0  0  0  0  0  0  0
   54.2179   22.2779   45.4393 H   0  0  0  0  0  0  0  0  0  0  0  0
   55.1510   25.2500   46.7510 H   0  0  0  0  0  0  0  0  0  0  0  0
   58.8300   27.7768   47.2192 H   0  0  0  0  0  0  0  0  0  0  0  0
   59.6652   30.1246   47.2454 H   0  0  0  0  0  0  0  0  0  0  0  0
   60.6143   31.7579   46.7371 H   0  0  0  0  0  0  0  0  0  0  0  0
  1  2  1  0
  2  3  1  0
  3  4  2  0
  4  5  1  0
  5  6  2  0
  6  7  1  0
  7  8  2  0
  8  9  1  0
  9 10  1  0
 10 11  1  0
 11 12  1  0
 12 13  1  0
 13 14  2  0
 14 15  1  0
 15 16  2  0
 16 17  1  0
 17 18  1  0
 18 19  2  0
 19 20  1  0
 20 21  2  0
 21 22  1  0
 22 23  2  0
 22 24  2  0
 22 25  1  0
 25 26  1  0
 26 27  1  0
 27 28  2  0
 28 29  1  0
 29 30  2  0
 30 31  1  0
 31 32  2  0
 32 33  1  0
 21 34  1  0
 34 35  2  0
 17 36  2  0
  8  3  1  0
 36 13  1  0
 35 18  1  0
 32 27  1  0
  1 37  1  0
  1 38  1  0
  1 39  1  0
  4 40  1  0
  5 41  1  0
  6 42  1  0
  7 43  1  0
  9 44  1  0
  9 45  1  0
 10 46  1  0
 10 47  1  0
 11 48  1  0
 12 49  1  0
 12 50  1  0
 14 51  1  0
 15 52  1  0
 16 53  1  0
 19 54  1  0
 20 55  1  0
 26 56  1  0
 26 57  1  0
 28 58  1  0
 29 59  1  0
 30 60  1  0
 31 61  1  0
 33 62  1  0
 34 63  1  0
 35 64  1  0
 36 65  1  0
M  CHG  1  25  -1
M  END
>  <UniqueID>  (4) 
4

>  <SMILES>  (4) 
COc1ccccc1CCNCc1cccc(-c2ccc(S(=O)(=O)[N-]Cc3ccccc3O)cc2)c1

>  <Energy>  (4) 
65.66548969926849

>  <Genealogy>  (4) 
COc1ccccc1CCNCc1cccc(-c2ccc(S(=O)(=O)[N-]Cc3ccccc3O)cc2)c1 (protonated)
COc1ccccc1CCNCc1cccc(-c2ccc(S(=O)(=O)[N-]Cc3ccccc3O)cc2)c1 (3D coordinates assigned)
COc1ccccc1CCNCc1cccc(-c2ccc(S(=O)(=O)[N-]Cc3ccccc3O)cc2)c1 (optimized conformer: 65.66548969926849 kcal/mol)

>  <smiles>  (4) 
COc1ccccc1CCNCc1cccc(-c2ccc(S(=O)(=O)NCc3ccccc3O)cc2)c1

>  <score_type>  (4) 
oracle

>  <origin>  (4) 
adg

>  <m_score__min__energy>  (4) 
-11.640000000000001

>  <m_primary>  (4) 
energy

$$$$
4:0
     RDKit          3D

 32 34  0  0  0  0  0  0  0  0999 V2000
   54.8030   26.3240   45.9950 N   0  0  0  0  0  0  0  0  0  0  0  0
   56.4710   25.8740   45.9580 S   0  0  0  0  0  0  0  0  0  0  0  0
   56.7500   25.0810   44.7120 O   0  0  0  0  0  0  0  0  0  0  0  0
   56.7900   25.0230   47.1550 O   0  0  0  0  0  0  0  0  0  0  0  0
   57.4660   27.3250   45.9780 C   0  0  0  0  0  0  0  0  0  0  0  0
   57.2790   28.3240   44.9960 C   0  0  0  0  0  0  0  0  0  0  0  0
   58.0750   29.4820   44.9930 C   0  0  0  0  0  0  0  0  0  0  0  0
   59.0550   29.6250   45.9740 C   0  0  0  0  0  0  0  0  0  0  0  0
   59.8870   30.6910   46.0760 N   0  0  0  0  0  0  0  0  0  0  0  0
   60.7330   30.5360   47.1250 C   0  0  0  0  0  0  0  0  0  0  0  0
   61.6410   31.4020   47.4500 N   0  0  0  0  0  0  0  0  0  0  0  0
   61.3040   33.0860   47.6780 S   0  0  0  0  0  0  0  0  0  0  0  0
   61.1830   33.3780   49.1480 O   0  0  0  0  0  0  0  0  0  0  0  0
   62.4380   33.8990   47.1200 O   0  0  0  0  0  0  0  0  0  0  0  0
   59.8200   33.5150   46.8320 C   0  0  0  0  0  0  0  0  0  0  0  0
   58.5790   33.1690   47.3870 C   0  0  0  0  0  0  0  0  0  0  0  0
   57.3940   33.5250   46.7350 C   0  0  0  0  0  0  0  0  0  0  0  0
   57.4430   34.2310   45.5290 C   0  0  0  0  0  0  0  0  0  0  0  0
   56.2930   34.5780   44.8990 F   0  0  0  0  0  0  0  0  0  0  0  0
   58.6770   34.5830   44.9750 C   0  0  0  0  0  0  0  0  0  0  0  0
   59.8640   34.2280   45.6240 C   0  0  0  0  0  0  0  0  0  0  0  0
   60.4870   29.0870   47.9610 S   0  0  0  0  0  0  0  0  0  0  0  0
   59.2390   28.6390   46.9300 C   0  0  0  0  0  0  0  0  0  0  0  0
   58.4660   27.4810   46.9570 C   0  0  0  0  0  0  0  0  0  0  0  0
   54.7010   27.0600   46.7280 H   0  0  0  0  0  0  0  0  0  0  0  0
   56.5033   28.1939   44.2270 H   0  0  0  0  0  0  0  0  0  0  0  0
   57.9275   30.2612   44.2307 H   0  0  0  0  0  0  0  0  0  0  0  0
   58.5378   32.6164   48.3372 H   0  0  0  0  0  0  0  0  0  0  0  0
   56.4226   33.2494   47.1713 H   0  0  0  0  0  0  0  0  0  0  0  0
   58.7147   35.1400   44.0272 H   0  0  0  0  0  0  0  0  0  0  0  0
   60.8337   34.5081   45.1868 H   0  0  0  0  0  0  0  0  0  0  0  0
   58.6321   26.7088   47.7226 H   0  0  0  0  0  0  0  0  0  0  0  0
  1  2  1  0
  2  3  2  0
  2  4  2  0
  2  5  1  0
  5  6  2  0
  6  7  1  0
  7  8  2  0
  8  9  1  0
  9 10  1  0
 10 11  2  3
 11 12  1  0
 12 13  2  0
 12 14  2  0
 12 15  1  0
 15 16  2  0
 16 17  1  0
 17 18  2  0
 18 19  1  0
 18 20  1  0
 20 21  2  0
 10 22  1  0
 22 23  1  0
 23 24  2  0
 24  5  1  0
 23  8  1  0
 21 15  1  0
  1 25  1  0
  6 26  1  0
  7 27  1  0
 16 28  1  0
 17 29  1  0
 20 30  1  0
 21 31  1  0
 24 32  1  0
M  CHG  2   1  -1   9  -1
M  END
>  <UniqueID>  (5) 
5

>  <SMILES>  (5) 
[NH-]S(=O)(=O)c1ccc2[n-]c(=NS(=O)(=O)c3ccc(F)cc3)sc2c1

>  <Energy>  (5) 
71.69568344125324

>  <Genealogy>  (5) 
[NH-]S(=O)(=O)c1ccc2[n-]c(=NS(=O)(=O)c3ccc(F)cc3)sc2c1 (protonated)
[NH-]S(=O)(=O)c1ccc2[n-]c(=NS(=O)(=O)c3ccc(F)cc3)sc2c1 (3D coordinates assigned)
[NH-]S(=O)(=O)c1ccc2[n-]c(=NS(=O)(=O)c3ccc(F)cc3)sc2c1 (optimized conformer: 71.69568344125324 kcal/mol)

>  <smiles>  (5) 
NS(=O)(=O)c1ccc2[nH]c(=NS(=O)(=O)c3ccc(F)cc3)sc2c1

>  <score_type>  (5) 
oracle

>  <origin>  (5) 
adg

>  <m_score__min__energy>  (5) 
-12.42

>  <m_primary>  (5) 
energy

$$$$
5:0
     RDKit          3D

 33 34  0  0  0  0  0  0  0  0999 V2000
   57.0950   34.2260   45.0500 C   0  0  0  0  0  0  0  0  0  0  0  0
   58.8310   34.1080   44.5180 S   0  0  0  0  0  0  0  0  0  0  0  0
   59.4650   34.2140   46.1870 C   0  0  0  0  0  0  0  0  0  0  0  0
   58.6410   34.4810   47.2380 N   0  0  0  0  0  0  0  0  0  0  0  0
   59.6380   34.4780   48.5670 S   0  0  0  0  0  0  0  0  0  0  0  0
   61.0540   34.1380   47.7700 C   0  0  0  0  0  0  0  0  0  0  0  0
   62.6690   33.9420   48.5200 S   0  0  0  0  0  0  0  0  0  0  0  0
   62.4480   32.1760   48.9340 C   0  0  0  0  0  0  0  0  0  0  0  0
   61.9890   31.3980   47.7400 C   0  0  0  0  0  0  0  0  0  0  0  0
   62.8480   30.8690   46.9840 O   0  0  0  0  0  0  0  0  0  0  0  0
   60.5840   31.1910   47.5160 N   0  0  0  0  0  0  0  0  0  0  0  0
   60.0530   30.3550   46.4760 C   0  0  0  0  0  0  0  0  0  0  0  0
   60.8020   29.3000   45.9270 C   0  0  0  0  0  0  0  0  0  0  0  0
   60.2600   28.5060   44.9120 C   0  0  0  0  0  0  0  0  0  0  0  0
   58.9750   28.7640   44.4290 C   0  0  0  0  0  0  0  0  0  0  0  0
   58.2290   29.8310   44.9500 C   0  0  0  0  0  0  0  0  0  0  0  0
   56.6040   30.1640   44.3600 S   0  0  0  0  0  0  0  0  0  0  0  0
   55.5220   28.9430   44.9280 N   0  0  0  0  0  0  0  0  0  0  0  0
   56.5900   30.1770   42.8570 O   0  0  0  0  0  0  0  0  0  0  0  0
   56.1550   31.5100   44.8590 O   0  0  0  0  0  0  0  0  0  0  0  0
   58.7740   30.6250   45.9670 C   0  0  0  0  0  0  0  0  0  0  0  0
   60.7940   34.0230   46.4520 N   0  0  0  0  0  0  0  0  0  0  0  0
   57.0477   34.2292   46.1490 H   0  0  0  0  0  0  0  0  0  0  0  0
   56.6548   35.1561   44.6613 H   0  0  0  0  0  0  0  0  0  0  0  0
   56.5330   33.3640   44.6613 H   0  0  0  0  0  0  0  0  0  0  0  0
   63.4069   31.7658   49.2836 H   0  0  0  0  0  0  0  0  0  0  0  0
   61.6837   32.0936   49.7208 H   0  0  0  0  0  0  0  0  0  0  0  0
   59.9220   31.5220   48.2540 H   0  0  0  0  0  0  0  0  0  0  0  0
   61.8180   29.0984   46.2972 H   0  0  0  0  0  0  0  0  0  0  0  0
   60.8471   27.6757   44.4925 H   0  0  0  0  0  0  0  0  0  0  0  0
   58.5476   28.1293   43.6388 H   0  0  0  0  0  0  0  0  0  0  0  0
   54.6570   29.4300   45.2560 H   0  0  0  0  0  0  0  0  0  0  0  0
   58.1938   31.4680   46.3703 H   0  0  0  0  0  0  0  0  0  0  0  0
  1  2  1  0
  2  3  1  0
  3  4  2  0
  4  5  1  0
  5  6  1  0
  6  7  1  0
  7  8  1  0
  8  9  1  0
  9 10  2  0
  9 11  1  0
 11 12  1  0
 12 13  2  0
 13 14  1  0
 14 15  2  0
 15 16  1  0
 16 17  1  0
 17 18  1  0
 17 19  2  0
 17 20  2  0
 16 21  2  0
  6 22  2  0
 22  3  1  0
 21 12  1  0
  1 23  1  0
  1 24  1  0
  1 25  1  0
  8 26  1  0
  8 27  1  0
 11 28  1  0
 13 29  1  0
 14 30  1  0
 15 31  1  0
 18 32  1  0
 21 33  1  0
M  CHG  1  18  -1
M  END
>  <UniqueID>  (6) 
6

>  <SMILES>  (6) 
CSc1nsc(SCC(=O)Nc2cccc(S([NH-])(=O)=O)c2)n1

>  <Energy>  (6) 
63.049836880013466

>  <Genealogy>  (6) 
CSc1nsc(SCC(=O)Nc2cccc(S([NH-])(=O)=O)c2)n1 (protonated)
CSc1nsc(SCC(=O)Nc2cccc(S([NH-])(=O)=O)c2)n1 (3D coordinates assigned)
CSc1nsc(SCC(=O)Nc2cccc(S([NH-])(=O)=O)c2)n1 (optimized conformer: 63.049836880013466 kcal/mol)

>  <smiles>  (6) 
CSc1nsc(SCC(=O)Nc2cccc(S(N)(=O)=O)c2)n1

>  <score_type>  (6) 
oracle

>  <origin>  (6) 
adg

>  <m_score__min__energy>  (6) 
-11.359999999999999

>  <m_primary>  (6) 
energy

$$$$
6:0
     RDKit          3D

 54 57  0  0  1  0  0  0  0  0999 V2000
   69.0920   26.1310   50.7090 C   0  0  0  0  0  0  0  0  0  0  0  0
   67.9270   27.3050   50.0530 S   0  0  0  0  0  0  0  0  0  0  0  0
   68.6970   28.1610   49.0600 O   0  0  0  0  0  0  0  0  0  0  0  0
   66.7760   26.6610   49.3700 O   0  0  0  0  0  0  0  0  0  0  0  0
   67.3640   28.3850   51.3010 C   0  0  0  0  0  0  0  0  0  0  0  0
   68.3230   29.0430   52.0540 C   0  0  0  0  0  0  0  0  0  0  0  0
   67.9660   29.9170   53.0620 C   0  0  0  0  0  0  0  0  0  0  0  0
   66.6230   30.1180   53.3030 C   0  0  0  0  0  0  0  0  0  0  0  0
   65.6620   29.4640   52.5560 C   0  0  0  0  0  0  0  0  0  0  0  0
   64.3040   29.7320   52.8750 N   0  0  0  0  0  0  0  0  0  0  0  0
   63.3850   30.3080   51.9510 C   0  0  0  0  0  0  0  0  0  0  0  0
   63.7720   30.6000   50.7970 O   0  0  0  0  0  0  0  0  0  0  0  0
   62.0600   30.5190   52.4130 N   0  0  0  0  0  0  0  0  0  0  0  0
   61.0290   31.0840   51.6110 C   0  0  0  0  0  0  0  0  0  0  0  0
   60.5380   30.2770   50.5910 C   0  0  0  0  0  0  0  0  0  0  0  0
   59.5370   30.7240   49.7520 C   0  0  0  0  0  0  0  0  0  0  0  0
   59.0500   31.9960   49.9700 C   0  0  0  0  0  0  0  0  0  0  0  0
   58.0310   32.4130   49.0930 O   0  0  0  0  0  0  0  0  0  0  0  0
   58.4820   32.9950   47.9010 C   0  0  0  0  0  0  0  0  0  0  0  0
   59.7620   33.4970   47.7890 C   0  0  0  0  0  0  0  0  0  0  0  0
   60.1370   34.0580   46.5810 C   0  0  0  0  0  0  0  0  0  0  0  0
   61.3120   34.5530   46.3800 N   0  0  0  0  0  0  0  0  0  0  0  0
   62.5110   33.8370   46.6710 C   0  0  0  0  0  0  0  0  0  0  0  0
   63.4240   33.8890   45.8070 O   0  0  0  0  0  0  0  0  0  0  0  0
   62.7200   33.0610   47.9080 C   0  0  0  0  0  0  0  0  0  0  0  0
   62.9420   33.7430   49.2160 C   0  0  0  0  0  0  0  0  0  0  0  0
   64.0770   33.0600   48.5690 C   0  0  0  0  0  0  0  0  0  0  0  0
   59.2780   34.1140   45.5420 N   0  0  0  0  0  0  0  0  0  0  0  0
   58.0340   33.6270   45.6520 C   0  0  0  0  0  0  0  0  0  0  0  0
   57.6590   33.0750   46.8360 N   0  0  0  0  0  0  0  0  0  0  0  0
   59.5150   32.8220   50.9720 C   0  0  0  0  0  0  0  0  0  0  0  0
   60.5290   32.3590   51.8180 C   0  0  0  0  0  0  0  0  0  0  0  0
   61.0230   33.1120   52.8080 F   0  0  0  0  0  0  0  0  0  0  0  0
   66.0270   28.5930   51.5510 C   0  0  0  0  0  0  0  0  0  0  0  0
   69.0627   26.1605   51.8082 H   0  0  0  0  0  0  0  0  0  0  0  0
   68.8292   25.1207   50.3622 H   0  0  0  0  0  0  0  0  0  0  0  0
   70.1043   26.3860   50.3622 H   0  0  0  0  0  0  0  0  0  0  0  0
   69.3884   28.8660   51.8451 H   0  0  0  0  0  0  0  0  0  0  0  0
   68.7313   30.4381   53.6559 H   0  0  0  0  0  0  0  0  0  0  0  0
   66.3126   30.8086   54.1010 H   0  0  0  0  0  0  0  0  0  0  0  0
   63.9960   29.4820   53.8480 H   0  0  0  0  0  0  0  0  0  0  0  0
   61.7660   30.2590   53.4010 H   0  0  0  0  0  0  0  0  0  0  0  0
   60.9530   29.2680   50.4505 H   0  0  0  0  0  0  0  0  0  0  0  0
   59.1437   30.0915   48.9425 H   0  0  0  0  0  0  0  0  0  0  0  0
   60.4637   33.4526   48.6349 H   0  0  0  0  0  0  0  0  0  0  0  0
   62.0175   32.2993   47.5388 H   0  0  0  0  0  0  0  0  0  0  0  0
   62.9236   34.8415   49.2698 H   0  0  0  0  0  0  0  0  0  0  0  0
   62.4691   33.6818   50.2073 H   0  0  0  0  0  0  0  0  0  0  0  0
   64.8996   33.6489   48.1371 H   0  0  0  0  0  0  0  0  0  0  0  0
   64.7934   32.2828   48.8736 H   0  0  0  0  0  0  0  0  0  0  0  0
   59.5490   34.5370   44.6200 H   0  0  0  0  0  0  0  0  0  0  0  0
   57.3339   33.6730   44.8048 H   0  0  0  0  0  0  0  0  0  0  0  0
   59.0949   33.8300   51.1042 H   0  0  0  0  0  0  0  0  0  0  0  0
   65.2607   28.0723   50.9580 H   0  0  0  0  0  0  0  0  0  0  0  0
  1  2  1  0
  2  3  2  0
  2  4  2  0
  2  5  1  0
  5  6  2  0
  6  7  1  0
  7  8  2  0
  8  9  1  0
  9 10  1  0
 10 11  1  0
 11 12  2  0
 11 13  1  0
 13 14  1  0
 14 15  2  0
 15 16  1  0
 16 17  2  0
 17 18  1  0
 18 19  1  0
 19 20  2  0
 20 21  1  0
 21 22  2  0
 22 23  1  0
 23 24  2  0
 23 25  1  0
 25 26  1  0
 26 27  1  0
 21 28  1  0
 28 29  1  0
 29 30  2  0
 17 31  1  0
 31 32  2  0
 32 33  1  0
  9 34  2  0
 34  5  1  0
 32 14  1  0
 30 19  1  0
 27 25  1  0
  1 35  1  0
  1 36  1  0
  1 37  1  0
  6 38  1  0
  7 39  1  0
  8 40  1  0
 10 41  1  0
 13 42  1  0
 15 43  1  0
 16 44  1  0
 20 45  1  0
 25 46  1  0
 26 47  1  0
 26 48  1  0
 27 49  1  0
 27 50  1  0
 28 51  1  0
 29 52  1  0
 31 53  1  0
 34 54  1  0
M  END
>  <smiles>  (7) 
CS(=O)(=O)c1cccc(NC(=O)Nc2ccc(Oc3cc(=NC(=O)C4CC4)[nH]cn3)cc2F)c1

>  <score_type>  (7) 
oracle

>  <origin>  (7) 
adg

>  <m_score__min__energy>  (7) 
-8.6999999999999993

>  <m_primary>  (7) 
energy

$$$$
7:0
     RDKit          3D

 43 45  0  0  0  0  0  0  0  0999 V2000
   58.3420   34.4380   46.9450 O   0  0  0  0  0  0  0  0  0  0  0  0
   58.3780   33.1990   46.7200 C   0  0  0  0  0  0  0  0  0  0  0  0
   58.7110   32.2960   47.7860 N   0  0  0  0  0  0  0  0  0  0  0  0
   59.4790   32.7210   48.9550 C   0  0  0  0  0  0  0  0  0  0  0  0
   60.9020   33.0160   48.5560 C   0  0  0  0  0  0  0  0  0  0  0  0
   61.6450   33.9810   49.2570 C   0  0  0  0  0  0  0  0  0  0  0  0
   62.9820   34.2260   48.9200 C   0  0  0  0  0  0  0  0  0  0  0  0
   63.5830   33.5130   47.8800 C   0  0  0  0  0  0  0  0  0  0  0  0
   62.8490   32.5550   47.1750 C   0  0  0  0  0  0  0  0  0  0  0  0
   61.5130   32.3040   47.5120 C   0  0  0  0  0  0  0  0  0  0  0  0
   58.0760   32.6890   45.3610 C   0  0  0  0  0  0  0  0  0  0  0  0
   58.4810   33.4060   44.2220 C   0  0  0  0  0  0  0  0  0  0  0  0
   58.1870   32.9270   42.9420 C   0  0  0  0  0  0  0  0  0  0  0  0
   57.4840   31.7290   42.7860 C   0  0  0  0  0  0  0  0  0  0  0  0
   57.0860   30.9950   43.9120 C   0  0  0  0  0  0  0  0  0  0  0  0
   56.2080   29.4790   43.7210 S   0  0  0  0  0  0  0  0  0  0  0  0
   57.0150   28.5740   42.8300 O   0  0  0  0  0  0  0  0  0  0  0  0
   54.8640   29.7200   43.0900 O   0  0  0  0  0  0  0  0  0  0  0  0
   55.9880   28.7080   45.2650 N   0  0  0  0  0  0  0  0  0  0  0  0
   56.5680   27.4620   45.6860 C   0  0  0  0  0  0  0  0  0  0  0  0
   57.9670   27.3750   45.7300 C   0  0  0  0  0  0  0  0  0  0  0  0
   58.5960   26.2090   46.1740 C   0  0  0  0  0  0  0  0  0  0  0  0
   57.8310   25.1070   46.5630 C   0  0  0  0  0  0  0  0  0  0  0  0
   56.4360   25.1680   46.4950 C   0  0  0  0  0  0  0  0  0  0  0  0
   55.7980   26.3330   46.0540 C   0  0  0  0  0  0  0  0  0  0  0  0
   54.4130   26.3370   45.9630 O   0  0  0  0  0  0  0  0  0  0  0  0
   57.4030   31.4660   45.1920 C   0  0  0  0  0  0  0  0  0  0  0  0
   58.4370   31.2880   47.7200 H   0  0  0  0  0  0  0  0  0  0  0  0
   59.0241   33.6279   49.3799 H   0  0  0  0  0  0  0  0  0  0  0  0
   59.4731   31.9154   49.7039 H   0  0  0  0  0  0  0  0  0  0  0  0
   61.1741   34.5467   50.0745 H   0  0  0  0  0  0  0  0  0  0  0  0
   63.5593   34.9804   49.4746 H   0  0  0  0  0  0  0  0  0  0  0  0
   64.6334   33.7054   47.6160 H   0  0  0  0  0  0  0  0  0  0  0  0
   63.3218   31.9968   46.3535 H   0  0  0  0  0  0  0  0  0  0  0  0
   60.9406   31.5464   46.9567 H   0  0  0  0  0  0  0  0  0  0  0  0
   59.0330   34.3503   44.3385 H   0  0  0  0  0  0  0  0  0  0  0  0
   58.5094   33.4938   42.0561 H   0  0  0  0  0  0  0  0  0  0  0  0
   57.2426   31.3615   41.7777 H   0  0  0  0  0  0  0  0  0  0  0  0
   58.5758   28.2340   45.4115 H   0  0  0  0  0  0  0  0  0  0  0  0
   59.6940   26.1589   46.2172 H   0  0  0  0  0  0  0  0  0  0  0  0
   58.3255   24.1925   46.9223 H   0  0  0  0  0  0  0  0  0  0  0  0
   55.8359   24.2946   46.7900 H   0  0  0  0  0  0  0  0  0  0  0  0
   57.1225   30.8728   46.0749 H   0  0  0  0  0  0  0  0  0  0  0  0
  1  2  2  0
  2  3  1  0
  3  4  1  0
  4  5  1  0
  5  6  2  0
  6  7  1  0
  7  8  2  0
  8  9  1  0
  9 10  2  0
  2 11  1  0
 11 12  2  0
 12 13  1  0
 13 14  2  0
 14 15  1  0
 15 16  1  0
 16 17  2  0
 16 18  2  0
 16 19  1  0
 19 20  1  0
 20 21  2  0
 21 22  1  0
 22 23  2  0
 23 24  1  0
 24 25  2  0
 25 26  1  0
 15 27  2  0
 10  5  1  0
 27 11  1  0
 25 20  1  0
  3 28  1  0
  4 29  1  0
  4 30  1  0
  6 31  1  0
  7 32  1  0
  8 33  1  0
  9 34  1  0
 10 35  1  0
 12 36  1  0
 13 37  1  0
 14 38  1  0
 21 39  1  0
 22 40  1  0
 23 41  1  0
 24 42  1  0
 27 43  1  0
M  CHG  2  19  -1  26  -1
M  END
>  <UniqueID>  (8) 
7

>  <SMILES>  (8) 
O=C(NCc1ccccc1)c1cccc(S(=O)(=O)[N-]c2ccccc2[O-])c1

>  <Energy>  (8) 
51.57658816222296

>  <Genealogy>  (8) 
O=C(NCc1ccccc1)c1cccc(S(=O)(=O)[N-]c2ccccc2[O-])c1 (protonated)
O=C(NCc1ccccc1)c1cccc(S(=O)(=O)[N-]c2ccccc2[O-])c1 (3D coordinates assigned)
O=C(NCc1ccccc1)c1cccc(S(=O)(=O)[N-]c2ccccc2[O-])c1 (optimized conformer: 51.57658816222296 kcal/mol)

>  <smiles>  (8) 
O=C(NCc1ccccc1)c1cccc(S(=O)(=O)Nc2ccccc2O)c1

>  <score_type>  (8) 
oracle

>  <origin>  (8) 
adg

>  <m_score__min__energy>  (8) 
-15.24

>  <m_primary>  (8) 
energy

$$$$
8:0
     RDKit          3D

 23 24  0  0  0  0  0  0  0  0999 V2000
   58.4410   25.3240   47.8860 O   0  0  0  0  0  0  0  0  0  0  0  0
   58.0270   25.5930   46.7260 C   0  0  0  0  0  0  0  0  0  0  0  0
   58.6790   26.6000   45.9390 N   0  0  0  0  0  0  0  0  0  0  0  0
   58.0840   27.7980   45.4180 C   0  0  0  0  0  0  0  0  0  0  0  0
   58.9260   28.8420   45.0090 C   0  0  0  0  0  0  0  0  0  0  0  0
   58.3870   30.0320   44.5130 C   0  0  0  0  0  0  0  0  0  0  0  0
   57.0020   30.1960   44.4360 C   0  0  0  0  0  0  0  0  0  0  0  0
   56.1530   29.1710   44.8660 C   0  0  0  0  0  0  0  0  0  0  0  0
   54.7750   29.3420   44.8080 O   0  0  0  0  0  0  0  0  0  0  0  0
   56.6890   27.9770   45.3610 C   0  0  0  0  0  0  0  0  0  0  0  0
   56.8340   24.9010   46.2060 C   0  0  0  0  0  0  0  0  0  0  0  0
   56.9360   23.6900   45.5060 C   0  0  0  0  0  0  0  0  0  0  0  0
   55.7770   23.0750   45.0350 C   0  0  0  0  0  0  0  0  0  0  0  0
   54.5440   23.6800   45.2720 C   0  0  0  0  0  0  0  0  0  0  0  0
   53.4820   23.1450   44.8580 O   0  0  0  0  0  0  0  0  0  0  0  0
   54.4920   24.8520   45.9550 N   0  0  0  0  0  0  0  0  0  0  0  0
   55.6010   25.4420   46.4070 N   0  0  0  0  0  0  0  0  0  0  0  0
   60.0174   28.7235   45.0790 H   0  0  0  0  0  0  0  0  0  0  0  0
   59.0548   30.8412   44.1825 H   0  0  0  0  0  0  0  0  0  0  0  0
   56.5795   31.1302   44.0376 H   0  0  0  0  0  0  0  0  0  0  0  0
   56.0185   27.1763   45.7064 H   0  0  0  0  0  0  0  0  0  0  0  0
   57.9199   23.2304   45.3305 H   0  0  0  0  0  0  0  0  0  0  0  0
   55.8348   22.1249   44.4837 H   0  0  0  0  0  0  0  0  0  0  0  0
  1  2  2  0
  2  3  1  0
  3  4  1  0
  4  5  2  0
  5  6  1  0
  6  7  2  0
  7  8  1  0
  8  9  1  0
  8 10  2  0
  2 11  1  0
 11 12  1  0
 12 13  2  0
 13 14  1  0
 14 15  2  0
 14 16  1  0
 16 17  1  0
 10  4  1  0
 17 11  2  0
  5 18  1  0
  6 19  1  0
  7 20  1  0
 10 21  1  0
 12 22  1  0
 13 23  1  0
M  CHG  3   3  -1   9  -1  16  -1
M  END
>  <UniqueID>  (9) 
8

>  <SMILES>  (9) 
O=C([N-]c1cccc([O-])c1)c1ccc(=O)[n-]n1

>  <Energy>  (9) 
28.82455145131047

>  <Genealogy>  (9) 
O=C([N-]c1cccc([O-])c1)c1ccc(=O)[n-]n1 (protonated)
O=C([N-]c1cccc([O-])c1)c1ccc(=O)[n-]n1 (3D coordinates assigned)
O=C([N-]c1cccc([O-])c1)c1ccc(=O)[n-]n1 (optimized conformer: 28.82455145131047 kcal/mol)

>  <smiles>  (9) 
O=C(Nc1cccc(O)c1)c1ccc(=O)[nH]n1

>  <score_type>  (9) 
oracle

>  <origin>  (9) 
adg

>  <m_score__min__energy>  (9) 
-12.41

>  <m_primary>  (9) 
energy

$$$$
9:0
     RDKit          3D

 45 47  0  0  0  0  0  0  0  0999 V2000
   64.3420   32.2550   49.7110 C   0  0  0  0  0  0  0  0  0  0  0  0
   64.6470   33.4450   49.0190 O   0  0  0  0  0  0  0  0  0  0  0  0
   63.9590   33.4910   47.7820 C   0  0  0  0  0  0  0  0  0  0  0  0
   63.0080   32.2970   47.6670 C   0  0  0  0  0  0  0  0  0  0  0  0
   61.7070   32.7120   47.1140 N   0  0  0  0  0  0  0  0  0  0  0  0
   61.4610   34.0410   46.9260 C   0  0  0  0  0  0  0  0  0  0  0  0
   60.2790   34.4580   46.4160 N   0  0  0  0  0  0  0  0  0  0  0  0
   59.3200   33.5780   46.0410 C   0  0  0  0  0  0  0  0  0  0  0  0
   58.1090   34.0630   45.5410 C   0  0  0  0  0  0  0  0  0  0  0  0
   57.1090   33.1800   45.1480 C   0  0  0  0  0  0  0  0  0  0  0  0
   57.3190   31.8020   45.2140 C   0  0  0  0  0  0  0  0  0  0  0  0
   56.3130   30.9450   44.7750 O   0  0  0  0  0  0  0  0  0  0  0  0
   58.5380   31.2880   45.6970 C   0  0  0  0  0  0  0  0  0  0  0  0
   58.7480   29.8280   45.6260 C   0  0  0  0  0  0  0  0  0  0  0  0
   59.8570   29.3820   45.2250 O   0  0  0  0  0  0  0  0  0  0  0  0
   57.6900   28.9340   46.0100 N   0  0  0  0  0  0  0  0  0  0  0  0
   57.7990   27.5010   45.9860 C   0  0  0  0  0  0  0  0  0  0  0  0
   57.4010   26.7700   44.8520 C   0  0  0  0  0  0  0  0  0  0  0  0
   57.5300   25.3790   44.8260 C   0  0  0  0  0  0  0  0  0  0  0  0
   57.0250   24.4780   43.4070 Cl  0  0  0  0  0  0  0  0  0  0  0  0
   58.0690   24.7070   45.9230 C   0  0  0  0  0  0  0  0  0  0  0  0
   58.4890   25.4230   47.0460 C   0  0  0  0  0  0  0  0  0  0  0  0
   58.3640   26.8260   47.0850 C   0  0  0  0  0  0  0  0  0  0  0  0
   58.7810   27.5750   48.1980 O   0  0  0  0  0  0  0  0  0  0  0  0
   60.1180   28.0070   48.4270 C   0  0  0  0  0  0  0  0  0  0  0  0
   59.5450   32.1870   46.1570 C   0  0  0  0  0  0  0  0  0  0  0  0
   60.7660   31.7790   46.7570 C   0  0  0  0  0  0  0  0  0  0  0  0
   60.9870   30.5580   46.9870 O   0  0  0  0  0  0  0  0  0  0  0  0
   64.3891   32.4386   50.7945 H   0  0  0  0  0  0  0  0  0  0  0  0
   63.3295   31.9220   49.4392 H   0  0  0  0  0  0  0  0  0  0  0  0
   65.0695   31.4760   49.4392 H   0  0  0  0  0  0  0  0  0  0  0  0
   63.3805   34.4246   47.7215 H   0  0  0  0  0  0  0  0  0  0  0  0
   64.6897   33.4509   46.9608 H   0  0  0  0  0  0  0  0  0  0  0  0
   63.4565   31.5420   47.0046 H   0  0  0  0  0  0  0  0  0  0  0  0
   62.8456   31.8793   48.6715 H   0  0  0  0  0  0  0  0  0  0  0  0
   62.2309   34.7804   47.1916 H   0  0  0  0  0  0  0  0  0  0  0  0
   57.9458   35.1476   45.4578 H   0  0  0  0  0  0  0  0  0  0  0  0
   56.1473   33.5699   44.7832 H   0  0  0  0  0  0  0  0  0  0  0  0
   56.7550   29.3520   46.2240 H   0  0  0  0  0  0  0  0  0  0  0  0
   56.9856   27.2968   43.9802 H   0  0  0  0  0  0  0  0  0  0  0  0
   58.1634   23.6112   45.9035 H   0  0  0  0  0  0  0  0  0  0  0  0
   58.9200   24.8885   47.9054 H   0  0  0  0  0  0  0  0  0  0  0  0
   60.3036   28.0670   49.5096 H   0  0  0  0  0  0  0  0  0  0  0  0
   60.8179   27.2893   47.9742 H   0  0  0  0  0  0  0  0  0  0  0  0
   60.2656   28.9986   47.9742 H   0  0  0  0  0  0  0  0  0  0  0  0
  1  2  1  0
  2  3  1  0
  3  4  1  0
  4  5  1  0
  5  6  1  0
  6  7  2  0
  7  8  1  0
  8  9  2  0
  9 10  1  0
 10 11  2  0
 11 12  1  0
 11 13  1  0
 13 14  1  0
 14 15  2  0
 14 16  1  0
 16 17  1  0
 17 18  2  0
 18 19  1  0
 19 20  1  0
 19 21  2  0
 21 22  1  0
 22 23  2  0
 23 24  1  0
 24 25  1  0
 13 26  2  0
 26 27  1  0
 27 28  2  0
 27  5  1  0
 26  8  1  0
 23 17  1  0
  1 29  1  0
  1 30  1  0
  1 31  1  0
  3 32  1  0
  3 33  1  0
  4 34  1  0
  4 35  1  0
  6 36  1  0
  9 37  1  0
 10 38  1  0
 16 39  1  0
 18 40  1  0
 21 41  1  0
 22 42  1  0
 25 43  1  0
 25 44  1  0
 25 45  1  0
M  CHG  1  12  -1
M  END
>  <UniqueID>  (10) 
9

>  <SMILES>  (10) 
COCCn1cnc2ccc([O-])c(C(=O)Nc3cc(Cl)ccc3OC)c2c1=O

>  <Energy>  (10) 
66.1467975258592

>  <Genealogy>  (10) 
COCCn1cnc2ccc([O-])c(C(=O)Nc3cc(Cl)ccc3OC)c2c1=O (protonated)
COCCn1cnc2ccc([O-])c(C(=O)Nc3cc(Cl)ccc3OC)c2c1=O (3D coordinates assigned)
COCCn1cnc2ccc([O-])c(C(=O)Nc3cc(Cl)ccc3OC)c2c1=O (optimized conformer: 66.1467975258592 kcal/mol)

>  <smiles>  (10) 
COCCn1cnc2ccc(O)c(C(=O)Nc3cc(Cl)ccc3OC)c2c1=O

>  <score_type>  (10) 
oracle

>  <origin>  (10) 
adg

>  <m_score__min__energy>  (10) 
-9.7599999999999998

>  <m_primary>  (10) 
energy

$$$$
10:0
     RDKit          3D

 31 32  0  0  0  0  0  0  0  0999 V2000
   58.3298   30.3561   43.5131 H   0  0  0  0  0  0  0  0  0  0  0  0
   57.7350   30.2470   44.4320 C   0  0  0  0  0  0  0  0  0  0  0  0
   57.2170   31.3230   44.9570 N   0  0  0  0  0  0  0  0  0  0  0  0
   57.9010   32.5350   45.3140 C   0  0  0  0  0  0  0  0  0  0  0  0
   58.1990   33.5210   44.3610 C   0  0  0  0  0  0  0  0  0  0  0  0
   57.8864   33.3847   43.3152 H   0  0  0  0  0  0  0  0  0  0  0  0
   58.8900   34.6730   44.7350 C   0  0  0  0  0  0  0  0  0  0  0  0
   59.1039   35.4493   43.9856 H   0  0  0  0  0  0  0  0  0  0  0  0
   59.3130   34.8480   46.0570 C   0  0  0  0  0  0  0  0  0  0  0  0
   59.9950   36.0150   46.3880 O   0  0  0  0  0  0  0  0  0  0  0  0
   59.0530   33.8510   47.0230 C   0  0  0  0  0  0  0  0  0  0  0  0
   59.4950   33.9880   48.4350 C   0  0  0  0  0  0  0  0  0  0  0  0
   60.4510   34.7550   48.7360 O   0  0  0  0  0  0  0  0  0  0  0  0
   58.8450   33.2620   49.4390 O   0  0  0  0  0  0  0  0  0  0  0  0
   59.2820   31.9760   49.8640 C   0  0  0  0  0  0  0  0  0  0  0  0
   59.2949   31.9379   50.9633 H   0  0  0  0  0  0  0  0  0  0  0  0
   58.5940   31.2091   49.4786 H   0  0  0  0  0  0  0  0  0  0  0  0
   60.2948   31.7870   49.4786 H   0  0  0  0  0  0  0  0  0  0  0  0
   58.3540   32.6930   46.6290 C   0  0  0  0  0  0  0  0  0  0  0  0
   58.1611   31.9002   47.3667 H   0  0  0  0  0  0  0  0  0  0  0  0
   57.5720   28.8890   44.9960 C   0  0  0  0  0  0  0  0  0  0  0  0
   58.7190   28.1540   45.3290 C   0  0  0  0  0  0  0  0  0  0  0  0
   59.7154   28.5913   45.1677 H   0  0  0  0  0  0  0  0  0  0  0  0
   58.6020   26.8680   45.8650 C   0  0  0  0  0  0  0  0  0  0  0  0
   59.5058   26.2918   46.1122 H   0  0  0  0  0  0  0  0  0  0  0  0
   57.3400   26.3140   46.0870 C   0  0  0  0  0  0  0  0  0  0  0  0
   57.2507   25.2971   46.4969 H   0  0  0  0  0  0  0  0  0  0  0  0
   56.1900   27.0500   45.7890 C   0  0  0  0  0  0  0  0  0  0  0  0
   54.9370   26.4980   46.0310 O   0  0  0  0  0  0  0  0  0  0  0  0
   56.2990   28.3410   45.2560 C   0  0  0  0  0  0  0  0  0  0  0  0
   55.1450   29.0790   45.0110 O   0  0  0  0  0  0  0  0  0  0  0  0
  1  2  1  0
  2  3  2  0
  3  4  1  0
  4  5  2  0
  5  6  1  0
  5  7  1  0
  7  8  1  0
  7  9  2  0
  9 10  1  0
  9 11  1  0
 11 12  1  0
 12 13  2  0
 12 14  1  0
 14 15  1  0
 15 16  1  0
 15 17  1  0
 15 18  1  0
 11 19  2  0
 19 20  1  0
  2 21  1  0
 21 22  2  0
 22 23  1  0
 22 24  1  0
 24 25  1  0
 24 26  2  0
 26 27  1  0
 26 28  1  0
 28 29  1  0
 28 30  2  0
 30 31  1  0
 19  4  1  0
 30 21  1  0
M  CHG  3  10  -1  29  -1  31  -1
M  END
>  <UniqueID>  (11) 
10

>  <SMILES>  (11) 
COC(=O)c1cc(/N=C\c2cccc([O-])c2[O-])ccc1[O-]

>  <Energy>  (11) 
44.65429415204378

>  <Genealogy>  (11) 
COC(=O)c1cc(N=Cc2cccc([O-])c2[O-])ccc1[O-] (protonated)
COC(=O)c1cc(/N=C\c2cccc([O-])c2[O-])ccc1[O-] (cis-trans isomerization)
COC(=O)c1cc(/N=C\c2cccc([O-])c2[O-])ccc1[O-] (3D coordinates assigned)
COC(=O)c1cc(/N=C\c2cccc([O-])c2[O-])ccc1[O-] (optimized conformer: 44.65429415204378 kcal/mol)

>  <smiles>  (11) 
COC(=O)c1cc(N=Cc2cccc(O)c2O)ccc1O

>  <score_type>  (11) 
oracle

>  <origin>  (11) 
adg

>  <m_score__min__energy>  (11) 
-15.43

>  <m_primary>  (11) 
energy

$$$$
11:0
     RDKit          3D

 59 62  0  0  0  0  0  0  0  0999 V2000
   57.6450   29.4800   43.7680 C   0  0  0  0  0  0  0  0  0  0  0  0
   56.3730   29.4890   44.5550 C   0  0  0  0  0  0  0  0  0  0  0  0
   55.7150   30.5600   44.6490 O   0  0  0  0  0  0  0  0  0  0  0  0
   55.9000   28.3240   45.2460 N   0  0  0  0  0  0  0  0  0  0  0  0
   56.6990   27.2240   45.7040 C   0  0  0  0  0  0  0  0  0  0  0  0
   56.1470   25.9480   45.9020 C   0  0  0  0  0  0  0  0  0  0  0  0
   56.9430   24.9050   46.3830 C   0  0  0  0  0  0  0  0  0  0  0  0
   58.2900   25.1270   46.6830 C   0  0  0  0  0  0  0  0  0  0  0  0
   58.8550   26.4040   46.5120 C   0  0  0  0  0  0  0  0  0  0  0  0
   60.2770   26.6480   46.8540 C   0  0  0  0  0  0  0  0  0  0  0  0
   61.1920   26.1060   46.1710 O   0  0  0  0  0  0  0  0  0  0  0  0
   60.6150   27.5350   47.9290 N   0  0  0  0  0  0  0  0  0  0  0  0
   59.9560   28.7760   48.2290 C   0  0  0  0  0  0  0  0  0  0  0  0
   59.2490   28.9470   49.4330 C   0  0  0  0  0  0  0  0  0  0  0  0
   58.5540   30.1340   49.6860 C   0  0  0  0  0  0  0  0  0  0  0  0
   57.6050   30.3060   51.1960 S   0  0  0  0  0  0  0  0  0  0  0  0
   58.4420   31.8160   51.6770 C   0  0  0  0  0  0  0  0  0  0  0  0
   57.7110   32.9020   52.1730 C   0  0  0  0  0  0  0  0  0  0  0  0
   58.3700   34.0830   52.5220 C   0  0  0  0  0  0  0  0  0  0  0  0
   59.7560   34.1920   52.3620 C   0  0  0  0  0  0  0  0  0  0  0  0
   60.4940   33.1100   51.8510 C   0  0  0  0  0  0  0  0  0  0  0  0
   61.9140   33.1780   51.6570 N   0  0  0  0  0  0  0  0  0  0  0  0
   62.7010   33.7060   50.2030 S   0  0  0  0  0  0  0  0  0  0  0  0
   63.7690   32.7170   49.8320 O   0  0  0  0  0  0  0  0  0  0  0  0
   63.3070   35.0620   50.4380 O   0  0  0  0  0  0  0  0  0  0  0  0
   61.5270   33.8260   48.8830 C   0  0  0  0  0  0  0  0  0  0  0  0
   60.2060   34.2190   49.1650 C   0  0  0  0  0  0  0  0  0  0  0  0
   59.2680   34.3380   48.1380 C   0  0  0  0  0  0  0  0  0  0  0  0
   59.6370   34.0640   46.8190 C   0  0  0  0  0  0  0  0  0  0  0  0
   58.3440   34.2250   45.4140 Br  0  0  0  0  0  0  0  0  0  0  0  0
   60.9460   33.6700   46.5250 C   0  0  0  0  0  0  0  0  0  0  0  0
   61.8960   33.5500   47.5490 C   0  0  0  0  0  0  0  0  0  0  0  0
   63.5300   33.0500   47.1170 Cl  0  0  0  0  0  0  0  0  0  0  0  0
   59.8300   31.9200   51.5240 C   0  0  0  0  0  0  0  0  0  0  0  0
   58.5620   31.1630   48.7400 C   0  0  0  0  0  0  0  0  0  0  0  0
   59.2550   31.0030   47.5380 C   0  0  0  0  0  0  0  0  0  0  0  0
   59.9430   29.8080   47.2670 C   0  0  0  0  0  0  0  0  0  0  0  0
   60.6680   29.6370   45.9600 C   0  0  0  0  0  0  0  0  0  0  0  0
   58.0430   27.4510   46.0310 C   0  0  0  0  0  0  0  0  0  0  0  0
   58.5024   29.4739   44.4570 H   0  0  0  0  0  0  0  0  0  0  0  0
   57.6776   28.5816   43.1341 H   0  0  0  0  0  0  0  0  0  0  0  0
   57.6903   30.3778   43.1341 H   0  0  0  0  0  0  0  0  0  0  0  0
   55.0851   25.7690   45.6778 H   0  0  0  0  0  0  0  0  0  0  0  0
   56.5077   23.9050   46.5261 H   0  0  0  0  0  0  0  0  0  0  0  0
   58.9115   24.2990   47.0547 H   0  0  0  0  0  0  0  0  0  0  0  0
   59.2427   28.1408   50.1814 H   0  0  0  0  0  0  0  0  0  0  0  0
   56.6197   32.8254   52.2877 H   0  0  0  0  0  0  0  0  0  0  0  0
   57.7969   34.9313   52.9245 H   0  0  0  0  0  0  0  0  0  0  0  0
   60.2688   35.1257   52.6365 H   0  0  0  0  0  0  0  0  0  0  0  0
   59.9100   34.4341   50.2024 H   0  0  0  0  0  0  0  0  0  0  0  0
   58.2378   34.6477   48.3676 H   0  0  0  0  0  0  0  0  0  0  0  0
   61.2318   33.4531   45.4852 H   0  0  0  0  0  0  0  0  0  0  0  0
   60.4033   31.0614   51.1444 H   0  0  0  0  0  0  0  0  0  0  0  0
   58.0220   32.0997   48.9424 H   0  0  0  0  0  0  0  0  0  0  0  0
   59.2623   31.8175   46.7988 H   0  0  0  0  0  0  0  0  0  0  0  0
   61.7217   29.3885   46.1550 H   0  0  0  0  0  0  0  0  0  0  0  0
   60.2000   28.8246   45.3847 H   0  0  0  0  0  0  0  0  0  0  0  0
   60.6124   30.5729   45.3847 H   0  0  0  0  0  0  0  0  0  0  0  0
   58.4690   28.4580   45.9108 H   0  0  0  0  0  0  0  0  0  0  0  0
  1  2  1  0
  2  3  2  0
  2  4  1  0
  4  5  1  0
  5  6  2  0
  6  7  1  0
  7  8  2  0
  8  9  1  0
  9 10  1  0
 10 11  2  0
 10 12  1  0
 12 13  1  0
 13 14  2  0
 14 15  1  0
 15 16  1  0
 16 17  1  0
 17 18  2  0
 18 19  1  0
 19 20  2  0
 20 21  1  0
 21 22  1  0
 22 23  1  0
 23 24  2  0
 23 25  2  0
 23 26  1  0
 26 27  2  0
 27 28  1  0
 28 29  2  0
 29 30  1  0
 29 31  1  0
 31 32  2  0
 32 33  1  0
 21 34  2  0
 15 35  2  0
 35 36  1  0
 36 37  2  0
 37 38  1  0
  9 39  2  0
 39  5  1  0
 37 13  1  0
 34 17  1  0
 32 26  1  0
  1 40  1  0
  1 41  1  0
  1 42  1  0
  6 43  1  0
  7 44  1  0
  8 45  1  0
 14 46  1  0
 18 47  1  0
 19 48  1  0
 20 49  1  0
 27 50  1  0
 28 51  1  0
 31 52  1  0
 34 53  1  0
 35 54  1  0
 36 55  1  0
 38 56  1  0
 38 57  1  0
 38 58  1  0
 39 59  1  0
M  CHG  3   4  -1  12  -1  22  -1
M  END
>  <UniqueID>  (12) 
11

>  <SMILES>  (12) 
CC(=O)[N-]c1cccc(C(=O)[N-]c2cc(Sc3cccc([N-]S(=O)(=O)c4ccc(Br)cc4Cl)c3)ccc2C)c1

>  <Energy>  (12) 
72.51996505202781

>  <Genealogy>  (12) 
CC(=O)[N-]c1cccc(C(=O)[N-]c2cc(Sc3cccc([N-]S(=O)(=O)c4ccc(Br)cc4Cl)c3)ccc2C)c1 (protonated)
CC(=O)[N-]c1cccc(C(=O)[N-]c2cc(Sc3cccc([N-]S(=O)(=O)c4ccc(Br)cc4Cl)c3)ccc2C)c1 (3D coordinates assigned)
CC(=O)[N-]c1cccc(C(=O)[N-]c2cc(Sc3cccc([N-]S(=O)(=O)c4ccc(Br)cc4Cl)c3)ccc2C)c1 (optimized conformer: 72.51996505202781 kcal/mol)

>  <smiles>  (12) 
CC(=O)Nc1cccc(C(=O)Nc2cc(Sc3cccc(NS(=O)(=O)c4ccc(Br)cc4Cl)c3)ccc2C)c1

>  <score_type>  (12) 
oracle

>  <origin>  (12) 
adg

>  <m_score__min__energy>  (12) 
-15.93

>  <m_primary>  (12) 
energy

$$$$
12:0
     RDKit          3D

 66 69  0  0  0  0  0  0  0  0999 V2000
   58.2540   26.2600   45.7540 C   0  0  0  0  0  0  0  0  0  0  0  0
   58.8870   27.3620   46.5350 C   0  0  0  0  0  0  0  0  0  0  0  0
   58.6240   27.6630   47.8560 C   0  0  0  0  0  0  0  0  0  0  0  0
   59.4060   28.7630   48.1470 C   0  0  0  0  0  0  0  0  0  0  0  0
   59.4300   29.4710   49.4430 C   0  0  0  0  0  0  0  0  0  0  0  0
   59.8660   28.8570   50.4530 O   0  0  0  0  0  0  0  0  0  0  0  0
   58.9830   30.8270   49.6030 N   0  0  0  0  0  0  0  0  0  0  0  0
   59.1680   31.9350   48.7040 C   0  0  0  0  0  0  0  0  0  0  0  0
   58.3780   32.0900   47.5520 C   0  0  0  0  0  0  0  0  0  0  0  0
   58.6260   33.1290   46.6510 C   0  0  0  0  0  0  0  0  0  0  0  0
   57.7270   33.1880   45.1350 S   0  0  0  0  0  0  0  0  0  0  0  0
   56.2720   32.9540   45.4350 O   0  0  0  0  0  0  0  0  0  0  0  0
   57.8810   34.5450   44.5050 O   0  0  0  0  0  0  0  0  0  0  0  0
   58.3250   31.9390   44.0590 N   0  0  0  0  0  0  0  0  0  0  0  0
   57.3980   31.6950   42.9250 C   0  0  0  0  0  0  0  0  0  0  0  0
   56.4880   30.4750   43.1530 C   0  0  0  0  0  0  0  0  0  0  0  0
   56.2160   30.3140   44.5260 O   0  0  0  0  0  0  0  0  0  0  0  0
   57.3880   29.9070   45.2080 C   0  0  0  0  0  0  0  0  0  0  0  0
   58.6520   30.7010   44.7940 C   0  0  0  0  0  0  0  0  0  0  0  0
   59.6080   34.0810   46.9450 C   0  0  0  0  0  0  0  0  0  0  0  0
   60.3360   33.9920   48.1320 C   0  0  0  0  0  0  0  0  0  0  0  0
   60.1370   32.9130   49.0100 C   0  0  0  0  0  0  0  0  0  0  0  0
   60.8560   32.8600   50.2560 N   0  0  0  0  0  0  0  0  0  0  0  0
   60.1950   33.4210   51.4360 C   0  0  0  0  0  0  0  0  0  0  0  0
   62.2560   32.3940   50.3560 C   0  0  0  0  0  0  0  0  0  0  0  0
   63.2250   33.5840   50.5710 C   0  0  0  0  0  0  0  0  0  0  0  0
   64.4970   33.4800   49.7240 C   0  0  0  0  0  0  0  0  0  0  0  0
   64.1400   33.3520   48.2400 C   0  0  0  0  0  0  0  0  0  0  0  0
   63.1790   32.1820   47.9410 C   0  0  0  0  0  0  0  0  0  0  0  0
   62.6640   31.4520   49.1950 C   0  0  0  0  0  0  0  0  0  0  0  0
   60.1240   29.0370   46.9890 C   0  0  0  0  0  0  0  0  0  0  0  0
   61.1450   30.1070   46.7930 C   0  0  0  0  0  0  0  0  0  0  0  0
   59.7840   28.1890   46.0470 O   0  0  0  0  0  0  0  0  0  0  0  0
   57.8279   25.5183   46.4456 H   0  0  0  0  0  0  0  0  0  0  0  0
   57.4548   26.6719   45.1202 H   0  0  0  0  0  0  0  0  0  0  0  0
   59.0124   25.7772   45.1202 H   0  0  0  0  0  0  0  0  0  0  0  0
   57.9360   27.1371   48.5343 H   0  0  0  0  0  0  0  0  0  0  0  0
   57.5556   31.3859   47.3575 H   0  0  0  0  0  0  0  0  0  0  0  0
   59.2230   32.3040   43.6640 H   0  0  0  0  0  0  0  0  0  0  0  0
   56.7659   32.5850   42.7896 H   0  0  0  0  0  0  0  0  0  0  0  0
   58.0099   31.4909   42.0340 H   0  0  0  0  0  0  0  0  0  0  0  0
   55.5421   30.6222   42.6111 H   0  0  0  0  0  0  0  0  0  0  0  0
   56.9998   29.5744   42.7830 H   0  0  0  0  0  0  0  0  0  0  0  0
   57.2282   30.0452   46.2875 H   0  0  0  0  0  0  0  0  0  0  0  0
   57.5666   28.8543   44.9437 H   0  0  0  0  0  0  0  0  0  0  0  0
   59.2145   30.9671   45.7011 H   0  0  0  0  0  0  0  0  0  0  0  0
   59.2451   30.0608   44.1243 H   0  0  0  0  0  0  0  0  0  0  0  0
   59.8066   34.9011   46.2392 H   0  0  0  0  0  0  0  0  0  0  0  0
   61.0706   34.7716   48.3822 H   0  0  0  0  0  0  0  0  0  0  0  0
   60.6667   33.0207   52.3455 H   0  0  0  0  0  0  0  0  0  0  0  0
   60.2920   34.5167   51.4245 H   0  0  0  0  0  0  0  0  0  0  0  0
   59.1297   33.1471   51.4245 H   0  0  0  0  0  0  0  0  0  0  0  0
   62.3329   31.7642   51.2546 H   0  0  0  0  0  0  0  0  0  0  0  0
   62.7019   34.5145   50.3053 H   0  0  0  0  0  0  0  0  0  0  0  0
   63.5311   33.5726   51.6275 H   0  0  0  0  0  0  0  0  0  0  0  0
   65.1072   34.3829   49.8736 H   0  0  0  0  0  0  0  0  0  0  0  0
   65.0608   32.5878   50.0341 H   0  0  0  0  0  0  0  0  0  0  0  0
   63.6625   34.2878   47.9140 H   0  0  0  0  0  0  0  0  0  0  0  0
   65.0752   33.1520   47.6965 H   0  0  0  0  0  0  0  0  0  0  0  0
   62.3121   32.5792   47.3926 H   0  0  0  0  0  0  0  0  0  0  0  0
   63.7505   31.4445   47.3583 H   0  0  0  0  0  0  0  0  0  0  0  0
   61.7851   30.8550   48.9101 H   0  0  0  0  0  0  0  0  0  0  0  0
   63.4961   30.8354   49.5658 H   0  0  0  0  0  0  0  0  0  0  0  0
   61.4900   30.4685   47.7729 H   0  0  0  0  0  0  0  0  0  0  0  0
   61.9987   29.7007   46.2308 H   0  0  0  0  0  0  0  0  0  0  0  0
   60.6991   30.9407   46.2308 H   0  0  0  0  0  0  0  0  0  0  0  0
  1  2  1  0
  2  3  2  0
  3  4  1  0
  4  5  1  0
  5  6  2  0
  5  7  1  0
  7  8  1  0
  8  9  2  0
  9 10  1  0
 10 11  1  0
 11 12  2  0
 11 13  2  0
 11 14  1  0
 14 15  1  0
 15 16  1  0
 16 17  1  0
 17 18  1  0
 18 19  1  0
 10 20  2  0
 20 21  1  0
 21 22  2  0
 22 23  1  0
 23 24  1  0
 23 25  1  0
 25 26  1  0
 26 27  1  0
 27 28  1  0
 28 29  1  0
 29 30  1  0
  4 31  2  0
 31 32  1  0
 31 33  1  0
 33  2  1  0
 22  8  1  0
 30 25  1  0
 19 14  1  0
  1 34  1  0
  1 35  1  0
  1 36  1  0
  3 37  1  0
  9 38  1  0
 14 39  1  0
 15 40  1  0
 15 41  1  0
 16 42  1  0
 16 43  1  0
 18 44  1  0
 18 45  1  0
 19 46  1  0
 19 47  1  0
 20 48  1  0
 21 49  1  0
 24 50  1  0
 24 51  1  0
 24 52  1  0
 25 53  1  0
 26 54  1  0
 26 55  1  0
 27 56  1  0
 27 57  1  0
 28 58  1  0
 28 59  1  0
 29 60  1  0
 29 61  1  0
 30 62  1  0
 30 63  1  0
 32 64  1  0
 32 65  1  0
 32 66  1  0
M  CHG  2   7  -1  14   1
M  END
>  <UniqueID>  (13) 
12

>  <SMILES>  (13) 
Cc1cc(C(=O)[N-]c2cc(S(=O)(=O)[NH+]3CCOCC3)ccc2N(C)C2CCCCC2)c(C)o1

>  <Energy>  (13) 
114.92683009149428

>  <Genealogy>  (13) 
Cc1cc(C(=O)[N-]c2cc(S(=O)(=O)[NH+]3CCOCC3)ccc2N(C)C2CCCCC2)c(C)o1 (protonated)
Cc1cc(C(=O)[N-]c2cc(S(=O)(=O)[NH+]3CCOCC3)ccc2N(C)C2CCCCC2)c(C)o1 (3D coordinates assigned)
Cc1cc(C(=O)[N-]c2cc(S(=O)(=O)[NH+]3CCOCC3)ccc2N(C)C2CCCCC2)c(C)o1 (nonaromatic ring conformer: 114.92683009149428 kcal/mol)

>  <smiles>  (13) 
Cc1cc(C(=O)Nc2cc(S(=O)(=O)N3CCOCC3)ccc2N(C)C2CCCCC2)c(C)o1

>  <score_type>  (13) 
oracle

>  <origin>  (13) 
adg

>  <m_score__min__energy>  (13) 
-9.8399999999999999

>  <m_primary>  (13) 
energy

$$$$
13:0
     RDKit          3D

 53 55  0  0  0  0  0  0  0  0999 V2000
   57.0320   34.1230   44.8730 C   0  0  0  0  0  0  0  0  0  0  0  0
   56.6420   32.8120   45.2710 O   0  0  0  0  0  0  0  0  0  0  0  0
   57.4550   31.6710   45.1830 C   0  0  0  0  0  0  0  0  0  0  0  0
   57.1160   30.5920   44.3430 C   0  0  0  0  0  0  0  0  0  0  0  0
   57.9500   29.4790   44.2450 C   0  0  0  0  0  0  0  0  0  0  0  0
   59.1400   29.4180   44.9810 C   0  0  0  0  0  0  0  0  0  0  0  0
   60.0210   28.1980   44.8950 C   0  0  0  0  0  0  0  0  0  0  0  0
   60.0480   27.4270   46.1850 C   0  0  0  0  0  0  0  0  0  0  0  0
   60.8490   26.4630   46.3400 O   0  0  0  0  0  0  0  0  0  0  0  0
   59.1610   27.8120   47.2430 N   0  0  0  0  0  0  0  0  0  0  0  0
   59.5450   28.3330   48.5240 C   0  0  0  0  0  0  0  0  0  0  0  0
   60.7610   27.9800   49.1350 C   0  0  0  0  0  0  0  0  0  0  0  0
   61.1270   28.5510   50.3570 C   0  0  0  0  0  0  0  0  0  0  0  0
   60.2950   29.4850   50.9720 C   0  0  0  0  0  0  0  0  0  0  0  0
   59.0820   29.8500   50.3720 C   0  0  0  0  0  0  0  0  0  0  0  0
   58.0380   31.0280   51.1680 S   0  0  0  0  0  0  0  0  0  0  0  0
   57.9830   32.4830   50.2330 N   0  0  0  0  0  0  0  0  0  0  0  0
   56.6520   30.4580   51.2960 O   0  0  0  0  0  0  0  0  0  0  0  0
   58.5600   31.3490   52.5400 O   0  0  0  0  0  0  0  0  0  0  0  0
   58.7170   29.2800   49.1430 C   0  0  0  0  0  0  0  0  0  0  0  0
   59.4760   30.4820   45.8310 C   0  0  0  0  0  0  0  0  0  0  0  0
   58.6430   31.6060   45.9420 C   0  0  0  0  0  0  0  0  0  0  0  0
   59.1110   32.9150   47.0450 S   0  0  0  0  0  0  0  0  0  0  0  0
   59.5530   34.0990   46.2300 O   0  0  0  0  0  0  0  0  0  0  0  0
   57.9270   33.3460   47.8650 O   0  0  0  0  0  0  0  0  0  0  0  0
   60.4070   32.4350   48.1150 N   0  0  0  0  0  0  0  0  0  0  0  0
   61.5940   31.9590   47.3700 C   0  0  0  0  0  0  0  0  0  0  0  0
   62.7450   32.9830   47.3970 C   0  0  0  0  0  0  0  0  0  0  0  0
   63.1710   33.3110   48.7130 O   0  0  0  0  0  0  0  0  0  0  0  0
   62.1170   33.3170   49.6730 C   0  0  0  0  0  0  0  0  0  0  0  0
   60.7180   33.5150   49.0710 C   0  0  0  0  0  0  0  0  0  0  0  0
   57.2150   34.7382   45.7663 H   0  0  0  0  0  0  0  0  0  0  0  0
   57.9519   34.0655   44.2727 H   0  0  0  0  0  0  0  0  0  0  0  0
   56.2302   34.5777   44.2727 H   0  0  0  0  0  0  0  0  0  0  0  0
   56.1846   30.6280   43.7589 H   0  0  0  0  0  0  0  0  0  0  0  0
   57.6717   28.6437   43.5856 H   0  0  0  0  0  0  0  0  0  0  0  0
   59.6414   27.5420   44.0978 H   0  0  0  0  0  0  0  0  0  0  0  0
   61.0459   28.5352   44.6808 H   0  0  0  0  0  0  0  0  0  0  0  0
   61.4270   27.2515   48.6494 H   0  0  0  0  0  0  0  0  0  0  0  0
   62.0747   28.2624   50.8350 H   0  0  0  0  0  0  0  0  0  0  0  0
   60.5910   29.9366   51.9303 H   0  0  0  0  0  0  0  0  0  0  0  0
   58.7070   32.3900   49.4870 H   0  0  0  0  0  0  0  0  0  0  0  0
   57.0570   32.5030   49.7510 H   0  0  0  0  0  0  0  0  0  0  0  0
   57.7741   29.5784   48.6615 H   0  0  0  0  0  0  0  0  0  0  0  0
   60.4048   30.4348   46.4184 H   0  0  0  0  0  0  0  0  0  0  0  0
   61.9441   31.0199   47.8234 H   0  0  0  0  0  0  0  0  0  0  0  0
   61.2980   31.8100   46.3211 H   0  0  0  0  0  0  0  0  0  0  0  0
   63.6000   32.5627   46.8472 H   0  0  0  0  0  0  0  0  0  0  0  0
   62.3709   33.9081   46.9340 H   0  0  0  0  0  0  0  0  0  0  0  0
   62.1302   32.3547   50.2058 H   0  0  0  0  0  0  0  0  0  0  0  0
   62.2995   34.1746   50.3373 H   0  0  0  0  0  0  0  0  0  0  0  0
   59.9721   33.5081   49.8795 H   0  0  0  0  0  0  0  0  0  0  0  0
   60.6935   34.4776   48.5392 H   0  0  0  0  0  0  0  0  0  0  0  0
  1  2  1  0
  2  3  1  0
  3  4  2  0
  4  5  1  0
  5  6  2  0
  6  7  1  0
  7  8  1  0
  8  9  2  0
  8 10  1  0
 10 11  1  0
 11 12  2  0
 12 13  1  0
 13 14  2  0
 14 15  1  0
 15 16  1  0
 16 17  1  0
 16 18  2  0
 16 19  2  0
 15 20  2  0
  6 21  1  0
 21 22  2  0
 22 23  1  0
 23 24  2  0
 23 25  2  0
 23 26  1  0
 26 27  1  0
 27 28  1  0
 28 29  1  0
 29 30  1  0
 30 31  1  0
 22  3  1  0
 31 26  1  0
 20 11  1  0
  1 32  1  0
  1 33  1  0
  1 34  1  0
  4 35  1  0
  5 36  1  0
  7 37  1  0
  7 38  1  0
 12 39  1  0
 13 40  1  0
 14 41  1  0
 17 42  1  0
 17 43  1  0
 20 44  1  0
 21 45  1  0
 27 46  1  0
 27 47  1  0
 28 48  1  0
 28 49  1  0
 30 50  1  0
 30 51  1  0
 31 52  1  0
 31 53  1  0
M  CHG  1  10  -1
M  END
>  <UniqueID>  (14) 
13

>  <SMILES>  (14) 
COc1ccc(CC(=O)[N-]c2cccc(S(N)(=O)=O)c2)cc1S(=O)(=O)N1CCOCC1

>  <Energy>  (14) 
68.0738442397471

>  <Genealogy>  (14) 
COc1ccc(CC(=O)[N-]c2cccc(S(N)(=O)=O)c2)cc1S(=O)(=O)N1CCOCC1 (protonated)
COc1ccc(CC(=O)[N-]c2cccc(S(N)(=O)=O)c2)cc1S(=O)(=O)N1CCOCC1 (3D coordinates assigned)
COc1ccc(CC(=O)[N-]c2cccc(S(N)(=O)=O)c2)cc1S(=O)(=O)N1CCOCC1 (nonaromatic ring conformer: 68.0738442397471 kcal/mol)

>  <smiles>  (14) 
COc1ccc(CC(=O)Nc2cccc(S(N)(=O)=O)c2)cc1S(=O)(=O)N1CCOCC1

>  <score_type>  (14) 
oracle

>  <origin>  (14) 
adg

>  <m_score__min__energy>  (14) 
-10.880000000000001

>  <m_primary>  (14) 
energy

$$$$
14:0
     RDKit          3D

 52 55  0  0  0  0  0  0  0  0999 V2000
   57.0260   27.6260   45.5010 C   0  0  0  0  0  0  0  0  0  0  0  0
   57.0030   28.9090   45.1300 C   0  0  0  0  0  0  0  0  0  0  0  0
   56.8980   29.3140   43.6890 C   0  0  0  0  0  0  0  0  0  0  0  0
   57.6420   30.5460   43.4300 N   0  0  0  0  0  0  0  0  0  0  0  0
   57.4200   31.7310   44.2100 C   0  0  0  0  0  0  0  0  0  0  0  0
   56.6530   31.6980   45.2110 O   0  0  0  0  0  0  0  0  0  0  0  0
   58.0570   33.0300   43.8120 C   0  0  0  0  0  0  0  0  0  0  0  0
   57.8600   34.1050   44.8890 C   0  0  0  0  0  0  0  0  0  0  0  0
   58.9130   34.0180   45.9630 C   0  0  0  0  0  0  0  0  0  0  0  0
   58.5700   34.2530   47.3050 C   0  0  0  0  0  0  0  0  0  0  0  0
   59.5290   34.1210   48.3120 C   0  0  0  0  0  0  0  0  0  0  0  0
   60.8440   33.7580   47.9910 C   0  0  0  0  0  0  0  0  0  0  0  0
   62.0580   33.5950   49.2580 S   0  0  0  0  0  0  0  0  0  0  0  0
   62.4570   34.9720   49.7110 O   0  0  0  0  0  0  0  0  0  0  0  0
   63.2780   32.8950   48.7280 O   0  0  0  0  0  0  0  0  0  0  0  0
   61.4510   32.7100   50.6210 N   0  0  0  0  0  0  0  0  0  0  0  0
   60.0670   32.5780   50.9640 C   0  0  0  0  0  0  0  0  0  0  0  0
   59.2310   33.5150   52.0860 S   0  0  0  0  0  0  0  0  0  0  0  0
   57.7700   32.7010   51.9490 C   0  0  0  0  0  0  0  0  0  0  0  0
   57.9170   31.6830   51.0120 C   0  0  0  0  0  0  0  0  0  0  0  0
   59.2060   31.6120   50.4500 C   0  0  0  0  0  0  0  0  0  0  0  0
   59.5660   30.6510   49.3830 C   0  0  0  0  0  0  0  0  0  0  0  0
   59.7090   31.0040   48.0790 N   0  0  0  0  0  0  0  0  0  0  0  0
   59.9670   29.9230   47.3010 C   0  0  0  0  0  0  0  0  0  0  0  0
   60.1490   29.9680   45.9190 C   0  0  0  0  0  0  0  0  0  0  0  0
   60.3810   28.7700   45.2250 C   0  0  0  0  0  0  0  0  0  0  0  0
   60.4340   27.5450   45.9210 C   0  0  0  0  0  0  0  0  0  0  0  0
   60.2650   27.5070   47.3170 C   0  0  0  0  0  0  0  0  0  0  0  0
   60.0280   28.7130   47.9750 C   0  0  0  0  0  0  0  0  0  0  0  0
   59.7570   28.9800   49.6070 S   0  0  0  0  0  0  0  0  0  0  0  0
   61.1920   33.5270   46.6550 C   0  0  0  0  0  0  0  0  0  0  0  0
   60.2300   33.6480   45.6470 C   0  0  0  0  0  0  0  0  0  0  0  0
   57.1037   27.3628   46.5662 H   0  0  0  0  0  0  0  0  0  0  0  0
   56.9672   26.8327   44.7413 H   0  0  0  0  0  0  0  0  0  0  0  0
   57.0627   29.6902   45.9021 H   0  0  0  0  0  0  0  0  0  0  0  0
   57.3061   28.5094   43.0596 H   0  0  0  0  0  0  0  0  0  0  0  0
   55.8382   29.4912   43.4535 H   0  0  0  0  0  0  0  0  0  0  0  0
   58.3150   30.5920   42.6320 H   0  0  0  0  0  0  0  0  0  0  0  0
   59.1345   32.8684   43.6609 H   0  0  0  0  0  0  0  0  0  0  0  0
   57.5800   33.3788   42.8842 H   0  0  0  0  0  0  0  0  0  0  0  0
   57.9139   35.0969   44.4165 H   0  0  0  0  0  0  0  0  0  0  0  0
   56.8781   33.9443   45.3580 H   0  0  0  0  0  0  0  0  0  0  0  0
   57.5409   34.5424   47.5641 H   0  0  0  0  0  0  0  0  0  0  0  0
   59.2511   34.3026   49.3607 H   0  0  0  0  0  0  0  0  0  0  0  0
   56.8505   32.9332   52.5064 H   0  0  0  0  0  0  0  0  0  0  0  0
   57.1021   30.9976   50.7360 H   0  0  0  0  0  0  0  0  0  0  0  0
   60.1114   30.9269   45.3814 H   0  0  0  0  0  0  0  0  0  0  0  0
   60.5220   28.7871   44.1342 H   0  0  0  0  0  0  0  0  0  0  0  0
   60.6091   26.6107   45.3675 H   0  0  0  0  0  0  0  0  0  0  0  0
   60.3180   26.5580   47.8706 H   0  0  0  0  0  0  0  0  0  0  0  0
   62.2248   33.2496   46.3972 H   0  0  0  0  0  0  0  0  0  0  0  0
   60.5068   33.4521   44.6006 H   0  0  0  0  0  0  0  0  0  0  0  0
  1  2  2  0
  2  3  1  0
  3  4  1  0
  4  5  1  0
  5  6  2  0
  5  7  1  0
  7  8  1  0
  8  9  1  0
  9 10  2  0
 10 11  1  0
 11 12  2  0
 12 13  1  0
 13 14  2  0
 13 15  2  0
 13 16  1  0
 16 17  1  0
 17 18  1  0
 18 19  1  0
 19 20  2  0
 20 21  1  0
 21 22  1  0
 22 23  2  0
 23 24  1  0
 24 25  2  0
 25 26  1  0
 26 27  2  0
 27 28  1  0
 28 29  2  0
 29 30  1  0
 12 31  1  0
 31 32  2  0
 32  9  1  0
 21 17  2  0
 30 22  1  0
 29 24  1  0
  1 33  1  0
  1 34  1  0
  2 35  1  0
  3 36  1  0
  3 37  1  0
  4 38  1  0
  7 39  1  0
  7 40  1  0
  8 41  1  0
  8 42  1  0
 10 43  1  0
 11 44  1  0
 19 45  1  0
 20 46  1  0
 25 47  1  0
 26 48  1  0
 27 49  1  0
 28 50  1  0
 31 51  1  0
 32 52  1  0
M  CHG  1  16  -1
M  END
>  <UniqueID>  (15) 
14

>  <SMILES>  (15) 
C=CCNC(=O)CCc1ccc(S(=O)(=O)[N-]c2sccc2-c2nc3ccccc3s2)cc1

>  <Energy>  (15) 
110.43991359572941

>  <Genealogy>  (15) 
C=CCNC(=O)CCc1ccc(S(=O)(=O)[N-]c2sccc2-c2nc3ccccc3s2)cc1 (protonated)
C=CCNC(=O)CCc1ccc(S(=O)(=O)[N-]c2sccc2-c2nc3ccccc3s2)cc1 (3D coordinates assigned)
C=CCNC(=O)CCc1ccc(S(=O)(=O)[N-]c2sccc2-c2nc3ccccc3s2)cc1 (optimized conformer: 110.43991359572941 kcal/mol)

>  <smiles>  (15) 
C=CCNC(=O)CCc1ccc(S(=O)(=O)Nc2sccc2-c2nc3ccccc3s2)cc1

>  <score_type>  (15) 
oracle

>  <origin>  (15) 
adg

>  <m_score__min__energy>  (15) 
-10.51

>  <m_primary>  (15) 
energy

$$$$
15:0
     RDKit          3D

 39 42  0  0  0  0  0  0  0  0999 V2000
   51.6880   32.6220   48.9470 H   0  0  0  0  0  0  0  0  0  0  0  0
   59.8140   31.8260   48.5170 N   0  0  0  0  0  0  0  0  0  0  0  0
   59.4010   31.7290   49.7460 C   0  0  0  0  0  0  0  0  0  0  0  0
   58.2460   31.1380   50.1180 N   0  0  0  0  0  0  0  0  0  0  0  0
   50.9620   31.7250   53.1860 C   0  0  0  0  0  0  0  0  0  0  0  0
   50.2680   31.8379   54.0319 H   0  0  0  0  0  0  0  0  0  0  0  0
   52.2370   31.1940   53.3960 C   0  0  0  0  0  0  0  0  0  0  0  0
   52.5491   30.8900   54.4060 H   0  0  0  0  0  0  0  0  0  0  0  0
   53.1180   31.0500   52.3130 C   0  0  0  0  0  0  0  0  0  0  0  0
   54.4770   30.4870   52.5190 C   0  0  0  0  0  0  0  0  0  0  0  0
   55.5940   31.0820   51.9070 C   0  0  0  0  0  0  0  0  0  0  0  0
   55.4642   31.9721   51.2739 H   0  0  0  0  0  0  0  0  0  0  0  0
   56.8770   30.5410   52.1030 C   0  0  0  0  0  0  0  0  0  0  0  0
   58.0830   31.1410   51.4710 C   0  0  0  0  0  0  0  0  0  0  0  0
   50.5780   32.1020   51.9390 N   0  0  0  0  0  0  0  0  0  0  0  0
   51.4060   31.9790   50.8660 C   0  0  0  0  0  0  0  0  0  0  0  0
   51.0090   32.3520   49.6920 N   0  0  0  0  0  0  0  0  0  0  0  0
   59.3870   32.7950   47.5440 C   0  0  0  0  0  0  0  0  0  0  0  0
   58.2770   32.4950   46.7420 C   0  0  0  0  0  0  0  0  0  0  0  0
   57.7441   31.5429   46.8819 H   0  0  0  0  0  0  0  0  0  0  0  0
   57.8420   33.3960   45.7660 C   0  0  0  0  0  0  0  0  0  0  0  0
   56.9605   33.1589   45.1522 H   0  0  0  0  0  0  0  0  0  0  0  0
   58.5270   34.5980   45.5700 C   0  0  0  0  0  0  0  0  0  0  0  0
   58.1791   35.3109   44.8079 H   0  0  0  0  0  0  0  0  0  0  0  0
   59.6530   34.8950   46.3410 C   0  0  0  0  0  0  0  0  0  0  0  0
   60.1968   35.8373   46.1788 H   0  0  0  0  0  0  0  0  0  0  0  0
   60.0900   33.9960   47.3190 C   0  0  0  0  0  0  0  0  0  0  0  0
   60.9854   34.2268   47.9148 H   0  0  0  0  0  0  0  0  0  0  0  0
   60.2880   32.2580   51.0650 S   0  0  0  0  0  0  0  0  0  0  0  0
   59.1390   31.7300   52.1760 C   0  0  0  0  0  0  0  0  0  0  0  0
   59.2065   31.8306   53.2693 H   0  0  0  0  0  0  0  0  0  0  0  0
   57.0070   29.3980   52.9070 C   0  0  0  0  0  0  0  0  0  0  0  0
   57.9981   28.9501   53.0715 H   0  0  0  0  0  0  0  0  0  0  0  0
   55.8780   28.8310   53.4970 C   0  0  0  0  0  0  0  0  0  0  0  0
   55.9820   27.9355   54.1273 H   0  0  0  0  0  0  0  0  0  0  0  0
   54.6500   29.3780   53.2980 N   0  0  0  0  0  0  0  0  0  0  0  0
   53.8320   28.9370   53.7750 H   0  0  0  0  0  0  0  0  0  0  0  0
   52.6920   31.4500   51.0340 C   0  0  0  0  0  0  0  0  0  0  0  0
   53.3651   31.3480   50.1700 H   0  0  0  0  0  0  0  0  0  0  0  0
  1  2  1  0
  2  3  2  0
  3  4  1  0
  4  5  1  0
  5  6  1  0
  5  7  2  0
  7  8  1  0
  7  9  1  0
  9 10  1  0
 10 11  2  0
 11 12  1  0
 11 13  1  0
 13 14  1  0
 14 15  1  0
 15 16  1  0
 16 17  2  0
 17 18  1  0
 18 19  2  0
 19 20  1  0
 19 21  1  0
 21 22  1  0
 21 23  2  0
 23 24  1  0
 23 25  1  0
 25 26  1  0
 25 27  2  0
 27 28  1  0
 16 29  1  0
 29 30  1  0
 30 31  1  0
 13 32  2  0
 32 33  1  0
 32 34  1  0
 34 35  1  0
 34 36  2  0
 36 37  1  0
  9 38  2  0
 38 39  1  0
 38  3  1  0
 36 10  1  0
 30 14  2  0
 27 18  1  0
M  CHG  3   4  -1  15  -1  36   1
M  END
>  <UniqueID>  (16) 
15

>  <SMILES>  (16) 
[H]/N=c1/cc(-c2cc(-c3cs/c(=N/c4ccccc4)[n-]3)cc[nH+]2)cc[n-]1

>  <Energy>  (16) 
87.28786090297328

>  <Genealogy>  (16) 
N=c1cc(-c2cc(-c3csc(=Nc4ccccc4)[n-]3)cc[nH+]2)cc[n-]1 (protonated)
[H]/N=c1/cc(-c2cc(-c3cs/c(=N/c4ccccc4)[n-]3)cc[nH+]2)cc[n-]1 (cis-trans isomerization)
[H]/N=c1/cc(-c2cc(-c3cs/c(=N/c4ccccc4)[n-]3)cc[nH+]2)cc[n-]1 (3D coordinates assigned)
[H]/N=c1/cc(-c2cc(-c3cs/c(=N/c4ccccc4)[n-]3)cc[nH+]2)cc[n-]1 (optimized conformer: 87.28786090297328 kcal/mol)

>  <smiles>  (16) 
N=c1cc(-c2cc(-c3csc(=Nc4ccccc4)[nH]3)ccn2)cc[nH]1

>  <score_type>  (16) 
oracle

>  <origin>  (16) 
adg

>  <m_score__min__energy>  (16) 
-11.039999999999999

>  <m_primary>  (16) 
energy

$$$$
16:0
     RDKit          3D

 27 28  0  0  0  0  0  0  0  0999 V2000
   58.9330   32.0530   47.6980 C   0  0  0  0  0  0  0  0  0  0  0  0
   58.6310   30.8000   46.9320 C   0  0  0  0  0  0  0  0  0  0  0  0
   58.0590   30.8610   45.6520 C   0  0  0  0  0  0  0  0  0  0  0  0
   57.7750   29.6860   44.9510 C   0  0  0  0  0  0  0  0  0  0  0  0
   58.0620   28.4320   45.5160 C   0  0  0  0  0  0  0  0  0  0  0  0
   57.7440   27.1650   44.7610 C   0  0  0  0  0  0  0  0  0  0  0  0
   57.4240   26.0240   45.7080 C   0  0  0  0  0  0  0  0  0  0  0  0
   56.1330   25.8520   46.2650 C   0  0  0  0  0  0  0  0  0  0  0  0
   55.0680   26.7000   45.9570 O   0  0  0  0  0  0  0  0  0  0  0  0
   55.9060   24.8310   47.1310 N   0  0  0  0  0  0  0  0  0  0  0  0
   56.8880   23.9650   47.4810 C   0  0  0  0  0  0  0  0  0  0  0  0
   56.6450   23.0280   48.2850 O   0  0  0  0  0  0  0  0  0  0  0  0
   58.1340   24.1080   46.9660 N   0  0  0  0  0  0  0  0  0  0  0  0
   58.4250   25.1080   46.0960 C   0  0  0  0  0  0  0  0  0  0  0  0
   59.5980   25.2050   45.6470 O   0  0  0  0  0  0  0  0  0  0  0  0
   58.6130   28.3750   46.8070 C   0  0  0  0  0  0  0  0  0  0  0  0
   58.8990   29.5500   47.5070 C   0  0  0  0  0  0  0  0  0  0  0  0
   58.8827   31.8443   48.7769 H   0  0  0  0  0  0  0  0  0  0  0  0
   59.9421   32.4065   47.4396 H   0  0  0  0  0  0  0  0  0  0  0  0
   58.1958   32.8274   47.4396 H   0  0  0  0  0  0  0  0  0  0  0  0
   57.8333   31.8375   45.1987 H   0  0  0  0  0  0  0  0  0  0  0  0
   57.3235   29.7432   43.9496 H   0  0  0  0  0  0  0  0  0  0  0  0
   56.8757   27.3443   44.1099 H   0  0  0  0  0  0  0  0  0  0  0  0
   58.6258   26.8851   44.1660 H   0  0  0  0  0  0  0  0  0  0  0  0
   55.1430   27.4850   45.3260 H   0  0  0  0  0  0  0  0  0  0  0  0
   58.8207   27.3990   47.2698 H   0  0  0  0  0  0  0  0  0  0  0  0
   59.3368   29.4938   48.5146 H   0  0  0  0  0  0  0  0  0  0  0  0
  1  2  1  0
  2  3  2  0
  3  4  1  0
  4  5  2  0
  5  6  1  0
  6  7  1  0
  7  8  2  0
  8  9  1  0
  8 10  1  0
 10 11  1  0
 11 12  2  0
 11 13  1  0
 13 14  1  0
 14 15  2  0
  5 16  1  0
 16 17  2  0
 17  2  1  0
 14  7  1  0
  1 18  1  0
  1 19  1  0
  1 20  1  0
  3 21  1  0
  4 22  1  0
  6 23  1  0
  6 24  1  0
  9 25  1  0
 16 26  1  0
 17 27  1  0
M  CHG  2  10  -1  13  -1
M  END
>  <UniqueID>  (17) 
16

>  <SMILES>  (17) 
Cc1ccc(Cc2c(O)[n-]c(=O)[n-]c2=O)cc1

>  <Energy>  (17) 
30.268533771748924

>  <Genealogy>  (17) 
Cc1ccc(Cc2c(O)[n-]c(=O)[n-]c2=O)cc1 (protonated)
Cc1ccc(Cc2c(O)[n-]c(=O)[n-]c2=O)cc1 (3D coordinates assigned)
Cc1ccc(Cc2c(O)[n-]c(=O)[n-]c2=O)cc1 (optimized conformer: 30.268533771748924 kcal/mol)

>  <smiles>  (17) 
Cc1ccc(Cc2c(O)[nH]c(=O)[nH]c2=O)cc1

>  <score_type>  (17) 
oracle

>  <origin>  (17) 
adg

>  <m_score__min__energy>  (17) 
-10.720000000000001

>  <m_primary>  (17) 
energy

$$$$
17:0
     RDKit          3D

 58 61  0  0  0  0  0  0  0  0999 V2000
   57.0971   33.6412   43.8854 H   0  0  0  0  0  0  0  0  0  0  0  0
   57.6550   33.7510   44.8270 C   0  0  0  0  0  0  0  0  0  0  0  0
   57.1930   33.1290   45.9900 C   0  0  0  0  0  0  0  0  0  0  0  0
   56.2697   32.5317   45.9638 H   0  0  0  0  0  0  0  0  0  0  0  0
   57.9030   33.2650   47.1870 C   0  0  0  0  0  0  0  0  0  0  0  0
   57.5321   32.7805   48.1022 H   0  0  0  0  0  0  0  0  0  0  0  0
   59.0880   34.0180   47.2250 C   0  0  0  0  0  0  0  0  0  0  0  0
   59.8350   34.1930   48.5240 C   0  0  0  0  0  0  0  0  0  0  0  0
   59.5150   33.4121   49.2295 H   0  0  0  0  0  0  0  0  0  0  0  0
   59.6095   35.1932   48.9225 H   0  0  0  0  0  0  0  0  0  0  0  0
   61.3460   34.0860   48.3140 C   0  0  0  0  0  0  0  0  0  0  0  0
   61.8566   34.8096   48.9665 H   0  0  0  0  0  0  0  0  0  0  0  0
   61.5804   34.3026   47.2613 H   0  0  0  0  0  0  0  0  0  0  0  0
   61.8020   32.7350   48.6390 N   0  0  0  0  0  0  0  0  0  0  0  0
   61.1540   31.6300   48.4020 C   0  0  0  0  0  0  0  0  0  0  0  0
   60.1480   31.2770   49.2380 N   0  0  0  0  0  0  0  0  0  0  0  0
   59.4510   30.1290   49.0400 C   0  0  0  0  0  0  0  0  0  0  0  0
   58.4830   29.7860   49.8370 N   0  0  0  0  0  0  0  0  0  0  0  0
   58.1290   30.4840   51.0750 C   0  0  0  0  0  0  0  0  0  0  0  0
   57.2336   30.0195   51.5139 H   0  0  0  0  0  0  0  0  0  0  0  0
   57.7900   31.9690   50.7880 C   0  0  0  0  0  0  0  0  0  0  0  0
   58.3926   32.3045   49.9311 H   0  0  0  0  0  0  0  0  0  0  0  0
   56.7103   32.0212   50.5843 H   0  0  0  0  0  0  0  0  0  0  0  0
   58.0730   32.9060   51.9810 C   0  0  0  0  0  0  0  0  0  0  0  0
   59.0946   33.3029   51.8873 H   0  0  0  0  0  0  0  0  0  0  0  0
   57.3301   33.7170   51.9621 H   0  0  0  0  0  0  0  0  0  0  0  0
   57.9460   32.1760   53.3210 C   0  0  0  0  0  0  0  0  0  0  0  0
   58.1387   32.8893   54.1359 H   0  0  0  0  0  0  0  0  0  0  0  0
   56.9290   31.7630   53.3929 H   0  0  0  0  0  0  0  0  0  0  0  0
   58.9490   31.0100   53.4290 C   0  0  0  0  0  0  0  0  0  0  0  0
   59.8778   31.3901   53.8795 H   0  0  0  0  0  0  0  0  0  0  0  0
   58.4753   30.2313   54.0449 H   0  0  0  0  0  0  0  0  0  0  0  0
   59.2930   30.3670   52.0690 C   0  0  0  0  0  0  0  0  0  0  0  0
   60.1738   30.8737   51.6477 H   0  0  0  0  0  0  0  0  0  0  0  0
   59.4951   29.2987   52.2361 H   0  0  0  0  0  0  0  0  0  0  0  0
   59.7650   29.3310   47.9910 N   0  0  0  0  0  0  0  0  0  0  0  0
   60.7660   29.6650   47.1400 C   0  0  0  0  0  0  0  0  0  0  0  0
   61.0270   28.8650   46.1430 N   0  0  0  0  0  0  0  0  0  0  0  0
   60.4960   28.9470   44.7800 C   0  0  0  0  0  0  0  0  0  0  0  0
   60.7859   28.0425   44.2251 H   0  0  0  0  0  0  0  0  0  0  0  0
   60.9090   29.8434   44.2944 H   0  0  0  0  0  0  0  0  0  0  0  0
   58.9930   29.0560   44.7960 C   0  0  0  0  0  0  0  0  0  0  0  0
   58.3500   30.1980   44.2870 C   0  0  0  0  0  0  0  0  0  0  0  0
   58.9464   31.0226   43.8693 H   0  0  0  0  0  0  0  0  0  0  0  0
   56.9550   30.2890   44.3100 C   0  0  0  0  0  0  0  0  0  0  0  0
   56.4567   31.1819   43.9046 H   0  0  0  0  0  0  0  0  0  0  0  0
   56.1920   29.2480   44.8470 C   0  0  0  0  0  0  0  0  0  0  0  0
   54.8070   29.3400   44.8670 O   0  0  0  0  0  0  0  0  0  0  0  0
   56.8260   28.1140   45.3660 C   0  0  0  0  0  0  0  0  0  0  0  0
   56.2267   27.2965   45.7933 H   0  0  0  0  0  0  0  0  0  0  0  0
   58.2200   28.0190   45.3420 C   0  0  0  0  0  0  0  0  0  0  0  0
   58.7145   27.1266   45.7533 H   0  0  0  0  0  0  0  0  0  0  0  0
   61.4650   30.8220   47.3440 N   0  0  0  0  0  0  0  0  0  0  0  0
   62.2290   31.0940   46.6930 H   0  0  0  0  0  0  0  0  0  0  0  0
   59.5400   34.6500   46.0550 C   0  0  0  0  0  0  0  0  0  0  0  0
   60.4584   35.2549   46.0786 H   0  0  0  0  0  0  0  0  0  0  0  0
   58.8270   34.5130   44.8610 C   0  0  0  0  0  0  0  0  0  0  0  0
   59.1884   35.0055   43.9462 H   0  0  0  0  0  0  0  0  0  0  0  0
  1  2  1  0
  2  3  2  0
  3  4  1  0
  3  5  1  0
  5  6  1  0
  5  7  2  0
  7  8  1  0
  8  9  1  0
  8 10  1  0
  8 11  1  0
 11 12  1  0
 11 13  1  0
 11 14  1  0
 14 15  2  0
 15 16  1  0
 16 17  1  0
 17 18  2  3
 18 19  1  0
 19 20  1  0
 19 21  1  0
 21 22  1  0
 21 23  1  0
 21 24  1  0
 24 25  1  0
 24 26  1  0
 24 27  1  0
 27 28  1  0
 27 29  1  0
 27 30  1  0
 30 31  1  0
 30 32  1  0
 30 33  1  0
 33 34  1  0
 33 35  1  0
 17 36  1  0
 36 37  1  0
 37 38  2  0
 38 39  1  0
 39 40  1  0
 39 41  1  0
 39 42  1  0
 42 43  2  0
 43 44  1  0
 43 45  1  0
 45 46  1  0
 45 47  2  0
 47 48  1  0
 47 49  1  0
 49 50  1  0
 49 51  2  0
 51 52  1  0
 37 53  1  0
 53 54  1  0
  7 55  1  0
 55 56  1  0
 55 57  2  0
 57 58  1  0
 57  2  1  0
 53 15  1  0
 33 19  1  0
 51 42  1  0
M  CHG  3  16  -1  36  -1  48  -1
M  END
>  <UniqueID>  (18) 
17

>  <SMILES>  (18) 
[O-]c1ccc(C/N=c2/[n-]c(=NC3CCCCC3)[n-]/c(=N/CCc3ccccc3)[nH]2)cc1

>  <Energy>  (18) 
60.99254566945885

>  <Genealogy>  (18) 
[O-]c1ccc(CN=c2[n-]c(=NC3CCCCC3)[n-]c(=NCCc3ccccc3)[nH]2)cc1 (protonated)
[O-]c1ccc(C/N=c2/[n-]c(=NC3CCCCC3)[n-]/c(=N/CCc3ccccc3)[nH]2)cc1 (cis-trans isomerization)
[O-]c1ccc(C/N=c2/[n-]c(=NC3CCCCC3)[n-]/c(=N/CCc3ccccc3)[nH]2)cc1 (3D coordinates assigned)
[O-]c1ccc(C/N=c2/[n-]c(=NC3CCCCC3)[n-]/c(=N/CCc3ccccc3)[nH]2)cc1 (nonaromatic ring conformer: 60.99254566945885 kcal/mol)

>  <smiles>  (18) 
Oc1ccc(CN=c2[nH]c(=NCCc3ccccc3)[nH]c(=NC3CCCCC3)[nH]2)cc1

>  <score_type>  (18) 
oracle

>  <origin>  (18) 
adg

>  <m_score__min__energy>  (18) 
-15.029999999999999

>  <m_primary>  (18) 
energy

$$$$
18:0
     RDKit          3D

 42 44  0  0  0  0  0  0  0  0999 V2000
   57.1700   31.0920   43.9840 C   0  0  0  0  0  0  0  0  0  0  0  0
   57.0110   30.3140   45.2030 N   0  0  0  0  0  0  0  0  0  0  0  0
   56.3170   29.0610   45.2410 C   0  0  0  0  0  0  0  0  0  0  0  0
   55.1850   28.9640   44.6910 O   0  0  0  0  0  0  0  0  0  0  0  0
   56.9270   27.8880   45.9250 C   0  0  0  0  0  0  0  0  0  0  0  0
   58.2960   27.9120   46.2610 C   0  0  0  0  0  0  0  0  0  0  0  0
   58.9050   26.8230   46.9130 C   0  0  0  0  0  0  0  0  0  0  0  0
   60.3460   26.8640   47.2630 C   0  0  0  0  0  0  0  0  0  0  0  0
   61.2050   26.4530   46.4350 O   0  0  0  0  0  0  0  0  0  0  0  0
   60.7650   27.4180   48.5180 N   0  0  0  0  0  0  0  0  0  0  0  0
   60.4460   28.7220   49.0250 C   0  0  0  0  0  0  0  0  0  0  0  0
   59.1690   29.0350   49.5240 C   0  0  0  0  0  0  0  0  0  0  0  0
   58.8930   30.3240   49.9860 C   0  0  0  0  0  0  0  0  0  0  0  0
   59.8790   31.3120   49.9440 C   0  0  0  0  0  0  0  0  0  0  0  0
   61.1540   31.0180   49.4290 C   0  0  0  0  0  0  0  0  0  0  0  0
   62.1960   32.0000   49.3630 N   0  0  0  0  0  0  0  0  0  0  0  0
   62.2850   33.2900   48.2080 S   0  0  0  0  0  0  0  0  0  0  0  0
   63.3290   32.9630   47.1770 O   0  0  0  0  0  0  0  0  0  0  0  0
   62.6700   34.5590   48.9140 O   0  0  0  0  0  0  0  0  0  0  0  0
   60.7230   33.5150   47.4430 C   0  0  0  0  0  0  0  0  0  0  0  0
   59.9190   34.6380   47.5620 C   0  0  0  0  0  0  0  0  0  0  0  0
   58.7180   34.5260   46.8520 C   0  0  0  0  0  0  0  0  0  0  0  0
   58.5810   33.3180   46.1790 C   0  0  0  0  0  0  0  0  0  0  0  0
   59.9530   32.3880   46.4660 S   0  0  0  0  0  0  0  0  0  0  0  0
   61.4210   29.7240   48.9630 C   0  0  0  0  0  0  0  0  0  0  0  0
   58.1280   25.6970   47.2270 C   0  0  0  0  0  0  0  0  0  0  0  0
   56.7730   25.6600   46.8980 C   0  0  0  0  0  0  0  0  0  0  0  0
   56.1690   26.7410   46.2530 C   0  0  0  0  0  0  0  0  0  0  0  0
   54.8150   26.6580   45.9440 O   0  0  0  0  0  0  0  0  0  0  0  0
   57.3841   32.1395   44.2428 H   0  0  0  0  0  0  0  0  0  0  0  0
   58.0030   30.6826   43.3937 H   0  0  0  0  0  0  0  0  0  0  0  0
   56.2431   31.0422   43.3937 H   0  0  0  0  0  0  0  0  0  0  0  0
   58.8988   28.7970   46.0093 H   0  0  0  0  0  0  0  0  0  0  0  0
   58.3858   28.2631   49.5505 H   0  0  0  0  0  0  0  0  0  0  0  0
   57.8956   30.5616   50.3843 H   0  0  0  0  0  0  0  0  0  0  0  0
   59.6575   32.3236   50.3150 H   0  0  0  0  0  0  0  0  0  0  0  0
   60.1958   35.5239   48.1523 H   0  0  0  0  0  0  0  0  0  0  0  0
   57.9555   35.3185   46.8290 H   0  0  0  0  0  0  0  0  0  0  0  0
   57.7202   33.0200   45.5623 H   0  0  0  0  0  0  0  0  0  0  0  0
   62.4107   29.4924   48.5426 H   0  0  0  0  0  0  0  0  0  0  0  0
   58.5905   24.8384   47.7357 H   0  0  0  0  0  0  0  0  0  0  0  0
   56.1751   24.7714   47.1489 H   0  0  0  0  0  0  0  0  0  0  0  0
  1  2  1  0
  2  3  1  0
  3  4  2  0
  3  5  1  0
  5  6  2  0
  6  7  1  0
  7  8  1  0
  8  9  2  0
  8 10  1  0
 10 11  1  0
 11 12  2  0
 12 13  1  0
 13 14  2  0
 14 15  1  0
 15 16  1  0
 16 17  1  0
 17 18  2  0
 17 19  2  0
 17 20  1  0
 20 21  2  0
 21 22  1  0
 22 23  2  0
 23 24  1  0
 15 25  2  0
  7 26  2  0
 26 27  1  0
 27 28  2  0
 28 29  1  0
 28  5  1  0
 25 11  1  0
 24 20  1  0
  1 30  1  0
  1 31  1  0
  1 32  1  0
  6 33  1  0
 12 34  1  0
 13 35  1  0
 14 36  1  0
 21 37  1  0
 22 38  1  0
 23 39  1  0
 25 40  1  0
 26 41  1  0
 27 42  1  0
M  CHG  4   2  -1  10  -1  16  -1  29  -1
M  END
>  <UniqueID>  (19) 
18

>  <SMILES>  (19) 
C[N-]C(=O)c1cc(C(=O)[N-]c2cccc([N-]S(=O)(=O)c3cccs3)c2)ccc1[O-]

>  <Energy>  (19) 
78.19322897311643

>  <Genealogy>  (19) 
C[N-]C(=O)c1cc(C(=O)[N-]c2cccc([N-]S(=O)(=O)c3cccs3)c2)ccc1[O-] (protonated)
C[N-]C(=O)c1cc(C(=O)[N-]c2cccc([N-]S(=O)(=O)c3cccs3)c2)ccc1[O-] (3D coordinates assigned)
C[N-]C(=O)c1cc(C(=O)[N-]c2cccc([N-]S(=O)(=O)c3cccs3)c2)ccc1[O-] (optimized conformer: 78.19322897311643 kcal/mol)

>  <smiles>  (19) 
CNC(=O)c1cc(C(=O)Nc2cccc(NS(=O)(=O)c3cccs3)c2)ccc1O

>  <score_type>  (19) 
oracle

>  <origin>  (19) 
adg

>  <m_score__min__energy>  (19) 
-15.52

>  <m_primary>  (19) 
energy

$$$$
19:0
     RDKit          3D

 44 46  0  0  0  0  0  0  0  0999 V2000
   59.0088   35.3176   46.8751 H   0  0  0  0  0  0  0  0  0  0  0  0
   58.6440   34.4900   46.2490 C   0  0  0  0  0  0  0  0  0  0  0  0
   58.9630   34.4500   44.8880 C   0  0  0  0  0  0  0  0  0  0  0  0
   59.5746   35.2488   44.4431 H   0  0  0  0  0  0  0  0  0  0  0  0
   58.5050   33.3950   44.0920 C   0  0  0  0  0  0  0  0  0  0  0  0
   58.7514   33.3700   43.0203 H   0  0  0  0  0  0  0  0  0  0  0  0
   57.7320   32.3680   44.6560 C   0  0  0  0  0  0  0  0  0  0  0  0
   57.2070   31.2550   43.7950 C   0  0  0  0  0  0  0  0  0  0  0  0
   58.0478   30.6526   43.4206 H   0  0  0  0  0  0  0  0  0  0  0  0
   56.6532   31.6782   42.9440 H   0  0  0  0  0  0  0  0  0  0  0  0
   56.3170   30.4110   44.5850 N   0  0  0  0  0  0  0  0  0  0  0  0
   56.7070   29.3630   45.2470 C   0  0  0  0  0  0  0  0  0  0  0  0
   57.9100   29.3440   45.8790 N   0  0  0  0  0  0  0  0  0  0  0  0
   58.3070   28.2440   46.5680 C   0  0  0  0  0  0  0  0  0  0  0  0
   59.6590   28.2270   47.2140 C   0  0  0  0  0  0  0  0  0  0  0  0
   59.6264   27.5916   48.1113 H   0  0  0  0  0  0  0  0  0  0  0  0
   60.3956   27.8272   46.5015 H   0  0  0  0  0  0  0  0  0  0  0  0
   60.0570   29.6230   47.6060 C   0  0  0  0  0  0  0  0  0  0  0  0
   61.0630   30.2980   46.8990 C   0  0  0  0  0  0  0  0  0  0  0  0
   61.5919   29.7894   46.0795 H   0  0  0  0  0  0  0  0  0  0  0  0
   61.3960   31.6130   47.2310 C   0  0  0  0  0  0  0  0  0  0  0  0
   62.1878   32.1357   46.6745 H   0  0  0  0  0  0  0  0  0  0  0  0
   60.7260   32.2660   48.2680 C   0  0  0  0  0  0  0  0  0  0  0  0
   60.9878   33.3039   48.5214 H   0  0  0  0  0  0  0  0  0  0  0  0
   59.7200   31.6030   48.9880 C   0  0  0  0  0  0  0  0  0  0  0  0
   58.9640   32.3200   50.0660 C   0  0  0  0  0  0  0  0  0  0  0  0
   59.3202   31.9822   51.0504 H   0  0  0  0  0  0  0  0  0  0  0  0
   59.1266   33.4036   49.9693 H   0  0  0  0  0  0  0  0  0  0  0  0
   57.8905   32.1003   49.9693 H   0  0  0  0  0  0  0  0  0  0  0  0
   59.3750   30.2880   48.6390 C   0  0  0  0  0  0  0  0  0  0  0  0
   58.5651   29.7745   49.1779 H   0  0  0  0  0  0  0  0  0  0  0  0
   57.5050   27.1450   46.6080 N   0  0  0  0  0  0  0  0  0  0  0  0
   57.8360   26.3000   47.1250 H   0  0  0  0  0  0  0  0  0  0  0  0
   56.2920   27.1590   45.9750 C   0  0  0  0  0  0  0  0  0  0  0  0
   55.4930   26.1310   45.9940 N   0  0  0  0  0  0  0  0  0  0  0  0
   55.8310   24.7790   45.5600 C   0  0  0  0  0  0  0  0  0  0  0  0
   55.9907   24.1402   46.4412 H   0  0  0  0  0  0  0  0  0  0  0  0
   55.0072   24.3711   44.9559 H   0  0  0  0  0  0  0  0  0  0  0  0
   56.7498   24.8068   44.9559 H   0  0  0  0  0  0  0  0  0  0  0  0
   55.9060   28.2710   45.3000 N   0  0  0  0  0  0  0  0  0  0  0  0
   57.4020   32.4230   46.0200 C   0  0  0  0  0  0  0  0  0  0  0  0
   56.7797   31.6330   46.4656 H   0  0  0  0  0  0  0  0  0  0  0  0
   57.8620   33.4790   46.8140 C   0  0  0  0  0  0  0  0  0  0  0  0
   57.6080   33.5135   47.8837 H   0  0  0  0  0  0  0  0  0  0  0  0
  1  2  1  0
  2  3  2  0
  3  4  1  0
  3  5  1  0
  5  6  1  0
  5  7  2  0
  7  8  1  0
  8  9  1  0
  8 10  1  0
  8 11  1  0
 11 12  2  0
 12 13  1  0
 13 14  2  0
 14 15  1  0
 15 16  1  0
 15 17  1  0
 15 18  1  0
 18 19  2  0
 19 20  1  0
 19 21  1  0
 21 22  1  0
 21 23  2  0
 23 24  1  0
 23 25  1  0
 25 26  1  0
 26 27  1  0
 26 28  1  0
 26 29  1  0
 25 30  2  0
 30 31  1  0
 14 32  1  0
 32 33  1  0
 32 34  1  0
 34 35  2  0
 35 36  1  0
 36 37  1  0
 36 38  1  0
 36 39  1  0
 34 40  1  0
  7 41  1  0
 41 42  1  0
 41 43  2  0
 43 44  1  0
 43  2  1  0
 40 12  1  0
 30 18  1  0
M  CHG  1  40  -1
M  END
>  <UniqueID>  (20) 
19

>  <SMILES>  (20) 
C/N=c1/[n-]/c(=N/Cc2ccccc2)nc(Cc2cccc(C)c2)[nH]1

>  <Energy>  (20) 
42.19427180540884

>  <Genealogy>  (20) 
CN=c1[n-]c(=NCc2ccccc2)nc(Cc2cccc(C)c2)[nH]1 (protonated)
C/N=c1/[n-]/c(=N/Cc2ccccc2)nc(Cc2cccc(C)c2)[nH]1 (cis-trans isomerization)
C/N=c1/[n-]/c(=N/Cc2ccccc2)nc(Cc2cccc(C)c2)[nH]1 (3D coordinates assigned)
C/N=c1/[n-]/c(=N/Cc2ccccc2)nc(Cc2cccc(C)c2)[nH]1 (optimized conformer: 42.19427180540884 kcal/mol)

>  <smiles>  (20) 
CN=c1[nH]c(Cc2cccc(C)c2)nc(=NCc2ccccc2)[nH]1

>  <score_type>  (20) 
oracle

>  <origin>  (20) 
adg

>  <m_score__min__energy>  (20) 
-9.2699999999999996

>  <m_primary>  (20) 
energy

$$$$
20:0
     RDKit          3D

 38 40  0  0  0  0  0  0  0  0999 V2000
   59.4900   35.4100   47.1400 O   0  0  0  0  0  0  0  0  0  0  0  0
   60.2180   34.5840   46.5290 C   0  0  0  0  0  0  0  0  0  0  0  0
   59.7990   34.1290   45.2340 N   0  0  0  0  0  0  0  0  0  0  0  0
   58.8900   33.0500   44.9760 C   0  0  0  0  0  0  0  0  0  0  0  0
   58.2330   32.9210   43.7410 C   0  0  0  0  0  0  0  0  0  0  0  0
   57.3570   31.8560   43.5170 C   0  0  0  0  0  0  0  0  0  0  0  0
   57.1250   30.9040   44.5220 C   0  0  0  0  0  0  0  0  0  0  0  0
   56.2160   29.7620   44.2690 C   0  0  0  0  0  0  0  0  0  0  0  0
   55.5540   29.7240   43.1970 O   0  0  0  0  0  0  0  0  0  0  0  0
   56.0270   28.7150   45.2310 N   0  0  0  0  0  0  0  0  0  0  0  0
   57.0060   27.7390   45.6190 C   0  0  0  0  0  0  0  0  0  0  0  0
   58.3450   27.9440   45.2630 C   0  0  0  0  0  0  0  0  0  0  0  0
   59.3230   27.0170   45.6360 C   0  0  0  0  0  0  0  0  0  0  0  0
   58.9720   25.8870   46.3780 C   0  0  0  0  0  0  0  0  0  0  0  0
   57.6420   25.6870   46.7590 C   0  0  0  0  0  0  0  0  0  0  0  0
   57.3040   24.5970   47.4930 F   0  0  0  0  0  0  0  0  0  0  0  0
   56.6620   26.6120   46.3890 C   0  0  0  0  0  0  0  0  0  0  0  0
   57.7490   31.0630   45.7710 C   0  0  0  0  0  0  0  0  0  0  0  0
   58.6210   32.1310   45.9950 C   0  0  0  0  0  0  0  0  0  0  0  0
   61.4460   34.0730   47.1830 C   0  0  0  0  0  0  0  0  0  0  0  0
   61.4810   33.8380   48.5700 C   0  0  0  0  0  0  0  0  0  0  0  0
   62.6450   33.3560   49.1760 C   0  0  0  0  0  0  0  0  0  0  0  0
   63.7860   33.1140   48.4090 C   0  0  0  0  0  0  0  0  0  0  0  0
   63.7680   33.3600   47.0340 C   0  0  0  0  0  0  0  0  0  0  0  0
   62.6070   33.8410   46.4230 C   0  0  0  0  0  0  0  0  0  0  0  0
   58.4090   33.6617   42.9470 H   0  0  0  0  0  0  0  0  0  0  0  0
   56.8461   31.7630   42.5473 H   0  0  0  0  0  0  0  0  0  0  0  0
   58.6283   28.8378   44.6877 H   0  0  0  0  0  0  0  0  0  0  0  0
   60.3713   27.1781   45.3444 H   0  0  0  0  0  0  0  0  0  0  0  0
   59.7419   25.1546   46.6625 H   0  0  0  0  0  0  0  0  0  0  0  0
   55.6182   26.4589   46.7006 H   0  0  0  0  0  0  0  0  0  0  0  0
   57.5495   30.3419   46.5774 H   0  0  0  0  0  0  0  0  0  0  0  0
   59.0988   32.2498   46.9787 H   0  0  0  0  0  0  0  0  0  0  0  0
   60.5875   34.0346   49.1808 H   0  0  0  0  0  0  0  0  0  0  0  0
   62.6618   33.1670   50.2595 H   0  0  0  0  0  0  0  0  0  0  0  0
   64.6990   32.7297   48.8872 H   0  0  0  0  0  0  0  0  0  0  0  0
   64.6693   33.1748   46.4312 H   0  0  0  0  0  0  0  0  0  0  0  0
   62.6008   34.0395   45.3411 H   0  0  0  0  0  0  0  0  0  0  0  0
  1  2  2  0
  2  3  1  0
  3  4  1  0
  4  5  2  0
  5  6  1  0
  6  7  2  0
  7  8  1  0
  8  9  2  0
  8 10  1  0
 10 11  1  0
 11 12  2  0
 12 13  1  0
 13 14  2  0
 14 15  1  0
 15 16  1  0
 15 17  2  0
  7 18  1  0
 18 19  2  0
  2 20  1  0
 20 21  2  0
 21 22  1  0
 22 23  2  0
 23 24  1  0
 24 25  2  0
 19  4  1  0
 25 20  1  0
 17 11  1  0
  5 26  1  0
  6 27  1  0
 12 28  1  0
 13 29  1  0
 14 30  1  0
 17 31  1  0
 18 32  1  0
 19 33  1  0
 21 34  1  0
 22 35  1  0
 23 36  1  0
 24 37  1  0
 25 38  1  0
M  CHG  2   3  -1  10  -1
M  END
>  <UniqueID>  (21) 
20

>  <SMILES>  (21) 
O=C([N-]c1ccc(C(=O)[N-]c2cccc(F)c2)cc1)c1ccccc1

>  <Energy>  (21) 
54.53607643150284

>  <Genealogy>  (21) 
O=C([N-]c1ccc(C(=O)[N-]c2cccc(F)c2)cc1)c1ccccc1 (protonated)
O=C([N-]c1ccc(C(=O)[N-]c2cccc(F)c2)cc1)c1ccccc1 (3D coordinates assigned)
O=C([N-]c1ccc(C(=O)[N-]c2cccc(F)c2)cc1)c1ccccc1 (optimized conformer: 54.53607643150284 kcal/mol)

>  <smiles>  (21) 
O=C(Nc1ccc(C(=O)Nc2cccc(F)c2)cc1)c1ccccc1

>  <score_type>  (21) 
oracle

>  <origin>  (21) 
adg

>  <m_score__min__energy>  (21) 
-11.119999999999999

>  <m_primary>  (21) 
energy

$$$$
21:0
     RDKit          3D

 46 49  0  0  0  0  0  0  0  0999 V2000
   54.5730   23.7300   45.8560 C   0  0  0  0  0  0  0  0  0  0  0  0
   55.7400   24.1870   45.1800 O   0  0  0  0  0  0  0  0  0  0  0  0
   56.6470   25.1220   45.7050 C   0  0  0  0  0  0  0  0  0  0  0  0
   58.0220   24.8500   45.8270 C   0  0  0  0  0  0  0  0  0  0  0  0
   58.8910   25.8100   46.3580 C   0  0  0  0  0  0  0  0  0  0  0  0
   58.4030   27.0600   46.7840 C   0  0  0  0  0  0  0  0  0  0  0  0
   59.3180   28.0830   47.3510 C   0  0  0  0  0  0  0  0  0  0  0  0
   59.9510   29.0450   46.5570 C   0  0  0  0  0  0  0  0  0  0  0  0
   60.8240   30.0520   47.0350 C   0  0  0  0  0  0  0  0  0  0  0  0
   61.2470   30.8600   46.1650 O   0  0  0  0  0  0  0  0  0  0  0  0
   61.2230   30.2140   48.4070 C   0  0  0  0  0  0  0  0  0  0  0  0
   62.1460   31.2300   48.8100 C   0  0  0  0  0  0  0  0  0  0  0  0
   62.8440   32.0430   47.8560 N   0  0  0  0  0  0  0  0  0  0  0  0
   62.3650   33.6750   47.5230 S   0  0  0  0  0  0  0  0  0  0  0  0
   63.2380   34.2320   46.4330 O   0  0  0  0  0  0  0  0  0  0  0  0
   62.5510   34.5100   48.7580 O   0  0  0  0  0  0  0  0  0  0  0  0
   60.6730   33.7090   47.0390 C   0  0  0  0  0  0  0  0  0  0  0  0
   59.6670   33.2630   47.9100 C   0  0  0  0  0  0  0  0  0  0  0  0
   58.3250   33.3140   47.5180 C   0  0  0  0  0  0  0  0  0  0  0  0
   57.9820   33.8080   46.2550 C   0  0  0  0  0  0  0  0  0  0  0  0
   56.6800   33.8580   45.8770 F   0  0  0  0  0  0  0  0  0  0  0  0
   58.9810   34.2540   45.3840 C   0  0  0  0  0  0  0  0  0  0  0  0
   60.3230   34.2050   45.7740 C   0  0  0  0  0  0  0  0  0  0  0  0
   62.4480   31.4060   50.1710 C   0  0  0  0  0  0  0  0  0  0  0  0
   61.8830   30.5880   51.1430 C   0  0  0  0  0  0  0  0  0  0  0  0
   61.0130   29.5710   50.7730 C   0  0  0  0  0  0  0  0  0  0  0  0
   60.6870   29.3840   49.4280 C   0  0  0  0  0  0  0  0  0  0  0  0
   59.6230   28.1460   49.0080 S   0  0  0  0  0  0  0  0  0  0  0  0
   57.0290   27.3290   46.6540 C   0  0  0  0  0  0  0  0  0  0  0  0
   56.1610   26.3690   46.1200 C   0  0  0  0  0  0  0  0  0  0  0  0
   54.8050   26.6580   46.0060 O   0  0  0  0  0  0  0  0  0  0  0  0
   54.7309   23.7919   46.9428 H   0  0  0  0  0  0  0  0  0  0  0  0
   53.7158   24.3589   45.5737 H   0  0  0  0  0  0  0  0  0  0  0  0
   54.3708   22.6863   45.5737 H   0  0  0  0  0  0  0  0  0  0  0  0
   58.4168   23.8759   45.5027 H   0  0  0  0  0  0  0  0  0  0  0  0
   59.9646   25.5859   46.4432 H   0  0  0  0  0  0  0  0  0  0  0  0
   59.7549   29.0169   45.4750 H   0  0  0  0  0  0  0  0  0  0  0  0
   63.6910   31.6680   47.3750 H   0  0  0  0  0  0  0  0  0  0  0  0
   59.9342   32.8725   48.9030 H   0  0  0  0  0  0  0  0  0  0  0  0
   57.5387   32.9653   48.2037 H   0  0  0  0  0  0  0  0  0  0  0  0
   58.7110   34.6436   44.3914 H   0  0  0  0  0  0  0  0  0  0  0  0
   61.1068   34.5564   45.0868 H   0  0  0  0  0  0  0  0  0  0  0  0
   63.1427   32.2039   50.4723 H   0  0  0  0  0  0  0  0  0  0  0  0
   62.1250   30.7464   52.2043 H   0  0  0  0  0  0  0  0  0  0  0  0
   60.5802   28.9120   51.5400 H   0  0  0  0  0  0  0  0  0  0  0  0
   56.6321   28.3034   46.9750 H   0  0  0  0  0  0  0  0  0  0  0  0
  1  2  1  0
  2  3  1  0
  3  4  2  0
  4  5  1  0
  5  6  2  0
  6  7  1  0
  7  8  2  0
  8  9  1  0
  9 10  2  0
  9 11  1  0
 11 12  2  0
 12 13  1  0
 13 14  1  0
 14 15  2  0
 14 16  2  0
 14 17  1  0
 17 18  2  0
 18 19  1  0
 19 20  2  0
 20 21  1  0
 20 22  1  0
 22 23  2  0
 12 24  1  0
 24 25  2  0
 25 26  1  0
 26 27  2  0
 27 28  1  0
  6 29  1  0
 29 30  2  0
 30 31  1  0
 30  3  1  0
 28  7  1  0
 27 11  1  0
 23 17  1  0
  1 32  1  0
  1 33  1  0
  1 34  1  0
  4 35  1  0
  5 36  1  0
  8 37  1  0
 13 38  1  0
 18 39  1  0
 19 40  1  0
 22 41  1  0
 23 42  1  0
 24 43  1  0
 25 44  1  0
 26 45  1  0
 29 46  1  0
M  CHG  1  31  -1
M  END
>  <UniqueID>  (22) 
21

>  <SMILES>  (22) 
COc1ccc(-c2cc(=O)c3c(NS(=O)(=O)c4ccc(F)cc4)cccc3s2)cc1[O-]

>  <Energy>  (22) 
72.712626720483

>  <Genealogy>  (22) 
COc1ccc(-c2cc(=O)c3c(NS(=O)(=O)c4ccc(F)cc4)cccc3s2)cc1[O-] (protonated)
COc1ccc(-c2cc(=O)c3c(NS(=O)(=O)c4ccc(F)cc4)cccc3s2)cc1[O-] (3D coordinates assigned)
COc1ccc(-c2cc(=O)c3c(NS(=O)(=O)c4ccc(F)cc4)cccc3s2)cc1[O-] (optimized conformer: 72.712626720483 kcal/mol)

>  <smiles>  (22) 
COc1ccc(-c2cc(=O)c3c(NS(=O)(=O)c4ccc(F)cc4)cccc3s2)cc1O

>  <score_type>  (22) 
oracle

>  <origin>  (22) 
adg

>  <m_score__min__energy>  (22) 
-12.34

>  <m_primary>  (22) 
energy

$$$$
22:0
     RDKit          3D

 44 46  0  0  1  0  0  0  0  0999 V2000
   57.5010   28.7740   43.5270 N   0  0  0  0  0  0  0  0  0  0  0  0
   56.6360   30.2190   43.8950 S   0  0  0  0  0  0  0  0  0  0  0  0
   56.3170   30.8790   42.5690 O   0  0  0  0  0  0  0  0  0  0  0  0
   55.3070   29.8750   44.5030 O   0  0  0  0  0  0  0  0  0  0  0  0
   57.5390   31.3080   44.8930 C   0  0  0  0  0  0  0  0  0  0  0  0
   57.0200   32.5540   45.2010 C   0  0  0  0  0  0  0  0  0  0  0  0
   57.6660   33.4750   45.9830 C   0  0  0  0  0  0  0  0  0  0  0  0
   58.8940   33.1670   46.4980 C   0  0  0  0  0  0  0  0  0  0  0  0
   59.4330   31.9270   46.2040 C   0  0  0  0  0  0  0  0  0  0  0  0
   59.5800   27.4420   48.3940 N   0  0  0  0  0  0  0  0  0  0  0  0
   60.1510   28.5950   48.5280 C   0  0  0  0  0  0  0  0  0  0  0  0
   61.3760   30.9800   48.9000 C   0  0  0  0  0  0  0  0  0  0  0  0
   61.4040   30.0280   49.9200 C   0  0  0  0  0  0  0  0  0  0  0  0
   60.7880   28.8720   49.6920 N   0  0  0  0  0  0  0  0  0  0  0  0
   60.7320   30.7300   47.6940 C   0  0  0  0  0  0  0  0  0  0  0  0
   60.7280   31.6390   46.7680 N   0  0  0  0  0  0  0  0  0  0  0  0
   59.7750   26.6840   47.1920 C   0  0  0  0  0  0  0  0  0  0  0  0
   58.4110   26.1950   46.7920 C   0  0  0  0  0  0  0  0  0  0  0  0
   58.1300   24.8630   46.8540 C   0  0  0  0  0  0  0  0  0  0  0  0
   56.9030   24.3370   46.5060 C   0  0  0  0  0  0  0  0  0  0  0  0
   55.9190   25.2270   46.0740 C   0  0  0  0  0  0  0  0  0  0  0  0
   56.1620   26.5780   45.9970 C   0  0  0  0  0  0  0  0  0  0  0  0
   57.4210   27.0520   46.3610 C   0  0  0  0  0  0  0  0  0  0  0  0
   57.7090   28.4100   46.2980 O   0  0  0  0  0  0  0  0  0  0  0  0
   60.1450   29.5370   47.5660 N   0  0  0  0  0  0  0  0  0  0  0  0
   58.7750   31.0030   45.4140 C   0  0  0  0  0  0  0  0  0  0  0  0
   59.3560   29.7820   45.1520 O   0  0  0  0  0  0  0  0  0  0  0  0
   57.3150   28.0060   44.1820 H   0  0  0  0  0  0  0  0  0  0  0  0
   58.5070   28.9820   43.3450 H   0  0  0  0  0  0  0  0  0  0  0  0
   56.0329   32.8196   44.7948 H   0  0  0  0  0  0  0  0  0  0  0  0
   57.2022   34.4500   46.1937 H   0  0  0  0  0  0  0  0  0  0  0  0
   59.4387   33.8850   47.1287 H   0  0  0  0  0  0  0  0  0  0  0  0
   61.8741   31.9486   49.0537 H   0  0  0  0  0  0  0  0  0  0  0  0
   61.9149   30.2259   50.8738 H   0  0  0  0  0  0  0  0  0  0  0  0
   60.7940   28.1490   50.4320 H   0  0  0  0  0  0  0  0  0  0  0  0
   60.2008   27.3205   46.4023 H   0  0  0  0  0  0  0  0  0  0  0  0
   60.4751   25.8500   47.3477 H   0  0  0  0  0  0  0  0  0  0  0  0
   58.9174   24.1758   47.1972 H   0  0  0  0  0  0  0  0  0  0  0  0
   56.7077   23.2562   46.5668 H   0  0  0  0  0  0  0  0  0  0  0  0
   54.9294   24.8401   45.7895 H   0  0  0  0  0  0  0  0  0  0  0  0
   55.3788   27.2706   45.6551 H   0  0  0  0  0  0  0  0  0  0  0  0
   57.3090   29.0590   45.6400 H   0  0  0  0  0  0  0  0  0  0  0  0
   59.6610   29.3180   46.6910 H   0  0  0  0  0  0  0  0  0  0  0  0
   58.8560   28.8960   45.2150 H   0  0  0  0  0  0  0  0  0  0  0  0
  1  2  1  0
  2  3  2  0
  2  4  2  0
  2  5  1  0
  5  6  2  0
  6  7  1  0
  7  8  2  0
  8  9  1  0
  9 10  1  0
 10 11  2  0
 11 12  1  0
 12 13  2  0
 13 14  1  0
 14 15  1  0
 15 16  2  0
 16 17  1  0
 17 18  1  0
 18 19  2  0
 19 20  1  0
 20 21  2  0
 21 22  1  0
 22 23  2  0
 23 24  1  0
 15 25  1  0
  9 26  2  0
 26 27  1  0
 26  5  1  0
 25 11  1  0
 23 18  1  0
  1 28  1  0
  1 29  1  0
  6 30  1  0
  7 31  1  0
  8 32  1  0
 12 33  1  0
 13 34  1  0
 14 35  1  0
 17 36  1  0
 17 37  1  0
 19 38  1  0
 20 39  1  0
 21 40  1  0
 22 41  1  0
 24 42  1  0
 25 43  1  0
 27 44  1  0
M  END
>  <smiles>  (23) 
NS(=O)(=O)c1cccc(N=c2cc[nH]c(=NCc3ccccc3O)[nH]2)c1O

>  <score_type>  (23) 
oracle

>  <origin>  (23) 
adg

>  <m_score__min__energy>  (23) 
-9

>  <m_primary>  (23) 
energy

$$$$
23:0
     RDKit          3D

 53 56  0  0  0  0  0  0  0  0999 V2000
   63.6590   31.2970   49.9190 C   0  0  0  0  0  0  0  0  0  0  0  0
   63.7030   32.8040   49.6180 C   0  0  0  0  0  0  0  0  0  0  0  0
   64.0590   33.0570   48.1360 C   0  0  0  0  0  0  0  0  0  0  0  0
   62.8510   32.8700   47.2070 C   0  0  0  0  0  0  0  0  0  0  0  0
   61.6610   33.5640   47.7210 N   0  0  0  0  0  0  0  0  0  0  0  0
   60.4400   33.5080   46.9630 C   0  0  0  0  0  0  0  0  0  0  0  0
   59.7830   34.6940   46.5440 C   0  0  0  0  0  0  0  0  0  0  0  0
   58.5750   34.6150   45.8300 C   0  0  0  0  0  0  0  0  0  0  0  0
   58.0780   33.3450   45.5750 C   0  0  0  0  0  0  0  0  0  0  0  0
   56.9590   33.0130   44.9030 N   0  0  0  0  0  0  0  0  0  0  0  0
   56.9110   31.6800   44.9030 N   0  0  0  0  0  0  0  0  0  0  0  0
   57.9920   31.2320   45.5850 C   0  0  0  0  0  0  0  0  0  0  0  0
   58.3730   29.7910   45.7300 C   0  0  0  0  0  0  0  0  0  0  0  0
   57.6480   28.9440   44.6760 C   0  0  0  0  0  0  0  0  0  0  0  0
   56.2610   28.5780   45.1350 C   0  0  0  0  0  0  0  0  0  0  0  0
   55.3000   29.3360   44.8390 O   0  0  0  0  0  0  0  0  0  0  0  0
   55.9770   27.3300   45.7840 N   0  0  0  0  0  0  0  0  0  0  0  0
   56.7310   26.1120   45.6870 C   0  0  0  0  0  0  0  0  0  0  0  0
   56.2550   25.0040   44.9670 C   0  0  0  0  0  0  0  0  0  0  0  0
   57.0340   23.8450   44.8580 C   0  0  0  0  0  0  0  0  0  0  0  0
   58.3060   23.7800   45.4530 C   0  0  0  0  0  0  0  0  0  0  0  0
   59.1350   22.5560   45.3290 C   0  0  0  0  0  0  0  0  0  0  0  0
   60.5590   22.6490   45.3310 N   0  0  0  0  0  0  0  0  0  0  0  0
   58.5910   21.4210   45.2180 O   0  0  0  0  0  0  0  0  0  0  0  0
   58.7860   24.9040   46.1520 C   0  0  0  0  0  0  0  0  0  0  0  0
   58.0080   26.0610   46.2560 C   0  0  0  0  0  0  0  0  0  0  0  0
   58.7320   32.2670   46.0000 N   0  0  0  0  0  0  0  0  0  0  0  0
   59.8760   32.2970   46.6780 N   0  0  0  0  0  0  0  0  0  0  0  0
   61.7470   34.3500   48.9570 C   0  0  0  0  0  0  0  0  0  0  0  0
   62.3820   33.5010   50.0630 C   0  0  0  0  0  0  0  0  0  0  0  0
   63.6544   31.1405   51.0078 H   0  0  0  0  0  0  0  0  0  0  0  0
   62.7478   30.8623   49.4823 H   0  0  0  0  0  0  0  0  0  0  0  0
   64.5433   30.8099   49.4823 H   0  0  0  0  0  0  0  0  0  0  0  0
   64.5064   33.2634   50.2125 H   0  0  0  0  0  0  0  0  0  0  0  0
   64.4292   34.0876   48.0320 H   0  0  0  0  0  0  0  0  0  0  0  0
   64.8252   32.3238   47.8438 H   0  0  0  0  0  0  0  0  0  0  0  0
   63.0984   33.2733   46.2139 H   0  0  0  0  0  0  0  0  0  0  0  0
   62.6245   31.7951   47.1489 H   0  0  0  0  0  0  0  0  0  0  0  0
   60.2196   35.6761   46.7783 H   0  0  0  0  0  0  0  0  0  0  0  0
   58.0479   35.5183   45.4891 H   0  0  0  0  0  0  0  0  0  0  0  0
   59.4598   29.6869   45.5954 H   0  0  0  0  0  0  0  0  0  0  0  0
   58.0843   29.4419   46.7324 H   0  0  0  0  0  0  0  0  0  0  0  0
   57.5770   29.5182   43.7404 H   0  0  0  0  0  0  0  0  0  0  0  0
   58.2198   28.0176   44.5186 H   0  0  0  0  0  0  0  0  0  0  0  0
   55.2663   25.0466   44.4867 H   0  0  0  0  0  0  0  0  0  0  0  0
   56.6471   22.9782   44.3021 H   0  0  0  0  0  0  0  0  0  0  0  0
   61.1370   22.0580   45.9710 H   0  0  0  0  0  0  0  0  0  0  0  0
   59.7810   24.8716   46.6200 H   0  0  0  0  0  0  0  0  0  0  0  0
   58.4031   26.9381   46.7894 H   0  0  0  0  0  0  0  0  0  0  0  0
   62.3647   35.2429   48.7807 H   0  0  0  0  0  0  0  0  0  0  0  0
   60.7367   34.6562   49.2662 H   0  0  0  0  0  0  0  0  0  0  0  0
   62.6022   34.1526   50.9214 H   0  0  0  0  0  0  0  0  0  0  0  0
   61.6641   32.7083   50.3204 H   0  0  0  0  0  0  0  0  0  0  0  0
  1  2  1  0
  2  3  1  0
  3  4  1  0
  4  5  1  0
  5  6  1  0
  6  7  1  0
  7  8  2  0
  8  9  1  0
  9 10  2  0
 10 11  1  0
 11 12  2  0
 12 13  1  0
 13 14  1  0
 14 15  1  0
 15 16  2  0
 15 17  1  0
 17 18  1  0
 18 19  2  0
 19 20  1  0
 20 21  2  0
 21 22  1  0
 22 23  1  0
 22 24  2  0
 21 25  1  0
 25 26  2  0
 12 27  1  0
 27 28  1  0
  5 29  1  0
 29 30  1  0
 30  2  1  0
 28  6  2  0
 27  9  1  0
 26 18  1  0
  1 31  1  0
  1 32  1  0
  1 33  1  0
  2 34  1  0
  3 35  1  0
  3 36  1  0
  4 37  1  0
  4 38  1  0
  7 39  1  0
  8 40  1  0
 13 41  1  0
 13 42  1  0
 14 43  1  0
 14 44  1  0
 19 45  1  0
 20 46  1  0
 23 47  1  0
 25 48  1  0
 26 49  1  0
 29 50  1  0
 29 51  1  0
 30 52  1  0
 30 53  1  0
M  CHG  2  17  -1  23  -1
M  END
>  <UniqueID>  (24) 
22

>  <SMILES>  (24) 
CC1CCN(c2ccc3nnc(CCC(=O)[N-]c4ccc(C([NH-])=O)cc4)n3n2)CC1

>  <Energy>  (24) 
101.45932761682886

>  <Genealogy>  (24) 
CC1CCN(c2ccc3nnc(CCC(=O)[N-]c4ccc(C([NH-])=O)cc4)n3n2)CC1 (protonated)
CC1CCN(c2ccc3nnc(CCC(=O)[N-]c4ccc(C([NH-])=O)cc4)n3n2)CC1 (3D coordinates assigned)
CC1CCN(c2ccc3nnc(CCC(=O)[N-]c4ccc(C([NH-])=O)cc4)n3n2)CC1 (nonaromatic ring conformer: 101.45932761682886 kcal/mol)

>  <smiles>  (24) 
CC1CCN(c2ccc3nnc(CCC(=O)Nc4ccc(C(N)=O)cc4)n3n2)CC1

>  <score_type>  (24) 
oracle

>  <origin>  (24) 
adg

>  <m_score__min__energy>  (24) 
-12.630000000000001

>  <m_primary>  (24) 
energy

$$$$
24:0
     RDKit          3D

 49 52  0  0  1  0  0  0  0  0999 V2000
   57.6370   25.1480   44.6210 C   0  0  0  0  0  0  0  0  0  0  0  0
   57.8900   25.7550   45.8860 O   0  0  0  0  0  0  0  0  0  0  0  0
   58.0100   27.1370   45.9510 C   0  0  0  0  0  0  0  0  0  0  0  0
   57.3670   27.9580   45.0510 C   0  0  0  0  0  0  0  0  0  0  0  0
   57.4810   29.3340   45.1100 C   0  0  0  0  0  0  0  0  0  0  0  0
   58.2540   29.9030   46.0870 C   0  0  0  0  0  0  0  0  0  0  0  0
   58.9060   29.1020   46.9970 C   0  0  0  0  0  0  0  0  0  0  0  0
   58.7890   27.7060   46.9370 C   0  0  0  0  0  0  0  0  0  0  0  0
   59.4450   26.8920   47.8540 O   0  0  0  0  0  0  0  0  0  0  0  0
   60.4070   27.4430   48.7320 C   0  0  0  0  0  0  0  0  0  0  0  0
   58.3750   31.3530   46.1480 C   0  0  0  0  0  0  0  0  0  0  0  0
   59.1390   31.9420   47.1150 C   0  0  0  0  0  0  0  0  0  0  0  0
   59.2400   33.3340   47.1540 C   0  0  0  0  0  0  0  0  0  0  0  0
   59.9460   33.9490   48.0410 N   0  0  0  0  0  0  0  0  0  0  0  0
   61.3600   33.7870   47.9570 C   0  0  0  0  0  0  0  0  0  0  0  0
   62.0440   33.8110   46.7520 C   0  0  0  0  0  0  0  0  0  0  0  0
   63.4190   33.6510   46.6860 C   0  0  0  0  0  0  0  0  0  0  0  0
   64.1320   33.4620   47.8630 C   0  0  0  0  0  0  0  0  0  0  0  0
   63.4570   33.4370   49.0830 C   0  0  0  0  0  0  0  0  0  0  0  0
   64.3620   33.1940   50.6070 S   0  0  0  0  0  0  0  0  0  0  0  0
   66.0640   32.6990   50.3530 C   0  0  0  0  0  0  0  0  0  0  0  0
   62.0990   33.5960   49.1300 C   0  0  0  0  0  0  0  0  0  0  0  0
   58.5920   34.0570   46.2550 N   0  0  0  0  0  0  0  0  0  0  0  0
   57.8410   33.4720   45.3060 C   0  0  0  0  0  0  0  0  0  0  0  0
   57.2530   34.1980   44.4840 O   0  0  0  0  0  0  0  0  0  0  0  0
   57.7270   32.1120   45.2470 N   0  0  0  0  0  0  0  0  0  0  0  0
   56.8990   31.5930   44.1930 C   0  0  0  0  0  0  0  0  0  0  0  0
   56.7640   30.1280   44.1140 C   0  0  0  0  0  0  0  0  0  0  0  0
   57.2179   24.1425   44.7740 H   0  0  0  0  0  0  0  0  0  0  0  0
   56.9199   25.7621   44.0565 H   0  0  0  0  0  0  0  0  0  0  0  0
   58.5780   25.0710   44.0565 H   0  0  0  0  0  0  0  0  0  0  0  0
   56.7458   27.5060   44.2638 H   0  0  0  0  0  0  0  0  0  0  0  0
   59.5260   29.5624   47.7804 H   0  0  0  0  0  0  0  0  0  0  0  0
   60.0977   27.2658   49.7726 H   0  0  0  0  0  0  0  0  0  0  0  0
   61.3822   26.9665   48.5531 H   0  0  0  0  0  0  0  0  0  0  0  0
   60.4894   28.5252   48.5531 H   0  0  0  0  0  0  0  0  0  0  0  0
   59.6695   31.3257   47.8558 H   0  0  0  0  0  0  0  0  0  0  0  0
   61.4788   33.9615   45.8204 H   0  0  0  0  0  0  0  0  0  0  0  0
   63.9378   33.6733   45.7163 H   0  0  0  0  0  0  0  0  0  0  0  0
   65.2240   33.3327   47.8329 H   0  0  0  0  0  0  0  0  0  0  0  0
   66.5538   32.5566   51.3276 H   0  0  0  0  0  0  0  0  0  0  0  0
   66.0911   31.7558   49.7877 H   0  0  0  0  0  0  0  0  0  0  0  0
   66.5927   33.4806   49.7877 H   0  0  0  0  0  0  0  0  0  0  0  0
   61.5821   33.5735   50.1007 H   0  0  0  0  0  0  0  0  0  0  0  0
   58.6650   35.0990   46.2810 H   0  0  0  0  0  0  0  0  0  0  0  0
   55.8910   32.0134   44.3242 H   0  0  0  0  0  0  0  0  0  0  0  0
   57.4032   31.8861   43.2603 H   0  0  0  0  0  0  0  0  0  0  0  0
   55.6944   29.8892   44.2087 H   0  0  0  0  0  0  0  0  0  0  0  0
   57.2212   29.8538   43.1518 H   0  0  0  0  0  0  0  0  0  0  0  0
  1  2  1  0
  2  3  1  0
  3  4  2  0
  4  5  1  0
  5  6  2  0
  6  7  1  0
  7  8  2  0
  8  9  1  0
  9 10  1  0
  6 11  1  0
 11 12  2  0
 12 13  1  0
 13 14  2  0
 14 15  1  0
 15 16  2  0
 16 17  1  0
 17 18  2  0
 18 19  1  0
 19 20  1  0
 20 21  1  0
 19 22  2  0
 13 23  1  0
 23 24  1  0
 24 25  2  0
 24 26  1  0
 26 27  1  0
 27 28  1  0
  8  3  1  0
 26 11  1  0
 28  5  1  0
 22 15  1  0
  1 29  1  0
  1 30  1  0
  1 31  1  0
  4 32  1  0
  7 33  1  0
 10 34  1  0
 10 35  1  0
 10 36  1  0
 12 37  1  0
 16 38  1  0
 17 39  1  0
 18 40  1  0
 21 41  1  0
 21 42  1  0
 21 43  1  0
 22 44  1  0
 23 45  1  0
 27 46  1  0
 27 47  1  0
 28 48  1  0
 28 49  1  0
M  END
>  <smiles>  (25) 
COc1cc2c(cc1OC)-c1cc(=Nc3cccc(SC)c3)[nH]c(=O)n1CC2

>  <score_type>  (25) 
oracle

>  <origin>  (25) 
adg

>  <m_score__min__energy>  (25) 
-8.1400000000000006

>  <m_primary>  (25) 
energy

$$$$
25:0
     RDKit          3D

 51 53  0  0  0  0  0  0  0  0999 V2000
   59.3010   35.3980   45.0570 C   0  0  0  0  0  0  0  0  0  0  0  0
   59.3450   34.2800   45.9380 O   0  0  0  0  0  0  0  0  0  0  0  0
   58.7640   33.0300   45.6670 C   0  0  0  0  0  0  0  0  0  0  0  0
   57.6140   32.8990   44.8650 C   0  0  0  0  0  0  0  0  0  0  0  0
   57.0640   31.6400   44.6130 C   0  0  0  0  0  0  0  0  0  0  0  0
   57.6520   30.4850   45.1510 C   0  0  0  0  0  0  0  0  0  0  0  0
   57.0820   29.1390   44.8980 C   0  0  0  0  0  0  0  0  0  0  0  0
   55.8250   29.0190   44.8360 O   0  0  0  0  0  0  0  0  0  0  0  0
   57.9260   27.9600   44.8400 N   0  0  2  0  0  0  0  0  0  0  0  0
   57.7950   27.2640   43.5450 C   0  0  0  0  0  0  0  0  0  0  0  0
   57.6770   27.0640   45.9940 C   0  0  0  0  0  0  0  0  0  0  0  0
   56.4280   26.2290   45.8580 C   0  0  0  0  0  0  0  0  0  0  0  0
   56.3780   24.8860   45.5460 C   0  0  0  0  0  0  0  0  0  0  0  0
   55.0280   24.6080   45.5200 C   0  0  0  0  0  0  0  0  0  0  0  0
   54.4120   23.2980   45.1570 C   0  0  0  0  0  0  0  0  0  0  0  0
   54.3220   25.7260   45.7840 N   0  0  0  0  0  0  0  0  0  0  0  0
   55.1780   26.7160   45.9960 N   0  0  0  0  0  0  0  0  0  0  0  0
   58.7890   30.6140   45.9650 C   0  0  0  0  0  0  0  0  0  0  0  0
   59.3450   31.8750   46.2180 C   0  0  0  0  0  0  0  0  0  0  0  0
   60.5200   31.9740   47.0460 C   0  0  0  0  0  0  0  0  0  0  0  0
   61.5020   32.0550   47.7410 C   0  0  0  0  0  0  0  0  0  0  0  0
   62.6720   32.1510   48.5720 C   0  0  0  0  0  0  0  0  0  0  0  0
   62.7650   31.3890   49.7440 C   0  0  0  0  0  0  0  0  0  0  0  0
   63.9030   31.4830   50.5530 C   0  0  0  0  0  0  0  0  0  0  0  0
   64.9500   32.3490   50.2030 C   0  0  0  0  0  0  0  0  0  0  0  0
   66.1850   32.4220   51.0500 C   0  0  0  0  0  0  0  0  0  0  0  0
   64.8610   33.0970   49.0180 C   0  0  0  0  0  0  0  0  0  0  0  0
   63.7240   33.0020   48.2100 C   0  0  0  0  0  0  0  0  0  0  0  0
   59.2644   36.3269   45.6450 H   0  0  0  0  0  0  0  0  0  0  0  0
   60.1997   35.4006   44.4228 H   0  0  0  0  0  0  0  0  0  0  0  0
   58.4048   35.3300   44.4228 H   0  0  0  0  0  0  0  0  0  0  0  0
   57.1449   33.7955   44.4334 H   0  0  0  0  0  0  0  0  0  0  0  0
   56.1630   31.5532   43.9880 H   0  0  0  0  0  0  0  0  0  0  0  0
   58.9280   28.2500   44.9090 H   0  0  0  0  0  0  0  0  0  0  0  0
   57.5941   26.1969   43.7209 H   0  0  0  0  0  0  0  0  0  0  0  0
   56.9640   27.7043   42.9745 H   0  0  0  0  0  0  0  0  0  0  0  0
   58.7293   27.3721   42.9745 H   0  0  0  0  0  0  0  0  0  0  0  0
   58.5373   26.3866   46.0991 H   0  0  0  0  0  0  0  0  0  0  0  0
   57.5378   27.7076   46.8752 H   0  0  0  0  0  0  0  0  0  0  0  0
   57.2172   24.1992   45.3615 H   0  0  0  0  0  0  0  0  0  0  0  0
   54.1533   22.7479   46.0738 H   0  0  0  0  0  0  0  0  0  0  0  0
   53.5016   23.4725   44.5648 H   0  0  0  0  0  0  0  0  0  0  0  0
   55.1271   22.7081   44.5648 H   0  0  0  0  0  0  0  0  0  0  0  0
   59.2471   29.7173   46.4078 H   0  0  0  0  0  0  0  0  0  0  0  0
   61.9426   30.7161   50.0286 H   0  0  0  0  0  0  0  0  0  0  0  0
   63.9770   30.8755   51.4670 H   0  0  0  0  0  0  0  0  0  0  0  0
   65.9022   32.4053   52.1129 H   0  0  0  0  0  0  0  0  0  0  0  0
   66.8324   31.5606   50.8293 H   0  0  0  0  0  0  0  0  0  0  0  0
   66.7265   33.3537   50.8293 H   0  0  0  0  0  0  0  0  0  0  0  0
   65.6884   33.7598   48.7245 H   0  0  0  0  0  0  0  0  0  0  0  0
   63.6554   33.5972   47.2875 H   0  0  0  0  0  0  0  0  0  0  0  0
  1  2  1  0
  2  3  1  0
  3  4  2  0
  4  5  1  0
  5  6  2  0
  6  7  1  0
  7  8  2  0
  7  9  1  0
  9 10  1  0
  9 11  1  0
 11 12  1  0
 12 13  2  0
 13 14  1  0
 14 15  1  0
 14 16  2  0
 16 17  1  0
  6 18  1  0
 18 19  2  0
 19 20  1  0
 20 21  3  0
 21 22  1  0
 22 23  2  0
 23 24  1  0
 24 25  2  0
 25 26  1  0
 25 27  1  0
 27 28  2  0
 19  3  1  0
 28 22  1  0
 17 12  1  0
  1 29  1  0
  1 30  1  0
  1 31  1  0
  4 32  1  0
  5 33  1  0
  9 34  1  1
 10 35  1  0
 10 36  1  0
 10 37  1  0
 11 38  1  0
 11 39  1  0
 13 40  1  0
 15 41  1  0
 15 42  1  0
 15 43  1  0
 18 44  1  0
 23 45  1  0
 24 46  1  0
 26 47  1  0
 26 48  1  0
 26 49  1  0
 27 50  1  0
 28 51  1  0
M  CHG  2   9   1  17  -1
M  END
>  <UniqueID>  (26) 
23

>  <SMILES>  (26) 
COc1ccc(C(=O)[N@H+](C)Cc2cc(C)n[n-]2)cc1C#Cc1ccc(C)cc1

>  <Energy>  (26) 
83.47888190222862

>  <Genealogy>  (26) 
COc1ccc(C(=O)[NH+](C)Cc2cc(C)n[n-]2)cc1C#Cc1ccc(C)cc1 (protonated)
COc1ccc(C(=O)[N@H+](C)Cc2cc(C)n[n-]2)cc1C#Cc1ccc(C)cc1 (chirality)
COc1ccc(C(=O)[N@H+](C)Cc2cc(C)n[n-]2)cc1C#Cc1ccc(C)cc1 (3D coordinates assigned)
COc1ccc(C(=O)[N@H+](C)Cc2cc(C)n[n-]2)cc1C#Cc1ccc(C)cc1 (optimized conformer: 83.47888190222862 kcal/mol)

>  <smiles>  (26) 
COc1ccc(C(=O)N(C)Cc2cc(C)n[nH]2)cc1C#Cc1ccc(C)cc1

>  <score_type>  (26) 
oracle

>  <origin>  (26) 
adg

>  <m_score__min__energy>  (26) 
-9.9399999999999995

>  <m_primary>  (26) 
energy

$$$$
26:0
     RDKit          3D

 25 25  0  0  0  0  0  0  0  0999 V2000
   56.6472   21.3672   43.4711 H   0  0  0  0  0  0  0  0  0  0  0  0
   56.9710   22.3650   43.8020 C   0  0  0  0  0  0  0  0  0  0  0  0
   57.7580   22.4990   44.9490 C   0  0  0  0  0  0  0  0  0  0  0  0
   58.0499   21.6064   45.5217 H   0  0  0  0  0  0  0  0  0  0  0  0
   58.1750   23.7650   45.3700 C   0  0  0  0  0  0  0  0  0  0  0  0
   58.7902   23.8667   46.2762 H   0  0  0  0  0  0  0  0  0  0  0  0
   57.8100   24.9090   44.6380 C   0  0  0  0  0  0  0  0  0  0  0  0
   58.2240   26.2760   45.1090 C   0  0  0  0  0  0  0  0  0  0  0  0
   58.5782   26.8643   44.2497 H   0  0  0  0  0  0  0  0  0  0  0  0
   59.0296   26.1709   45.8506 H   0  0  0  0  0  0  0  0  0  0  0  0
   57.0600   26.9810   45.7470 C   0  0  0  0  0  0  0  0  0  0  0  0
   57.0020   28.2810   45.6440 N   0  0  0  0  0  0  0  0  0  0  0  0
   56.3170   29.0570   44.6510 C   0  0  0  0  0  0  0  0  0  0  0  0
   55.1680   29.5270   44.8730 O   0  0  0  0  0  0  0  0  0  0  0  0
   57.0340   29.4390   43.4010 C   0  0  0  0  0  0  0  0  0  0  0  0
   57.9778   29.9418   43.6587 H   0  0  0  0  0  0  0  0  0  0  0  0
   57.2489   28.5359   42.8110 H   0  0  0  0  0  0  0  0  0  0  0  0
   56.4043   30.1212   42.8110 H   0  0  0  0  0  0  0  0  0  0  0  0
   55.9690   26.1700   46.3380 C   0  0  0  0  0  0  0  0  0  0  0  0
   56.2390   25.2640   47.1700 O   0  0  0  0  0  0  0  0  0  0  0  0
   54.6530   26.3390   45.9270 O   0  0  0  0  0  0  0  0  0  0  0  0
   57.0080   24.7670   43.4930 C   0  0  0  0  0  0  0  0  0  0  0  0
   56.7038   25.6574   42.9232 H   0  0  0  0  0  0  0  0  0  0  0  0
   56.5950   23.4980   43.0750 C   0  0  0  0  0  0  0  0  0  0  0  0
   55.9738   23.3914   42.1735 H   0  0  0  0  0  0  0  0  0  0  0  0
  1  2  1  0
  2  3  2  0
  3  4  1  0
  3  5  1  0
  5  6  1  0
  5  7  2  0
  7  8  1  0
  8  9  1  0
  8 10  1  0
  8 11  1  0
 11 12  2  0
 12 13  1  0
 13 14  2  0
 13 15  1  0
 15 16  1  0
 15 17  1  0
 15 18  1  0
 11 19  1  0
 19 20  2  0
 19 21  1  0
  7 22  1  0
 22 23  1  0
 22 24  2  0
 24 25  1  0
 24  2  1  0
M  CHG  1  21  -1
M  END
>  <UniqueID>  (27) 
24

>  <SMILES>  (27) 
CC(=O)/N=C(/Cc1ccccc1)C(=O)[O-]

>  <Energy>  (27) 
27.538414219585995

>  <Genealogy>  (27) 
CC(=O)N=C(Cc1ccccc1)C(=O)[O-] (protonated)
CC(=O)/N=C(/Cc1ccccc1)C(=O)[O-] (cis-trans isomerization)
CC(=O)/N=C(/Cc1ccccc1)C(=O)[O-] (3D coordinates assigned)
CC(=O)/N=C(/Cc1ccccc1)C(=O)[O-] (optimized conformer: 27.538414219585995 kcal/mol)

>  <smiles>  (27) 
CC(=O)N=C(Cc1ccccc1)C(=O)O

>  <score_type>  (27) 
oracle

>  <origin>  (27) 
adg

>  <m_score__min__energy>  (27) 
-8.6300000000000008

>  <m_primary>  (27) 
energy

$$$$
27:0
     RDKit          3D

 33 35  0  0  0  0  0  0  0  0999 V2000
   56.5110   25.0130   47.5720 H   0  0  0  0  0  0  0  0  0  0  0  0
   56.1080   25.6920   46.8880 N   0  0  0  0  0  0  0  0  0  0  0  0
   56.7780   26.7020   46.4280 C   0  0  0  0  0  0  0  0  0  0  0  0
   58.1810   26.9210   46.8320 C   0  0  0  0  0  0  0  0  0  0  0  0
   58.8730   26.1400   47.6790 N   0  0  0  0  0  0  0  0  0  0  0  0
   60.0830   26.7380   47.7560 C   0  0  0  0  0  0  0  0  0  0  0  0
   60.9053   26.3501   48.3751 H   0  0  0  0  0  0  0  0  0  0  0  0
   60.1910   27.8550   47.0040 N   0  0  0  0  0  0  0  0  0  0  0  0
   58.9830   27.9580   46.4240 C   0  0  0  0  0  0  0  0  0  0  0  0
   58.5960   28.9990   45.5160 N   0  0  0  0  0  0  0  0  0  0  0  0
   59.4930   30.1110   45.1830 C   0  0  0  0  0  0  0  0  0  0  0  0
   60.4075   30.0317   45.7891 H   0  0  0  0  0  0  0  0  0  0  0  0
   59.7402   30.0587   44.1124 H   0  0  0  0  0  0  0  0  0  0  0  0
   58.8250   31.4350   45.4640 C   0  0  0  0  0  0  0  0  0  0  0  0
   58.7100   31.8870   46.7900 C   0  0  0  0  0  0  0  0  0  0  0  0
   59.1270   31.2849   47.6107 H   0  0  0  0  0  0  0  0  0  0  0  0
   58.0700   33.0950   47.0720 C   0  0  0  0  0  0  0  0  0  0  0  0
   57.9852   33.4422   48.1123 H   0  0  0  0  0  0  0  0  0  0  0  0
   57.5380   33.8620   46.0360 C   0  0  0  0  0  0  0  0  0  0  0  0
   57.0359   34.8146   46.2607 H   0  0  0  0  0  0  0  0  0  0  0  0
   57.6410   33.4240   44.7140 C   0  0  0  0  0  0  0  0  0  0  0  0
   57.2178   34.0332   43.9018 H   0  0  0  0  0  0  0  0  0  0  0  0
   58.2840   32.2060   44.4140 C   0  0  0  0  0  0  0  0  0  0  0  0
   58.4000   31.7370   43.0960 O   0  0  0  0  0  0  0  0  0  0  0  0
   57.4940   32.0460   42.0430 C   0  0  0  0  0  0  0  0  0  0  0  0
   56.5342   32.3733   42.4693 H   0  0  0  0  0  0  0  0  0  0  0  0
   57.9136   32.8518   41.4229 H   0  0  0  0  0  0  0  0  0  0  0  0
   57.3338   31.1517   41.4229 H   0  0  0  0  0  0  0  0  0  0  0  0
   57.0010   28.9440   44.8340 S   0  0  0  0  0  0  0  0  0  0  0  0
   57.0910   28.7500   43.3460 O   0  0  0  0  0  0  0  0  0  0  0  0
   56.2750   30.2220   45.1460 O   0  0  0  0  0  0  0  0  0  0  0  0
   56.1390   27.6130   45.5270 N   0  0  0  0  0  0  0  0  0  0  0  0
   55.1410   27.4660   45.2590 H   0  0  0  0  0  0  0  0  0  0  0  0
  1  2  1  0
  2  3  2  0
  3  4  1  0
  4  5  1  0
  5  6  1  0
  6  7  1  0
  6  8  2  0
  8  9  1  0
  9 10  1  0
 10 11  1  0
 11 12  1  0
 11 13  1  0
 11 14  1  0
 14 15  2  0
 15 16  1  0
 15 17  1  0
 17 18  1  0
 17 19  2  0
 19 20  1  0
 19 21  1  0
 21 22  1  0
 21 23  2  0
 23 24  1  0
 24 25  1  0
 25 26  1  0
 25 27  1  0
 25 28  1  0
 10 29  1  0
 29 30  2  0
 29 31  2  0
 29 32  1  0
 32 33  1  0
 32  3  1  0
  9  4  2  0
 23 14  1  0
M  CHG  1   5  -1
M  END
>  <UniqueID>  (28) 
25

>  <SMILES>  (28) 
[H]/N=C1/NS(=O)(=O)N(Cc2ccccc2OC)c2nc[n-]c21

>  <Energy>  (28) 
64.11898706912365

>  <Genealogy>  (28) 
COc1ccccc1CN1c2nc[n-]c2C(=N)NS1(=O)=O (protonated)
[H]/N=C1/NS(=O)(=O)N(Cc2ccccc2OC)c2nc[n-]c21 (cis-trans isomerization)
[H]/N=C1/NS(=O)(=O)N(Cc2ccccc2OC)c2nc[n-]c21 (3D coordinates assigned)
[H]/N=C1/NS(=O)(=O)N(Cc2ccccc2OC)c2nc[n-]c21 (nonaromatic ring conformer: 64.11898706912365 kcal/mol)

>  <smiles>  (28) 
COc1ccccc1CN1c2nc[nH]c2C(=N)NS1(=O)=O

>  <score_type>  (28) 
oracle

>  <origin>  (28) 
adg

>  <m_score__min__energy>  (28) 
-8.2599999999999998

>  <m_primary>  (28) 
energy

$$$$
28:0
     RDKit          3D

 25 26  0  0  0  0  0  0  0  0999 V2000
   57.4750   31.9160   42.3310 C   0  0  0  0  0  0  0  0  0  0  0  0
   58.4390   32.7220   43.0000 O   0  0  0  0  0  0  0  0  0  0  0  0
   58.4460   32.9790   44.3800 C   0  0  0  0  0  0  0  0  0  0  0  0
   58.2890   34.2830   44.8920 C   0  0  0  0  0  0  0  0  0  0  0  0
   58.3490   34.5140   46.2690 C   0  0  0  0  0  0  0  0  0  0  0  0
   58.5710   33.4530   47.1470 C   0  0  0  0  0  0  0  0  0  0  0  0
   58.7200   32.1560   46.6530 C   0  0  0  0  0  0  0  0  0  0  0  0
   58.6380   31.9050   45.2780 C   0  0  0  0  0  0  0  0  0  0  0  0
   58.7890   30.5830   44.8350 O   0  0  0  0  0  0  0  0  0  0  0  0
   57.9120   29.5250   45.1220 C   0  0  0  0  0  0  0  0  0  0  0  0
   58.4320   28.3390   45.6450 C   0  0  0  0  0  0  0  0  0  0  0  0
   57.6070   27.2980   45.9290 N   0  0  0  0  0  0  0  0  0  0  0  0
   56.2680   27.3920   45.7240 C   0  0  0  0  0  0  0  0  0  0  0  0
   55.5210   26.4150   45.9890 O   0  0  0  0  0  0  0  0  0  0  0  0
   55.7330   28.5430   45.2400 N   0  0  0  0  0  0  0  0  0  0  0  0
   56.5190   29.6120   44.9430 C   0  0  0  0  0  0  0  0  0  0  0  0
   55.9850   30.6740   44.5300 O   0  0  0  0  0  0  0  0  0  0  0  0
   56.8528   31.3958   43.0741 H   0  0  0  0  0  0  0  0  0  0  0  0
   56.8375   32.5537   41.7010 H   0  0  0  0  0  0  0  0  0  0  0  0
   57.9898   31.1757   41.7010 H   0  0  0  0  0  0  0  0  0  0  0  0
   58.1182   35.1238   44.2035 H   0  0  0  0  0  0  0  0  0  0  0  0
   58.2210   35.5338   46.6610 H   0  0  0  0  0  0  0  0  0  0  0  0
   58.6287   33.6386   48.2297 H   0  0  0  0  0  0  0  0  0  0  0  0
   58.9033   31.3245   47.3495 H   0  0  0  0  0  0  0  0  0  0  0  0
   59.5129   28.2477   45.8275 H   0  0  0  0  0  0  0  0  0  0  0  0
  1  2  1  0
  2  3  1  0
  3  4  2  0
  4  5  1  0
  5  6  2  0
  6  7  1  0
  7  8  2  0
  8  9  1  0
  9 10  1  0
 10 11  2  0
 11 12  1  0
 12 13  1  0
 13 14  2  0
 13 15  1  0
 15 16  1  0
 16 17  2  0
  8  3  1  0
 16 10  1  0
  1 18  1  0
  1 19  1  0
  1 20  1  0
  4 21  1  0
  5 22  1  0
  6 23  1  0
  7 24  1  0
 11 25  1  0
M  CHG  2  12  -1  15  -1
M  END
>  <UniqueID>  (29) 
26

>  <SMILES>  (29) 
COc1ccccc1Oc1c[n-]c(=O)[n-]c1=O

>  <Energy>  (29) 
35.52523768891348

>  <Genealogy>  (29) 
COc1ccccc1Oc1c[n-]c(=O)[n-]c1=O (protonated)
COc1ccccc1Oc1c[n-]c(=O)[n-]c1=O (3D coordinates assigned)
COc1ccccc1Oc1c[n-]c(=O)[n-]c1=O (optimized conformer: 35.52523768891348 kcal/mol)

>  <smiles>  (29) 
COc1ccccc1Oc1c[nH]c(=O)[nH]c1=O

>  <score_type>  (29) 
oracle

>  <origin>  (29) 
adg

>  <m_score__min__energy>  (29) 
-10.66

>  <m_primary>  (29) 
energy

$$$$
29:0
     RDKit          3D

 49 51  0  0  0  0  0  0  0  0999 V2000
   54.3560   28.7340   44.4810 H   0  0  0  0  0  0  0  0  0  0  0  0
   55.1520   29.2720   44.7990 O   0  0  0  0  0  0  0  0  0  0  0  0
   56.3290   28.6530   45.2170 C   0  0  0  0  0  0  0  0  0  0  0  0
   57.5580   29.3230   45.1220 C   0  0  0  0  0  0  0  0  0  0  0  0
   57.5920   30.3519   44.7344 H   0  0  0  0  0  0  0  0  0  0  0  0
   58.7440   28.6870   45.5190 C   0  0  0  0  0  0  0  0  0  0  0  0
   60.0190   29.4300   45.4570 C   0  0  0  0  0  0  0  0  0  0  0  0
   60.3750   29.7380   44.4628 H   0  0  0  0  0  0  0  0  0  0  0  0
   60.7800   29.7610   46.5130 C   0  0  0  0  0  0  0  0  0  0  0  0
   61.8596   29.5659   46.4337 H   0  0  0  0  0  0  0  0  0  0  0  0
   60.2930   30.3670   47.7780 C   0  0  0  0  0  0  0  0  0  0  0  0
   60.9150   30.1920   48.8590 O   0  0  0  0  0  0  0  0  0  0  0  0
   59.0920   31.1490   47.8060 N   0  0  0  0  0  0  0  0  0  0  0  0
   58.8130   32.3040   47.0010 C   0  0  0  0  0  0  0  0  0  0  0  0
   58.3580   32.1610   45.6780 C   0  0  0  0  0  0  0  0  0  0  0  0
   58.1680   31.1569   45.2710 H   0  0  0  0  0  0  0  0  0  0  0  0
   58.1460   33.2850   44.8780 C   0  0  0  0  0  0  0  0  0  0  0  0
   57.7729   33.1653   43.8501 H   0  0  0  0  0  0  0  0  0  0  0  0
   58.4070   34.5610   45.3810 C   0  0  0  0  0  0  0  0  0  0  0  0
   58.2382   35.4455   44.7492 H   0  0  0  0  0  0  0  0  0  0  0  0
   58.8820   34.7160   46.6850 C   0  0  0  0  0  0  0  0  0  0  0  0
   59.0980   35.7229   47.0716 H   0  0  0  0  0  0  0  0  0  0  0  0
   59.0860   33.5940   47.5070 C   0  0  0  0  0  0  0  0  0  0  0  0
   59.6280   33.7850   48.9030 C   0  0  0  0  0  0  0  0  0  0  0  0
   59.1299   34.6482   49.3687 H   0  0  0  0  0  0  0  0  0  0  0  0
   59.4341   32.8723   49.4855 H   0  0  0  0  0  0  0  0  0  0  0  0
   61.1390   34.0350   48.8680 C   0  0  0  0  0  0  0  0  0  0  0  0
   61.3826   34.6744   48.0067 H   0  0  0  0  0  0  0  0  0  0  0  0
   61.4445   34.5327   49.8002 H   0  0  0  0  0  0  0  0  0  0  0  0
   61.8620   32.7490   48.7440 N   0  0  0  0  0  0  0  0  0  0  0  0
   62.4910   32.5820   47.4100 C   0  0  0  0  0  0  0  0  0  0  0  0
   62.4695   31.5156   47.1410 H   0  0  0  0  0  0  0  0  0  0  0  0
   61.9212   33.1917   46.6933 H   0  0  0  0  0  0  0  0  0  0  0  0
   63.9540   33.0700   47.3810 C   0  0  0  0  0  0  0  0  0  0  0  0
   64.6222   32.2214   47.5895 H   0  0  0  0  0  0  0  0  0  0  0  0
   64.1683   33.4882   46.3864 H   0  0  0  0  0  0  0  0  0  0  0  0
   64.1630   34.0740   48.3510 O   0  0  0  0  0  0  0  0  0  0  0  0
   64.0600   33.5230   49.6530 C   0  0  0  0  0  0  0  0  0  0  0  0
   64.9832   32.9658   49.8704 H   0  0  0  0  0  0  0  0  0  0  0  0
   63.9075   34.3602   50.3501 H   0  0  0  0  0  0  0  0  0  0  0  0
   62.8570   32.5640   49.8180 C   0  0  0  0  0  0  0  0  0  0  0  0
   63.2216   31.5265   49.7917 H   0  0  0  0  0  0  0  0  0  0  0  0
   62.3702   32.7857   50.7792 H   0  0  0  0  0  0  0  0  0  0  0  0
   58.6840   27.3950   46.0680 C   0  0  0  0  0  0  0  0  0  0  0  0
   59.6036   26.9073   46.4235 H   0  0  0  0  0  0  0  0  0  0  0  0
   57.4590   26.7270   46.1640 C   0  0  0  0  0  0  0  0  0  0  0  0
   57.4200   25.7082   46.5769 H   0  0  0  0  0  0  0  0  0  0  0  0
   56.2840   27.3520   45.7360 C   0  0  0  0  0  0  0  0  0  0  0  0
   55.0710   26.6790   45.8300 O   0  0  0  0  0  0  0  0  0  0  0  0
  1  2  1  0
  2  3  1  0
  3  4  2  0
  4  5  1  0
  4  6  1  0
  6  7  1  0
  7  8  1  0
  7  9  2  0
  9 10  1  0
  9 11  1  0
 11 12  2  0
 11 13  1  0
 13 14  1  0
 14 15  2  0
 15 16  1  0
 15 17  1  0
 17 18  1  0
 17 19  2  0
 19 20  1  0
 19 21  1  0
 21 22  1  0
 21 23  2  0
 23 24  1  0
 24 25  1  0
 24 26  1  0
 24 27  1  0
 27 28  1  0
 27 29  1  0
 27 30  1  0
 30 31  1  0
 31 32  1  0
 31 33  1  0
 31 34  1  0
 34 35  1  0
 34 36  1  0
 34 37  1  0
 37 38  1  0
 38 39  1  0
 38 40  1  0
 38 41  1  0
 41 42  1  0
 41 43  1  0
  6 44  2  0
 44 45  1  0
 44 46  1  0
 46 47  1  0
 46 48  2  0
 48 49  1  0
 48  3  1  0
 23 14  1  0
 41 30  1  0
M  CHG  2  13  -1  49  -1
M  END
>  <UniqueID>  (30) 
27

>  <SMILES>  (30) 
O=C(/C=C\c1ccc([O-])c(O)c1)[N-]c1ccccc1CCN1CCOCC1

>  <Energy>  (30) 
74.13690068455293

>  <Genealogy>  (30) 
O=C(C=Cc1ccc([O-])c(O)c1)[N-]c1ccccc1CCN1CCOCC1 (protonated)
O=C(/C=C\c1ccc([O-])c(O)c1)[N-]c1ccccc1CCN1CCOCC1 (cis-trans isomerization)
O=C(/C=C\c1ccc([O-])c(O)c1)[N-]c1ccccc1CCN1CCOCC1 (3D coordinates assigned)
O=C(/C=C\c1ccc([O-])c(O)c1)[N-]c1ccccc1CCN1CCOCC1 (nonaromatic ring conformer: 74.13690068455293 kcal/mol)

>  <smiles>  (30) 
O=C(C=Cc1ccc(O)c(O)c1)Nc1ccccc1CCN1CCOCC1

>  <score_type>  (30) 
oracle

>  <origin>  (30) 
adg

>  <m_score__min__energy>  (30) 
-13.619999999999999

>  <m_primary>  (30) 
energy

$$$$
30:0
     RDKit          3D

 39 41  0  0  0  0  0  0  0  0999 V2000
   64.8110   33.8800   50.8470 C   0  0  0  0  0  0  0  0  0  0  0  0
   63.9950   33.1340   49.8340 C   0  0  0  0  0  0  0  0  0  0  0  0
   64.1170   33.4390   48.4590 C   0  0  0  0  0  0  0  0  0  0  0  0
   63.3850   32.7210   47.4980 C   0  0  0  0  0  0  0  0  0  0  0  0
   62.5460   31.6920   47.9220 C   0  0  0  0  0  0  0  0  0  0  0  0
   61.7930   30.9260   47.0940 N   0  0  0  0  0  0  0  0  0  0  0  0
   61.0800   29.9980   47.7870 C   0  0  0  0  0  0  0  0  0  0  0  0
   60.1730   29.0240   47.1370 C   0  0  0  0  0  0  0  0  0  0  0  0
   59.2800   28.2640   47.9120 C   0  0  0  0  0  0  0  0  0  0  0  0
   58.4190   27.3430   47.3080 C   0  0  0  0  0  0  0  0  0  0  0  0
   58.4250   27.1720   45.9140 C   0  0  0  0  0  0  0  0  0  0  0  0
   57.5670   26.2160   45.2700 N   0  0  0  0  0  0  0  0  0  0  0  0
   57.7900   24.7980   45.2820 C   0  0  0  0  0  0  0  0  0  0  0  0
   58.6670   24.2920   46.0330 O   0  0  0  0  0  0  0  0  0  0  0  0
   56.9180   23.8930   44.4600 C   0  0  0  0  0  0  0  0  0  0  0  0
   55.4980   24.4520   44.3190 C   0  0  0  0  0  0  0  0  0  0  0  0
   54.9760   24.9720   45.6240 C   0  0  0  0  0  0  0  0  0  0  0  0
   54.6940   24.1730   46.5560 O   0  0  0  0  0  0  0  0  0  0  0  0
   54.7590   26.3330   45.7940 O   0  0  0  0  0  0  0  0  0  0  0  0
   59.3310   27.9120   45.1420 C   0  0  0  0  0  0  0  0  0  0  0  0
   60.1920   28.8340   45.7430 C   0  0  0  0  0  0  0  0  0  0  0  0
   61.3720   30.1100   49.4560 S   0  0  0  0  0  0  0  0  0  0  0  0
   62.4420   31.3860   49.2690 C   0  0  0  0  0  0  0  0  0  0  0  0
   63.1530   32.0790   50.2440 C   0  0  0  0  0  0  0  0  0  0  0  0
   64.4934   33.5897   51.8594 H   0  0  0  0  0  0  0  0  0  0  0  0
   65.8751   33.6359   50.7124 H   0  0  0  0  0  0  0  0  0  0  0  0
   64.6631   34.9617   50.7124 H   0  0  0  0  0  0  0  0  0  0  0  0
   64.7916   34.2464   48.1381 H   0  0  0  0  0  0  0  0  0  0  0  0
   63.4727   32.9669   46.4294 H   0  0  0  0  0  0  0  0  0  0  0  0
   59.2584   28.3951   49.0039 H   0  0  0  0  0  0  0  0  0  0  0  0
   57.7324   26.7484   47.9285 H   0  0  0  0  0  0  0  0  0  0  0  0
   56.6750   26.5650   44.8500 H   0  0  0  0  0  0  0  0  0  0  0  0
   57.3599   23.7847   43.4585 H   0  0  0  0  0  0  0  0  0  0  0  0
   56.8554   22.9201   44.9695 H   0  0  0  0  0  0  0  0  0  0  0  0
   55.5089   25.2727   43.5867 H   0  0  0  0  0  0  0  0  0  0  0  0
   54.8393   23.6362   43.9863 H   0  0  0  0  0  0  0  0  0  0  0  0
   59.3646   27.7655   44.0523 H   0  0  0  0  0  0  0  0  0  0  0  0
   60.8895   29.4153   45.1220 H   0  0  0  0  0  0  0  0  0  0  0  0
   63.0609   31.8111   51.3069 H   0  0  0  0  0  0  0  0  0  0  0  0
  1  2  1  0
  2  3  2  0
  3  4  1  0
  4  5  2  0
  5  6  1  0
  6  7  2  0
  7  8  1  0
  8  9  2  0
  9 10  1  0
 10 11  2  0
 11 12  1  0
 12 13  1  0
 13 14  2  0
 13 15  1  0
 15 16  1  0
 16 17  1  0
 17 18  2  0
 17 19  1  0
 11 20  1  0
 20 21  2  0
  7 22  1  0
 22 23  1  0
 23 24  2  0
 24  2  1  0
 23  5  1  0
 21  8  1  0
  1 25  1  0
  1 26  1  0
  1 27  1  0
  3 28  1  0
  4 29  1  0
  9 30  1  0
 10 31  1  0
 12 32  1  0
 15 33  1  0
 15 34  1  0
 16 35  1  0
 16 36  1  0
 20 37  1  0
 21 38  1  0
 24 39  1  0
M  CHG  1  19  -1
M  END
>  <UniqueID>  (31) 
28

>  <SMILES>  (31) 
Cc1ccc2nc(-c3ccc(NC(=O)CCC(=O)[O-])cc3)sc2c1

>  <Energy>  (31) 
74.9218907987633

>  <Genealogy>  (31) 
Cc1ccc2nc(-c3ccc(NC(=O)CCC(=O)[O-])cc3)sc2c1 (protonated)
Cc1ccc2nc(-c3ccc(NC(=O)CCC(=O)[O-])cc3)sc2c1 (3D coordinates assigned)
Cc1ccc2nc(-c3ccc(NC(=O)CCC(=O)[O-])cc3)sc2c1 (optimized conformer: 74.9218907987633 kcal/mol)

>  <smiles>  (31) 
Cc1ccc2nc(-c3ccc(NC(=O)CCC(=O)O)cc3)sc2c1

>  <score_type>  (31) 
oracle

>  <origin>  (31) 
adg

>  <m_score__min__energy>  (31) 
-10.279999999999999

>  <m_primary>  (31) 
energy

$$$$
31:0
     RDKit          3D

 56 58  0  0  0  0  0  0  0  0999 V2000
   59.8490   32.6080   49.5880 C   0  0  0  0  0  0  0  0  0  0  0  0
   58.9550   33.5330   48.9780 O   0  0  0  0  0  0  0  0  0  0  0  0
   58.9120   33.8040   47.6020 C   0  0  0  0  0  0  0  0  0  0  0  0
   59.6510   34.8890   47.1170 C   0  0  0  0  0  0  0  0  0  0  0  0
   59.6400   35.1990   45.7570 C   0  0  0  0  0  0  0  0  0  0  0  0
   58.8790   34.4350   44.8660 C   0  0  0  0  0  0  0  0  0  0  0  0
   58.1180   33.3540   45.3350 C   0  0  0  0  0  0  0  0  0  0  0  0
   57.2970   32.5330   44.3810 C   0  0  0  0  0  0  0  0  0  0  0  0
   57.2940   31.0950   44.7960 C   0  0  0  0  0  0  0  0  0  0  0  0
   56.2350   30.4160   44.6770 O   0  0  0  0  0  0  0  0  0  0  0  0
   58.4700   30.5110   45.3750 N   0  0  0  0  0  0  0  0  0  0  0  0
   58.5900   29.1080   45.6520 C   0  0  0  0  0  0  0  0  0  0  0  0
   57.4260   28.3300   45.7330 C   0  0  0  0  0  0  0  0  0  0  0  0
   57.4990   26.9520   45.9950 C   0  0  0  0  0  0  0  0  0  0  0  0
   56.2610   26.1400   46.0540 C   0  0  0  0  0  0  0  0  0  0  0  0
   55.1390   26.7170   45.9870 O   0  0  0  0  0  0  0  0  0  0  0  0
   56.2920   24.7230   46.2480 N   0  0  0  0  0  0  0  0  0  0  0  0
   56.2300   23.7390   45.2080 C   0  0  0  0  0  0  0  0  0  0  0  0
   55.1330   23.3340   44.4580 C   0  0  0  0  0  0  0  0  0  0  0  0
   53.7280   23.8300   44.5460 C   0  0  0  0  0  0  0  0  0  0  0  0
   55.5250   22.3730   43.5960 N   0  0  0  0  0  0  0  0  0  0  0  0
   56.8170   22.1520   43.7940 N   0  0  0  0  0  0  0  0  0  0  0  0
   57.5940   21.1820   43.0300 C   0  0  0  0  0  0  0  0  0  0  0  0
   57.2720   22.9420   44.7890 C   0  0  0  0  0  0  0  0  0  0  0  0
   58.7000   23.0350   45.2390 C   0  0  0  0  0  0  0  0  0  0  0  0
   58.7540   26.3650   46.2170 C   0  0  0  0  0  0  0  0  0  0  0  0
   59.9170   27.1370   46.1650 C   0  0  0  0  0  0  0  0  0  0  0  0
   59.8480   28.5160   45.8950 C   0  0  0  0  0  0  0  0  0  0  0  0
   60.9960   29.3270   45.8890 O   0  0  0  0  0  0  0  0  0  0  0  0
   61.2130   30.4260   46.7670 C   0  0  0  0  0  0  0  0  0  0  0  0
   58.1490   33.0300   46.7010 C   0  0  0  0  0  0  0  0  0  0  0  0
   59.7704   32.6893   50.6822 H   0  0  0  0  0  0  0  0  0  0  0  0
   59.5878   31.5858   49.2766 H   0  0  0  0  0  0  0  0  0  0  0  0
   60.8795   32.8342   49.2766 H   0  0  0  0  0  0  0  0  0  0  0  0
   60.2441   35.5010   47.8124 H   0  0  0  0  0  0  0  0  0  0  0  0
   60.2321   36.0476   45.3837 H   0  0  0  0  0  0  0  0  0  0  0  0
   58.8773   34.6827   43.7942 H   0  0  0  0  0  0  0  0  0  0  0  0
   56.2638   32.9103   44.3752 H   0  0  0  0  0  0  0  0  0  0  0  0
   57.7351   32.6122   43.3751 H   0  0  0  0  0  0  0  0  0  0  0  0
   59.2090   31.1510   45.7430 H   0  0  0  0  0  0  0  0  0  0  0  0
   56.4441   28.8046   45.5896 H   0  0  0  0  0  0  0  0  0  0  0  0
   53.4405   23.9315   45.6029 H   0  0  0  0  0  0  0  0  0  0  0  0
   53.6530   24.8089   44.0500 H   0  0  0  0  0  0  0  0  0  0  0  0
   53.0550   23.1151   44.0500 H   0  0  0  0  0  0  0  0  0  0  0  0
   58.1288   20.5143   43.7215 H   0  0  0  0  0  0  0  0  0  0  0  0
   56.9185   20.5886   42.3962 H   0  0  0  0  0  0  0  0  0  0  0  0
   58.3205   21.7117   42.3962 H   0  0  0  0  0  0  0  0  0  0  0  0
   58.7386   23.0375   46.3383 H   0  0  0  0  0  0  0  0  0  0  0  0
   59.2626   22.1716   44.8543 H   0  0  0  0  0  0  0  0  0  0  0  0
   59.1459   23.9641   44.8543 H   0  0  0  0  0  0  0  0  0  0  0  0
   58.8225   25.2887   46.4336 H   0  0  0  0  0  0  0  0  0  0  0  0
   60.8947   26.6629   46.3365 H   0  0  0  0  0  0  0  0  0  0  0  0
   61.1450   30.0815   47.8094 H   0  0  0  0  0  0  0  0  0  0  0  0
   62.2120   30.8490   46.5851 H   0  0  0  0  0  0  0  0  0  0  0  0
   60.4497   31.1969   46.5851 H   0  0  0  0  0  0  0  0  0  0  0  0
   57.5752   32.1677   47.0713 H   0  0  0  0  0  0  0  0  0  0  0  0
  1  2  1  0
  2  3  1  0
  3  4  2  0
  4  5  1  0
  5  6  2  0
  6  7  1  0
  7  8  1  0
  8  9  1  0
  9 10  2  0
  9 11  1  0
 11 12  1  0
 12 13  2  0
 13 14  1  0
 14 15  1  0
 15 16  2  0
 15 17  1  0
 17 18  1  0
 18 19  1  0
 19 20  1  0
 19 21  2  0
 21 22  1  0
 22 23  1  0
 22 24  1  0
 24 25  1  0
 14 26  2  0
 26 27  1  0
 27 28  2  0
 28 29  1  0
 29 30  1  0
  7 31  2  0
 31  3  1  0
 28 12  1  0
 24 18  2  0
  1 32  1  0
  1 33  1  0
  1 34  1  0
  4 35  1  0
  5 36  1  0
  6 37  1  0
  8 38  1  0
  8 39  1  0
 11 40  1  0
 13 41  1  0
 20 42  1  0
 20 43  1  0
 20 44  1  0
 23 45  1  0
 23 46  1  0
 23 47  1  0
 25 48  1  0
 25 49  1  0
 25 50  1  0
 26 51  1  0
 27 52  1  0
 30 53  1  0
 30 54  1  0
 30 55  1  0
 31 56  1  0
M  CHG  1  17  -1
M  END
>  <UniqueID>  (32) 
29

>  <SMILES>  (32) 
COc1cccc(CC(=O)Nc2cc(C(=O)[N-]c3c(C)nn(C)c3C)ccc2OC)c1

>  <Energy>  (32) 
94.95783172209826

>  <Genealogy>  (32) 
COc1cccc(CC(=O)Nc2cc(C(=O)[N-]c3c(C)nn(C)c3C)ccc2OC)c1 (protonated)
COc1cccc(CC(=O)Nc2cc(C(=O)[N-]c3c(C)nn(C)c3C)ccc2OC)c1 (3D coordinates assigned)
COc1cccc(CC(=O)Nc2cc(C(=O)[N-]c3c(C)nn(C)c3C)ccc2OC)c1 (optimized conformer: 94.95783172209826 kcal/mol)

>  <smiles>  (32) 
COc1cccc(CC(=O)Nc2cc(C(=O)Nc3c(C)nn(C)c3C)ccc2OC)c1

>  <score_type>  (32) 
oracle

>  <origin>  (32) 
adg

>  <m_score__min__energy>  (32) 
-11.15

>  <m_primary>  (32) 
energy

$$$$
32:0
     RDKit          3D

 50 52  0  0  0  0  0  0  0  0999 V2000
   60.8830   30.4060   49.8060 N   0  0  0  0  0  0  0  0  0  0  0  0
   59.7540   29.1790   49.3490 S   0  0  0  0  0  0  0  0  0  0  0  0
   58.4480   29.4070   50.0580 O   0  0  0  0  0  0  0  0  0  0  0  0
   60.2910   27.8310   49.7430 O   0  0  0  0  0  0  0  0  0  0  0  0
   59.4970   29.2450   47.6090 C   0  0  0  0  0  0  0  0  0  0  0  0
   60.5820   29.1880   46.7230 C   0  0  0  0  0  0  0  0  0  0  0  0
   60.3670   29.2720   45.3450 C   0  0  0  0  0  0  0  0  0  0  0  0
   59.0720   29.4320   44.8450 C   0  0  0  0  0  0  0  0  0  0  0  0
   57.9840   29.5160   45.7280 C   0  0  0  0  0  0  0  0  0  0  0  0
   56.6490   29.7210   45.2480 N   0  0  0  0  0  0  0  0  0  0  0  0
   56.2770   30.3330   44.0040 C   0  0  0  0  0  0  0  0  0  0  0  0
   55.1580   30.0470   43.5030 O   0  0  0  0  0  0  0  0  0  0  0  0
   57.1550   31.3280   43.2850 C   0  0  0  0  0  0  0  0  0  0  0  0
   57.2450   32.5740   43.9770 O   0  0  0  0  0  0  0  0  0  0  0  0
   57.9510   32.7990   45.1700 C   0  0  0  0  0  0  0  0  0  0  0  0
   59.2470   33.3200   45.0820 C   0  0  0  0  0  0  0  0  0  0  0  0
   60.0080   33.5270   46.2340 C   0  0  0  0  0  0  0  0  0  0  0  0
   59.4770   33.2260   47.4950 C   0  0  0  0  0  0  0  0  0  0  0  0
   60.4410   33.4880   48.9510 S   0  0  0  0  0  0  0  0  0  0  0  0
   59.7980   32.7690   50.1050 O   0  0  0  0  0  0  0  0  0  0  0  0
   60.4610   34.9570   49.2730 O   0  0  0  0  0  0  0  0  0  0  0  0
   62.0820   32.9190   48.7510 N   0  0  0  0  0  0  0  0  0  0  0  0
   63.0320   34.0400   48.5800 C   0  0  0  0  0  0  0  0  0  0  0  0
   63.4980   34.1840   47.1190 C   0  0  0  0  0  0  0  0  0  0  0  0
   64.1270   33.0150   46.6130 O   0  0  0  0  0  0  0  0  0  0  0  0
   63.5950   31.8030   47.1380 C   0  0  0  0  0  0  0  0  0  0  0  0
   62.1550   31.9270   47.6630 C   0  0  0  0  0  0  0  0  0  0  0  0
   58.1770   32.7110   47.5890 C   0  0  0  0  0  0  0  0  0  0  0  0
   57.4140   32.5030   46.4360 C   0  0  0  0  0  0  0  0  0  0  0  0
   58.1990   29.3970   47.1050 C   0  0  0  0  0  0  0  0  0  0  0  0
   60.5460   30.8110   50.7070 H   0  0  0  0  0  0  0  0  0  0  0  0
   60.8180   31.1640   49.0910 H   0  0  0  0  0  0  0  0  0  0  0  0
   61.6044   29.0769   47.1134 H   0  0  0  0  0  0  0  0  0  0  0  0
   61.2192   29.2120   44.6521 H   0  0  0  0  0  0  0  0  0  0  0  0
   58.9051   29.4921   43.7594 H   0  0  0  0  0  0  0  0  0  0  0  0
   58.1652   30.9033   43.1892 H   0  0  0  0  0  0  0  0  0  0  0  0
   56.7048   31.5228   42.3004 H   0  0  0  0  0  0  0  0  0  0  0  0
   59.6694   33.5684   44.0972 H   0  0  0  0  0  0  0  0  0  0  0  0
   61.0289   33.9282   46.1512 H   0  0  0  0  0  0  0  0  0  0  0  0
   62.5390   34.9735   48.8891 H   0  0  0  0  0  0  0  0  0  0  0  0
   63.9168   33.8330   49.1999 H   0  0  0  0  0  0  0  0  0  0  0  0
   62.6215   34.4078   46.4932 H   0  0  0  0  0  0  0  0  0  0  0  0
   64.2430   34.9929   47.0924 H   0  0  0  0  0  0  0  0  0  0  0  0
   63.6083   31.0455   46.3405 H   0  0  0  0  0  0  0  0  0  0  0  0
   64.2238   31.5254   47.9968 H   0  0  0  0  0  0  0  0  0  0  0  0
   61.4966   32.2436   46.8406 H   0  0  0  0  0  0  0  0  0  0  0  0
   61.8347   30.9495   48.0528 H   0  0  0  0  0  0  0  0  0  0  0  0
   57.7546   32.4691   48.5754 H   0  0  0  0  0  0  0  0  0  0  0  0
   56.3912   32.1069   46.5191 H   0  0  0  0  0  0  0  0  0  0  0  0
   57.3437   29.4229   47.7962 H   0  0  0  0  0  0  0  0  0  0  0  0
  1  2  1  0
  2  3  2  0
  2  4  2  0
  2  5  1  0
  5  6  2  0
  6  7  1  0
  7  8  2  0
  8  9  1  0
  9 10  1  0
 10 11  1  0
 11 12  2  0
 11 13  1  0
 13 14  1  0
 14 15  1  0
 15 16  2  0
 16 17  1  0
 17 18  2  0
 18 19  1  0
 19 20  2  0
 19 21  2  0
 19 22  1  0
 22 23  1  0
 23 24  1  0
 24 25  1  0
 25 26  1  0
 26 27  1  0
 18 28  1  0
 28 29  2  0
  9 30  2  0
 30  5  1  0
 29 15  1  0
 27 22  1  0
  1 31  1  0
  1 32  1  0
  6 33  1  0
  7 34  1  0
  8 35  1  0
 13 36  1  0
 13 37  1  0
 16 38  1  0
 17 39  1  0
 23 40  1  0
 23 41  1  0
 24 42  1  0
 24 43  1  0
 26 44  1  0
 26 45  1  0
 27 46  1  0
 27 47  1  0
 28 48  1  0
 29 49  1  0
 30 50  1  0
M  CHG  1  10  -1
M  END
>  <UniqueID>  (33) 
30

>  <SMILES>  (33) 
NS(=O)(=O)c1cccc([N-]C(=O)COc2ccc(S(=O)(=O)N3CCOCC3)cc2)c1

>  <Energy>  (33) 
63.937101058872486

>  <Genealogy>  (33) 
NS(=O)(=O)c1cccc([N-]C(=O)COc2ccc(S(=O)(=O)N3CCOCC3)cc2)c1 (protonated)
NS(=O)(=O)c1cccc([N-]C(=O)COc2ccc(S(=O)(=O)N3CCOCC3)cc2)c1 (3D coordinates assigned)
NS(=O)(=O)c1cccc([N-]C(=O)COc2ccc(S(=O)(=O)N3CCOCC3)cc2)c1 (nonaromatic ring conformer: 63.937101058872486 kcal/mol)

>  <smiles>  (33) 
NS(=O)(=O)c1cccc(NC(=O)COc2ccc(S(=O)(=O)N3CCOCC3)cc2)c1

>  <score_type>  (33) 
oracle

>  <origin>  (33) 
adg

>  <m_score__min__energy>  (33) 
-9.4399999999999995

>  <m_primary>  (33) 
energy

$$$$
33:0
     RDKit          3D

 50 53  0  0  0  0  0  0  0  0999 V2000
   57.7820   27.3200   43.7400 N   0  0  0  0  0  0  0  0  0  0  0  0
   57.6540   28.7430   43.7440 C   0  0  0  0  0  0  0  0  0  0  0  0
   56.4300   29.5860   42.9670 S   0  0  0  0  0  0  0  0  0  0  0  0
   56.9400   31.1160   43.4460 C   0  0  0  0  0  0  0  0  0  0  0  0
   58.0860   30.9820   44.2300 C   0  0  0  0  0  0  0  0  0  0  0  0
   58.8260   32.1740   44.7810 C   0  0  0  0  0  0  0  0  0  0  0  0
   57.9130   33.0970   45.4920 N   0  0  0  0  0  0  0  0  0  0  0  0
   58.1980   34.5280   45.2350 C   0  0  0  0  0  0  0  0  0  0  0  0
   59.5500   34.9580   45.8280 C   0  0  0  0  0  0  0  0  0  0  0  0
   59.8100   34.2460   47.0830 N   0  0  0  0  0  0  0  0  0  0  0  0
   61.1620   34.0830   47.5540 C   0  0  0  0  0  0  0  0  0  0  0  0
   62.1970   33.7820   46.6540 C   0  0  0  0  0  0  0  0  0  0  0  0
   63.5040   33.6540   47.1260 C   0  0  0  0  0  0  0  0  0  0  0  0
   63.7720   33.8300   48.4820 C   0  0  0  0  0  0  0  0  0  0  0  0
   62.7250   34.1390   49.3520 C   0  0  0  0  0  0  0  0  0  0  0  0
   61.4550   34.2640   48.8770 N   0  0  0  0  0  0  0  0  0  0  0  0
   58.6670   33.7200   47.8350 C   0  0  0  0  0  0  0  0  0  0  0  0
   57.8190   32.7900   46.9440 C   0  0  0  0  0  0  0  0  0  0  0  0
   58.4860   29.6380   44.4090 C   0  0  0  0  0  0  0  0  0  0  0  0
   59.6730   29.2230   45.1790 C   0  0  0  0  0  0  0  0  0  0  0  0
   60.4580   28.3750   44.6750 O   0  0  0  0  0  0  0  0  0  0  0  0
   59.9570   29.7820   46.5200 C   0  0  0  0  0  0  0  0  0  0  0  0
   61.1940   30.3940   46.7950 C   0  0  0  0  0  0  0  0  0  0  0  0
   61.4660   30.8930   48.0720 C   0  0  0  0  0  0  0  0  0  0  0  0
   60.5040   30.7990   49.0820 C   0  0  0  0  0  0  0  0  0  0  0  0
   60.8530   31.4160   50.6860 Cl  0  0  0  0  0  0  0  0  0  0  0  0
   59.2650   30.2110   48.8110 C   0  0  0  0  0  0  0  0  0  0  0  0
   58.9890   29.7090   47.5370 C   0  0  0  0  0  0  0  0  0  0  0  0
   58.6630   26.8740   44.0750 H   0  0  0  0  0  0  0  0  0  0  0  0
   57.0100   26.7100   43.3910 H   0  0  0  0  0  0  0  0  0  0  0  0
   56.4504   32.0656   43.1841 H   0  0  0  0  0  0  0  0  0  0  0  0
   59.5973   31.8231   45.4824 H   0  0  0  0  0  0  0  0  0  0  0  0
   59.2806   32.7176   43.9397 H   0  0  0  0  0  0  0  0  0  0  0  0
   58.2161   34.6976   44.1483 H   0  0  0  0  0  0  0  0  0  0  0  0
   57.4091   35.1248   45.7160 H   0  0  0  0  0  0  0  0  0  0  0  0
   60.3501   34.7282   45.1090 H   0  0  0  0  0  0  0  0  0  0  0  0
   59.5217   36.0387   46.0313 H   0  0  0  0  0  0  0  0  0  0  0  0
   61.9790   33.6480   45.5842 H   0  0  0  0  0  0  0  0  0  0  0  0
   64.3208   33.4147   46.4292 H   0  0  0  0  0  0  0  0  0  0  0  0
   64.7986   33.7265   48.8632 H   0  0  0  0  0  0  0  0  0  0  0  0
   62.9264   34.2819   50.4239 H   0  0  0  0  0  0  0  0  0  0  0  0
   60.6930   34.4880   49.5550 H   0  0  0  0  0  0  0  0  0  0  0  0
   59.0343   33.1538   48.7036 H   0  0  0  0  0  0  0  0  0  0  0  0
   58.0420   34.5614   48.1689 H   0  0  0  0  0  0  0  0  0  0  0  0
   58.1577   31.7554   47.1020 H   0  0  0  0  0  0  0  0  0  0  0  0
   56.7687   32.9394   47.2348 H   0  0  0  0  0  0  0  0  0  0  0  0
   61.9505   30.4801   46.0011 H   0  0  0  0  0  0  0  0  0  0  0  0
   62.4391   31.3607   48.2827 H   0  0  0  0  0  0  0  0  0  0  0  0
   58.5051   30.1434   49.6034 H   0  0  0  0  0  0  0  0  0  0  0  0
   58.0093   29.2543   47.3284 H   0  0  0  0  0  0  0  0  0  0  0  0
  1  2  1  0
  2  3  1  0
  3  4  1  0
  4  5  2  0
  5  6  1  0
  6  7  1  0
  7  8  1  0
  8  9  1  0
  9 10  1  0
 10 11  1  0
 11 12  2  0
 12 13  1  0
 13 14  2  0
 14 15  1  0
 15 16  2  0
 10 17  1  0
 17 18  1  0
  5 19  1  0
 19 20  1  0
 20 21  2  0
 20 22  1  0
 22 23  2  0
 23 24  1  0
 24 25  2  0
 25 26  1  0
 25 27  1  0
 27 28  2  0
 19  2  2  0
 28 22  1  0
 18  7  1  0
 16 11  1  0
  1 29  1  0
  1 30  1  0
  4 31  1  0
  6 32  1  0
  6 33  1  0
  8 34  1  0
  8 35  1  0
  9 36  1  0
  9 37  1  0
 12 38  1  0
 13 39  1  0
 14 40  1  0
 15 41  1  0
 16 42  1  0
 17 43  1  0
 17 44  1  0
 18 45  1  0
 18 46  1  0
 23 47  1  0
 24 48  1  0
 27 49  1  0
 28 50  1  0
M  CHG  1  16   1
M  END
>  <UniqueID>  (34) 
31

>  <SMILES>  (34) 
Nc1scc(CN2CCN(c3cccc[nH+]3)CC2)c1C(=O)c1ccc(Cl)cc1

>  <Energy>  (34) 
96.36652844549813

>  <Genealogy>  (34) 
Nc1scc(CN2CCN(c3cccc[nH+]3)CC2)c1C(=O)c1ccc(Cl)cc1 (protonated)
Nc1scc(CN2CCN(c3cccc[nH+]3)CC2)c1C(=O)c1ccc(Cl)cc1 (3D coordinates assigned)
Nc1scc(CN2CCN(c3cccc[nH+]3)CC2)c1C(=O)c1ccc(Cl)cc1 (nonaromatic ring conformer: 96.36652844549813 kcal/mol)

>  <smiles>  (34) 
Nc1scc(CN2CCN(c3ccccn3)CC2)c1C(=O)c1ccc(Cl)cc1

>  <score_type>  (34) 
oracle

>  <origin>  (34) 
adg

>  <m_score__min__energy>  (34) 
-6.8799999999999999

>  <m_primary>  (34) 
energy

$$$$
34:0
     RDKit          3D

 33 35  0  0  0  0  0  0  0  0999 V2000
   55.1930   27.3910   46.1200 H   0  0  0  0  0  0  0  0  0  0  0  0
   55.0040   26.3810   45.9370 N   0  0  0  0  0  0  0  0  0  0  0  0
   55.8820   25.3700   46.4320 C   0  0  0  0  0  0  0  0  0  0  0  0
   55.3920   24.3620   47.0090 O   0  0  0  0  0  0  0  0  0  0  0  0
   57.3480   25.4930   46.2400 C   0  0  0  0  0  0  0  0  0  0  0  0
   58.1160   24.3220   46.0970 C   0  0  0  0  0  0  0  0  0  0  0  0
   57.6146   23.3436   46.0604 H   0  0  0  0  0  0  0  0  0  0  0  0
   59.5090   24.3890   46.0010 C   0  0  0  0  0  0  0  0  0  0  0  0
   60.2520   23.2230   45.8680 O   0  0  0  0  0  0  0  0  0  0  0  0
   60.1530   25.6250   46.0470 C   0  0  0  0  0  0  0  0  0  0  0  0
   61.2501   25.6749   45.9854 H   0  0  0  0  0  0  0  0  0  0  0  0
   59.4090   26.7980   46.1710 C   0  0  0  0  0  0  0  0  0  0  0  0
   59.9243   27.7689   46.2134 H   0  0  0  0  0  0  0  0  0  0  0  0
   58.0100   26.7500   46.2420 C   0  0  0  0  0  0  0  0  0  0  0  0
   57.2950   27.9940   46.3040 N   0  0  0  0  0  0  0  0  0  0  0  0
   57.8530   29.1700   46.3210 C   0  0  0  0  0  0  0  0  0  0  0  0
   58.8750   29.4320   47.1850 N   0  0  0  0  0  0  0  0  0  0  0  0
   59.4790   30.6450   47.2300 C   0  0  0  0  0  0  0  0  0  0  0  0
   60.5320   30.8860   48.1210 C   0  0  0  0  0  0  0  0  0  0  0  0
   60.8783   30.0882   48.7945 H   0  0  0  0  0  0  0  0  0  0  0  0
   61.1420   32.1440   48.1520 C   0  0  0  0  0  0  0  0  0  0  0  0
   61.9691   32.3353   48.8516 H   0  0  0  0  0  0  0  0  0  0  0  0
   60.7030   33.1610   47.2950 C   0  0  0  0  0  0  0  0  0  0  0  0
   61.1857   34.1490   47.3235 H   0  0  0  0  0  0  0  0  0  0  0  0
   59.6510   32.9230   46.4020 C   0  0  0  0  0  0  0  0  0  0  0  0
   59.3069   33.7221   45.7289 H   0  0  0  0  0  0  0  0  0  0  0  0
   59.0390   31.6650   46.3690 C   0  0  0  0  0  0  0  0  0  0  0  0
   58.0170   31.4140   45.5110 N   0  0  0  0  0  0  0  0  0  0  0  0
   57.4030   30.1990   45.4560 C   0  0  0  0  0  0  0  0  0  0  0  0
   56.2970   30.0190   44.4850 C   0  0  0  0  0  0  0  0  0  0  0  0
   56.3580   30.5100   43.3260 O   0  0  0  0  0  0  0  0  0  0  0  0
   55.1400   29.2790   44.8660 N   0  0  0  0  0  0  0  0  0  0  0  0
   55.1730   28.6010   45.6590 H   0  0  0  0  0  0  0  0  0  0  0  0
  1  2  1  0
  2  3  1  0
  3  4  2  0
  3  5  1  0
  5  6  2  0
  6  7  1  0
  6  8  1  0
  8  9  1  0
  8 10  2  0
 10 11  1  0
 10 12  1  0
 12 13  1  0
 12 14  2  0
 14 15  1  0
 15 16  2  0
 16 17  1  0
 17 18  1  0
 18 19  2  0
 19 20  1  0
 19 21  1  0
 21 22  1  0
 21 23  2  0
 23 24  1  0
 23 25  1  0
 25 26  1  0
 25 27  2  0
 27 28  1  0
 28 29  2  0
 29 30  1  0
 30 31  2  0
 30 32  1  0
 32 33  1  0
 14  5  1  0
 29 16  1  0
 27 18  1  0
M  CHG  4   2  -1   9  -1  17  -1  32  -1
M  END
>  <UniqueID>  (35) 
32

>  <SMILES>  (35) 
[NH-]C(=O)c1cc([O-])ccc1/N=c1\[n-]c2ccccc2nc1C([NH-])=O

>  <Energy>  (35) 
52.01338699790154

>  <Genealogy>  (35) 
[NH-]C(=O)c1cc([O-])ccc1N=c1[n-]c2ccccc2nc1C([NH-])=O (protonated)
[NH-]C(=O)c1cc([O-])ccc1/N=c1\[n-]c2ccccc2nc1C([NH-])=O (cis-trans isomerization)
[NH-]C(=O)c1cc([O-])ccc1/N=c1\[n-]c2ccccc2nc1C([NH-])=O (3D coordinates assigned)
[NH-]C(=O)c1cc([O-])ccc1/N=c1\[n-]c2ccccc2nc1C([NH-])=O (optimized conformer: 52.01338699790154 kcal/mol)

>  <smiles>  (35) 
NC(=O)c1cc(O)ccc1N=c1[nH]c2ccccc2nc1C(N)=O

>  <score_type>  (35) 
oracle

>  <origin>  (35) 
adg

>  <m_score__min__energy>  (35) 
-16.719999999999999

>  <m_primary>  (35) 
energy

$$$$
35:0
     RDKit          3D

 64 67  0  0  0  0  0  0  0  0999 V2000
   60.4160   29.7670   45.6670 C   0  0  0  0  0  0  0  0  0  0  0  0
   59.3320   30.4650   46.2730 O   0  0  0  0  0  0  0  0  0  0  0  0
   58.8540   31.7180   45.8560 C   0  0  0  0  0  0  0  0  0  0  0  0
   59.6470   32.8790   45.9610 C   0  0  0  0  0  0  0  0  0  0  0  0
   59.1210   34.1300   45.6260 C   0  0  0  0  0  0  0  0  0  0  0  0
   57.8020   34.2420   45.1880 C   0  0  0  0  0  0  0  0  0  0  0  0
   57.0130   33.0990   45.0600 C   0  0  0  0  0  0  0  0  0  0  0  0
   57.5370   31.8290   45.3510 C   0  0  0  0  0  0  0  0  0  0  0  0
   56.6760   30.6930   45.1810 N   0  0  0  0  0  0  0  0  0  0  0  0
   56.8300   29.6330   44.2280 C   0  0  0  0  0  0  0  0  0  0  0  0
   56.3460   29.7320   43.0690 O   0  0  0  0  0  0  0  0  0  0  0  0
   57.4770   28.3750   44.6350 C   0  0  0  0  0  0  0  0  0  0  0  0
   57.7760   28.1690   45.9890 C   0  0  0  0  0  0  0  0  0  0  0  0
   58.2860   26.9780   46.4260 N   0  0  0  0  0  0  0  0  0  0  0  0
   58.5360   26.7860   47.8680 C   0  0  0  0  0  0  0  0  0  0  0  0
   59.9510   27.1680   48.2250 C   0  0  0  0  0  0  0  0  0  0  0  0
   60.9090   26.7170   47.5430 O   0  0  0  0  0  0  0  0  0  0  0  0
   60.2260   28.0670   49.3050 N   0  0  0  0  0  0  0  0  0  0  0  0
   60.1110   29.4920   49.2260 C   0  0  0  0  0  0  0  0  0  0  0  0
   58.9250   30.1440   49.6020 C   0  0  0  0  0  0  0  0  0  0  0  0
   58.8410   31.5350   49.5460 C   0  0  0  0  0  0  0  0  0  0  0  0
   59.9400   32.2870   49.1150 C   0  0  0  0  0  0  0  0  0  0  0  0
   61.1300   31.6460   48.7400 C   0  0  0  0  0  0  0  0  0  0  0  0
   62.5370   32.5890   48.2650 S   0  0  0  0  0  0  0  0  0  0  0  0
   63.4880   31.7330   47.4750 O   0  0  0  0  0  0  0  0  0  0  0  0
   62.0990   33.7350   47.3940 O   0  0  0  0  0  0  0  0  0  0  0  0
   63.3260   33.1740   49.6970 N   0  0  0  0  0  0  0  0  0  0  0  0
   62.9920   34.5160   50.1680 C   0  0  0  0  0  0  0  0  0  0  0  0
   64.5050   32.5110   50.1830 C   0  0  0  0  0  0  0  0  0  0  0  0
   64.4000   31.2810   50.8510 C   0  0  0  0  0  0  0  0  0  0  0  0
   65.5450   30.6360   51.3280 C   0  0  0  0  0  0  0  0  0  0  0  0
   66.8040   31.2170   51.1470 C   0  0  0  0  0  0  0  0  0  0  0  0
   66.9170   32.4430   50.4890 C   0  0  0  0  0  0  0  0  0  0  0  0
   65.7740   33.0910   50.0090 C   0  0  0  0  0  0  0  0  0  0  0  0
   61.2170   30.2490   48.8140 C   0  0  0  0  0  0  0  0  0  0  0  0
   58.5730   25.9810   45.5260 C   0  0  0  0  0  0  0  0  0  0  0  0
   59.0720   24.8910   45.9130 O   0  0  0  0  0  0  0  0  0  0  0  0
   58.3140   26.1580   44.1660 C   0  0  0  0  0  0  0  0  0  0  0  0
   57.7650   27.3540   43.7100 C   0  0  0  0  0  0  0  0  0  0  0  0
   57.5440   27.5060   42.3380 O   0  0  0  0  0  0  0  0  0  0  0  0
   61.0659   29.3485   46.4496 H   0  0  0  0  0  0  0  0  0  0  0  0
   60.0233   28.9516   45.0417 H   0  0  0  0  0  0  0  0  0  0  0  0
   60.9958   30.4619   45.0417 H   0  0  0  0  0  0  0  0  0  0  0  0
   60.6874   32.7998   46.3092 H   0  0  0  0  0  0  0  0  0  0  0  0
   59.7496   35.0289   45.7082 H   0  0  0  0  0  0  0  0  0  0  0  0
   57.3845   35.2300   44.9439 H   0  0  0  0  0  0  0  0  0  0  0  0
   55.9687   33.1934   44.7274 H   0  0  0  0  0  0  0  0  0  0  0  0
   57.5974   28.9788   46.7117 H   0  0  0  0  0  0  0  0  0  0  0  0
   57.8380   27.4139   48.4412 H   0  0  0  0  0  0  0  0  0  0  0  0
   58.3867   25.7238   48.1120 H   0  0  0  0  0  0  0  0  0  0  0  0
   58.0598   29.5557   49.9417 H   0  0  0  0  0  0  0  0  0  0  0  0
   57.9102   32.0416   49.8408 H   0  0  0  0  0  0  0  0  0  0  0  0
   59.8703   33.3839   49.0702 H   0  0  0  0  0  0  0  0  0  0  0  0
   62.9889   34.5284   51.2679 H   0  0  0  0  0  0  0  0  0  0  0  0
   63.7394   35.2320   49.7954 H   0  0  0  0  0  0  0  0  0  0  0  0
   61.9962   34.7981   49.7954 H   0  0  0  0  0  0  0  0  0  0  0  0
   63.4115   30.8221   51.0000 H   0  0  0  0  0  0  0  0  0  0  0  0
   65.4554   29.6700   51.8465 H   0  0  0  0  0  0  0  0  0  0  0  0
   67.7042   30.7086   51.5226 H   0  0  0  0  0  0  0  0  0  0  0  0
   67.9073   32.9006   50.3476 H   0  0  0  0  0  0  0  0  0  0  0  0
   65.8683   34.0581   49.4934 H   0  0  0  0  0  0  0  0  0  0  0  0
   62.1573   29.7442   48.5476 H   0  0  0  0  0  0  0  0  0  0  0  0
   58.5437   25.3520   43.4535 H   0  0  0  0  0  0  0  0  0  0  0  0
   56.6820   27.8680   41.9560 H   0  0  0  0  0  0  0  0  0  0  0  0
  1  2  1  0
  2  3  1  0
  3  4  2  0
  4  5  1  0
  5  6  2  0
  6  7  1  0
  7  8  2  0
  8  9  1  0
  9 10  1  0
 10 11  2  0
 10 12  1  0
 12 13  2  0
 13 14  1  0
 14 15  1  0
 15 16  1  0
 16 17  2  0
 16 18  1  0
 18 19  1  0
 19 20  2  0
 20 21  1  0
 21 22  2  0
 22 23  1  0
 23 24  1  0
 24 25  2  0
 24 26  2  0
 24 27  1  0
 27 28  1  0
 27 29  1  0
 29 30  2  0
 30 31  1  0
 31 32  2  0
 32 33  1  0
 33 34  2  0
 23 35  2  0
 14 36  1  0
 36 37  2  0
 36 38  1  0
 38 39  2  0
 39 40  1  0
  8  3  1  0
 39 12  1  0
 35 19  1  0
 34 29  1  0
  1 41  1  0
  1 42  1  0
  1 43  1  0
  4 44  1  0
  5 45  1  0
  6 46  1  0
  7 47  1  0
 13 48  1  0
 15 49  1  0
 15 50  1  0
 20 51  1  0
 21 52  1  0
 22 53  1  0
 28 54  1  0
 28 55  1  0
 28 56  1  0
 30 57  1  0
 31 58  1  0
 32 59  1  0
 33 60  1  0
 34 61  1  0
 35 62  1  0
 38 63  1  0
 40 64  1  0
M  CHG  2   9  -1  18  -1
M  END
>  <UniqueID>  (36) 
33

>  <SMILES>  (36) 
COc1ccccc1[N-]C(=O)c1cn(CC(=O)[N-]c2cccc(S(=O)(=O)N(C)c3ccccc3)c2)c(=O)cc1O

>  <Energy>  (36) 
93.12971243395982

>  <Genealogy>  (36) 
COc1ccccc1[N-]C(=O)c1cn(CC(=O)[N-]c2cccc(S(=O)(=O)N(C)c3ccccc3)c2)c(=O)cc1O (protonated)
COc1ccccc1[N-]C(=O)c1cn(CC(=O)[N-]c2cccc(S(=O)(=O)N(C)c3ccccc3)c2)c(=O)cc1O (3D coordinates assigned)
COc1ccccc1[N-]C(=O)c1cn(CC(=O)[N-]c2cccc(S(=O)(=O)N(C)c3ccccc3)c2)c(=O)cc1O (optimized conformer: 93.12971243395982 kcal/mol)

>  <smiles>  (36) 
COc1ccccc1NC(=O)c1cn(CC(=O)Nc2cccc(S(=O)(=O)N(C)c3ccccc3)c2)c(=O)cc1O

>  <score_type>  (36) 
oracle

>  <origin>  (36) 
adg

>  <m_score__min__energy>  (36) 
-13.94

>  <m_primary>  (36) 
energy

$$$$
36:0
     RDKit          3D

 44 46  0  0  0  0  0  0  0  0999 V2000
   63.3700   33.7980   46.8080 C   0  0  0  0  0  0  0  0  0  0  0  0
   62.1860   33.8200   47.5980 O   0  0  0  0  0  0  0  0  0  0  0  0
   61.3060   32.7350   47.7370 C   0  0  0  0  0  0  0  0  0  0  0  0
   61.6370   31.5240   47.1170 C   0  0  0  0  0  0  0  0  0  0  0  0
   60.7910   30.4170   47.2220 C   0  0  0  0  0  0  0  0  0  0  0  0
   59.5880   30.5120   47.9430 C   0  0  0  0  0  0  0  0  0  0  0  0
   58.7170   29.4210   48.0810 O   0  0  0  0  0  0  0  0  0  0  0  0
   58.6090   28.3480   47.1860 C   0  0  0  0  0  0  0  0  0  0  0  0
   59.3200   27.1530   47.4120 C   0  0  0  0  0  0  0  0  0  0  0  0
   59.1790   26.0690   46.5460 C   0  0  0  0  0  0  0  0  0  0  0  0
   58.3340   26.1640   45.4410 C   0  0  0  0  0  0  0  0  0  0  0  0
   57.6430   27.3510   45.1890 C   0  0  0  0  0  0  0  0  0  0  0  0
   57.7960   28.4610   46.0330 C   0  0  0  0  0  0  0  0  0  0  0  0
   57.0660   29.6520   45.7040 N   0  0  0  0  0  0  0  0  0  0  0  0
   56.5790   30.1620   44.1180 S   0  0  0  0  0  0  0  0  0  0  0  0
   56.6820   28.9830   43.1910 O   0  0  0  0  0  0  0  0  0  0  0  0
   55.1550   30.6390   44.1390 O   0  0  0  0  0  0  0  0  0  0  0  0
   57.6720   31.4420   43.5200 C   0  0  0  0  0  0  0  0  0  0  0  0
   57.8740   32.4870   44.5690 C   0  0  0  0  0  0  0  0  0  0  0  0
   57.0260   32.7490   45.6300 C   0  0  0  0  0  0  0  0  0  0  0  0
   57.6190   33.8030   46.2900 C   0  0  0  0  0  0  0  0  0  0  0  0
   58.7550   34.1270   45.6410 N   0  0  0  0  0  0  0  0  0  0  0  0
   59.6480   35.2250   45.9840 C   0  0  0  0  0  0  0  0  0  0  0  0
   58.9140   33.3440   44.5860 N   0  0  0  0  0  0  0  0  0  0  0  0
   59.2670   31.7130   48.5830 C   0  0  0  0  0  0  0  0  0  0  0  0
   60.1110   32.8220   48.4770 C   0  0  0  0  0  0  0  0  0  0  0  0
   64.2504   33.7816   47.4672 H   0  0  0  0  0  0  0  0  0  0  0  0
   63.3706   32.8997   46.1731 H   0  0  0  0  0  0  0  0  0  0  0  0
   63.4039   34.6957   46.1731 H   0  0  0  0  0  0  0  0  0  0  0  0
   62.5714   31.4434   46.5422 H   0  0  0  0  0  0  0  0  0  0  0  0
   61.0672   29.4681   46.7389 H   0  0  0  0  0  0  0  0  0  0  0  0
   59.9923   27.0742   48.2791 H   0  0  0  0  0  0  0  0  0  0  0  0
   59.7347   25.1386   46.7348 H   0  0  0  0  0  0  0  0  0  0  0  0
   58.2116   25.3032   44.7672 H   0  0  0  0  0  0  0  0  0  0  0  0
   56.9719   27.4163   44.3199 H   0  0  0  0  0  0  0  0  0  0  0  0
   58.6437   30.9966   43.2603 H   0  0  0  0  0  0  0  0  0  0  0  0
   57.2212   31.9100   42.6324 H   0  0  0  0  0  0  0  0  0  0  0  0
   56.0898   32.2325   45.8884 H   0  0  0  0  0  0  0  0  0  0  0  0
   57.2311   34.2964   47.1934 H   0  0  0  0  0  0  0  0  0  0  0  0
   59.7187   35.3119   47.0783 H   0  0  0  0  0  0  0  0  0  0  0  0
   60.6467   35.0295   45.5664 H   0  0  0  0  0  0  0  0  0  0  0  0
   59.2531   36.1629   45.5664 H   0  0  0  0  0  0  0  0  0  0  0  0
   58.3426   31.7856   49.1748 H   0  0  0  0  0  0  0  0  0  0  0  0
   59.8410   33.7658   48.9732 H   0  0  0  0  0  0  0  0  0  0  0  0
  1  2  1  0
  2  3  1  0
  3  4  2  0
  4  5  1  0
  5  6  2  0
  6  7  1  0
  7  8  1  0
  8  9  2  0
  9 10  1  0
 10 11  2  0
 11 12  1  0
 12 13  2  0
 13 14  1  0
 14 15  1  0
 15 16  2  0
 15 17  2  0
 15 18  1  0
 18 19  1  0
 19 20  1  0
 20 21  2  0
 21 22  1  0
 22 23  1  0
 22 24  1  0
  6 25  1  0
 25 26  2  0
 26  3  1  0
 13  8  1  0
 24 19  2  0
  1 27  1  0
  1 28  1  0
  1 29  1  0
  4 30  1  0
  5 31  1  0
  9 32  1  0
 10 33  1  0
 11 34  1  0
 12 35  1  0
 18 36  1  0
 18 37  1  0
 20 38  1  0
 21 39  1  0
 23 40  1  0
 23 41  1  0
 23 42  1  0
 25 43  1  0
 26 44  1  0
M  CHG  1  14  -1
M  END
>  <UniqueID>  (37) 
34

>  <SMILES>  (37) 
COc1ccc(Oc2ccccc2[N-]S(=O)(=O)Cc2ccn(C)n2)cc1

>  <Energy>  (37) 
81.1498569811833

>  <Genealogy>  (37) 
COc1ccc(Oc2ccccc2[N-]S(=O)(=O)Cc2ccn(C)n2)cc1 (protonated)
COc1ccc(Oc2ccccc2[N-]S(=O)(=O)Cc2ccn(C)n2)cc1 (3D coordinates assigned)
COc1ccc(Oc2ccccc2[N-]S(=O)(=O)Cc2ccn(C)n2)cc1 (optimized conformer: 81.1498569811833 kcal/mol)

>  <smiles>  (37) 
COc1ccc(Oc2ccccc2NS(=O)(=O)Cc2ccn(C)n2)cc1

>  <score_type>  (37) 
oracle

>  <origin>  (37) 
adg

>  <m_score__min__energy>  (37) 
-9.75

>  <m_primary>  (37) 
energy

$$$$
37:0
     RDKit          3D

 48 51  0  0  0  0  0  0  0  0999 V2000
   64.1020   32.7100   48.9440 C   0  0  0  0  0  0  0  0  0  0  0  0
   63.2450   33.8470   48.9440 O   0  0  0  0  0  0  0  0  0  0  0  0
   62.0740   33.9560   48.1780 C   0  0  0  0  0  0  0  0  0  0  0  0
   60.8900   34.5240   48.6880 C   0  0  0  0  0  0  0  0  0  0  0  0
   59.7490   34.6100   47.8850 C   0  0  0  0  0  0  0  0  0  0  0  0
   59.7710   34.1360   46.5650 C   0  0  0  0  0  0  0  0  0  0  0  0
   58.5320   34.2050   45.7160 C   0  0  0  0  0  0  0  0  0  0  0  0
   57.9980   32.8310   45.4610 C   0  0  0  0  0  0  0  0  0  0  0  0
   56.6970   32.5650   45.2400 N   0  0  0  0  0  0  0  0  0  0  0  0
   56.6490   31.2790   45.0650 O   0  0  0  0  0  0  0  0  0  0  0  0
   57.8530   30.7700   45.1660 C   0  0  0  0  0  0  0  0  0  0  0  0
   58.1540   29.3250   45.0320 C   0  0  0  0  0  0  0  0  0  0  0  0
   57.9490   28.7290   43.7750 C   0  0  0  0  0  0  0  0  0  0  0  0
   58.1200   27.3550   43.6000 C   0  0  0  0  0  0  0  0  0  0  0  0
   58.4950   26.5550   44.6770 C   0  0  0  0  0  0  0  0  0  0  0  0
   58.7250   27.1280   45.9280 C   0  0  0  0  0  0  0  0  0  0  0  0
   58.5810   28.5150   46.1210 C   0  0  0  0  0  0  0  0  0  0  0  0
   58.9400   29.0710   47.4460 C   0  0  0  0  0  0  0  0  0  0  0  0
   58.7290   28.3860   48.4840 O   0  0  0  0  0  0  0  0  0  0  0  0
   59.6160   30.3340   47.5470 N   0  0  0  0  0  0  0  0  0  0  0  0
   59.6690   31.1260   48.7470 C   0  0  0  0  0  0  0  0  0  0  0  0
   58.5160   31.8120   49.1610 C   0  0  0  0  0  0  0  0  0  0  0  0
   58.5210   32.5620   50.3400 C   0  0  0  0  0  0  0  0  0  0  0  0
   59.6740   32.6210   51.1260 C   0  0  0  0  0  0  0  0  0  0  0  0
   60.8210   31.9250   50.7380 C   0  0  0  0  0  0  0  0  0  0  0  0
   61.9300   31.9660   51.5180 F   0  0  0  0  0  0  0  0  0  0  0  0
   60.8240   31.1740   49.5570 C   0  0  0  0  0  0  0  0  0  0  0  0
   61.9310   30.4590   49.2380 F   0  0  0  0  0  0  0  0  0  0  0  0
   58.7660   31.7240   45.4370 N   0  0  0  0  0  0  0  0  0  0  0  0
   60.9510   33.5680   46.0600 C   0  0  0  0  0  0  0  0  0  0  0  0
   62.0930   33.4830   46.8620 C   0  0  0  0  0  0  0  0  0  0  0  0
   64.3227   32.4172   49.9811 H   0  0  0  0  0  0  0  0  0  0  0  0
   63.6055   31.8766   48.4255 H   0  0  0  0  0  0  0  0  0  0  0  0
   65.0399   32.9578   48.4255 H   0  0  0  0  0  0  0  0  0  0  0  0
   60.8633   34.9009   49.7211 H   0  0  0  0  0  0  0  0  0  0  0  0
   58.8274   35.0525   48.2911 H   0  0  0  0  0  0  0  0  0  0  0  0
   57.7678   34.8000   46.2376 H   0  0  0  0  0  0  0  0  0  0  0  0
   58.7843   34.6743   44.7537 H   0  0  0  0  0  0  0  0  0  0  0  0
   57.6504   29.3530   42.9197 H   0  0  0  0  0  0  0  0  0  0  0  0
   57.9584   26.9031   42.6102 H   0  0  0  0  0  0  0  0  0  0  0  0
   58.6100   25.4695   44.5408 H   0  0  0  0  0  0  0  0  0  0  0  0
   59.0221   26.4891   46.7727 H   0  0  0  0  0  0  0  0  0  0  0  0
   60.1600   30.6620   46.7170 H   0  0  0  0  0  0  0  0  0  0  0  0
   57.6013   31.7586   48.5523 H   0  0  0  0  0  0  0  0  0  0  0  0
   57.6164   33.1062   50.6492 H   0  0  0  0  0  0  0  0  0  0  0  0
   59.6787   33.2160   52.0512 H   0  0  0  0  0  0  0  0  0  0  0  0
   60.9774   33.1879   45.0281 H   0  0  0  0  0  0  0  0  0  0  0  0
   63.0140   33.0405   46.4546 H   0  0  0  0  0  0  0  0  0  0  0  0
  1  2  1  0
  2  3  1  0
  3  4  2  0
  4  5  1  0
  5  6  2  0
  6  7  1  0
  7  8  1  0
  8  9  2  0
  9 10  1  0
 10 11  1  0
 11 12  1  0
 12 13  2  0
 13 14  1  0
 14 15  2  0
 15 16  1  0
 16 17  2  0
 17 18  1  0
 18 19  2  0
 18 20  1  0
 20 21  1  0
 21 22  2  0
 22 23  1  0
 23 24  2  0
 24 25  1  0
 25 26  1  0
 25 27  2  0
 27 28  1  0
 11 29  2  0
  6 30  1  0
 30 31  2  0
 31  3  1  0
 29  8  1  0
 17 12  1  0
 27 21  1  0
  1 32  1  0
  1 33  1  0
  1 34  1  0
  4 35  1  0
  5 36  1  0
  7 37  1  0
  7 38  1  0
 13 39  1  0
 14 40  1  0
 15 41  1  0
 16 42  1  0
 20 43  1  0
 22 44  1  0
 23 45  1  0
 24 46  1  0
 30 47  1  0
 31 48  1  0
M  END
>  <UniqueID>  (38) 
35

>  <SMILES>  (38) 
COc1ccc(Cc2noc(-c3ccccc3C(=O)Nc3cccc(F)c3F)n2)cc1

>  <Energy>  (38) 
94.31018282904543

>  <Genealogy>  (38) 
COc1ccc(Cc2noc(-c3ccccc3C(=O)Nc3cccc(F)c3F)n2)cc1 (3D coordinates assigned)
COc1ccc(Cc2noc(-c3ccccc3C(=O)Nc3cccc(F)c3F)n2)cc1 (optimized conformer: 94.31018282904543 kcal/mol)

>  <smiles>  (38) 
COc1ccc(Cc2noc(-c3ccccc3C(=O)Nc3cccc(F)c3F)n2)cc1

>  <score_type>  (38) 
oracle

>  <origin>  (38) 
adg

>  <m_score__min__energy>  (38) 
-8.7599999999999998

>  <m_primary>  (38) 
energy

$$$$
38:0
     RDKit          3D

 53 55  0  0  0  0  0  0  0  0999 V2000
   58.1000   32.6730   43.0440 C   0  0  0  0  0  0  0  0  0  0  0  0
   58.3650   33.0650   44.4770 C   0  0  0  0  0  0  0  0  0  0  0  0
   58.7090   34.4000   44.7570 C   0  0  0  0  0  0  0  0  0  0  0  0
   59.0230   34.7960   46.0580 C   0  0  0  0  0  0  0  0  0  0  0  0
   58.9900   33.8680   47.0970 C   0  0  0  0  0  0  0  0  0  0  0  0
   58.6330   32.5410   46.8410 C   0  0  0  0  0  0  0  0  0  0  0  0
   58.2940   32.1270   45.5410 C   0  0  0  0  0  0  0  0  0  0  0  0
   57.9130   30.7130   45.3260 C   0  0  0  0  0  0  0  0  0  0  0  0
   56.6980   30.4200   45.1600 O   0  0  0  0  0  0  0  0  0  0  0  0
   58.9170   29.6900   45.2390 N   0  0  0  0  0  0  0  0  0  0  0  0
   58.6590   28.2940   45.4640 C   0  0  0  0  0  0  0  0  0  0  0  0
   58.3860   27.4190   44.3980 C   0  0  0  0  0  0  0  0  0  0  0  0
   58.1340   26.0670   44.6420 C   0  0  0  0  0  0  0  0  0  0  0  0
   58.1460   25.5680   45.9530 C   0  0  0  0  0  0  0  0  0  0  0  0
   57.9190   24.1000   46.2050 C   0  0  0  0  0  0  0  0  0  0  0  0
   57.2860   23.8580   47.5770 C   0  0  0  0  0  0  0  0  0  0  0  0
   55.9570   24.4890   47.6420 N   0  0  0  0  0  0  0  0  0  0  0  0
   54.8990   23.5700   47.1980 C   0  0  0  0  0  0  0  0  0  0  0  0
   54.4470   23.9190   45.7660 C   0  0  1  0  0  0  0  0  0  0  0  0
   54.5290   25.3050   45.5260 O   0  0  0  0  0  0  0  0  0  0  0  0
   55.2380   23.1420   44.7310 C   0  0  0  0  0  0  0  0  0  0  0  0
   55.7230   23.7550   43.5600 C   0  0  0  0  0  0  0  0  0  0  0  0
   56.4510   23.0110   42.6310 C   0  0  0  0  0  0  0  0  0  0  0  0
   56.7180   21.6670   42.8890 C   0  0  0  0  0  0  0  0  0  0  0  0
   56.2660   21.0920   44.0350 N   0  0  0  0  0  0  0  0  0  0  0  0
   55.5460   21.7900   44.9520 C   0  0  0  0  0  0  0  0  0  0  0  0
   58.3980   26.4450   47.0190 C   0  0  0  0  0  0  0  0  0  0  0  0
   58.6290   27.8010   46.7770 C   0  0  0  0  0  0  0  0  0  0  0  0
   57.4841   31.7619   43.0210 H   0  0  0  0  0  0  0  0  0  0  0  0
   57.5673   33.4887   42.5332 H   0  0  0  0  0  0  0  0  0  0  0  0
   59.0555   32.4827   42.5332 H   0  0  0  0  0  0  0  0  0  0  0  0
   58.7307   35.1391   43.9426 H   0  0  0  0  0  0  0  0  0  0  0  0
   59.2967   35.8414   46.2633 H   0  0  0  0  0  0  0  0  0  0  0  0
   59.2453   34.1802   48.1204 H   0  0  0  0  0  0  0  0  0  0  0  0
   58.6171   31.8130   47.6655 H   0  0  0  0  0  0  0  0  0  0  0  0
   59.8680   29.9720   44.9060 H   0  0  0  0  0  0  0  0  0  0  0  0
   58.3708   27.8010   43.3666 H   0  0  0  0  0  0  0  0  0  0  0  0
   57.9249   25.3894   43.8011 H   0  0  0  0  0  0  0  0  0  0  0  0
   57.2497   23.7031   45.4275 H   0  0  0  0  0  0  0  0  0  0  0  0
   58.8937   23.5907   46.1798 H   0  0  0  0  0  0  0  0  0  0  0  0
   57.1829   22.7756   47.7439 H   0  0  0  0  0  0  0  0  0  0  0  0
   57.9305   24.2977   48.3524 H   0  0  0  0  0  0  0  0  0  0  0  0
   55.9540   25.3190   47.0000 H   0  0  0  0  0  0  0  0  0  0  0  0
   55.2837   22.5396   47.2152 H   0  0  0  0  0  0  0  0  0  0  0  0
   54.0379   23.6645   47.8760 H   0  0  0  0  0  0  0  0  0  0  0  0
   53.3916   23.6228   45.6739 H   0  0  0  0  0  0  0  0  0  0  0  0
   54.7200   25.7620   46.3880 H   0  0  0  0  0  0  0  0  0  0  0  0
   55.5277   24.8220   43.3773 H   0  0  0  0  0  0  0  0  0  0  0  0
   56.8110   23.4804   41.7036 H   0  0  0  0  0  0  0  0  0  0  0  0
   57.2944   21.0720   42.1653 H   0  0  0  0  0  0  0  0  0  0  0  0
   55.2029   21.2936   45.8717 H   0  0  0  0  0  0  0  0  0  0  0  0
   58.4137   26.0627   48.0503 H   0  0  0  0  0  0  0  0  0  0  0  0
   58.7885   28.4872   47.6218 H   0  0  0  0  0  0  0  0  0  0  0  0
  1  2  1  0
  2  3  2  0
  3  4  1  0
  4  5  2  0
  5  6  1  0
  6  7  2  0
  7  8  1  0
  8  9  2  0
  8 10  1  0
 10 11  1  0
 11 12  2  0
 12 13  1  0
 13 14  2  0
 14 15  1  0
 15 16  1  0
 16 17  1  0
 17 18  1  0
 18 19  1  0
 19 20  1  0
 19 21  1  0
 21 22  2  0
 22 23  1  0
 23 24  2  0
 24 25  1  0
 25 26  2  0
 14 27  1  0
 27 28  2  0
  7  2  1  0
 28 11  1  0
 26 21  1  0
  1 29  1  0
  1 30  1  0
  1 31  1  0
  3 32  1  0
  4 33  1  0
  5 34  1  0
  6 35  1  0
 10 36  1  0
 12 37  1  0
 13 38  1  0
 15 39  1  0
 15 40  1  0
 16 41  1  0
 16 42  1  0
 17 43  1  0
 18 44  1  0
 18 45  1  0
 19 46  1  1
 20 47  1  0
 22 48  1  0
 23 49  1  0
 24 50  1  0
 26 51  1  0
 27 52  1  0
 28 53  1  0
M  END
>  <UniqueID>  (39) 
36

>  <SMILES>  (39) 
Cc1ccccc1C(=O)Nc1ccc(CCNC[C@@H](O)c2cccnc2)cc1

>  <Energy>  (39) 
58.82613244024158

>  <Genealogy>  (39) 
Cc1ccccc1C(=O)Nc1ccc(CCNC[C@@H](O)c2cccnc2)cc1 (chirality)
Cc1ccccc1C(=O)Nc1ccc(CCNC[C@@H](O)c2cccnc2)cc1 (3D coordinates assigned)
Cc1ccccc1C(=O)Nc1ccc(CCNC[C@@H](O)c2cccnc2)cc1 (optimized conformer: 58.82613244024158 kcal/mol)

>  <smiles>  (39) 
Cc1ccccc1C(=O)Nc1ccc(CCNCC(O)c2cccnc2)cc1

>  <score_type>  (39) 
oracle

>  <origin>  (39) 
adg

>  <m_score__min__energy>  (39) 
-9.5299999999999994

>  <m_primary>  (39) 
energy

$$$$
39:0
     RDKit          3D

 54 56  0  0  0  0  0  0  0  0999 V2000
   64.4640   33.4130   49.4230 C   0  0  0  0  0  0  0  0  0  0  0  0
   63.3290   32.5790   48.8870 C   0  0  0  0  0  0  0  0  0  0  0  0
   62.7570   31.5900   49.7030 C   0  0  0  0  0  0  0  0  0  0  0  0
   61.7010   30.8080   49.2360 C   0  0  0  0  0  0  0  0  0  0  0  0
   61.1940   30.9900   47.9480 C   0  0  0  0  0  0  0  0  0  0  0  0
   60.1360   30.1660   47.5330 O   0  0  0  0  0  0  0  0  0  0  0  0
   60.2250   29.1080   46.5810 C   0  0  0  0  0  0  0  0  0  0  0  0
   59.7030   27.7810   47.1550 C   0  0  0  0  0  0  0  0  0  0  0  0
   58.1700   27.6720   47.1970 C   0  0  0  0  0  0  0  0  0  0  0  0
   57.6180   27.2510   45.8880 N   0  0  0  0  0  0  0  0  0  0  0  0
   58.6840   26.9570   44.9120 C   0  0  0  0  0  0  0  0  0  0  0  0
   58.2550   27.5370   43.5790 C   0  0  0  0  0  0  0  0  0  0  0  0
   57.3990   28.7220   43.9580 C   0  0  2  0  0  0  0  0  0  0  0  0
   58.2600   29.8960   44.1580 N   0  0  0  0  0  0  0  0  0  0  0  0
   57.3660   31.3910   44.1050 S   0  0  0  0  0  0  0  0  0  0  0  0
   55.9280   31.1690   44.4910 O   0  0  0  0  0  0  0  0  0  0  0  0
   57.4090   31.9380   42.7070 O   0  0  0  0  0  0  0  0  0  0  0  0
   58.1140   32.5610   45.1890 C   0  0  0  0  0  0  0  0  0  0  0  0
   58.7050   33.7290   44.6880 C   0  0  0  0  0  0  0  0  0  0  0  0
   59.2660   34.6630   45.5650 C   0  0  0  0  0  0  0  0  0  0  0  0
   59.2390   34.4350   46.9430 C   0  0  0  0  0  0  0  0  0  0  0  0
   58.6490   33.2720   47.4470 C   0  0  0  0  0  0  0  0  0  0  0  0
   58.6150   33.0540   48.7850 F   0  0  0  0  0  0  0  0  0  0  0  0
   58.0890   32.3350   46.5730 C   0  0  0  0  0  0  0  0  0  0  0  0
   56.7540   28.2750   45.2680 C   0  0  0  0  0  0  0  0  0  0  0  0
   61.7530   31.9860   47.1250 C   0  0  0  0  0  0  0  0  0  0  0  0
   62.8130   32.7870   47.5860 C   0  0  0  0  0  0  0  0  0  0  0  0
   63.3920   33.8400   46.6770 C   0  0  0  0  0  0  0  0  0  0  0  0
   64.4429   33.3975   50.5227 H   0  0  0  0  0  0  0  0  0  0  0  0
   65.4206   33.0014   49.0688 H   0  0  0  0  0  0  0  0  0  0  0  0
   64.3570   34.4489   49.0688 H   0  0  0  0  0  0  0  0  0  0  0  0
   63.1453   31.4305   50.7198 H   0  0  0  0  0  0  0  0  0  0  0  0
   61.2627   30.0394   49.8896 H   0  0  0  0  0  0  0  0  0  0  0  0
   59.6275   29.3733   45.6964 H   0  0  0  0  0  0  0  0  0  0  0  0
   61.2840   28.9737   46.3157 H   0  0  0  0  0  0  0  0  0  0  0  0
   60.0903   26.9602   46.5334 H   0  0  0  0  0  0  0  0  0  0  0  0
   60.0522   27.7282   48.1967 H   0  0  0  0  0  0  0  0  0  0  0  0
   57.8853   26.9319   47.9594 H   0  0  0  0  0  0  0  0  0  0  0  0
   57.7607   28.6635   47.4406 H   0  0  0  0  0  0  0  0  0  0  0  0
   59.6279   27.4195   45.2363 H   0  0  0  0  0  0  0  0  0  0  0  0
   58.8439   25.8719   44.8285 H   0  0  0  0  0  0  0  0  0  0  0  0
   59.1285   27.8568   42.9919 H   0  0  0  0  0  0  0  0  0  0  0  0
   57.7189   26.8092   42.9522 H   0  0  0  0  0  0  0  0  0  0  0  0
   56.6540   29.0061   43.2002 H   0  0  0  0  0  0  0  0  0  0  0  0
   58.7277   33.9114   43.6035 H   0  0  0  0  0  0  0  0  0  0  0  0
   59.7293   35.5787   45.1690 H   0  0  0  0  0  0  0  0  0  0  0  0
   59.6817   35.1701   47.6312 H   0  0  0  0  0  0  0  0  0  0  0  0
   57.6281   31.4192   46.9716 H   0  0  0  0  0  0  0  0  0  0  0  0
   56.6538   29.1359   45.9453 H   0  0  0  0  0  0  0  0  0  0  0  0
   55.7545   27.8587   45.0740 H   0  0  0  0  0  0  0  0  0  0  0  0
   61.3564   32.1394   46.1105 H   0  0  0  0  0  0  0  0  0  0  0  0
   63.8343   34.6445   47.2829 H   0  0  0  0  0  0  0  0  0  0  0  0
   64.1692   33.3894   46.0422 H   0  0  0  0  0  0  0  0  0  0  0  0
   62.5952   34.2549   46.0422 H   0  0  0  0  0  0  0  0  0  0  0  0
  1  2  1  0
  2  3  2  0
  3  4  1  0
  4  5  2  0
  5  6  1  0
  6  7  1  0
  7  8  1  0
  8  9  1  0
  9 10  1  0
 10 11  1  0
 11 12  1  0
 12 13  1  0
 13 14  1  0
 14 15  1  0
 15 16  2  0
 15 17  2  0
 15 18  1  0
 18 19  2  0
 19 20  1  0
 20 21  2  0
 21 22  1  0
 22 23  1  0
 22 24  2  0
 13 25  1  0
  5 26  1  0
 26 27  2  0
 27 28  1  0
 27  2  1  0
 25 10  1  0
 24 18  1  0
  1 29  1  0
  1 30  1  0
  1 31  1  0
  3 32  1  0
  4 33  1  0
  7 34  1  0
  7 35  1  0
  8 36  1  0
  8 37  1  0
  9 38  1  0
  9 39  1  0
 11 40  1  0
 11 41  1  0
 12 42  1  0
 12 43  1  0
 13 44  1  6
 19 45  1  0
 20 46  1  0
 21 47  1  0
 24 48  1  0
 25 49  1  0
 25 50  1  0
 26 51  1  0
 28 52  1  0
 28 53  1  0
 28 54  1  0
M  CHG  1  14  -1
M  END
>  <UniqueID>  (40) 
37

>  <SMILES>  (40) 
Cc1ccc(OCCCN2CC[C@H]([N-]S(=O)(=O)c3cccc(F)c3)C2)cc1C

>  <Energy>  (40) 
56.062387848393726

>  <Genealogy>  (40) 
Cc1ccc(OCCCN2CCC([N-]S(=O)(=O)c3cccc(F)c3)C2)cc1C (protonated)
Cc1ccc(OCCCN2CC[C@H]([N-]S(=O)(=O)c3cccc(F)c3)C2)cc1C (chirality)
Cc1ccc(OCCCN2CC[C@H]([N-]S(=O)(=O)c3cccc(F)c3)C2)cc1C (3D coordinates assigned)
Cc1ccc(OCCCN2CC[C@H]([N-]S(=O)(=O)c3cccc(F)c3)C2)cc1C (nonaromatic ring conformer: 56.062387848393726 kcal/mol)

>  <smiles>  (40) 
Cc1ccc(OCCCN2CCC(NS(=O)(=O)c3cccc(F)c3)C2)cc1C

>  <score_type>  (40) 
oracle

>  <origin>  (40) 
adg

>  <m_score__min__energy>  (40) 
-11

>  <m_primary>  (40) 
energy

$$$$
40:0
     RDKit          3D

 29 30  0  0  0  0  0  0  0  0999 V2000
   58.9988   35.9396   46.8528 H   0  0  0  0  0  0  0  0  0  0  0  0
   58.9030   34.8780   46.5810 C   0  0  0  0  0  0  0  0  0  0  0  0
   58.9750   33.8940   47.5710 C   0  0  0  0  0  0  0  0  0  0  0  0
   59.1364   34.1810   48.6206 H   0  0  0  0  0  0  0  0  0  0  0  0
   58.8420   32.5450   47.2280 C   0  0  0  0  0  0  0  0  0  0  0  0
   58.9150   31.3120   48.4730 Cl  0  0  0  0  0  0  0  0  0  0  0  0
   58.6460   32.1790   45.8910 C   0  0  0  0  0  0  0  0  0  0  0  0
   58.5284   31.1183   45.6244 H   0  0  0  0  0  0  0  0  0  0  0  0
   58.5990   33.1640   44.8870 C   0  0  0  0  0  0  0  0  0  0  0  0
   58.3890   32.8250   43.5080 N   0  0  0  0  0  0  0  0  0  0  0  0
   57.5460   31.7760   43.0130 C   0  0  0  0  0  0  0  0  0  0  0  0
   57.0710   31.8840   41.8520 O   0  0  0  0  0  0  0  0  0  0  0  0
   57.2640   30.5540   43.8020 C   0  0  0  0  0  0  0  0  0  0  0  0
   58.2970   29.6650   44.1240 C   0  0  0  0  0  0  0  0  0  0  0  0
   59.3241   29.8743   43.7903 H   0  0  0  0  0  0  0  0  0  0  0  0
   58.0280   28.5140   44.8670 C   0  0  0  0  0  0  0  0  0  0  0  0
   58.8385   27.8118   45.1120 H   0  0  0  0  0  0  0  0  0  0  0  0
   56.7130   28.2570   45.3010 C   0  0  0  0  0  0  0  0  0  0  0  0
   56.4080   27.1960   45.9970 N   0  0  0  0  0  0  0  0  0  0  0  0
   57.3480   26.3150   46.6840 C   0  0  0  0  0  0  0  0  0  0  0  0
   57.2280   26.4275   47.7716 H   0  0  0  0  0  0  0  0  0  0  0  0
   57.1479   25.2716   46.3990 H   0  0  0  0  0  0  0  0  0  0  0  0
   58.3763   26.5822   46.3990 H   0  0  0  0  0  0  0  0  0  0  0  0
   55.7270   29.1450   44.9910 N   0  0  0  0  0  0  0  0  0  0  0  0
   54.7490   28.9680   45.3170 H   0  0  0  0  0  0  0  0  0  0  0  0
   55.9700   30.2720   44.2670 C   0  0  0  0  0  0  0  0  0  0  0  0
   55.1464   30.9665   44.0448 H   0  0  0  0  0  0  0  0  0  0  0  0
   58.7090   34.5130   45.2440 C   0  0  0  0  0  0  0  0  0  0  0  0
   58.6426   35.2908   44.4690 H   0  0  0  0  0  0  0  0  0  0  0  0
  1  2  1  0
  2  3  2  0
  3  4  1  0
  3  5  1  0
  5  6  1  0
  5  7  2  0
  7  8  1  0
  7  9  1  0
  9 10  1  0
 10 11  1  0
 11 12  2  0
 11 13  1  0
 13 14  1  0
 14 15  1  0
 14 16  2  0
 16 17  1  0
 16 18  1  0
 18 19  2  0
 19 20  1  0
 20 21  1  0
 20 22  1  0
 20 23  1  0
 18 24  1  0
 24 25  1  0
 24 26  1  0
 26 27  1  0
  9 28  2  0
 28 29  1  0
 28  2  1  0
 26 13  2  0
M  CHG  1  10  -1
M  END
>  <UniqueID>  (41) 
38

>  <SMILES>  (41) 
C/N=c1\ccc(C(=O)[N-]c2cccc(Cl)c2)c[nH]1

>  <Energy>  (41) 
37.485942891267825

>  <Genealogy>  (41) 
CN=c1ccc(C(=O)[N-]c2cccc(Cl)c2)c[nH]1 (protonated)
C/N=c1\ccc(C(=O)[N-]c2cccc(Cl)c2)c[nH]1 (cis-trans isomerization)
C/N=c1\ccc(C(=O)[N-]c2cccc(Cl)c2)c[nH]1 (3D coordinates assigned)
C/N=c1\ccc(C(=O)[N-]c2cccc(Cl)c2)c[nH]1 (optimized conformer: 37.485942891267825 kcal/mol)

>  <smiles>  (41) 
CN=c1ccc(C(=O)Nc2cccc(Cl)c2)c[nH]1

>  <score_type>  (41) 
oracle

>  <origin>  (41) 
adg

>  <m_score__min__energy>  (41) 
-7.8899999999999997

>  <m_primary>  (41) 
energy

$$$$
41:0
     RDKit          3D

 58 60  0  0  0  0  0  0  0  0999 V2000
   63.3530   32.7410   47.1580 C   0  0  0  0  0  0  0  0  0  0  0  0
   62.3340   33.4330   46.4430 O   0  0  0  0  0  0  0  0  0  0  0  0
   60.9670   33.3650   46.7480 C   0  0  0  0  0  0  0  0  0  0  0  0
   59.9840   33.9830   45.9520 C   0  0  0  0  0  0  0  0  0  0  0  0
   58.6270   33.9070   46.3070 C   0  0  0  0  0  0  0  0  0  0  0  0
   57.5740   34.5530   45.4430 C   0  0  0  0  0  0  0  0  0  0  0  0
   57.0240   33.5750   44.5070 N   0  0  0  0  0  0  0  0  0  0  0  0
   57.7640   32.4600   43.9940 C   0  0  0  0  0  0  0  0  0  0  0  0
   58.5530   32.6260   43.0230 O   0  0  0  0  0  0  0  0  0  0  0  0
   57.5860   31.1130   44.5810 C   0  0  0  0  0  0  0  0  0  0  0  0
   56.4190   30.3710   44.3330 C   0  0  0  0  0  0  0  0  0  0  0  0
   56.2790   29.0770   44.8410 C   0  0  0  0  0  0  0  0  0  0  0  0
   57.3030   28.4930   45.6080 C   0  0  0  0  0  0  0  0  0  0  0  0
   57.1790   27.1140   46.1440 C   0  0  0  0  0  0  0  0  0  0  0  0
   58.1260   26.5790   47.0300 C   0  0  0  0  0  0  0  0  0  0  0  0
   57.9430   25.2800   47.5030 C   0  0  0  0  0  0  0  0  0  0  0  0
   56.8620   24.5590   47.1100 N   0  0  0  0  0  0  0  0  0  0  0  0
   55.9420   25.0900   46.2650 C   0  0  0  0  0  0  0  0  0  0  0  0
   54.7770   24.2680   45.8190 C   0  0  0  0  0  0  0  0  0  0  0  0
   56.1090   26.3510   45.7870 N   0  0  0  0  0  0  0  0  0  0  0  0
   58.4560   29.2470   45.8790 C   0  0  0  0  0  0  0  0  0  0  0  0
   58.5990   30.5390   45.3660 C   0  0  0  0  0  0  0  0  0  0  0  0
   58.2610   33.2190   47.4750 C   0  0  0  0  0  0  0  0  0  0  0  0
   59.2320   32.5660   48.2570 C   0  0  0  0  0  0  0  0  0  0  0  0
   58.9000   31.8170   49.3950 O   0  0  0  0  0  0  0  0  0  0  0  0
   58.8930   30.3900   49.4440 C   0  0  0  0  0  0  0  0  0  0  0  0
   58.7680   29.9210   50.8930 C   0  0  0  0  0  0  0  0  0  0  0  0
   57.3940   30.1260   51.4050 N   0  0  0  0  0  0  0  0  0  0  0  0
   57.2100   29.3870   52.6620 C   0  0  0  0  0  0  0  0  0  0  0  0
   57.1200   31.5560   51.6370 C   0  0  0  0  0  0  0  0  0  0  0  0
   60.5780   32.6540   47.8880 C   0  0  0  0  0  0  0  0  0  0  0  0
   63.1846   32.8553   48.2390 H   0  0  0  0  0  0  0  0  0  0  0  0
   63.3261   31.6736   46.8936 H   0  0  0  0  0  0  0  0  0  0  0  0
   64.3353   33.1596   46.8936 H   0  0  0  0  0  0  0  0  0  0  0  0
   60.2809   34.5297   45.0448 H   0  0  0  0  0  0  0  0  0  0  0  0
   56.7662   34.9398   46.0817 H   0  0  0  0  0  0  0  0  0  0  0  0
   58.0297   35.3779   44.8757 H   0  0  0  0  0  0  0  0  0  0  0  0
   55.6089   30.8125   43.7340 H   0  0  0  0  0  0  0  0  0  0  0  0
   55.3587   28.5093   44.6390 H   0  0  0  0  0  0  0  0  0  0  0  0
   58.9964   27.1729   47.3456 H   0  0  0  0  0  0  0  0  0  0  0  0
   58.6754   24.8391   48.1953 H   0  0  0  0  0  0  0  0  0  0  0  0
   54.2381   23.8878   46.6993 H   0  0  0  0  0  0  0  0  0  0  0  0
   54.0998   24.8894   45.2146 H   0  0  0  0  0  0  0  0  0  0  0  0
   55.1354   23.4216   45.2146 H   0  0  0  0  0  0  0  0  0  0  0  0
   59.2545   28.8165   46.5012 H   0  0  0  0  0  0  0  0  0  0  0  0
   59.5136   31.1117   45.5791 H   0  0  0  0  0  0  0  0  0  0  0  0
   57.2051   33.1901   47.7818 H   0  0  0  0  0  0  0  0  0  0  0  0
   58.0406   30.0091   48.8623 H   0  0  0  0  0  0  0  0  0  0  0  0
   59.8329   30.0080   49.0190 H   0  0  0  0  0  0  0  0  0  0  0  0
   59.0148   28.8504   50.9463 H   0  0  0  0  0  0  0  0  0  0  0  0
   59.4617   30.5099   51.5110 H   0  0  0  0  0  0  0  0  0  0  0  0
   57.3784   30.0634   53.5130 H   0  0  0  0  0  0  0  0  0  0  0  0
   56.1854   28.9893   52.7069 H   0  0  0  0  0  0  0  0  0  0  0  0
   57.9285   28.5553   52.7069 H   0  0  0  0  0  0  0  0  0  0  0  0
   57.0826   31.7513   52.7189 H   0  0  0  0  0  0  0  0  0  0  0  0
   57.9186   32.1608   51.1826 H   0  0  0  0  0  0  0  0  0  0  0  0
   56.1544   31.8228   51.1826 H   0  0  0  0  0  0  0  0  0  0  0  0
   61.3422   32.1567   48.5034 H   0  0  0  0  0  0  0  0  0  0  0  0
  1  2  1  0
  2  3  1  0
  3  4  2  0
  4  5  1  0
  5  6  1  0
  6  7  1  0
  7  8  1  0
  8  9  2  0
  8 10  1  0
 10 11  2  0
 11 12  1  0
 12 13  2  0
 13 14  1  0
 14 15  2  0
 15 16  1  0
 16 17  2  0
 17 18  1  0
 18 19  1  0
 18 20  2  0
 13 21  1  0
 21 22  2  0
  5 23  2  0
 23 24  1  0
 24 25  1  0
 25 26  1  0
 26 27  1  0
 27 28  1  0
 28 29  1  0
 28 30  1  0
 24 31  2  0
 31  3  1  0
 22 10  1  0
 20 14  1  0
  1 32  1  0
  1 33  1  0
  1 34  1  0
  4 35  1  0
  6 36  1  0
  6 37  1  0
 11 38  1  0
 12 39  1  0
 15 40  1  0
 16 41  1  0
 19 42  1  0
 19 43  1  0
 19 44  1  0
 21 45  1  0
 22 46  1  0
 23 47  1  0
 26 48  1  0
 26 49  1  0
 27 50  1  0
 27 51  1  0
 29 52  1  0
 29 53  1  0
 29 54  1  0
 30 55  1  0
 30 56  1  0
 30 57  1  0
 31 58  1  0
M  CHG  1   7  -1
M  END
>  <UniqueID>  (42) 
39

>  <SMILES>  (42) 
COc1cc(C[N-]C(=O)c2ccc(-c3ccnc(C)n3)cc2)cc(OCCN(C)C)c1

>  <Energy>  (42) 
61.3320449705832

>  <Genealogy>  (42) 
COc1cc(C[N-]C(=O)c2ccc(-c3ccnc(C)n3)cc2)cc(OCCN(C)C)c1 (protonated)
COc1cc(C[N-]C(=O)c2ccc(-c3ccnc(C)n3)cc2)cc(OCCN(C)C)c1 (3D coordinates assigned)
COc1cc(C[N-]C(=O)c2ccc(-c3ccnc(C)n3)cc2)cc(OCCN(C)C)c1 (optimized conformer: 61.3320449705832 kcal/mol)

>  <smiles>  (42) 
COc1cc(CNC(=O)c2ccc(-c3ccnc(C)n3)cc2)cc(OCCN(C)C)c1

>  <score_type>  (42) 
oracle

>  <origin>  (42) 
adg

>  <m_score__min__energy>  (42) 
-9.6400000000000006

>  <m_primary>  (42) 
energy

$$$$
42:0
     RDKit          3D

 37 39  0  0  0  0  0  0  0  0999 V2000
   56.1590   25.4580   46.7120 O   0  0  0  0  0  0  0  0  0  0  0  0
   56.6000   26.6140   46.4830 C   0  0  0  0  0  0  0  0  0  0  0  0
   57.8030   27.1260   47.2190 C   0  0  0  0  0  0  0  0  0  0  0  0
   58.6160   28.0880   46.3400 C   0  0  0  0  0  0  0  0  0  0  0  0
   57.7400   29.1100   45.6530 C   0  0  0  0  0  0  0  0  0  0  0  0
   58.2530   30.3720   45.3160 C   0  0  0  0  0  0  0  0  0  0  0  0
   57.4700   31.2870   44.5990 C   0  0  0  0  0  0  0  0  0  0  0  0
   58.1170   32.8820   44.2220 S   0  0  0  0  0  0  0  0  0  0  0  0
   58.4520   32.9400   42.7580 O   0  0  0  0  0  0  0  0  0  0  0  0
   57.0910   33.9420   44.5160 O   0  0  0  0  0  0  0  0  0  0  0  0
   59.5530   33.1860   45.1510 N   0  0  0  0  0  0  0  0  0  0  0  0
   59.1910   33.7600   46.4490 C   0  0  0  0  0  0  0  0  0  0  0  0
   60.4020   33.8010   47.3390 C   0  0  0  0  0  0  0  0  0  0  0  0
   61.6800   33.5530   46.8080 C   0  0  0  0  0  0  0  0  0  0  0  0
   62.8080   33.6260   47.6300 C   0  0  0  0  0  0  0  0  0  0  0  0
   62.6710   33.9560   48.9810 C   0  0  0  0  0  0  0  0  0  0  0  0
   61.4050   34.2200   49.5120 C   0  0  0  0  0  0  0  0  0  0  0  0
   60.2730   34.1480   48.6930 C   0  0  0  0  0  0  0  0  0  0  0  0
   56.1710   30.9330   44.2080 C   0  0  0  0  0  0  0  0  0  0  0  0
   55.6610   29.6700   44.5230 C   0  0  0  0  0  0  0  0  0  0  0  0
   56.4400   28.7590   45.2440 C   0  0  0  0  0  0  0  0  0  0  0  0
   55.9070   27.4740   45.5760 N   0  0  0  0  0  0  0  0  0  0  0  0
   57.4724   27.6573   48.1237 H   0  0  0  0  0  0  0  0  0  0  0  0
   58.4410   26.2709   47.4867 H   0  0  0  0  0  0  0  0  0  0  0  0
   59.3461   28.6146   46.9722 H   0  0  0  0  0  0  0  0  0  0  0  0
   59.1166   27.4936   45.5615 H   0  0  0  0  0  0  0  0  0  0  0  0
   59.2755   30.6446   45.6163 H   0  0  0  0  0  0  0  0  0  0  0  0
   60.0050   32.2580   45.3190 H   0  0  0  0  0  0  0  0  0  0  0  0
   58.8090   34.7812   46.3037 H   0  0  0  0  0  0  0  0  0  0  0  0
   58.4140   33.1389   46.9186 H   0  0  0  0  0  0  0  0  0  0  0  0
   61.7924   33.3009   45.7432 H   0  0  0  0  0  0  0  0  0  0  0  0
   63.8054   33.4233   47.2128 H   0  0  0  0  0  0  0  0  0  0  0  0
   63.5598   34.0081   49.6270 H   0  0  0  0  0  0  0  0  0  0  0  0
   61.2988   34.4845   50.5744 H   0  0  0  0  0  0  0  0  0  0  0  0
   59.2789   34.3640   49.1114 H   0  0  0  0  0  0  0  0  0  0  0  0
   55.5511   31.6514   43.6516 H   0  0  0  0  0  0  0  0  0  0  0  0
   54.6457   29.3923   44.2034 H   0  0  0  0  0  0  0  0  0  0  0  0
  1  2  2  0
  2  3  1  0
  3  4  1  0
  4  5  1  0
  5  6  2  0
  6  7  1  0
  7  8  1  0
  8  9  2  0
  8 10  2  0
  8 11  1  0
 11 12  1  0
 12 13  1  0
 13 14  2  0
 14 15  1  0
 15 16  2  0
 16 17  1  0
 17 18  2  0
  7 19  2  0
 19 20  1  0
 20 21  2  0
 21 22  1  0
 22  2  1  0
 21  5  1  0
 18 13  1  0
  3 23  1  0
  3 24  1  0
  4 25  1  0
  4 26  1  0
  6 27  1  0
 11 28  1  0
 12 29  1  0
 12 30  1  0
 14 31  1  0
 15 32  1  0
 16 33  1  0
 17 34  1  0
 18 35  1  0
 19 36  1  0
 20 37  1  0
M  CHG  1  22  -1
M  END
>  <UniqueID>  (43) 
40

>  <SMILES>  (43) 
O=C1CCc2cc(S(=O)(=O)NCc3ccccc3)ccc2[N-]1

>  <Energy>  (43) 
35.951238058372006

>  <Genealogy>  (43) 
O=C1CCc2cc(S(=O)(=O)NCc3ccccc3)ccc2[N-]1 (protonated)
O=C1CCc2cc(S(=O)(=O)NCc3ccccc3)ccc2[N-]1 (3D coordinates assigned)
O=C1CCc2cc(S(=O)(=O)NCc3ccccc3)ccc2[N-]1 (nonaromatic ring conformer: 35.951238058372006 kcal/mol)

>  <smiles>  (43) 
O=C1CCc2cc(S(=O)(=O)NCc3ccccc3)ccc2N1

>  <score_type>  (43) 
oracle

>  <origin>  (43) 
adg

>  <m_score__min__energy>  (43) 
-9.8399999999999999

>  <m_primary>  (43) 
energy

$$$$
43:0
     RDKit          3D

 56 59  0  0  0  0  0  0  0  0999 V2000
   63.5830   33.8240   47.8250 C   0  0  0  0  0  0  0  0  0  0  0  0
   62.5140   33.9090   49.2530 S   0  0  0  0  0  0  0  0  0  0  0  0
   62.9960   34.9710   50.2090 O   0  0  0  0  0  0  0  0  0  0  0  0
   62.5430   32.5770   49.9540 O   0  0  0  0  0  0  0  0  0  0  0  0
   60.8800   34.2430   48.7770 N   0  0  0  0  0  0  0  0  0  0  0  0
   60.1810   33.6330   47.6840 C   0  0  0  0  0  0  0  0  0  0  0  0
   59.3900   34.4420   46.8650 C   0  0  0  0  0  0  0  0  0  0  0  0
   58.7040   33.8970   45.7790 C   0  0  0  0  0  0  0  0  0  0  0  0
   58.7780   32.5230   45.5020 C   0  0  0  0  0  0  0  0  0  0  0  0
   57.9970   31.9730   44.3660 C   0  0  0  0  0  0  0  0  0  0  0  0
   57.1120   30.9000   44.5590 C   0  0  0  0  0  0  0  0  0  0  0  0
   56.4240   30.3660   43.4660 C   0  0  0  0  0  0  0  0  0  0  0  0
   56.6030   30.8950   42.2240 N   0  0  0  0  0  0  0  0  0  0  0  0
   57.4390   31.9480   42.0100 C   0  0  0  0  0  0  0  0  0  0  0  0
   58.1440   32.5100   43.0790 C   0  0  0  0  0  0  0  0  0  0  0  0
   59.5750   31.6960   46.3280 C   0  0  0  0  0  0  0  0  0  0  0  0
   59.7110   30.2500   46.0700 C   0  0  0  0  0  0  0  0  0  0  0  0
   60.5750   29.8480   45.2450 O   0  0  0  0  0  0  0  0  0  0  0  0
   58.8690   29.3150   46.7660 N   0  0  0  0  0  0  0  0  0  0  0  0
   58.5670   27.9850   46.3080 C   0  0  0  0  0  0  0  0  0  0  0  0
   58.0510   27.7370   45.0190 C   0  0  0  0  0  0  0  0  0  0  0  0
   57.7370   26.4340   44.6190 C   0  0  0  0  0  0  0  0  0  0  0  0
   57.9180   25.3650   45.5050 C   0  0  0  0  0  0  0  0  0  0  0  0
   57.5530   23.9920   45.1030 C   0  0  0  0  0  0  0  0  0  0  0  0
   58.5150   23.2170   44.4320 C   0  0  0  0  0  0  0  0  0  0  0  0
   58.2050   21.9320   43.9820 C   0  0  0  0  0  0  0  0  0  0  0  0
   56.9310   21.4080   44.1980 C   0  0  0  0  0  0  0  0  0  0  0  0
   55.9650   22.1600   44.8770 C   0  0  0  0  0  0  0  0  0  0  0  0
   56.2660   23.4510   45.3460 C   0  0  0  0  0  0  0  0  0  0  0  0
   55.0360   24.3310   46.2780 S   0  0  0  0  0  0  0  0  0  0  0  0
   54.8220   25.9170   45.6160 N   0  0  0  0  0  0  0  0  0  0  0  0
   55.4740   24.4690   47.7090 O   0  0  0  0  0  0  0  0  0  0  0  0
   53.7330   23.5850   46.2550 O   0  0  0  0  0  0  0  0  0  0  0  0
   58.3850   25.6140   46.8040 C   0  0  0  0  0  0  0  0  0  0  0  0
   58.7130   26.9120   47.1970 C   0  0  0  0  0  0  0  0  0  0  0  0
   60.2710   32.2590   47.4080 C   0  0  0  0  0  0  0  0  0  0  0  0
   64.6292   33.7408   48.1546 H   0  0  0  0  0  0  0  0  0  0  0  0
   63.3180   32.9441   47.2204 H   0  0  0  0  0  0  0  0  0  0  0  0
   63.4603   34.7347   47.2204 H   0  0  0  0  0  0  0  0  0  0  0  0
   59.3071   35.5180   47.0780 H   0  0  0  0  0  0  0  0  0  0  0  0
   58.0991   34.5508   45.1335 H   0  0  0  0  0  0  0  0  0  0  0  0
   56.9610   30.4820   45.5652 H   0  0  0  0  0  0  0  0  0  0  0  0
   55.7378   29.5183   43.6090 H   0  0  0  0  0  0  0  0  0  0  0  0
   57.5599   32.3568   40.9960 H   0  0  0  0  0  0  0  0  0  0  0  0
   58.8104   33.3689   42.9111 H   0  0  0  0  0  0  0  0  0  0  0  0
   58.4270   29.6340   47.6590 H   0  0  0  0  0  0  0  0  0  0  0  0
   57.8944   28.5744   44.3232 H   0  0  0  0  0  0  0  0  0  0  0  0
   57.3474   26.2489   43.6071 H   0  0  0  0  0  0  0  0  0  0  0  0
   59.5213   23.6267   44.2599 H   0  0  0  0  0  0  0  0  0  0  0  0
   58.9649   21.3339   43.4578 H   0  0  0  0  0  0  0  0  0  0  0  0
   56.6841   20.3999   43.8335 H   0  0  0  0  0  0  0  0  0  0  0  0
   54.9632   21.7379   45.0449 H   0  0  0  0  0  0  0  0  0  0  0  0
   54.7830   26.5810   46.4210 H   0  0  0  0  0  0  0  0  0  0  0  0
   58.4931   24.7824   47.5159 H   0  0  0  0  0  0  0  0  0  0  0  0
   59.0897   27.0946   48.2142 H   0  0  0  0  0  0  0  0  0  0  0  0
   60.8949   31.6164   48.0465 H   0  0  0  0  0  0  0  0  0  0  0  0
  1  2  1  0
  2  3  2  0
  2  4  2  0
  2  5  1  0
  5  6  1  0
  6  7  2  0
  7  8  1  0
  8  9  2  0
  9 10  1  0
 10 11  2  0
 11 12  1  0
 12 13  2  0
 13 14  1  0
 14 15  2  0
  9 16  1  0
 16 17  1  0
 17 18  2  0
 17 19  1  0
 19 20  1  0
 20 21  2  0
 21 22  1  0
 22 23  2  0
 23 24  1  0
 24 25  2  0
 25 26  1  0
 26 27  2  0
 27 28  1  0
 28 29  2  0
 29 30  1  0
 30 31  1  0
 30 32  2  0
 30 33  2  0
 23 34  1  0
 34 35  2  0
 16 36  2  0
 36  6  1  0
 15 10  1  0
 35 20  1  0
 29 24  1  0
  1 37  1  0
  1 38  1  0
  1 39  1  0
  7 40  1  0
  8 41  1  0
 11 42  1  0
 12 43  1  0
 14 44  1  0
 15 45  1  0
 19 46  1  0
 21 47  1  0
 22 48  1  0
 25 49  1  0
 26 50  1  0
 27 51  1  0
 28 52  1  0
 31 53  1  0
 34 54  1  0
 35 55  1  0
 36 56  1  0
M  CHG  2   5  -1  31  -1
M  END
>  <UniqueID>  (44) 
41

>  <SMILES>  (44) 
CS(=O)(=O)[N-]c1ccc(-c2ccncc2)c(C(=O)Nc2ccc(-c3ccccc3S([NH-])(=O)=O)cc2)c1

>  <Energy>  (44) 
84.9640927151869

>  <Genealogy>  (44) 
CS(=O)(=O)[N-]c1ccc(-c2ccncc2)c(C(=O)Nc2ccc(-c3ccccc3S([NH-])(=O)=O)cc2)c1 (protonated)
CS(=O)(=O)[N-]c1ccc(-c2ccncc2)c(C(=O)Nc2ccc(-c3ccccc3S([NH-])(=O)=O)cc2)c1 (3D coordinates assigned)
CS(=O)(=O)[N-]c1ccc(-c2ccncc2)c(C(=O)Nc2ccc(-c3ccccc3S([NH-])(=O)=O)cc2)c1 (optimized conformer: 84.9640927151869 kcal/mol)

>  <smiles>  (44) 
CS(=O)(=O)Nc1ccc(-c2ccncc2)c(C(=O)Nc2ccc(-c3ccccc3S(N)(=O)=O)cc2)c1

>  <score_type>  (44) 
oracle

>  <origin>  (44) 
adg

>  <m_score__min__energy>  (44) 
-13.869999999999999

>  <m_primary>  (44) 
energy

$$$$
44:0
     RDKit          3D

 45 47  0  0  0  0  0  0  0  0999 V2000
   66.2040   32.7810   50.3910 C   0  0  0  0  0  0  0  0  0  0  0  0
   64.8580   33.0510   49.8040 C   0  0  0  0  0  0  0  0  0  0  0  0
   64.0970   33.8870   50.3610 O   0  0  0  0  0  0  0  0  0  0  0  0
   64.4060   32.2900   48.6720 N   0  0  0  0  0  0  0  0  0  0  0  0
   63.2190   32.5920   47.9190 C   0  0  0  0  0  0  0  0  0  0  0  0
   63.0360   33.8890   47.4180 C   0  0  0  0  0  0  0  0  0  0  0  0
   61.8870   34.2120   46.6950 C   0  0  0  0  0  0  0  0  0  0  0  0
   60.9000   33.2480   46.4760 C   0  0  0  0  0  0  0  0  0  0  0  0
   61.0490   31.9490   46.9920 C   0  0  0  0  0  0  0  0  0  0  0  0
   59.9940   30.9260   46.7750 C   0  0  0  0  0  0  0  0  0  0  0  0
   58.9690   31.1460   45.8390 C   0  0  0  0  0  0  0  0  0  0  0  0
   57.9890   30.1740   45.6180 C   0  0  0  0  0  0  0  0  0  0  0  0
   58.0220   28.9590   46.3200 C   0  0  0  0  0  0  0  0  0  0  0  0
   57.0060   27.9170   46.0440 C   0  0  0  0  0  0  0  0  0  0  0  0
   56.0600   28.1730   45.2510 O   0  0  0  0  0  0  0  0  0  0  0  0
   57.0470   26.6250   46.6660 N   0  0  0  0  0  0  0  0  0  0  0  0
   57.2420   25.3720   45.9950 C   0  0  0  0  0  0  0  0  0  0  0  0
   58.7560   24.7080   45.7230 S   0  0  0  0  0  0  0  0  0  0  0  0
   58.2180   23.3820   44.8450 C   0  0  0  0  0  0  0  0  0  0  0  0
   56.8270   23.4310   44.7650 C   0  0  0  0  0  0  0  0  0  0  0  0
   56.0370   22.3650   44.0660 C   0  0  0  0  0  0  0  0  0  0  0  0
   56.2620   24.5520   45.4190 C   0  0  0  0  0  0  0  0  0  0  0  0
   54.8080   24.7760   45.5610 C   0  0  0  0  0  0  0  0  0  0  0  0
   54.3090   26.0440   45.9820 N   0  0  0  0  0  0  0  0  0  0  0  0
   53.9970   23.8440   45.3170 O   0  0  0  0  0  0  0  0  0  0  0  0
   59.0270   28.7510   47.2790 C   0  0  0  0  0  0  0  0  0  0  0  0
   60.0070   29.7220   47.4990 C   0  0  0  0  0  0  0  0  0  0  0  0
   62.2110   31.6310   47.7190 C   0  0  0  0  0  0  0  0  0  0  0  0
   66.1348   32.7949   51.4887 H   0  0  0  0  0  0  0  0  0  0  0  0
   66.5578   31.7940   50.0584 H   0  0  0  0  0  0  0  0  0  0  0  0
   66.9111   33.5552   50.0584 H   0  0  0  0  0  0  0  0  0  0  0  0
   64.9290   31.4160   48.4360 H   0  0  0  0  0  0  0  0  0  0  0  0
   63.8033   34.6568   47.5961 H   0  0  0  0  0  0  0  0  0  0  0  0
   61.7580   35.2290   46.2962 H   0  0  0  0  0  0  0  0  0  0  0  0
   60.0014   33.5068   45.8967 H   0  0  0  0  0  0  0  0  0  0  0  0
   58.9377   32.0904   45.2759 H   0  0  0  0  0  0  0  0  0  0  0  0
   57.1868   30.3625   44.8893 H   0  0  0  0  0  0  0  0  0  0  0  0
   58.8578   22.6027   44.4052 H   0  0  0  0  0  0  0  0  0  0  0  0
   55.5560   21.7160   44.8127 H   0  0  0  0  0  0  0  0  0  0  0  0
   55.2662   22.8333   43.4363 H   0  0  0  0  0  0  0  0  0  0  0  0
   56.7093   21.7638   43.4363 H   0  0  0  0  0  0  0  0  0  0  0  0
   54.9490   26.7690   46.3730 H   0  0  0  0  0  0  0  0  0  0  0  0
   59.0425   27.8175   47.8606 H   0  0  0  0  0  0  0  0  0  0  0  0
   60.7951   29.5425   48.2451 H   0  0  0  0  0  0  0  0  0  0  0  0
   62.3326   30.6202   48.1355 H   0  0  0  0  0  0  0  0  0  0  0  0
  1  2  1  0
  2  3  2  0
  2  4  1  0
  4  5  1  0
  5  6  2  0
  6  7  1  0
  7  8  2  0
  8  9  1  0
  9 10  1  0
 10 11  2  0
 11 12  1  0
 12 13  2  0
 13 14  1  0
 14 15  2  0
 14 16  1  0
 16 17  1  0
 17 18  1  0
 18 19  1  0
 19 20  2  0
 20 21  1  0
 20 22  1  0
 22 23  1  0
 23 24  1  0
 23 25  2  0
 13 26  1  0
 26 27  2  0
  9 28  2  0
 28  5  1  0
 27 10  1  0
 22 17  2  0
  1 29  1  0
  1 30  1  0
  1 31  1  0
  4 32  1  0
  6 33  1  0
  7 34  1  0
  8 35  1  0
 11 36  1  0
 12 37  1  0
 19 38  1  0
 21 39  1  0
 21 40  1  0
 21 41  1  0
 24 42  1  0
 26 43  1  0
 27 44  1  0
 28 45  1  0
M  CHG  2  16  -1  24  -1
M  END
>  <UniqueID>  (45) 
42

>  <SMILES>  (45) 
CC(=O)Nc1cccc(-c2ccc(C(=O)[N-]c3scc(C)c3C([NH-])=O)cc2)c1

>  <Energy>  (45) 
90.2225164434232

>  <Genealogy>  (45) 
CC(=O)Nc1cccc(-c2ccc(C(=O)[N-]c3scc(C)c3C([NH-])=O)cc2)c1 (protonated)
CC(=O)Nc1cccc(-c2ccc(C(=O)[N-]c3scc(C)c3C([NH-])=O)cc2)c1 (3D coordinates assigned)
CC(=O)Nc1cccc(-c2ccc(C(=O)[N-]c3scc(C)c3C([NH-])=O)cc2)c1 (optimized conformer: 90.2225164434232 kcal/mol)

>  <smiles>  (45) 
CC(=O)Nc1cccc(-c2ccc(C(=O)Nc3scc(C)c3C(N)=O)cc2)c1

>  <score_type>  (45) 
oracle

>  <origin>  (45) 
adg

>  <m_score__min__energy>  (45) 
-13.140000000000001

>  <m_primary>  (45) 
energy

$$$$
45:0
     RDKit          3D

 60 63  0  0  0  0  0  0  0  0999 V2000
   57.8530   23.1180   44.1350 C   0  0  0  0  0  0  0  0  0  0  0  0
   57.2950   24.3190   43.6100 O   0  0  0  0  0  0  0  0  0  0  0  0
   57.6020   25.6070   44.0740 C   0  0  0  0  0  0  0  0  0  0  0  0
   57.9550   26.6510   43.1970 C   0  0  0  0  0  0  0  0  0  0  0  0
   58.2530   27.9190   43.6950 C   0  0  0  0  0  0  0  0  0  0  0  0
   58.2060   28.1660   45.0690 C   0  0  0  0  0  0  0  0  0  0  0  0
   58.6340   29.7640   45.6730 S   0  0  0  0  0  0  0  0  0  0  0  0
   57.4970   30.2850   46.5060 O   0  0  0  0  0  0  0  0  0  0  0  0
   59.8660   29.6950   46.5340 O   0  0  0  0  0  0  0  0  0  0  0  0
   58.8980   30.8370   44.3370 N   0  0  0  0  0  0  0  0  0  0  0  0
   57.4390   31.7170   43.9810 S   0  0  0  0  0  0  0  0  0  0  0  0
   57.1560   31.6230   42.5090 O   0  0  0  0  0  0  0  0  0  0  0  0
   56.2770   31.1320   44.7360 O   0  0  0  0  0  0  0  0  0  0  0  0
   57.6310   33.4040   44.4060 N   0  0  0  0  0  0  0  0  0  0  0  0
   56.8530   33.7720   45.6150 C   0  0  0  0  0  0  0  0  0  0  0  0
   57.3760   33.0980   46.9050 C   0  0  0  0  0  0  0  0  0  0  0  0
   58.8690   33.1850   46.9480 C   0  0  0  0  0  0  0  0  0  0  0  0
   59.6310   33.4420   45.8400 C   0  0  0  0  0  0  0  0  0  0  0  0
   60.9360   33.4840   46.2840 C   0  0  0  0  0  0  0  0  0  0  0  0
   60.9340   33.2340   47.6100 N   0  0  0  0  0  0  0  0  0  0  0  0
   59.6840   33.0490   48.0170 N   0  0  0  0  0  0  0  0  0  0  0  0
   59.3060   32.7960   49.3820 C   0  0  0  0  0  0  0  0  0  0  0  0
   59.4940   33.7810   50.3660 C   0  0  0  0  0  0  0  0  0  0  0  0
   59.1210   33.5380   51.6900 C   0  0  0  0  0  0  0  0  0  0  0  0
   58.5530   32.3120   52.0440 C   0  0  0  0  0  0  0  0  0  0  0  0
   58.1900   32.0780   53.3300 F   0  0  0  0  0  0  0  0  0  0  0  0
   58.3560   31.3280   51.0720 C   0  0  0  0  0  0  0  0  0  0  0  0
   58.7280   31.5660   49.7450 C   0  0  0  0  0  0  0  0  0  0  0  0
   58.5510   30.5880   48.8220 F   0  0  0  0  0  0  0  0  0  0  0  0
   59.0610   33.7800   44.4970 C   0  0  0  0  0  0  0  0  0  0  0  0
   57.8520   27.1350   45.9490 C   0  0  0  0  0  0  0  0  0  0  0  0
   57.5550   25.8480   45.4560 C   0  0  0  0  0  0  0  0  0  0  0  0
   57.2020   24.7810   46.3010 O   0  0  0  0  0  0  0  0  0  0  0  0
   55.8920   24.5050   46.8040 C   0  0  0  0  0  0  0  0  0  0  0  0
   54.9250   24.4190   45.6240 C   0  0  0  0  0  0  0  0  0  0  0  0
   55.8890   23.1890   47.5870 C   0  0  0  0  0  0  0  0  0  0  0  0
   57.8356   23.1555   45.2342 H   0  0  0  0  0  0  0  0  0  0  0  0
   57.2626   22.2571   43.7881 H   0  0  0  0  0  0  0  0  0  0  0  0
   58.8917   23.0140   43.7881 H   0  0  0  0  0  0  0  0  0  0  0  0
   57.9958   26.4652   42.1136 H   0  0  0  0  0  0  0  0  0  0  0  0
   58.5264   28.7287   43.0024 H   0  0  0  0  0  0  0  0  0  0  0  0
   56.9045   34.8631   45.7451 H   0  0  0  0  0  0  0  0  0  0  0  0
   55.8217   33.4226   45.4588 H   0  0  0  0  0  0  0  0  0  0  0  0
   56.9542   33.6102   47.7823 H   0  0  0  0  0  0  0  0  0  0  0  0
   57.0717   32.0410   46.9136 H   0  0  0  0  0  0  0  0  0  0  0  0
   61.8230   33.6859   45.6656 H   0  0  0  0  0  0  0  0  0  0  0  0
   61.7770   33.1920   48.2240 H   0  0  0  0  0  0  0  0  0  0  0  0
   59.9377   34.7496   50.0921 H   0  0  0  0  0  0  0  0  0  0  0  0
   59.2748   34.3133   52.4550 H   0  0  0  0  0  0  0  0  0  0  0  0
   57.9071   30.3634   51.3512 H   0  0  0  0  0  0  0  0  0  0  0  0
   59.1576   34.8629   44.3296 H   0  0  0  0  0  0  0  0  0  0  0  0
   59.6164   33.2156   43.7334 H   0  0  0  0  0  0  0  0  0  0  0  0
   57.8055   27.3307   47.0305 H   0  0  0  0  0  0  0  0  0  0  0  0
   55.5790   25.3094   47.4859 H   0  0  0  0  0  0  0  0  0  0  0  0
   53.8952   24.3274   45.9998 H   0  0  0  0  0  0  0  0  0  0  0  0
   55.0123   25.3285   45.0114 H   0  0  0  0  0  0  0  0  0  0  0  0
   55.1714   23.5392   45.0114 H   0  0  0  0  0  0  0  0  0  0  0  0
   55.8895   23.4042   48.6657 H   0  0  0  0  0  0  0  0  0  0  0  0
   54.9895   22.6108   47.3289 H   0  0  0  0  0  0  0  0  0  0  0  0
   56.7858   22.6067   47.3289 H   0  0  0  0  0  0  0  0  0  0  0  0
  1  2  1  0
  2  3  1  0
  3  4  2  0
  4  5  1  0
  5  6  2  0
  6  7  1  0
  7  8  2  0
  7  9  2  0
  7 10  1  0
 10 11  1  0
 11 12  2  0
 11 13  2  0
 11 14  1  0
 14 15  1  0
 15 16  1  0
 16 17  1  0
 17 18  2  0
 18 19  1  0
 19 20  2  0
 20 21  1  0
 21 22  1  0
 22 23  2  0
 23 24  1  0
 24 25  2  0
 25 26  1  0
 25 27  1  0
 27 28  2  0
 28 29  1  0
 18 30  1  0
  6 31  1  0
 31 32  2  0
 32 33  1  0
 33 34  1  0
 34 35  1  0
 34 36  1  0
 32  3  1  0
 30 14  1  0
 21 17  1  0
 28 22  1  0
  1 37  1  0
  1 38  1  0
  1 39  1  0
  4 40  1  0
  5 41  1  0
 15 42  1  0
 15 43  1  0
 16 44  1  0
 16 45  1  0
 19 46  1  0
 20 47  1  0
 23 48  1  0
 24 49  1  0
 27 50  1  0
 30 51  1  0
 30 52  1  0
 31 53  1  0
 34 54  1  0
 35 55  1  0
 35 56  1  0
 35 57  1  0
 36 58  1  0
 36 59  1  0
 36 60  1  0
M  CHG  2  10  -1  20   1
M  END
>  <UniqueID>  (46) 
43

>  <SMILES>  (46) 
COc1ccc(S(=O)(=O)[N-]S(=O)(=O)N2CCc3c(c[nH+]n3-c3ccc(F)cc3F)C2)cc1OC(C)C

>  <Energy>  (46) 
96.18764244078247

>  <Genealogy>  (46) 
COc1ccc(S(=O)(=O)[N-]S(=O)(=O)N2CCc3c(c[nH+]n3-c3ccc(F)cc3F)C2)cc1OC(C)C (protonated)
COc1ccc(S(=O)(=O)[N-]S(=O)(=O)N2CCc3c(c[nH+]n3-c3ccc(F)cc3F)C2)cc1OC(C)C (3D coordinates assigned)
COc1ccc(S(=O)(=O)[N-]S(=O)(=O)N2CCc3c(c[nH+]n3-c3ccc(F)cc3F)C2)cc1OC(C)C (nonaromatic ring conformer: 96.18764244078247 kcal/mol)

>  <smiles>  (46) 
COc1ccc(S(=O)(=O)NS(=O)(=O)N2CCc3c(cnn3-c3ccc(F)cc3F)C2)cc1OC(C)C

>  <score_type>  (46) 
oracle

>  <origin>  (46) 
adg

>  <m_score__min__energy>  (46) 
-9.8200000000000003

>  <m_primary>  (46) 
energy

$$$$
46:0
     RDKit          3D

 54 57  0  0  0  0  0  0  0  0999 V2000
   59.0910   28.9390   49.5530 O   0  0  0  0  0  0  0  0  0  0  0  0
   59.8370   29.5390   48.7300 C   0  0  0  0  0  0  0  0  0  0  0  0
   60.9100   30.3610   49.2030 N   0  0  0  0  0  0  0  0  0  0  0  0
   61.4750   31.5100   48.5520 C   0  0  0  0  0  0  0  0  0  0  0  0
   62.5680   31.3930   47.6700 C   0  0  0  0  0  0  0  0  0  0  0  0
   63.1750   32.5340   47.1440 C   0  0  0  0  0  0  0  0  0  0  0  0
   62.7070   33.8020   47.4940 C   0  0  0  0  0  0  0  0  0  0  0  0
   61.6250   33.9320   48.3700 C   0  0  0  0  0  0  0  0  0  0  0  0
   61.0050   32.7920   48.9030 C   0  0  0  0  0  0  0  0  0  0  0  0
   59.8970   32.9390   49.8100 N   0  0  0  0  0  0  0  0  0  0  0  0
   58.5900   32.3530   49.4790 C   0  0  0  0  0  0  0  0  0  0  0  0
   58.0220   31.5670   50.6750 C   0  0  0  0  0  0  0  0  0  0  0  0
   58.3870   32.1730   52.0490 C   0  0  0  0  0  0  0  0  0  0  0  0
   58.8330   33.6340   51.9440 C   0  0  0  0  0  0  0  0  0  0  0  0
   60.0590   33.7460   51.0270 C   0  0  0  0  0  0  0  0  0  0  0  0
   59.6250   29.3700   47.2740 C   0  0  0  0  0  0  0  0  0  0  0  0
   60.6770   28.9320   46.4460 C   0  0  0  0  0  0  0  0  0  0  0  0
   60.4830   28.7880   45.0700 C   0  0  0  0  0  0  0  0  0  0  0  0
   59.2480   29.0920   44.4990 C   0  0  0  0  0  0  0  0  0  0  0  0
   58.1930   29.5390   45.3040 C   0  0  0  0  0  0  0  0  0  0  0  0
   56.6570   29.9620   44.5480 S   0  0  0  0  0  0  0  0  0  0  0  0
   56.7580   29.6790   43.0750 O   0  0  0  0  0  0  0  0  0  0  0  0
   55.5250   29.1490   45.1150 O   0  0  0  0  0  0  0  0  0  0  0  0
   56.3460   31.6560   44.7790 N   0  0  0  0  0  0  0  0  0  0  0  0
   57.3400   32.6360   45.1150 C   0  0  0  0  0  0  0  0  0  0  0  0
   57.3950   33.1010   46.4390 C   0  0  0  0  0  0  0  0  0  0  0  0
   58.3420   34.0640   46.8140 C   0  0  0  0  0  0  0  0  0  0  0  0
   59.2530   34.5550   45.8720 C   0  0  0  0  0  0  0  0  0  0  0  0
   59.2240   34.0790   44.5580 C   0  0  0  0  0  0  0  0  0  0  0  0
   58.2780   33.1180   44.1750 C   0  0  0  0  0  0  0  0  0  0  0  0
   58.3200   32.6370   42.9100 F   0  0  0  0  0  0  0  0  0  0  0  0
   58.3790   29.6660   46.6890 C   0  0  0  0  0  0  0  0  0  0  0  0
   62.9446   30.3968   47.3948 H   0  0  0  0  0  0  0  0  0  0  0  0
   64.0242   32.4343   46.4520 H   0  0  0  0  0  0  0  0  0  0  0  0
   63.1899   34.6995   47.0802 H   0  0  0  0  0  0  0  0  0  0  0  0
   61.2583   34.9326   48.6425 H   0  0  0  0  0  0  0  0  0  0  0  0
   57.8907   33.1593   49.2130 H   0  0  0  0  0  0  0  0  0  0  0  0
   58.7187   31.6617   48.6331 H   0  0  0  0  0  0  0  0  0  0  0  0
   56.9258   31.5442   50.5861 H   0  0  0  0  0  0  0  0  0  0  0  0
   58.4680   30.5621   50.6391 H   0  0  0  0  0  0  0  0  0  0  0  0
   57.5049   32.1194   52.7041 H   0  0  0  0  0  0  0  0  0  0  0  0
   59.2288   31.5944   52.4572 H   0  0  0  0  0  0  0  0  0  0  0  0
   58.0116   34.2363   51.5286 H   0  0  0  0  0  0  0  0  0  0  0  0
   59.0976   34.0028   52.9460 H   0  0  0  0  0  0  0  0  0  0  0  0
   60.1968   34.7994   50.7416 H   0  0  0  0  0  0  0  0  0  0  0  0
   60.9356   33.3709   51.5756 H   0  0  0  0  0  0  0  0  0  0  0  0
   61.6585   28.7016   46.8860 H   0  0  0  0  0  0  0  0  0  0  0  0
   61.3079   28.4334   44.4346 H   0  0  0  0  0  0  0  0  0  0  0  0
   59.1021   28.9805   43.4144 H   0  0  0  0  0  0  0  0  0  0  0  0
   56.6906   32.7071   47.1864 H   0  0  0  0  0  0  0  0  0  0  0  0
   58.3691   34.4341   47.8495 H   0  0  0  0  0  0  0  0  0  0  0  0
   59.9917   35.3153   46.1655 H   0  0  0  0  0  0  0  0  0  0  0  0
   59.9466   34.4601   43.8214 H   0  0  0  0  0  0  0  0  0  0  0  0
   57.5443   29.9996   47.3230 H   0  0  0  0  0  0  0  0  0  0  0  0
  1  2  2  0
  2  3  1  0
  3  4  1  0
  4  5  2  0
  5  6  1  0
  6  7  2  0
  7  8  1  0
  8  9  2  0
  9 10  1  0
 10 11  1  0
 11 12  1  0
 12 13  1  0
 13 14  1  0
 14 15  1  0
  2 16  1  0
 16 17  2  0
 17 18  1  0
 18 19  2  0
 19 20  1  0
 20 21  1  0
 21 22  2  0
 21 23  2  0
 21 24  1  0
 24 25  1  0
 25 26  2  0
 26 27  1  0
 27 28  2  0
 28 29  1  0
 29 30  2  0
 30 31  1  0
 20 32  2  0
  9  4  1  0
 15 10  1  0
 32 16  1  0
 30 25  1  0
  5 33  1  0
  6 34  1  0
  7 35  1  0
  8 36  1  0
 11 37  1  0
 11 38  1  0
 12 39  1  0
 12 40  1  0
 13 41  1  0
 13 42  1  0
 14 43  1  0
 14 44  1  0
 15 45  1  0
 15 46  1  0
 17 47  1  0
 18 48  1  0
 19 49  1  0
 26 50  1  0
 27 51  1  0
 28 52  1  0
 29 53  1  0
 32 54  1  0
M  CHG  2   3  -1  24  -1
M  END
>  <UniqueID>  (47) 
44

>  <SMILES>  (47) 
O=C([N-]c1ccccc1N1CCCCC1)c1cccc(S(=O)(=O)[N-]c2ccccc2F)c1

>  <Energy>  (47) 
73.08189940069147

>  <Genealogy>  (47) 
O=C([N-]c1ccccc1N1CCCCC1)c1cccc(S(=O)(=O)[N-]c2ccccc2F)c1 (protonated)
O=C([N-]c1ccccc1N1CCCCC1)c1cccc(S(=O)(=O)[N-]c2ccccc2F)c1 (3D coordinates assigned)
O=C([N-]c1ccccc1N1CCCCC1)c1cccc(S(=O)(=O)[N-]c2ccccc2F)c1 (nonaromatic ring conformer: 73.08189940069147 kcal/mol)

>  <smiles>  (47) 
O=C(Nc1ccccc1N1CCCCC1)c1cccc(S(=O)(=O)Nc2ccccc2F)c1

>  <score_type>  (47) 
oracle

>  <origin>  (47) 
adg

>  <m_score__min__energy>  (47) 
-12.880000000000001

>  <m_primary>  (47) 
energy

$$$$
47:0
     RDKit          3D

 47 50  0  0  0  0  0  0  0  0999 V2000
   63.3950   34.2060   46.1520 C   0  0  0  0  0  0  0  0  0  0  0  0
   62.9160   33.3900   47.3150 C   0  0  0  0  0  0  0  0  0  0  0  0
   62.7690   31.9990   47.1950 C   0  0  0  0  0  0  0  0  0  0  0  0
   62.2700   31.2480   48.2630 C   0  0  0  0  0  0  0  0  0  0  0  0
   61.8900   31.8800   49.4560 C   0  0  0  0  0  0  0  0  0  0  0  0
   61.2510   31.0850   50.5600 C   0  0  0  0  0  0  0  0  0  0  0  0
   59.4330   31.2510   50.5620 S   0  0  0  0  0  0  0  0  0  0  0  0
   59.1910   30.6170   48.8960 C   0  0  0  0  0  0  0  0  0  0  0  0
   59.5440   29.3810   48.5100 N   0  0  0  0  0  0  0  0  0  0  0  0
   59.1390   29.2090   47.2650 N   0  0  0  0  0  0  0  0  0  0  0  0
   58.5220   30.3530   46.8950 C   0  0  0  0  0  0  0  0  0  0  0  0
   57.8910   30.5160   45.5600 C   0  0  0  0  0  0  0  0  0  0  0  0
   58.5330   31.2720   44.5620 C   0  0  0  0  0  0  0  0  0  0  0  0
   57.9210   31.4330   43.3170 C   0  0  0  0  0  0  0  0  0  0  0  0
   56.6790   30.8500   43.0720 C   0  0  0  0  0  0  0  0  0  0  0  0
   56.0660   30.1070   44.0810 C   0  0  0  0  0  0  0  0  0  0  0  0
   56.6780   29.9610   45.2860 N   0  0  0  0  0  0  0  0  0  0  0  0
   58.5360   31.2640   47.9080 N   0  0  0  0  0  0  0  0  0  0  0  0
   57.8340   32.5480   48.0330 C   0  0  0  0  0  0  0  0  0  0  0  0
   58.2820   33.5440   46.9910 C   0  0  0  0  0  0  0  0  0  0  0  0
   59.5730   34.0950   47.0100 C   0  0  0  0  0  0  0  0  0  0  0  0
   60.0060   34.9010   45.9570 C   0  0  0  0  0  0  0  0  0  0  0  0
   59.1400   35.1650   44.8960 C   0  0  0  0  0  0  0  0  0  0  0  0
   57.8890   34.6350   44.8920 N   0  0  0  0  0  0  0  0  0  0  0  0
   57.4470   33.8380   45.9010 C   0  0  0  0  0  0  0  0  0  0  0  0
   62.0570   33.2680   49.5850 C   0  0  0  0  0  0  0  0  0  0  0  0
   62.5570   34.0190   48.5170 C   0  0  0  0  0  0  0  0  0  0  0  0
   63.9194   35.0993   46.5221 H   0  0  0  0  0  0  0  0  0  0  0  0
   64.0831   33.6040   45.5403 H   0  0  0  0  0  0  0  0  0  0  0  0
   62.5340   34.5133   45.5403 H   0  0  0  0  0  0  0  0  0  0  0  0
   63.0478   31.4979   46.2563 H   0  0  0  0  0  0  0  0  0  0  0  0
   62.1749   30.1563   48.1674 H   0  0  0  0  0  0  0  0  0  0  0  0
   61.5102   30.0240   50.4289 H   0  0  0  0  0  0  0  0  0  0  0  0
   61.6276   31.4724   51.5182 H   0  0  0  0  0  0  0  0  0  0  0  0
   60.0340   28.6580   49.0820 H   0  0  0  0  0  0  0  0  0  0  0  0
   59.5114   31.7336   44.7612 H   0  0  0  0  0  0  0  0  0  0  0  0
   58.4187   32.0193   42.5306 H   0  0  0  0  0  0  0  0  0  0  0  0
   56.1884   30.9742   42.0954 H   0  0  0  0  0  0  0  0  0  0  0  0
   55.0869   29.6390   43.9015 H   0  0  0  0  0  0  0  0  0  0  0  0
   56.7540   32.3746   47.9167 H   0  0  0  0  0  0  0  0  0  0  0  0
   58.0667   32.9662   49.0234 H   0  0  0  0  0  0  0  0  0  0  0  0
   60.2445   33.8908   47.8569 H   0  0  0  0  0  0  0  0  0  0  0  0
   61.0212   35.3245   45.9634 H   0  0  0  0  0  0  0  0  0  0  0  0
   59.4699   35.8024   44.0624 H   0  0  0  0  0  0  0  0  0  0  0  0
   56.4297   33.4212   45.8632 H   0  0  0  0  0  0  0  0  0  0  0  0
   61.7935   33.7663   50.5296 H   0  0  0  0  0  0  0  0  0  0  0  0
   62.6696   35.1084   48.6194 H   0  0  0  0  0  0  0  0  0  0  0  0
  1  2  1  0
  2  3  2  0
  3  4  1  0
  4  5  2  0
  5  6  1  0
  6  7  1  0
  7  8  1  0
  8  9  2  0
  9 10  1  0
 10 11  2  0
 11 12  1  0
 12 13  2  0
 13 14  1  0
 14 15  2  0
 15 16  1  0
 16 17  2  0
 11 18  1  0
 18 19  1  0
 19 20  1  0
 20 21  2  0
 21 22  1  0
 22 23  2  0
 23 24  1  0
 24 25  2  0
  5 26  1  0
 26 27  2  0
 27  2  1  0
 18  8  1  0
 25 20  1  0
 17 12  1  0
  1 28  1  0
  1 29  1  0
  1 30  1  0
  3 31  1  0
  4 32  1  0
  6 33  1  0
  6 34  1  0
  9 35  1  0
 13 36  1  0
 14 37  1  0
 15 38  1  0
 16 39  1  0
 19 40  1  0
 19 41  1  0
 21 42  1  0
 22 43  1  0
 23 44  1  0
 25 45  1  0
 26 46  1  0
 27 47  1  0
M  CHG  1   9   1
M  END
>  <UniqueID>  (48) 
45

>  <SMILES>  (48) 
Cc1ccc(CSc2[nH+]nc(-c3ccccn3)n2Cc2cccnc2)cc1

>  <Energy>  (48) 
83.42708645426694

>  <Genealogy>  (48) 
Cc1ccc(CSc2[nH+]nc(-c3ccccn3)n2Cc2cccnc2)cc1 (protonated)
Cc1ccc(CSc2[nH+]nc(-c3ccccn3)n2Cc2cccnc2)cc1 (3D coordinates assigned)
Cc1ccc(CSc2[nH+]nc(-c3ccccn3)n2Cc2cccnc2)cc1 (optimized conformer: 83.42708645426694 kcal/mol)

>  <smiles>  (48) 
Cc1ccc(CSc2nnc(-c3ccccn3)n2Cc2cccnc2)cc1

>  <score_type>  (48) 
oracle

>  <origin>  (48) 
adg

>  <m_score__min__energy>  (48) 
-7.0700000000000003

>  <m_primary>  (48) 
energy

$$$$
48:0
     RDKit          3D

 67 70  0  0  0  0  0  0  0  0999 V2000
   67.0650   28.1000   52.0800 C   0  0  0  0  0  0  0  0  0  0  0  0
   66.8950   26.6400   51.9400 N   0  0  0  0  0  0  0  0  0  0  0  0
   68.1810   25.9980   51.5690 C   0  0  0  0  0  0  0  0  0  0  0  0
   68.5940   26.3920   50.1480 C   0  0  0  0  0  0  0  0  0  0  0  0
   67.4700   26.7400   49.3870 O   0  0  0  0  0  0  0  0  0  0  0  0
   66.3590   26.0840   53.2030 C   0  0  0  0  0  0  0  0  0  0  0  0
   64.8570   25.9680   53.1370 C   0  0  0  0  0  0  0  0  0  0  0  0
   64.1770   25.0180   53.9180 C   0  0  0  0  0  0  0  0  0  0  0  0
   62.7890   24.8930   53.8290 C   0  0  0  0  0  0  0  0  0  0  0  0
   62.0660   25.7180   52.9620 C   0  0  0  0  0  0  0  0  0  0  0  0
   62.7260   26.6890   52.1900 C   0  0  0  0  0  0  0  0  0  0  0  0
   61.9570   27.5750   51.2880 C   0  0  0  0  0  0  0  0  0  0  0  0
   62.0690   28.9710   51.3960 C   0  0  0  0  0  0  0  0  0  0  0  0
   61.3370   29.8070   50.5490 C   0  0  0  0  0  0  0  0  0  0  0  0
   60.4940   29.2600   49.5730 C   0  0  0  0  0  0  0  0  0  0  0  0
   59.7310   30.1460   48.6820 C   0  0  0  0  0  0  0  0  0  0  0  0
   58.6730   30.6590   49.1260 O   0  0  0  0  0  0  0  0  0  0  0  0
   60.1590   30.4130   47.3240 N   0  0  0  0  0  0  0  0  0  0  0  0
   60.7000   31.7290   46.9420 C   0  0  0  0  0  0  0  0  0  0  0  0
   59.6190   32.6060   46.3650 C   0  0  0  0  0  0  0  0  0  0  0  0
   59.9450   33.8410   45.7740 C   0  0  0  0  0  0  0  0  0  0  0  0
   58.9380   34.6630   45.2560 C   0  0  0  0  0  0  0  0  0  0  0  0
   57.6040   34.2470   45.3010 C   0  0  0  0  0  0  0  0  0  0  0  0
   57.2750   33.0110   45.8620 C   0  0  0  0  0  0  0  0  0  0  0  0
   58.2760   32.1910   46.3940 C   0  0  0  0  0  0  0  0  0  0  0  0
   60.1970   29.3210   46.3340 C   0  0  0  0  0  0  0  0  0  0  0  0
   58.8590   28.6330   46.1940 C   0  0  0  0  0  0  0  0  0  0  0  0
   57.8570   29.1810   45.3750 C   0  0  0  0  0  0  0  0  0  0  0  0
   56.6170   28.5470   45.2520 C   0  0  0  0  0  0  0  0  0  0  0  0
   56.3720   27.3480   45.9290 C   0  0  0  0  0  0  0  0  0  0  0  0
   55.1430   26.7130   45.7960 O   0  0  0  0  0  0  0  0  0  0  0  0
   57.3690   26.7810   46.7310 C   0  0  0  0  0  0  0  0  0  0  0  0
   58.6090   27.4190   46.8610 C   0  0  0  0  0  0  0  0  0  0  0  0
   60.3850   27.8690   49.4520 C   0  0  0  0  0  0  0  0  0  0  0  0
   61.1010   27.0320   50.3110 C   0  0  0  0  0  0  0  0  0  0  0  0
   64.1240   26.8100   52.2840 C   0  0  0  0  0  0  0  0  0  0  0  0
   67.0958   28.3649   53.1472 H   0  0  0  0  0  0  0  0  0  0  0  0
   68.0050   28.4075   51.5986 H   0  0  0  0  0  0  0  0  0  0  0  0
   66.2208   28.6153   51.5986 H   0  0  0  0  0  0  0  0  0  0  0  0
   68.9616   26.3199   52.2740 H   0  0  0  0  0  0  0  0  0  0  0  0
   68.0553   24.9060   51.6102 H   0  0  0  0  0  0  0  0  0  0  0  0
   69.2787   27.2516   50.1956 H   0  0  0  0  0  0  0  0  0  0  0  0
   69.0928   25.5345   49.6727 H   0  0  0  0  0  0  0  0  0  0  0  0
   66.6950   26.2790   49.8080 H   0  0  0  0  0  0  0  0  0  0  0  0
   66.7915   25.0867   53.3712 H   0  0  0  0  0  0  0  0  0  0  0  0
   66.6264   26.7592   54.0292 H   0  0  0  0  0  0  0  0  0  0  0  0
   64.7415   24.3689   54.6036 H   0  0  0  0  0  0  0  0  0  0  0  0
   62.2641   24.1450   54.4414 H   0  0  0  0  0  0  0  0  0  0  0  0
   60.9745   25.6063   52.8838 H   0  0  0  0  0  0  0  0  0  0  0  0
   62.7372   29.4088   52.1522 H   0  0  0  0  0  0  0  0  0  0  0  0
   61.4230   30.8991   50.6489 H   0  0  0  0  0  0  0  0  0  0  0  0
   61.1231   32.2170   47.8324 H   0  0  0  0  0  0  0  0  0  0  0  0
   61.4786   31.5817   46.1791 H   0  0  0  0  0  0  0  0  0  0  0  0
   60.9959   34.1614   45.7190 H   0  0  0  0  0  0  0  0  0  0  0  0
   59.1960   35.6364   44.8134 H   0  0  0  0  0  0  0  0  0  0  0  0
   56.8127   34.8938   44.8942 H   0  0  0  0  0  0  0  0  0  0  0  0
   56.2258   32.6813   45.8856 H   0  0  0  0  0  0  0  0  0  0  0  0
   58.0116   31.2191   46.8361 H   0  0  0  0  0  0  0  0  0  0  0  0
   60.4854   29.7375   45.3576 H   0  0  0  0  0  0  0  0  0  0  0  0
   60.9267   28.5746   46.6812 H   0  0  0  0  0  0  0  0  0  0  0  0
   58.0496   30.1151   44.8270 H   0  0  0  0  0  0  0  0  0  0  0  0
   55.8329   28.9919   44.6218 H   0  0  0  0  0  0  0  0  0  0  0  0
   57.1788   25.8349   47.2589 H   0  0  0  0  0  0  0  0  0  0  0  0
   59.3924   26.9686   47.4882 H   0  0  0  0  0  0  0  0  0  0  0  0
   59.7341   27.4347   48.6789 H   0  0  0  0  0  0  0  0  0  0  0  0
   60.9953   25.9406   50.2235 H   0  0  0  0  0  0  0  0  0  0  0  0
   64.6476   27.5697   51.6851 H   0  0  0  0  0  0  0  0  0  0  0  0
  1  2  1  0
  2  3  1  0
  3  4  1  0
  4  5  1  0
  2  6  1  0
  6  7  1  0
  7  8  2  0
  8  9  1  0
  9 10  2  0
 10 11  1  0
 11 12  1  0
 12 13  2  0
 13 14  1  0
 14 15  2  0
 15 16  1  0
 16 17  2  0
 16 18  1  0
 18 19  1  0
 19 20  1  0
 20 21  2  0
 21 22  1  0
 22 23  2  0
 23 24  1  0
 24 25  2  0
 18 26  1  0
 26 27  1  0
 27 28  2  0
 28 29  1  0
 29 30  2  0
 30 31  1  0
 30 32  1  0
 32 33  2  0
 15 34  1  0
 34 35  2  0
 11 36  2  0
 36  7  1  0
 35 12  1  0
 25 20  1  0
 33 27  1  0
  1 37  1  0
  1 38  1  0
  1 39  1  0
  3 40  1  0
  3 41  1  0
  4 42  1  0
  4 43  1  0
  5 44  1  0
  6 45  1  0
  6 46  1  0
  8 47  1  0
  9 48  1  0
 10 49  1  0
 13 50  1  0
 14 51  1  0
 19 52  1  0
 19 53  1  0
 21 54  1  0
 22 55  1  0
 23 56  1  0
 24 57  1  0
 25 58  1  0
 26 59  1  0
 26 60  1  0
 28 61  1  0
 29 62  1  0
 32 63  1  0
 33 64  1  0
 34 65  1  0
 35 66  1  0
 36 67  1  0
M  CHG  1  31  -1
M  END
>  <UniqueID>  (49) 
46

>  <SMILES>  (49) 
CN(CCO)Cc1cccc(-c2ccc(C(=O)N(Cc3ccccc3)Cc3ccc([O-])cc3)cc2)c1

>  <Energy>  (49) 
83.30075023486837

>  <Genealogy>  (49) 
CN(CCO)Cc1cccc(-c2ccc(C(=O)N(Cc3ccccc3)Cc3ccc([O-])cc3)cc2)c1 (protonated)
CN(CCO)Cc1cccc(-c2ccc(C(=O)N(Cc3ccccc3)Cc3ccc([O-])cc3)cc2)c1 (3D coordinates assigned)
CN(CCO)Cc1cccc(-c2ccc(C(=O)N(Cc3ccccc3)Cc3ccc([O-])cc3)cc2)c1 (optimized conformer: 83.30075023486837 kcal/mol)

>  <smiles>  (49) 
CN(CCO)Cc1cccc(-c2ccc(C(=O)N(Cc3ccccc3)Cc3ccc(O)cc3)cc2)c1

>  <score_type>  (49) 
oracle

>  <origin>  (49) 
adg

>  <m_score__min__energy>  (49) 
-12.92

>  <m_primary>  (49) 
energy

$$$$
49:0
     RDKit          3D

 34 35  0  0  0  0  0  0  0  0999 V2000
   55.9870   30.2490   44.8290 O   0  0  0  0  0  0  0  0  0  0  0  0
   56.8240   30.0930   43.9000 C   0  0  0  0  0  0  0  0  0  0  0  0
   56.4860   30.4530   42.5580 N   0  0  0  0  0  0  0  0  0  0  0  0
   57.0240   31.6220   41.8710 C   0  0  0  0  0  0  0  0  0  0  0  0
   58.1480   32.2770   42.6780 C   0  0  0  0  0  0  0  0  0  0  0  0
   57.6190   33.1930   43.6400 O   0  0  0  0  0  0  0  0  0  0  0  0
   58.1240   33.4090   44.9340 C   0  0  0  0  0  0  0  0  0  0  0  0
   57.5150   32.8840   46.0910 C   0  0  0  0  0  0  0  0  0  0  0  0
   58.0780   33.1110   47.3510 C   0  0  0  0  0  0  0  0  0  0  0  0
   59.2390   33.8790   47.4710 C   0  0  0  0  0  0  0  0  0  0  0  0
   60.0080   34.1830   49.1930 Br  0  0  0  0  0  0  0  0  0  0  0  0
   59.8350   34.4250   46.3320 C   0  0  0  0  0  0  0  0  0  0  0  0
   59.2750   34.1960   45.0710 C   0  0  0  0  0  0  0  0  0  0  0  0
   58.1180   29.5360   44.1680 N   0  0  0  0  0  0  0  0  0  0  0  0
   58.6770   29.3980   45.4870 C   0  0  0  0  0  0  0  0  0  0  0  0
   59.6690   30.2870   45.9430 C   0  0  0  0  0  0  0  0  0  0  0  0
   60.2370   30.1260   47.2090 C   0  0  0  0  0  0  0  0  0  0  0  0
   59.8300   29.0740   48.0310 C   0  0  0  0  0  0  0  0  0  0  0  0
   58.8580   28.1760   47.5860 C   0  0  0  0  0  0  0  0  0  0  0  0
   58.2830   28.3270   46.3170 C   0  0  0  0  0  0  0  0  0  0  0  0
   57.0500   27.1810   45.8100 Cl  0  0  0  0  0  0  0  0  0  0  0  0
   57.4200   31.3114   40.8929 H   0  0  0  0  0  0  0  0  0  0  0  0
   56.2131   32.3552   41.7492 H   0  0  0  0  0  0  0  0  0  0  0  0
   58.7185   31.4953   43.2009 H   0  0  0  0  0  0  0  0  0  0  0  0
   58.7998   32.8312   41.9866 H   0  0  0  0  0  0  0  0  0  0  0  0
   56.5918   32.2924   46.0028 H   0  0  0  0  0  0  0  0  0  0  0  0
   57.6062   32.6844   48.2485 H   0  0  0  0  0  0  0  0  0  0  0  0
   60.7452   35.0354   46.4267 H   0  0  0  0  0  0  0  0  0  0  0  0
   59.7425   34.6378   44.1787 H   0  0  0  0  0  0  0  0  0  0  0  0
   58.6770   29.2070   43.3490 H   0  0  0  0  0  0  0  0  0  0  0  0
   59.9991   31.1144   45.2976 H   0  0  0  0  0  0  0  0  0  0  0  0
   61.0066   30.8298   47.5588 H   0  0  0  0  0  0  0  0  0  0  0  0
   60.2751   28.9524   49.0295 H   0  0  0  0  0  0  0  0  0  0  0  0
   58.5419   27.3458   48.2347 H   0  0  0  0  0  0  0  0  0  0  0  0
  1  2  2  0
  2  3  1  0
  3  4  1  0
  4  5  1  0
  5  6  1  0
  6  7  1  0
  7  8  2  0
  8  9  1  0
  9 10  2  0
 10 11  1  0
 10 12  1  0
 12 13  2  0
  2 14  1  0
 14 15  1  0
 15 16  2  0
 16 17  1  0
 17 18  2  0
 18 19  1  0
 19 20  2  0
 20 21  1  0
 13  7  1  0
 20 15  1  0
  4 22  1  0
  4 23  1  0
  5 24  1  0
  5 25  1  0
  8 26  1  0
  9 27  1  0
 12 28  1  0
 13 29  1  0
 14 30  1  0
 16 31  1  0
 17 32  1  0
 18 33  1  0
 19 34  1  0
M  CHG  1   3  -1
M  END
>  <UniqueID>  (50) 
47

>  <SMILES>  (50) 
O=C([N-]CCOc1ccc(Br)cc1)Nc1ccccc1Cl

>  <Energy>  (50) 
35.027329088157174

>  <Genealogy>  (50) 
O=C([N-]CCOc1ccc(Br)cc1)Nc1ccccc1Cl (protonated)
O=C([N-]CCOc1ccc(Br)cc1)Nc1ccccc1Cl (3D coordinates assigned)
O=C([N-]CCOc1ccc(Br)cc1)Nc1ccccc1Cl (optimized conformer: 35.027329088157174 kcal/mol)

>  <smiles>  (50) 
O=C(NCCOc1ccc(Br)cc1)Nc1ccccc1Cl

>  <score_type>  (50) 
oracle

>  <origin>  (50) 
adg

>  <m_score__min__energy>  (50) 
-9.0700000000000003

>  <m_primary>  (50) 
energy

$$$$
50:0
     RDKit          3D

 34 36  0  0  0  0  0  0  0  0999 V2000
   57.4185   27.2811   43.3360 H   0  0  0  0  0  0  0  0  0  0  0  0
   57.8260   27.6110   44.3030 C   0  0  0  0  0  0  0  0  0  0  0  0
   58.7560   26.8520   44.9310 N   0  0  0  0  0  0  0  0  0  0  0  0
   59.2890   27.2100   46.1240 C   0  0  0  0  0  0  0  0  0  0  0  0
   60.2250   26.3700   46.7410 C   0  0  0  0  0  0  0  0  0  0  0  0
   60.5162   25.4254   46.2583 H   0  0  0  0  0  0  0  0  0  0  0  0
   60.7890   26.7280   47.9660 C   0  0  0  0  0  0  0  0  0  0  0  0
   61.5218   26.0641   48.4479 H   0  0  0  0  0  0  0  0  0  0  0  0
   60.4250   27.9270   48.5810 C   0  0  0  0  0  0  0  0  0  0  0  0
   60.8710   28.2051   49.5473 H   0  0  0  0  0  0  0  0  0  0  0  0
   59.4960   28.7750   47.9730 C   0  0  0  0  0  0  0  0  0  0  0  0
   59.2200   29.7213   48.4612 H   0  0  0  0  0  0  0  0  0  0  0  0
   58.9080   28.4270   46.7360 C   0  0  0  0  0  0  0  0  0  0  0  0
   57.9880   29.2780   46.0740 C   0  0  0  0  0  0  0  0  0  0  0  0
   57.7740   30.4660   46.5870 N   0  0  0  0  0  0  0  0  0  0  0  0
   57.9550   31.7660   46.0050 C   0  0  0  0  0  0  0  0  0  0  0  0
   58.1600   31.9060   44.6220 C   0  0  0  0  0  0  0  0  0  0  0  0
   58.1336   31.0192   43.9717 H   0  0  0  0  0  0  0  0  0  0  0  0
   58.3970   33.1660   44.0700 C   0  0  0  0  0  0  0  0  0  0  0  0
   58.5326   33.2735   42.9837 H   0  0  0  0  0  0  0  0  0  0  0  0
   58.4620   34.2890   44.8950 C   0  0  0  0  0  0  0  0  0  0  0  0
   58.6411   35.2821   44.4571 H   0  0  0  0  0  0  0  0  0  0  0  0
   58.3000   34.1550   46.2770 C   0  0  0  0  0  0  0  0  0  0  0  0
   58.3632   35.0422   46.9242 H   0  0  0  0  0  0  0  0  0  0  0  0
   58.0560   32.8880   46.8450 C   0  0  0  0  0  0  0  0  0  0  0  0
   57.9030   32.7080   48.2280 O   0  0  0  0  0  0  0  0  0  0  0  0
   58.9300   32.2480   49.0990 C   0  0  0  0  0  0  0  0  0  0  0  0
   58.6153   32.3890   50.1436 H   0  0  0  0  0  0  0  0  0  0  0  0
   59.1172   31.1801   48.9134 H   0  0  0  0  0  0  0  0  0  0  0  0
   59.8514   32.8194   48.9134 H   0  0  0  0  0  0  0  0  0  0  0  0
   57.3760   28.8130   44.8710 C   0  0  0  0  0  0  0  0  0  0  0  0
   56.1640   29.4180   44.2780 C   0  0  0  0  0  0  0  0  0  0  0  0
   55.0580   29.3400   44.8760 O   0  0  0  0  0  0  0  0  0  0  0  0
   56.2480   30.1440   43.0950 O   0  0  0  0  0  0  0  0  0  0  0  0
  1  2  1  0
  2  3  1  0
  3  4  1  0
  4  5  2  0
  5  6  1  0
  5  7  1  0
  7  8  1  0
  7  9  2  0
  9 10  1  0
  9 11  1  0
 11 12  1  0
 11 13  2  0
 13 14  1  0
 14 15  2  0
 15 16  1  0
 16 17  2  0
 17 18  1  0
 17 19  1  0
 19 20  1  0
 19 21  2  0
 21 22  1  0
 21 23  1  0
 23 24  1  0
 23 25  2  0
 25 26  1  0
 26 27  1  0
 27 28  1  0
 27 29  1  0
 27 30  1  0
 14 31  1  0
 31 32  1  0
 32 33  2  0
 32 34  1  0
 31  2  2  0
 13  4  1  0
 25 16  1  0
M  CHG  2   3  -1  34  -1
M  END
>  <UniqueID>  (51) 
48

>  <SMILES>  (51) 
COc1ccccc1/N=c1\c(C(=O)[O-])c[n-]c2ccccc12

>  <Energy>  (51) 
62.88365111695135

>  <Genealogy>  (51) 
COc1ccccc1N=c1c(C(=O)[O-])c[n-]c2ccccc12 (protonated)
COc1ccccc1/N=c1\c(C(=O)[O-])c[n-]c2ccccc12 (cis-trans isomerization)
COc1ccccc1/N=c1\c(C(=O)[O-])c[n-]c2ccccc12 (3D coordinates assigned)
COc1ccccc1/N=c1\c(C(=O)[O-])c[n-]c2ccccc12 (optimized conformer: 62.88365111695135 kcal/mol)

>  <smiles>  (51) 
COc1ccccc1N=c1c(C(=O)O)c[nH]c2ccccc12

>  <score_type>  (51) 
oracle

>  <origin>  (51) 
adg

>  <m_score__min__energy>  (51) 
-9.8499999999999996

>  <m_primary>  (51) 
energy

$$$$
51:0
     RDKit          3D

 39 41  0  0  1  0  0  0  0  0999 V2000
   63.4280   33.3830   47.1740 C   0  0  0  0  0  0  0  0  0  0  0  0
   61.9760   33.6830   47.3720 C   0  0  0  0  0  0  0  0  0  0  0  0
   61.4670   33.9160   48.6180 C   0  0  0  0  0  0  0  0  0  0  0  0
   60.1120   34.1950   48.8070 C   0  0  0  0  0  0  0  0  0  0  0  0
   59.2640   34.2400   47.7290 C   0  0  0  0  0  0  0  0  0  0  0  0
   59.7490   34.0090   46.4580 C   0  0  0  0  0  0  0  0  0  0  0  0
   58.6960   34.0510   45.0060 S   0  0  0  0  0  0  0  0  0  0  0  0
   57.0610   33.4240   45.3430 C   0  0  0  0  0  0  0  0  0  0  0  0
   56.9880   31.9770   44.8780 C   0  0  0  0  0  0  0  0  0  0  0  0
   56.2320   31.1690   44.4710 N   0  0  0  0  0  0  0  0  0  0  0  0
   56.3980   29.9490   44.1250 N   0  0  0  0  0  0  0  0  0  0  0  0
   57.6450   29.4810   44.2390 C   0  0  0  0  0  0  0  0  0  0  0  0
   58.2040   28.3590   44.0060 N   0  0  0  0  0  0  0  0  0  0  0  0
   58.7190   27.5570   45.0990 C   0  0  0  0  0  0  0  0  0  0  0  0
   57.8200   26.6800   45.7000 C   0  0  0  0  0  0  0  0  0  0  0  0
   58.2280   25.8850   46.7430 C   0  0  0  0  0  0  0  0  0  0  0  0
   59.5370   25.9710   47.1820 C   0  0  0  0  0  0  0  0  0  0  0  0
   60.4140   26.8530   46.5690 C   0  0  0  0  0  0  0  0  0  0  0  0
   60.0210   27.6600   45.5190 C   0  0  0  0  0  0  0  0  0  0  0  0
   60.9570   28.6040   44.8610 C   0  0  0  0  0  0  0  0  0  0  0  0
   58.5760   30.9650   44.8920 S   0  0  0  0  0  0  0  0  0  0  0  0
   61.1050   33.7330   46.3040 C   0  0  0  0  0  0  0  0  0  0  0  0
   63.9184   33.2817   48.1534 H   0  0  0  0  0  0  0  0  0  0  0  0
   63.5350   32.4438   46.6115 H   0  0  0  0  0  0  0  0  0  0  0  0
   63.8984   34.2029   46.6115 H   0  0  0  0  0  0  0  0  0  0  0  0
   62.1376   33.8832   49.4894 H   0  0  0  0  0  0  0  0  0  0  0  0
   59.7243   34.3787   49.8199 H   0  0  0  0  0  0  0  0  0  0  0  0
   58.1967   34.4604   47.8783 H   0  0  0  0  0  0  0  0  0  0  0  0
   56.8599   33.4763   46.4232 H   0  0  0  0  0  0  0  0  0  0  0  0
   56.3111   34.0272   44.8102 H   0  0  0  0  0  0  0  0  0  0  0  0
   55.6250   29.3000   43.7640 H   0  0  0  0  0  0  0  0  0  0  0  0
   56.7824   26.6238   45.3393 H   0  0  0  0  0  0  0  0  0  0  0  0
   57.5236   25.1895   47.2226 H   0  0  0  0  0  0  0  0  0  0  0  0
   59.8814   25.3412   48.0155 H   0  0  0  0  0  0  0  0  0  0  0  0
   61.4518   26.9117   46.9290 H   0  0  0  0  0  0  0  0  0  0  0  0
   61.5123   29.1640   45.6278 H   0  0  0  0  0  0  0  0  0  0  0  0
   61.6642   28.0416   44.2336 H   0  0  0  0  0  0  0  0  0  0  0  0
   60.3886   29.3064   44.2336 H   0  0  0  0  0  0  0  0  0  0  0  0
   61.4961   33.5479   45.2927 H   0  0  0  0  0  0  0  0  0  0  0  0
  1  2  1  0
  2  3  2  0
  3  4  1  0
  4  5  2  0
  5  6  1  0
  6  7  1  0
  7  8  1  0
  8  9  1  0
  9 10  2  0
 10 11  1  0
 11 12  1  0
 12 13  2  0
 13 14  1  0
 14 15  2  0
 15 16  1  0
 16 17  2  0
 17 18  1  0
 18 19  2  0
 19 20  1  0
 12 21  1  0
  6 22  2  0
 22  2  1  0
 21  9  1  0
 19 14  1  0
  1 23  1  0
  1 24  1  0
  1 25  1  0
  3 26  1  0
  4 27  1  0
  5 28  1  0
  8 29  1  0
  8 30  1  0
 11 31  1  0
 15 32  1  0
 16 33  1  0
 17 34  1  0
 18 35  1  0
 20 36  1  0
 20 37  1  0
 20 38  1  0
 22 39  1  0
M  END
>  <smiles>  (52) 
Cc1cccc(SCc2n[nH]c(=Nc3ccccc3C)s2)c1

>  <score_type>  (52) 
oracle

>  <origin>  (52) 
adg

>  <m_score__min__energy>  (52) 
-8.3100000000000005

>  <m_primary>  (52) 
energy

$$$$
52:0
     RDKit          3D

 69 73  0  0  0  0  0  0  0  0999 V2000
   57.7850   31.9150   46.8820 C   0  0  0  0  0  0  0  0  0  0  0  0
   57.7840   31.9400   45.3690 C   0  0  0  0  0  0  0  0  0  0  0  0
   58.1490   33.1130   44.6490 C   0  0  0  0  0  0  0  0  0  0  0  0
   58.5320   34.4070   45.3360 C   0  0  0  0  0  0  0  0  0  0  0  0
   59.7240   34.2100   46.2220 C   0  0  0  0  0  0  0  0  0  0  0  0
   59.6060   34.3650   47.5670 N   0  0  0  0  0  0  0  0  0  0  0  0
   60.6690   34.1850   48.3910 C   0  0  0  0  0  0  0  0  0  0  0  0
   61.9180   33.8320   47.8550 C   0  0  0  0  0  0  0  0  0  0  0  0
   63.0580   33.6250   48.6440 O   0  0  0  0  0  0  0  0  0  0  0  0
   63.5030   32.3490   49.0950 C   0  0  0  0  0  0  0  0  0  0  0  0
   62.3770   31.3640   48.9690 C   0  0  0  0  0  0  0  0  0  0  0  0
   62.0420   30.8270   47.7180 C   0  0  0  0  0  0  0  0  0  0  0  0
   60.9590   29.9530   47.5950 C   0  0  0  0  0  0  0  0  0  0  0  0
   60.2000   29.6120   48.7170 C   0  0  0  0  0  0  0  0  0  0  0  0
   60.5230   30.1400   49.9790 C   0  0  0  0  0  0  0  0  0  0  0  0
   59.7050   29.7900   51.1620 C   0  0  0  0  0  0  0  0  0  0  0  0
   60.0780   28.8420   51.9060 O   0  0  0  0  0  0  0  0  0  0  0  0
   58.4900   30.5000   51.4780 N   0  0  0  0  0  0  0  0  0  0  0  0
   57.3540   29.7570   52.0340 C   0  0  0  0  0  0  0  0  0  0  0  0
   56.1960   30.7040   52.3600 C   0  0  0  0  0  0  0  0  0  0  0  0
   56.6800   31.8580   53.1280 N   0  0  0  0  0  0  0  0  0  0  0  0
   57.6980   32.6580   52.4130 C   0  0  0  0  0  0  0  0  0  0  0  0
   58.3590   31.9380   51.2180 C   0  0  0  0  0  0  0  0  0  0  0  0
   61.6010   31.0330   50.0920 C   0  0  0  0  0  0  0  0  0  0  0  0
   62.0160   33.6820   46.4700 C   0  0  0  0  0  0  0  0  0  0  0  0
   60.9260   33.8730   45.6830 N   0  0  0  0  0  0  0  0  0  0  0  0
   58.1240   33.0930   43.2440 C   0  0  0  0  0  0  0  0  0  0  0  0
   57.7440   31.9460   42.5530 C   0  0  0  0  0  0  0  0  0  0  0  0
   57.3600   30.8060   43.2500 C   0  0  0  0  0  0  0  0  0  0  0  0
   57.3650   30.7890   44.6520 C   0  0  0  0  0  0  0  0  0  0  0  0
   56.8820   29.6230   45.3430 N   0  0  0  0  0  0  0  0  0  0  0  0
   57.5530   28.3540   45.2930 C   0  0  0  0  0  0  0  0  0  0  0  0
   58.7330   28.2820   44.8520 O   0  0  0  0  0  0  0  0  0  0  0  0
   56.8980   27.1300   45.7800 C   0  0  0  0  0  0  0  0  0  0  0  0
   57.5170   26.0110   46.3020 C   0  0  0  0  0  0  0  0  0  0  0  0
   56.4680   25.1730   46.6200 C   0  0  0  0  0  0  0  0  0  0  0  0
   56.5800   23.8480   47.3050 C   0  0  0  0  0  0  0  0  0  0  0  0
   57.0780   24.0210   48.5850 F   0  0  0  0  0  0  0  0  0  0  0  0
   55.3370   23.2460   47.3850 F   0  0  0  0  0  0  0  0  0  0  0  0
   57.4360   23.0320   46.5900 F   0  0  0  0  0  0  0  0  0  0  0  0
   55.2990   25.7730   46.3280 N   0  0  0  0  0  0  0  0  0  0  0  0
   55.5600   26.9640   45.8110 N   0  0  0  0  0  0  0  0  0  0  0  0
   57.7438   32.9451   47.2658 H   0  0  0  0  0  0  0  0  0  0  0  0
   56.9085   31.3550   47.2400 H   0  0  0  0  0  0  0  0  0  0  0  0
   58.7034   31.4268   47.2400 H   0  0  0  0  0  0  0  0  0  0  0  0
   58.7713   35.1625   44.5732 H   0  0  0  0  0  0  0  0  0  0  0  0
   57.6857   34.7401   45.9547 H   0  0  0  0  0  0  0  0  0  0  0  0
   60.5525   34.3154   49.4770 H   0  0  0  0  0  0  0  0  0  0  0  0
   64.3533   32.0172   48.4811 H   0  0  0  0  0  0  0  0  0  0  0  0
   63.8203   32.4171   50.1460 H   0  0  0  0  0  0  0  0  0  0  0  0
   62.6339   31.0947   46.8303 H   0  0  0  0  0  0  0  0  0  0  0  0
   60.7032   29.5320   46.6115 H   0  0  0  0  0  0  0  0  0  0  0  0
   59.3456   28.9271   48.6125 H   0  0  0  0  0  0  0  0  0  0  0  0
   57.0153   29.0119   51.2991 H   0  0  0  0  0  0  0  0  0  0  0  0
   57.6760   29.2596   52.9608 H   0  0  0  0  0  0  0  0  0  0  0  0
   55.7416   31.0572   51.4226 H   0  0  0  0  0  0  0  0  0  0  0  0
   55.4503   30.1626   52.9607 H   0  0  0  0  0  0  0  0  0  0  0  0
   57.0930   31.5060   54.0240 H   0  0  0  0  0  0  0  0  0  0  0  0
   57.2145   33.5721   52.0379 H   0  0  0  0  0  0  0  0  0  0  0  0
   58.5006   32.8602   53.1375 H   0  0  0  0  0  0  0  0  0  0  0  0
   57.7396   32.0865   50.3211 H   0  0  0  0  0  0  0  0  0  0  0  0
   59.3636   32.3598   51.0666 H   0  0  0  0  0  0  0  0  0  0  0  0
   61.8399   31.4775   51.0694 H   0  0  0  0  0  0  0  0  0  0  0  0
   62.9794   33.4082   46.0151 H   0  0  0  0  0  0  0  0  0  0  0  0
   58.4084   33.9955   42.6831 H   0  0  0  0  0  0  0  0  0  0  0  0
   57.7475   31.9415   41.4530 H   0  0  0  0  0  0  0  0  0  0  0  0
   57.0490   29.9081   42.6958 H   0  0  0  0  0  0  0  0  0  0  0  0
   56.0390   29.7220   45.9520 H   0  0  0  0  0  0  0  0  0  0  0  0
   58.5941   25.8302   46.4334 H   0  0  0  0  0  0  0  0  0  0  0  0
  1  2  1  0
  2  3  2  0
  3  4  1  0
  4  5  1  0
  5  6  2  0
  6  7  1  0
  7  8  2  0
  8  9  1  0
  9 10  1  0
 10 11  1  0
 11 12  2  0
 12 13  1  0
 13 14  2  0
 14 15  1  0
 15 16  1  0
 16 17  2  0
 16 18  1  0
 18 19  1  0
 19 20  1  0
 20 21  1  0
 21 22  1  0
 22 23  1  0
 15 24  2  0
  8 25  1  0
 25 26  2  0
  3 27  1  0
 27 28  2  0
 28 29  1  0
 29 30  2  0
 30 31  1  0
 31 32  1  0
 32 33  2  0
 32 34  1  0
 34 35  1  0
 35 36  2  0
 36 37  1  0
 37 38  1  0
 37 39  1  0
 37 40  1  0
 36 41  1  0
 41 42  1  0
 30  2  1  0
 42 34  2  0
 26  5  1  0
 24 11  1  0
 23 18  1  0
  1 43  1  0
  1 44  1  0
  1 45  1  0
  4 46  1  0
  4 47  1  0
  7 48  1  0
 10 49  1  0
 10 50  1  0
 12 51  1  0
 13 52  1  0
 14 53  1  0
 19 54  1  0
 19 55  1  0
 20 56  1  0
 20 57  1  0
 21 58  1  0
 22 59  1  0
 22 60  1  0
 23 61  1  0
 23 62  1  0
 24 63  1  0
 25 64  1  0
 27 65  1  0
 28 66  1  0
 29 67  1  0
 31 68  1  0
 35 69  1  0
M  CHG  1  41  -1
M  END
>  <UniqueID>  (53) 
49

>  <SMILES>  (53) 
Cc1c(Cc2ncc(OCc3cccc(C(=O)N4CCNCC4)c3)cn2)cccc1NC(=O)c1cc(C(F)(F)F)[n-]n1

>  <Energy>  (53) 
117.05028067494527

>  <Genealogy>  (53) 
Cc1c(Cc2ncc(OCc3cccc(C(=O)N4CCNCC4)c3)cn2)cccc1NC(=O)c1cc(C(F)(F)F)[n-]n1 (protonated)
Cc1c(Cc2ncc(OCc3cccc(C(=O)N4CCNCC4)c3)cn2)cccc1NC(=O)c1cc(C(F)(F)F)[n-]n1 (3D coordinates assigned)
Cc1c(Cc2ncc(OCc3cccc(C(=O)N4CCNCC4)c3)cn2)cccc1NC(=O)c1cc(C(F)(F)F)[n-]n1 (nonaromatic ring conformer: 117.05028067494527 kcal/mol)

>  <smiles>  (53) 
Cc1c(Cc2ncc(OCc3cccc(C(=O)N4CCNCC4)c3)cn2)cccc1NC(=O)c1cc(C(F)(F)F)[nH]n1

>  <score_type>  (53) 
oracle

>  <origin>  (53) 
adg

>  <m_score__min__energy>  (53) 
-12.390000000000001

>  <m_primary>  (53) 
energy

$$$$
53:0
     RDKit          3D

 50 52  0  0  0  0  0  0  0  0999 V2000
   59.3256   35.7907   47.7534 H   0  0  0  0  0  0  0  0  0  0  0  0
   59.2170   34.8620   47.1740 C   0  0  0  0  0  0  0  0  0  0  0  0
   59.2170   34.9060   45.7760 C   0  0  0  0  0  0  0  0  0  0  0  0
   59.3328   35.8688   45.2567 H   0  0  0  0  0  0  0  0  0  0  0  0
   59.0700   33.7280   45.0380 C   0  0  0  0  0  0  0  0  0  0  0  0
   59.0965   33.7616   43.9388 H   0  0  0  0  0  0  0  0  0  0  0  0
   58.8890   32.5050   45.6960 C   0  0  0  0  0  0  0  0  0  0  0  0
   58.8080   31.2980   44.9340 N   0  0  0  0  0  0  0  0  0  0  0  0
   58.2680   30.1540   45.2490 C   0  0  0  0  0  0  0  0  0  0  0  0
   59.1490   28.9830   46.0660 S   0  0  0  0  0  0  0  0  0  0  0  0
   57.8640   27.9120   46.1890 C   0  0  0  0  0  0  0  0  0  0  0  0
   57.9720   26.5680   46.7950 C   0  0  0  0  0  0  0  0  0  0  0  0
   58.6810   26.4260   47.8290 O   0  0  0  0  0  0  0  0  0  0  0  0
   57.3340   25.3440   46.1910 C   0  0  0  0  0  0  0  0  0  0  0  0
   57.8477   24.4508   46.5762 H   0  0  0  0  0  0  0  0  0  0  0  0
   56.2699   25.3472   46.4696 H   0  0  0  0  0  0  0  0  0  0  0  0
   57.4180   25.3390   44.6560 C   0  0  0  0  0  0  0  0  0  0  0  0
   56.5877   25.9373   44.2527 H   0  0  0  0  0  0  0  0  0  0  0  0
   58.3907   25.7637   44.3671 H   0  0  0  0  0  0  0  0  0  0  0  0
   57.3320   23.9430   44.0910 C   0  0  0  0  0  0  0  0  0  0  0  0
   58.1840   22.9320   44.5680 C   0  0  0  0  0  0  0  0  0  0  0  0
   58.9346   23.1651   45.3376 H   0  0  0  0  0  0  0  0  0  0  0  0
   58.0800   21.6310   44.0670 C   0  0  0  0  0  0  0  0  0  0  0  0
   58.7507   20.8432   44.4407 H   0  0  0  0  0  0  0  0  0  0  0  0
   57.1250   21.3300   43.0920 C   0  0  0  0  0  0  0  0  0  0  0  0
   57.0464   20.3064   42.6968 H   0  0  0  0  0  0  0  0  0  0  0  0
   56.2700   22.3290   42.6190 C   0  0  0  0  0  0  0  0  0  0  0  0
   55.5175   22.0901   41.8531 H   0  0  0  0  0  0  0  0  0  0  0  0
   56.3690   23.6310   43.1170 C   0  0  0  0  0  0  0  0  0  0  0  0
   55.6911   24.4135   42.7453 H   0  0  0  0  0  0  0  0  0  0  0  0
   56.7640   28.4990   45.5600 C   0  0  0  0  0  0  0  0  0  0  0  0
   55.5230   27.8740   45.4790 O   0  0  0  0  0  0  0  0  0  0  0  0
   56.9830   29.7350   45.0070 N   0  0  0  0  0  0  0  0  0  0  0  0
   56.0140   30.2850   44.0380 C   0  0  0  0  0  0  0  0  0  0  0  0
   55.6513   31.2561   44.4061 H   0  0  0  0  0  0  0  0  0  0  0  0
   55.1828   29.5718   43.9360 H   0  0  0  0  0  0  0  0  0  0  0  0
   56.6560   30.4820   42.6550 C   0  0  0  0  0  0  0  0  0  0  0  0
   55.8659   30.4494   41.8904 H   0  0  0  0  0  0  0  0  0  0  0  0
   57.3912   29.6772   42.5077 H   0  0  0  0  0  0  0  0  0  0  0  0
   57.3970   31.8210   42.5420 C   0  0  0  0  0  0  0  0  0  0  0  0
   58.4336   31.6877   42.8851 H   0  0  0  0  0  0  0  0  0  0  0  0
   56.8750   32.5622   43.1651 H   0  0  0  0  0  0  0  0  0  0  0  0
   57.4100   32.3230   41.1020 C   0  0  0  0  0  0  0  0  0  0  0  0
   57.4385   33.4226   41.0973 H   0  0  0  0  0  0  0  0  0  0  0  0
   58.2983   31.9310   40.5850 H   0  0  0  0  0  0  0  0  0  0  0  0
   56.5026   31.9775   40.5850 H   0  0  0  0  0  0  0  0  0  0  0  0
   58.9310   32.4590   47.1000 C   0  0  0  0  0  0  0  0  0  0  0  0
   58.8473   31.4937   47.6208 H   0  0  0  0  0  0  0  0  0  0  0  0
   59.0790   33.6380   47.8350 C   0  0  0  0  0  0  0  0  0  0  0  0
   59.0869   33.6030   48.9344 H   0  0  0  0  0  0  0  0  0  0  0  0
  1  2  1  0
  2  3  2  0
  3  4  1  0
  3  5  1  0
  5  6  1  0
  5  7  2  0
  7  8  1  0
  8  9  2  0
  9 10  1  0
 10 11  1  0
 11 12  1  0
 12 13  2  0
 12 14  1  0
 14 15  1  0
 14 16  1  0
 14 17  1  0
 17 18  1  0
 17 19  1  0
 17 20  1  0
 20 21  2  0
 21 22  1  0
 21 23  1  0
 23 24  1  0
 23 25  2  0
 25 26  1  0
 25 27  1  0
 27 28  1  0
 27 29  2  0
 29 30  1  0
 11 31  2  0
 31 32  1  0
 31 33  1  0
 33 34  1  0
 34 35  1  0
 34 36  1  0
 34 37  1  0
 37 38  1  0
 37 39  1  0
 37 40  1  0
 40 41  1  0
 40 42  1  0
 40 43  1  0
 43 44  1  0
 43 45  1  0
 43 46  1  0
  7 47  1  0
 47 48  1  0
 47 49  2  0
 49 50  1  0
 49  2  1  0
 33  9  1  0
 29 20  1  0
M  CHG  1  32  -1
M  END
>  <UniqueID>  (54) 
50

>  <SMILES>  (54) 
CCCCn1c([O-])c(C(=O)CCc2ccccc2)s/c1=N/c1ccccc1

>  <Energy>  (54) 
90.90373051794865

>  <Genealogy>  (54) 
CCCCn1c([O-])c(C(=O)CCc2ccccc2)sc1=Nc1ccccc1 (protonated)
CCCCn1c([O-])c(C(=O)CCc2ccccc2)s/c1=N/c1ccccc1 (cis-trans isomerization)
CCCCn1c([O-])c(C(=O)CCc2ccccc2)s/c1=N/c1ccccc1 (3D coordinates assigned)
CCCCn1c([O-])c(C(=O)CCc2ccccc2)s/c1=N/c1ccccc1 (optimized conformer: 90.90373051794865 kcal/mol)

>  <smiles>  (54) 
CCCCn1c(O)c(C(=O)CCc2ccccc2)sc1=Nc1ccccc1

>  <score_type>  (54) 
oracle

>  <origin>  (54) 
adg

>  <m_score__min__energy>  (54) 
-13.140000000000001

>  <m_primary>  (54) 
energy

$$$$
54:0
     RDKit          3D

 46 48  0  0  0  0  0  0  0  0999 V2000
   57.0050   30.7160   42.6670 C   0  0  0  0  0  0  0  0  0  0  0  0
   56.2330   30.8200   43.9840 C   0  0  0  0  0  0  0  0  0  0  0  0
   55.5210   29.5040   44.2920 C   0  0  0  0  0  0  0  0  0  0  0  0
   57.1630   31.1170   45.0790 N   0  0  0  0  0  0  0  0  0  0  0  0
   57.7180   32.7620   45.0100 S   0  0  0  0  0  0  0  0  0  0  0  0
   58.3230   33.0240   43.6590 O   0  0  0  0  0  0  0  0  0  0  0  0
   56.5620   33.7030   45.2070 O   0  0  0  0  0  0  0  0  0  0  0  0
   58.9430   33.0330   46.2460 C   0  0  0  0  0  0  0  0  0  0  0  0
   59.3690   34.3500   46.5330 C   0  0  0  0  0  0  0  0  0  0  0  0
   60.3240   34.5910   47.5360 C   0  0  0  0  0  0  0  0  0  0  0  0
   60.8440   33.4950   48.2220 C   0  0  0  0  0  0  0  0  0  0  0  0
   61.7130   33.5320   49.2520 N   0  0  0  0  0  0  0  0  0  0  0  0
   61.8680   32.2320   49.5990 C   0  0  0  0  0  0  0  0  0  0  0  0
   62.6830   31.8120   50.6440 O   0  0  0  0  0  0  0  0  0  0  0  0
   61.1260   31.3820   48.7920 C   0  0  0  0  0  0  0  0  0  0  0  0
   61.0110   29.9180   48.9200 C   0  0  0  0  0  0  0  0  0  0  0  0
   60.9100   29.1110   47.9030 N   0  0  0  0  0  0  0  0  0  0  0  0
   59.7690   28.3160   47.5350 C   0  0  0  0  0  0  0  0  0  0  0  0
   58.8480   28.7570   46.5680 C   0  0  0  0  0  0  0  0  0  0  0  0
   57.8170   27.9160   46.1410 C   0  0  0  0  0  0  0  0  0  0  0  0
   57.7030   26.6200   46.6580 C   0  0  0  0  0  0  0  0  0  0  0  0
   56.4770   25.5260   46.0240 S   0  0  0  0  0  0  0  0  0  0  0  0
   54.9530   26.3380   45.9770 N   0  0  0  0  0  0  0  0  0  0  0  0
   56.8480   25.0850   44.6360 O   0  0  0  0  0  0  0  0  0  0  0  0
   56.3710   24.3120   46.9050 O   0  0  0  0  0  0  0  0  0  0  0  0
   58.6220   26.1750   47.6180 C   0  0  0  0  0  0  0  0  0  0  0  0
   59.6530   27.0170   48.0460 C   0  0  0  0  0  0  0  0  0  0  0  0
   60.4560   32.2130   47.9220 C   0  0  0  0  0  0  0  0  0  0  0  0
   59.4970   31.9430   46.9480 C   0  0  0  0  0  0  0  0  0  0  0  0
   58.0746   30.5719   42.8794 H   0  0  0  0  0  0  0  0  0  0  0  0
   56.6278   29.8606   42.0874 H   0  0  0  0  0  0  0  0  0  0  0  0
   56.8676   31.6408   42.0874 H   0  0  0  0  0  0  0  0  0  0  0  0
   55.4890   31.6244   43.8874 H   0  0  0  0  0  0  0  0  0  0  0  0
   55.4496   29.3720   45.3817 H   0  0  0  0  0  0  0  0  0  0  0  0
   54.5104   29.5236   43.8580 H   0  0  0  0  0  0  0  0  0  0  0  0
   56.0903   28.6688   43.8580 H   0  0  0  0  0  0  0  0  0  0  0  0
   58.9493   35.1941   45.9662 H   0  0  0  0  0  0  0  0  0  0  0  0
   60.6511   35.6143   47.7724 H   0  0  0  0  0  0  0  0  0  0  0  0
   62.4600   32.0570   51.6020 H   0  0  0  0  0  0  0  0  0  0  0  0
   61.0105   29.4832   49.9304 H   0  0  0  0  0  0  0  0  0  0  0  0
   58.9397   29.7686   46.1458 H   0  0  0  0  0  0  0  0  0  0  0  0
   57.0918   28.2738   45.3954 H   0  0  0  0  0  0  0  0  0  0  0  0
   55.1540   27.3630   45.9990 H   0  0  0  0  0  0  0  0  0  0  0  0
   58.5320   25.1613   48.0356 H   0  0  0  0  0  0  0  0  0  0  0  0
   60.3787   26.6564   48.7899 H   0  0  0  0  0  0  0  0  0  0  0  0
   59.1818   30.9112   46.7333 H   0  0  0  0  0  0  0  0  0  0  0  0
  1  2  1  0
  2  3  1  0
  2  4  1  0
  4  5  1  0
  5  6  2  0
  5  7  2  0
  5  8  1  0
  8  9  2  0
  9 10  1  0
 10 11  2  0
 11 12  1  0
 12 13  1  0
 13 14  1  0
 13 15  2  0
 15 16  1  0
 16 17  2  3
 17 18  1  0
 18 19  2  0
 19 20  1  0
 20 21  2  0
 21 22  1  0
 22 23  1  0
 22 24  2  0
 22 25  2  0
 21 26  1  0
 26 27  2  0
 15 28  1  0
 28 29  2  0
 29  8  1  0
 28 11  1  0
 27 18  1  0
  1 30  1  0
  1 31  1  0
  1 32  1  0
  2 33  1  0
  3 34  1  0
  3 35  1  0
  3 36  1  0
  9 37  1  0
 10 38  1  0
 14 39  1  0
 16 40  1  0
 19 41  1  0
 20 42  1  0
 23 43  1  0
 26 44  1  0
 27 45  1  0
 29 46  1  0
M  CHG  3   4  -1  12  -1  23  -1
M  END
>  <UniqueID>  (55) 
51

>  <SMILES>  (55) 
CC(C)[N-]S(=O)(=O)c1ccc2[n-]c(O)c(C=Nc3ccc(S([NH-])(=O)=O)cc3)c2c1

>  <Energy>  (55) 
82.0281793557288

>  <Genealogy>  (55) 
CC(C)[N-]S(=O)(=O)c1ccc2[n-]c(O)c(C=Nc3ccc(S([NH-])(=O)=O)cc3)c2c1 (protonated)
CC(C)[N-]S(=O)(=O)c1ccc2[n-]c(O)c(C=Nc3ccc(S([NH-])(=O)=O)cc3)c2c1 (3D coordinates assigned)
CC(C)[N-]S(=O)(=O)c1ccc2[n-]c(O)c(C=Nc3ccc(S([NH-])(=O)=O)cc3)c2c1 (optimized conformer: 82.0281793557288 kcal/mol)

>  <smiles>  (55) 
CC(C)NS(=O)(=O)c1ccc2[nH]c(O)c(C=Nc3ccc(S(N)(=O)=O)cc3)c2c1

>  <score_type>  (55) 
oracle

>  <origin>  (55) 
adg

>  <m_score__min__energy>  (55) 
-13.23

>  <m_primary>  (55) 
energy

$$$$
55:0
     RDKit          3D

 48 50  0  0  0  0  0  0  0  0999 V2000
   55.6760   26.6280   46.2610 O   0  0  0  0  0  0  0  0  0  0  0  0
   56.3040   27.5010   45.6030 C   0  0  0  0  0  0  0  0  0  0  0  0
   57.7180   27.2450   45.1930 C   0  0  0  0  0  0  0  0  0  0  0  0
   58.6400   28.1880   45.9060 C   0  0  0  0  0  0  0  0  0  0  0  0
   58.5060   28.5170   47.2650 C   0  0  0  0  0  0  0  0  0  0  0  0
   59.4410   29.4430   47.7060 C   0  0  0  0  0  0  0  0  0  0  0  0
   60.4170   29.8590   46.3990 S   0  0  0  0  0  0  0  0  0  0  0  0
   59.6690   28.8710   45.2650 C   0  0  0  0  0  0  0  0  0  0  0  0
   55.6660   28.7270   45.2280 N   0  0  0  0  0  0  0  0  0  0  0  0
   55.8850   29.3860   43.9450 C   0  0  0  0  0  0  0  0  0  0  0  0
   56.2720   30.8530   44.1460 C   0  0  0  0  0  0  0  0  0  0  0  0
   57.3530   30.9720   45.1240 N   0  0  0  0  0  0  0  0  0  0  0  0
   58.0350   32.2140   45.3640 C   0  0  0  0  0  0  0  0  0  0  0  0
   58.2070   32.6780   46.6810 C   0  0  0  0  0  0  0  0  0  0  0  0
   58.8200   33.9130   46.9270 C   0  0  0  0  0  0  0  0  0  0  0  0
   58.9790   34.4010   48.2590 N   0  0  0  0  0  0  0  0  0  0  0  0
   59.8140   33.5100   49.4900 S   0  0  0  0  0  0  0  0  0  0  0  0
   59.1860   32.1510   49.6060 O   0  0  0  0  0  0  0  0  0  0  0  0
   59.6630   34.2150   50.8070 O   0  0  0  0  0  0  0  0  0  0  0  0
   61.5280   33.3260   49.1210 C   0  0  0  0  0  0  0  0  0  0  0  0
   62.5010   33.5370   50.1140 C   0  0  0  0  0  0  0  0  0  0  0  0
   63.8600   33.4200   49.8040 C   0  0  0  0  0  0  0  0  0  0  0  0
   64.2520   33.0810   48.5060 C   0  0  0  0  0  0  0  0  0  0  0  0
   63.2890   32.8670   47.5150 C   0  0  0  0  0  0  0  0  0  0  0  0
   61.9300   32.9950   47.8190 C   0  0  0  0  0  0  0  0  0  0  0  0
   59.2200   34.7120   45.8540 C   0  0  0  0  0  0  0  0  0  0  0  0
   59.0590   34.2600   44.5440 C   0  0  0  0  0  0  0  0  0  0  0  0
   58.4820   33.0140   44.2880 C   0  0  0  0  0  0  0  0  0  0  0  0
   58.3830   32.5930   42.9600 O   0  0  0  0  0  0  0  0  0  0  0  0
   57.9888   26.2096   45.4473 H   0  0  0  0  0  0  0  0  0  0  0  0
   57.8121   27.4009   44.1082 H   0  0  0  0  0  0  0  0  0  0  0  0
   57.7341   28.0824   47.9171 H   0  0  0  0  0  0  0  0  0  0  0  0
   59.5289   29.8360   48.7296 H   0  0  0  0  0  0  0  0  0  0  0  0
   59.9439   28.7801   44.2038 H   0  0  0  0  0  0  0  0  0  0  0  0
   56.6945   28.8699   43.4081 H   0  0  0  0  0  0  0  0  0  0  0  0
   54.9521   29.3442   43.3636 H   0  0  0  0  0  0  0  0  0  0  0  0
   56.6055   31.2735   43.1858 H   0  0  0  0  0  0  0  0  0  0  0  0
   55.3951   31.4027   44.5187 H   0  0  0  0  0  0  0  0  0  0  0  0
   57.4570   30.1990   45.8200 H   0  0  0  0  0  0  0  0  0  0  0  0
   57.8569   32.0654   47.5249 H   0  0  0  0  0  0  0  0  0  0  0  0
   62.1925   33.7949   51.1379 H   0  0  0  0  0  0  0  0  0  0  0  0
   64.6191   33.5946   50.5807 H   0  0  0  0  0  0  0  0  0  0  0  0
   65.3204   32.9823   48.2635 H   0  0  0  0  0  0  0  0  0  0  0  0
   63.6008   32.5977   46.4951 H   0  0  0  0  0  0  0  0  0  0  0  0
   61.1748   32.8357   47.0352 H   0  0  0  0  0  0  0  0  0  0  0  0
   59.6634   35.7009   46.0422 H   0  0  0  0  0  0  0  0  0  0  0  0
   59.3894   34.8904   43.7053 H   0  0  0  0  0  0  0  0  0  0  0  0
   58.4760   31.6260   42.6750 H   0  0  0  0  0  0  0  0  0  0  0  0
  1  2  2  0
  2  3  1  0
  3  4  1  0
  4  5  1  0
  5  6  2  0
  6  7  1  0
  7  8  1  0
  2  9  1  0
  9 10  1  0
 10 11  1  0
 11 12  1  0
 12 13  1  0
 13 14  2  0
 14 15  1  0
 15 16  1  0
 16 17  1  0
 17 18  2  0
 17 19  2  0
 17 20  1  0
 20 21  2  0
 21 22  1  0
 22 23  2  0
 23 24  1  0
 24 25  2  0
 15 26  2  0
 26 27  1  0
 27 28  2  0
 28 29  1  0
  8  4  2  0
 28 13  1  0
 25 20  1  0
  3 30  1  0
  3 31  1  0
  5 32  1  0
  6 33  1  0
  8 34  1  0
 10 35  1  0
 10 36  1  0
 11 37  1  0
 11 38  1  0
 12 39  1  0
 14 40  1  0
 21 41  1  0
 22 42  1  0
 23 43  1  0
 24 44  1  0
 25 45  1  0
 26 46  1  0
 27 47  1  0
 29 48  1  0
M  CHG  2   9  -1  16  -1
M  END
>  <UniqueID>  (56) 
52

>  <SMILES>  (56) 
O=C(Cc1ccsc1)[N-]CCNc1cc([N-]S(=O)(=O)c2ccccc2)ccc1O

>  <Energy>  (56) 
74.57379531399364

>  <Genealogy>  (56) 
O=C(Cc1ccsc1)[N-]CCNc1cc([N-]S(=O)(=O)c2ccccc2)ccc1O (protonated)
O=C(Cc1ccsc1)[N-]CCNc1cc([N-]S(=O)(=O)c2ccccc2)ccc1O (3D coordinates assigned)
O=C(Cc1ccsc1)[N-]CCNc1cc([N-]S(=O)(=O)c2ccccc2)ccc1O (optimized conformer: 74.57379531399364 kcal/mol)

>  <smiles>  (56) 
O=C(Cc1ccsc1)NCCNc1cc(NS(=O)(=O)c2ccccc2)ccc1O

>  <score_type>  (56) 
oracle

>  <origin>  (56) 
adg

>  <m_score__min__energy>  (56) 
-11.710000000000001

>  <m_primary>  (56) 
energy

$$$$
56:0
     RDKit          3D

 47 49  0  0  0  0  0  0  0  0999 V2000
   64.0690   33.4420   48.7970 C   0  0  0  0  0  0  0  0  0  0  0  0
   63.0570   33.0230   47.3940 S   0  0  0  0  0  0  0  0  0  0  0  0
   63.4790   33.8140   46.1880 O   0  0  0  0  0  0  0  0  0  0  0  0
   63.2280   31.5600   47.0950 O   0  0  0  0  0  0  0  0  0  0  0  0
   61.3870   33.3260   47.7480 N   0  0  0  0  0  0  0  0  0  0  0  0
   60.3210   33.3840   46.7890 C   0  0  0  0  0  0  0  0  0  0  0  0
   60.0510   34.6070   46.1660 C   0  0  0  0  0  0  0  0  0  0  0  0
   59.0190   34.7130   45.2330 C   0  0  0  0  0  0  0  0  0  0  0  0
   58.2450   33.5960   44.9120 C   0  0  0  0  0  0  0  0  0  0  0  0
   58.4990   32.3540   45.5220 C   0  0  0  0  0  0  0  0  0  0  0  0
   57.6680   31.1660   45.1910 C   0  0  0  0  0  0  0  0  0  0  0  0
   56.7550   31.2050   44.1250 C   0  0  0  0  0  0  0  0  0  0  0  0
   55.9790   30.0810   43.8390 C   0  0  0  0  0  0  0  0  0  0  0  0
   56.1050   28.9560   44.5890 N   0  0  0  0  0  0  0  0  0  0  0  0
   56.9740   28.8700   45.6300 C   0  0  0  0  0  0  0  0  0  0  0  0
   57.0290   27.7540   46.3020 N   0  0  0  0  0  0  0  0  0  0  0  0
   58.2000   26.8970   46.5040 C   0  0  0  0  0  0  0  0  0  0  0  0
   58.0140   25.5560   45.8400 C   0  0  0  0  0  0  0  0  0  0  0  0
   56.8320   25.2650   45.1410 C   0  0  0  0  0  0  0  0  0  0  0  0
   56.6620   24.0210   44.5270 C   0  0  0  0  0  0  0  0  0  0  0  0
   57.6690   23.0510   44.6110 C   0  0  0  0  0  0  0  0  0  0  0  0
   57.4510   21.4780   43.8500 S   0  0  0  0  0  0  0  0  0  0  0  0
   57.2540   20.2670   45.0670 N   0  0  0  0  0  0  0  0  0  0  0  0
   58.6510   21.1510   43.0060 O   0  0  0  0  0  0  0  0  0  0  0  0
   56.2350   21.5030   42.9670 O   0  0  0  0  0  0  0  0  0  0  0  0
   58.8400   23.3280   45.3280 C   0  0  0  0  0  0  0  0  0  0  0  0
   59.0110   24.5730   45.9410 C   0  0  0  0  0  0  0  0  0  0  0  0
   57.7780   29.9850   45.9450 C   0  0  0  0  0  0  0  0  0  0  0  0
   59.5460   32.2580   46.4590 C   0  0  0  0  0  0  0  0  0  0  0  0
   63.5222   33.2156   49.7242 H   0  0  0  0  0  0  0  0  0  0  0  0
   64.9987   32.8548   48.7669 H   0  0  0  0  0  0  0  0  0  0  0  0
   64.3115   34.5145   48.7669 H   0  0  0  0  0  0  0  0  0  0  0  0
   60.6565   35.4914   46.4134 H   0  0  0  0  0  0  0  0  0  0  0  0
   58.8145   35.6793   44.7489 H   0  0  0  0  0  0  0  0  0  0  0  0
   57.4314   33.6878   44.1774 H   0  0  0  0  0  0  0  0  0  0  0  0
   56.6520   32.1168   43.5184 H   0  0  0  0  0  0  0  0  0  0  0  0
   55.2634   30.1064   43.0039 H   0  0  0  0  0  0  0  0  0  0  0  0
   59.0844   27.3905   46.0748 H   0  0  0  0  0  0  0  0  0  0  0  0
   58.3323   26.7360   47.5841 H   0  0  0  0  0  0  0  0  0  0  0  0
   56.0350   26.0203   45.0761 H   0  0  0  0  0  0  0  0  0  0  0  0
   55.7350   23.8031   43.9764 H   0  0  0  0  0  0  0  0  0  0  0  0
   58.1990   20.0920   45.4790 H   0  0  0  0  0  0  0  0  0  0  0  0
   56.9720   19.3870   44.5790 H   0  0  0  0  0  0  0  0  0  0  0  0
   59.6272   22.5640   45.4090 H   0  0  0  0  0  0  0  0  0  0  0  0
   59.9315   24.7832   46.5053 H   0  0  0  0  0  0  0  0  0  0  0  0
   58.4911   29.9304   46.7807 H   0  0  0  0  0  0  0  0  0  0  0  0
   59.7600   31.2912   46.9382 H   0  0  0  0  0  0  0  0  0  0  0  0
  1  2  1  0
  2  3  2  0
  2  4  2  0
  2  5  1  0
  5  6  1  0
  6  7  2  0
  7  8  1  0
  8  9  2  0
  9 10  1  0
 10 11  1  0
 11 12  1  0
 12 13  2  0
 13 14  1  0
 14 15  1  0
 15 16  2  3
 16 17  1  0
 17 18  1  0
 18 19  2  0
 19 20  1  0
 20 21  2  0
 21 22  1  0
 22 23  1  0
 22 24  2  0
 22 25  2  0
 21 26  1  0
 26 27  2  0
 15 28  1  0
 10 29  2  0
 29  6  1  0
 28 11  2  0
 27 18  1  0
  1 30  1  0
  1 31  1  0
  1 32  1  0
  7 33  1  0
  8 34  1  0
  9 35  1  0
 12 36  1  0
 13 37  1  0
 17 38  1  0
 17 39  1  0
 19 40  1  0
 20 41  1  0
 23 42  1  0
 23 43  1  0
 26 44  1  0
 27 45  1  0
 28 46  1  0
 29 47  1  0
M  CHG  2   5  -1  14  -1
M  END
>  <UniqueID>  (57) 
53

>  <SMILES>  (57) 
CS(=O)(=O)[N-]c1cccc(-c2cc[n-]c(=NCc3ccc(S(N)(=O)=O)cc3)c2)c1

>  <Energy>  (57) 
53.60056197698836

>  <Genealogy>  (57) 
CS(=O)(=O)[N-]c1cccc(-c2cc[n-]c(=NCc3ccc(S(N)(=O)=O)cc3)c2)c1 (protonated)
CS(=O)(=O)[N-]c1cccc(-c2cc[n-]c(=NCc3ccc(S(N)(=O)=O)cc3)c2)c1 (3D coordinates assigned)
CS(=O)(=O)[N-]c1cccc(-c2cc[n-]c(=NCc3ccc(S(N)(=O)=O)cc3)c2)c1 (optimized conformer: 53.60056197698836 kcal/mol)

>  <smiles>  (57) 
CS(=O)(=O)Nc1cccc(-c2cc[nH]c(=NCc3ccc(S(N)(=O)=O)cc3)c2)c1

>  <score_type>  (57) 
oracle

>  <origin>  (57) 
adg

>  <m_score__min__energy>  (57) 
-12.609999999999999

>  <m_primary>  (57) 
energy

$$$$
57:0
     RDKit          3D

 29 29  0  0  0  0  0  0  0  0999 V2000
   56.0800   28.3650   45.2280 N   0  0  0  0  0  0  0  0  0  0  0  0
   56.1860   29.7010   44.7450 C   0  0  0  0  0  0  0  0  0  0  0  0
   55.1390   30.3630   44.5140 O   0  0  0  0  0  0  0  0  0  0  0  0
   57.4540   30.2750   44.5880 O   0  0  0  0  0  0  0  0  0  0  0  0
   57.8390   31.5370   45.0700 C   0  0  0  0  0  0  0  0  0  0  0  0
   57.4380   32.7240   44.4280 C   0  0  0  0  0  0  0  0  0  0  0  0
   57.8330   33.9670   44.9300 C   0  0  0  0  0  0  0  0  0  0  0  0
   58.6320   34.0400   46.0710 C   0  0  0  0  0  0  0  0  0  0  0  0
   59.0520   32.8700   46.7060 C   0  0  0  0  0  0  0  0  0  0  0  0
   58.6780   31.6120   46.2030 C   0  0  0  0  0  0  0  0  0  0  0  0
   59.1170   30.3620   46.9220 C   0  0  0  0  0  0  0  0  0  0  0  0
   60.0060   29.5050   46.0180 C   0  0  0  0  0  0  0  0  0  0  0  0
   59.2370   28.3360   45.4810 C   0  0  0  0  0  0  0  0  0  0  0  0
   58.9450   27.3820   46.2520 O   0  0  0  0  0  0  0  0  0  0  0  0
   58.8790   28.2930   44.0900 N   0  0  0  0  0  0  0  0  0  0  0  0
   58.1510   27.2200   43.4800 C   0  0  0  0  0  0  0  0  0  0  0  0
   57.7630   26.2270   44.1500 O   0  0  0  0  0  0  0  0  0  0  0  0
   55.1440   27.9250   45.3700 H   0  0  0  0  0  0  0  0  0  0  0  0
   56.9420   27.8160   45.4450 H   0  0  0  0  0  0  0  0  0  0  0  0
   56.8102   32.6728   43.5262 H   0  0  0  0  0  0  0  0  0  0  0  0
   57.5131   34.8899   44.4242 H   0  0  0  0  0  0  0  0  0  0  0  0
   58.9313   35.0201   46.4707 H   0  0  0  0  0  0  0  0  0  0  0  0
   59.6803   32.9330   47.6067 H   0  0  0  0  0  0  0  0  0  0  0  0
   59.6817   30.6427   47.8233 H   0  0  0  0  0  0  0  0  0  0  0  0
   58.2254   29.7797   47.1977 H   0  0  0  0  0  0  0  0  0  0  0  0
   60.3661   30.1178   45.1785 H   0  0  0  0  0  0  0  0  0  0  0  0
   60.8565   29.1310   46.6069 H   0  0  0  0  0  0  0  0  0  0  0  0
   59.1660   29.0890   43.4770 H   0  0  0  0  0  0  0  0  0  0  0  0
   57.9265   27.2647   42.4041 H   0  0  0  0  0  0  0  0  0  0  0  0
  1  2  1  0
  2  3  2  0
  2  4  1  0
  4  5  1  0
  5  6  2  0
  6  7  1  0
  7  8  2  0
  8  9  1  0
  9 10  2  0
 10 11  1  0
 11 12  1  0
 12 13  1  0
 13 14  2  0
 13 15  1  0
 15 16  1  0
 16 17  2  0
 10  5  1  0
  1 18  1  0
  1 19  1  0
  6 20  1  0
  7 21  1  0
  8 22  1  0
  9 23  1  0
 11 24  1  0
 11 25  1  0
 12 26  1  0
 12 27  1  0
 15 28  1  0
 16 29  1  0
M  END
>  <UniqueID>  (58) 
54

>  <SMILES>  (58) 
NC(=O)Oc1ccccc1CCC(=O)NC=O

>  <Energy>  (58) 
25.60305663772267

>  <Genealogy>  (58) 
NC(=O)Oc1ccccc1CCC(=O)NC=O (3D coordinates assigned)
NC(=O)Oc1ccccc1CCC(=O)NC=O (optimized conformer: 25.60305663772267 kcal/mol)

>  <smiles>  (58) 
NC(=O)Oc1ccccc1CCC(=O)NC=O

>  <score_type>  (58) 
oracle

>  <origin>  (58) 
adg

>  <m_score__min__energy>  (58) 
-7.2999999999999998

>  <m_primary>  (58) 
energy

$$$$
58:0
     RDKit          3D

 34 36  0  0  1  0  0  0  0  0999 V2000
   55.0730   26.3240   46.0530 N   0  0  0  0  0  0  0  0  0  0  0  0
   56.3250   26.5170   46.2020 C   0  0  0  0  0  0  0  0  0  0  0  0
   56.9780   27.5900   45.5410 C   0  0  0  0  0  0  0  0  0  0  0  0
   58.3380   27.7260   45.7620 C   0  0  0  0  0  0  0  0  0  0  0  0
   58.9870   28.7980   45.1080 N   0  0  0  0  0  0  0  0  0  0  0  0
   58.4310   29.8780   44.7370 C   0  0  0  0  0  0  0  0  0  0  0  0
   58.7440   31.0730   45.3750 C   0  0  0  0  0  0  0  0  0  0  0  0
   58.1470   32.2600   44.9560 C   0  0  0  0  0  0  0  0  0  0  0  0
   58.4470   33.4620   45.6130 N   0  0  0  0  0  0  0  0  0  0  0  0
   59.4000   33.6050   46.6600 C   0  0  0  0  0  0  0  0  0  0  0  0
   59.0060   33.8420   47.9740 C   0  0  0  0  0  0  0  0  0  0  0  0
   59.8960   33.9670   49.0120 C   0  0  0  0  0  0  0  0  0  0  0  0
   61.2720   33.8530   48.7680 C   0  0  0  0  0  0  0  0  0  0  0  0
   61.6960   33.6150   47.4550 C   0  0  0  0  0  0  0  0  0  0  0  0
   63.5570   33.4580   47.1540 Br  0  0  0  0  0  0  0  0  0  0  0  0
   60.7510   33.4950   46.4310 C   0  0  0  0  0  0  0  0  0  0  0  0
   57.2690   32.1680   43.9160 N   0  0  0  0  0  0  0  0  0  0  0  0
   56.9910   30.9910   43.3220 C   0  0  0  0  0  0  0  0  0  0  0  0
   57.5640   29.8280   43.7170 N   0  0  0  0  0  0  0  0  0  0  0  0
   59.0240   26.8930   46.5620 N   0  0  0  0  0  0  0  0  0  0  0  0
   58.3950   25.8730   47.1910 C   0  0  0  0  0  0  0  0  0  0  0  0
   57.0860   25.7380   46.9800 N   0  0  0  0  0  0  0  0  0  0  0  0
   54.3950   26.7160   46.7330 H   0  0  0  0  0  0  0  0  0  0  0  0
   56.4294   28.2810   44.8841 H   0  0  0  0  0  0  0  0  0  0  0  0
   59.4614   31.0812   46.2088 H   0  0  0  0  0  0  0  0  0  0  0  0
   57.9300   34.3270   45.3120 H   0  0  0  0  0  0  0  0  0  0  0  0
   57.9315   33.9334   48.1908 H   0  0  0  0  0  0  0  0  0  0  0  0
   59.5305   34.1560   50.0321 H   0  0  0  0  0  0  0  0  0  0  0  0
   61.9999   33.9481   49.5872 H   0  0  0  0  0  0  0  0  0  0  0  0
   61.1014   33.3058   45.4056 H   0  0  0  0  0  0  0  0  0  0  0  0
   56.8150   33.0540   43.5920 H   0  0  0  0  0  0  0  0  0  0  0  0
   56.2743   30.9734   42.4877 H   0  0  0  0  0  0  0  0  0  0  0  0
   58.9423   25.1830   47.8500 H   0  0  0  0  0  0  0  0  0  0  0  0
   56.5900   24.9440   47.4670 H   0  0  0  0  0  0  0  0  0  0  0  0
  1  2  2  3
  2  3  1  0
  3  4  2  0
  4  5  1  0
  5  6  2  0
  6  7  1  0
  7  8  2  0
  8  9  1  0
  9 10  1  0
 10 11  2  0
 11 12  1  0
 12 13  2  0
 13 14  1  0
 14 15  1  0
 14 16  2  0
  8 17  1  0
 17 18  1  0
 18 19  2  0
  4 20  1  0
 20 21  2  0
 21 22  1  0
 22  2  1  0
 19  6  1  0
 16 10  1  0
  1 23  1  0
  3 24  1  0
  7 25  1  0
  9 26  1  0
 11 27  1  0
 12 28  1  0
 13 29  1  0
 16 30  1  0
 17 31  1  0
 18 32  1  0
 21 33  1  0
 22 34  1  0
M  END
>  <smiles>  (59) 
N=c1cc(N=c2cc(Nc3cccc(Br)c3)[nH]cn2)nc[nH]1

>  <score_type>  (59) 
oracle

>  <origin>  (59) 
adg

>  <m_score__min__energy>  (59) 
-8.3000000000000007

>  <m_primary>  (59) 
energy

$$$$
59:0
     RDKit          3D

 27 28  0  0  0  0  0  0  0  0999 V2000
   59.2810   36.7180   47.0770 H   0  0  0  0  0  0  0  0  0  0  0  0
   59.7660   35.9570   46.6150 O   0  0  0  0  0  0  0  0  0  0  0  0
   59.0970   34.8010   46.2220 C   0  0  0  0  0  0  0  0  0  0  0  0
   58.7600   34.5930   44.8770 C   0  0  0  0  0  0  0  0  0  0  0  0
   59.0274   35.3457   44.1207 H   0  0  0  0  0  0  0  0  0  0  0  0
   58.0840   33.4290   44.4960 C   0  0  0  0  0  0  0  0  0  0  0  0
   57.8404   33.2579   43.4370 H   0  0  0  0  0  0  0  0  0  0  0  0
   57.7150   32.4770   45.4630 C   0  0  0  0  0  0  0  0  0  0  0  0
   57.0230   31.2740   45.0960 N   0  0  0  0  0  0  0  0  0  0  0  0
   57.2350   30.1130   45.5900 N   0  0  0  0  0  0  0  0  0  0  0  0
   56.5260   28.9110   45.2450 C   0  0  0  0  0  0  0  0  0  0  0  0
   55.4430   29.0120   44.6080 O   0  0  0  0  0  0  0  0  0  0  0  0
   57.0520   27.5640   45.5690 C   0  0  0  0  0  0  0  0  0  0  0  0
   58.4400   27.3380   45.5340 C   0  0  0  0  0  0  0  0  0  0  0  0
   59.1228   28.1681   45.3002 H   0  0  0  0  0  0  0  0  0  0  0  0
   58.9570   26.0670   45.7940 C   0  0  0  0  0  0  0  0  0  0  0  0
   60.0432   25.8977   45.7538 H   0  0  0  0  0  0  0  0  0  0  0  0
   58.0980   25.0100   46.1050 C   0  0  0  0  0  0  0  0  0  0  0  0
   58.6150   23.7450   46.3570 O   0  0  0  0  0  0  0  0  0  0  0  0
   56.7190   25.2260   46.1660 C   0  0  0  0  0  0  0  0  0  0  0  0
   56.0445   24.3941   46.4169 H   0  0  0  0  0  0  0  0  0  0  0  0
   56.1930   26.4970   45.9090 C   0  0  0  0  0  0  0  0  0  0  0  0
   54.8190   26.6910   46.0110 O   0  0  0  0  0  0  0  0  0  0  0  0
   58.0870   32.6730   46.7990 C   0  0  0  0  0  0  0  0  0  0  0  0
   57.8456   31.9091   47.5528 H   0  0  0  0  0  0  0  0  0  0  0  0
   58.7640   33.8360   47.1780 C   0  0  0  0  0  0  0  0  0  0  0  0
   59.0358   33.9927   48.2323 H   0  0  0  0  0  0  0  0  0  0  0  0
  1  2  1  0
  2  3  1  0
  3  4  2  0
  4  5  1  0
  4  6  1  0
  6  7  1  0
  6  8  2  0
  8  9  1  0
  9 10  2  0
 10 11  1  0
 11 12  2  0
 11 13  1  0
 13 14  2  0
 14 15  1  0
 14 16  1  0
 16 17  1  0
 16 18  2  0
 18 19  1  0
 18 20  1  0
 20 21  1  0
 20 22  2  0
 22 23  1  0
  8 24  1  0
 24 25  1  0
 24 26  2  0
 26 27  1  0
 26  3  1  0
 22 13  1  0
M  CHG  2  19  -1  23  -1
M  END
>  <UniqueID>  (60) 
55

>  <SMILES>  (60) 
O=C(/N=N\c1ccc(O)cc1)c1ccc([O-])cc1[O-]

>  <Energy>  (60) 
42.74993274367699

>  <Genealogy>  (60) 
O=C(N=Nc1ccc(O)cc1)c1ccc([O-])cc1[O-] (protonated)
O=C(/N=N\c1ccc(O)cc1)c1ccc([O-])cc1[O-] (cis-trans isomerization)
O=C(/N=N\c1ccc(O)cc1)c1ccc([O-])cc1[O-] (3D coordinates assigned)
O=C(/N=N\c1ccc(O)cc1)c1ccc([O-])cc1[O-] (optimized conformer: 42.74993274367699 kcal/mol)

>  <smiles>  (60) 
O=C(N=Nc1ccc(O)cc1)c1ccc(O)cc1O

>  <score_type>  (60) 
oracle

>  <origin>  (60) 
adg

>  <m_score__min__energy>  (60) 
-12.970000000000001

>  <m_primary>  (60) 
energy

$$$$
60:0
     RDKit          3D

 30 31  0  0  0  0  0  0  0  0999 V2000
   54.7330   27.0700   46.7680 H   0  0  0  0  0  0  0  0  0  0  0  0
   55.1460   26.5030   45.9950 N   0  0  0  0  0  0  0  0  0  0  0  0
   56.8370   26.8560   45.9580 S   0  0  0  0  0  0  0  0  0  0  0  0
   57.3990   26.7550   47.3470 O   0  0  0  0  0  0  0  0  0  0  0  0
   57.5400   25.8590   45.0800 O   0  0  0  0  0  0  0  0  0  0  0  0
   57.0840   28.4820   45.3300 C   0  0  0  0  0  0  0  0  0  0  0  0
   56.0560   29.1370   44.6410 C   0  0  0  0  0  0  0  0  0  0  0  0
   55.0867   28.6363   44.5003 H   0  0  0  0  0  0  0  0  0  0  0  0
   56.2540   30.4230   44.1310 C   0  0  0  0  0  0  0  0  0  0  0  0
   55.4408   30.9274   43.5885 H   0  0  0  0  0  0  0  0  0  0  0  0
   57.4910   31.0780   44.3080 C   0  0  0  0  0  0  0  0  0  0  0  0
   57.7590   32.4370   43.7800 C   0  0  0  0  0  0  0  0  0  0  0  0
   57.4710   32.6550   42.7410 H   0  0  0  0  0  0  0  0  0  0  0  0
   58.3320   33.4160   44.4950 C   0  0  0  0  0  0  0  0  0  0  0  0
   59.2082   33.9324   44.0760 H   0  0  0  0  0  0  0  0  0  0  0  0
   57.8330   33.8290   45.8240 C   0  0  0  0  0  0  0  0  0  0  0  0
   56.6830   33.4600   46.1780 O   0  0  0  0  0  0  0  0  0  0  0  0
   58.5850   34.6800   46.7000 N   0  0  0  0  0  0  0  0  0  0  0  0
   59.6370   34.3280   47.3800 C   0  0  0  0  0  0  0  0  0  0  0  0
   60.8550   33.3510   46.7620 S   0  0  0  0  0  0  0  0  0  0  0  0
   61.7680   33.4170   48.1780 C   0  0  0  0  0  0  0  0  0  0  0  0
   62.7319   32.9151   48.3485 H   0  0  0  0  0  0  0  0  0  0  0  0
   61.0910   34.2160   49.0930 C   0  0  0  0  0  0  0  0  0  0  0  0
   61.4798   34.4212   50.1013 H   0  0  0  0  0  0  0  0  0  0  0  0
   59.9120   34.7240   48.6460 N   0  0  0  0  0  0  0  0  0  0  0  0
   59.3200   35.3630   49.2200 H   0  0  0  0  0  0  0  0  0  0  0  0
   58.5240   30.4030   44.9790 C   0  0  0  0  0  0  0  0  0  0  0  0
   59.5017   30.8910   45.1054 H   0  0  0  0  0  0  0  0  0  0  0  0
   58.3210   29.1160   45.4880 C   0  0  0  0  0  0  0  0  0  0  0  0
   59.1374   28.6003   46.0147 H   0  0  0  0  0  0  0  0  0  0  0  0
  1  2  1  0
  2  3  1  0
  3  4  2  0
  3  5  2  0
  3  6  1  0
  6  7  2  0
  7  8  1  0
  7  9  1  0
  9 10  1  0
  9 11  2  0
 11 12  1  0
 12 13  1  0
 12 14  2  0
 14 15  1  0
 14 16  1  0
 16 17  2  0
 16 18  1  0
 18 19  2  0
 19 20  1  0
 20 21  1  0
 21 22  1  0
 21 23  2  0
 23 24  1  0
 23 25  1  0
 25 26  1  0
 11 27  1  0
 27 28  1  0
 27 29  2  0
 29 30  1  0
 29  6  1  0
 25 19  1  0
M  CHG  1   2  -1
M  END
>  <UniqueID>  (61) 
56

>  <SMILES>  (61) 
[NH-]S(=O)(=O)c1ccc(/C=C/C(=O)/N=c2\[nH]ccs2)cc1

>  <Energy>  (61) 
69.24493125476467

>  <Genealogy>  (61) 
[NH-]S(=O)(=O)c1ccc(C=CC(=O)N=c2[nH]ccs2)cc1 (protonated)
[NH-]S(=O)(=O)c1ccc(/C=C/C(=O)/N=c2\[nH]ccs2)cc1 (cis-trans isomerization)
[NH-]S(=O)(=O)c1ccc(/C=C/C(=O)/N=c2\[nH]ccs2)cc1 (3D coordinates assigned)
[NH-]S(=O)(=O)c1ccc(/C=C/C(=O)/N=c2\[nH]ccs2)cc1 (optimized conformer: 69.24493125476467 kcal/mol)

>  <smiles>  (61) 
NS(=O)(=O)c1ccc(C=CC(=O)N=c2[nH]ccs2)cc1

>  <score_type>  (61) 
oracle

>  <origin>  (61) 
adg

>  <m_score__min__energy>  (61) 
-10.210000000000001

>  <m_primary>  (61) 
energy

$$$$
61:0
     RDKit          3D

 60 64  0  0  0  0  0  0  0  0999 V2000
   55.9080   29.3490   42.4790 N   0  0  0  0  0  0  0  0  0  0  0  0
   57.0580   29.1330   43.3110 C   0  0  0  0  0  0  0  0  0  0  0  0
   57.7180   28.0160   43.2140 N   0  0  0  0  0  0  0  0  0  0  0  0
   57.4890   30.1860   44.2640 C   0  0  0  0  0  0  0  0  0  0  0  0
   57.8790   29.8470   45.5730 C   0  0  0  0  0  0  0  0  0  0  0  0
   58.2730   30.8410   46.4790 C   0  0  0  0  0  0  0  0  0  0  0  0
   58.2830   32.1890   46.0920 C   0  0  0  0  0  0  0  0  0  0  0  0
   58.6650   33.2550   47.0480 C   0  0  0  0  0  0  0  0  0  0  0  0
   57.7840   34.0930   47.3950 O   0  0  0  0  0  0  0  0  0  0  0  0
   59.9900   33.3210   47.6290 N   0  0  0  0  0  0  0  0  0  0  0  0
   60.8680   32.1310   47.6400 C   0  0  0  0  0  0  0  0  0  0  0  0
   61.6010   31.9990   48.9840 C   0  0  0  0  0  0  0  0  0  0  0  0
   60.7620   32.5360   50.0650 N   0  0  0  0  0  0  0  0  0  0  0  0
   60.1090   31.6460   50.9860 C   0  0  0  0  0  0  0  0  0  0  0  0
   60.7550   31.2700   52.1940 C   0  0  0  0  0  0  0  0  0  0  0  0
   60.1060   30.4310   53.1260 C   0  0  0  0  0  0  0  0  0  0  0  0
   58.8180   29.9990   52.8140 C   0  0  0  0  0  0  0  0  0  0  0  0
   58.0060   29.2300   53.5550 N   0  0  0  0  0  0  0  0  0  0  0  0
   56.8810   29.1760   52.7890 C   0  0  0  0  0  0  0  0  0  0  0  0
   55.4010   28.3060   53.2960 S   0  0  0  0  0  0  0  0  0  0  0  0
   54.6200   29.7670   54.0690 C   0  0  0  0  0  0  0  0  0  0  0  0
   53.6610   30.4510   53.1320 C   0  0  0  0  0  0  0  0  0  0  0  0
   52.4240   30.9260   53.6020 C   0  0  0  0  0  0  0  0  0  0  0  0
   51.5290   31.5490   52.7260 C   0  0  0  0  0  0  0  0  0  0  0  0
   51.8620   31.7030   51.3770 C   0  0  0  0  0  0  0  0  0  0  0  0
   50.9820   32.3400   50.5130 O   0  0  0  0  0  0  0  0  0  0  0  0
   53.0840   31.2190   50.8980 C   0  0  0  0  0  0  0  0  0  0  0  0
   53.9810   30.5960   51.7700 C   0  0  0  0  0  0  0  0  0  0  0  0
   56.9500   29.8650   51.6190 N   0  0  0  0  0  0  0  0  0  0  0  0
   58.1890   30.3710   51.6590 C   0  0  0  0  0  0  0  0  0  0  0  0
   58.7970   31.1910   50.7150 C   0  0  0  0  0  0  0  0  0  0  0  0
   60.3000   33.9310   49.9830 C   0  0  0  0  0  0  0  0  0  0  0  0
   60.3470   34.4310   48.5310 C   0  0  0  0  0  0  0  0  0  0  0  0
   57.9140   32.5280   44.7820 C   0  0  0  0  0  0  0  0  0  0  0  0
   57.5160   31.5380   43.8750 C   0  0  0  0  0  0  0  0  0  0  0  0
   55.3240   30.2110   42.5870 H   0  0  0  0  0  0  0  0  0  0  0  0
   55.6020   28.6310   41.7830 H   0  0  0  0  0  0  0  0  0  0  0  0
   57.2370   27.0980   43.3580 H   0  0  0  0  0  0  0  0  0  0  0  0
   58.7340   27.9990   42.9680 H   0  0  0  0  0  0  0  0  0  0  0  0
   57.8746   28.7930   45.8877 H   0  0  0  0  0  0  0  0  0  0  0  0
   58.5760   30.5624   47.4991 H   0  0  0  0  0  0  0  0  0  0  0  0
   60.2568   31.2316   47.4739 H   0  0  0  0  0  0  0  0  0  0  0  0
   61.6170   32.2411   46.8420 H   0  0  0  0  0  0  0  0  0  0  0  0
   61.8146   30.9380   49.1806 H   0  0  0  0  0  0  0  0  0  0  0  0
   62.5429   32.5654   48.9405 H   0  0  0  0  0  0  0  0  0  0  0  0
   61.7706   31.6360   52.4054 H   0  0  0  0  0  0  0  0  0  0  0  0
   60.5981   30.1298   54.0626 H   0  0  0  0  0  0  0  0  0  0  0  0
   54.0716   29.4443   54.9663 H   0  0  0  0  0  0  0  0  0  0  0  0
   55.4146   30.4827   54.3266 H   0  0  0  0  0  0  0  0  0  0  0  0
   52.1589   30.8072   54.6630 H   0  0  0  0  0  0  0  0  0  0  0  0
   50.5622   31.9181   53.0989 H   0  0  0  0  0  0  0  0  0  0  0  0
   53.3392   31.3289   49.8337 H   0  0  0  0  0  0  0  0  0  0  0  0
   54.9412   30.2175   51.3896 H   0  0  0  0  0  0  0  0  0  0  0  0
   58.2759   31.4762   49.7892 H   0  0  0  0  0  0  0  0  0  0  0  0
   59.2659   33.9918   50.3531 H   0  0  0  0  0  0  0  0  0  0  0  0
   60.9611   34.5605   50.5967 H   0  0  0  0  0  0  0  0  0  0  0  0
   59.6310   35.2560   48.4018 H   0  0  0  0  0  0  0  0  0  0  0  0
   61.3592   34.7909   48.2946 H   0  0  0  0  0  0  0  0  0  0  0  0
   57.9374   33.5808   44.4642 H   0  0  0  0  0  0  0  0  0  0  0  0
   57.2228   31.8189   42.8527 H   0  0  0  0  0  0  0  0  0  0  0  0
  1  2  1  0
  2  3  2  0
  2  4  1  0
  4  5  2  0
  5  6  1  0
  6  7  2  0
  7  8  1  0
  8  9  2  0
  8 10  1  0
 10 11  1  0
 11 12  1  0
 12 13  1  0
 13 14  1  0
 14 15  2  0
 15 16  1  0
 16 17  2  0
 17 18  1  0
 18 19  1  0
 19 20  1  0
 20 21  1  0
 21 22  1  0
 22 23  2  0
 23 24  1  0
 24 25  2  0
 25 26  1  0
 25 27  1  0
 27 28  2  0
 19 29  2  0
 29 30  1  0
 30 31  2  0
 13 32  1  0
 32 33  1  0
  7 34  1  0
 34 35  2  0
 35  4  1  0
 33 10  1  0
 31 14  1  0
 30 17  1  0
 28 22  1  0
  1 36  1  0
  1 37  1  0
  3 38  1  0
  3 39  1  0
  5 40  1  0
  6 41  1  0
 11 42  1  0
 11 43  1  0
 12 44  1  0
 12 45  1  0
 15 46  1  0
 16 47  1  0
 21 48  1  0
 21 49  1  0
 23 50  1  0
 24 51  1  0
 27 52  1  0
 28 53  1  0
 31 54  1  0
 32 55  1  0
 32 56  1  0
 33 57  1  0
 33 58  1  0
 34 59  1  0
 35 60  1  0
M  CHG  3   3   1  18  -1  26  -1
M  END
>  <UniqueID>  (62) 
57

>  <SMILES>  (62) 
NC(=[NH2+])c1ccc(C(=O)N2CCN(c3ccc4[n-]c(SCc5ccc([O-])cc5)nc4c3)CC2)cc1

>  <Energy>  (62) 
110.48667101979593

>  <Genealogy>  (62) 
NC(=[NH2+])c1ccc(C(=O)N2CCN(c3ccc4[n-]c(SCc5ccc([O-])cc5)nc4c3)CC2)cc1 (protonated)
NC(=[NH2+])c1ccc(C(=O)N2CCN(c3ccc4[n-]c(SCc5ccc([O-])cc5)nc4c3)CC2)cc1 (3D coordinates assigned)
NC(=[NH2+])c1ccc(C(=O)N2CCN(c3ccc4[n-]c(SCc5ccc([O-])cc5)nc4c3)CC2)cc1 (nonaromatic ring conformer: 110.48667101979593 kcal/mol)

>  <smiles>  (62) 
N=C(N)c1ccc(C(=O)N2CCN(c3ccc4[nH]c(SCc5ccc(O)cc5)nc4c3)CC2)cc1

>  <score_type>  (62) 
oracle

>  <origin>  (62) 
adg

>  <m_score__min__energy>  (62) 
-15.35

>  <m_primary>  (62) 
energy

$$$$
62:0
     RDKit          3D

 50 52  0  0  0  0  0  0  0  0999 V2000
   64.2620   32.7790   50.3890 C   0  0  0  0  0  0  0  0  0  0  0  0
   63.5650   33.7470   49.6150 O   0  0  0  0  0  0  0  0  0  0  0  0
   63.2840   33.5670   48.2560 C   0  0  0  0  0  0  0  0  0  0  0  0
   64.1880   33.1650   47.4720 O   0  0  0  0  0  0  0  0  0  0  0  0
   61.9260   33.8500   47.7400 C   0  0  0  0  0  0  0  0  0  0  0  0
   61.6650   33.7970   46.3620 C   0  0  0  0  0  0  0  0  0  0  0  0
   60.3830   34.0620   45.8690 C   0  0  0  0  0  0  0  0  0  0  0  0
   59.3340   34.3820   46.7520 C   0  0  0  0  0  0  0  0  0  0  0  0
   58.0220   34.6570   46.3260 O   0  0  0  0  0  0  0  0  0  0  0  0
   57.0840   33.7220   45.7860 C   0  0  0  0  0  0  0  0  0  0  0  0
   57.7650   32.3950   45.4190 C   0  0  2  0  0  0  0  0  0  0  0  0
   57.0100   31.6670   44.2910 C   0  0  0  0  0  0  0  0  0  0  0  0
   56.4650   30.4280   44.7420 O   0  0  0  0  0  0  0  0  0  0  0  0
   57.1180   29.1850   44.6980 C   0  0  0  0  0  0  0  0  0  0  0  0
   57.4280   28.5600   45.9130 C   0  0  0  0  0  0  0  0  0  0  0  0
   58.0970   27.3330   45.9300 C   0  0  0  0  0  0  0  0  0  0  0  0
   58.4570   26.7170   44.7300 C   0  0  0  0  0  0  0  0  0  0  0  0
   58.1500   27.3260   43.5110 C   0  0  0  0  0  0  0  0  0  0  0  0
   57.4820   28.5550   43.4900 C   0  0  0  0  0  0  0  0  0  0  0  0
   57.7860   31.5720   46.5910 O   0  0  0  0  0  0  0  0  0  0  0  0
   58.9230   31.2130   47.3350 C   0  0  0  0  0  0  0  0  0  0  0  0
   60.1220   30.7690   46.7410 C   0  0  0  0  0  0  0  0  0  0  0  0
   61.2130   30.4110   47.5400 C   0  0  0  0  0  0  0  0  0  0  0  0
   61.1280   30.5100   48.9310 C   0  0  0  0  0  0  0  0  0  0  0  0
   62.1880   30.1640   49.7010 F   0  0  0  0  0  0  0  0  0  0  0  0
   59.9520   30.9710   49.5250 C   0  0  0  0  0  0  0  0  0  0  0  0
   58.8570   31.3260   48.7300 C   0  0  0  0  0  0  0  0  0  0  0  0
   59.5970   34.4400   48.1250 C   0  0  0  0  0  0  0  0  0  0  0  0
   60.8780   34.1760   48.6190 C   0  0  0  0  0  0  0  0  0  0  0  0
   64.1119   32.9875   51.4586 H   0  0  0  0  0  0  0  0  0  0  0  0
   63.8778   31.7755   50.1536 H   0  0  0  0  0  0  0  0  0  0  0  0
   65.3355   32.8251   50.1536 H   0  0  0  0  0  0  0  0  0  0  0  0
   62.4761   33.5447   45.6631 H   0  0  0  0  0  0  0  0  0  0  0  0
   60.1935   34.0202   44.7863 H   0  0  0  0  0  0  0  0  0  0  0  0
   56.3010   33.5278   46.5338 H   0  0  0  0  0  0  0  0  0  0  0  0
   56.6512   34.1540   44.8716 H   0  0  0  0  0  0  0  0  0  0  0  0
   58.7842   32.5984   45.0586 H   0  0  0  0  0  0  0  0  0  0  0  0
   56.1909   32.3098   43.9362 H   0  0  0  0  0  0  0  0  0  0  0  0
   57.7217   31.4561   43.4792 H   0  0  0  0  0  0  0  0  0  0  0  0
   57.1425   29.0389   46.8612 H   0  0  0  0  0  0  0  0  0  0  0  0
   58.3400   26.8525   46.8892 H   0  0  0  0  0  0  0  0  0  0  0  0
   58.9830   25.7510   44.7445 H   0  0  0  0  0  0  0  0  0  0  0  0
   58.4338   26.8387   42.5665 H   0  0  0  0  0  0  0  0  0  0  0  0
   57.2400   29.0313   42.5285 H   0  0  0  0  0  0  0  0  0  0  0  0
   60.1999   30.7039   45.6457 H   0  0  0  0  0  0  0  0  0  0  0  0
   62.1407   30.0504   47.0717 H   0  0  0  0  0  0  0  0  0  0  0  0
   59.8861   31.0553   50.6198 H   0  0  0  0  0  0  0  0  0  0  0  0
   57.9364   31.6970   49.2041 H   0  0  0  0  0  0  0  0  0  0  0  0
   58.7868   34.6962   48.8236 H   0  0  0  0  0  0  0  0  0  0  0  0
   61.0671   34.2236   49.7016 H   0  0  0  0  0  0  0  0  0  0  0  0
  1  2  1  0
  2  3  1  0
  3  4  2  0
  3  5  1  0
  5  6  2  0
  6  7  1  0
  7  8  2  0
  8  9  1  0
  9 10  1  0
 10 11  1  0
 11 12  1  0
 12 13  1  0
 13 14  1  0
 14 15  2  0
 15 16  1  0
 16 17  2  0
 17 18  1  0
 18 19  2  0
 11 20  1  0
 20 21  1  0
 21 22  2  0
 22 23  1  0
 23 24  2  0
 24 25  1  0
 24 26  1  0
 26 27  2  0
  8 28  1  0
 28 29  2  0
 29  5  1  0
 19 14  1  0
 27 21  1  0
  1 30  1  0
  1 31  1  0
  1 32  1  0
  6 33  1  0
  7 34  1  0
 10 35  1  0
 10 36  1  0
 11 37  1  6
 12 38  1  0
 12 39  1  0
 15 40  1  0
 16 41  1  0
 17 42  1  0
 18 43  1  0
 19 44  1  0
 22 45  1  0
 23 46  1  0
 26 47  1  0
 27 48  1  0
 28 49  1  0
 29 50  1  0
M  END
>  <UniqueID>  (63) 
58

>  <SMILES>  (63) 
COC(=O)c1ccc(OC[C@H](COc2ccccc2)Oc2ccc(F)cc2)cc1

>  <Energy>  (63) 
51.43239598794507

>  <Genealogy>  (63) 
COC(=O)c1ccc(OC[C@H](COc2ccccc2)Oc2ccc(F)cc2)cc1 (chirality)
COC(=O)c1ccc(OC[C@H](COc2ccccc2)Oc2ccc(F)cc2)cc1 (3D coordinates assigned)
COC(=O)c1ccc(OC[C@H](COc2ccccc2)Oc2ccc(F)cc2)cc1 (optimized conformer: 51.43239598794507 kcal/mol)

>  <smiles>  (63) 
COC(=O)c1ccc(OCC(COc2ccccc2)Oc2ccc(F)cc2)cc1

>  <score_type>  (63) 
oracle

>  <origin>  (63) 
adg

>  <m_score__min__energy>  (63) 
-7.5300000000000002

>  <m_primary>  (63) 
energy

$$$$
63:0
     RDKit          3D

 50 51  0  0  0  0  0  0  0  0999 V2000
   63.3920   33.8230   46.7370 C   0  0  0  0  0  0  0  0  0  0  0  0
   63.5160   32.7770   47.8400 C   0  0  0  0  0  0  0  0  0  0  0  0
   63.5120   33.4340   49.2260 C   0  0  0  0  0  0  0  0  0  0  0  0
   62.3420   34.4170   49.4150 C   0  0  0  0  0  0  0  0  0  0  0  0
   61.0240   33.7650   49.2760 N   0  0  0  0  0  0  0  0  0  0  0  0
   60.2800   33.8990   48.0470 C   0  0  0  0  0  0  0  0  0  0  0  0
   59.5350   34.9030   47.8730 O   0  0  0  0  0  0  0  0  0  0  0  0
   60.4000   32.9130   47.0100 N   0  0  0  0  0  0  0  0  0  0  0  0
   59.3860   32.6680   46.0220 C   0  0  0  0  0  0  0  0  0  0  0  0
   58.9080   31.3620   45.8330 C   0  0  0  0  0  0  0  0  0  0  0  0
   57.9040   31.1040   44.8950 C   0  0  0  0  0  0  0  0  0  0  0  0
   57.3580   32.1510   44.1480 C   0  0  0  0  0  0  0  0  0  0  0  0
   57.8100   33.4590   44.3440 C   0  0  0  0  0  0  0  0  0  0  0  0
   58.8160   33.7200   45.2800 C   0  0  0  0  0  0  0  0  0  0  0  0
   60.4230   33.0280   50.4100 C   0  0  0  0  0  0  0  0  0  0  0  0
   59.2730   33.8320   51.0450 C   0  0  0  0  0  0  0  0  0  0  0  0
   58.5550   33.0020   52.1150 C   0  0  0  0  0  0  0  0  0  0  0  0
   58.1380   31.6870   51.5970 N   0  0  0  0  0  0  0  0  0  0  0  0
   57.2690   30.8420   52.3850 C   0  0  0  0  0  0  0  0  0  0  0  0
   56.9920   31.1380   53.8290 C   0  0  0  0  0  0  0  0  0  0  0  0
   56.7100   29.8430   51.8570 O   0  0  0  0  0  0  0  0  0  0  0  0
   58.5250   31.2860   50.2350 C   0  0  0  0  0  0  0  0  0  0  0  0
   60.0090   31.5880   49.9910 C   0  0  0  0  0  0  0  0  0  0  0  0
   63.2739   34.8193   47.1881 H   0  0  0  0  0  0  0  0  0  0  0  0
   64.2982   33.8078   46.1137 H   0  0  0  0  0  0  0  0  0  0  0  0
   62.5144   33.5963   46.1137 H   0  0  0  0  0  0  0  0  0  0  0  0
   62.6684   32.0793   47.7706 H   0  0  0  0  0  0  0  0  0  0  0  0
   64.4683   32.2422   47.7093 H   0  0  0  0  0  0  0  0  0  0  0  0
   63.4356   32.6453   49.9890 H   0  0  0  0  0  0  0  0  0  0  0  0
   64.4460   34.0067   49.3246 H   0  0  0  0  0  0  0  0  0  0  0  0
   62.4121   34.8590   50.4198 H   0  0  0  0  0  0  0  0  0  0  0  0
   62.4196   35.1823   48.6287 H   0  0  0  0  0  0  0  0  0  0  0  0
   61.3000   32.3870   46.9360 H   0  0  0  0  0  0  0  0  0  0  0  0
   59.3261   30.5359   46.4269 H   0  0  0  0  0  0  0  0  0  0  0  0
   57.5435   30.0757   44.7449 H   0  0  0  0  0  0  0  0  0  0  0  0
   56.5725   31.9459   43.4057 H   0  0  0  0  0  0  0  0  0  0  0  0
   57.3741   34.2840   43.7615 H   0  0  0  0  0  0  0  0  0  0  0  0
   59.1634   34.7518   45.4371 H   0  0  0  0  0  0  0  0  0  0  0  0
   61.1858   32.9093   51.1936 H   0  0  0  0  0  0  0  0  0  0  0  0
   59.6820   34.7419   51.5085 H   0  0  0  0  0  0  0  0  0  0  0  0
   58.5502   34.0949   50.2586 H   0  0  0  0  0  0  0  0  0  0  0  0
   59.2365   32.8503   52.9651 H   0  0  0  0  0  0  0  0  0  0  0  0
   57.6529   33.5497   52.4252 H   0  0  0  0  0  0  0  0  0  0  0  0
   57.6065   30.4813   54.4623 H   0  0  0  0  0  0  0  0  0  0  0  0
   57.2389   32.1886   54.0419 H   0  0  0  0  0  0  0  0  0  0  0  0
   55.9274   30.9612   54.0419 H   0  0  0  0  0  0  0  0  0  0  0  0
   58.3493   30.2072   50.1109 H   0  0  0  0  0  0  0  0  0  0  0  0
   57.9214   31.8526   49.5107 H   0  0  0  0  0  0  0  0  0  0  0  0
   60.6105   30.8703   50.5682 H   0  0  0  0  0  0  0  0  0  0  0  0
   60.1845   31.5014   48.9086 H   0  0  0  0  0  0  0  0  0  0  0  0
  1  2  1  0
  2  3  1  0
  3  4  1  0
  4  5  1  0
  5  6  1  0
  6  7  2  0
  6  8  1  0
  8  9  1  0
  9 10  2  0
 10 11  1  0
 11 12  2  0
 12 13  1  0
 13 14  2  0
  5 15  1  0
 15 16  1  0
 16 17  1  0
 17 18  1  0
 18 19  1  0
 19 20  1  0
 19 21  2  0
 18 22  1  0
 22 23  1  0
 14  9  1  0
 23 15  1  0
  1 24  1  0
  1 25  1  0
  1 26  1  0
  2 27  1  0
  2 28  1  0
  3 29  1  0
  3 30  1  0
  4 31  1  0
  4 32  1  0
  8 33  1  0
 10 34  1  0
 11 35  1  0
 12 36  1  0
 13 37  1  0
 14 38  1  0
 15 39  1  0
 16 40  1  0
 16 41  1  0
 17 42  1  0
 17 43  1  0
 20 44  1  0
 20 45  1  0
 20 46  1  0
 22 47  1  0
 22 48  1  0
 23 49  1  0
 23 50  1  0
M  END
>  <UniqueID>  (64) 
59

>  <SMILES>  (64) 
CCCCN(C(=O)Nc1ccccc1)C1CCN(C(C)=O)CC1

>  <Energy>  (64) 
47.41835474970915

>  <Genealogy>  (64) 
CCCCN(C(=O)Nc1ccccc1)C1CCN(C(C)=O)CC1 (3D coordinates assigned)
CCCCN(C(=O)Nc1ccccc1)C1CCN(C(C)=O)CC1 (nonaromatic ring conformer: 47.41835474970915 kcal/mol)

>  <smiles>  (64) 
CCCCN(C(=O)Nc1ccccc1)C1CCN(C(C)=O)CC1

>  <score_type>  (64) 
oracle

>  <origin>  (64) 
adg

>  <m_score__min__energy>  (64) 
-7.2300000000000004

>  <m_primary>  (64) 
energy

$$$$
64:0
     RDKit          3D

 37 39  0  0  0  0  0  0  0  0999 V2000
   54.6410   26.1240   45.6240 N   0  0  0  0  0  0  0  0  0  0  0  0
   56.3340   26.0080   45.9420 S   0  0  0  0  0  0  0  0  0  0  0  0
   56.5540   25.3450   47.2720 O   0  0  0  0  0  0  0  0  0  0  0  0
   56.9870   25.1740   44.8750 O   0  0  0  0  0  0  0  0  0  0  0  0
   57.0430   27.6200   45.9550 C   0  0  0  0  0  0  0  0  0  0  0  0
   58.0570   27.9390   46.8660 C   0  0  0  0  0  0  0  0  0  0  0  0
   58.6280   29.2150   46.8650 C   0  0  0  0  0  0  0  0  0  0  0  0
   58.1850   30.1920   45.9610 C   0  0  0  0  0  0  0  0  0  0  0  0
   58.8050   31.4900   45.9670 N   0  0  0  0  0  0  0  0  0  0  0  0
   58.4680   32.5470   45.0540 C   0  0  0  0  0  0  0  0  0  0  0  0
   57.4490   32.4580   44.3170 O   0  0  0  0  0  0  0  0  0  0  0  0
   59.2770   33.8080   45.0350 C   0  0  0  0  0  0  0  0  0  0  0  0
   60.1590   33.8740   46.2500 C   0  0  0  0  0  0  0  0  0  0  0  0
   61.1990   33.0020   46.3590 N   0  0  0  0  0  0  0  0  0  0  0  0
   62.0480   33.0380   47.4190 C   0  0  0  0  0  0  0  0  0  0  0  0
   63.1080   32.1320   47.5150 C   0  0  0  0  0  0  0  0  0  0  0  0
   63.9720   32.1850   48.6150 C   0  0  0  0  0  0  0  0  0  0  0  0
   63.7780   33.1430   49.6170 C   0  0  0  0  0  0  0  0  0  0  0  0
   62.7190   34.0540   49.5250 C   0  0  0  0  0  0  0  0  0  0  0  0
   61.8520   34.0030   48.4270 C   0  0  0  0  0  0  0  0  0  0  0  0
   60.8210   34.8800   48.3170 N   0  0  0  0  0  0  0  0  0  0  0  0
   59.9730   34.8440   47.2550 C   0  0  0  0  0  0  0  0  0  0  0  0
   59.0300   35.6770   47.1860 O   0  0  0  0  0  0  0  0  0  0  0  0
   57.1880   29.8580   45.0270 C   0  0  0  0  0  0  0  0  0  0  0  0
   56.6190   28.5820   45.0290 C   0  0  0  0  0  0  0  0  0  0  0  0
   54.2290   26.7170   46.3790 H   0  0  0  0  0  0  0  0  0  0  0  0
   58.4056   27.1830   47.5850 H   0  0  0  0  0  0  0  0  0  0  0  0
   59.4304   29.4547   47.5782 H   0  0  0  0  0  0  0  0  0  0  0  0
   59.4770   31.7070   46.7370 H   0  0  0  0  0  0  0  0  0  0  0  0
   59.9022   33.8255   44.1301 H   0  0  0  0  0  0  0  0  0  0  0  0
   58.5966   34.6723   45.0366 H   0  0  0  0  0  0  0  0  0  0  0  0
   63.2629   31.3792   46.7280 H   0  0  0  0  0  0  0  0  0  0  0  0
   64.8059   31.4718   48.6923 H   0  0  0  0  0  0  0  0  0  0  0  0
   64.4598   33.1801   50.4794 H   0  0  0  0  0  0  0  0  0  0  0  0
   62.5687   34.8071   50.3125 H   0  0  0  0  0  0  0  0  0  0  0  0
   56.8546   30.6049   44.2915 H   0  0  0  0  0  0  0  0  0  0  0  0
   55.8343   28.3315   44.3000 H   0  0  0  0  0  0  0  0  0  0  0  0
  1  2  1  0
  2  3  2  0
  2  4  2  0
  2  5  1  0
  5  6  2  0
  6  7  1  0
  7  8  2  0
  8  9  1  0
  9 10  1  0
 10 11  2  0
 10 12  1  0
 12 13  1  0
 13 14  2  0
 14 15  1  0
 15 16  2  0
 16 17  1  0
 17 18  2  0
 18 19  1  0
 19 20  2  0
 20 21  1  0
 21 22  1  0
 22 23  2  0
  8 24  1  0
 24 25  2  0
 25  5  1  0
 22 13  1  0
 20 15  1  0
  1 26  1  0
  6 27  1  0
  7 28  1  0
  9 29  1  0
 12 30  1  0
 12 31  1  0
 16 32  1  0
 17 33  1  0
 18 34  1  0
 19 35  1  0
 24 36  1  0
 25 37  1  0
M  CHG  2   1  -1  21  -1
M  END
>  <UniqueID>  (65) 
60

>  <SMILES>  (65) 
[NH-]S(=O)(=O)c1ccc(NC(=O)Cc2nc3ccccc3[n-]c2=O)cc1

>  <Energy>  (65) 
45.24495003669342

>  <Genealogy>  (65) 
[NH-]S(=O)(=O)c1ccc(NC(=O)Cc2nc3ccccc3[n-]c2=O)cc1 (protonated)
[NH-]S(=O)(=O)c1ccc(NC(=O)Cc2nc3ccccc3[n-]c2=O)cc1 (3D coordinates assigned)
[NH-]S(=O)(=O)c1ccc(NC(=O)Cc2nc3ccccc3[n-]c2=O)cc1 (optimized conformer: 45.24495003669342 kcal/mol)

>  <smiles>  (65) 
NS(=O)(=O)c1ccc(NC(=O)Cc2nc3ccccc3[nH]c2=O)cc1

>  <score_type>  (65) 
oracle

>  <origin>  (65) 
adg

>  <m_score__min__energy>  (65) 
-11.76

>  <m_primary>  (65) 
energy

$$$$
65:0
     RDKit          3D

 40 40  0  0  0  0  0  0  0  0999 V2000
   57.1970   29.7540   45.5370 H   0  0  0  0  0  0  0  0  0  0  0  0
   57.4370   28.8920   45.9720 O   0  0  0  0  0  0  0  0  0  0  0  0
   58.7310   28.5880   45.6470 N   0  0  0  0  0  0  0  0  0  0  0  0
   58.7210   27.6880   44.4700 C   0  0  0  0  0  0  0  0  0  0  0  0
   58.7094   26.6415   44.8087 H   0  0  0  0  0  0  0  0  0  0  0  0
   57.8250   27.8871   43.8637 H   0  0  0  0  0  0  0  0  0  0  0  0
   59.6212   27.8672   43.8637 H   0  0  0  0  0  0  0  0  0  0  0  0
   59.2920   27.8760   46.8140 C   0  0  0  0  0  0  0  0  0  0  0  0
   58.9243   28.3427   47.7398 H   0  0  0  0  0  0  0  0  0  0  0  0
   58.9792   26.8218   46.7855 H   0  0  0  0  0  0  0  0  0  0  0  0
   60.3901   27.9335   46.7855 H   0  0  0  0  0  0  0  0  0  0  0  0
   59.4560   29.8640   45.3810 C   0  0  0  0  0  0  0  0  0  0  0  0
   59.0257   30.3192   44.4768 H   0  0  0  0  0  0  0  0  0  0  0  0
   60.5178   29.5983   45.2721 H   0  0  0  0  0  0  0  0  0  0  0  0
   59.3850   30.8990   46.5170 C   0  0  0  0  0  0  0  0  0  0  0  0
   60.0964   31.7144   46.3192 H   0  0  0  0  0  0  0  0  0  0  0  0
   59.6433   30.4219   47.4739 H   0  0  0  0  0  0  0  0  0  0  0  0
   58.0610   31.4230   46.5790 O   0  0  0  0  0  0  0  0  0  0  0  0
   57.4130   32.1670   45.5760 C   0  0  0  0  0  0  0  0  0  0  0  0
   56.8400   31.6340   44.5350 N   0  0  0  0  0  0  0  0  0  0  0  0
   56.1070   30.4710   44.5650 O   0  0  0  0  0  0  0  0  0  0  0  0
   55.8990   29.7250   43.3770 C   0  0  0  0  0  0  0  0  0  0  0  0
   55.6119   28.6953   43.6362 H   0  0  0  0  0  0  0  0  0  0  0  0
   55.0967   30.1918   42.7867 H   0  0  0  0  0  0  0  0  0  0  0  0
   56.8270   29.7093   42.7867 H   0  0  0  0  0  0  0  0  0  0  0  0
   57.3500   33.6510   45.7430 C   0  0  0  0  0  0  0  0  0  0  0  0
   56.4603   34.0363   45.2233 H   0  0  0  0  0  0  0  0  0  0  0  0
   57.2940   33.8861   46.8161 H   0  0  0  0  0  0  0  0  0  0  0  0
   58.8430   34.4380   45.0430 S   0  0  0  0  0  0  0  0  0  0  0  0
   59.8500   34.2020   46.5110 C   0  0  0  0  0  0  0  0  0  0  0  0
   59.2920   34.3900   47.7830 C   0  0  0  0  0  0  0  0  0  0  0  0
   58.2327   34.6691   47.8825 H   0  0  0  0  0  0  0  0  0  0  0  0
   60.0810   34.2230   48.9260 C   0  0  0  0  0  0  0  0  0  0  0  0
   59.6440   34.3773   49.9236 H   0  0  0  0  0  0  0  0  0  0  0  0
   61.4250   33.8600   48.8000 C   0  0  0  0  0  0  0  0  0  0  0  0
   62.0458   33.7308   49.6989 H   0  0  0  0  0  0  0  0  0  0  0  0
   61.9810   33.6610   47.5330 C   0  0  0  0  0  0  0  0  0  0  0  0
   63.0381   33.3729   47.4357 H   0  0  0  0  0  0  0  0  0  0  0  0
   61.1940   33.8280   46.3890 C   0  0  0  0  0  0  0  0  0  0  0  0
   61.6310   33.6655   45.3927 H   0  0  0  0  0  0  0  0  0  0  0  0
  1  2  1  0
  2  3  1  0
  3  4  1  0
  4  5  1  0
  4  6  1  0
  4  7  1  0
  3  8  1  0
  8  9  1  0
  8 10  1  0
  8 11  1  0
  3 12  1  0
 12 13  1  0
 12 14  1  0
 12 15  1  0
 15 16  1  0
 15 17  1  0
 15 18  1  0
 18 19  1  0
 19 20  2  0
 20 21  1  0
 21 22  1  0
 22 23  1  0
 22 24  1  0
 22 25  1  0
 19 26  1  0
 26 27  1  0
 26 28  1  0
 26 29  1  0
 29 30  1  0
 30 31  2  0
 31 32  1  0
 31 33  1  0
 33 34  1  0
 33 35  2  0
 35 36  1  0
 35 37  1  0
 37 38  1  0
 37 39  2  0
 39 40  1  0
 39 30  1  0
M  CHG  1   3   1
M  END
>  <UniqueID>  (66) 
61

>  <SMILES>  (66) 
CO/N=C(/CSc1ccccc1)OCC[N+](C)(C)O

>  <Energy>  (66) 
34.7612249334984

>  <Genealogy>  (66) 
CON=C(CSc1ccccc1)OCC[N+](C)(C)O (protonated)
CO/N=C(/CSc1ccccc1)OCC[N+](C)(C)O (cis-trans isomerization)
CO/N=C(/CSc1ccccc1)OCC[N+](C)(C)O (3D coordinates assigned)
CO/N=C(/CSc1ccccc1)OCC[N+](C)(C)O (optimized conformer: 34.7612249334984 kcal/mol)

>  <smiles>  (66) 
CON=C(CSc1ccccc1)OCC[N+](C)(C)[O-]

>  <score_type>  (66) 
oracle

>  <origin>  (66) 
adg

>  <m_score__min__energy>  (66) 
-3.9300000000000002

>  <m_primary>  (66) 
energy

$$$$
66:0
     RDKit          3D

 45 47  0  0  0  0  0  0  0  0999 V2000
   62.8450   33.9210   48.8210 C   0  0  0  0  0  0  0  0  0  0  0  0
   61.5160   33.8190   48.1310 C   0  0  0  0  0  0  0  0  0  0  0  0
   61.4450   33.8380   46.7300 C   0  0  0  0  0  0  0  0  0  0  0  0
   60.2120   33.7050   46.0860 C   0  0  0  0  0  0  0  0  0  0  0  0
   59.0350   33.5480   46.8340 C   0  0  0  0  0  0  0  0  0  0  0  0
   57.7120   33.3690   46.1380 C   0  0  0  0  0  0  0  0  0  0  0  0
   57.8420   32.3720   44.9840 C   0  0  0  0  0  0  0  0  0  0  0  0
   56.6370   31.5570   44.8750 N   0  0  0  0  0  0  0  0  0  0  0  0
   56.6270   30.2210   44.3630 C   0  0  0  0  0  0  0  0  0  0  0  0
   55.5400   29.6700   44.0390 O   0  0  0  0  0  0  0  0  0  0  0  0
   57.9140   29.4670   44.2260 C   0  0  0  0  0  0  0  0  0  0  0  0
   57.8490   28.1470   44.9760 C   0  0  0  0  0  0  0  0  0  0  0  0
   57.8360   26.8910   44.3100 C   0  0  0  0  0  0  0  0  0  0  0  0
   57.9290   26.7930   42.7990 C   0  0  0  0  0  0  0  0  0  0  0  0
   57.7100   25.7120   45.0900 C   0  0  0  0  0  0  0  0  0  0  0  0
   57.6040   24.4230   44.5210 C   0  0  0  0  0  0  0  0  0  0  0  0
   57.4970   23.2910   45.3370 C   0  0  0  0  0  0  0  0  0  0  0  0
   57.3690   21.7020   44.5980 Cl  0  0  0  0  0  0  0  0  0  0  0  0
   57.4880   23.4280   46.7290 C   0  0  0  0  0  0  0  0  0  0  0  0
   57.3860   22.3080   47.5460 O   0  0  0  0  0  0  0  0  0  0  0  0
   57.5800   24.6960   47.3040 C   0  0  0  0  0  0  0  0  0  0  0  0
   57.6830   25.8340   46.4970 C   0  0  0  0  0  0  0  0  0  0  0  0
   57.7530   27.0250   47.0720 O   0  0  0  0  0  0  0  0  0  0  0  0
   57.8330   28.1560   46.3870 C   0  0  0  0  0  0  0  0  0  0  0  0
   57.8920   29.2430   47.0240 O   0  0  0  0  0  0  0  0  0  0  0  0
   59.1110   33.4960   48.2340 C   0  0  0  0  0  0  0  0  0  0  0  0
   60.3450   33.6290   48.8780 C   0  0  0  0  0  0  0  0  0  0  0  0
   62.6943   33.9094   49.9106 H   0  0  0  0  0  0  0  0  0  0  0  0
   63.4761   33.0687   48.5291 H   0  0  0  0  0  0  0  0  0  0  0  0
   63.3386   34.8597   48.5291 H   0  0  0  0  0  0  0  0  0  0  0  0
   62.3632   33.9580   46.1363 H   0  0  0  0  0  0  0  0  0  0  0  0
   60.1637   33.7235   44.9872 H   0  0  0  0  0  0  0  0  0  0  0  0
   56.9718   32.9927   46.8594 H   0  0  0  0  0  0  0  0  0  0  0  0
   57.3893   34.3398   45.7338 H   0  0  0  0  0  0  0  0  0  0  0  0
   57.9922   32.9236   44.0442 H   0  0  0  0  0  0  0  0  0  0  0  0
   58.7010   31.7129   45.1782 H   0  0  0  0  0  0  0  0  0  0  0  0
   58.1034   29.2676   43.1609 H   0  0  0  0  0  0  0  0  0  0  0  0
   58.7257   30.0749   44.6522 H   0  0  0  0  0  0  0  0  0  0  0  0
   58.6625   26.0200   42.5262 H   0  0  0  0  0  0  0  0  0  0  0  0
   56.9445   26.5257   42.3876 H   0  0  0  0  0  0  0  0  0  0  0  0
   58.2474   27.7622   42.3876 H   0  0  0  0  0  0  0  0  0  0  0  0
   57.6056   24.3082   43.4270 H   0  0  0  0  0  0  0  0  0  0  0  0
   57.5715   24.8015   48.3989 H   0  0  0  0  0  0  0  0  0  0  0  0
   58.1963   33.3500   48.8273 H   0  0  0  0  0  0  0  0  0  0  0  0
   60.3972   33.5843   49.9759 H   0  0  0  0  0  0  0  0  0  0  0  0
  1  2  1  0
  2  3  2  0
  3  4  1  0
  4  5  2  0
  5  6  1  0
  6  7  1  0
  7  8  1  0
  8  9  1  0
  9 10  2  0
  9 11  1  0
 11 12  1  0
 12 13  2  0
 13 14  1  0
 13 15  1  0
 15 16  2  0
 16 17  1  0
 17 18  1  0
 17 19  2  0
 19 20  1  0
 19 21  1  0
 21 22  2  0
 22 23  1  0
 23 24  1  0
 24 25  2  0
  5 26  1  0
 26 27  2  0
 27  2  1  0
 24 12  1  0
 22 15  1  0
  1 28  1  0
  1 29  1  0
  1 30  1  0
  3 31  1  0
  4 32  1  0
  6 33  1  0
  6 34  1  0
  7 35  1  0
  7 36  1  0
 11 37  1  0
 11 38  1  0
 14 39  1  0
 14 40  1  0
 14 41  1  0
 16 42  1  0
 21 43  1  0
 26 44  1  0
 27 45  1  0
M  CHG  2   8  -1  20  -1
M  END
>  <UniqueID>  (67) 
62

>  <SMILES>  (67) 
Cc1ccc(CC[N-]C(=O)Cc2c(C)c3cc(Cl)c([O-])cc3oc2=O)cc1

>  <Energy>  (67) 
51.33001353460835

>  <Genealogy>  (67) 
Cc1ccc(CC[N-]C(=O)Cc2c(C)c3cc(Cl)c([O-])cc3oc2=O)cc1 (protonated)
Cc1ccc(CC[N-]C(=O)Cc2c(C)c3cc(Cl)c([O-])cc3oc2=O)cc1 (3D coordinates assigned)
Cc1ccc(CC[N-]C(=O)Cc2c(C)c3cc(Cl)c([O-])cc3oc2=O)cc1 (optimized conformer: 51.33001353460835 kcal/mol)

>  <smiles>  (67) 
Cc1ccc(CCNC(=O)Cc2c(C)c3cc(Cl)c(O)cc3oc2=O)cc1

>  <score_type>  (67) 
oracle

>  <origin>  (67) 
adg

>  <m_score__min__energy>  (67) 
-12.56

>  <m_primary>  (67) 
energy

$$$$
67:0
     RDKit          3D

 48 50  0  0  0  0  0  0  0  0999 V2000
   63.0600   33.8390   46.3610 C   0  0  0  0  0  0  0  0  0  0  0  0
   63.3960   32.2160   47.1190 S   0  0  0  0  0  0  0  0  0  0  0  0
   62.8810   32.7210   48.7710 C   0  0  0  0  0  0  0  0  0  0  0  0
   63.7110   33.5980   49.4830 C   0  0  0  0  0  0  0  0  0  0  0  0
   63.3340   34.0670   50.7420 C   0  0  0  0  0  0  0  0  0  0  0  0
   62.1120   33.6820   51.2930 C   0  0  0  0  0  0  0  0  0  0  0  0
   61.2630   32.8270   50.5860 C   0  0  0  0  0  0  0  0  0  0  0  0
   61.6370   32.3300   49.3250 C   0  0  0  0  0  0  0  0  0  0  0  0
   60.6800   31.4720   48.5920 C   0  0  0  0  0  0  0  0  0  0  0  0
   59.4660   31.4700   48.9340 O   0  0  0  0  0  0  0  0  0  0  0  0
   61.1320   30.5870   47.5560 N   0  0  0  0  0  0  0  0  0  0  0  0
   60.2850   30.0790   46.5110 C   0  0  0  0  0  0  0  0  0  0  0  0
   60.3580   28.7410   46.0940 C   0  0  0  0  0  0  0  0  0  0  0  0
   59.5060   28.2650   45.0940 C   0  0  0  0  0  0  0  0  0  0  0  0
   58.5670   29.1170   44.5050 C   0  0  0  0  0  0  0  0  0  0  0  0
   57.7540   28.6270   43.5380 F   0  0  0  0  0  0  0  0  0  0  0  0
   58.4720   30.4550   44.9220 C   0  0  0  0  0  0  0  0  0  0  0  0
   57.3040   31.5600   44.1850 S   0  0  0  0  0  0  0  0  0  0  0  0
   55.9120   31.1120   44.5370 O   0  0  0  0  0  0  0  0  0  0  0  0
   57.4360   31.5120   42.6880 O   0  0  0  0  0  0  0  0  0  0  0  0
   57.5350   33.2040   44.7360 N   0  0  0  0  0  0  0  0  0  0  0  0
   57.0360   33.3930   46.1220 C   0  0  0  0  0  0  0  0  0  0  0  0
   58.1640   33.4600   47.1620 C   0  0  0  0  0  0  0  0  0  0  0  0
   59.1430   34.6050   46.8470 C   0  0  0  0  0  0  0  0  0  0  0  0
   59.2730   34.8780   45.3380 C   0  0  0  0  0  0  0  0  0  0  0  0
   58.9370   33.6270   44.5200 C   0  0  0  0  0  0  0  0  0  0  0  0
   59.3230   30.9240   45.9350 C   0  0  0  0  0  0  0  0  0  0  0  0
   62.9050   34.5879   47.1516 H   0  0  0  0  0  0  0  0  0  0  0  0
   63.9156   34.1364   45.7369 H   0  0  0  0  0  0  0  0  0  0  0  0
   62.1566   33.7723   45.7369 H   0  0  0  0  0  0  0  0  0  0  0  0
   64.6678   33.9193   49.0455 H   0  0  0  0  0  0  0  0  0  0  0  0
   64.0009   34.7406   51.3001 H   0  0  0  0  0  0  0  0  0  0  0  0
   61.8162   34.0521   52.2857 H   0  0  0  0  0  0  0  0  0  0  0  0
   60.2936   32.5401   51.0196 H   0  0  0  0  0  0  0  0  0  0  0  0
   62.1060   30.2200   47.6260 H   0  0  0  0  0  0  0  0  0  0  0  0
   61.0901   28.0631   46.5570 H   0  0  0  0  0  0  0  0  0  0  0  0
   59.5743   27.2163   44.7691 H   0  0  0  0  0  0  0  0  0  0  0  0
   56.4645   34.3319   46.1638 H   0  0  0  0  0  0  0  0  0  0  0  0
   56.4122   32.5212   46.3689 H   0  0  0  0  0  0  0  0  0  0  0  0
   57.7255   33.6262   48.1570 H   0  0  0  0  0  0  0  0  0  0  0  0
   58.7185   32.5103   47.1367 H   0  0  0  0  0  0  0  0  0  0  0  0
   58.7843   35.5203   47.3405 H   0  0  0  0  0  0  0  0  0  0  0  0
   60.1346   34.3050   47.2167 H   0  0  0  0  0  0  0  0  0  0  0  0
   58.5815   35.6865   45.0583 H   0  0  0  0  0  0  0  0  0  0  0  0
   60.3125   35.1667   45.1236 H   0  0  0  0  0  0  0  0  0  0  0  0
   59.0846   33.8466   43.4523 H   0  0  0  0  0  0  0  0  0  0  0  0
   59.5998   32.8114   44.8447 H   0  0  0  0  0  0  0  0  0  0  0  0
   59.2353   31.9644   46.2812 H   0  0  0  0  0  0  0  0  0  0  0  0
  1  2  1  0
  2  3  1  0
  3  4  2  0
  4  5  1  0
  5  6  2  0
  6  7  1  0
  7  8  2  0
  8  9  1  0
  9 10  2  0
  9 11  1  0
 11 12  1  0
 12 13  2  0
 13 14  1  0
 14 15  2  0
 15 16  1  0
 15 17  1  0
 17 18  1  0
 18 19  2  0
 18 20  2  0
 18 21  1  0
 21 22  1  0
 22 23  1  0
 23 24  1  0
 24 25  1  0
 25 26  1  0
 17 27  2  0
  8  3  1  0
 27 12  1  0
 26 21  1  0
  1 28  1  0
  1 29  1  0
  1 30  1  0
  4 31  1  0
  5 32  1  0
  6 33  1  0
  7 34  1  0
 11 35  1  0
 13 36  1  0
 14 37  1  0
 22 38  1  0
 22 39  1  0
 23 40  1  0
 23 41  1  0
 24 42  1  0
 24 43  1  0
 25 44  1  0
 25 45  1  0
 26 46  1  0
 26 47  1  0
 27 48  1  0
M  END
>  <UniqueID>  (68) 
63

>  <SMILES>  (68) 
CSc1ccccc1C(=O)Nc1ccc(F)c(S(=O)(=O)N2CCCCC2)c1

>  <Energy>  (68) 
60.044788742504785

>  <Genealogy>  (68) 
CSc1ccccc1C(=O)Nc1ccc(F)c(S(=O)(=O)N2CCCCC2)c1 (3D coordinates assigned)
CSc1ccccc1C(=O)Nc1ccc(F)c(S(=O)(=O)N2CCCCC2)c1 (nonaromatic ring conformer: 60.044788742504785 kcal/mol)

>  <smiles>  (68) 
CSc1ccccc1C(=O)Nc1ccc(F)c(S(=O)(=O)N2CCCCC2)c1

>  <score_type>  (68) 
oracle

>  <origin>  (68) 
adg

>  <m_score__min__energy>  (68) 
-9.4100000000000001

>  <m_primary>  (68) 
energy

$$$$
68:0
     RDKit          3D

 40 42  0  0  0  0  0  0  0  0999 V2000
   57.7670   32.9130   51.2260 H   0  0  0  0  0  0  0  0  0  0  0  0
   58.3270   32.9840   50.3890 O   0  0  0  0  0  0  0  0  0  0  0  0
   58.4530   31.9850   49.4180 C   0  0  0  0  0  0  0  0  0  0  0  0
   58.6280   30.6530   49.8520 C   0  0  0  0  0  0  0  0  0  0  0  0
   58.6080   30.2780   51.2840 C   0  0  0  0  0  0  0  0  0  0  0  0
   59.5095   30.4563   51.8886 H   0  0  0  0  0  0  0  0  0  0  0  0
   57.5380   29.7310   51.8730 C   0  0  0  0  0  0  0  0  0  0  0  0
   57.5431   28.6504   52.0787 H   0  0  0  0  0  0  0  0  0  0  0  0
   56.3500   30.5210   52.2580 C   0  0  0  0  0  0  0  0  0  0  0  0
   56.5060   31.7320   52.5600 O   0  0  0  0  0  0  0  0  0  0  0  0
   55.0340   29.9540   52.3330 N   0  0  0  0  0  0  0  0  0  0  0  0
   53.7960   30.6790   52.2750 C   0  0  0  0  0  0  0  0  0  0  0  0
   52.9690   30.8230   53.4050 C   0  0  0  0  0  0  0  0  0  0  0  0
   53.2687   30.3770   54.3648 H   0  0  0  0  0  0  0  0  0  0  0  0
   51.7670   31.5320   53.3100 C   0  0  0  0  0  0  0  0  0  0  0  0
   51.1298   31.6539   54.1983 H   0  0  0  0  0  0  0  0  0  0  0  0
   51.3740   32.0860   52.0880 C   0  0  0  0  0  0  0  0  0  0  0  0
   50.1800   32.7900   51.9970 O   0  0  0  0  0  0  0  0  0  0  0  0
   52.1800   31.9250   50.9580 C   0  0  0  0  0  0  0  0  0  0  0  0
   51.8672   32.3541   49.9947 H   0  0  0  0  0  0  0  0  0  0  0  0
   53.3840   31.2190   51.0500 C   0  0  0  0  0  0  0  0  0  0  0  0
   54.0106   31.0872   50.1556 H   0  0  0  0  0  0  0  0  0  0  0  0
   58.8800   29.6420   48.9200 C   0  0  0  0  0  0  0  0  0  0  0  0
   59.0573   28.6136   49.2677 H   0  0  0  0  0  0  0  0  0  0  0  0
   58.9090   29.9220   47.5580 C   0  0  0  0  0  0  0  0  0  0  0  0
   59.1087   29.1133   46.8396 H   0  0  0  0  0  0  0  0  0  0  0  0
   58.6860   31.2260   47.0920 C   0  0  0  0  0  0  0  0  0  0  0  0
   58.6990   31.4990   45.7090 C   0  0  0  0  0  0  0  0  0  0  0  0
   58.9390   30.4800   44.7900 O   0  0  0  0  0  0  0  0  0  0  0  0
   58.4700   32.7960   45.2370 C   0  0  0  0  0  0  0  0  0  0  0  0
   58.4930   33.0170   43.8510 O   0  0  0  0  0  0  0  0  0  0  0  0
   57.7490   32.2610   42.9000 C   0  0  0  0  0  0  0  0  0  0  0  0
   57.0719   31.5730   43.4274 H   0  0  0  0  0  0  0  0  0  0  0  0
   57.1602   32.9431   42.2691 H   0  0  0  0  0  0  0  0  0  0  0  0
   58.4405   31.6832   42.2691 H   0  0  0  0  0  0  0  0  0  0  0  0
   58.2220   33.8280   46.1550 C   0  0  0  0  0  0  0  0  0  0  0  0
   58.0367   34.8488   45.7894 H   0  0  0  0  0  0  0  0  0  0  0  0
   58.2080   33.5730   47.5260 C   0  0  0  0  0  0  0  0  0  0  0  0
   58.0071   34.3951   48.2287 H   0  0  0  0  0  0  0  0  0  0  0  0
   58.4480   32.2750   48.0240 C   0  0  0  0  0  0  0  0  0  0  0  0
  1  2  1  0
  2  3  1  0
  3  4  2  0
  4  5  1  0
  5  6  1  0
  5  7  2  0
  7  8  1  0
  7  9  1  0
  9 10  2  0
  9 11  1  0
 11 12  1  0
 12 13  2  0
 13 14  1  0
 13 15  1  0
 15 16  1  0
 15 17  2  0
 17 18  1  0
 17 19  1  0
 19 20  1  0
 19 21  2  0
 21 22  1  0
  4 23  1  0
 23 24  1  0
 23 25  2  0
 25 26  1  0
 25 27  1  0
 27 28  2  0
 28 29  1  0
 28 30  1  0
 30 31  1  0
 31 32  1  0
 32 33  1  0
 32 34  1  0
 32 35  1  0
 30 36  2  0
 36 37  1  0
 36 38  1  0
 38 39  1  0
 38 40  2  0
 40  3  1  0
 21 12  1  0
 40 27  1  0
M  CHG  3  11  -1  18  -1  29  -1
M  END
>  <UniqueID>  (69) 
64

>  <SMILES>  (69) 
COc1ccc2c(O)c(/C=C/C(=O)[N-]c3ccc([O-])cc3)ccc2c1[O-]

>  <Energy>  (69) 
60.29700027239697

>  <Genealogy>  (69) 
COc1ccc2c(O)c(C=CC(=O)[N-]c3ccc([O-])cc3)ccc2c1[O-] (protonated)
COc1ccc2c(O)c(/C=C/C(=O)[N-]c3ccc([O-])cc3)ccc2c1[O-] (cis-trans isomerization)
COc1ccc2c(O)c(/C=C/C(=O)[N-]c3ccc([O-])cc3)ccc2c1[O-] (3D coordinates assigned)
COc1ccc2c(O)c(/C=C/C(=O)[N-]c3ccc([O-])cc3)ccc2c1[O-] (optimized conformer: 60.29700027239697 kcal/mol)

>  <smiles>  (69) 
COc1ccc2c(O)c(C=CC(=O)Nc3ccc(O)cc3)ccc2c1O

>  <score_type>  (69) 
oracle

>  <origin>  (69) 
adg

>  <m_score__min__energy>  (69) 
-12.49

>  <m_primary>  (69) 
energy

$$$$
69:0
     RDKit          3D

 44 47  0  0  1  0  0  0  0  0999 V2000
   64.5130   33.0630   48.5380 C   0  0  0  0  0  0  0  0  0  0  0  0
   63.0330   32.9010   48.6080 C   0  0  0  0  0  0  0  0  0  0  0  0
   62.1480   32.0490   49.9470 S   0  0  0  0  0  0  0  0  0  0  0  0
   60.5300   32.3630   49.1910 C   0  0  0  0  0  0  0  0  0  0  0  0
   59.2880   32.0020   49.6430 N   0  0  0  0  0  0  0  0  0  0  0  0
   58.2130   32.3370   48.9250 C   0  0  0  0  0  0  0  0  0  0  0  0
   58.4120   33.0150   47.7920 N   0  0  0  0  0  0  0  0  0  0  0  0
   59.6070   33.3880   47.3140 C   0  0  0  0  0  0  0  0  0  0  0  0
   59.6740   34.0370   46.2180 N   0  0  0  0  0  0  0  0  0  0  0  0
   59.2800   33.5370   44.9270 C   0  0  0  0  0  0  0  0  0  0  0  0
   57.7570   33.4010   44.7910 C   0  0  0  0  0  0  0  0  0  0  0  0
   57.3730   32.1600   45.3900 N   0  0  0  0  0  0  0  0  0  0  0  0
   57.3340   31.0170   44.8280 C   0  0  0  0  0  0  0  0  0  0  0  0
   56.4340   30.8470   43.7890 C   0  0  0  0  0  0  0  0  0  0  0  0
   56.3290   29.6400   43.1300 C   0  0  0  0  0  0  0  0  0  0  0  0
   57.1120   28.5960   43.4930 N   0  0  0  0  0  0  0  0  0  0  0  0
   58.0090   28.7300   44.5140 C   0  0  0  0  0  0  0  0  0  0  0  0
   58.8190   27.6640   44.8980 C   0  0  0  0  0  0  0  0  0  0  0  0
   59.7100   27.8380   45.9310 C   0  0  0  0  0  0  0  0  0  0  0  0
   60.7250   26.4850   46.4040 Cl  0  0  0  0  0  0  0  0  0  0  0  0
   59.8180   29.0560   46.5990 C   0  0  0  0  0  0  0  0  0  0  0  0
   59.0260   30.1160   46.2310 C   0  0  0  0  0  0  0  0  0  0  0  0
   58.1270   29.9470   45.1930 C   0  0  0  0  0  0  0  0  0  0  0  0
   60.7770   33.0490   48.0490 C   0  0  0  0  0  0  0  0  0  0  0  0
   62.0480   33.3390   47.7260 C   0  0  0  0  0  0  0  0  0  0  0  0
   62.4800   34.0970   46.4820 C   0  0  0  0  0  0  0  0  0  0  0  0
   64.9255   33.1082   49.5567 H   0  0  0  0  0  0  0  0  0  0  0  0
   64.9506   32.2074   48.0028 H   0  0  0  0  0  0  0  0  0  0  0  0
   64.7552   33.9930   48.0028 H   0  0  0  0  0  0  0  0  0  0  0  0
   57.1998   32.0642   49.2551 H   0  0  0  0  0  0  0  0  0  0  0  0
   57.5490   33.2650   47.2480 H   0  0  0  0  0  0  0  0  0  0  0  0
   59.6430   34.2303   44.1540 H   0  0  0  0  0  0  0  0  0  0  0  0
   59.7178   32.5349   44.8080 H   0  0  0  0  0  0  0  0  0  0  0  0
   57.2594   34.2353   45.3071 H   0  0  0  0  0  0  0  0  0  0  0  0
   57.4626   33.4232   43.7314 H   0  0  0  0  0  0  0  0  0  0  0  0
   55.7931   31.6876   43.4848 H   0  0  0  0  0  0  0  0  0  0  0  0
   55.6076   29.5249   42.3076 H   0  0  0  0  0  0  0  0  0  0  0  0
   57.0370   27.6620   42.9900 H   0  0  0  0  0  0  0  0  0  0  0  0
   58.7470   26.6954   44.3817 H   0  0  0  0  0  0  0  0  0  0  0  0
   60.5387   29.1688   47.4223 H   0  0  0  0  0  0  0  0  0  0  0  0
   59.1050   31.0816   46.7520 H   0  0  0  0  0  0  0  0  0  0  0  0
   63.0047   35.0176   46.7773 H   0  0  0  0  0  0  0  0  0  0  0  0
   63.1543   33.4664   45.8841 H   0  0  0  0  0  0  0  0  0  0  0  0
   61.5937   34.3558   45.8841 H   0  0  0  0  0  0  0  0  0  0  0  0
  1  2  1  0
  2  3  1  0
  3  4  1  0
  4  5  1  0
  5  6  2  0
  6  7  1  0
  7  8  1  0
  8  9  2  0
  9 10  1  0
 10 11  1  0
 11 12  1  0
 12 13  2  0
 13 14  1  0
 14 15  2  0
 15 16  1  0
 16 17  1  0
 17 18  2  0
 18 19  1  0
 19 20  1  0
 19 21  2  0
 21 22  1  0
 22 23  2  0
  8 24  1  0
 24 25  1  0
 25 26  1  0
 25  2  2  0
 24  4  2  0
 23 13  1  0
 23 17  1  0
  1 27  1  0
  1 28  1  0
  1 29  1  0
  6 30  1  0
  7 31  1  0
 10 32  1  0
 10 33  1  0
 11 34  1  0
 11 35  1  0
 14 36  1  0
 15 37  1  0
 16 38  1  0
 18 39  1  0
 21 40  1  0
 22 41  1  0
 26 42  1  0
 26 43  1  0
 26 44  1  0
M  END
>  <smiles>  (70) 
Cc1sc2nc[nH]c(=NCCN=c3cc[nH]c4cc(Cl)ccc34)c2c1C

>  <score_type>  (70) 
oracle

>  <origin>  (70) 
adg

>  <m_score__min__energy>  (70) 
-8.1500000000000004

>  <m_primary>  (70) 
energy

$$$$
70:0
     RDKit          3D

 54 57  0  0  1  0  0  0  0  0999 V2000
   57.1410   21.0070   46.3970 C   0  0  0  0  0  0  0  0  0  0  0  0
   57.3610   22.2080   47.1110 O   0  0  0  0  0  0  0  0  0  0  0  0
   57.3850   23.4310   46.5050 C   0  0  0  0  0  0  0  0  0  0  0  0
   57.4820   23.6200   45.1430 C   0  0  0  0  0  0  0  0  0  0  0  0
   57.5040   24.8810   44.5650 C   0  0  0  0  0  0  0  0  0  0  0  0
   57.4270   25.9810   45.3810 C   0  0  0  0  0  0  0  0  0  0  0  0
   57.4430   27.3400   44.8470 C   0  0  0  0  0  0  0  0  0  0  0  0
   57.0980   28.4980   45.5550 C   0  0  0  0  0  0  0  0  0  0  0  0
   57.2200   29.6060   44.7500 C   0  0  0  0  0  0  0  0  0  0  0  0
   56.9960   30.8480   45.0220 N   0  0  0  0  0  0  0  0  0  0  0  0
   57.7070   31.8400   44.3200 C   0  0  0  0  0  0  0  0  0  0  0  0
   57.7080   31.9150   43.0360 O   0  0  0  0  0  0  0  0  0  0  0  0
   58.5140   32.8850   44.9680 C   0  0  0  0  0  0  0  0  0  0  0  0
   58.4260   34.2050   44.6000 C   0  0  0  0  0  0  0  0  0  0  0  0
   59.2300   35.1580   45.2500 C   0  0  0  0  0  0  0  0  0  0  0  0
   60.1010   34.7340   46.2600 C   0  0  0  0  0  0  0  0  0  0  0  0
   60.2050   33.4400   46.6400 C   0  0  0  0  0  0  0  0  0  0  0  0
   61.0920   32.8600   47.6620 C   0  0  0  0  0  0  0  0  0  0  0  0
   60.3490   32.4170   48.8190 N   0  0  0  0  0  0  0  0  0  0  0  0
   59.6470   33.3220   49.6930 C   0  0  0  0  0  0  0  0  0  0  0  0
   59.6740   34.5720   49.4810 O   0  0  0  0  0  0  0  0  0  0  0  0
   58.8920   32.7910   50.8490 C   0  0  0  0  0  0  0  0  0  0  0  0
   58.8590   33.5380   52.0280 C   0  0  0  0  0  0  0  0  0  0  0  0
   58.0930   33.0390   53.0930 C   0  0  0  0  0  0  0  0  0  0  0  0
   57.4180   31.8820   52.9720 N   0  0  0  0  0  0  0  0  0  0  0  0
   57.4300   31.1330   51.8450 C   0  0  0  0  0  0  0  0  0  0  0  0
   56.7870   30.0440   51.7490 O   0  0  0  0  0  0  0  0  0  0  0  0
   58.1800   31.5840   50.7490 C   0  0  0  0  0  0  0  0  0  0  0  0
   59.3850   32.5220   45.9650 C   0  0  0  0  0  0  0  0  0  0  0  0
   57.6400   29.1090   43.5520 N   0  0  0  0  0  0  0  0  0  0  0  0
   57.7630   27.7960   43.6270 N   0  0  0  0  0  0  0  0  0  0  0  0
   57.3260   25.8240   46.7760 C   0  0  0  0  0  0  0  0  0  0  0  0
   57.3100   24.5580   47.2790 C   0  0  0  0  0  0  0  0  0  0  0  0
   56.9896   20.1807   47.1072 H   0  0  0  0  0  0  0  0  0  0  0  0
   56.2477   21.1150   45.7643 H   0  0  0  0  0  0  0  0  0  0  0  0
   58.0146   20.7913   45.7643 H   0  0  0  0  0  0  0  0  0  0  0  0
   57.5443   22.7373   44.4895 H   0  0  0  0  0  0  0  0  0  0  0  0
   57.5817   24.9965   43.4738 H   0  0  0  0  0  0  0  0  0  0  0  0
   56.7751   28.5183   46.6063 H   0  0  0  0  0  0  0  0  0  0  0  0
   57.7327   34.5141   43.8038 H   0  0  0  0  0  0  0  0  0  0  0  0
   59.1752   36.2201   44.9690 H   0  0  0  0  0  0  0  0  0  0  0  0
   60.7269   35.4840   46.7657 H   0  0  0  0  0  0  0  0  0  0  0  0
   61.6232   32.0002   47.2278 H   0  0  0  0  0  0  0  0  0  0  0  0
   61.8011   33.6368   47.9842 H   0  0  0  0  0  0  0  0  0  0  0  0
   60.3410   31.3690   49.0180 H   0  0  0  0  0  0  0  0  0  0  0  0
   59.4134   34.4837   52.1190 H   0  0  0  0  0  0  0  0  0  0  0  0
   58.0442   33.6007   54.0375 H   0  0  0  0  0  0  0  0  0  0  0  0
   56.8510   31.5650   53.8190 H   0  0  0  0  0  0  0  0  0  0  0  0
   58.2105   30.9976   49.8189 H   0  0  0  0  0  0  0  0  0  0  0  0
   59.4432   31.4608   46.2486 H   0  0  0  0  0  0  0  0  0  0  0  0
   57.8490   29.6570   42.6710 H   0  0  0  0  0  0  0  0  0  0  0  0
   58.0690   27.1260   42.8630 H   0  0  0  0  0  0  0  0  0  0  0  0
   57.2619   26.6980   47.4408 H   0  0  0  0  0  0  0  0  0  0  0  0
   57.2324   24.4341   48.3692 H   0  0  0  0  0  0  0  0  0  0  0  0
  1  2  1  0
  2  3  1  0
  3  4  2  0
  4  5  1  0
  5  6  2  0
  6  7  1  0
  7  8  2  0
  8  9  1  0
  9 10  2  0
 10 11  1  0
 11 12  2  0
 11 13  1  0
 13 14  2  0
 14 15  1  0
 15 16  2  0
 16 17  1  0
 17 18  1  0
 18 19  1  0
 19 20  1  0
 20 21  2  0
 20 22  1  0
 22 23  1  0
 23 24  2  0
 24 25  1  0
 25 26  1  0
 26 27  2  0
 26 28  1  0
 17 29  2  0
  9 30  1  0
 30 31  1  0
  6 32  1  0
 32 33  2  0
 33  3  1  0
 31  7  1  0
 29 13  1  0
 28 22  2  0
  1 34  1  0
  1 35  1  0
  1 36  1  0
  4 37  1  0
  5 38  1  0
  8 39  1  0
 14 40  1  0
 15 41  1  0
 16 42  1  0
 18 43  1  0
 18 44  1  0
 19 45  1  0
 23 46  1  0
 24 47  1  0
 25 48  1  0
 28 49  1  0
 29 50  1  0
 30 51  1  0
 31 52  1  0
 32 53  1  0
 33 54  1  0
M  END
>  <smiles>  (71) 
COc1ccc(-c2cc(=NC(=O)c3cccc(CNC(=O)c4cc[nH]c(=O)c4)c3)[nH][nH]2)cc1

>  <score_type>  (71) 
oracle

>  <origin>  (71) 
adg

>  <m_score__min__energy>  (71) 
-10.15

>  <m_primary>  (71) 
energy

$$$$
71:0
     RDKit          3D

 34 36  0  0  0  0  0  0  0  0999 V2000
   63.1610   33.1130   47.1190 C   0  0  0  0  0  0  0  0  0  0  0  0
   61.8160   32.4620   47.1670 C   0  0  0  0  0  0  0  0  0  0  0  0
   60.6520   33.2350   47.1160 C   0  0  0  0  0  0  0  0  0  0  0  0
   59.4150   32.5850   47.1610 C   0  0  0  0  0  0  0  0  0  0  0  0
   58.1450   33.3710   47.1060 C   0  0  0  0  0  0  0  0  0  0  0  0
   59.3720   31.2280   47.2500 N   0  0  0  0  0  0  0  0  0  0  0  0
   60.5090   30.4860   47.2990 C   0  0  0  0  0  0  0  0  0  0  0  0
   60.4160   29.1910   47.3830 N   0  0  0  0  0  0  0  0  0  0  0  0
   60.0060   28.2830   46.3460 C   0  0  0  0  0  0  0  0  0  0  0  0
   60.8380   27.5100   45.7970 O   0  0  0  0  0  0  0  0  0  0  0  0
   58.5760   28.2150   45.9690 C   0  0  0  0  0  0  0  0  0  0  0  0
   57.8090   27.1580   46.4850 C   0  0  0  0  0  0  0  0  0  0  0  0
   56.4730   27.0110   46.1070 C   0  0  0  0  0  0  0  0  0  0  0  0
   55.7920   26.0540   46.5600 O   0  0  0  0  0  0  0  0  0  0  0  0
   55.9080   27.8930   45.2470 N   0  0  0  0  0  0  0  0  0  0  0  0
   56.5990   28.9430   44.7360 C   0  0  0  0  0  0  0  0  0  0  0  0
   55.9560   29.8320   43.8660 C   0  0  0  0  0  0  0  0  0  0  0  0
   56.6390   30.9380   43.3590 C   0  0  0  0  0  0  0  0  0  0  0  0
   57.9650   31.1680   43.7260 C   0  0  0  0  0  0  0  0  0  0  0  0
   58.6230   30.2880   44.5920 C   0  0  0  0  0  0  0  0  0  0  0  0
   57.9580   29.1470   45.0920 C   0  0  0  0  0  0  0  0  0  0  0  0
   61.7200   31.1090   47.2570 N   0  0  0  0  0  0  0  0  0  0  0  0
   63.5208   33.2872   48.1438 H   0  0  0  0  0  0  0  0  0  0  0  0
   63.8672   32.4570   46.5889 H   0  0  0  0  0  0  0  0  0  0  0  0
   63.0846   34.0738   46.5889 H   0  0  0  0  0  0  0  0  0  0  0  0
   60.7083   34.3311   47.0421 H   0  0  0  0  0  0  0  0  0  0  0  0
   57.8010   33.5839   48.1289 H   0  0  0  0  0  0  0  0  0  0  0  0
   58.3223   34.3175   46.5743 H   0  0  0  0  0  0  0  0  0  0  0  0
   57.3770   32.7901   46.5743 H   0  0  0  0  0  0  0  0  0  0  0  0
   58.2618   26.4441   47.1887 H   0  0  0  0  0  0  0  0  0  0  0  0
   54.9079   29.6577   43.5810 H   0  0  0  0  0  0  0  0  0  0  0  0
   56.1316   31.6289   42.6696 H   0  0  0  0  0  0  0  0  0  0  0  0
   58.4966   32.0468   43.3321 H   0  0  0  0  0  0  0  0  0  0  0  0
   59.6646   30.4861   44.8851 H   0  0  0  0  0  0  0  0  0  0  0  0
  1  2  1  0
  2  3  1  0
  3  4  2  0
  4  5  1  0
  4  6  1  0
  6  7  1  0
  7  8  2  3
  8  9  1  0
  9 10  2  0
  9 11  1  0
 11 12  2  0
 12 13  1  0
 13 14  2  0
 13 15  1  0
 15 16  1  0
 16 17  2  0
 17 18  1  0
 18 19  2  0
 19 20  1  0
 20 21  2  0
  7 22  1  0
 22  2  2  0
 21 11  1  0
 21 16  1  0
  1 23  1  0
  1 24  1  0
  1 25  1  0
  3 26  1  0
  5 27  1  0
  5 28  1  0
  5 29  1  0
 12 30  1  0
 17 31  1  0
 18 32  1  0
 19 33  1  0
 20 34  1  0
M  CHG  2   6  -1  15  -1
M  END
>  <UniqueID>  (72) 
65

>  <SMILES>  (72) 
Cc1cc(C)[n-]c(=NC(=O)c2cc(=O)[n-]c3ccccc23)n1

>  <Energy>  (72) 
47.77789130041651

>  <Genealogy>  (72) 
Cc1cc(C)[n-]c(=NC(=O)c2cc(=O)[n-]c3ccccc23)n1 (protonated)
Cc1cc(C)[n-]c(=NC(=O)c2cc(=O)[n-]c3ccccc23)n1 (3D coordinates assigned)
Cc1cc(C)[n-]c(=NC(=O)c2cc(=O)[n-]c3ccccc23)n1 (optimized conformer: 47.77789130041651 kcal/mol)

>  <smiles>  (72) 
Cc1cc(C)[nH]c(=NC(=O)c2cc(=O)[nH]c3ccccc23)n1

>  <score_type>  (72) 
oracle

>  <origin>  (72) 
adg

>  <m_score__min__energy>  (72) 
-11.1

>  <m_primary>  (72) 
energy

$$$$
72:0
     RDKit          3D

 57 60  0  0  0  0  0  0  0  0999 V2000
   60.7250   27.1680   47.1170 C   0  0  0  0  0  0  0  0  0  0  0  0
   59.7790   28.0930   46.4100 C   0  0  0  0  0  0  0  0  0  0  0  0
   60.0740   28.5370   45.1140 C   0  0  0  0  0  0  0  0  0  0  0  0
   59.1970   29.3950   44.4450 C   0  0  0  0  0  0  0  0  0  0  0  0
   58.0180   29.8260   45.0690 C   0  0  0  0  0  0  0  0  0  0  0  0
   56.8870   30.8540   44.1920 S   0  0  0  0  0  0  0  0  0  0  0  0
   55.5140   30.2460   44.2720 O   0  0  0  0  0  0  0  0  0  0  0  0
   57.2710   30.9530   42.7420 O   0  0  0  0  0  0  0  0  0  0  0  0
   56.8520   32.4310   44.9140 N   0  0  0  0  0  0  0  0  0  0  0  0
   57.9370   32.9600   45.6930 C   0  0  0  0  0  0  0  0  0  0  0  0
   58.9730   33.7020   45.0970 C   0  0  0  0  0  0  0  0  0  0  0  0
   60.0230   34.2020   45.8700 C   0  0  0  0  0  0  0  0  0  0  0  0
   60.0520   33.9720   47.2480 C   0  0  0  0  0  0  0  0  0  0  0  0
   61.0690   34.4670   47.9990 N   0  0  0  0  0  0  0  0  0  0  0  0
   61.1090   34.2600   49.3400 C   0  0  0  0  0  0  0  0  0  0  0  0
   60.1330   33.5400   49.9490 N   0  0  0  0  0  0  0  0  0  0  0  0
   59.0960   33.0100   49.2440 C   0  0  0  0  0  0  0  0  0  0  0  0
   58.1210   32.2350   49.8870 O   0  0  0  0  0  0  0  0  0  0  0  0
   58.2490   31.7230   51.2120 C   0  0  0  0  0  0  0  0  0  0  0  0
   58.5380   30.2470   51.2230 C   0  0  0  0  0  0  0  0  0  0  0  0
   57.6490   29.4550   51.6280 O   0  0  0  0  0  0  0  0  0  0  0  0
   59.7800   29.7040   50.7590 N   0  0  0  0  0  0  0  0  0  0  0  0
   60.2860   29.7540   49.3900 C   0  0  0  0  0  0  0  0  0  0  0  0
   61.5310   30.6120   49.3000 C   0  0  0  0  0  0  0  0  0  0  0  0
   62.2350   30.9050   50.4820 C   0  0  0  0  0  0  0  0  0  0  0  0
   63.3850   31.6960   50.4500 C   0  0  0  0  0  0  0  0  0  0  0  0
   63.8540   32.2050   49.2420 C   0  0  0  0  0  0  0  0  0  0  0  0
   63.1540   31.9530   48.0620 C   0  0  0  0  0  0  0  0  0  0  0  0
   61.9760   31.1830   48.0760 C   0  0  0  0  0  0  0  0  0  0  0  0
   61.2490   30.9550   46.7770 C   0  0  0  0  0  0  0  0  0  0  0  0
   59.0200   33.2320   47.8600 C   0  0  0  0  0  0  0  0  0  0  0  0
   57.9560   32.7480   47.0800 C   0  0  0  0  0  0  0  0  0  0  0  0
   57.7330   29.4020   46.3740 C   0  0  0  0  0  0  0  0  0  0  0  0
   58.6070   28.5400   47.0410 C   0  0  0  0  0  0  0  0  0  0  0  0
   60.6067   27.2836   48.2045 H   0  0  0  0  0  0  0  0  0  0  0  0
   60.5030   26.1289   46.8325 H   0  0  0  0  0  0  0  0  0  0  0  0
   61.7589   27.4132   46.8325 H   0  0  0  0  0  0  0  0  0  0  0  0
   61.0007   28.2084   44.6207 H   0  0  0  0  0  0  0  0  0  0  0  0
   59.4326   29.7334   43.4252 H   0  0  0  0  0  0  0  0  0  0  0  0
   55.9220   32.9050   44.9600 H   0  0  0  0  0  0  0  0  0  0  0  0
   58.9558   33.8898   44.0133 H   0  0  0  0  0  0  0  0  0  0  0  0
   60.8293   34.7784   45.3929 H   0  0  0  0  0  0  0  0  0  0  0  0
   61.9350   34.6771   49.9348 H   0  0  0  0  0  0  0  0  0  0  0  0
   59.0720   32.2493   51.7176 H   0  0  0  0  0  0  0  0  0  0  0  0
   57.2929   31.8847   51.7314 H   0  0  0  0  0  0  0  0  0  0  0  0
   60.5283   28.7334   49.0590 H   0  0  0  0  0  0  0  0  0  0  0  0
   59.5104   30.1950   48.7466 H   0  0  0  0  0  0  0  0  0  0  0  0
   61.8755   30.5065   51.4422 H   0  0  0  0  0  0  0  0  0  0  0  0
   63.9229   31.9181   51.3834 H   0  0  0  0  0  0  0  0  0  0  0  0
   64.7755   32.8052   49.2181 H   0  0  0  0  0  0  0  0  0  0  0  0
   63.5266   32.3604   47.1106 H   0  0  0  0  0  0  0  0  0  0  0  0
   60.2184   30.6318   46.9854 H   0  0  0  0  0  0  0  0  0  0  0  0
   61.2300   31.8903   46.1984 H   0  0  0  0  0  0  0  0  0  0  0  0
   61.7675   30.1763   46.1984 H   0  0  0  0  0  0  0  0  0  0  0  0
   57.1324   32.1992   47.5600 H   0  0  0  0  0  0  0  0  0  0  0  0
   56.8175   29.7493   46.8752 H   0  0  0  0  0  0  0  0  0  0  0  0
   58.3761   28.2101   48.0647 H   0  0  0  0  0  0  0  0  0  0  0  0
  1  2  1  0
  2  3  2  0
  3  4  1  0
  4  5  2  0
  5  6  1  0
  6  7  2  0
  6  8  2  0
  6  9  1  0
  9 10  1  0
 10 11  2  0
 11 12  1  0
 12 13  2  0
 13 14  1  0
 14 15  2  0
 15 16  1  0
 16 17  2  0
 17 18  1  0
 18 19  1  0
 19 20  1  0
 20 21  2  0
 20 22  1  0
 22 23  1  0
 23 24  1  0
 24 25  2  0
 25 26  1  0
 26 27  2  0
 27 28  1  0
 28 29  2  0
 29 30  1  0
 17 31  1  0
 31 32  2  0
  5 33  1  0
 33 34  2  0
 34  2  1  0
 32 10  1  0
 31 13  1  0
 29 24  1  0
  1 35  1  0
  1 36  1  0
  1 37  1  0
  3 38  1  0
  4 39  1  0
  9 40  1  0
 11 41  1  0
 12 42  1  0
 15 43  1  0
 19 44  1  0
 19 45  1  0
 23 46  1  0
 23 47  1  0
 25 48  1  0
 26 49  1  0
 27 50  1  0
 28 51  1  0
 30 52  1  0
 30 53  1  0
 30 54  1  0
 32 55  1  0
 33 56  1  0
 34 57  1  0
M  CHG  1  22  -1
M  END
>  <UniqueID>  (73) 
66

>  <SMILES>  (73) 
Cc1ccc(S(=O)(=O)Nc2ccc3ncnc(OCC(=O)[N-]Cc4ccccc4C)c3c2)cc1

>  <Energy>  (73) 
60.44705716318179

>  <Genealogy>  (73) 
Cc1ccc(S(=O)(=O)Nc2ccc3ncnc(OCC(=O)[N-]Cc4ccccc4C)c3c2)cc1 (protonated)
Cc1ccc(S(=O)(=O)Nc2ccc3ncnc(OCC(=O)[N-]Cc4ccccc4C)c3c2)cc1 (3D coordinates assigned)
Cc1ccc(S(=O)(=O)Nc2ccc3ncnc(OCC(=O)[N-]Cc4ccccc4C)c3c2)cc1 (optimized conformer: 60.44705716318179 kcal/mol)

>  <smiles>  (73) 
Cc1ccc(S(=O)(=O)Nc2ccc3ncnc(OCC(=O)NCc4ccccc4C)c3c2)cc1

>  <score_type>  (73) 
oracle

>  <origin>  (73) 
adg

>  <m_score__min__energy>  (73) 
-12.16

>  <m_primary>  (73) 
energy

$$$$
73:0
     RDKit          3D

 52 54  0  0  0  0  0  0  0  0999 V2000
   56.5420   30.5380   42.4980 C   0  0  0  0  0  0  0  0  0  0  0  0
   57.5980   31.6320   42.6350 C   0  0  0  0  0  0  0  0  0  0  0  0
   57.7410   32.0600   44.0760 C   0  0  0  0  0  0  0  0  0  0  0  0
   57.7470   33.4290   44.3910 C   0  0  0  0  0  0  0  0  0  0  0  0
   57.8990   33.8510   45.7130 C   0  0  0  0  0  0  0  0  0  0  0  0
   58.0650   32.9140   46.7320 C   0  0  0  0  0  0  0  0  0  0  0  0
   58.0770   31.5500   46.4330 C   0  0  0  0  0  0  0  0  0  0  0  0
   57.8990   31.1090   45.1080 C   0  0  0  0  0  0  0  0  0  0  0  0
   57.9330   29.7080   44.7890 N   0  0  0  0  0  0  0  0  0  0  0  0
   57.0050   28.7150   45.2420 C   0  0  0  0  0  0  0  0  0  0  0  0
   55.7740   28.9800   45.2180 O   0  0  0  0  0  0  0  0  0  0  0  0
   57.4570   27.4140   45.7910 C   0  0  0  0  0  0  0  0  0  0  0  0
   56.5080   26.4350   46.1550 C   0  0  0  0  0  0  0  0  0  0  0  0
   55.1460   26.6680   45.9610 O   0  0  0  0  0  0  0  0  0  0  0  0
   56.9320   25.2180   46.7000 C   0  0  0  0  0  0  0  0  0  0  0  0
   58.2900   24.9620   46.8750 C   0  0  0  0  0  0  0  0  0  0  0  0
   59.2380   25.9180   46.5080 C   0  0  0  0  0  0  0  0  0  0  0  0
   58.8370   27.1470   45.9490 C   0  0  0  0  0  0  0  0  0  0  0  0
   59.7860   28.1780   45.6170 N   0  0  0  0  0  0  0  0  0  0  0  0
   60.4010   29.1480   46.4750 C   0  0  0  0  0  0  0  0  0  0  0  0
   61.2460   29.9680   46.0290 O   0  0  0  0  0  0  0  0  0  0  0  0
   59.9750   29.2300   47.8800 C   0  0  0  0  0  0  0  0  0  0  0  0
   58.8760   28.7210   48.2220 O   0  0  0  0  0  0  0  0  0  0  0  0
   60.7550   29.9170   48.8630 N   0  0  0  0  0  0  0  0  0  0  0  0
   61.1810   31.2830   48.7660 C   0  0  0  0  0  0  0  0  0  0  0  0
   62.4200   31.5600   48.1760 C   0  0  0  0  0  0  0  0  0  0  0  0
   62.8270   32.8800   47.9710 C   0  0  0  0  0  0  0  0  0  0  0  0
   61.9830   33.9340   48.3220 C   0  0  0  0  0  0  0  0  0  0  0  0
   60.7310   33.6710   48.8800 C   0  0  0  0  0  0  0  0  0  0  0  0
   60.3250   32.3510   49.1230 C   0  0  0  0  0  0  0  0  0  0  0  0
   58.6750   32.0510   49.7880 S   0  0  0  0  0  0  0  0  0  0  0  0
   58.9770   32.7600   51.4460 C   0  0  0  0  0  0  0  0  0  0  0  0
   60.2380   32.4470   51.9130 F   0  0  0  0  0  0  0  0  0  0  0  0
   58.8480   34.1360   51.3860 F   0  0  0  0  0  0  0  0  0  0  0  0
   58.0360   32.2600   52.3250 F   0  0  0  0  0  0  0  0  0  0  0  0
   56.2237   30.2083   43.4980 H   0  0  0  0  0  0  0  0  0  0  0  0
   55.6745   30.9325   41.9486 H   0  0  0  0  0  0  0  0  0  0  0  0
   56.9669   29.6850   41.9486 H   0  0  0  0  0  0  0  0  0  0  0  0
   58.5640   31.2483   42.2750 H   0  0  0  0  0  0  0  0  0  0  0  0
   57.2855   32.5013   42.0378 H   0  0  0  0  0  0  0  0  0  0  0  0
   57.6311   34.1740   43.5900 H   0  0  0  0  0  0  0  0  0  0  0  0
   57.8878   34.9248   45.9512 H   0  0  0  0  0  0  0  0  0  0  0  0
   58.1866   33.2495   47.7725 H   0  0  0  0  0  0  0  0  0  0  0  0
   58.2265   30.8154   47.2380 H   0  0  0  0  0  0  0  0  0  0  0  0
   54.6790   27.4680   46.3730 H   0  0  0  0  0  0  0  0  0  0  0  0
   56.1898   24.4602   46.9915 H   0  0  0  0  0  0  0  0  0  0  0  0
   58.6162   24.0030   47.3039 H   0  0  0  0  0  0  0  0  0  0  0  0
   60.3079   25.7099   46.6566 H   0  0  0  0  0  0  0  0  0  0  0  0
   63.0774   30.7322   47.8718 H   0  0  0  0  0  0  0  0  0  0  0  0
   63.8139   33.0889   47.5324 H   0  0  0  0  0  0  0  0  0  0  0  0
   62.3046   34.9732   48.1588 H   0  0  0  0  0  0  0  0  0  0  0  0
   60.0585   34.5045   49.1308 H   0  0  0  0  0  0  0  0  0  0  0  0
  1  2  1  0
  2  3  1  0
  3  4  2  0
  4  5  1  0
  5  6  2  0
  6  7  1  0
  7  8  2  0
  8  9  1  0
  9 10  1  0
 10 11  2  0
 10 12  1  0
 12 13  2  0
 13 14  1  0
 13 15  1  0
 15 16  2  0
 16 17  1  0
 17 18  2  0
 18 19  1  0
 19 20  1  0
 20 21  2  0
 20 22  1  0
 22 23  2  0
 22 24  1  0
 24 25  1  0
 25 26  2  0
 26 27  1  0
 27 28  2  0
 28 29  1  0
 29 30  2  0
 30 31  1  0
 31 32  1  0
 32 33  1  0
 32 34  1  0
 32 35  1  0
  8  3  1  0
 18 12  1  0
 30 25  1  0
  1 36  1  0
  1 37  1  0
  1 38  1  0
  2 39  1  0
  2 40  1  0
  4 41  1  0
  5 42  1  0
  6 43  1  0
  7 44  1  0
 14 45  1  0
 15 46  1  0
 16 47  1  0
 17 48  1  0
 26 49  1  0
 27 50  1  0
 28 51  1  0
 29 52  1  0
M  CHG  3   9  -1  19  -1  24  -1
M  END
>  <UniqueID>  (74) 
67

>  <SMILES>  (74) 
CCc1ccccc1[N-]C(=O)c1c(O)cccc1[N-]C(=O)C(=O)[N-]c1ccccc1SC(F)(F)F

>  <Energy>  (74) 
71.3484225390035

>  <Genealogy>  (74) 
CCc1ccccc1[N-]C(=O)c1c(O)cccc1[N-]C(=O)C(=O)[N-]c1ccccc1SC(F)(F)F (protonated)
CCc1ccccc1[N-]C(=O)c1c(O)cccc1[N-]C(=O)C(=O)[N-]c1ccccc1SC(F)(F)F (3D coordinates assigned)
CCc1ccccc1[N-]C(=O)c1c(O)cccc1[N-]C(=O)C(=O)[N-]c1ccccc1SC(F)(F)F (optimized conformer: 71.3484225390035 kcal/mol)

>  <smiles>  (74) 
CCc1ccccc1NC(=O)c1c(O)cccc1NC(=O)C(=O)Nc1ccccc1SC(F)(F)F

>  <score_type>  (74) 
oracle

>  <origin>  (74) 
adg

>  <m_score__min__energy>  (74) 
-13.800000000000001

>  <m_primary>  (74) 
energy

$$$$
74:0
     RDKit          3D

 57 59  0  0  0  0  0  0  0  0999 V2000
   64.8230   32.5230   49.6530 C   0  0  0  0  0  0  0  0  0  0  0  0
   64.0510   33.4350   49.0550 C   0  0  0  0  0  0  0  0  0  0  0  0
   63.7250   33.3660   47.5800 C   0  0  0  0  0  0  0  0  0  0  0  0
   62.2990   33.0760   47.3180 N   0  0  0  0  0  0  0  0  0  0  0  0
   61.6840   34.0350   46.3780 C   0  0  0  0  0  0  0  0  0  0  0  0
   60.2640   33.5890   45.9740 C   0  0  0  0  0  0  0  0  0  0  0  0
   59.4450   32.9470   47.1430 C   0  0  1  0  0  0  0  0  0  0  0  0
   57.9810   33.4590   47.0740 C   0  0  0  0  0  0  0  0  0  0  0  0
   59.5040   31.4100   47.0010 C   0  0  0  0  0  0  0  0  0  0  0  0
   58.6830   30.7480   46.0600 C   0  0  0  0  0  0  0  0  0  0  0  0
   58.7490   29.3560   45.8860 C   0  0  0  0  0  0  0  0  0  0  0  0
   57.9330   28.6760   44.9700 O   0  0  0  0  0  0  0  0  0  0  0  0
   56.6440   28.1970   45.2350 C   0  0  0  0  0  0  0  0  0  0  0  0
   56.4630   27.0210   45.6540 O   0  0  0  0  0  0  0  0  0  0  0  0
   55.5250   29.0500   44.9770 N   0  0  0  0  0  0  0  0  0  0  0  0
   55.5860   30.2280   44.1180 C   0  0  0  0  0  0  0  0  0  0  0  0
   56.3760   29.9210   42.8420 C   0  0  0  0  0  0  0  0  0  0  0  0
   57.0300   31.1890   42.2820 C   0  0  0  0  0  0  0  0  0  0  0  0
   57.6910   32.0010   43.3910 C   0  0  0  0  0  0  0  0  0  0  0  0
   59.6850   28.6200   46.6130 C   0  0  0  0  0  0  0  0  0  0  0  0
   60.5370   29.2530   47.5140 C   0  0  0  0  0  0  0  0  0  0  0  0
   60.4750   30.6410   47.7030 C   0  0  0  0  0  0  0  0  0  0  0  0
   61.4240   31.2620   48.7050 C   0  0  0  0  0  0  0  0  0  0  0  0
   61.5130   32.7890   48.5530 C   0  0  2  0  0  0  0  0  0  0  0  0
   60.0820   33.3850   48.4990 C   0  0  2  0  0  0  0  0  0  0  0  0
   59.2410   33.0200   49.7440 C   0  0  0  0  0  0  0  0  0  0  0  0
   65.0390   32.6052   50.7284 H   0  0  0  0  0  0  0  0  0  0  0  0
   65.2426   31.6900   49.0699 H   0  0  0  0  0  0  0  0  0  0  0  0
   63.6401   34.2611   49.6539 H   0  0  0  0  0  0  0  0  0  0  0  0
   63.9768   34.3327   47.1195 H   0  0  0  0  0  0  0  0  0  0  0  0
   64.3134   32.5418   47.1505 H   0  0  0  0  0  0  0  0  0  0  0  0
   61.6264   35.0223   46.8595 H   0  0  0  0  0  0  0  0  0  0  0  0
   62.3054   34.0807   45.4715 H   0  0  0  0  0  0  0  0  0  0  0  0
   59.7150   34.4696   45.6091 H   0  0  0  0  0  0  0  0  0  0  0  0
   60.3800   32.8142   45.2019 H   0  0  0  0  0  0  0  0  0  0  0  0
   57.5917   33.5951   48.0938 H   0  0  0  0  0  0  0  0  0  0  0  0
   57.9535   34.4201   46.5397 H   0  0  0  0  0  0  0  0  0  0  0  0
   57.3605   32.7245   46.5397 H   0  0  0  0  0  0  0  0  0  0  0  0
   57.9785   31.3346   45.4520 H   0  0  0  0  0  0  0  0  0  0  0  0
   54.5641   30.5316   43.8469 H   0  0  0  0  0  0  0  0  0  0  0  0
   56.0908   31.0396   44.6624 H   0  0  0  0  0  0  0  0  0  0  0  0
   57.1594   29.1840   43.0726 H   0  0  0  0  0  0  0  0  0  0  0  0
   55.6818   29.5224   42.0875 H   0  0  0  0  0  0  0  0  0  0  0  0
   57.7925   30.9034   41.5424 H   0  0  0  0  0  0  0  0  0  0  0  0
   56.2498   31.8071   41.8137 H   0  0  0  0  0  0  0  0  0  0  0  0
   57.3738   31.6114   44.3696 H   0  0  0  0  0  0  0  0  0  0  0  0
   58.7845   31.9216   43.3016 H   0  0  0  0  0  0  0  0  0  0  0  0
   57.3914   33.0556   43.3016 H   0  0  0  0  0  0  0  0  0  0  0  0
   59.7504   27.5309   46.4732 H   0  0  0  0  0  0  0  0  0  0  0  0
   61.2663   28.6581   48.0835 H   0  0  0  0  0  0  0  0  0  0  0  0
   61.0706   31.0272   49.7199 H   0  0  0  0  0  0  0  0  0  0  0  0
   62.4260   30.8461   48.5231 H   0  0  0  0  0  0  0  0  0  0  0  0
   62.0215   33.2562   49.4092 H   0  0  0  0  0  0  0  0  0  0  0  0
   60.1179   34.4839   48.5340 H   0  0  0  0  0  0  0  0  0  0  0  0
   59.8076   33.2659   50.6542 H   0  0  0  0  0  0  0  0  0  0  0  0
   58.3009   33.5911   49.7318 H   0  0  0  0  0  0  0  0  0  0  0  0
   59.0161   31.9433   49.7318 H   0  0  0  0  0  0  0  0  0  0  0  0
  1  2  2  0
  2  3  1  0
  3  4  1  0
  4  5  1  0
  5  6  1  0
  6  7  1  0
  7  8  1  1
  7  9  1  0
  9 10  2  0
 10 11  1  0
 11 12  1  0
 12 13  1  0
 13 14  2  0
 13 15  1  0
 15 16  1  0
 16 17  1  0
 17 18  1  0
 18 19  1  0
 11 20  2  0
 20 21  1  0
 21 22  2  0
 22 23  1  0
 23 24  1  0
 24 25  1  0
 25 26  1  0
 24  4  1  0
 25  7  1  0
 22  9  1  0
  1 27  1  0
  1 28  1  0
  2 29  1  0
  3 30  1  0
  3 31  1  0
  5 32  1  0
  5 33  1  0
  6 34  1  0
  6 35  1  0
  8 36  1  0
  8 37  1  0
  8 38  1  0
 10 39  1  0
 16 40  1  0
 16 41  1  0
 17 42  1  0
 17 43  1  0
 18 44  1  0
 18 45  1  0
 19 46  1  0
 19 47  1  0
 19 48  1  0
 20 49  1  0
 21 50  1  0
 23 51  1  0
 23 52  1  0
 24 53  1  1
 25 54  1  6
 26 55  1  0
 26 56  1  0
 26 57  1  0
M  CHG  1  15  -1
M  END
>  <UniqueID>  (75) 
68

>  <SMILES>  (75) 
C=CCN1CC[C@@]2(C)c3cc(OC(=O)[N-]CCCC)ccc3C[C@@H]1C2C

>  <Energy>  (75) 
71.53663547731666

>  <Genealogy>  (75) 
C=CCN1CCC2(C)c3cc(OC(=O)[N-]CCCC)ccc3CC1C2C (protonated)
C=CCN1CC[C@@]2(C)c3cc(OC(=O)[N-]CCCC)ccc3C[C@@H]1C2C (chirality)
C=CCN1CC[C@@]2(C)c3cc(OC(=O)[N-]CCCC)ccc3C[C@@H]1C2C (3D coordinates assigned)
C=CCN1CC[C@@]2(C)c3cc(OC(=O)[N-]CCCC)ccc3C[C@@H]1C2C (nonaromatic ring conformer: 71.53663547731666 kcal/mol)

>  <smiles>  (75) 
C=CCN1CCC2(C)c3cc(OC(=O)NCCCC)ccc3CC1C2C

>  <score_type>  (75) 
oracle

>  <origin>  (75) 
adg

>  <m_score__min__energy>  (75) 
-10.289999999999999

>  <m_primary>  (75) 
energy

$$$$
75:0
     RDKit          3D

 37 38  0  0  0  0  0  0  0  0999 V2000
   61.4900   30.4630   46.7320 N   0  0  0  0  0  0  0  0  0  0  0  0
   61.0090   32.0620   47.1820 S   0  0  0  0  0  0  0  0  0  0  0  0
   60.9450   32.1500   48.6820 O   0  0  0  0  0  0  0  0  0  0  0  0
   62.0170   33.0560   46.6780 O   0  0  0  0  0  0  0  0  0  0  0  0
   59.4340   32.4190   46.4800 C   0  0  0  0  0  0  0  0  0  0  0  0
   58.7980   33.6440   46.7300 C   0  0  0  0  0  0  0  0  0  0  0  0
   57.5540   33.9180   46.1510 C   0  0  0  0  0  0  0  0  0  0  0  0
   56.9340   32.9660   45.3390 C   0  0  0  0  0  0  0  0  0  0  0  0
   57.5430   31.7260   45.1140 C   0  0  0  0  0  0  0  0  0  0  0  0
   56.8870   30.7610   44.2830 N   0  0  0  0  0  0  0  0  0  0  0  0
   56.3710   29.4990   44.7300 C   0  0  0  0  0  0  0  0  0  0  0  0
   55.1530   29.4150   45.0390 O   0  0  0  0  0  0  0  0  0  0  0  0
   57.2560   28.2980   44.9000 C   0  0  0  0  0  0  0  0  0  0  0  0
   57.4560   28.0420   46.3250 N   0  0  0  0  0  0  0  0  0  0  0  0
   59.1480   27.8610   46.6730 S   0  0  0  0  0  0  0  0  0  0  0  0
   59.9450   28.6330   45.6590 O   0  0  0  0  0  0  0  0  0  0  0  0
   59.5250   26.4100   46.5690 O   0  0  0  0  0  0  0  0  0  0  0  0
   59.5240   28.4700   48.2840 C   0  0  0  0  0  0  0  0  0  0  0  0
   60.4330   27.7900   49.1080 C   0  0  0  0  0  0  0  0  0  0  0  0
   60.7110   28.2690   50.3920 C   0  0  0  0  0  0  0  0  0  0  0  0
   60.0800   29.4260   50.8600 C   0  0  0  0  0  0  0  0  0  0  0  0
   59.1680   30.1020   50.0450 C   0  0  0  0  0  0  0  0  0  0  0  0
   58.8890   29.6250   48.7600 C   0  0  0  0  0  0  0  0  0  0  0  0
   58.8110   31.4700   45.6620 C   0  0  0  0  0  0  0  0  0  0  0  0
   60.8760   29.7980   47.2550 H   0  0  0  0  0  0  0  0  0  0  0  0
   61.2610   30.3490   45.7190 H   0  0  0  0  0  0  0  0  0  0  0  0
   59.2774   34.3895   47.3815 H   0  0  0  0  0  0  0  0  0  0  0  0
   57.0635   34.8851   46.3358 H   0  0  0  0  0  0  0  0  0  0  0  0
   55.9629   33.1916   44.8742 H   0  0  0  0  0  0  0  0  0  0  0  0
   56.7811   27.4227   44.4327 H   0  0  0  0  0  0  0  0  0  0  0  0
   58.2277   28.4859   44.4199 H   0  0  0  0  0  0  0  0  0  0  0  0
   60.9282   26.8780   48.7433 H   0  0  0  0  0  0  0  0  0  0  0  0
   61.4267   27.7352   51.0346 H   0  0  0  0  0  0  0  0  0  0  0  0
   60.3014   29.8037   51.8691 H   0  0  0  0  0  0  0  0  0  0  0  0
   58.6691   31.0101   50.4144 H   0  0  0  0  0  0  0  0  0  0  0  0
   58.1692   30.1580   48.1214 H   0  0  0  0  0  0  0  0  0  0  0  0
   59.3173   30.5175   45.4466 H   0  0  0  0  0  0  0  0  0  0  0  0
  1  2  1  0
  2  3  2  0
  2  4  2  0
  2  5  1  0
  5  6  2  0
  6  7  1  0
  7  8  2  0
  8  9  1  0
  9 10  1  0
 10 11  1  0
 11 12  2  0
 11 13  1  0
 13 14  1  0
 14 15  1  0
 15 16  2  0
 15 17  2  0
 15 18  1  0
 18 19  2  0
 19 20  1  0
 20 21  2  0
 21 22  1  0
 22 23  2  0
  9 24  2  0
 24  5  1  0
 23 18  1  0
  1 25  1  0
  1 26  1  0
  6 27  1  0
  7 28  1  0
  8 29  1  0
 13 30  1  0
 13 31  1  0
 19 32  1  0
 20 33  1  0
 21 34  1  0
 22 35  1  0
 23 36  1  0
 24 37  1  0
M  CHG  2  10  -1  14  -1
M  END
>  <UniqueID>  (76) 
69

>  <SMILES>  (76) 
NS(=O)(=O)c1cccc([N-]C(=O)C[N-]S(=O)(=O)c2ccccc2)c1

>  <Energy>  (76) 
37.535813679632675

>  <Genealogy>  (76) 
NS(=O)(=O)c1cccc([N-]C(=O)C[N-]S(=O)(=O)c2ccccc2)c1 (protonated)
NS(=O)(=O)c1cccc([N-]C(=O)C[N-]S(=O)(=O)c2ccccc2)c1 (3D coordinates assigned)
NS(=O)(=O)c1cccc([N-]C(=O)C[N-]S(=O)(=O)c2ccccc2)c1 (optimized conformer: 37.535813679632675 kcal/mol)

>  <smiles>  (76) 
NS(=O)(=O)c1cccc(NC(=O)CNS(=O)(=O)c2ccccc2)c1

>  <score_type>  (76) 
oracle

>  <origin>  (76) 
adg

>  <m_score__min__energy>  (76) 
-11.279999999999999

>  <m_primary>  (76) 
energy

$$$$
76:0
     RDKit          3D

 45 48  0  0  0  0  0  0  0  0999 V2000
   58.5200   27.6090   44.0200 C   0  0  0  0  0  0  0  0  0  0  0  0
   58.6810   28.5390   45.1370 N   0  0  0  0  0  0  0  0  0  0  0  0
   58.3840   29.8660   45.1710 C   0  0  0  0  0  0  0  0  0  0  0  0
   57.6760   30.7850   43.8000 S   0  0  0  0  0  0  0  0  0  0  0  0
   56.8120   32.0020   44.8580 C   0  0  0  0  0  0  0  0  0  0  0  0
   57.7530   33.0730   45.3440 C   0  0  0  0  0  0  0  0  0  0  0  0
   58.6910   33.6480   44.4680 C   0  0  0  0  0  0  0  0  0  0  0  0
   59.6110   34.5900   44.9390 C   0  0  0  0  0  0  0  0  0  0  0  0
   59.6060   34.9600   46.2860 C   0  0  0  0  0  0  0  0  0  0  0  0
   58.6750   34.3970   47.1640 C   0  0  0  0  0  0  0  0  0  0  0  0
   57.7490   33.4570   46.6950 C   0  0  0  0  0  0  0  0  0  0  0  0
   58.7440   30.4730   46.3310 N   0  0  0  0  0  0  0  0  0  0  0  0
   59.2990   29.4690   47.0370 C   0  0  0  0  0  0  0  0  0  0  0  0
   59.2760   28.3150   46.3230 C   0  0  0  0  0  0  0  0  0  0  0  0
   59.8720   27.1670   46.8330 C   0  0  0  0  0  0  0  0  0  0  0  0
   59.8810   26.0850   46.1880 O   0  0  0  0  0  0  0  0  0  0  0  0
   60.4630   27.2490   48.0590 N   0  0  0  0  0  0  0  0  0  0  0  0
   60.4820   28.4230   48.7710 C   0  0  0  0  0  0  0  0  0  0  0  0
   61.0730   28.4540   49.8850 O   0  0  0  0  0  0  0  0  0  0  0  0
   59.8780   29.5590   48.2690 N   0  0  0  0  0  0  0  0  0  0  0  0
   59.9040   30.8360   49.0080 C   0  0  0  0  0  0  0  0  0  0  0  0
   61.0180   31.7360   48.5170 C   0  0  0  0  0  0  0  0  0  0  0  0
   61.9320   31.2440   47.5670 C   0  0  0  0  0  0  0  0  0  0  0  0
   62.9860   32.0420   47.1130 C   0  0  0  0  0  0  0  0  0  0  0  0
   63.1370   33.3420   47.5970 C   0  0  0  0  0  0  0  0  0  0  0  0
   62.2340   33.8490   48.5340 C   0  0  0  0  0  0  0  0  0  0  0  0
   61.1750   33.0590   48.9970 C   0  0  0  0  0  0  0  0  0  0  0  0
   60.0590   33.7730   50.1540 Cl  0  0  0  0  0  0  0  0  0  0  0  0
   58.3445   26.5953   44.4093 H   0  0  0  0  0  0  0  0  0  0  0  0
   57.6622   27.9193   43.4052 H   0  0  0  0  0  0  0  0  0  0  0  0
   59.4322   27.6129   43.4052 H   0  0  0  0  0  0  0  0  0  0  0  0
   56.0044   32.4716   44.2773 H   0  0  0  0  0  0  0  0  0  0  0  0
   56.4066   31.4737   45.7335 H   0  0  0  0  0  0  0  0  0  0  0  0
   58.7010   33.3555   43.4077 H   0  0  0  0  0  0  0  0  0  0  0  0
   60.3392   35.0400   44.2482 H   0  0  0  0  0  0  0  0  0  0  0  0
   60.3355   35.6953   46.6564 H   0  0  0  0  0  0  0  0  0  0  0  0
   58.6699   34.6925   48.2236 H   0  0  0  0  0  0  0  0  0  0  0  0
   57.0157   33.0177   47.3873 H   0  0  0  0  0  0  0  0  0  0  0  0
   60.9240   26.3990   48.4600 H   0  0  0  0  0  0  0  0  0  0  0  0
   58.9413   31.3497   48.8688 H   0  0  0  0  0  0  0  0  0  0  0  0
   60.0794   30.6169   50.0716 H   0  0  0  0  0  0  0  0  0  0  0  0
   61.8160   30.2217   47.1779 H   0  0  0  0  0  0  0  0  0  0  0  0
   63.6970   31.6448   46.3736 H   0  0  0  0  0  0  0  0  0  0  0  0
   63.9681   33.9681   47.2402 H   0  0  0  0  0  0  0  0  0  0  0  0
   62.3556   34.8754   48.9105 H   0  0  0  0  0  0  0  0  0  0  0  0
  1  2  1  0
  2  3  1  0
  3  4  1  0
  4  5  1  0
  5  6  1  0
  6  7  2  0
  7  8  1  0
  8  9  2  0
  9 10  1  0
 10 11  2  0
  3 12  2  0
 12 13  1  0
 13 14  2  0
 14 15  1  0
 15 16  2  0
 15 17  1  0
 17 18  1  0
 18 19  2  0
 18 20  1  0
 20 21  1  0
 21 22  1  0
 22 23  2  0
 23 24  1  0
 24 25  2  0
 25 26  1  0
 26 27  2  0
 27 28  1  0
 14  2  1  0
 27 22  1  0
 11  6  1  0
 20 13  1  0
  1 29  1  0
  1 30  1  0
  1 31  1  0
  5 32  1  0
  5 33  1  0
  7 34  1  0
  8 35  1  0
  9 36  1  0
 10 37  1  0
 11 38  1  0
 17 39  1  0
 21 40  1  0
 21 41  1  0
 23 42  1  0
 24 43  1  0
 25 44  1  0
 26 45  1  0
M  END
>  <UniqueID>  (77) 
70

>  <SMILES>  (77) 
Cn1c(SCc2ccccc2)nc2c1c(=O)[nH]c(=O)n2Cc1ccccc1Cl

>  <Energy>  (77) 
87.7612364611951

>  <Genealogy>  (77) 
Cn1c(SCc2ccccc2)nc2c1c(=O)[nH]c(=O)n2Cc1ccccc1Cl (3D coordinates assigned)
Cn1c(SCc2ccccc2)nc2c1c(=O)[nH]c(=O)n2Cc1ccccc1Cl (optimized conformer: 87.7612364611951 kcal/mol)

>  <smiles>  (77) 
Cn1c(SCc2ccccc2)nc2c1c(=O)[nH]c(=O)n2Cc1ccccc1Cl

>  <score_type>  (77) 
oracle

>  <origin>  (77) 
adg

>  <m_score__min__energy>  (77) 
-8.1099999999999994

>  <m_primary>  (77) 
energy

$$$$
77:0
     RDKit          3D

 54 56  0  0  0  0  0  0  0  0999 V2000
   57.4150   21.0420   42.9070 N   0  0  0  0  0  0  0  0  0  0  0  0
   57.2480   22.2300   43.6830 C   0  0  0  0  0  0  0  0  0  0  0  0
   58.1260   22.5140   44.7370 C   0  0  0  0  0  0  0  0  0  0  0  0
   57.9570   23.6720   45.5020 C   0  0  0  0  0  0  0  0  0  0  0  0
   56.9090   24.5590   45.2170 C   0  0  0  0  0  0  0  0  0  0  0  0
   56.6630   26.0030   46.1990 S   0  0  0  0  0  0  0  0  0  0  0  0
   56.8850   25.6360   47.6390 O   0  0  0  0  0  0  0  0  0  0  0  0
   55.2450   26.4840   46.0420 O   0  0  0  0  0  0  0  0  0  0  0  0
   57.7820   27.2670   45.7180 N   0  0  0  0  0  0  0  0  0  0  0  0
   59.1350   26.7040   45.5090 C   0  0  0  0  0  0  0  0  0  0  0  0
   59.9280   26.7850   46.8150 C   0  0  0  0  0  0  0  0  0  0  0  0
   60.0580   28.2130   47.2750 C   0  0  0  0  0  0  0  0  0  0  0  0
   60.3080   29.2350   46.3470 C   0  0  0  0  0  0  0  0  0  0  0  0
   60.4670   30.5550   46.7780 C   0  0  0  0  0  0  0  0  0  0  0  0
   60.3890   30.8700   48.1480 C   0  0  0  0  0  0  0  0  0  0  0  0
   60.5480   32.1770   48.6360 O   0  0  0  0  0  0  0  0  0  0  0  0
   59.5060   33.1460   48.7540 C   0  0  0  0  0  0  0  0  0  0  0  0
   58.9780   33.5340   47.3970 C   0  0  0  0  0  0  0  0  0  0  0  0
   57.7160   33.0830   46.9780 C   0  0  0  0  0  0  0  0  0  0  0  0
   57.2270   33.4330   45.7150 C   0  0  0  0  0  0  0  0  0  0  0  0
   57.9980   34.2230   44.8590 C   0  0  0  0  0  0  0  0  0  0  0  0
   59.2610   34.6650   45.2640 C   0  0  0  0  0  0  0  0  0  0  0  0
   59.7530   34.3180   46.5260 C   0  0  0  0  0  0  0  0  0  0  0  0
   60.1450   29.8450   49.0700 C   0  0  0  0  0  0  0  0  0  0  0  0
   59.9860   28.5250   48.6400 C   0  0  0  0  0  0  0  0  0  0  0  0
   57.2920   27.9620   44.5120 C   0  0  0  0  0  0  0  0  0  0  0  0
   56.4040   29.1090   44.8790 C   0  0  0  0  0  0  0  0  0  0  0  0
   55.1530   28.9700   44.8690 O   0  0  0  0  0  0  0  0  0  0  0  0
   56.9580   30.3310   45.2400 O   0  0  0  0  0  0  0  0  0  0  0  0
   56.0330   24.2770   44.1610 C   0  0  0  0  0  0  0  0  0  0  0  0
   56.2000   23.1180   43.3980 C   0  0  0  0  0  0  0  0  0  0  0  0
   57.1850   21.0320   41.8880 H   0  0  0  0  0  0  0  0  0  0  0  0
   57.7710   20.1620   43.3440 H   0  0  0  0  0  0  0  0  0  0  0  0
   58.9516   21.8233   44.9636 H   0  0  0  0  0  0  0  0  0  0  0  0
   58.6483   23.8879   46.3300 H   0  0  0  0  0  0  0  0  0  0  0  0
   59.0505   25.6529   45.1958 H   0  0  0  0  0  0  0  0  0  0  0  0
   59.6547   27.2784   44.7280 H   0  0  0  0  0  0  0  0  0  0  0  0
   59.4074   26.2028   47.5896 H   0  0  0  0  0  0  0  0  0  0  0  0
   60.9350   26.3778   46.6414 H   0  0  0  0  0  0  0  0  0  0  0  0
   60.3792   28.9964   45.2755 H   0  0  0  0  0  0  0  0  0  0  0  0
   60.6540   31.3518   46.0431 H   0  0  0  0  0  0  0  0  0  0  0  0
   58.6858   32.7222   49.3521 H   0  0  0  0  0  0  0  0  0  0  0  0
   59.9134   34.0432   49.2429 H   0  0  0  0  0  0  0  0  0  0  0  0
   57.1099   32.4524   47.6451 H   0  0  0  0  0  0  0  0  0  0  0  0
   56.2335   33.0855   45.3953 H   0  0  0  0  0  0  0  0  0  0  0  0
   57.6114   34.4973   43.8664 H   0  0  0  0  0  0  0  0  0  0  0  0
   59.8682   35.2863   44.5893 H   0  0  0  0  0  0  0  0  0  0  0  0
   60.7507   34.6602   46.8381 H   0  0  0  0  0  0  0  0  0  0  0  0
   60.0779   30.0809   50.1423 H   0  0  0  0  0  0  0  0  0  0  0  0
   59.8036   27.7275   49.3754 H   0  0  0  0  0  0  0  0  0  0  0  0
   58.1521   28.3412   43.9407 H   0  0  0  0  0  0  0  0  0  0  0  0
   56.7124   27.2490   43.9072 H   0  0  0  0  0  0  0  0  0  0  0  0
   55.2105   24.9704   43.9314 H   0  0  0  0  0  0  0  0  0  0  0  0
   55.5074   22.9014   42.5713 H   0  0  0  0  0  0  0  0  0  0  0  0
  1  2  1  0
  2  3  2  0
  3  4  1  0
  4  5  2  0
  5  6  1  0
  6  7  2  0
  6  8  2  0
  6  9  1  0
  9 10  1  0
 10 11  1  0
 11 12  1  0
 12 13  2  0
 13 14  1  0
 14 15  2  0
 15 16  1  0
 16 17  1  0
 17 18  1  0
 18 19  2  0
 19 20  1  0
 20 21  2  0
 21 22  1  0
 22 23  2  0
 15 24  1  0
 24 25  2  0
  9 26  1  0
 26 27  1  0
 27 28  2  0
 27 29  1  0
  5 30  1  0
 30 31  2  0
 31  2  1  0
 25 12  1  0
 23 18  1  0
  1 32  1  0
  1 33  1  0
  3 34  1  0
  4 35  1  0
 10 36  1  0
 10 37  1  0
 11 38  1  0
 11 39  1  0
 13 40  1  0
 14 41  1  0
 17 42  1  0
 17 43  1  0
 19 44  1  0
 20 45  1  0
 21 46  1  0
 22 47  1  0
 23 48  1  0
 24 49  1  0
 25 50  1  0
 26 51  1  0
 26 52  1  0
 30 53  1  0
 31 54  1  0
M  CHG  1  29  -1
M  END
>  <UniqueID>  (78) 
71

>  <SMILES>  (78) 
Nc1ccc(S(=O)(=O)N(CCc2ccc(OCc3ccccc3)cc2)CC(=O)[O-])cc1

>  <Energy>  (78) 
52.547788685386244

>  <Genealogy>  (78) 
Nc1ccc(S(=O)(=O)N(CCc2ccc(OCc3ccccc3)cc2)CC(=O)[O-])cc1 (protonated)
Nc1ccc(S(=O)(=O)N(CCc2ccc(OCc3ccccc3)cc2)CC(=O)[O-])cc1 (3D coordinates assigned)
Nc1ccc(S(=O)(=O)N(CCc2ccc(OCc3ccccc3)cc2)CC(=O)[O-])cc1 (optimized conformer: 52.547788685386244 kcal/mol)

>  <smiles>  (78) 
Nc1ccc(S(=O)(=O)N(CCc2ccc(OCc3ccccc3)cc2)CC(=O)O)cc1

>  <score_type>  (78) 
oracle

>  <origin>  (78) 
adg

>  <m_score__min__energy>  (78) 
-12.119999999999999

>  <m_primary>  (78) 
energy

$$$$
78:0
     RDKit          3D

 59 61  0  0  0  0  0  0  0  0999 V2000
   55.9222   32.5553   45.1410 H   0  0  0  0  0  0  0  0  0  0  0  0
   56.9870   32.4300   44.8950 C   0  0  0  0  0  0  0  0  0  0  0  0
   57.3140   31.5250   43.9640 C   0  0  0  0  0  0  0  0  0  0  0  0
   57.9920   31.8379   43.1563 H   0  0  0  0  0  0  0  0  0  0  0  0
   56.7250   29.8610   43.9520 S   0  0  0  0  0  0  0  0  0  0  0  0
   56.3200   29.4440   42.5680 O   0  0  0  0  0  0  0  0  0  0  0  0
   55.5460   29.7380   44.8770 O   0  0  0  0  0  0  0  0  0  0  0  0
   57.9730   28.8030   44.5290 N   0  0  0  0  0  0  0  0  0  0  0  0
   58.4570   28.7310   45.8800 C   0  0  0  0  0  0  0  0  0  0  0  0
   58.5960   29.8850   46.6760 C   0  0  0  0  0  0  0  0  0  0  0  0
   58.3835   30.8735   46.2428 H   0  0  0  0  0  0  0  0  0  0  0  0
   59.0030   29.7870   48.0170 C   0  0  0  0  0  0  0  0  0  0  0  0
   59.1200   30.9490   48.8590 N   0  0  0  0  0  0  0  0  0  0  0  0
   59.7830   31.7000   48.5660 H   0  0  0  0  0  0  0  0  0  0  0  0
   58.5350   31.0690   50.1630 C   0  0  0  0  0  0  0  0  0  0  0  0
   57.8750   30.1210   50.6660 O   0  0  0  0  0  0  0  0  0  0  0  0
   58.7680   32.2580   50.9240 N   0  0  0  0  0  0  0  0  0  0  0  0
   59.7470   33.2730   50.5480 C   0  0  0  0  0  0  0  0  0  0  0  0
   59.4267   33.7495   49.6097 H   0  0  0  0  0  0  0  0  0  0  0  0
   59.8085   34.0132   51.3593 H   0  0  0  0  0  0  0  0  0  0  0  0
   61.1440   32.6560   50.3460 C   0  0  1  0  0  0  0  0  0  0  0  0
   61.0756   31.5695   50.5033 H   0  0  0  0  0  0  0  0  0  0  0  0
   61.5990   32.8380   48.9420 N   0  0  0  0  0  0  0  0  0  0  0  0
   62.0980   31.6070   48.3060 C   0  0  0  0  0  0  0  0  0  0  0  0
   62.3726   30.8722   49.0771 H   0  0  0  0  0  0  0  0  0  0  0  0
   61.3216   31.1635   47.6653 H   0  0  0  0  0  0  0  0  0  0  0  0
   63.3240   31.9740   47.4800 C   0  0  0  0  0  0  0  0  0  0  0  0
   64.2380   31.5863   47.9535 H   0  0  0  0  0  0  0  0  0  0  0  0
   63.2823   31.5424   46.4691 H   0  0  0  0  0  0  0  0  0  0  0  0
   63.3440   33.4870   47.4480 C   0  0  0  0  0  0  0  0  0  0  0  0
   64.3770   33.8641   47.4749 H   0  0  0  0  0  0  0  0  0  0  0  0
   62.8928   33.8950   46.5315 H   0  0  0  0  0  0  0  0  0  0  0  0
   62.5910   33.8950   48.6960 C   0  0  0  0  0  0  0  0  0  0  0  0
   63.2815   33.9755   49.5485 H   0  0  0  0  0  0  0  0  0  0  0  0
   62.1084   34.8754   48.5698 H   0  0  0  0  0  0  0  0  0  0  0  0
   62.1540   33.1280   51.4180 C   0  0  0  0  0  0  0  0  0  0  0  0
   61.7422   32.9356   52.4197 H   0  0  0  0  0  0  0  0  0  0  0  0
   63.0993   32.5784   51.2984 H   0  0  0  0  0  0  0  0  0  0  0  0
   62.3388   34.2057   51.2984 H   0  0  0  0  0  0  0  0  0  0  0  0
   59.3440   28.5330   48.5360 C   0  0  0  0  0  0  0  0  0  0  0  0
   59.6985   28.4503   49.5740 H   0  0  0  0  0  0  0  0  0  0  0  0
   59.2380   27.3860   47.7470 C   0  0  0  0  0  0  0  0  0  0  0  0
   59.5100   26.4069   48.1683 H   0  0  0  0  0  0  0  0  0  0  0  0
   58.7880   27.4720   46.4230 C   0  0  0  0  0  0  0  0  0  0  0  0
   58.6360   26.2200   45.6020 C   0  0  0  0  0  0  0  0  0  0  0  0
   58.5308   25.3533   46.2711 H   0  0  0  0  0  0  0  0  0  0  0  0
   57.7415   26.3040   44.9674 H   0  0  0  0  0  0  0  0  0  0  0  0
   59.5247   26.0875   44.9674 H   0  0  0  0  0  0  0  0  0  0  0  0
   57.9640   33.2680   45.6100 C   0  0  0  0  0  0  0  0  0  0  0  0
   57.8980   33.3540   47.0090 C   0  0  0  0  0  0  0  0  0  0  0  0
   57.1063   32.8187   47.5536 H   0  0  0  0  0  0  0  0  0  0  0  0
   58.8340   34.1170   47.7140 C   0  0  0  0  0  0  0  0  0  0  0  0
   58.7674   34.1939   48.8093 H   0  0  0  0  0  0  0  0  0  0  0  0
   59.8540   34.7820   47.0280 C   0  0  0  0  0  0  0  0  0  0  0  0
   60.5881   35.3847   47.5829 H   0  0  0  0  0  0  0  0  0  0  0  0
   59.9410   34.6810   45.6360 C   0  0  0  0  0  0  0  0  0  0  0  0
   60.7496   35.1978   45.0984 H   0  0  0  0  0  0  0  0  0  0  0  0
   59.0020   33.9240   44.9240 C   0  0  0  0  0  0  0  0  0  0  0  0
   59.1210   33.8220   43.5760 F   0  0  0  0  0  0  0  0  0  0  0  0
  1  2  1  0
  2  3  2  0
  3  4  1  0
  3  5  1  0
  5  6  2  0
  5  7  2  0
  5  8  1  0
  8  9  1  0
  9 10  2  0
 10 11  1  0
 10 12  1  0
 12 13  1  0
 13 14  1  0
 13 15  1  0
 15 16  2  0
 15 17  1  0
 17 18  1  0
 18 19  1  0
 18 20  1  0
 18 21  1  0
 21 22  1  1
 21 23  1  0
 23 24  1  0
 24 25  1  0
 24 26  1  0
 24 27  1  0
 27 28  1  0
 27 29  1  0
 27 30  1  0
 30 31  1  0
 30 32  1  0
 30 33  1  0
 33 34  1  0
 33 35  1  0
 21 36  1  0
 36 37  1  0
 36 38  1  0
 36 39  1  0
 12 40  2  0
 40 41  1  0
 40 42  1  0
 42 43  1  0
 42 44  2  0
 44 45  1  0
 45 46  1  0
 45 47  1  0
 45 48  1  0
  2 49  1  0
 49 50  2  0
 50 51  1  0
 50 52  1  0
 52 53  1  0
 52 54  2  0
 54 55  1  0
 54 56  1  0
 56 57  1  0
 56 58  2  0
 58 59  1  0
 44  9  1  0
 58 49  1  0
 33 23  1  0
M  CHG  2   8  -1  17  -1
M  END
>  <UniqueID>  (79) 
72

>  <SMILES>  (79) 
Cc1ccc(NC(=O)[N-]C[C@H](C)N2CCCC2)cc1[N-]S(=O)(=O)/C=C\c1ccccc1F

>  <Energy>  (79) 
78.27988750513732

>  <Genealogy>  (79) 
Cc1ccc(NC(=O)[N-]CC(C)N2CCCC2)cc1[N-]S(=O)(=O)C=Cc1ccccc1F (protonated)
Cc1ccc(NC(=O)[N-]C[C@H](C)N2CCCC2)cc1[N-]S(=O)(=O)C=Cc1ccccc1F (chirality)
Cc1ccc(NC(=O)[N-]C[C@H](C)N2CCCC2)cc1[N-]S(=O)(=O)/C=C\c1ccccc1F (cis-trans isomerization)
Cc1ccc(NC(=O)[N-]C[C@H](C)N2CCCC2)cc1[N-]S(=O)(=O)/C=C\c1ccccc1F (3D coordinates assigned)
Cc1ccc(NC(=O)[N-]C[C@H](C)N2CCCC2)cc1[N-]S(=O)(=O)/C=C\c1ccccc1F (nonaromatic ring conformer: 78.27988750513732 kcal/mol)

>  <smiles>  (79) 
Cc1ccc(NC(=O)NCC(C)N2CCCC2)cc1NS(=O)(=O)C=Cc1ccccc1F

>  <score_type>  (79) 
oracle

>  <origin>  (79) 
adg

>  <m_score__min__energy>  (79) 
-12.550000000000001

>  <m_primary>  (79) 
energy

$$$$
79:0
     RDKit          3D

 59 62  0  0  0  0  0  0  0  0999 V2000
   61.2790   30.0690   48.9140 O   0  0  0  0  0  0  0  0  0  0  0  0
   60.4860   29.8180   49.8790 C   0  0  0  0  0  0  0  0  0  0  0  0
   60.1740   28.4800   50.2230 N   0  0  0  0  0  0  0  0  0  0  0  0
   60.7200   27.3660   49.5270 C   0  0  0  0  0  0  0  0  0  0  0  0
   60.1290   27.0470   48.2050 C   0  0  0  0  0  0  0  0  0  0  0  0
   59.8650   28.1600   47.3930 N   0  0  0  0  0  0  0  0  0  0  0  0
   58.6840   28.9080   47.5580 C   0  0  0  0  0  0  0  0  0  0  0  0
   57.7540   28.9230   46.3300 C   0  0  0  0  0  0  0  0  0  0  0  0
   58.4330   29.3050   45.0810 C   0  0  0  0  0  0  0  0  0  0  0  0
   58.1940   30.6440   44.5450 C   0  0  0  0  0  0  0  0  0  0  0  0
   58.3480   31.8290   45.2060 C   0  0  0  0  0  0  0  0  0  0  0  0
   58.1490   33.0600   44.6540 C   0  0  0  0  0  0  0  0  0  0  0  0
   58.2760   34.3560   45.3270 C   0  0  0  0  0  0  0  0  0  0  0  0
   59.2550   34.2230   46.4370 C   0  0  0  0  0  0  0  0  0  0  0  0
   60.5660   33.9830   46.0890 C   0  0  0  0  0  0  0  0  0  0  0  0
   61.5910   33.8400   47.0020 C   0  0  0  0  0  0  0  0  0  0  0  0
   61.2550   33.9510   48.3580 C   0  0  0  0  0  0  0  0  0  0  0  0
   62.2500   33.8170   49.2930 F   0  0  0  0  0  0  0  0  0  0  0  0
   59.9350   34.1940   48.7380 C   0  0  0  0  0  0  0  0  0  0  0  0
   58.9370   34.3290   47.7710 C   0  0  0  0  0  0  0  0  0  0  0  0
   57.7690   33.0880   43.3420 N   0  0  0  0  0  0  0  0  0  0  0  0
   57.6080   31.9200   42.6650 C   0  0  0  0  0  0  0  0  0  0  0  0
   57.2540   32.0090   41.4400 O   0  0  0  0  0  0  0  0  0  0  0  0
   57.8110   30.7210   43.2330 N   0  0  0  0  0  0  0  0  0  0  0  0
   59.9730   29.1850   45.2630 C   0  0  0  0  0  0  0  0  0  0  0  0
   60.1400   27.8520   45.9890 C   0  0  0  0  0  0  0  0  0  0  0  0
   59.9530   30.9850   50.5700 C   0  0  0  0  0  0  0  0  0  0  0  0
   58.5800   31.1880   50.4470 C   0  0  0  0  0  0  0  0  0  0  0  0
   58.0060   32.2820   51.0740 C   0  0  0  0  0  0  0  0  0  0  0  0
   58.7920   33.1560   51.8120 C   0  0  0  0  0  0  0  0  0  0  0  0
   60.1680   32.9690   51.9480 C   0  0  0  0  0  0  0  0  0  0  0  0
   60.7270   31.8560   51.3040 C   0  0  0  0  0  0  0  0  0  0  0  0
   62.5970   31.5310   51.4450 Br  0  0  0  0  0  0  0  0  0  0  0  0
   59.5000   28.3670   51.0450 H   0  0  0  0  0  0  0  0  0  0  0  0
   61.7914   27.5623   49.3736 H   0  0  0  0  0  0  0  0  0  0  0  0
   60.4963   26.4943   50.1596 H   0  0  0  0  0  0  0  0  0  0  0  0
   60.8284   26.3898   47.6674 H   0  0  0  0  0  0  0  0  0  0  0  0
   59.1565   26.5745   48.4073 H   0  0  0  0  0  0  0  0  0  0  0  0
   58.1255   28.4839   48.4055 H   0  0  0  0  0  0  0  0  0  0  0  0
   58.9968   29.9496   47.7233 H   0  0  0  0  0  0  0  0  0  0  0  0
   57.3310   27.9157   46.2018 H   0  0  0  0  0  0  0  0  0  0  0  0
   56.9798   29.6807   46.5210 H   0  0  0  0  0  0  0  0  0  0  0  0
   57.9912   28.6046   44.3569 H   0  0  0  0  0  0  0  0  0  0  0  0
   58.6552   31.7875   46.2614 H   0  0  0  0  0  0  0  0  0  0  0  0
   58.6294   35.1120   44.6104 H   0  0  0  0  0  0  0  0  0  0  0  0
   57.2993   34.6690   45.7245 H   0  0  0  0  0  0  0  0  0  0  0  0
   60.8105   33.9004   45.0197 H   0  0  0  0  0  0  0  0  0  0  0  0
   62.6250   33.6476   46.6799 H   0  0  0  0  0  0  0  0  0  0  0  0
   59.6792   34.2797   49.8044 H   0  0  0  0  0  0  0  0  0  0  0  0
   57.8974   34.5199   48.0757 H   0  0  0  0  0  0  0  0  0  0  0  0
   57.6780   29.8510   42.6850 H   0  0  0  0  0  0  0  0  0  0  0  0
   60.4846   29.1698   44.2893 H   0  0  0  0  0  0  0  0  0  0  0  0
   60.4079   30.0319   45.8140 H   0  0  0  0  0  0  0  0  0  0  0  0
   59.4243   27.1092   45.6069 H   0  0  0  0  0  0  0  0  0  0  0  0
   61.1416   27.4207   45.8447 H   0  0  0  0  0  0  0  0  0  0  0  0
   57.9620   30.4912   49.8617 H   0  0  0  0  0  0  0  0  0  0  0  0
   56.9238   32.4585   50.9866 H   0  0  0  0  0  0  0  0  0  0  0  0
   58.3177   34.0188   52.3026 H   0  0  0  0  0  0  0  0  0  0  0  0
   60.7869   33.6640   52.5345 H   0  0  0  0  0  0  0  0  0  0  0  0
  1  2  2  0
  2  3  1  0
  3  4  1  0
  4  5  1  0
  5  6  1  0
  6  7  1  0
  7  8  1  0
  8  9  1  0
  9 10  1  0
 10 11  2  0
 11 12  1  0
 12 13  1  0
 13 14  1  0
 14 15  2  0
 15 16  1  0
 16 17  2  0
 17 18  1  0
 17 19  1  0
 19 20  2  0
 12 21  2  0
 21 22  1  0
 22 23  2  0
 22 24  1  0
  9 25  1  0
 25 26  1  0
  2 27  1  0
 27 28  2  0
 28 29  1  0
 29 30  2  0
 30 31  1  0
 31 32  2  0
 32 33  1  0
 26  6  1  0
 32 27  1  0
 24 10  1  0
 20 14  1  0
  3 34  1  0
  4 35  1  0
  4 36  1  0
  5 37  1  0
  5 38  1  0
  7 39  1  0
  7 40  1  0
  8 41  1  0
  8 42  1  0
  9 43  1  0
 11 44  1  0
 13 45  1  0
 13 46  1  0
 15 47  1  0
 16 48  1  0
 19 49  1  0
 20 50  1  0
 24 51  1  0
 25 52  1  0
 25 53  1  0
 26 54  1  0
 26 55  1  0
 28 56  1  0
 29 57  1  0
 30 58  1  0
 31 59  1  0
M  END
>  <smiles>  (80) 
O=C(NCCN1CCC(c2cc(Cc3ccc(F)cc3)nc(=O)[nH]2)CC1)c1ccccc1Br

>  <score_type>  (80) 
oracle

>  <origin>  (80) 
adg

>  <m_score__min__energy>  (80) 
-10.33

>  <m_primary>  (80) 
energy

$$$$
80:0
     RDKit          3D

 57 60  0  0  0  0  0  0  0  0999 V2000
   57.7984   33.9561   53.1105 H   0  0  0  0  0  0  0  0  0  0  0  0
   57.9210   33.1520   52.3700 C   0  0  0  0  0  0  0  0  0  0  0  0
   58.7430   33.3410   51.2930 N   0  0  0  0  0  0  0  0  0  0  0  0
   58.8630   32.3250   50.4010 C   0  0  0  0  0  0  0  0  0  0  0  0
   58.2140   31.1470   50.5440 C   0  0  0  0  0  0  0  0  0  0  0  0
   58.5300   30.3060   49.5390 N   0  0  0  0  0  0  0  0  0  0  0  0
   59.3940   31.0480   48.7900 C   0  0  0  0  0  0  0  0  0  0  0  0
   59.8668   30.6772   47.8686 H   0  0  0  0  0  0  0  0  0  0  0  0
   59.6140   32.2920   49.2940 N   0  0  0  0  0  0  0  0  0  0  0  0
   60.4720   33.3430   48.7460 C   0  0  0  0  0  0  0  0  0  0  0  0
   60.9921   32.9552   47.8577 H   0  0  0  0  0  0  0  0  0  0  0  0
   61.1958   33.6411   49.5188 H   0  0  0  0  0  0  0  0  0  0  0  0
   59.6500   34.5760   48.3470 C   0  0  0  0  0  0  0  0  0  0  0  0
   60.2074   35.4762   48.6454 H   0  0  0  0  0  0  0  0  0  0  0  0
   58.6795   34.4939   48.8582 H   0  0  0  0  0  0  0  0  0  0  0  0
   59.3570   34.6640   46.8380 C   0  0  0  0  0  0  0  0  0  0  0  0
   60.1275   35.2959   46.3722 H   0  0  0  0  0  0  0  0  0  0  0  0
   58.3455   35.0837   46.7340 H   0  0  0  0  0  0  0  0  0  0  0  0
   59.3500   33.2970   46.1190 C   0  0  0  0  0  0  0  0  0  0  0  0
   59.2812   32.5065   46.8808 H   0  0  0  0  0  0  0  0  0  0  0  0
   60.2790   33.2427   45.5325 H   0  0  0  0  0  0  0  0  0  0  0  0
   58.2000   33.1160   45.1370 C   0  0  0  0  0  0  0  0  0  0  0  0
   58.2310   32.2890   44.1410 N   0  0  0  0  0  0  0  0  0  0  0  0
   57.1740   30.9530   43.8720 S   0  0  0  0  0  0  0  0  0  0  0  0
   56.8890   30.8240   42.4010 O   0  0  0  0  0  0  0  0  0  0  0  0
   55.8760   31.2170   44.5810 O   0  0  0  0  0  0  0  0  0  0  0  0
   57.8680   29.4710   44.5190 C   0  0  0  0  0  0  0  0  0  0  0  0
   57.8160   28.2950   43.7610 C   0  0  0  0  0  0  0  0  0  0  0  0
   57.3564   28.3066   42.7617 H   0  0  0  0  0  0  0  0  0  0  0  0
   58.3460   27.1070   44.2700 C   0  0  0  0  0  0  0  0  0  0  0  0
   58.2983   26.1861   43.6703 H   0  0  0  0  0  0  0  0  0  0  0  0
   58.9400   27.0810   45.5440 C   0  0  0  0  0  0  0  0  0  0  0  0
   59.4740   25.8200   46.1040 C   0  0  0  0  0  0  0  0  0  0  0  0
   60.6910   25.7520   46.4150 O   0  0  0  0  0  0  0  0  0  0  0  0
   58.6380   24.6820   46.3540 N   0  0  0  0  0  0  0  0  0  0  0  0
   57.9960   23.8670   45.3620 C   0  0  0  0  0  0  0  0  0  0  0  0
   58.5910   22.6530   44.9980 C   0  0  0  0  0  0  0  0  0  0  0  0
   59.5204   22.3307   45.4903 H   0  0  0  0  0  0  0  0  0  0  0  0
   58.0110   21.8470   44.0120 C   0  0  0  0  0  0  0  0  0  0  0  0
   58.4808   20.8914   43.7361 H   0  0  0  0  0  0  0  0  0  0  0  0
   56.8330   22.2570   43.3770 C   0  0  0  0  0  0  0  0  0  0  0  0
   56.2750   21.4800   42.4170 F   0  0  0  0  0  0  0  0  0  0  0  0
   56.2410   23.4750   43.7240 C   0  0  0  0  0  0  0  0  0  0  0  0
   55.3163   23.7983   43.2235 H   0  0  0  0  0  0  0  0  0  0  0  0
   56.8220   24.2830   44.7060 C   0  0  0  0  0  0  0  0  0  0  0  0
   56.3603   25.2468   44.9668 H   0  0  0  0  0  0  0  0  0  0  0  0
   58.9890   28.2640   46.3000 C   0  0  0  0  0  0  0  0  0  0  0  0
   59.4406   28.2536   47.3030 H   0  0  0  0  0  0  0  0  0  0  0  0
   58.4670   29.4550   45.7850 C   0  0  0  0  0  0  0  0  0  0  0  0
   58.5270   30.3811   46.3755 H   0  0  0  0  0  0  0  0  0  0  0  0
   57.0220   34.0480   45.2040 C   0  0  0  0  0  0  0  0  0  0  0  0
   56.7710   34.2466   46.2564 H   0  0  0  0  0  0  0  0  0  0  0  0
   57.2739   34.9940   44.7023 H   0  0  0  0  0  0  0  0  0  0  0  0
   56.1593   33.5853   44.7023 H   0  0  0  0  0  0  0  0  0  0  0  0
   57.3780   30.9460   51.6330 C   0  0  0  0  0  0  0  0  0  0  0  0
   56.7580   29.8610   51.7940 O   0  0  0  0  0  0  0  0  0  0  0  0
   57.2480   31.9670   52.5340 N   0  0  0  0  0  0  0  0  0  0  0  0
  1  2  1  0
  2  3  2  0
  3  4  1  0
  4  5  2  0
  5  6  1  0
  6  7  2  0
  7  8  1  0
  7  9  1  0
  9 10  1  0
 10 11  1  0
 10 12  1  0
 10 13  1  0
 13 14  1  0
 13 15  1  0
 13 16  1  0
 16 17  1  0
 16 18  1  0
 16 19  1  0
 19 20  1  0
 19 21  1  0
 19 22  1  0
 22 23  2  0
 23 24  1  0
 24 25  2  0
 24 26  2  0
 24 27  1  0
 27 28  2  0
 28 29  1  0
 28 30  1  0
 30 31  1  0
 30 32  2  0
 32 33  1  0
 33 34  2  0
 33 35  1  0
 35 36  1  0
 36 37  2  0
 37 38  1  0
 37 39  1  0
 39 40  1  0
 39 41  2  0
 41 42  1  0
 41 43  1  0
 43 44  1  0
 43 45  2  0
 45 46  1  0
 32 47  1  0
 47 48  1  0
 47 49  2  0
 49 50  1  0
 22 51  1  0
 51 52  1  0
 51 53  1  0
 51 54  1  0
  5 55  1  0
 55 56  2  0
 55 57  1  0
 57  2  1  0
  9  4  1  0
 49 27  1  0
 45 36  1  0
M  CHG  2  35  -1  57  -1
M  END
>  <UniqueID>  (81) 
73

>  <SMILES>  (81) 
C/C(CCCCn1cnc2c(=O)[n-]cnc21)=N/S(=O)(=O)c1ccc(C(=O)[N-]c2ccc(F)cc2)cc1

>  <Energy>  (81) 
106.5161644432212

>  <Genealogy>  (81) 
CC(CCCCn1cnc2c(=O)[n-]cnc21)=NS(=O)(=O)c1ccc(C(=O)[N-]c2ccc(F)cc2)cc1 (protonated)
C/C(CCCCn1cnc2c(=O)[n-]cnc21)=N/S(=O)(=O)c1ccc(C(=O)[N-]c2ccc(F)cc2)cc1 (cis-trans isomerization)
C/C(CCCCn1cnc2c(=O)[n-]cnc21)=N/S(=O)(=O)c1ccc(C(=O)[N-]c2ccc(F)cc2)cc1 (3D coordinates assigned)
C/C(CCCCn1cnc2c(=O)[n-]cnc21)=N/S(=O)(=O)c1ccc(C(=O)[N-]c2ccc(F)cc2)cc1 (optimized conformer: 106.5161644432212 kcal/mol)

>  <smiles>  (81) 
CC(CCCCn1cnc2c(=O)[nH]cnc21)=NS(=O)(=O)c1ccc(C(=O)Nc2ccc(F)cc2)cc1

>  <score_type>  (81) 
oracle

>  <origin>  (81) 
adg

>  <m_score__min__energy>  (81) 
-13.58

>  <m_primary>  (81) 
energy

$$$$
81:0
     RDKit          3D

 95 95  0  0  0  0  0  0  0  0999 V2000
   57.1940   31.4620   53.0840 C   0  0  0  0  0  0  0  0  0  0  0  0
   57.5650   31.2160   51.6490 C   0  0  0  0  0  0  0  0  0  0  0  0
   57.3940   30.1090   51.1620 O   0  0  0  0  0  0  0  0  0  0  0  0
   58.1880   32.3120   50.8200 C   0  0  0  0  0  0  0  0  0  0  0  0
   58.6260   31.7820   49.4480 C   0  0  0  0  0  0  0  0  0  0  0  0
   58.4270   32.8240   48.3260 C   0  0  0  0  0  0  0  0  0  0  0  0
   59.3560   34.0430   48.4430 C   0  0  0  0  0  0  0  0  0  0  0  0
   59.6960   34.6610   47.0750 C   0  0  0  0  0  0  0  0  0  0  0  0
   60.5680   33.7380   46.2180 C   0  0  0  0  0  0  0  0  0  0  0  0
   61.4890   32.8410   47.0640 C   0  0  0  0  0  0  0  0  0  0  0  0
   62.9760   33.1990   46.8960 C   0  0  0  0  0  0  0  0  0  0  0  0
   63.6460   33.8300   48.1340 C   0  0  0  0  0  0  0  0  0  0  0  0
   62.6610   34.4750   49.1300 C   0  0  0  0  0  0  0  0  0  0  0  0
   62.6870   33.8870   50.5560 C   0  0  0  0  0  0  0  0  0  0  0  0
   61.7550   32.6790   50.7730 C   0  0  0  0  0  0  0  0  0  0  0  0
   62.4960   31.3980   51.2180 C   0  0  0  0  0  0  0  0  0  0  0  0
   62.0720   30.1590   50.4160 C   0  0  0  0  0  0  0  0  0  0  0  0
   60.6540   29.7070   50.7990 C   0  0  0  0  0  0  0  0  0  0  0  0
   60.5080   28.1790   50.7170 C   0  0  0  0  0  0  0  0  0  0  0  0
   60.7600   27.6470   49.2980 C   0  0  0  0  0  0  0  0  0  0  0  0
   59.6260   28.0240   48.3320 C   0  0  0  0  0  0  0  0  0  0  0  0
   60.0830   29.0530   47.2880 C   0  0  0  0  0  0  0  0  0  0  0  0
   58.9610   30.0370   46.9030 C   0  0  0  0  0  0  0  0  0  0  0  0
   59.1950   30.8100   45.5900 C   0  0  0  0  0  0  0  0  0  0  0  0
   58.3230   30.3060   44.4280 C   0  0  0  0  0  0  0  0  0  0  0  0
   58.3260   28.7640   44.3410 C   0  0  0  0  0  0  0  0  0  0  0  0
   57.1690   28.1020   45.1010 C   0  0  0  0  0  0  0  0  0  0  0  0
   57.6360   26.9630   46.0250 C   0  0  0  0  0  0  0  0  0  0  0  0
   56.9380   25.6640   45.6850 C   0  0  0  0  0  0  0  0  0  0  0  0
   57.6990   24.5100   45.4210 C   0  0  0  0  0  0  0  0  0  0  0  0
   59.0960   24.5420   45.5200 O   0  0  0  0  0  0  0  0  0  0  0  0
   57.0650   23.3130   45.0830 C   0  0  0  0  0  0  0  0  0  0  0  0
   55.6730   23.2370   45.0290 C   0  0  0  0  0  0  0  0  0  0  0  0
   55.0830   22.0260   44.6980 O   0  0  0  0  0  0  0  0  0  0  0  0
   54.8880   24.3660   45.3250 C   0  0  0  0  0  0  0  0  0  0  0  0
   53.4080   24.2460   45.2820 C   0  0  0  0  0  0  0  0  0  0  0  0
   52.8340   23.4110   44.5340 O   0  0  0  0  0  0  0  0  0  0  0  0
   55.5290   25.5770   45.6670 C   0  0  0  0  0  0  0  0  0  0  0  0
   54.7730   26.6960   45.9970 O   0  0  0  0  0  0  0  0  0  0  0  0
   57.9290   30.9746   53.7415 H   0  0  0  0  0  0  0  0  0  0  0  0
   57.1870   32.5443   53.2806 H   0  0  0  0  0  0  0  0  0  0  0  0
   56.1944   31.0472   53.2806 H   0  0  0  0  0  0  0  0  0  0  0  0
   57.4522   33.1170   50.6765 H   0  0  0  0  0  0  0  0  0  0  0  0
   59.0750   32.6906   51.3491 H   0  0  0  0  0  0  0  0  0  0  0  0
   59.6916   31.5135   49.4963 H   0  0  0  0  0  0  0  0  0  0  0  0
   58.0017   30.9082   49.2101 H   0  0  0  0  0  0  0  0  0  0  0  0
   58.6168   32.3342   47.3595 H   0  0  0  0  0  0  0  0  0  0  0  0
   57.3956   33.1964   48.4124 H   0  0  0  0  0  0  0  0  0  0  0  0
   58.8600   34.8060   49.0609 H   0  0  0  0  0  0  0  0  0  0  0  0
   60.2976   33.7020   48.8980 H   0  0  0  0  0  0  0  0  0  0  0  0
   58.7587   34.8627   46.5357 H   0  0  0  0  0  0  0  0  0  0  0  0
   60.2635   35.5857   47.2563 H   0  0  0  0  0  0  0  0  0  0  0  0
   59.9119   33.0966   45.6112 H   0  0  0  0  0  0  0  0  0  0  0  0
   61.2082   34.3738   45.5888 H   0  0  0  0  0  0  0  0  0  0  0  0
   61.2162   32.9548   48.1235 H   0  0  0  0  0  0  0  0  0  0  0  0
   61.3537   31.8047   46.7208 H   0  0  0  0  0  0  0  0  0  0  0  0
   63.5216   32.2768   46.6473 H   0  0  0  0  0  0  0  0  0  0  0  0
   63.0176   33.9625   46.1052 H   0  0  0  0  0  0  0  0  0  0  0  0
   64.2040   33.0429   48.6623 H   0  0  0  0  0  0  0  0  0  0  0  0
   64.2935   34.6384   47.7636 H   0  0  0  0  0  0  0  0  0  0  0  0
   62.9006   35.5463   49.1996 H   0  0  0  0  0  0  0  0  0  0  0  0
   61.6539   34.2737   48.7359 H   0  0  0  0  0  0  0  0  0  0  0  0
   63.7167   33.5690   50.7765 H   0  0  0  0  0  0  0  0  0  0  0  0
   62.3259   34.6815   51.2256 H   0  0  0  0  0  0  0  0  0  0  0  0
   61.0194   32.9420   51.5474 H   0  0  0  0  0  0  0  0  0  0  0  0
   61.2822   32.4583   49.8046 H   0  0  0  0  0  0  0  0  0  0  0  0
   63.5768   31.5517   51.0828 H   0  0  0  0  0  0  0  0  0  0  0  0
   62.2397   31.2152   52.2720 H   0  0  0  0  0  0  0  0  0  0  0  0
   62.0938   30.4013   49.3432 H   0  0  0  0  0  0  0  0  0  0  0  0
   62.7714   29.3410   50.6434 H   0  0  0  0  0  0  0  0  0  0  0  0
   60.4412   30.0316   51.8283 H   0  0  0  0  0  0  0  0  0  0  0  0
   59.9445   30.1598   50.0908 H   0  0  0  0  0  0  0  0  0  0  0  0
   61.2333   27.7166   51.4026 H   0  0  0  0  0  0  0  0  0  0  0  0
   59.4749   27.9232   50.9949 H   0  0  0  0  0  0  0  0  0  0  0  0
   61.7026   28.0712   48.9219 H   0  0  0  0  0  0  0  0  0  0  0  0
   60.8106   26.5494   49.3507 H   0  0  0  0  0  0  0  0  0  0  0  0
   59.2853   27.1166   47.8118 H   0  0  0  0  0  0  0  0  0  0  0  0
   58.8118   28.4728   48.9199 H   0  0  0  0  0  0  0  0  0  0  0  0
   60.9275   29.6242   47.7010 H   0  0  0  0  0  0  0  0  0  0  0  0
   60.3736   28.5037   46.3803 H   0  0  0  0  0  0  0  0  0  0  0  0
   58.0264   29.4659   46.8009 H   0  0  0  0  0  0  0  0  0  0  0  0
   58.9263   30.7919   47.7023 H   0  0  0  0  0  0  0  0  0  0  0  0
   58.9666   31.8719   45.7638 H   0  0  0  0  0  0  0  0  0  0  0  0
   60.2453   30.6557   45.3020 H   0  0  0  0  0  0  0  0  0  0  0  0
   57.2903   30.6528   44.5804 H   0  0  0  0  0  0  0  0  0  0  0  0
   58.7371   30.7040   43.4898 H   0  0  0  0  0  0  0  0  0  0  0  0
   58.2560   28.4756   43.2818 H   0  0  0  0  0  0  0  0  0  0  0  0
   59.2590   28.4170   44.8092 H   0  0  0  0  0  0  0  0  0  0  0  0
   56.6669   28.8666   45.7120 H   0  0  0  0  0  0  0  0  0  0  0  0
   56.4896   27.6650   44.3544 H   0  0  0  0  0  0  0  0  0  0  0  0
   58.7216   26.8285   45.9089 H   0  0  0  0  0  0  0  0  0  0  0  0
   57.3882   27.2313   47.0626 H   0  0  0  0  0  0  0  0  0  0  0  0
   59.6380   25.3420   45.2240 H   0  0  0  0  0  0  0  0  0  0  0  0
   57.6686   22.4215   44.8572 H   0  0  0  0  0  0  0  0  0  0  0  0
   52.7981   24.9029   45.9195 H   0  0  0  0  0  0  0  0  0  0  0  0
  1  2  1  0
  2  3  2  0
  2  4  1  0
  4  5  1  0
  5  6  1  0
  6  7  1  0
  7  8  1  0
  8  9  1  0
  9 10  1  0
 10 11  1  0
 11 12  1  0
 12 13  1  0
 13 14  1  0
 14 15  1  0
 15 16  1  0
 16 17  1  0
 17 18  1  0
 18 19  1  0
 19 20  1  0
 20 21  1  0
 21 22  1  0
 22 23  1  0
 23 24  1  0
 24 25  1  0
 25 26  1  0
 26 27  1  0
 27 28  1  0
 28 29  1  0
 29 30  2  0
 30 31  1  0
 30 32  1  0
 32 33  2  0
 33 34  1  0
 33 35  1  0
 35 36  1  0
 36 37  2  0
 35 38  2  0
 38 39  1  0
 38 29  1  0
  1 40  1  0
  1 41  1  0
  1 42  1  0
  4 43  1  0
  4 44  1  0
  5 45  1  0
  5 46  1  0
  6 47  1  0
  6 48  1  0
  7 49  1  0
  7 50  1  0
  8 51  1  0
  8 52  1  0
  9 53  1  0
  9 54  1  0
 10 55  1  0
 10 56  1  0
 11 57  1  0
 11 58  1  0
 12 59  1  0
 12 60  1  0
 13 61  1  0
 13 62  1  0
 14 63  1  0
 14 64  1  0
 15 65  1  0
 15 66  1  0
 16 67  1  0
 16 68  1  0
 17 69  1  0
 17 70  1  0
 18 71  1  0
 18 72  1  0
 19 73  1  0
 19 74  1  0
 20 75  1  0
 20 76  1  0
 21 77  1  0
 21 78  1  0
 22 79  1  0
 22 80  1  0
 23 81  1  0
 23 82  1  0
 24 83  1  0
 24 84  1  0
 25 85  1  0
 25 86  1  0
 26 87  1  0
 26 88  1  0
 27 89  1  0
 27 90  1  0
 28 91  1  0
 28 92  1  0
 31 93  1  0
 32 94  1  0
 36 95  1  0
M  CHG  2  34  -1  39  -1
M  END
>  <UniqueID>  (82) 
74

>  <SMILES>  (82) 
CC(=O)CCCCCCCCCCCCCCCCCCCCCCCCCc1c(O)cc([O-])c(C=O)c1[O-]

>  <Energy>  (82) 
55.248898838364894

>  <Genealogy>  (82) 
CC(=O)CCCCCCCCCCCCCCCCCCCCCCCCCc1c(O)cc([O-])c(C=O)c1[O-] (protonated)
CC(=O)CCCCCCCCCCCCCCCCCCCCCCCCCc1c(O)cc([O-])c(C=O)c1[O-] (3D coordinates assigned)
CC(=O)CCCCCCCCCCCCCCCCCCCCCCCCCc1c(O)cc([O-])c(C=O)c1[O-] (optimized conformer: 55.248898838364894 kcal/mol)

>  <smiles>  (82) 
CC(=O)CCCCCCCCCCCCCCCCCCCCCCCCCc1c(O)cc(O)c(C=O)c1O

>  <score_type>  (82) 
oracle

>  <origin>  (82) 
adg

>  <m_score__min__energy>  (82) 
-13.58

>  <m_primary>  (82) 
energy

$$$$
82:0
     RDKit          3D

 39 41  0  0  0  0  0  0  0  0999 V2000
   58.1500   32.0310   47.7980 O   0  0  0  0  0  0  0  0  0  0  0  0
   58.6600   33.0370   47.2350 C   0  0  0  0  0  0  0  0  0  0  0  0
   57.8020   33.8110   46.2680 C   0  0  0  0  0  0  0  0  0  0  0  0
   58.1480   33.3200   44.5410 S   0  0  0  0  0  0  0  0  0  0  0  0
   57.8370   31.5770   44.8010 C   0  0  0  0  0  0  0  0  0  0  0  0
   58.8520   30.7510   45.1640 N   0  0  0  0  0  0  0  0  0  0  0  0
   58.6350   29.4280   45.3950 C   0  0  0  0  0  0  0  0  0  0  0  0
   59.7790   28.5560   45.8250 C   0  0  0  0  0  0  0  0  0  0  0  0
   60.1070   28.8080   47.2370 N   0  0  0  0  0  0  0  0  0  0  0  0
   60.0570   30.0680   47.6940 N   0  0  0  0  0  0  0  0  0  0  0  0
   60.3290   30.3730   48.9890 C   0  0  0  0  0  0  0  0  0  0  0  0
   60.6570   29.3600   49.8870 C   0  0  0  0  0  0  0  0  0  0  0  0
   61.0050   29.7730   51.5610 Cl  0  0  0  0  0  0  0  0  0  0  0  0
   60.6990   28.0390   49.4320 C   0  0  0  0  0  0  0  0  0  0  0  0
   61.1010   26.7180   50.5310 Cl  0  0  0  0  0  0  0  0  0  0  0  0
   60.4120   27.7740   48.0870 C   0  0  0  0  0  0  0  0  0  0  0  0
   60.4340   26.5820   47.6700 O   0  0  0  0  0  0  0  0  0  0  0  0
   57.3410   28.9100   45.2620 C   0  0  0  0  0  0  0  0  0  0  0  0
   56.3130   29.7730   44.8800 C   0  0  0  0  0  0  0  0  0  0  0  0
   55.1390   29.3400   44.7500 O   0  0  0  0  0  0  0  0  0  0  0  0
   56.5780   31.0850   44.6550 N   0  0  0  0  0  0  0  0  0  0  0  0
   60.0950   33.3550   47.4830 C   0  0  0  0  0  0  0  0  0  0  0  0
   60.4960   33.7800   48.7650 C   0  0  0  0  0  0  0  0  0  0  0  0
   61.8410   34.0430   49.0400 C   0  0  0  0  0  0  0  0  0  0  0  0
   62.8030   33.8910   48.0410 C   0  0  0  0  0  0  0  0  0  0  0  0
   62.4210   33.4830   46.7620 C   0  0  0  0  0  0  0  0  0  0  0  0
   61.0780   33.2220   46.4780 C   0  0  0  0  0  0  0  0  0  0  0  0
   56.7429   33.6155   46.4916 H   0  0  0  0  0  0  0  0  0  0  0  0
   58.0297   34.8815   46.3789 H   0  0  0  0  0  0  0  0  0  0  0  0
   59.4978   27.4999   45.7002 H   0  0  0  0  0  0  0  0  0  0  0  0
   60.6584   28.7862   45.2056 H   0  0  0  0  0  0  0  0  0  0  0  0
   59.8030   30.8510   47.0460 H   0  0  0  0  0  0  0  0  0  0  0  0
   60.2904   31.4186   49.3284 H   0  0  0  0  0  0  0  0  0  0  0  0
   57.1391   27.8459   45.4544 H   0  0  0  0  0  0  0  0  0  0  0  0
   59.7433   33.9061   49.5572 H   0  0  0  0  0  0  0  0  0  0  0  0
   62.1416   34.3705   50.0462 H   0  0  0  0  0  0  0  0  0  0  0  0
   63.8617   34.0925   48.2612 H   0  0  0  0  0  0  0  0  0  0  0  0
   63.1802   33.3665   45.9745 H   0  0  0  0  0  0  0  0  0  0  0  0
   60.7845   32.9108   45.4646 H   0  0  0  0  0  0  0  0  0  0  0  0
  1  2  2  0
  2  3  1  0
  3  4  1  0
  4  5  1  0
  5  6  2  0
  6  7  1  0
  7  8  1  0
  8  9  1  0
  9 10  1  0
 10 11  2  0
 11 12  1  0
 12 13  1  0
 12 14  2  0
 14 15  1  0
 14 16  1  0
 16 17  2  0
  7 18  2  0
 18 19  1  0
 19 20  2  0
 19 21  1  0
  2 22  1  0
 22 23  2  0
 23 24  1  0
 24 25  2  0
 25 26  1  0
 26 27  2  0
 21  5  1  0
 27 22  1  0
 16  9  1  0
  3 28  1  0
  3 29  1  0
  8 30  1  0
  8 31  1  0
 10 32  1  0
 11 33  1  0
 18 34  1  0
 23 35  1  0
 24 36  1  0
 25 37  1  0
 26 38  1  0
 27 39  1  0
M  CHG  2  10   1  21  -1
M  END
>  <UniqueID>  (83) 
75

>  <SMILES>  (83) 
O=C(CSc1nc(Cn2[nH+]cc(Cl)c(Cl)c2=O)cc(=O)[n-]1)c1ccccc1

>  <Energy>  (83) 
41.828472563612934

>  <Genealogy>  (83) 
O=C(CSc1nc(Cn2[nH+]cc(Cl)c(Cl)c2=O)cc(=O)[n-]1)c1ccccc1 (protonated)
O=C(CSc1nc(Cn2[nH+]cc(Cl)c(Cl)c2=O)cc(=O)[n-]1)c1ccccc1 (3D coordinates assigned)
O=C(CSc1nc(Cn2[nH+]cc(Cl)c(Cl)c2=O)cc(=O)[n-]1)c1ccccc1 (optimized conformer: 41.828472563612934 kcal/mol)

>  <smiles>  (83) 
O=C(CSc1nc(Cn2ncc(Cl)c(Cl)c2=O)cc(=O)[nH]1)c1ccccc1

>  <score_type>  (83) 
oracle

>  <origin>  (83) 
adg

>  <m_score__min__energy>  (83) 
-8.1099999999999994

>  <m_primary>  (83) 
energy

$$$$
83:0
     RDKit          3D

 35 36  0  0  0  0  0  0  0  0999 V2000
   58.8410   27.8600   44.1630 C   0  0  0  0  0  0  0  0  0  0  0  0
   57.4070   27.9930   44.3130 N   0  0  0  0  0  0  0  0  0  0  0  0
   56.8850   29.5550   43.8040 S   0  0  0  0  0  0  0  0  0  0  0  0
   56.2130   29.5170   42.4750 O   0  0  0  0  0  0  0  0  0  0  0  0
   55.9020   30.0310   44.8630 O   0  0  0  0  0  0  0  0  0  0  0  0
   58.1600   30.7090   43.7690 N   0  0  0  0  0  0  0  0  0  0  0  0
   58.1650   31.9000   44.5330 C   0  0  0  0  0  0  0  0  0  0  0  0
   57.7430   33.1210   44.0550 C   0  0  0  0  0  0  0  0  0  0  0  0
   57.7830   34.2160   44.8680 C   0  0  0  0  0  0  0  0  0  0  0  0
   58.2420   34.1390   46.1730 C   0  0  0  0  0  0  0  0  0  0  0  0
   58.6680   32.9210   46.6660 C   0  0  0  0  0  0  0  0  0  0  0  0
   59.1710   32.7740   48.0590 C   0  0  0  0  0  0  0  0  0  0  0  0
   60.6550   32.9010   48.1170 C   0  0  0  0  0  0  0  0  0  0  0  0
   61.3860   33.3810   47.0280 C   0  0  0  0  0  0  0  0  0  0  0  0
   62.7640   33.4830   47.1240 C   0  0  0  0  0  0  0  0  0  0  0  0
   63.4490   33.9140   46.1530 O   0  0  0  0  0  0  0  0  0  0  0  0
   63.3730   33.1040   48.3060 C   0  0  0  0  0  0  0  0  0  0  0  0
   64.6200   33.1730   48.4540 O   0  0  0  0  0  0  0  0  0  0  0  0
   62.6320   32.6390   49.3510 N   0  0  0  0  0  0  0  0  0  0  0  0
   61.3080   32.5450   49.2480 N   0  0  0  0  0  0  0  0  0  0  0  0
   58.6210   31.8200   45.8300 C   0  0  0  0  0  0  0  0  0  0  0  0
   59.3111   27.8164   45.1565 H   0  0  0  0  0  0  0  0  0  0  0  0
   59.0677   26.9370   43.6093 H   0  0  0  0  0  0  0  0  0  0  0  0
   59.2336   28.7256   43.6093 H   0  0  0  0  0  0  0  0  0  0  0  0
   56.9280   27.2170   43.8050 H   0  0  0  0  0  0  0  0  0  0  0  0
   59.0120   30.5590   43.1510 H   0  0  0  0  0  0  0  0  0  0  0  0
   57.3754   33.2128   43.0223 H   0  0  0  0  0  0  0  0  0  0  0  0
   57.4417   35.1858   44.4769 H   0  0  0  0  0  0  0  0  0  0  0  0
   58.2669   35.0365   46.8085 H   0  0  0  0  0  0  0  0  0  0  0  0
   58.7199   33.5564   48.6869 H   0  0  0  0  0  0  0  0  0  0  0  0
   58.8944   31.7737   48.4235 H   0  0  0  0  0  0  0  0  0  0  0  0
   60.8715   33.6757   46.1015 H   0  0  0  0  0  0  0  0  0  0  0  0
   63.1370   32.3580   50.2430 H   0  0  0  0  0  0  0  0  0  0  0  0
   60.7890   32.1840   50.0790 H   0  0  0  0  0  0  0  0  0  0  0  0
   58.9596   30.8466   46.2146 H   0  0  0  0  0  0  0  0  0  0  0  0
  1  2  1  0
  2  3  1  0
  3  4  2  0
  3  5  2  0
  3  6  1  0
  6  7  1  0
  7  8  2  0
  8  9  1  0
  9 10  2  0
 10 11  1  0
 11 12  1  0
 12 13  1  0
 13 14  2  0
 14 15  1  0
 15 16  2  0
 15 17  1  0
 17 18  2  0
 17 19  1  0
 19 20  1  0
 11 21  2  0
 21  7  1  0
 20 13  1  0
  1 22  1  0
  1 23  1  0
  1 24  1  0
  2 25  1  0
  6 26  1  0
  8 27  1  0
  9 28  1  0
 10 29  1  0
 12 30  1  0
 12 31  1  0
 14 32  1  0
 19 33  1  0
 20 34  1  0
 21 35  1  0
M  END
>  <smiles>  (84) 
CNS(=O)(=O)Nc1cccc(Cc2cc(=O)c(=O)[nH][nH]2)c1

>  <score_type>  (84) 
oracle

>  <origin>  (84) 
adg

>  <m_score__min__energy>  (84) 
-7.8399999999999999

>  <m_primary>  (84) 
energy

$$$$
84:0
     RDKit          3D

 42 44  0  0  0  0  0  0  0  0999 V2000
   67.6280   33.3300   52.2880 N   0  0  0  0  0  0  0  0  0  0  0  0
   67.0730   32.1960   51.6180 C   0  0  0  0  0  0  0  0  0  0  0  0
   67.7260   31.1170   51.6070 O   0  0  0  0  0  0  0  0  0  0  0  0
   65.7630   32.2660   50.9270 C   0  0  0  0  0  0  0  0  0  0  0  0
   64.6510   31.5850   51.4460 C   0  0  0  0  0  0  0  0  0  0  0  0
   63.4160   31.6520   50.8010 C   0  0  0  0  0  0  0  0  0  0  0  0
   63.2860   32.4090   49.6250 C   0  0  0  0  0  0  0  0  0  0  0  0
   61.9930   32.5170   48.9020 C   0  0  0  0  0  0  0  0  0  0  0  0
   60.7700   32.6070   49.5950 C   0  0  0  0  0  0  0  0  0  0  0  0
   59.5620   32.7000   48.8970 C   0  0  0  0  0  0  0  0  0  0  0  0
   59.5530   32.7000   47.4910 C   0  0  0  0  0  0  0  0  0  0  0  0
   58.3380   32.7940   46.7360 N   0  0  0  0  0  0  0  0  0  0  0  0
   58.1720   33.5880   45.2040 S   0  0  0  0  0  0  0  0  0  0  0  0
   59.3330   34.5170   44.9820 O   0  0  0  0  0  0  0  0  0  0  0  0
   56.8850   34.3620   45.1690 O   0  0  0  0  0  0  0  0  0  0  0  0
   58.1460   32.3610   43.9110 C   0  0  0  0  0  0  0  0  0  0  0  0
   57.4440   31.1180   44.3840 C   0  0  0  0  0  0  0  0  0  0  0  0
   58.0890   30.2310   45.2620 C   0  0  0  0  0  0  0  0  0  0  0  0
   57.4500   29.0570   45.6730 C   0  0  0  0  0  0  0  0  0  0  0  0
   56.1670   28.7570   45.2050 C   0  0  0  0  0  0  0  0  0  0  0  0
   55.5330   27.5900   45.6140 O   0  0  0  0  0  0  0  0  0  0  0  0
   55.5220   29.6310   44.3230 C   0  0  0  0  0  0  0  0  0  0  0  0
   56.1590   30.8050   43.9100 C   0  0  0  0  0  0  0  0  0  0  0  0
   60.7640   32.5970   46.8020 C   0  0  0  0  0  0  0  0  0  0  0  0
   61.9730   32.5030   47.4970 C   0  0  0  0  0  0  0  0  0  0  0  0
   64.3720   33.0810   49.1520 N   0  0  0  0  0  0  0  0  0  0  0  0
   65.5860   33.0310   49.7610 C   0  0  0  0  0  0  0  0  0  0  0  0
   68.5260   33.2360   52.8140 H   0  0  0  0  0  0  0  0  0  0  0  0
   67.2120   34.2820   52.1960 H   0  0  0  0  0  0  0  0  0  0  0  0
   64.7541   30.9941   52.3681 H   0  0  0  0  0  0  0  0  0  0  0  0
   62.5483   31.1147   51.2113 H   0  0  0  0  0  0  0  0  0  0  0  0
   60.7652   32.6041   50.6950 H   0  0  0  0  0  0  0  0  0  0  0  0
   58.6142   32.7735   49.4505 H   0  0  0  0  0  0  0  0  0  0  0  0
   57.6158   32.7666   43.0367 H   0  0  0  0  0  0  0  0  0  0  0  0
   59.1810   32.1057   43.6396 H   0  0  0  0  0  0  0  0  0  0  0  0
   59.1007   30.4609   45.6276 H   0  0  0  0  0  0  0  0  0  0  0  0
   57.9572   28.3688   46.3652 H   0  0  0  0  0  0  0  0  0  0  0  0
   54.5130   29.3942   43.9543 H   0  0  0  0  0  0  0  0  0  0  0  0
   55.6520   31.4865   43.2110 H   0  0  0  0  0  0  0  0  0  0  0  0
   60.7660   32.5898   45.7020 H   0  0  0  0  0  0  0  0  0  0  0  0
   62.9172   32.4173   46.9392 H   0  0  0  0  0  0  0  0  0  0  0  0
   66.4336   33.5915   49.3397 H   0  0  0  0  0  0  0  0  0  0  0  0
  1  2  1  0
  2  3  2  0
  2  4  1  0
  4  5  2  0
  5  6  1  0
  6  7  2  0
  7  8  1  0
  8  9  2  0
  9 10  1  0
 10 11  2  0
 11 12  1  0
 12 13  1  0
 13 14  2  0
 13 15  2  0
 13 16  1  0
 16 17  1  0
 17 18  2  0
 18 19  1  0
 19 20  2  0
 20 21  1  0
 20 22  1  0
 22 23  2  0
 11 24  1  0
 24 25  2  0
  7 26  1  0
 26 27  2  0
 27  4  1  0
 25  8  1  0
 23 17  1  0
  1 28  1  0
  1 29  1  0
  5 30  1  0
  6 31  1  0
  9 32  1  0
 10 33  1  0
 16 34  1  0
 16 35  1  0
 18 36  1  0
 19 37  1  0
 22 38  1  0
 23 39  1  0
 24 40  1  0
 25 41  1  0
 27 42  1  0
M  CHG  2  12  -1  21  -1
M  END
>  <UniqueID>  (85) 
76

>  <SMILES>  (85) 
NC(=O)c1ccc(-c2ccc([N-]S(=O)(=O)Cc3ccc([O-])cc3)cc2)nc1

>  <Energy>  (85) 
48.899320255355015

>  <Genealogy>  (85) 
NC(=O)c1ccc(-c2ccc([N-]S(=O)(=O)Cc3ccc([O-])cc3)cc2)nc1 (protonated)
NC(=O)c1ccc(-c2ccc([N-]S(=O)(=O)Cc3ccc([O-])cc3)cc2)nc1 (3D coordinates assigned)
NC(=O)c1ccc(-c2ccc([N-]S(=O)(=O)Cc3ccc([O-])cc3)cc2)nc1 (optimized conformer: 48.899320255355015 kcal/mol)

>  <smiles>  (85) 
NC(=O)c1ccc(-c2ccc(NS(=O)(=O)Cc3ccc(O)cc3)cc2)nc1

>  <score_type>  (85) 
oracle

>  <origin>  (85) 
adg

>  <m_score__min__energy>  (85) 
-12.390000000000001

>  <m_primary>  (85) 
energy

$$$$
85:0
     RDKit          3D

 43 45  0  0  0  0  0  0  0  0999 V2000
   57.0010   24.3310   46.9510 C   0  0  0  0  0  0  0  0  0  0  0  0
   56.8570   25.6990   46.3620 C   0  0  0  0  0  0  0  0  0  0  0  0
   55.6760   26.3080   46.1550 N   0  0  0  0  0  0  0  0  0  0  0  0
   55.9060   27.4740   45.6330 O   0  0  0  0  0  0  0  0  0  0  0  0
   57.1960   27.6690   45.4830 C   0  0  0  0  0  0  0  0  0  0  0  0
   57.6610   28.7880   45.0060 N   0  0  0  0  0  0  0  0  0  0  0  0
   56.8200   30.1240   44.2810 S   0  0  0  0  0  0  0  0  0  0  0  0
   56.9600   30.1020   42.7860 O   0  0  0  0  0  0  0  0  0  0  0  0
   55.3690   30.0810   44.6720 O   0  0  0  0  0  0  0  0  0  0  0  0
   57.5650   31.6150   44.8680 C   0  0  0  0  0  0  0  0  0  0  0  0
   57.5220   32.7790   44.0850 C   0  0  0  0  0  0  0  0  0  0  0  0
   58.1100   33.9600   44.5450 C   0  0  0  0  0  0  0  0  0  0  0  0
   58.7510   33.9850   45.7860 C   0  0  0  0  0  0  0  0  0  0  0  0
   58.8040   32.8320   46.5710 C   0  0  0  0  0  0  0  0  0  0  0  0
   58.2100   31.6380   46.1200 C   0  0  0  0  0  0  0  0  0  0  0  0
   58.2570   30.4380   46.9000 N   0  0  0  0  0  0  0  0  0  0  0  0
   59.6830   29.6520   47.4910 S   0  0  0  0  0  0  0  0  0  0  0  0
   60.2980   28.8400   46.3850 O   0  0  0  0  0  0  0  0  0  0  0  0
   59.3340   28.7650   48.6520 O   0  0  0  0  0  0  0  0  0  0  0  0
   60.8330   30.8830   48.0040 C   0  0  0  0  0  0  0  0  0  0  0  0
   61.9270   31.2170   47.1910 C   0  0  0  0  0  0  0  0  0  0  0  0
   62.8530   32.1740   47.6160 C   0  0  0  0  0  0  0  0  0  0  0  0
   62.6870   32.8070   48.8510 C   0  0  0  0  0  0  0  0  0  0  0  0
   61.5940   32.4860   49.6610 C   0  0  0  0  0  0  0  0  0  0  0  0
   60.6680   31.5260   49.2400 C   0  0  0  0  0  0  0  0  0  0  0  0
   57.8790   26.5300   45.9240 C   0  0  0  0  0  0  0  0  0  0  0  0
   59.3440   26.2180   45.9830 C   0  0  0  0  0  0  0  0  0  0  0  0
   56.9935   24.4018   48.0487 H   0  0  0  0  0  0  0  0  0  0  0  0
   56.1644   23.6988   46.6186 H   0  0  0  0  0  0  0  0  0  0  0  0
   57.9509   23.8868   46.6186 H   0  0  0  0  0  0  0  0  0  0  0  0
   54.7270   25.9300   46.3740 H   0  0  0  0  0  0  0  0  0  0  0  0
   57.0231   32.7614   43.1048 H   0  0  0  0  0  0  0  0  0  0  0  0
   58.0682   34.8708   43.9296 H   0  0  0  0  0  0  0  0  0  0  0  0
   59.2150   34.9154   46.1454 H   0  0  0  0  0  0  0  0  0  0  0  0
   59.3121   32.8564   47.5463 H   0  0  0  0  0  0  0  0  0  0  0  0
   62.0562   30.7241   46.2161 H   0  0  0  0  0  0  0  0  0  0  0  0
   63.7124   32.4289   46.9784 H   0  0  0  0  0  0  0  0  0  0  0  0
   63.4172   33.5585   49.1858 H   0  0  0  0  0  0  0  0  0  0  0  0
   61.4620   32.9888   50.6304 H   0  0  0  0  0  0  0  0  0  0  0  0
   59.8088   31.2747   49.8792 H   0  0  0  0  0  0  0  0  0  0  0  0
   59.6624   26.1502   47.0337 H   0  0  0  0  0  0  0  0  0  0  0  0
   59.5352   25.2590   45.4793 H   0  0  0  0  0  0  0  0  0  0  0  0
   59.9094   27.0159   45.4793 H   0  0  0  0  0  0  0  0  0  0  0  0
  1  2  1  0
  2  3  1  0
  3  4  1  0
  4  5  1  0
  5  6  2  3
  6  7  1  0
  7  8  2  0
  7  9  2  0
  7 10  1  0
 10 11  2  0
 11 12  1  0
 12 13  2  0
 13 14  1  0
 14 15  2  0
 15 16  1  0
 16 17  1  0
 17 18  2  0
 17 19  2  0
 17 20  1  0
 20 21  2  0
 21 22  1  0
 22 23  2  0
 23 24  1  0
 24 25  2  0
  5 26  1  0
 26 27  1  0
 26  2  2  0
 15 10  1  0
 25 20  1  0
  1 28  1  0
  1 29  1  0
  1 30  1  0
  3 31  1  0
 11 32  1  0
 12 33  1  0
 13 34  1  0
 14 35  1  0
 21 36  1  0
 22 37  1  0
 23 38  1  0
 24 39  1  0
 25 40  1  0
 27 41  1  0
 27 42  1  0
 27 43  1  0
M  CHG  1  16  -1
M  END
>  <UniqueID>  (86) 
77

>  <SMILES>  (86) 
Cc1[nH]oc(=NS(=O)(=O)c2ccccc2[N-]S(=O)(=O)c2ccccc2)c1C

>  <Energy>  (86) 
89.04244867882323

>  <Genealogy>  (86) 
Cc1[nH]oc(=NS(=O)(=O)c2ccccc2[N-]S(=O)(=O)c2ccccc2)c1C (protonated)
Cc1[nH]oc(=NS(=O)(=O)c2ccccc2[N-]S(=O)(=O)c2ccccc2)c1C (3D coordinates assigned)
Cc1[nH]oc(=NS(=O)(=O)c2ccccc2[N-]S(=O)(=O)c2ccccc2)c1C (optimized conformer: 89.04244867882323 kcal/mol)

>  <smiles>  (86) 
Cc1[nH]oc(=NS(=O)(=O)c2ccccc2NS(=O)(=O)c2ccccc2)c1C

>  <score_type>  (86) 
oracle

>  <origin>  (86) 
adg

>  <m_score__min__energy>  (86) 
-11.76

>  <m_primary>  (86) 
energy

$$$$
86:0
     RDKit          3D

 51 54  0  0  0  0  0  0  0  0999 V2000
   63.3590   33.8470   46.3680 C   0  0  0  0  0  0  0  0  0  0  0  0
   63.3000   33.8310   47.8280 N   0  0  0  0  0  0  0  0  0  0  0  0
   63.3280   32.1880   48.3950 S   0  0  0  0  0  0  0  0  0  0  0  0
   64.6090   31.9350   49.1360 O   0  0  0  0  0  0  0  0  0  0  0  0
   63.2450   31.2480   47.2250 O   0  0  0  0  0  0  0  0  0  0  0  0
   61.9880   31.8970   49.4530 N   0  0  0  0  0  0  0  0  0  0  0  0
   60.8260   32.7310   49.4640 C   0  0  0  0  0  0  0  0  0  0  0  0
   60.2920   33.0260   50.5670 O   0  0  0  0  0  0  0  0  0  0  0  0
   60.3030   33.2890   48.1880 C   0  0  0  0  0  0  0  0  0  0  0  0
   59.8030   34.6060   48.1970 C   0  0  0  0  0  0  0  0  0  0  0  0
   59.2340   35.1670   47.0540 C   0  0  0  0  0  0  0  0  0  0  0  0
   59.1490   34.4260   45.8790 C   0  0  0  0  0  0  0  0  0  0  0  0
   59.6470   33.1250   45.8370 C   0  0  0  0  0  0  0  0  0  0  0  0
   60.2460   32.5420   46.9710 C   0  0  0  0  0  0  0  0  0  0  0  0
   60.7850   31.2020   46.8570 N   0  0  0  0  0  0  0  0  0  0  0  0
   59.7760   30.1660   46.7320 C   0  0  0  0  0  0  0  0  0  0  0  0
   59.9900   28.8170   47.1600 C   0  0  0  0  0  0  0  0  0  0  0  0
   59.0250   27.8230   46.9290 C   0  0  0  0  0  0  0  0  0  0  0  0
   57.8700   28.1880   46.2460 C   0  0  0  0  0  0  0  0  0  0  0  0
   56.7590   27.4850   45.8270 C   0  0  0  0  0  0  0  0  0  0  0  0
   56.4810   26.0470   45.9910 C   0  0  0  0  0  0  0  0  0  0  0  0
   57.3860   25.0680   45.8330 C   0  0  0  0  0  0  0  0  0  0  0  0
   57.2650   23.9400   44.8830 C   0  0  0  0  0  0  0  0  0  0  0  0
   58.1150   22.8310   45.0060 C   0  0  0  0  0  0  0  0  0  0  0  0
   57.9910   21.7680   44.1100 C   0  0  0  0  0  0  0  0  0  0  0  0
   57.0140   21.8080   43.1140 C   0  0  0  0  0  0  0  0  0  0  0  0
   56.1710   22.9170   43.0310 C   0  0  0  0  0  0  0  0  0  0  0  0
   56.3090   23.9440   43.9110 N   0  0  0  0  0  0  0  0  0  0  0  0
   55.8970   28.3530   45.2480 N   0  0  0  0  0  0  0  0  0  0  0  0
   56.4380   29.5690   45.2540 N   0  0  0  0  0  0  0  0  0  0  0  0
   57.6370   29.4730   45.8550 C   0  0  0  0  0  0  0  0  0  0  0  0
   58.5650   30.4870   46.0700 C   0  0  0  0  0  0  0  0  0  0  0  0
   64.3739   34.1222   46.0450 H   0  0  0  0  0  0  0  0  0  0  0  0
   63.1088   32.8486   45.9800 H   0  0  0  0  0  0  0  0  0  0  0  0
   62.6387   34.5823   45.9800 H   0  0  0  0  0  0  0  0  0  0  0  0
   64.1650   34.2940   48.1870 H   0  0  0  0  0  0  0  0  0  0  0  0
   59.8623   35.2013   49.1201 H   0  0  0  0  0  0  0  0  0  0  0  0
   58.8514   36.1979   47.0812 H   0  0  0  0  0  0  0  0  0  0  0  0
   58.6885   34.8675   44.9829 H   0  0  0  0  0  0  0  0  0  0  0  0
   59.5713   32.5452   44.9053 H   0  0  0  0  0  0  0  0  0  0  0  0
   61.3990   31.1660   46.0110 H   0  0  0  0  0  0  0  0  0  0  0  0
   61.4160   30.9840   47.6610 H   0  0  0  0  0  0  0  0  0  0  0  0
   60.9245   28.5548   47.6777 H   0  0  0  0  0  0  0  0  0  0  0  0
   59.1777   26.7906   47.2766 H   0  0  0  0  0  0  0  0  0  0  0  0
   55.4562   25.7542   46.2630 H   0  0  0  0  0  0  0  0  0  0  0  0
   58.2892   25.1076   46.4596 H   0  0  0  0  0  0  0  0  0  0  0  0
   58.8733   22.7993   45.8023 H   0  0  0  0  0  0  0  0  0  0  0  0
   58.6622   20.9001   44.1887 H   0  0  0  0  0  0  0  0  0  0  0  0
   56.9098   20.9752   42.4029 H   0  0  0  0  0  0  0  0  0  0  0  0
   55.3944   22.9602   42.2531 H   0  0  0  0  0  0  0  0  0  0  0  0
   58.3632   31.5147   45.7337 H   0  0  0  0  0  0  0  0  0  0  0  0
  1  2  1  0
  2  3  1  0
  3  4  2  0
  3  5  2  0
  3  6  1  0
  6  7  1  0
  7  8  2  0
  7  9  1  0
  9 10  2  0
 10 11  1  0
 11 12  2  0
 12 13  1  0
 13 14  2  0
 14 15  1  0
 15 16  1  0
 16 17  1  0
 17 18  2  0
 18 19  1  0
 19 20  2  0
 20 21  1  0
 21 22  2  3
 22 23  1  0
 23 24  2  0
 24 25  1  0
 25 26  2  0
 26 27  1  0
 27 28  2  0
 20 29  1  0
 29 30  1  0
 30 31  2  0
 31 32  1  0
 14  9  1  0
 32 16  2  0
 31 19  1  0
 28 23  1  0
  1 33  1  0
  1 34  1  0
  1 35  1  0
  2 36  1  0
 10 37  1  0
 11 38  1  0
 12 39  1  0
 13 40  1  0
 15 41  1  0
 15 42  1  0
 17 43  1  0
 18 44  1  0
 21 45  1  0
 22 46  1  0
 24 47  1  0
 25 48  1  0
 26 49  1  0
 27 50  1  0
 32 51  1  0
M  CHG  3   6  -1  15   1  29  -1
M  END
>  <UniqueID>  (87) 
78

>  <SMILES>  (87) 
CNS(=O)(=O)[N-]C(=O)c1ccccc1[NH2+]c1ccc2c(C=Cc3ccccn3)[n-]nc2c1

>  <Energy>  (87) 
108.56303170849841

>  <Genealogy>  (87) 
CNS(=O)(=O)[N-]C(=O)c1ccccc1[NH2+]c1ccc2c(C=Cc3ccccn3)[n-]nc2c1 (protonated)
CNS(=O)(=O)[N-]C(=O)c1ccccc1[NH2+]c1ccc2c(C=Cc3ccccn3)[n-]nc2c1 (3D coordinates assigned)
CNS(=O)(=O)[N-]C(=O)c1ccccc1[NH2+]c1ccc2c(C=Cc3ccccn3)[n-]nc2c1 (optimized conformer: 108.56303170849841 kcal/mol)

>  <smiles>  (87) 
CNS(=O)(=O)NC(=O)c1ccccc1Nc1ccc2c(C=Cc3ccccn3)[nH]nc2c1

>  <score_type>  (87) 
oracle

>  <origin>  (87) 
adg

>  <m_score__min__energy>  (87) 
-11.369999999999999

>  <m_primary>  (87) 
energy

$$$$
87:0
     RDKit          3D

 57 60  0  0  0  0  0  0  0  0999 V2000
   63.0380   34.2230   49.2610 C   0  0  0  0  0  0  0  0  0  0  0  0
   61.6790   34.5960   49.0670 O   0  0  0  0  0  0  0  0  0  0  0  0
   60.7450   33.8770   48.3050 C   0  0  0  0  0  0  0  0  0  0  0  0
   60.4740   34.2410   46.9740 C   0  0  0  0  0  0  0  0  0  0  0  0
   59.6270   33.4820   46.1750 C   0  0  0  0  0  0  0  0  0  0  0  0
   59.0710   32.2930   46.6500 C   0  0  0  0  0  0  0  0  0  0  0  0
   58.2350   31.4780   45.7420 C   0  0  0  0  0  0  0  0  0  0  0  0
   57.0170   31.8620   45.3130 N   0  0  0  0  0  0  0  0  0  0  0  0
   56.5760   30.9190   44.4940 N   0  0  0  0  0  0  0  0  0  0  0  0
   57.5310   29.9710   44.4400 C   0  0  0  0  0  0  0  0  0  0  0  0
   57.3960   28.4900   43.4370 S   0  0  0  0  0  0  0  0  0  0  0  0
   57.4700   27.3750   44.8740 C   0  0  0  0  0  0  0  0  0  0  0  0
   58.5840   30.2840   45.2190 N   0  0  0  0  0  0  0  0  0  0  0  0
   59.8200   29.5260   45.4030 C   0  0  0  0  0  0  0  0  0  0  0  0
   59.3150   31.8940   47.9790 C   0  0  0  0  0  0  0  0  0  0  0  0
   60.0910   32.7540   48.8750 C   0  0  0  0  0  0  0  0  0  0  0  0
   60.2580   32.4070   50.4290 C   0  0  2  0  0  0  0  0  0  0  0  0
   60.1120   33.6970   51.2890 C   0  0  0  0  0  0  0  0  0  0  0  0
   61.6700   31.6990   50.7460 C   0  0  0  0  0  0  0  0  0  0  0  0
   61.7450   30.0930   50.9000 C   0  0  0  0  0  0  0  0  0  0  0  0
   60.4840   29.3240   50.5340 N   0  0  0  0  0  0  0  0  0  0  0  0
   60.7530   28.0810   49.7930 C   0  0  0  0  0  0  0  0  0  0  0  0
   59.4990   30.2040   49.8730 C   0  0  2  0  0  0  0  0  0  0  0  0
   58.9330   30.4340   48.4370 C   0  0  0  0  0  0  0  0  0  0  0  0
   59.1370   31.3970   50.8130 C   0  0  0  0  0  0  0  0  0  0  0  0
   57.6900   31.9550   50.5880 C   0  0  0  0  0  0  0  0  0  0  0  0
   59.1440   30.9570   52.3200 C   0  0  0  0  0  0  0  0  0  0  0  0
   63.2519   34.1643   50.3384 H   0  0  0  0  0  0  0  0  0  0  0  0
   63.2188   33.2420   48.7973 H   0  0  0  0  0  0  0  0  0  0  0  0
   63.6942   34.9743   48.7973 H   0  0  0  0  0  0  0  0  0  0  0  0
   60.9419   35.1448   46.5567 H   0  0  0  0  0  0  0  0  0  0  0  0
   59.3919   33.8225   45.1558 H   0  0  0  0  0  0  0  0  0  0  0  0
   57.4307   27.9673   45.8001 H   0  0  0  0  0  0  0  0  0  0  0  0
   56.6158   26.6825   44.8451 H   0  0  0  0  0  0  0  0  0  0  0  0
   58.4082   26.8014   44.8451 H   0  0  0  0  0  0  0  0  0  0  0  0
   60.0188   29.4041   46.4780 H   0  0  0  0  0  0  0  0  0  0  0  0
   59.7162   28.5361   44.9347 H   0  0  0  0  0  0  0  0  0  0  0  0
   60.6553   30.0673   44.9347 H   0  0  0  0  0  0  0  0  0  0  0  0
   60.1420   33.4316   52.3561 H   0  0  0  0  0  0  0  0  0  0  0  0
   60.9379   34.3863   51.0592 H   0  0  0  0  0  0  0  0  0  0  0  0
   59.1530   34.1843   51.0592 H   0  0  0  0  0  0  0  0  0  0  0  0
   62.3543   31.9731   49.9296 H   0  0  0  0  0  0  0  0  0  0  0  0
   61.9183   32.0641   51.7535 H   0  0  0  0  0  0  0  0  0  0  0  0
   62.5583   29.7314   50.2536 H   0  0  0  0  0  0  0  0  0  0  0  0
   61.9027   29.9069   51.9726 H   0  0  0  0  0  0  0  0  0  0  0  0
   60.9304   27.2611   50.5045 H   0  0  0  0  0  0  0  0  0  0  0  0
   59.8870   27.8365   49.1604 H   0  0  0  0  0  0  0  0  0  0  0  0
   61.6426   28.2165   49.1604 H   0  0  0  0  0  0  0  0  0  0  0  0
   59.2708   29.2083   49.4649 H   0  0  0  0  0  0  0  0  0  0  0  0
   59.3704   29.7007   47.7435 H   0  0  0  0  0  0  0  0  0  0  0  0
   57.8398   30.3121   48.4378 H   0  0  0  0  0  0  0  0  0  0  0  0
   57.2125   32.1391   51.5617 H   0  0  0  0  0  0  0  0  0  0  0  0
   57.7440   32.8968   50.0222 H   0  0  0  0  0  0  0  0  0  0  0  0
   57.0977   31.2208   50.0222 H   0  0  0  0  0  0  0  0  0  0  0  0
   59.1298   31.8496   52.9627 H   0  0  0  0  0  0  0  0  0  0  0  0
   58.2555   30.3423   52.5266 H   0  0  0  0  0  0  0  0  0  0  0  0
   60.0516   30.3708   52.5266 H   0  0  0  0  0  0  0  0  0  0  0  0
  1  2  1  0
  2  3  1  0
  3  4  2  0
  4  5  1  0
  5  6  2  0
  6  7  1  0
  7  8  2  0
  8  9  1  0
  9 10  2  0
 10 11  1  0
 11 12  1  0
 10 13  1  0
 13 14  1  0
  6 15  1  0
 15 16  2  0
 16 17  1  0
 17 18  1  1
 17 19  1  0
 19 20  1  0
 20 21  1  0
 21 22  1  0
 21 23  1  0
 23 24  1  0
 23 25  1  0
 25 26  1  0
 25 27  1  0
 16  3  1  0
 25 17  1  0
 13  7  1  0
 24 15  1  0
  1 28  1  0
  1 29  1  0
  1 30  1  0
  4 31  1  0
  5 32  1  0
 12 33  1  0
 12 34  1  0
 12 35  1  0
 14 36  1  0
 14 37  1  0
 14 38  1  0
 18 39  1  0
 18 40  1  0
 18 41  1  0
 19 42  1  0
 19 43  1  0
 20 44  1  0
 20 45  1  0
 22 46  1  0
 22 47  1  0
 22 48  1  0
 23 49  1  1
 24 50  1  0
 24 51  1  0
 26 52  1  0
 26 53  1  0
 26 54  1  0
 27 55  1  0
 27 56  1  0
 27 57  1  0
M  END
>  <UniqueID>  (88) 
79

>  <SMILES>  (88) 
COc1ccc(-c2nnc(SC)n2C)c2c1[C@]1(C)CCN(C)[C@@H](C2)C1(C)C

>  <Energy>  (88) 
256.56883001329504

>  <Genealogy>  (88) 
COc1ccc(-c2nnc(SC)n2C)c2c1[C@]1(C)CCN(C)[C@@H](C2)C1(C)C (chirality)
COc1ccc(-c2nnc(SC)n2C)c2c1[C@]1(C)CCN(C)[C@@H](C2)C1(C)C (3D coordinates assigned)
COc1ccc(-c2nnc(SC)n2C)c2c1[C@]1(C)CCN(C)[C@@H](C2)C1(C)C (nonaromatic ring conformer: 256.56883001329504 kcal/mol)

>  <smiles>  (88) 
COc1ccc(-c2nnc(SC)n2C)c2c1C1(C)CCN(C)C(C2)C1(C)C

>  <score_type>  (88) 
oracle

>  <origin>  (88) 
adg

>  <m_score__min__energy>  (88) 
-7.8600000000000003

>  <m_primary>  (88) 
energy

$$$$
88:0
     RDKit          3D

 38 39  0  0  0  0  0  0  0  0999 V2000
   57.7940   26.0870   44.6240 C   0  0  0  0  0  0  0  0  0  0  0  0
   56.7380   26.7850   45.8750 S   0  0  0  0  0  0  0  0  0  0  0  0
   57.5860   27.2120   47.0380 O   0  0  0  0  0  0  0  0  0  0  0  0
   55.7430   25.7640   46.3520 O   0  0  0  0  0  0  0  0  0  0  0  0
   55.9100   28.1750   45.2510 N   0  0  0  0  0  0  0  0  0  0  0  0
   56.5270   29.3920   44.8100 C   0  0  0  0  0  0  0  0  0  0  0  0
   56.2430   29.9690   43.5590 C   0  0  0  0  0  0  0  0  0  0  0  0
   56.8700   31.1590   43.1730 C   0  0  0  0  0  0  0  0  0  0  0  0
   57.7900   31.7860   44.0270 C   0  0  0  0  0  0  0  0  0  0  0  0
   58.4300   33.0900   43.6290 C   0  0  0  0  0  0  0  0  0  0  0  0
   58.5770   34.0310   44.8320 C   0  0  0  0  0  0  0  0  0  0  0  0
   59.8680   33.8480   45.4930 N   0  0  0  0  0  0  0  0  0  0  0  0
   60.0560   34.0780   46.9000 C   0  0  0  0  0  0  0  0  0  0  0  0
   59.0800   34.4590   47.6040 O   0  0  0  0  0  0  0  0  0  0  0  0
   61.3700   33.8520   47.5470 C   0  0  0  0  0  0  0  0  0  0  0  0
   62.5030   33.4760   46.8050 C   0  0  0  0  0  0  0  0  0  0  0  0
   63.7260   33.2720   47.4470 C   0  0  0  0  0  0  0  0  0  0  0  0
   63.8140   33.4520   48.8290 C   0  0  0  0  0  0  0  0  0  0  0  0
   64.9090   33.2700   49.4230 O   0  0  0  0  0  0  0  0  0  0  0  0
   62.7160   33.8260   49.5360 N   0  0  0  0  0  0  0  0  0  0  0  0
   61.5120   34.0310   48.9350 C   0  0  0  0  0  0  0  0  0  0  0  0
   58.0630   31.2160   45.2790 C   0  0  0  0  0  0  0  0  0  0  0  0
   57.4390   30.0270   45.6640 C   0  0  0  0  0  0  0  0  0  0  0  0
   58.6197   25.5412   45.1039 H   0  0  0  0  0  0  0  0  0  0  0  0
   57.2122   25.3949   43.9974 H   0  0  0  0  0  0  0  0  0  0  0  0
   58.2027   26.8934   43.9974 H   0  0  0  0  0  0  0  0  0  0  0  0
   55.5254   29.4830   42.8816 H   0  0  0  0  0  0  0  0  0  0  0  0
   56.6403   31.6055   42.1943 H   0  0  0  0  0  0  0  0  0  0  0  0
   59.4264   32.8865   43.2098 H   0  0  0  0  0  0  0  0  0  0  0  0
   57.7856   33.5789   42.8835 H   0  0  0  0  0  0  0  0  0  0  0  0
   58.4960   35.0718   44.4852 H   0  0  0  0  0  0  0  0  0  0  0  0
   57.7804   33.7992   45.5543 H   0  0  0  0  0  0  0  0  0  0  0  0
   60.6570   33.4890   44.9110 H   0  0  0  0  0  0  0  0  0  0  0  0
   62.4260   33.3421   45.7159 H   0  0  0  0  0  0  0  0  0  0  0  0
   64.6126   32.9721   46.8691 H   0  0  0  0  0  0  0  0  0  0  0  0
   60.6450   34.3384   49.5382 H   0  0  0  0  0  0  0  0  0  0  0  0
   58.7721   31.7077   45.9612 H   0  0  0  0  0  0  0  0  0  0  0  0
   57.6653   29.5854   46.6457 H   0  0  0  0  0  0  0  0  0  0  0  0
  1  2  1  0
  2  3  2  0
  2  4  2  0
  2  5  1  0
  5  6  1  0
  6  7  2  0
  7  8  1  0
  8  9  2  0
  9 10  1  0
 10 11  1  0
 11 12  1  0
 12 13  1  0
 13 14  2  0
 13 15  1  0
 15 16  1  0
 16 17  2  0
 17 18  1  0
 18 19  2  0
 18 20  1  0
 20 21  1  0
  9 22  1  0
 22 23  2  0
 23  6  1  0
 21 15  2  0
  1 24  1  0
  1 25  1  0
  1 26  1  0
  7 27  1  0
  8 28  1  0
 10 29  1  0
 10 30  1  0
 11 31  1  0
 11 32  1  0
 12 33  1  0
 16 34  1  0
 17 35  1  0
 21 36  1  0
 22 37  1  0
 23 38  1  0
M  CHG  2   5  -1  20  -1
M  END
>  <UniqueID>  (89) 
80

>  <SMILES>  (89) 
CS(=O)(=O)[N-]c1ccc(CCNC(=O)c2ccc(=O)[n-]c2)cc1

>  <Energy>  (89) 
35.670354409558556

>  <Genealogy>  (89) 
CS(=O)(=O)[N-]c1ccc(CCNC(=O)c2ccc(=O)[n-]c2)cc1 (protonated)
CS(=O)(=O)[N-]c1ccc(CCNC(=O)c2ccc(=O)[n-]c2)cc1 (3D coordinates assigned)
CS(=O)(=O)[N-]c1ccc(CCNC(=O)c2ccc(=O)[n-]c2)cc1 (optimized conformer: 35.670354409558556 kcal/mol)

>  <smiles>  (89) 
CS(=O)(=O)Nc1ccc(CCNC(=O)c2ccc(=O)[nH]c2)cc1

>  <score_type>  (89) 
oracle

>  <origin>  (89) 
adg

>  <m_score__min__energy>  (89) 
-10.74

>  <m_primary>  (89) 
energy

$$$$
89:0
     RDKit          3D

 43 45  0  0  0  0  0  0  0  0999 V2000
   58.5160   34.0870   46.8000 C   0  0  0  0  0  0  0  0  0  0  0  0
   59.3100   33.1480   47.5170 O   0  0  0  0  0  0  0  0  0  0  0  0
   60.7020   33.0130   47.3850 C   0  0  0  0  0  0  0  0  0  0  0  0
   61.4760   33.9660   46.6920 C   0  0  0  0  0  0  0  0  0  0  0  0
   62.8590   33.8140   46.5880 C   0  0  0  0  0  0  0  0  0  0  0  0
   63.4880   32.7140   47.1720 C   0  0  0  0  0  0  0  0  0  0  0  0
   62.7350   31.7630   47.8650 C   0  0  0  0  0  0  0  0  0  0  0  0
   61.3400   31.8960   47.9660 C   0  0  0  0  0  0  0  0  0  0  0  0
   60.5600   30.8950   48.7820 C   0  0  0  0  0  0  0  0  0  0  0  0
   59.2950   30.6000   48.1160 N   0  0  0  0  0  0  0  0  0  0  0  0
   59.1910   29.5700   47.1220 C   0  0  0  0  0  0  0  0  0  0  0  0
   59.8280   28.4940   47.2780 O   0  0  0  0  0  0  0  0  0  0  0  0
   58.3380   29.7440   45.9210 C   0  0  0  0  0  0  0  0  0  0  0  0
   58.4290   30.9430   45.1900 C   0  0  0  0  0  0  0  0  0  0  0  0
   57.6080   31.1680   44.0840 C   0  0  0  0  0  0  0  0  0  0  0  0
   56.6790   30.2040   43.6950 C   0  0  0  0  0  0  0  0  0  0  0  0
   56.5640   29.0140   44.4130 C   0  0  0  0  0  0  0  0  0  0  0  0
   57.3770   28.7770   45.5370 C   0  0  0  0  0  0  0  0  0  0  0  0
   57.2400   27.5550   46.2770 N   0  0  0  0  0  0  0  0  0  0  0  0
   56.3950   26.4530   45.9260 C   0  0  0  0  0  0  0  0  0  0  0  0
   55.1470   26.6020   45.9930 O   0  0  0  0  0  0  0  0  0  0  0  0
   56.9480   25.1890   45.4090 C   0  0  0  0  0  0  0  0  0  0  0  0
   56.4120   24.4370   44.3690 C   0  0  0  0  0  0  0  0  0  0  0  0
   57.1840   23.3190   44.0360 C   0  0  0  0  0  0  0  0  0  0  0  0
   58.3370   23.1890   44.7980 C   0  0  0  0  0  0  0  0  0  0  0  0
   58.3940   24.4680   45.8860 S   0  0  0  0  0  0  0  0  0  0  0  0
   57.9742   34.7278   47.5112 H   0  0  0  0  0  0  0  0  0  0  0  0
   59.1659   34.7094   46.1673 H   0  0  0  0  0  0  0  0  0  0  0  0
   57.7943   33.5495   46.1673 H   0  0  0  0  0  0  0  0  0  0  0  0
   60.9860   34.8357   46.2299 H   0  0  0  0  0  0  0  0  0  0  0  0
   63.4544   34.5626   46.0447 H   0  0  0  0  0  0  0  0  0  0  0  0
   64.5783   32.5954   47.0866 H   0  0  0  0  0  0  0  0  0  0  0  0
   63.2375   30.9045   48.3346 H   0  0  0  0  0  0  0  0  0  0  0  0
   61.1454   29.9691   48.8827 H   0  0  0  0  0  0  0  0  0  0  0  0
   60.3590   31.3138   49.7791 H   0  0  0  0  0  0  0  0  0  0  0  0
   58.5090   31.2800   48.2290 H   0  0  0  0  0  0  0  0  0  0  0  0
   59.1552   31.7114   45.4936 H   0  0  0  0  0  0  0  0  0  0  0  0
   57.6941   32.1075   43.5183 H   0  0  0  0  0  0  0  0  0  0  0  0
   56.0359   30.3823   42.8206 H   0  0  0  0  0  0  0  0  0  0  0  0
   55.8325   28.2551   44.0985 H   0  0  0  0  0  0  0  0  0  0  0  0
   55.4728   24.6961   43.8583 H   0  0  0  0  0  0  0  0  0  0  0  0
   56.9035   22.6090   43.2440 H   0  0  0  0  0  0  0  0  0  0  0  0
   59.0843   22.3871   44.7055 H   0  0  0  0  0  0  0  0  0  0  0  0
  1  2  1  0
  2  3  1  0
  3  4  2  0
  4  5  1  0
  5  6  2  0
  6  7  1  0
  7  8  2  0
  8  9  1  0
  9 10  1  0
 10 11  1  0
 11 12  2  0
 11 13  1  0
 13 14  2  0
 14 15  1  0
 15 16  2  0
 16 17  1  0
 17 18  2  0
 18 19  1  0
 19 20  1  0
 20 21  2  0
 20 22  1  0
 22 23  2  0
 23 24  1  0
 24 25  2  0
 25 26  1  0
  8  3  1  0
 18 13  1  0
 26 22  1  0
  1 27  1  0
  1 28  1  0
  1 29  1  0
  4 30  1  0
  5 31  1  0
  6 32  1  0
  7 33  1  0
  9 34  1  0
  9 35  1  0
 10 36  1  0
 14 37  1  0
 15 38  1  0
 16 39  1  0
 17 40  1  0
 23 41  1  0
 24 42  1  0
 25 43  1  0
M  CHG  1  19  -1
M  END
>  <UniqueID>  (90) 
81

>  <SMILES>  (90) 
COc1ccccc1CNC(=O)c1ccccc1[N-]C(=O)c1cccs1

>  <Energy>  (90) 
75.786427375939

>  <Genealogy>  (90) 
COc1ccccc1CNC(=O)c1ccccc1[N-]C(=O)c1cccs1 (protonated)
COc1ccccc1CNC(=O)c1ccccc1[N-]C(=O)c1cccs1 (3D coordinates assigned)
COc1ccccc1CNC(=O)c1ccccc1[N-]C(=O)c1cccs1 (optimized conformer: 75.786427375939 kcal/mol)

>  <smiles>  (90) 
COc1ccccc1CNC(=O)c1ccccc1NC(=O)c1cccs1

>  <score_type>  (90) 
oracle

>  <origin>  (90) 
adg

>  <m_score__min__energy>  (90) 
-10.42

>  <m_primary>  (90) 
energy

$$$$
90:0
     RDKit          3D

 60 64  0  0  0  0  0  0  0  0999 V2000
   52.7595   23.9242   45.3072 H   0  0  0  0  0  0  0  0  0  0  0  0
   53.8200   24.1930   45.1930 C   0  0  0  0  0  0  0  0  0  0  0  0
   54.3170   25.2870   45.8330 N   0  0  0  0  0  0  0  0  0  0  0  0
   55.6250   25.6600   45.7160 C   0  0  0  0  0  0  0  0  0  0  0  0
   56.1030   26.6770   46.3730 N   0  0  0  0  0  0  0  0  0  0  0  0
   57.3910   27.2970   46.2010 C   0  0  0  0  0  0  0  0  0  0  0  0
   58.4340   26.7520   46.6550 O   0  0  0  0  0  0  0  0  0  0  0  0
   57.4930   28.5680   45.4500 C   0  0  0  0  0  0  0  0  0  0  0  0
   57.3350   28.5870   44.0530 C   0  0  0  0  0  0  0  0  0  0  0  0
   57.1884   27.6435   43.5068 H   0  0  0  0  0  0  0  0  0  0  0  0
   57.3630   29.7980   43.3530 C   0  0  0  0  0  0  0  0  0  0  0  0
   57.2342   29.8031   42.2606 H   0  0  0  0  0  0  0  0  0  0  0  0
   57.5540   31.0000   44.0370 C   0  0  0  0  0  0  0  0  0  0  0  0
   57.5666   31.9503   43.4832 H   0  0  0  0  0  0  0  0  0  0  0  0
   57.7300   30.9990   45.4300 C   0  0  0  0  0  0  0  0  0  0  0  0
   57.8490   32.3000   46.1820 C   0  0  0  0  0  0  0  0  0  0  0  0
   57.7143   33.1382   45.4825 H   0  0  0  0  0  0  0  0  0  0  0  0
   57.0754   32.3364   46.9631 H   0  0  0  0  0  0  0  0  0  0  0  0
   59.1700   32.4000   46.8100 N   0  0  0  0  0  0  0  0  0  0  0  0
   59.4680   31.6180   47.9630 C   0  0  0  0  0  0  0  0  0  0  0  0
   59.7370   30.3940   47.8270 O   0  0  0  0  0  0  0  0  0  0  0  0
   59.3370   32.2040   49.3110 C   0  0  0  0  0  0  0  0  0  0  0  0
   58.7980   31.3840   50.3220 C   0  0  0  0  0  0  0  0  0  0  0  0
   58.5758   30.3296   50.1012 H   0  0  0  0  0  0  0  0  0  0  0  0
   58.5410   31.8860   51.5990 C   0  0  0  0  0  0  0  0  0  0  0  0
   57.9790   31.0350   52.5620 O   0  0  0  0  0  0  0  0  0  0  0  0
   56.6480   30.5890   52.5640 C   0  0  0  0  0  0  0  0  0  0  0  0
   56.3670   29.3250   53.1020 C   0  0  0  0  0  0  0  0  0  0  0  0
   57.1776   28.7229   53.5384 H   0  0  0  0  0  0  0  0  0  0  0  0
   55.0610   28.8270   53.0860 C   0  0  0  0  0  0  0  0  0  0  0  0
   54.8447   27.8413   53.5237 H   0  0  0  0  0  0  0  0  0  0  0  0
   54.0300   29.5770   52.5160 C   0  0  0  0  0  0  0  0  0  0  0  0
   53.0035   29.1819   52.5041 H   0  0  0  0  0  0  0  0  0  0  0  0
   54.3030   30.8270   51.9620 C   0  0  0  0  0  0  0  0  0  0  0  0
   53.4922   31.4129   51.5046 H   0  0  0  0  0  0  0  0  0  0  0  0
   55.6040   31.3380   51.9860 C   0  0  0  0  0  0  0  0  0  0  0  0
   55.8131   32.3272   51.5526 H   0  0  0  0  0  0  0  0  0  0  0  0
   58.8780   33.2100   51.8980 C   0  0  0  0  0  0  0  0  0  0  0  0
   58.6948   33.6077   52.9071 H   0  0  0  0  0  0  0  0  0  0  0  0
   59.4450   34.0270   50.9220 C   0  0  0  0  0  0  0  0  0  0  0  0
   59.7174   35.0619   51.1764 H   0  0  0  0  0  0  0  0  0  0  0  0
   59.6760   33.5530   49.6160 C   0  0  0  0  0  0  0  0  0  0  0  0
   60.3400   34.4510   48.6980 N   0  0  0  0  0  0  0  0  0  0  0  0
   60.8130   35.2820   49.1250 H   0  0  0  0  0  0  0  0  0  0  0  0
   60.0910   34.5690   47.2920 C   0  0  0  0  0  0  0  0  0  0  0  0
   59.9350   35.7160   46.7960 O   0  0  0  0  0  0  0  0  0  0  0  0
   60.1420   33.3910   46.3830 C   0  0  0  0  0  0  0  0  0  0  0  0
   61.1496   32.9507   46.4115 H   0  0  0  0  0  0  0  0  0  0  0  0
   59.9078   33.7122   45.3574 H   0  0  0  0  0  0  0  0  0  0  0  0
   57.6990   29.7820   46.1290 C   0  0  0  0  0  0  0  0  0  0  0  0
   57.8374   29.7780   47.2202 H   0  0  0  0  0  0  0  0  0  0  0  0
   56.4870   24.9060   44.9110 C   0  0  0  0  0  0  0  0  0  0  0  0
   57.5426   25.1979   44.8081 H   0  0  0  0  0  0  0  0  0  0  0  0
   56.0000   23.7770   44.2360 C   0  0  0  0  0  0  0  0  0  0  0  0
   56.9280   22.9230   43.4260 C   0  0  0  0  0  0  0  0  0  0  0  0
   57.5674   22.3346   44.1005 H   0  0  0  0  0  0  0  0  0  0  0  0
   56.3406   22.2430   42.7915 H   0  0  0  0  0  0  0  0  0  0  0  0
   57.5570   23.5647   42.7915 H   0  0  0  0  0  0  0  0  0  0  0  0
   54.6540   23.4130   44.3930 C   0  0  0  0  0  0  0  0  0  0  0  0
   54.2596   22.5186   43.8885 H   0  0  0  0  0  0  0  0  0  0  0  0
  1  2  1  0
  2  3  1  0
  3  4  1  0
  4  5  2  0
  5  6  1  0
  6  7  2  0
  6  8  1  0
  8  9  2  0
  9 10  1  0
  9 11  1  0
 11 12  1  0
 11 13  2  0
 13 14  1  0
 13 15  1  0
 15 16  1  0
 16 17  1  0
 16 18  1  0
 16 19  1  0
 19 20  1  0
 20 21  2  0
 20 22  1  0
 22 23  2  0
 23 24  1  0
 23 25  1  0
 25 26  1  0
 26 27  1  0
 27 28  2  0
 28 29  1  0
 28 30  1  0
 30 31  1  0
 30 32  2  0
 32 33  1  0
 32 34  1  0
 34 35  1  0
 34 36  2  0
 36 37  1  0
 25 38  2  0
 38 39  1  0
 38 40  1  0
 40 41  1  0
 40 42  2  0
 42 43  1  0
 43 44  1  0
 43 45  1  0
 45 46  2  0
 45 47  1  0
 47 48  1  0
 47 49  1  0
 15 50  2  0
 50 51  1  0
  4 52  1  0
 52 53  1  0
 52 54  2  0
 54 55  1  0
 55 56  1  0
 55 57  1  0
 55 58  1  0
 54 59  1  0
 59 60  1  0
 59  2  2  0
 50  8  1  0
 47 19  1  0
 42 22  1  0
 36 27  1  0
M  CHG  1   3  -1
M  END
>  <UniqueID>  (91) 
82

>  <SMILES>  (91) 
Cc1cc[n-]/c(=N\C(=O)c2cccc(CN3CC(=O)Nc4ccc(Oc5ccccc5)cc4C3=O)c2)c1

>  <Energy>  (91) 
85.84516605500296

>  <Genealogy>  (91) 
Cc1cc[n-]c(=NC(=O)c2cccc(CN3CC(=O)Nc4ccc(Oc5ccccc5)cc4C3=O)c2)c1 (protonated)
Cc1cc[n-]/c(=N\C(=O)c2cccc(CN3CC(=O)Nc4ccc(Oc5ccccc5)cc4C3=O)c2)c1 (cis-trans isomerization)
Cc1cc[n-]/c(=N\C(=O)c2cccc(CN3CC(=O)Nc4ccc(Oc5ccccc5)cc4C3=O)c2)c1 (3D coordinates assigned)
Cc1cc[n-]/c(=N\C(=O)c2cccc(CN3CC(=O)Nc4ccc(Oc5ccccc5)cc4C3=O)c2)c1 (nonaromatic ring conformer: 85.84516605500296 kcal/mol)

>  <smiles>  (91) 
Cc1cc[nH]c(=NC(=O)c2cccc(CN3CC(=O)Nc4ccc(Oc5ccccc5)cc4C3=O)c2)c1

>  <score_type>  (91) 
oracle

>  <origin>  (91) 
adg

>  <m_score__min__energy>  (91) 
-10.029999999999999

>  <m_primary>  (91) 
energy

$$$$
91:0
     RDKit          3D

 53 54  0  0  0  0  0  0  0  0999 V2000
   60.1200   26.9830   46.4650 C   0  0  0  0  0  0  0  0  0  0  0  0
   58.9920   27.7860   46.7980 O   0  0  0  0  0  0  0  0  0  0  0  0
   58.9760   29.1670   46.5750 C   0  0  0  0  0  0  0  0  0  0  0  0
   59.8100   30.0330   47.3180 C   0  0  0  0  0  0  0  0  0  0  0  0
   60.7910   29.5060   48.3290 C   0  0  0  0  0  0  0  0  0  0  0  0
   59.7060   31.4200   47.1340 C   0  0  0  0  0  0  0  0  0  0  0  0
   58.8170   31.9460   46.1910 C   0  0  0  0  0  0  0  0  0  0  0  0
   58.6500   33.6880   46.0010 S   0  0  0  0  0  0  0  0  0  0  0  0
   58.0060   34.0100   44.6810 O   0  0  0  0  0  0  0  0  0  0  0  0
   57.7960   34.2270   47.1130 O   0  0  0  0  0  0  0  0  0  0  0  0
   60.1910   34.4320   46.0650 O   0  0  0  0  0  0  0  0  0  0  0  0
   61.2280   34.0500   46.9300 C   0  0  0  0  0  0  0  0  0  0  0  0
   62.4040   33.5420   46.3660 C   0  0  0  0  0  0  0  0  0  0  0  0
   63.4740   33.1570   47.1780 C   0  0  0  0  0  0  0  0  0  0  0  0
   63.3780   33.2650   48.5730 C   0  0  0  0  0  0  0  0  0  0  0  0
   64.5400   32.8940   49.4490 C   0  0  0  0  0  0  0  0  0  0  0  0
   62.2080   33.7860   49.1430 C   0  0  0  0  0  0  0  0  0  0  0  0
   61.1360   34.1670   48.3310 C   0  0  0  0  0  0  0  0  0  0  0  0
   58.0440   31.0850   45.4090 C   0  0  0  0  0  0  0  0  0  0  0  0
   58.1240   29.6970   45.5860 C   0  0  0  0  0  0  0  0  0  0  0  0
   57.1250   28.6400   44.5860 S   0  0  0  0  0  0  0  0  0  0  0  0
   56.2940   29.4590   43.6400 O   0  0  0  0  0  0  0  0  0  0  0  0
   58.0070   27.7370   43.7690 O   0  0  0  0  0  0  0  0  0  0  0  0
   56.0660   27.7140   45.6020 N   0  0  0  0  0  0  0  0  0  0  0  0
   56.1700   26.3030   45.8010 C   0  0  0  0  0  0  0  0  0  0  0  0
   55.1650   25.6330   46.1610 O   0  0  0  0  0  0  0  0  0  0  0  0
   57.4290   25.6550   45.5850 N   0  0  0  0  0  0  0  0  0  0  0  0
   57.5920   24.2010   45.6740 C   0  0  0  0  0  0  0  0  0  0  0  0
   59.0760   23.8290   45.6230 C   0  0  0  0  0  0  0  0  0  0  0  0
   56.8300   23.5210   44.5340 C   0  0  0  0  0  0  0  0  0  0  0  0
   60.6080   26.6356   47.3876 H   0  0  0  0  0  0  0  0  0  0  0  0
   59.7908   26.1149   45.8751 H   0  0  0  0  0  0  0  0  0  0  0  0
   60.8325   27.5783   45.8751 H   0  0  0  0  0  0  0  0  0  0  0  0
   60.4160   29.7074   49.3433 H   0  0  0  0  0  0  0  0  0  0  0  0
   60.9122   28.4214   48.1915 H   0  0  0  0  0  0  0  0  0  0  0  0
   61.7622   30.0038   48.1915 H   0  0  0  0  0  0  0  0  0  0  0  0
   60.3282   32.0988   47.7358 H   0  0  0  0  0  0  0  0  0  0  0  0
   62.4866   33.4450   45.2734 H   0  0  0  0  0  0  0  0  0  0  0  0
   64.3957   32.7675   46.7211 H   0  0  0  0  0  0  0  0  0  0  0  0
   64.2474   32.9874   50.5053 H   0  0  0  0  0  0  0  0  0  0  0  0
   64.8387   31.8558   49.2417 H   0  0  0  0  0  0  0  0  0  0  0  0
   65.3850   33.5670   49.2417 H   0  0  0  0  0  0  0  0  0  0  0  0
   62.1332   33.8955   50.2350 H   0  0  0  0  0  0  0  0  0  0  0  0
   60.2159   34.5601   48.7881 H   0  0  0  0  0  0  0  0  0  0  0  0
   57.3667   31.4997   44.6478 H   0  0  0  0  0  0  0  0  0  0  0  0
   58.2520   26.2550   45.3480 H   0  0  0  0  0  0  0  0  0  0  0  0
   57.1801   23.8528   46.6327 H   0  0  0  0  0  0  0  0  0  0  0  0
   59.4650   23.7315   46.6473 H   0  0  0  0  0  0  0  0  0  0  0  0
   59.1963   22.8729   45.0925 H   0  0  0  0  0  0  0  0  0  0  0  0
   59.6331   24.6153   45.0925 H   0  0  0  0  0  0  0  0  0  0  0  0
   56.0711   22.8438   44.9529 H   0  0  0  0  0  0  0  0  0  0  0  0
   56.3376   24.2854   43.9149 H   0  0  0  0  0  0  0  0  0  0  0  0
   57.5336   22.9451   43.9149 H   0  0  0  0  0  0  0  0  0  0  0  0
  1  2  1  0
  2  3  1  0
  3  4  2  0
  4  5  1  0
  4  6  1  0
  6  7  2  0
  7  8  1  0
  8  9  2  0
  8 10  2  0
  8 11  1  0
 11 12  1  0
 12 13  2  0
 13 14  1  0
 14 15  2  0
 15 16  1  0
 15 17  1  0
 17 18  2  0
  7 19  1  0
 19 20  2  0
 20 21  1  0
 21 22  2  0
 21 23  2  0
 21 24  1  0
 24 25  1  0
 25 26  2  0
 25 27  1  0
 27 28  1  0
 28 29  1  0
 28 30  1  0
 20  3  1  0
 18 12  1  0
  1 31  1  0
  1 32  1  0
  1 33  1  0
  5 34  1  0
  5 35  1  0
  5 36  1  0
  6 37  1  0
 13 38  1  0
 14 39  1  0
 16 40  1  0
 16 41  1  0
 16 42  1  0
 17 43  1  0
 18 44  1  0
 19 45  1  0
 27 46  1  0
 28 47  1  0
 29 48  1  0
 29 49  1  0
 29 50  1  0
 30 51  1  0
 30 52  1  0
 30 53  1  0
M  CHG  1  24  -1
M  END
>  <UniqueID>  (92) 
83

>  <SMILES>  (92) 
COc1c(C)cc(S(=O)(=O)Oc2ccc(C)cc2)cc1S(=O)(=O)[N-]C(=O)NC(C)C

>  <Energy>  (92) 
53.06284677932402

>  <Genealogy>  (92) 
COc1c(C)cc(S(=O)(=O)Oc2ccc(C)cc2)cc1S(=O)(=O)[N-]C(=O)NC(C)C (protonated)
COc1c(C)cc(S(=O)(=O)Oc2ccc(C)cc2)cc1S(=O)(=O)[N-]C(=O)NC(C)C (3D coordinates assigned)
COc1c(C)cc(S(=O)(=O)Oc2ccc(C)cc2)cc1S(=O)(=O)[N-]C(=O)NC(C)C (optimized conformer: 53.06284677932402 kcal/mol)

>  <smiles>  (92) 
COc1c(C)cc(S(=O)(=O)Oc2ccc(C)cc2)cc1S(=O)(=O)NC(=O)NC(C)C

>  <score_type>  (92) 
oracle

>  <origin>  (92) 
adg

>  <m_score__min__energy>  (92) 
-10.66

>  <m_primary>  (92) 
energy

$$$$
92:0
     RDKit          3D

 60 63  0  0  0  0  0  0  0  0999 V2000
   54.7180   26.3320   45.9250 N   0  0  0  0  0  0  0  0  0  0  0  0
   56.1790   25.4170   46.0350 S   0  0  0  0  0  0  0  0  0  0  0  0
   56.0490   24.3880   47.1250 O   0  0  0  0  0  0  0  0  0  0  0  0
   56.4240   24.7080   44.7300 O   0  0  0  0  0  0  0  0  0  0  0  0
   57.5350   26.4910   46.3880 C   0  0  0  0  0  0  0  0  0  0  0  0
   57.8730   27.5260   45.4980 C   0  0  0  0  0  0  0  0  0  0  0  0
   58.9670   28.3500   45.7820 C   0  0  0  0  0  0  0  0  0  0  0  0
   59.7400   28.1500   46.9360 C   0  0  0  0  0  0  0  0  0  0  0  0
   60.8750   28.9730   47.2320 N   0  0  0  0  0  0  0  0  0  0  0  0
   60.8500   30.4060   47.3350 C   0  0  0  0  0  0  0  0  0  0  0  0
   60.0370   31.0480   46.6180 O   0  0  0  0  0  0  0  0  0  0  0  0
   61.7900   31.1510   48.2110 C   0  0  0  0  0  0  0  0  0  0  0  0
   62.4020   32.3110   47.6950 C   0  0  0  0  0  0  0  0  0  0  0  0
   63.3880   32.9760   48.4250 C   0  0  0  0  0  0  0  0  0  0  0  0
   63.7610   32.5070   49.6870 C   0  0  0  0  0  0  0  0  0  0  0  0
   63.1340   31.3800   50.2310 C   0  0  0  0  0  0  0  0  0  0  0  0
   62.1310   30.7090   49.5160 C   0  0  0  0  0  0  0  0  0  0  0  0
   61.3210   29.2980   50.3010 S   0  0  0  0  0  0  0  0  0  0  0  0
   61.4690   29.9160   52.0160 C   0  0  0  0  0  0  0  0  0  0  0  0
   60.2220   30.6080   52.5070 C   0  0  0  0  0  0  0  0  0  0  0  0
   59.4970   30.0500   53.3710 O   0  0  0  0  0  0  0  0  0  0  0  0
   59.9350   31.9620   52.1470 N   0  0  0  0  0  0  0  0  0  0  0  0
   59.6230   32.4280   50.8270 C   0  0  0  0  0  0  0  0  0  0  0  0
   60.2450   33.5750   50.3080 C   0  0  0  0  0  0  0  0  0  0  0  0
   59.9360   34.0270   49.0210 C   0  0  0  0  0  0  0  0  0  0  0  0
   59.0290   33.3150   48.2230 C   0  0  0  0  0  0  0  0  0  0  0  0
   58.6750   33.8070   46.9200 N   0  0  0  0  0  0  0  0  0  0  0  0
   59.3900   34.9730   46.3950 C   0  0  0  0  0  0  0  0  0  0  0  0
   59.2200   35.0560   44.8730 C   0  0  0  0  0  0  0  0  0  0  0  0
   57.8510   34.9900   44.5190 O   0  0  0  0  0  0  0  0  0  0  0  0
   57.3350   33.7160   44.8630 C   0  0  0  0  0  0  0  0  0  0  0  0
   57.3430   33.5130   46.3860 C   0  0  0  0  0  0  0  0  0  0  0  0
   58.4440   32.1420   48.7210 C   0  0  0  0  0  0  0  0  0  0  0  0
   58.7390   31.6920   50.0150 C   0  0  0  0  0  0  0  0  0  0  0  0
   58.1290   30.5220   50.4760 O   0  0  0  0  0  0  0  0  0  0  0  0
   59.3730   27.1450   47.8370 C   0  0  0  0  0  0  0  0  0  0  0  0
   58.2820   26.3110   47.5660 C   0  0  0  0  0  0  0  0  0  0  0  0
   54.7750   27.0930   46.6370 H   0  0  0  0  0  0  0  0  0  0  0  0
   57.2811   27.6865   44.5848 H   0  0  0  0  0  0  0  0  0  0  0  0
   59.2250   29.1662   45.0911 H   0  0  0  0  0  0  0  0  0  0  0  0
   62.1001   32.6951   46.7094 H   0  0  0  0  0  0  0  0  0  0  0  0
   63.8721   33.8706   48.0063 H   0  0  0  0  0  0  0  0  0  0  0  0
   64.5488   33.0243   50.2542 H   0  0  0  0  0  0  0  0  0  0  0  0
   63.4300   31.0178   51.2266 H   0  0  0  0  0  0  0  0  0  0  0  0
   61.6795   29.0632   52.6781 H   0  0  0  0  0  0  0  0  0  0  0  0
   62.2811   30.6579   52.0276 H   0  0  0  0  0  0  0  0  0  0  0  0
   60.9798   34.1214   50.9174 H   0  0  0  0  0  0  0  0  0  0  0  0
   60.4056   34.9433   48.6338 H   0  0  0  0  0  0  0  0  0  0  0  0
   58.9851   35.8858   46.8564 H   0  0  0  0  0  0  0  0  0  0  0  0
   60.4596   34.8756   46.6324 H   0  0  0  0  0  0  0  0  0  0  0  0
   59.6406   36.0068   44.5138 H   0  0  0  0  0  0  0  0  0  0  0  0
   59.7464   34.2077   44.4112 H   0  0  0  0  0  0  0  0  0  0  0  0
   56.3018   33.6346   44.4944 H   0  0  0  0  0  0  0  0  0  0  0  0
   57.9696   32.9443   44.4027 H   0  0  0  0  0  0  0  0  0  0  0  0
   56.6075   34.1879   46.8480 H   0  0  0  0  0  0  0  0  0  0  0  0
   57.0832   32.4687   46.6141 H   0  0  0  0  0  0  0  0  0  0  0  0
   57.7474   31.5700   48.0905 H   0  0  0  0  0  0  0  0  0  0  0  0
   58.3450   30.1160   51.3810 H   0  0  0  0  0  0  0  0  0  0  0  0
   59.9463   27.0090   48.7659 H   0  0  0  0  0  0  0  0  0  0  0  0
   58.0089   25.5149   48.2743 H   0  0  0  0  0  0  0  0  0  0  0  0
  1  2  1  0
  2  3  2  0
  2  4  2  0
  2  5  1  0
  5  6  2  0
  6  7  1  0
  7  8  2  0
  8  9  1  0
  9 10  1  0
 10 11  2  0
 10 12  1  0
 12 13  2  0
 13 14  1  0
 14 15  2  0
 15 16  1  0
 16 17  2  0
 17 18  1  0
 18 19  1  0
 19 20  1  0
 20 21  2  0
 20 22  1  0
 22 23  1  0
 23 24  2  0
 24 25  1  0
 25 26  2  0
 26 27  1  0
 27 28  1  0
 28 29  1  0
 29 30  1  0
 30 31  1  0
 31 32  1  0
 26 33  1  0
 33 34  2  0
 34 35  1  0
  8 36  1  0
 36 37  2  0
 37  5  1  0
 17 12  1  0
 34 23  1  0
 32 27  1  0
  1 38  1  0
  6 39  1  0
  7 40  1  0
 13 41  1  0
 14 42  1  0
 15 43  1  0
 16 44  1  0
 19 45  1  0
 19 46  1  0
 24 47  1  0
 25 48  1  0
 28 49  1  0
 28 50  1  0
 29 51  1  0
 29 52  1  0
 31 53  1  0
 31 54  1  0
 32 55  1  0
 32 56  1  0
 33 57  1  0
 35 58  1  0
 36 59  1  0
 37 60  1  0
M  CHG  3   1  -1   9  -1  22  -1
M  END
>  <UniqueID>  (93) 
84

>  <SMILES>  (93) 
[NH-]S(=O)(=O)c1ccc([N-]C(=O)c2ccccc2SCC(=O)[N-]c2ccc(N3CCOCC3)cc2O)cc1

>  <Energy>  (93) 
81.61540370212066

>  <Genealogy>  (93) 
[NH-]S(=O)(=O)c1ccc([N-]C(=O)c2ccccc2SCC(=O)[N-]c2ccc(N3CCOCC3)cc2O)cc1 (protonated)
[NH-]S(=O)(=O)c1ccc([N-]C(=O)c2ccccc2SCC(=O)[N-]c2ccc(N3CCOCC3)cc2O)cc1 (3D coordinates assigned)
[NH-]S(=O)(=O)c1ccc([N-]C(=O)c2ccccc2SCC(=O)[N-]c2ccc(N3CCOCC3)cc2O)cc1 (nonaromatic ring conformer: 81.61540370212066 kcal/mol)

>  <smiles>  (93) 
NS(=O)(=O)c1ccc(NC(=O)c2ccccc2SCC(=O)Nc2ccc(N3CCOCC3)cc2O)cc1

>  <score_type>  (93) 
oracle

>  <origin>  (93) 
adg

>  <m_score__min__energy>  (93) 
-13.35

>  <m_primary>  (93) 
energy

$$$$
93:0
     RDKit          3D

 41 42  0  0  0  0  0  0  0  0999 V2000
   59.6710   34.5780   48.4910 C   0  0  0  0  0  0  0  0  0  0  0  0
   60.3770   34.4530   47.1420 C   0  0  0  0  0  0  0  0  0  0  0  0
   59.4460   34.7640   45.9610 C   0  0  0  0  0  0  0  0  0  0  0  0
   58.7480   33.5290   45.4510 C   0  0  0  0  0  0  0  0  0  0  0  0
   58.3690   33.4310   44.1020 C   0  0  0  0  0  0  0  0  0  0  0  0
   57.7020   32.2930   43.6390 C   0  0  0  0  0  0  0  0  0  0  0  0
   57.3980   31.2460   44.5180 C   0  0  0  0  0  0  0  0  0  0  0  0
   56.5850   29.8040   43.9120 S   0  0  0  0  0  0  0  0  0  0  0  0
   55.5300   29.3540   44.8840 O   0  0  0  0  0  0  0  0  0  0  0  0
   55.9200   30.1310   42.6050 O   0  0  0  0  0  0  0  0  0  0  0  0
   57.7350   28.5270   43.6650 N   0  0  0  0  0  0  0  0  0  0  0  0
   58.7280   28.5400   44.7450 C   0  0  0  0  0  0  0  0  0  0  0  0
   58.9650   27.1240   45.2820 C   0  0  0  0  0  0  0  0  0  0  0  0
   57.6870   26.3300   45.3460 C   0  0  0  0  0  0  0  0  0  0  0  0
   57.5190   25.1730   44.5710 C   0  0  0  0  0  0  0  0  0  0  0  0
   56.3390   24.4330   44.6650 C   0  0  0  0  0  0  0  0  0  0  0  0
   55.3360   24.8540   45.5410 C   0  0  0  0  0  0  0  0  0  0  0  0
   55.5150   25.9720   46.2930 N   0  0  0  0  0  0  0  0  0  0  0  0
   56.6550   26.7110   46.2180 C   0  0  0  0  0  0  0  0  0  0  0  0
   57.7740   31.3410   45.8650 C   0  0  0  0  0  0  0  0  0  0  0  0
   58.4410   32.4780   46.3290 C   0  0  0  0  0  0  0  0  0  0  0  0
   60.4033   34.4483   49.3015 H   0  0  0  0  0  0  0  0  0  0  0  0
   59.2073   35.5722   48.5714 H   0  0  0  0  0  0  0  0  0  0  0  0
   58.8941   33.8034   48.5714 H   0  0  0  0  0  0  0  0  0  0  0  0
   61.2225   35.1563   47.1196 H   0  0  0  0  0  0  0  0  0  0  0  0
   60.7150   33.4115   47.0364 H   0  0  0  0  0  0  0  0  0  0  0  0
   58.6879   35.4907   46.2884 H   0  0  0  0  0  0  0  0  0  0  0  0
   60.0593   35.1697   45.1429 H   0  0  0  0  0  0  0  0  0  0  0  0
   58.5979   34.2527   43.4074 H   0  0  0  0  0  0  0  0  0  0  0  0
   57.4147   32.2196   42.5797 H   0  0  0  0  0  0  0  0  0  0  0  0
   58.2250   28.7440   42.7660 H   0  0  0  0  0  0  0  0  0  0  0  0
   59.6759   28.9428   44.3588 H   0  0  0  0  0  0  0  0  0  0  0  0
   58.3505   29.1697   45.5641 H   0  0  0  0  0  0  0  0  0  0  0  0
   59.6736   26.6057   44.6193 H   0  0  0  0  0  0  0  0  0  0  0  0
   59.3675   27.2077   46.3023 H   0  0  0  0  0  0  0  0  0  0  0  0
   58.3181   24.8483   43.8883 H   0  0  0  0  0  0  0  0  0  0  0  0
   56.2006   23.5278   44.0555 H   0  0  0  0  0  0  0  0  0  0  0  0
   54.4008   24.2806   45.6224 H   0  0  0  0  0  0  0  0  0  0  0  0
   56.7683   27.6095   46.8424 H   0  0  0  0  0  0  0  0  0  0  0  0
   57.5435   30.5187   46.5584 H   0  0  0  0  0  0  0  0  0  0  0  0
   58.7271   32.5497   47.3887 H   0  0  0  0  0  0  0  0  0  0  0  0
  1  2  1  0
  2  3  1  0
  3  4  1  0
  4  5  2  0
  5  6  1  0
  6  7  2  0
  7  8  1  0
  8  9  2  0
  8 10  2  0
  8 11  1  0
 11 12  1  0
 12 13  1  0
 13 14  1  0
 14 15  2  0
 15 16  1  0
 16 17  2  0
 17 18  1  0
 18 19  2  0
  7 20  1  0
 20 21  2  0
 21  4  1  0
 19 14  1  0
  1 22  1  0
  1 23  1  0
  1 24  1  0
  2 25  1  0
  2 26  1  0
  3 27  1  0
  3 28  1  0
  5 29  1  0
  6 30  1  0
 11 31  1  0
 12 32  1  0
 12 33  1  0
 13 34  1  0
 13 35  1  0
 15 36  1  0
 16 37  1  0
 17 38  1  0
 19 39  1  0
 20 40  1  0
 21 41  1  0
M  END
>  <UniqueID>  (94) 
85

>  <SMILES>  (94) 
CCCc1ccc(S(=O)(=O)NCCc2cccnc2)cc1

>  <Energy>  (94) 
31.59138440569922

>  <Genealogy>  (94) 
CCCc1ccc(S(=O)(=O)NCCc2cccnc2)cc1 (3D coordinates assigned)
CCCc1ccc(S(=O)(=O)NCCc2cccnc2)cc1 (optimized conformer: 31.59138440569922 kcal/mol)

>  <smiles>  (94) 
CCCc1ccc(S(=O)(=O)NCCc2cccnc2)cc1

>  <score_type>  (94) 
oracle

>  <origin>  (94) 
adg

>  <m_score__min__energy>  (94) 
-8.6099999999999994

>  <m_primary>  (94) 
energy

$$$$
94:0
     RDKit          3D

 64 67  0  0  0  0  0  0  0  0999 V2000
   54.8200   25.9210   45.6370 N   0  0  0  0  0  0  0  0  0  0  0  0
   54.7680   24.2410   46.0370 S   0  0  0  0  0  0  0  0  0  0  0  0
   53.3940   23.7220   45.7150 O   0  0  0  0  0  0  0  0  0  0  0  0
   55.0330   24.0790   47.5070 O   0  0  0  0  0  0  0  0  0  0  0  0
   55.9890   23.3500   45.1110 C   0  0  0  0  0  0  0  0  0  0  0  0
   55.6970   22.0390   44.7030 C   0  0  0  0  0  0  0  0  0  0  0  0
   56.6510   21.2780   44.0260 C   0  0  0  0  0  0  0  0  0  0  0  0
   57.9050   21.8190   43.7380 C   0  0  0  0  0  0  0  0  0  0  0  0
   58.2070   23.1260   44.1200 C   0  0  0  0  0  0  0  0  0  0  0  0
   57.2560   23.9090   44.7950 C   0  0  0  0  0  0  0  0  0  0  0  0
   57.6190   25.2940   45.1570 C   0  0  0  0  0  0  0  0  0  0  0  0
   57.7660   26.2660   44.1570 C   0  0  0  0  0  0  0  0  0  0  0  0
   58.1200   27.5770   44.4930 C   0  0  0  0  0  0  0  0  0  0  0  0
   58.3190   27.9410   45.8380 C   0  0  0  0  0  0  0  0  0  0  0  0
   58.7230   29.3240   46.1950 C   0  0  0  0  0  0  0  0  0  0  0  0
   59.0710   29.5880   47.3790 O   0  0  0  0  0  0  0  0  0  0  0  0
   58.7820   30.3360   45.1790 N   0  0  0  0  0  0  0  0  0  0  0  0
   58.5080   31.7380   45.3270 C   0  0  0  0  0  0  0  0  0  0  0  0
   57.4320   32.3700   44.6790 C   0  0  0  0  0  0  0  0  0  0  0  0
   57.2030   33.7350   44.8670 C   0  0  0  0  0  0  0  0  0  0  0  0
   58.0450   34.4830   45.6930 C   0  0  0  0  0  0  0  0  0  0  0  0
   59.1360   33.8720   46.3300 C   0  0  0  0  0  0  0  0  0  0  0  0
   60.0620   34.6820   47.1970 C   0  0  0  0  0  0  0  0  0  0  0  0
   60.5500   33.8740   48.3230 N   0  0  0  0  0  0  0  0  0  0  0  0
   61.9610   33.4640   48.3540 C   0  0  0  0  0  0  0  0  0  0  0  0
   62.1180   32.0930   47.7660 C   0  0  0  0  0  0  0  0  0  0  0  0
   61.0660   31.1320   47.8730 N   0  0  0  0  0  0  0  0  0  0  0  0
   63.1930   31.7790   47.1870 O   0  0  0  0  0  0  0  0  0  0  0  0
   59.6710   33.5140   49.4120 C   0  0  0  0  0  0  0  0  0  0  0  0
   59.7030   34.1750   50.4880 O   0  0  0  0  0  0  0  0  0  0  0  0
   58.8220   32.3640   49.2980 N   0  0  0  0  0  0  0  0  0  0  0  0
   58.4070   31.4760   50.3470 C   0  0  0  0  0  0  0  0  0  0  0  0
   57.4060   31.9070   51.2290 C   0  0  0  0  0  0  0  0  0  0  0  0
   56.9840   31.0860   52.2790 C   0  0  0  0  0  0  0  0  0  0  0  0
   57.5660   29.8310   52.4640 C   0  0  0  0  0  0  0  0  0  0  0  0
   58.5820   29.4000   51.6060 C   0  0  0  0  0  0  0  0  0  0  0  0
   59.0090   30.2200   50.5550 C   0  0  0  0  0  0  0  0  0  0  0  0
   59.3730   32.5030   46.1240 C   0  0  0  0  0  0  0  0  0  0  0  0
   58.1420   26.9670   46.8380 C   0  0  0  0  0  0  0  0  0  0  0  0
   57.7930   25.6560   46.5000 C   0  0  0  0  0  0  0  0  0  0  0  0
   53.8860   26.3230   45.8770 H   0  0  0  0  0  0  0  0  0  0  0  0
   54.7082   21.6080   44.9187 H   0  0  0  0  0  0  0  0  0  0  0  0
   56.4140   20.2488   43.7185 H   0  0  0  0  0  0  0  0  0  0  0  0
   58.6560   21.2138   43.2091 H   0  0  0  0  0  0  0  0  0  0  0  0
   59.1972   23.5467   43.8910 H   0  0  0  0  0  0  0  0  0  0  0  0
   57.6022   25.9963   43.1032 H   0  0  0  0  0  0  0  0  0  0  0  0
   58.2438   28.3292   43.7000 H   0  0  0  0  0  0  0  0  0  0  0  0
   56.7688   31.7879   44.0223 H   0  0  0  0  0  0  0  0  0  0  0  0
   56.3560   34.2229   44.3624 H   0  0  0  0  0  0  0  0  0  0  0  0
   57.8522   35.5553   45.8448 H   0  0  0  0  0  0  0  0  0  0  0  0
   60.9188   35.0194   46.5953 H   0  0  0  0  0  0  0  0  0  0  0  0
   59.5121   35.5486   47.5927 H   0  0  0  0  0  0  0  0  0  0  0  0
   62.5596   34.1795   47.7712 H   0  0  0  0  0  0  0  0  0  0  0  0
   62.3057   33.4469   49.3985 H   0  0  0  0  0  0  0  0  0  0  0  0
   60.1850   31.3560   48.3900 H   0  0  0  0  0  0  0  0  0  0  0  0
   61.1760   30.1810   47.4550 H   0  0  0  0  0  0  0  0  0  0  0  0
   56.9492   32.8985   51.0939 H   0  0  0  0  0  0  0  0  0  0  0  0
   56.1919   31.4297   52.9605 H   0  0  0  0  0  0  0  0  0  0  0  0
   57.2256   29.1817   53.2841 H   0  0  0  0  0  0  0  0  0  0  0  0
   59.0468   28.4145   51.7571 H   0  0  0  0  0  0  0  0  0  0  0  0
   59.8172   29.8823   49.8896 H   0  0  0  0  0  0  0  0  0  0  0  0
   60.2462   32.0254   46.5925 H   0  0  0  0  0  0  0  0  0  0  0  0
   58.2794   27.2394   47.8948 H   0  0  0  0  0  0  0  0  0  0  0  0
   57.6543   24.9050   47.2917 H   0  0  0  0  0  0  0  0  0  0  0  0
  1  2  1  0
  2  3  2  0
  2  4  2  0
  2  5  1  0
  5  6  2  0
  6  7  1  0
  7  8  2  0
  8  9  1  0
  9 10  2  0
 10 11  1  0
 11 12  2  0
 12 13  1  0
 13 14  2  0
 14 15  1  0
 15 16  2  0
 15 17  1  0
 17 18  1  0
 18 19  2  0
 19 20  1  0
 20 21  2  0
 21 22  1  0
 22 23  1  0
 23 24  1  0
 24 25  1  0
 25 26  1  0
 26 27  1  0
 26 28  2  0
 24 29  1  0
 29 30  2  0
 29 31  1  0
 31 32  1  0
 32 33  2  0
 33 34  1  0
 34 35  2  0
 35 36  1  0
 36 37  2  0
 22 38  2  0
 14 39  1  0
 39 40  2  0
 10  5  1  0
 40 11  1  0
 38 18  1  0
 37 32  1  0
  1 41  1  0
  6 42  1  0
  7 43  1  0
  8 44  1  0
  9 45  1  0
 12 46  1  0
 13 47  1  0
 19 48  1  0
 20 49  1  0
 21 50  1  0
 23 51  1  0
 23 52  1  0
 25 53  1  0
 25 54  1  0
 27 55  1  0
 27 56  1  0
 33 57  1  0
 34 58  1  0
 35 59  1  0
 36 60  1  0
 37 61  1  0
 38 62  1  0
 39 63  1  0
 40 64  1  0
M  CHG  3   1  -1  17  -1  31  -1
M  END
>  <UniqueID>  (95) 
86

>  <SMILES>  (95) 
[NH-]S(=O)(=O)c1ccccc1-c1ccc(C(=O)[N-]c2cccc(CN(CC(N)=O)C(=O)[N-]c3ccccc3)c2)cc1

>  <Energy>  (95) 
80.52370691903604

>  <Genealogy>  (95) 
[NH-]S(=O)(=O)c1ccccc1-c1ccc(C(=O)[N-]c2cccc(CN(CC(N)=O)C(=O)[N-]c3ccccc3)c2)cc1 (protonated)
[NH-]S(=O)(=O)c1ccccc1-c1ccc(C(=O)[N-]c2cccc(CN(CC(N)=O)C(=O)[N-]c3ccccc3)c2)cc1 (3D coordinates assigned)
[NH-]S(=O)(=O)c1ccccc1-c1ccc(C(=O)[N-]c2cccc(CN(CC(N)=O)C(=O)[N-]c3ccccc3)c2)cc1 (optimized conformer: 80.52370691903604 kcal/mol)

>  <smiles>  (95) 
NC(=O)CN(Cc1cccc(NC(=O)c2ccc(-c3ccccc3S(N)(=O)=O)cc2)c1)C(=O)Nc1ccccc1

>  <score_type>  (95) 
oracle

>  <origin>  (95) 
adg

>  <m_score__min__energy>  (95) 
-15.18

>  <m_primary>  (95) 
energy

$$$$
95:0
     RDKit          3D

 57 59  0  0  0  0  0  0  0  0999 V2000
   57.4150   33.8680   45.5720 C   0  0  0  0  0  0  0  0  0  0  0  0
   58.7500   34.6030   45.6230 C   0  0  0  0  0  0  0  0  0  0  0  0
   59.6670   33.9720   46.6360 C   0  0  0  0  0  0  0  0  0  0  0  0
   61.0240   33.7910   46.3430 C   0  0  0  0  0  0  0  0  0  0  0  0
   61.8680   33.1720   47.2670 C   0  0  0  0  0  0  0  0  0  0  0  0
   61.3660   32.7040   48.4940 C   0  0  0  0  0  0  0  0  0  0  0  0
   62.2000   32.0490   49.4130 O   0  0  0  0  0  0  0  0  0  0  0  0
   63.2660   32.6410   50.1020 C   0  0  0  0  0  0  0  0  0  0  0  0
   64.5490   32.4620   49.6900 N   0  0  0  0  0  0  0  0  0  0  0  0
   65.5920   33.0160   50.3620 C   0  0  0  0  0  0  0  0  0  0  0  0
   66.9060   32.8320   49.9220 O   0  0  0  0  0  0  0  0  0  0  0  0
   68.0060   33.5470   50.4700 C   0  0  0  0  0  0  0  0  0  0  0  0
   65.3480   33.7770   51.5040 C   0  0  0  0  0  0  0  0  0  0  0  0
   64.0220   33.9490   51.9320 C   0  0  0  0  0  0  0  0  0  0  0  0
   63.6960   34.6970   53.0740 O   0  0  0  0  0  0  0  0  0  0  0  0
   64.4350   34.6710   54.2920 C   0  0  0  0  0  0  0  0  0  0  0  0
   63.0130   33.3730   51.2200 N   0  0  0  0  0  0  0  0  0  0  0  0
   60.0040   32.9120   48.8090 C   0  0  0  0  0  0  0  0  0  0  0  0
   59.4270   32.4760   50.1040 C   0  0  0  0  0  0  0  0  0  0  0  0
   60.0170   32.7790   51.1760 O   0  0  0  0  0  0  0  0  0  0  0  0
   58.1600   31.6680   50.1750 C   0  0  0  0  0  0  0  0  0  0  0  0
   57.4840   31.8990   51.4110 O   0  0  0  0  0  0  0  0  0  0  0  0
   56.5460   31.0300   51.9940 C   0  0  0  0  0  0  0  0  0  0  0  0
   56.9120   30.0170   52.9020 C   0  0  0  0  0  0  0  0  0  0  0  0
   55.9380   29.1770   53.4460 C   0  0  0  0  0  0  0  0  0  0  0  0
   54.5950   29.3400   53.1010 C   0  0  0  0  0  0  0  0  0  0  0  0
   54.2140   30.3620   52.2130 C   0  0  0  0  0  0  0  0  0  0  0  0
   52.8480   30.5360   51.8100 N   0  0  0  0  0  0  0  0  0  0  0  0
   51.8780   31.3810   52.4440 C   0  0  0  0  0  0  0  0  0  0  0  0
   51.6770   31.2510   53.6800 O   0  0  0  0  0  0  0  0  0  0  0  0
   51.0590   32.3400   51.6830 C   0  0  0  0  0  0  0  0  0  0  0  0
   50.0780   32.9170   52.2220 O   0  0  0  0  0  0  0  0  0  0  0  0
   51.3920   32.6460   50.3690 O   0  0  0  0  0  0  0  0  0  0  0  0
   55.1970   31.1840   51.6500 C   0  0  0  0  0  0  0  0  0  0  0  0
   59.1620   33.5220   47.8640 C   0  0  0  0  0  0  0  0  0  0  0  0
   57.0636   33.6745   46.5962 H   0  0  0  0  0  0  0  0  0  0  0  0
   56.6760   34.4864   45.0415 H   0  0  0  0  0  0  0  0  0  0  0  0
   57.5423   32.9128   45.0415 H   0  0  0  0  0  0  0  0  0  0  0  0
   59.2238   34.5602   44.6312 H   0  0  0  0  0  0  0  0  0  0  0  0
   58.5672   35.6479   45.9142 H   0  0  0  0  0  0  0  0  0  0  0  0
   61.4271   34.1381   45.3802 H   0  0  0  0  0  0  0  0  0  0  0  0
   62.9357   33.0493   47.0328 H   0  0  0  0  0  0  0  0  0  0  0  0
   67.9545   33.5135   51.5683 H   0  0  0  0  0  0  0  0  0  0  0  0
   68.9467   33.0873   50.1328 H   0  0  0  0  0  0  0  0  0  0  0  0
   67.9678   34.5934   50.1328 H   0  0  0  0  0  0  0  0  0  0  0  0
   66.1795   34.2346   52.0600 H   0  0  0  0  0  0  0  0  0  0  0  0
   63.7392   34.6955   55.1436 H   0  0  0  0  0  0  0  0  0  0  0  0
   65.0366   33.7511   54.3363 H   0  0  0  0  0  0  0  0  0  0  0  0
   65.0997   35.5463   54.3363 H   0  0  0  0  0  0  0  0  0  0  0  0
   62.0260   33.4970   51.5380 H   0  0  0  0  0  0  0  0  0  0  0  0
   57.5005   31.9563   49.3431 H   0  0  0  0  0  0  0  0  0  0  0  0
   58.4164   30.6005   50.1057 H   0  0  0  0  0  0  0  0  0  0  0  0
   57.9675   29.8874   53.1832 H   0  0  0  0  0  0  0  0  0  0  0  0
   56.2302   28.3834   54.1494 H   0  0  0  0  0  0  0  0  0  0  0  0
   53.8338   28.6682   53.5243 H   0  0  0  0  0  0  0  0  0  0  0  0
   54.9063   31.9612   50.9279 H   0  0  0  0  0  0  0  0  0  0  0  0
   58.0930   33.6481   48.0905 H   0  0  0  0  0  0  0  0  0  0  0  0
  1  2  1  0
  2  3  1  0
  3  4  2  0
  4  5  1  0
  5  6  2  0
  6  7  1  0
  7  8  1  0
  8  9  2  0
  9 10  1  0
 10 11  1  0
 11 12  1  0
 10 13  2  0
 13 14  1  0
 14 15  1  0
 15 16  1  0
 14 17  2  0
  6 18  1  0
 18 19  1  0
 19 20  2  0
 19 21  1  0
 21 22  1  0
 22 23  1  0
 23 24  2  0
 24 25  1  0
 25 26  2  0
 26 27  1  0
 27 28  1  0
 28 29  1  0
 29 30  2  0
 29 31  1  0
 31 32  2  0
 31 33  1  0
 27 34  2  0
 18 35  2  0
 35  3  1  0
 17  8  1  0
 34 23  1  0
  1 36  1  0
  1 37  1  0
  1 38  1  0
  2 39  1  0
  2 40  1  0
  4 41  1  0
  5 42  1  0
 12 43  1  0
 12 44  1  0
 12 45  1  0
 13 46  1  0
 16 47  1  0
 16 48  1  0
 16 49  1  0
 17 50  1  0
 21 51  1  0
 21 52  1  0
 24 53  1  0
 25 54  1  0
 26 55  1  0
 34 56  1  0
 35 57  1  0
M  CHG  3  17   1  28  -1  33  -1
M  END
>  <UniqueID>  (96) 
87

>  <SMILES>  (96) 
CCc1ccc(Oc2nc(OC)cc(OC)[nH+]2)c(C(=O)COc2cccc([N-]C(=O)C(=O)[O-])c2)c1

>  <Energy>  (96) 
66.06520277654612

>  <Genealogy>  (96) 
CCc1ccc(Oc2nc(OC)cc(OC)[nH+]2)c(C(=O)COc2cccc([N-]C(=O)C(=O)[O-])c2)c1 (protonated)
CCc1ccc(Oc2nc(OC)cc(OC)[nH+]2)c(C(=O)COc2cccc([N-]C(=O)C(=O)[O-])c2)c1 (3D coordinates assigned)
CCc1ccc(Oc2nc(OC)cc(OC)[nH+]2)c(C(=O)COc2cccc([N-]C(=O)C(=O)[O-])c2)c1 (optimized conformer: 66.06520277654612 kcal/mol)

>  <smiles>  (96) 
CCc1ccc(Oc2nc(OC)cc(OC)n2)c(C(=O)COc2cccc(NC(=O)C(=O)O)c2)c1

>  <score_type>  (96) 
oracle

>  <origin>  (96) 
adg

>  <m_score__min__energy>  (96) 
-11.859999999999999

>  <m_primary>  (96) 
energy

$$$$
96:0
     RDKit          3D

 72 77  0  0  0  0  0  0  0  0999 V2000
   58.8730   32.8370   47.2210 O   0  0  0  0  0  0  0  0  0  0  0  0
   58.4840   31.6370   47.1830 C   0  0  0  0  0  0  0  0  0  0  0  0
   57.4880   31.2520   46.2750 O   0  0  0  0  0  0  0  0  0  0  0  0
   57.5520   31.4820   44.8970 C   0  0  0  0  0  0  0  0  0  0  0  0
   58.4140   32.4800   44.4250 C   0  0  0  0  0  0  0  0  0  0  0  0
   58.5120   32.7400   43.0550 C   0  0  0  0  0  0  0  0  0  0  0  0
   57.7620   31.9900   42.1460 C   0  0  0  0  0  0  0  0  0  0  0  0
   56.9190   30.9740   42.6050 C   0  0  0  0  0  0  0  0  0  0  0  0
   56.8140   30.7100   43.9770 C   0  0  0  0  0  0  0  0  0  0  0  0
   55.8300   29.3490   44.5000 Cl  0  0  0  0  0  0  0  0  0  0  0  0
   59.1160   30.6220   48.0620 C   0  0  0  0  0  0  0  0  0  0  0  0
   58.5460   30.3340   49.3160 C   0  0  0  0  0  0  0  0  0  0  0  0
   59.1390   29.4000   50.1780 C   0  0  0  0  0  0  0  0  0  0  0  0
   58.5920   29.1160   51.4340 O   0  0  0  0  0  0  0  0  0  0  0  0
   58.0970   30.1220   52.3190 C   0  0  0  0  0  0  0  0  0  0  0  0
   58.8190   31.4280   52.1250 C   0  0  0  0  0  0  0  0  0  0  0  0
   58.1140   32.6400   52.1520 C   0  0  0  0  0  0  0  0  0  0  0  0
   58.7820   33.8450   51.9240 C   0  0  0  0  0  0  0  0  0  0  0  0
   60.1560   33.8490   51.6650 C   0  0  0  0  0  0  0  0  0  0  0  0
   60.8780   32.6450   51.6400 C   0  0  0  0  0  0  0  0  0  0  0  0
   62.2920   32.6400   51.3540 N   0  0  0  0  0  0  0  0  0  0  0  0
   63.2600   33.2040   52.2290 C   0  0  0  0  0  0  0  0  0  0  0  0
   62.9450   34.0140   53.1440 O   0  0  0  0  0  0  0  0  0  0  0  0
   64.6690   32.8430   51.9650 C   0  0  0  0  0  0  0  0  0  0  0  0
   64.6480   31.5640   50.6670 S   0  0  0  0  0  0  0  0  0  0  0  0
   62.8740   31.8280   50.2880 C   0  0  2  0  0  0  0  0  0  0  0  0
   62.7440   32.5040   48.9440 C   0  0  0  0  0  0  0  0  0  0  0  0
   63.7920   32.4210   48.0120 C   0  0  0  0  0  0  0  0  0  0  0  0
   63.6830   33.0490   46.7670 C   0  0  0  0  0  0  0  0  0  0  0  0
   62.5310   33.7730   46.4450 C   0  0  0  0  0  0  0  0  0  0  0  0
   61.4890   33.8730   47.3690 C   0  0  0  0  0  0  0  0  0  0  0  0
   61.5940   33.2460   48.6150 C   0  0  0  0  0  0  0  0  0  0  0  0
   60.2000   31.4350   51.8710 C   0  0  0  0  0  0  0  0  0  0  0  0
   60.3220   28.7650   49.7940 C   0  0  0  0  0  0  0  0  0  0  0  0
   60.8900   29.0220   48.5440 C   0  0  0  0  0  0  0  0  0  0  0  0
   60.2900   29.9410   47.6630 C   0  0  0  0  0  0  0  0  0  0  0  0
   60.8210   30.1920   46.3880 O   0  0  0  0  0  0  0  0  0  0  0  0
   60.8000   29.2890   45.2880 C   0  0  0  0  0  0  0  0  0  0  0  0
   59.9920   28.0880   45.6830 C   0  0  0  0  0  0  0  0  0  0  0  0
   58.5960   28.0870   45.5170 C   0  0  0  0  0  0  0  0  0  0  0  0
   57.8550   26.9350   45.8010 C   0  0  0  0  0  0  0  0  0  0  0  0
   58.5010   25.7740   46.2360 C   0  0  0  0  0  0  0  0  0  0  0  0
   59.8900   25.7610   46.3850 C   0  0  0  0  0  0  0  0  0  0  0  0
   60.6360   26.9110   46.1030 C   0  0  0  0  0  0  0  0  0  0  0  0
   59.0174   33.0626   45.1366 H   0  0  0  0  0  0  0  0  0  0  0  0
   59.1799   33.5354   42.6927 H   0  0  0  0  0  0  0  0  0  0  0  0
   57.8349   32.1991   41.0685 H   0  0  0  0  0  0  0  0  0  0  0  0
   56.3358   30.3794   41.8864 H   0  0  0  0  0  0  0  0  0  0  0  0
   57.6236   30.8480   49.6241 H   0  0  0  0  0  0  0  0  0  0  0  0
   57.0249   30.2735   52.1247 H   0  0  0  0  0  0  0  0  0  0  0  0
   58.2627   29.7853   53.3530 H   0  0  0  0  0  0  0  0  0  0  0  0
   57.0326   32.6415   52.3532 H   0  0  0  0  0  0  0  0  0  0  0  0
   58.2257   34.7936   51.9482 H   0  0  0  0  0  0  0  0  0  0  0  0
   60.6745   34.8012   51.4797 H   0  0  0  0  0  0  0  0  0  0  0  0
   65.2278   33.7250   51.6190 H   0  0  0  0  0  0  0  0  0  0  0  0
   65.1600   32.4729   52.8771 H   0  0  0  0  0  0  0  0  0  0  0  0
   62.3354   30.8702   50.2363 H   0  0  0  0  0  0  0  0  0  0  0  0
   64.7036   31.8588   48.2629 H   0  0  0  0  0  0  0  0  0  0  0  0
   64.5050   32.9732   46.0399 H   0  0  0  0  0  0  0  0  0  0  0  0
   62.4456   34.2636   45.4642 H   0  0  0  0  0  0  0  0  0  0  0  0
   60.5843   34.4456   47.1168 H   0  0  0  0  0  0  0  0  0  0  0  0
   60.7731   33.3333   49.3420 H   0  0  0  0  0  0  0  0  0  0  0  0
   60.7560   30.4861   51.8526 H   0  0  0  0  0  0  0  0  0  0  0  0
   60.8099   28.0575   50.4806 H   0  0  0  0  0  0  0  0  0  0  0  0
   61.8127   28.5025   48.2461 H   0  0  0  0  0  0  0  0  0  0  0  0
   60.3409   29.7760   44.4151 H   0  0  0  0  0  0  0  0  0  0  0  0
   61.8245   28.9877   45.0240 H   0  0  0  0  0  0  0  0  0  0  0  0
   58.0850   28.9945   45.1629 H   0  0  0  0  0  0  0  0  0  0  0  0
   56.7615   26.9426   45.6818 H   0  0  0  0  0  0  0  0  0  0  0  0
   57.9154   24.8704   46.4610 H   0  0  0  0  0  0  0  0  0  0  0  0
   60.3977   24.8461   46.7243 H   0  0  0  0  0  0  0  0  0  0  0  0
   61.7306   26.8939   46.2104 H   0  0  0  0  0  0  0  0  0  0  0  0
  1  2  2  0
  2  3  1  0
  3  4  1  0
  4  5  2  0
  5  6  1  0
  6  7  2  0
  7  8  1  0
  8  9  2  0
  9 10  1  0
  2 11  1  0
 11 12  2  0
 12 13  1  0
 13 14  1  0
 14 15  1  0
 15 16  1  0
 16 17  2  0
 17 18  1  0
 18 19  2  0
 19 20  1  0
 20 21  1  0
 21 22  1  0
 22 23  2  0
 22 24  1  0
 24 25  1  0
 25 26  1  0
 26 27  1  0
 27 28  2  0
 28 29  1  0
 29 30  2  0
 30 31  1  0
 31 32  2  0
 20 33  2  0
 13 34  2  0
 34 35  1  0
 35 36  2  0
 36 37  1  0
 37 38  1  0
 38 39  1  0
 39 40  2  0
 40 41  1  0
 41 42  2  0
 42 43  1  0
 43 44  2  0
  9  4  1  0
 36 11  1  0
 44 39  1  0
 33 16  1  0
 26 21  1  0
 32 27  1  0
  5 45  1  0
  6 46  1  0
  7 47  1  0
  8 48  1  0
 12 49  1  0
 15 50  1  0
 15 51  1  0
 17 52  1  0
 18 53  1  0
 19 54  1  0
 24 55  1  0
 24 56  1  0
 26 57  1  6
 28 58  1  0
 29 59  1  0
 30 60  1  0
 31 61  1  0
 32 62  1  0
 33 63  1  0
 34 64  1  0
 35 65  1  0
 38 66  1  0
 38 67  1  0
 40 68  1  0
 41 69  1  0
 42 70  1  0
 43 71  1  0
 44 72  1  0
M  END
>  <UniqueID>  (97) 
88

>  <SMILES>  (97) 
O=C(Oc1ccccc1Cl)c1cc(OCc2cccc(N3C(=O)CS[C@@H]3c3ccccc3)c2)ccc1OCc1ccccc1

>  <Energy>  (97) 
95.98399291476244

>  <Genealogy>  (97) 
O=C(Oc1ccccc1Cl)c1cc(OCc2cccc(N3C(=O)CS[C@@H]3c3ccccc3)c2)ccc1OCc1ccccc1 (chirality)
O=C(Oc1ccccc1Cl)c1cc(OCc2cccc(N3C(=O)CS[C@@H]3c3ccccc3)c2)ccc1OCc1ccccc1 (3D coordinates assigned)
O=C(Oc1ccccc1Cl)c1cc(OCc2cccc(N3C(=O)CS[C@@H]3c3ccccc3)c2)ccc1OCc1ccccc1 (nonaromatic ring conformer: 95.98399291476244 kcal/mol)

>  <smiles>  (97) 
O=C(Oc1ccccc1Cl)c1cc(OCc2cccc(N3C(=O)CSC3c3ccccc3)c2)ccc1OCc1ccccc1

>  <score_type>  (97) 
oracle

>  <origin>  (97) 
adg

>  <m_score__min__energy>  (97) 
-10.369999999999999

>  <m_primary>  (97) 
energy

$$$$
