0:0
     RDKit          3D

 65 68  0  0  0  0  0  0  0  0999 V2000
   58.1430   27.2300   43.2260 C   0  0  0  0  0  0  0  0  0  0  0  0
   58.5380   27.9310   44.5020 C   0  0  0  0  0  0  0  0  0  0  0  0
   59.6300   27.4350   45.2350 C   0  0  0  0  0  0  0  0  0  0  0  0
   60.0450   28.0660   46.4090 C   0  0  0  0  0  0  0  0  0  0  0  0
   59.3700   29.1980   46.8700 C   0  0  0  0  0  0  0  0  0  0  0  0
   58.2730   29.6960   46.1640 C   0  0  0  0  0  0  0  0  0  0  0  0
   57.8370   29.0670   44.9850 C   0  0  0  0  0  0  0  0  0  0  0  0
   56.4400   29.7340   44.1250 S   0  0  0  0  0  0  0  0  0  0  0  0
   56.6220   29.5400   42.6460 O   0  0  0  0  0  0  0  0  0  0  0  0
   55.1790   29.0280   44.5350 O   0  0  0  0  0  0  0  0  0  0  0  0
   56.3190   31.4300   44.4630 N   0  0  0  0  0  0  0  0  0  0  0  0
   57.4070   32.3430   44.2900 C   0  0  0  0  0  0  0  0  0  0  0  0
   57.7610   32.6520   43.1190 O   0  0  0  0  0  0  0  0  0  0  0  0
   58.0870   32.9650   45.4440 C   0  0  0  0  0  0  0  0  0  0  0  0
   59.1100   33.9000   45.2390 C   0  0  0  0  0  0  0  0  0  0  0  0
   59.8080   34.4370   46.3250 C   0  0  0  0  0  0  0  0  0  0  0  0
   59.5220   34.0180   47.6360 C   0  0  0  0  0  0  0  0  0  0  0  0
   60.3160   34.5790   48.7950 C   0  0  0  0  0  0  0  0  0  0  0  0
   60.5190   33.5620   49.9040 C   0  0  0  0  0  0  0  0  0  0  0  0
   59.9150   33.8030   51.1510 C   0  0  0  0  0  0  0  0  0  0  0  0
   60.0540   32.9000   52.2060 C   0  0  0  0  0  0  0  0  0  0  0  0
   60.8040   31.7270   52.0380 C   0  0  0  0  0  0  0  0  0  0  0  0
   60.9580   30.7750   53.0580 O   0  0  0  0  0  0  0  0  0  0  0  0
   59.9060   30.3070   53.8980 C   0  0  0  0  0  0  0  0  0  0  0  0
   59.0130   29.3540   53.1020 C   0  0  1  0  0  0  0  0  0  0  0  0
   57.5500   29.8700   52.9990 C   0  0  0  0  0  0  0  0  0  0  0  0
   57.3240   30.0840   51.6180 O   0  0  0  0  0  0  0  0  0  0  0  0
   58.4440   29.7150   50.9110 C   0  0  0  0  0  0  0  0  0  0  0  0
   58.5220   29.7780   49.6550 O   0  0  0  0  0  0  0  0  0  0  0  0
   59.4940   29.2550   51.7280 N   0  0  0  0  0  0  0  0  0  0  0  0
   61.4220   31.4830   50.8110 C   0  0  0  0  0  0  0  0  0  0  0  0
   61.2920   32.3810   49.7360 C   0  0  0  0  0  0  0  0  0  0  0  0
   62.0520   32.0680   48.4700 C   0  0  0  0  0  0  0  0  0  0  0  0
   63.5150   33.0820   48.3460 S   0  0  0  0  0  0  0  0  0  0  0  0
   64.7660   32.4360   49.4340 C   0  0  0  0  0  0  0  0  0  0  0  0
   63.1900   34.4930   48.7480 O   0  0  0  0  0  0  0  0  0  0  0  0
   64.0320   33.0770   46.9330 O   0  0  0  0  0  0  0  0  0  0  0  0
   58.4750   33.1000   47.8430 C   0  0  0  0  0  0  0  0  0  0  0  0
   58.1330   32.7110   49.0960 F   0  0  0  0  0  0  0  0  0  0  0  0
   57.7730   32.5690   46.7530 C   0  0  0  0  0  0  0  0  0  0  0  0
   57.6163   26.2953   43.4690 H   0  0  0  0  0  0  0  0  0  0  0  0
   57.4798   27.8826   42.6393 H   0  0  0  0  0  0  0  0  0  0  0  0
   59.0448   27.0008   42.6393 H   0  0  0  0  0  0  0  0  0  0  0  0
   60.1629   26.5406   44.8799 H   0  0  0  0  0  0  0  0  0  0  0  0
   60.9042   27.6713   46.9712 H   0  0  0  0  0  0  0  0  0  0  0  0
   59.7031   29.6985   47.7912 H   0  0  0  0  0  0  0  0  0  0  0  0
   57.7457   30.5879   46.5335 H   0  0  0  0  0  0  0  0  0  0  0  0
   59.3659   34.2139   44.2163 H   0  0  0  0  0  0  0  0  0  0  0  0
   60.5874   35.1937   46.1521 H   0  0  0  0  0  0  0  0  0  0  0  0
   61.3011   34.9002   48.4257 H   0  0  0  0  0  0  0  0  0  0  0  0
   59.7476   35.4226   49.2136 H   0  0  0  0  0  0  0  0  0  0  0  0
   59.3231   34.7186   51.2973 H   0  0  0  0  0  0  0  0  0  0  0  0
   59.5734   33.1092   53.1731 H   0  0  0  0  0  0  0  0  0  0  0  0
   60.3332   29.7760   54.7614 H   0  0  0  0  0  0  0  0  0  0  0  0
   59.3104   31.1603   54.2546 H   0  0  0  0  0  0  0  0  0  0  0  0
   59.0428   28.3903   53.6315 H   0  0  0  0  0  0  0  0  0  0  0  0
   56.8485   29.1195   53.3922 H   0  0  0  0  0  0  0  0  0  0  0  0
   57.3973   30.7878   53.5859 H   0  0  0  0  0  0  0  0  0  0  0  0
   62.0226   30.5706   50.6818 H   0  0  0  0  0  0  0  0  0  0  0  0
   62.3467   31.0083   48.4784 H   0  0  0  0  0  0  0  0  0  0  0  0
   61.4028   32.2766   47.6069 H   0  0  0  0  0  0  0  0  0  0  0  0
   64.4603   32.5938   50.4788 H   0  0  0  0  0  0  0  0  0  0  0  0
   64.8934   31.3594   49.2479 H   0  0  0  0  0  0  0  0  0  0  0  0
   65.7176   32.9554   49.2479 H   0  0  0  0  0  0  0  0  0  0  0  0
   56.9703   31.8367   46.9245 H   0  0  0  0  0  0  0  0  0  0  0  0
  1  2  1  0
  2  3  2  0
  3  4  1  0
  4  5  2  0
  5  6  1  0
  6  7  2  0
  7  8  1  0
  8  9  2  0
  8 10  2  0
  8 11  1  0
 11 12  1  0
 12 13  2  0
 12 14  1  0
 14 15  2  0
 15 16  1  0
 16 17  2  0
 17 18  1  0
 18 19  1  0
 19 20  2  0
 20 21  1  0
 21 22  2  0
 22 23  1  0
 23 24  1  0
 24 25  1  0
 25 26  1  0
 26 27  1  0
 27 28  1  0
 28 29  2  0
 28 30  1  0
 22 31  1  0
 31 32  2  0
 32 33  1  0
 33 34  1  0
 34 35  1  0
 34 36  2  0
 34 37  2  0
 17 38  1  0
 38 39  1  0
 38 40  2  0
  7  2  1  0
 40 14  1  0
 32 19  1  0
 30 25  1  0
  1 41  1  0
  1 42  1  0
  1 43  1  0
  3 44  1  0
  4 45  1  0
  5 46  1  0
  6 47  1  0
 15 48  1  0
 16 49  1  0
 18 50  1  0
 18 51  1  0
 20 52  1  0
 21 53  1  0
 24 54  1  0
 24 55  1  0
 25 56  1  1
 26 57  1  0
 26 58  1  0
 31 59  1  0
 33 60  1  0
 33 61  1  0
 35 62  1  0
 35 63  1  0
 35 64  1  0
 40 65  1  0
M  CHG  2  11  -1  30  -1
M  END
>  <UniqueID>  (1) 
1

>  <SMILES>  (1) 
Cc1ccccc1S(=O)(=O)[N-]C(=O)c1ccc(Cc2ccc(OC[C@H]3COC(=O)[N-]3)cc2CS(C)(=O)=O)c(F)c1

>  <Energy>  (1) 
86.52966617474749

>  <Genealogy>  (1) 
Cc1ccccc1S(=O)(=O)[N-]C(=O)c1ccc(Cc2ccc(OCC3COC(=O)[N-]3)cc2CS(C)(=O)=O)c(F)c1 (protonated)
Cc1ccccc1S(=O)(=O)[N-]C(=O)c1ccc(Cc2ccc(OC[C@H]3COC(=O)[N-]3)cc2CS(C)(=O)=O)c(F)c1 (chirality)
Cc1ccccc1S(=O)(=O)[N-]C(=O)c1ccc(Cc2ccc(OC[C@H]3COC(=O)[N-]3)cc2CS(C)(=O)=O)c(F)c1 (3D coordinates assigned)
Cc1ccccc1S(=O)(=O)[N-]C(=O)c1ccc(Cc2ccc(OC[C@H]3COC(=O)[N-]3)cc2CS(C)(=O)=O)c(F)c1 (nonaromatic ring conformer: 86.52966617474749 kcal/mol)

>  <smiles>  (1) 
Cc1ccccc1S(=O)(=O)NC(=O)c1ccc(Cc2ccc(OCC3COC(=O)N3)cc2CS(C)(=O)=O)c(F)c1

>  <score_type>  (1) 
oracle

>  <origin>  (1) 
adg

>  <m_score__min__energy>  (1) 
-13.720000000000001

>  <m_primary>  (1) 
energy

$$$$
1:0
     RDKit          3D

 28 30  0  0  1  0  0  0  0  0999 V2000
   55.5390   29.6770   44.9450 N   0  0  0  0  0  0  0  0  0  0  0  0
   56.2520   30.5120   44.2480 C   0  0  0  0  0  0  0  0  0  0  0  0
   56.9380   31.5050   44.8430 N   0  0  0  0  0  0  0  0  0  0  0  0
   57.6710   32.3680   44.1580 C   0  0  0  0  0  0  0  0  0  0  0  0
   58.4180   33.4390   44.7250 N   0  0  0  0  0  0  0  0  0  0  0  0
   59.1700   33.1570   45.7350 C   0  0  0  0  0  0  0  0  0  0  0  0
   60.3580   33.8200   46.0070 C   0  0  0  0  0  0  0  0  0  0  0  0
   60.9100   33.2670   47.1650 C   0  0  0  0  0  0  0  0  0  0  0  0
   62.1830   33.6560   47.8400 C   0  0  0  0  0  0  0  0  0  0  0  0
   63.3530   33.8050   46.9220 C   0  0  0  0  0  0  0  0  0  0  0  0
   63.3030   32.6530   47.8410 C   0  0  0  0  0  0  0  0  0  0  0  0
   60.0540   32.3040   47.5470 N   0  0  0  0  0  0  0  0  0  0  0  0
   59.0260   32.2420   46.7010 N   0  0  0  0  0  0  0  0  0  0  0  0
   57.7250   32.2310   42.7780 C   0  0  0  0  0  0  0  0  0  0  0  0
   57.0140   31.2050   42.1870 C   0  0  0  0  0  0  0  0  0  0  0  0
   56.2700   30.3330   42.9090 N   0  0  0  0  0  0  0  0  0  0  0  0
   55.5310   29.7060   45.9910 H   0  0  0  0  0  0  0  0  0  0  0  0
   60.7903   34.6392   45.4136 H   0  0  0  0  0  0  0  0  0  0  0  0
   61.6911   34.2596   48.6169 H   0  0  0  0  0  0  0  0  0  0  0  0
   63.2241   33.6490   45.8408 H   0  0  0  0  0  0  0  0  0  0  0  0
   64.0825   34.6039   46.7232 H   0  0  0  0  0  0  0  0  0  0  0  0
   63.1344   31.6409   47.4445 H   0  0  0  0  0  0  0  0  0  0  0  0
   63.9761   32.2416   48.6076 H   0  0  0  0  0  0  0  0  0  0  0  0
   60.2030   31.6990   48.4040 H   0  0  0  0  0  0  0  0  0  0  0  0
   58.2330   31.5760   46.7870 H   0  0  0  0  0  0  0  0  0  0  0  0
   58.3216   32.9250   42.1677 H   0  0  0  0  0  0  0  0  0  0  0  0
   57.0531   31.0921   41.0935 H   0  0  0  0  0  0  0  0  0  0  0  0
   55.7280   29.5570   42.4910 H   0  0  0  0  0  0  0  0  0  0  0  0
  1  2  2  3
  2  3  1  0
  3  4  2  0
  4  5  1  0
  5  6  2  0
  6  7  1  0
  7  8  2  0
  8  9  1  0
  9 10  1  0
 10 11  1  0
  8 12  1  0
 12 13  1  0
  4 14  1  0
 14 15  2  0
 15 16  1  0
 16  2  1  0
 13  6  1  0
 11  9  1  0
  1 17  1  0
  7 18  1  0
  9 19  1  0
 10 20  1  0
 10 21  1  0
 11 22  1  0
 11 23  1  0
 12 24  1  0
 13 25  1  0
 14 26  1  0
 15 27  1  0
 16 28  1  0
M  END
>  <smiles>  (2) 
N=c1nc(N=c2cc(C3CC3)[nH][nH]2)cc[nH]1

>  <score_type>  (2) 
oracle

>  <origin>  (2) 
adg

>  <m_score__min__energy>  (2) 
-6.7000000000000002

>  <m_primary>  (2) 
energy

$$$$
2:0
     RDKit          3D

 50 52  0  0  0  0  0  0  0  0999 V2000
   60.5370   34.1070   46.3200 C   0  0  0  0  0  0  0  0  0  0  0  0
   59.3210   34.5700   45.5260 C   0  0  0  0  0  0  0  0  0  0  0  0
   58.7210   33.4430   44.8110 N   0  0  0  0  0  0  0  0  0  0  0  0
   58.5210   33.4530   43.5010 N   0  0  0  0  0  0  0  0  0  0  0  0
   57.8590   32.3260   43.1760 C   0  0  0  0  0  0  0  0  0  0  0  0
   57.4090   32.0100   41.7870 C   0  0  0  0  0  0  0  0  0  0  0  0
   57.6180   31.5830   44.3200 C   0  0  0  0  0  0  0  0  0  0  0  0
   56.7030   30.0810   44.4720 S   0  0  0  0  0  0  0  0  0  0  0  0
   55.2360   30.4110   44.4700 O   0  0  0  0  0  0  0  0  0  0  0  0
   56.9870   29.1550   43.3230 O   0  0  0  0  0  0  0  0  0  0  0  0
   57.1020   29.2760   45.9540 N   0  0  0  0  0  0  0  0  0  0  0  0
   57.7670   28.0100   46.0560 C   0  0  0  0  0  0  0  0  0  0  0  0
   59.1350   27.8580   45.7690 C   0  0  0  0  0  0  0  0  0  0  0  0
   59.7380   26.6030   45.8710 C   0  0  0  0  0  0  0  0  0  0  0  0
   58.9890   25.4920   46.2640 C   0  0  0  0  0  0  0  0  0  0  0  0
   57.6200   25.6220   46.5550 C   0  0  0  0  0  0  0  0  0  0  0  0
   56.8170   24.4410   46.9500 C   0  0  0  0  0  0  0  0  0  0  0  0
   57.3760   23.4470   47.4920 O   0  0  0  0  0  0  0  0  0  0  0  0
   55.4010   24.4260   46.7270 N   0  0  0  0  0  0  0  0  0  0  0  0
   54.7820   24.2320   45.4200 C   0  0  0  0  0  0  0  0  0  0  0  0
   55.5280   23.1940   44.6330 C   0  0  0  0  0  0  0  0  0  0  0  0
   56.0070   23.4720   43.3440 C   0  0  0  0  0  0  0  0  0  0  0  0
   56.6830   22.4760   42.6350 C   0  0  0  0  0  0  0  0  0  0  0  0
   56.8760   21.2200   43.2140 C   0  0  0  0  0  0  0  0  0  0  0  0
   56.3840   20.9780   44.4990 C   0  0  0  0  0  0  0  0  0  0  0  0
   55.7260   21.9590   45.1730 N   0  0  0  0  0  0  0  0  0  0  0  0
   57.0200   26.8910   46.4480 C   0  0  0  0  0  0  0  0  0  0  0  0
   58.1870   32.3190   45.3450 C   0  0  0  0  0  0  0  0  0  0  0  0
   58.0730   32.0160   46.8100 C   0  0  0  0  0  0  0  0  0  0  0  0
   60.3246   34.1879   47.3963 H   0  0  0  0  0  0  0  0  0  0  0  0
   60.7623   33.0601   46.0684 H   0  0  0  0  0  0  0  0  0  0  0  0
   61.4015   34.7389   46.0684 H   0  0  0  0  0  0  0  0  0  0  0  0
   58.5790   34.9983   46.2159 H   0  0  0  0  0  0  0  0  0  0  0  0
   59.6388   35.3284   44.7954 H   0  0  0  0  0  0  0  0  0  0  0  0
   56.5094   31.3783   41.8278 H   0  0  0  0  0  0  0  0  0  0  0  0
   57.1770   32.9445   41.2552 H   0  0  0  0  0  0  0  0  0  0  0  0
   58.2093   31.4745   41.2552 H   0  0  0  0  0  0  0  0  0  0  0  0
   59.7316   28.7301   45.4633 H   0  0  0  0  0  0  0  0  0  0  0  0
   60.8076   26.4889   45.6408 H   0  0  0  0  0  0  0  0  0  0  0  0
   59.4738   24.5080   46.3465 H   0  0  0  0  0  0  0  0  0  0  0  0
   53.7414   23.9030   45.5577 H   0  0  0  0  0  0  0  0  0  0  0  0
   54.8095   25.1836   44.8689 H   0  0  0  0  0  0  0  0  0  0  0  0
   55.8518   24.4646   42.8960 H   0  0  0  0  0  0  0  0  0  0  0  0
   57.0624   22.6807   41.6230 H   0  0  0  0  0  0  0  0  0  0  0  0
   57.4093   20.4302   42.6646 H   0  0  0  0  0  0  0  0  0  0  0  0
   56.5290   19.9928   44.9662 H   0  0  0  0  0  0  0  0  0  0  0  0
   55.9499   27.0058   46.6753 H   0  0  0  0  0  0  0  0  0  0  0  0
   58.4017   32.8897   47.3918 H   0  0  0  0  0  0  0  0  0  0  0  0
   57.0262   31.7843   47.0561 H   0  0  0  0  0  0  0  0  0  0  0  0
   58.7075   31.1518   47.0561 H   0  0  0  0  0  0  0  0  0  0  0  0
  1  2  1  0
  2  3  1  0
  3  4  1  0
  4  5  2  0
  5  6  1  0
  5  7  1  0
  7  8  1  0
  8  9  2  0
  8 10  2  0
  8 11  1  0
 11 12  1  0
 12 13  2  0
 13 14  1  0
 14 15  2  0
 15 16  1  0
 16 17  1  0
 17 18  2  0
 17 19  1  0
 19 20  1  0
 20 21  1  0
 21 22  2  0
 22 23  1  0
 23 24  2  0
 24 25  1  0
 25 26  2  0
 16 27  2  0
  7 28  2  0
 28 29  1  0
 28  3  1  0
 27 12  1  0
 26 21  1  0
  1 30  1  0
  1 31  1  0
  1 32  1  0
  2 33  1  0
  2 34  1  0
  6 35  1  0
  6 36  1  0
  6 37  1  0
 13 38  1  0
 14 39  1  0
 15 40  1  0
 20 41  1  0
 20 42  1  0
 22 43  1  0
 23 44  1  0
 24 45  1  0
 25 46  1  0
 27 47  1  0
 29 48  1  0
 29 49  1  0
 29 50  1  0
M  CHG  2  11  -1  19  -1
M  END
>  <UniqueID>  (3) 
2

>  <SMILES>  (3) 
CCn1nc(C)c(S(=O)(=O)[N-]c2cccc(C(=O)[N-]Cc3ccccn3)c2)c1C

>  <Energy>  (3) 
79.91731809443333

>  <Genealogy>  (3) 
CCn1nc(C)c(S(=O)(=O)[N-]c2cccc(C(=O)[N-]Cc3ccccn3)c2)c1C (protonated)
CCn1nc(C)c(S(=O)(=O)[N-]c2cccc(C(=O)[N-]Cc3ccccn3)c2)c1C (3D coordinates assigned)
CCn1nc(C)c(S(=O)(=O)[N-]c2cccc(C(=O)[N-]Cc3ccccn3)c2)c1C (optimized conformer: 79.91731809443333 kcal/mol)

>  <smiles>  (3) 
CCn1nc(C)c(S(=O)(=O)Nc2cccc(C(=O)NCc3ccccn3)c2)c1C

>  <score_type>  (3) 
oracle

>  <origin>  (3) 
adg

>  <m_score__min__energy>  (3) 
-12.140000000000001

>  <m_primary>  (3) 
energy

$$$$
3:0
     RDKit          3D

 30 31  0  0  0  0  0  0  0  0999 V2000
   63.6160   33.4660   46.7550 C   0  0  0  0  0  0  0  0  0  0  0  0
   63.2940   32.6710   47.9750 C   0  0  0  0  0  0  0  0  0  0  0  0
   64.2320   32.1660   48.6500 O   0  0  0  0  0  0  0  0  0  0  0  0
   61.9650   32.5920   48.4100 O   0  0  0  0  0  0  0  0  0  0  0  0
   60.8600   33.1460   47.7470 C   0  0  0  0  0  0  0  0  0  0  0  0
   60.4160   34.4590   47.9930 C   0  0  0  0  0  0  0  0  0  0  0  0
   59.3010   34.9620   47.3170 C   0  0  0  0  0  0  0  0  0  0  0  0
   58.6150   34.1630   46.4010 C   0  0  0  0  0  0  0  0  0  0  0  0
   59.0360   32.8450   46.1590 C   0  0  0  0  0  0  0  0  0  0  0  0
   58.3230   32.0140   45.2200 N   0  0  0  0  0  0  0  0  0  0  0  0
   57.7690   30.8300   45.6330 C   0  0  0  0  0  0  0  0  0  0  0  0
   57.8850   30.4470   46.8290 O   0  0  0  0  0  0  0  0  0  0  0  0
   57.0980   30.0460   44.7540 N   0  0  0  0  0  0  0  0  0  0  0  0
   56.9500   30.3920   43.4510 C   0  0  0  0  0  0  0  0  0  0  0  0
   56.2310   29.5160   42.5770 N   0  0  0  0  0  0  0  0  0  0  0  0
   57.5080   31.5970   42.9930 C   0  0  0  0  0  0  0  0  0  0  0  0
   57.3750   32.0090   41.6140 C   0  0  0  0  0  0  0  0  0  0  0  0
   57.2690   32.3400   40.5100 N   0  0  0  0  0  0  0  0  0  0  0  0
   58.1980   32.4060   43.9120 C   0  0  0  0  0  0  0  0  0  0  0  0
   58.6930   33.5030   43.5250 O   0  0  0  0  0  0  0  0  0  0  0  0
   60.1550   32.3430   46.8420 C   0  0  0  0  0  0  0  0  0  0  0  0
   64.0137   34.4478   47.0515 H   0  0  0  0  0  0  0  0  0  0  0  0
   64.3684   32.9311   46.1568 H   0  0  0  0  0  0  0  0  0  0  0  0
   62.7035   33.6055   46.1568 H   0  0  0  0  0  0  0  0  0  0  0  0
   60.9481   35.0909   48.7193 H   0  0  0  0  0  0  0  0  0  0  0  0
   58.9629   35.9913   47.5075 H   0  0  0  0  0  0  0  0  0  0  0  0
   57.7421   34.5666   45.8670 H   0  0  0  0  0  0  0  0  0  0  0  0
   56.3130   28.4780   42.6410 H   0  0  0  0  0  0  0  0  0  0  0  0
   55.5990   29.9140   41.8470 H   0  0  0  0  0  0  0  0  0  0  0  0
   60.4815   31.3077   46.6644 H   0  0  0  0  0  0  0  0  0  0  0  0
  1  2  1  0
  2  3  2  0
  2  4  1  0
  4  5  1  0
  5  6  2  0
  6  7  1  0
  7  8  2  0
  8  9  1  0
  9 10  1  0
 10 11  1  0
 11 12  2  0
 11 13  1  0
 13 14  1  0
 14 15  1  0
 14 16  2  0
 16 17  1  0
 17 18  3  0
 16 19  1  0
 19 20  2  0
  9 21  2  0
 21  5  1  0
 19 10  1  0
  1 22  1  0
  1 23  1  0
  1 24  1  0
  6 25  1  0
  7 26  1  0
  8 27  1  0
 15 28  1  0
 15 29  1  0
 21 30  1  0
M  CHG  1  13  -1
M  END
>  <UniqueID>  (4) 
3

>  <SMILES>  (4) 
CC(=O)Oc1cccc(-n2c(=O)[n-]c(N)c(C#N)c2=O)c1

>  <Energy>  (4) 
44.504115508428534

>  <Genealogy>  (4) 
CC(=O)Oc1cccc(-n2c(=O)[n-]c(N)c(C#N)c2=O)c1 (protonated)
CC(=O)Oc1cccc(-n2c(=O)[n-]c(N)c(C#N)c2=O)c1 (3D coordinates assigned)
CC(=O)Oc1cccc(-n2c(=O)[n-]c(N)c(C#N)c2=O)c1 (optimized conformer: 44.504115508428534 kcal/mol)

>  <smiles>  (4) 
CC(=O)Oc1cccc(-n2c(=O)[nH]c(N)c(C#N)c2=O)c1

>  <score_type>  (4) 
oracle

>  <origin>  (4) 
adg

>  <m_score__min__energy>  (4) 
-8.1400000000000006

>  <m_primary>  (4) 
energy

$$$$
4:0
     RDKit          3D

 36 38  0  0  0  0  0  0  0  0999 V2000
   57.3907   33.7806   43.8922 H   0  0  0  0  0  0  0  0  0  0  0  0
   57.8600   33.9470   44.8730 C   0  0  0  0  0  0  0  0  0  0  0  0
   59.2600   34.8390   45.1600 S   0  0  0  0  0  0  0  0  0  0  0  0
   59.2170   34.5630   46.8240 C   0  0  0  0  0  0  0  0  0  0  0  0
   60.0700   35.0090   47.6960 N   0  0  0  0  0  0  0  0  0  0  0  0
   60.9600   34.0020   48.7930 S   0  0  0  0  0  0  0  0  0  0  0  0
   62.4140   34.3830   48.7430 O   0  0  0  0  0  0  0  0  0  0  0  0
   60.4470   34.2210   50.1900 O   0  0  0  0  0  0  0  0  0  0  0  0
   60.7970   32.3120   48.3280 C   0  0  0  0  0  0  0  0  0  0  0  0
   61.5180   31.8180   47.2340 C   0  0  0  0  0  0  0  0  0  0  0  0
   62.1926   32.4840   46.6759 H   0  0  0  0  0  0  0  0  0  0  0  0
   61.3830   30.4810   46.8490 C   0  0  0  0  0  0  0  0  0  0  0  0
   61.9587   30.0981   45.9935 H   0  0  0  0  0  0  0  0  0  0  0  0
   60.5200   29.6260   47.5450 C   0  0  0  0  0  0  0  0  0  0  0  0
   60.4200   28.2890   47.1350 O   0  0  0  0  0  0  0  0  0  0  0  0
   59.2230   27.6110   46.8590 C   0  0  0  0  0  0  0  0  0  0  0  0
   58.9660   26.3210   47.3550 C   0  0  0  0  0  0  0  0  0  0  0  0
   59.7219   25.8104   47.9697 H   0  0  0  0  0  0  0  0  0  0  0  0
   57.7550   25.6840   47.0710 C   0  0  0  0  0  0  0  0  0  0  0  0
   57.5676   24.6705   47.4553 H   0  0  0  0  0  0  0  0  0  0  0  0
   56.7740   26.3300   46.2970 C   0  0  0  0  0  0  0  0  0  0  0  0
   55.4910   25.6600   45.9930 C   0  0  0  0  0  0  0  0  0  0  0  0
   54.4210   26.3220   45.9290 O   0  0  0  0  0  0  0  0  0  0  0  0
   55.4480   24.2870   45.7750 O   0  0  0  0  0  0  0  0  0  0  0  0
   57.0290   27.6270   45.8200 C   0  0  0  0  0  0  0  0  0  0  0  0
   56.2694   28.1461   45.2170 H   0  0  0  0  0  0  0  0  0  0  0  0
   58.2400   28.2620   46.1060 C   0  0  0  0  0  0  0  0  0  0  0  0
   58.4221   29.2819   45.7362 H   0  0  0  0  0  0  0  0  0  0  0  0
   59.8160   30.1180   48.6590 C   0  0  0  0  0  0  0  0  0  0  0  0
   59.1556   29.4480   49.2290 H   0  0  0  0  0  0  0  0  0  0  0  0
   59.9520   31.4550   49.0450 C   0  0  0  0  0  0  0  0  0  0  0  0
   59.3942   31.8348   49.9137 H   0  0  0  0  0  0  0  0  0  0  0  0
   58.1570   33.8040   47.1660 N   0  0  0  0  0  0  0  0  0  0  0  0
   57.9360   33.5130   48.1450 H   0  0  0  0  0  0  0  0  0  0  0  0
   57.4000   33.4570   46.0920 C   0  0  0  0  0  0  0  0  0  0  0  0
   56.4951   32.8377   46.1791 H   0  0  0  0  0  0  0  0  0  0  0  0
  1  2  1  0
  2  3  1  0
  3  4  1  0
  4  5  2  0
  5  6  1  0
  6  7  2  0
  6  8  2  0
  6  9  1  0
  9 10  2  0
 10 11  1  0
 10 12  1  0
 12 13  1  0
 12 14  2  0
 14 15  1  0
 15 16  1  0
 16 17  2  0
 17 18  1  0
 17 19  1  0
 19 20  1  0
 19 21  2  0
 21 22  1  0
 22 23  2  0
 22 24  1  0
 21 25  1  0
 25 26  1  0
 25 27  2  0
 27 28  1  0
 14 29  1  0
 29 30  1  0
 29 31  2  0
 31 32  1  0
  4 33  1  0
 33 34  1  0
 33 35  1  0
 35 36  1  0
 35  2  2  0
 31  9  1  0
 27 16  1  0
M  CHG  1  24  -1
M  END
>  <UniqueID>  (5) 
4

>  <SMILES>  (5) 
O=C([O-])c1ccc(Oc2ccc(S(=O)(=O)/N=c3/[nH]ccs3)cc2)cc1

>  <Energy>  (5) 
78.94307564492034

>  <Genealogy>  (5) 
O=C([O-])c1ccc(Oc2ccc(S(=O)(=O)N=c3[nH]ccs3)cc2)cc1 (protonated)
O=C([O-])c1ccc(Oc2ccc(S(=O)(=O)/N=c3/[nH]ccs3)cc2)cc1 (cis-trans isomerization)
O=C([O-])c1ccc(Oc2ccc(S(=O)(=O)/N=c3/[nH]ccs3)cc2)cc1 (3D coordinates assigned)
O=C([O-])c1ccc(Oc2ccc(S(=O)(=O)/N=c3/[nH]ccs3)cc2)cc1 (optimized conformer: 78.94307564492034 kcal/mol)

>  <smiles>  (5) 
O=C(O)c1ccc(Oc2ccc(S(=O)(=O)N=c3[nH]ccs3)cc2)cc1

>  <score_type>  (5) 
oracle

>  <origin>  (5) 
adg

>  <m_score__min__energy>  (5) 
-9.6799999999999997

>  <m_primary>  (5) 
energy

$$$$
5:0
     RDKit          3D

 56 59  0  0  0  0  0  0  0  0999 V2000
   50.8670   33.3080   52.0200 N   0  0  0  0  0  0  0  0  0  0  0  0
   51.3900   32.2720   51.1900 C   0  0  0  0  0  0  0  0  0  0  0  0
   51.1290   32.2840   49.9570 O   0  0  0  0  0  0  0  0  0  0  0  0
   52.2310   31.1970   51.7680 C   0  0  0  0  0  0  0  0  0  0  0  0
   51.6790   30.2580   52.6550 C   0  0  0  0  0  0  0  0  0  0  0  0
   52.4730   29.2450   53.1980 C   0  0  0  0  0  0  0  0  0  0  0  0
   53.8260   29.1600   52.8630 C   0  0  0  0  0  0  0  0  0  0  0  0
   54.4010   30.0840   51.9870 C   0  0  0  0  0  0  0  0  0  0  0  0
   55.7680   29.9550   51.6920 O   0  0  0  0  0  0  0  0  0  0  0  0
   56.8320   30.5810   52.4120 C   0  0  0  0  0  0  0  0  0  0  0  0
   57.7700   31.2920   51.4720 C   0  0  0  0  0  0  0  0  0  0  0  0
   58.1380   32.6260   51.7060 C   0  0  0  0  0  0  0  0  0  0  0  0
   59.0120   33.2780   50.8340 C   0  0  0  0  0  0  0  0  0  0  0  0
   59.5110   32.6120   49.7120 C   0  0  0  0  0  0  0  0  0  0  0  0
   59.1200   31.2870   49.4450 C   0  0  0  0  0  0  0  0  0  0  0  0
   59.6200   30.5700   48.3070 N   0  0  0  0  0  0  0  0  0  0  0  0
   58.8340   30.0380   47.2330 C   0  0  0  0  0  0  0  0  0  0  0  0
   58.1800   30.8350   46.5090 O   0  0  0  0  0  0  0  0  0  0  0  0
   58.8110   28.5890   46.9220 C   0  0  0  0  0  0  0  0  0  0  0  0
   59.9830   27.8190   47.0030 C   0  0  0  0  0  0  0  0  0  0  0  0
   59.9550   26.4570   46.6950 C   0  0  0  0  0  0  0  0  0  0  0  0
   58.7600   25.8490   46.3070 C   0  0  0  0  0  0  0  0  0  0  0  0
   57.5770   26.6000   46.2310 C   0  0  0  0  0  0  0  0  0  0  0  0
   56.3170   25.9500   45.8180 C   0  0  0  0  0  0  0  0  0  0  0  0
   55.2240   26.4170   46.2380 O   0  0  0  0  0  0  0  0  0  0  0  0
   56.3090   24.8140   44.9340 N   0  0  0  0  0  0  0  0  0  0  0  0
   55.1190   24.0090   44.7080 C   0  0  0  0  0  0  0  0  0  0  0  0
   55.5130   22.9840   43.6530 C   0  0  0  0  0  0  0  0  0  0  0  0
   56.7630   23.5450   42.9810 C   0  0  0  0  0  0  0  0  0  0  0  0
   57.3720   24.5130   43.9870 C   0  0  0  0  0  0  0  0  0  0  0  0
   57.6140   27.9750   46.5140 C   0  0  0  0  0  0  0  0  0  0  0  0
   58.2620   30.6310   50.3360 C   0  0  0  0  0  0  0  0  0  0  0  0
   53.5960   31.1010   51.4340 C   0  0  0  0  0  0  0  0  0  0  0  0
   50.6430   34.2500   51.6260 H   0  0  0  0  0  0  0  0  0  0  0  0
   50.6142   30.3208   52.9239 H   0  0  0  0  0  0  0  0  0  0  0  0
   52.0317   28.5131   53.8906 H   0  0  0  0  0  0  0  0  0  0  0  0
   54.4446   28.3583   53.2927 H   0  0  0  0  0  0  0  0  0  0  0  0
   56.4089   31.3100   53.1187 H   0  0  0  0  0  0  0  0  0  0  0  0
   57.3955   29.8058   52.9520 H   0  0  0  0  0  0  0  0  0  0  0  0
   57.7363   33.1599   52.5798 H   0  0  0  0  0  0  0  0  0  0  0  0
   59.3084   34.3188   51.0310 H   0  0  0  0  0  0  0  0  0  0  0  0
   60.2111   33.1245   49.0358 H   0  0  0  0  0  0  0  0  0  0  0  0
   60.9277   28.2911   47.3106 H   0  0  0  0  0  0  0  0  0  0  0  0
   60.8777   25.8615   46.7584 H   0  0  0  0  0  0  0  0  0  0  0  0
   58.7455   24.7772   46.0599 H   0  0  0  0  0  0  0  0  0  0  0  0
   54.8135   23.5058   45.6372 H   0  0  0  0  0  0  0  0  0  0  0  0
   54.2676   24.6237   44.3806 H   0  0  0  0  0  0  0  0  0  0  0  0
   55.7325   22.0141   44.1233 H   0  0  0  0  0  0  0  0  0  0  0  0
   54.7030   22.8145   42.9283 H   0  0  0  0  0  0  0  0  0  0  0  0
   57.4710   22.7352   42.7508 H   0  0  0  0  0  0  0  0  0  0  0  0
   56.5238   24.0442   42.0304 H   0  0  0  0  0  0  0  0  0  0  0  0
   58.2241   24.0456   44.5022 H   0  0  0  0  0  0  0  0  0  0  0  0
   57.7511   25.4226   43.4982 H   0  0  0  0  0  0  0  0  0  0  0  0
   56.6985   28.5768   46.4156 H   0  0  0  0  0  0  0  0  0  0  0  0
   57.9708   29.5878   50.1438 H   0  0  0  0  0  0  0  0  0  0  0  0
   54.0382   31.8263   50.7351 H   0  0  0  0  0  0  0  0  0  0  0  0
  1  2  1  0
  2  3  2  0
  2  4  1  0
  4  5  2  0
  5  6  1  0
  6  7  2  0
  7  8  1  0
  8  9  1  0
  9 10  1  0
 10 11  1  0
 11 12  2  0
 12 13  1  0
 13 14  2  0
 14 15  1  0
 15 16  1  0
 16 17  1  0
 17 18  2  0
 17 19  1  0
 19 20  2  0
 20 21  1  0
 21 22  2  0
 22 23  1  0
 23 24  1  0
 24 25  2  0
 24 26  1  0
 26 27  1  0
 27 28  1  0
 28 29  1  0
 29 30  1  0
 23 31  2  0
 15 32  2  0
  8 33  2  0
 33  4  1  0
 32 11  1  0
 31 19  1  0
 30 26  1  0
  1 34  1  0
  5 35  1  0
  6 36  1  0
  7 37  1  0
 10 38  1  0
 10 39  1  0
 12 40  1  0
 13 41  1  0
 14 42  1  0
 20 43  1  0
 21 44  1  0
 22 45  1  0
 27 46  1  0
 27 47  1  0
 28 48  1  0
 28 49  1  0
 29 50  1  0
 29 51  1  0
 30 52  1  0
 30 53  1  0
 31 54  1  0
 32 55  1  0
 33 56  1  0
M  CHG  2   1  -1  16  -1
M  END
>  <UniqueID>  (6) 
5

>  <SMILES>  (6) 
[NH-]C(=O)c1cccc(OCc2cccc([N-]C(=O)c3cccc(C(=O)N4CCCC4)c3)c2)c1

>  <Energy>  (6) 
69.8957830940735

>  <Genealogy>  (6) 
[NH-]C(=O)c1cccc(OCc2cccc([N-]C(=O)c3cccc(C(=O)N4CCCC4)c3)c2)c1 (protonated)
[NH-]C(=O)c1cccc(OCc2cccc([N-]C(=O)c3cccc(C(=O)N4CCCC4)c3)c2)c1 (3D coordinates assigned)
[NH-]C(=O)c1cccc(OCc2cccc([N-]C(=O)c3cccc(C(=O)N4CCCC4)c3)c2)c1 (nonaromatic ring conformer: 69.8957830940735 kcal/mol)

>  <smiles>  (6) 
NC(=O)c1cccc(OCc2cccc(NC(=O)c3cccc(C(=O)N4CCCC4)c3)c2)c1

>  <score_type>  (6) 
oracle

>  <origin>  (6) 
adg

>  <m_score__min__energy>  (6) 
-15.779999999999999

>  <m_primary>  (6) 
energy

$$$$
6:0
     RDKit          3D

 50 52  0  0  0  0  0  0  0  0999 V2000
   64.2640   32.4920   49.0240 C   0  0  0  0  0  0  0  0  0  0  0  0
   63.0440   33.3580   48.0620 S   0  0  0  0  0  0  0  0  0  0  0  0
   63.6380   33.8300   46.7670 O   0  0  0  0  0  0  0  0  0  0  0  0
   62.5840   34.5570   48.8380 O   0  0  0  0  0  0  0  0  0  0  0  0
   61.6820   32.3290   47.7480 N   0  0  0  0  0  0  0  0  0  0  0  0
   60.5020   32.7430   47.0410 C   0  0  0  0  0  0  0  0  0  0  0  0
   60.0970   34.0900   46.9950 C   0  0  0  0  0  0  0  0  0  0  0  0
   58.9350   34.4540   46.3130 C   0  0  0  0  0  0  0  0  0  0  0  0
   58.1630   33.4830   45.6750 C   0  0  0  0  0  0  0  0  0  0  0  0
   58.5600   32.1410   45.7020 C   0  0  0  0  0  0  0  0  0  0  0  0
   57.5400   30.9220   44.9410 S   0  0  0  0  0  0  0  0  0  0  0  0
   58.2170   30.3240   43.7410 O   0  0  0  0  0  0  0  0  0  0  0  0
   56.2600   31.5700   44.4970 O   0  0  0  0  0  0  0  0  0  0  0  0
   57.1800   29.6700   46.0850 N   0  0  0  0  0  0  0  0  0  0  0  0
   57.8750   28.4190   46.1810 C   0  0  0  0  0  0  0  0  0  0  0  0
   59.2730   28.4280   46.2730 C   0  0  0  0  0  0  0  0  0  0  0  0
   59.9830   27.2270   46.3640 C   0  0  0  0  0  0  0  0  0  0  0  0
   59.3020   26.0060   46.3580 C   0  0  0  0  0  0  0  0  0  0  0  0
   57.9060   25.9820   46.2590 C   0  0  0  0  0  0  0  0  0  0  0  0
   57.0400   24.4480   46.2800 S   0  0  0  0  0  0  0  0  0  0  0  0
   55.5620   24.7160   46.3270 O   0  0  0  0  0  0  0  0  0  0  0  0
   57.4240   23.6700   47.5120 O   0  0  0  0  0  0  0  0  0  0  0  0
   57.4190   23.5230   44.8480 N   0  0  0  0  0  0  0  0  0  0  0  0
   57.0910   22.1000   45.0640 C   0  0  0  0  0  0  0  0  0  0  0  0
   56.9520   21.3670   43.7210 C   0  0  0  0  0  0  0  0  0  0  0  0
   55.9390   21.8940   42.8710 O   0  0  0  0  0  0  0  0  0  0  0  0
   55.5660   23.2280   43.1800 C   0  0  0  0  0  0  0  0  0  0  0  0
   56.7500   24.0910   43.6540 C   0  0  0  0  0  0  0  0  0  0  0  0
   57.1970   27.1890   46.1870 C   0  0  0  0  0  0  0  0  0  0  0  0
   59.7330   31.7770   46.3750 C   0  0  0  0  0  0  0  0  0  0  0  0
   64.0581   32.6382   50.0946 H   0  0  0  0  0  0  0  0  0  0  0  0
   64.2243   31.4188   48.7861 H   0  0  0  0  0  0  0  0  0  0  0  0
   65.2641   32.8835   48.7861 H   0  0  0  0  0  0  0  0  0  0  0  0
   61.7030   31.3790   48.1780 H   0  0  0  0  0  0  0  0  0  0  0  0
   60.6994   34.8600   47.4992 H   0  0  0  0  0  0  0  0  0  0  0  0
   58.6271   35.5095   46.2785 H   0  0  0  0  0  0  0  0  0  0  0  0
   57.2408   33.7724   45.1498 H   0  0  0  0  0  0  0  0  0  0  0  0
   59.8150   29.3852   46.2736 H   0  0  0  0  0  0  0  0  0  0  0  0
   61.0802   27.2428   46.4405 H   0  0  0  0  0  0  0  0  0  0  0  0
   59.8639   25.0632   46.4312 H   0  0  0  0  0  0  0  0  0  0  0  0
   57.8931   21.6293   45.6514 H   0  0  0  0  0  0  0  0  0  0  0  0
   56.1350   22.0346   45.6042 H   0  0  0  0  0  0  0  0  0  0  0  0
   57.9142   21.4310   43.1918 H   0  0  0  0  0  0  0  0  0  0  0  0
   56.6621   20.3318   43.9543 H   0  0  0  0  0  0  0  0  0  0  0  0
   55.1353   23.6889   42.2789 H   0  0  0  0  0  0  0  0  0  0  0  0
   54.8409   23.1833   44.0059 H   0  0  0  0  0  0  0  0  0  0  0  0
   57.4842   24.1627   42.8380 H   0  0  0  0  0  0  0  0  0  0  0  0
   56.3558   25.0805   43.9287 H   0  0  0  0  0  0  0  0  0  0  0  0
   56.0984   27.1727   46.1347 H   0  0  0  0  0  0  0  0  0  0  0  0
   60.0540   30.7249   46.3814 H   0  0  0  0  0  0  0  0  0  0  0  0
  1  2  1  0
  2  3  2  0
  2  4  2  0
  2  5  1  0
  5  6  1  0
  6  7  2  0
  7  8  1  0
  8  9  2  0
  9 10  1  0
 10 11  1  0
 11 12  2  0
 11 13  2  0
 11 14  1  0
 14 15  1  0
 15 16  2  0
 16 17  1  0
 17 18  2  0
 18 19  1  0
 19 20  1  0
 20 21  2  0
 20 22  2  0
 20 23  1  0
 23 24  1  0
 24 25  1  0
 25 26  1  0
 26 27  1  0
 27 28  1  0
 19 29  2  0
 10 30  2  0
 30  6  1  0
 29 15  1  0
 28 23  1  0
  1 31  1  0
  1 32  1  0
  1 33  1  0
  5 34  1  0
  7 35  1  0
  8 36  1  0
  9 37  1  0
 16 38  1  0
 17 39  1  0
 18 40  1  0
 24 41  1  0
 24 42  1  0
 25 43  1  0
 25 44  1  0
 27 45  1  0
 27 46  1  0
 28 47  1  0
 28 48  1  0
 29 49  1  0
 30 50  1  0
M  CHG  1  14  -1
M  END
>  <UniqueID>  (7) 
6

>  <SMILES>  (7) 
CS(=O)(=O)Nc1cccc(S(=O)(=O)[N-]c2cccc(S(=O)(=O)N3CCOCC3)c2)c1

>  <Energy>  (7) 
64.26106618970084

>  <Genealogy>  (7) 
CS(=O)(=O)Nc1cccc(S(=O)(=O)[N-]c2cccc(S(=O)(=O)N3CCOCC3)c2)c1 (protonated)
CS(=O)(=O)Nc1cccc(S(=O)(=O)[N-]c2cccc(S(=O)(=O)N3CCOCC3)c2)c1 (3D coordinates assigned)
CS(=O)(=O)Nc1cccc(S(=O)(=O)[N-]c2cccc(S(=O)(=O)N3CCOCC3)c2)c1 (nonaromatic ring conformer: 64.26106618970084 kcal/mol)

>  <smiles>  (7) 
CS(=O)(=O)Nc1cccc(S(=O)(=O)Nc2cccc(S(=O)(=O)N3CCOCC3)c2)c1

>  <score_type>  (7) 
oracle

>  <origin>  (7) 
adg

>  <m_score__min__energy>  (7) 
-12.17

>  <m_primary>  (7) 
energy

$$$$
7:0
     RDKit          3D

 56 59  0  0  0  0  0  0  0  0999 V2000
   59.7340   28.2578   52.0894 H   0  0  0  0  0  0  0  0  0  0  0  0
   60.0000   28.4360   51.0370 C   0  0  0  0  0  0  0  0  0  0  0  0
   60.5330   27.4150   50.3380 C   0  0  0  0  0  0  0  0  0  0  0  0
   61.4050   26.4540   50.9770 C   0  0  0  0  0  0  0  0  0  0  0  0
   62.1040   25.6850   51.4880 N   0  0  0  0  0  0  0  0  0  0  0  0
   60.1590   27.1850   48.9210 C   0  0  0  0  0  0  0  0  0  0  0  0
   59.6690   26.0710   48.5850 O   0  0  0  0  0  0  0  0  0  0  0  0
   60.3980   28.1870   47.9180 N   0  0  0  0  0  0  0  0  0  0  0  0
   61.2080   28.8340   48.0540 H   0  0  0  0  0  0  0  0  0  0  0  0
   59.6620   28.2750   46.6860 C   0  0  0  0  0  0  0  0  0  0  0  0
   59.6790   27.1910   45.7940 C   0  0  0  0  0  0  0  0  0  0  0  0
   60.2389   26.2801   46.0522 H   0  0  0  0  0  0  0  0  0  0  0  0
   58.9900   27.2610   44.5810 C   0  0  0  0  0  0  0  0  0  0  0  0
   58.9994   26.4021   43.8939 H   0  0  0  0  0  0  0  0  0  0  0  0
   58.2890   28.4200   44.2390 C   0  0  0  0  0  0  0  0  0  0  0  0
   57.7406   28.4688   43.2867 H   0  0  0  0  0  0  0  0  0  0  0  0
   58.2830   29.5200   45.1060 C   0  0  0  0  0  0  0  0  0  0  0  0
   57.4130   30.9930   44.6910 S   0  0  0  0  0  0  0  0  0  0  0  0
   55.9280   30.7570   44.7540 O   0  0  0  0  0  0  0  0  0  0  0  0
   57.7810   31.3920   43.2900 O   0  0  0  0  0  0  0  0  0  0  0  0
   57.8580   32.2600   45.8100 N   0  0  0  0  0  0  0  0  0  0  0  0
   57.0300   33.4690   45.6070 C   0  0  0  0  0  0  0  0  0  0  0  0
   56.1472   33.1979   45.0094 H   0  0  0  0  0  0  0  0  0  0  0  0
   56.7403   33.8509   46.5970 H   0  0  0  0  0  0  0  0  0  0  0  0
   57.8010   34.5840   44.8760 C   0  0  0  0  0  0  0  0  0  0  0  0
   58.0837   34.2175   43.8781 H   0  0  0  0  0  0  0  0  0  0  0  0
   57.1371   35.4593   44.8213 H   0  0  0  0  0  0  0  0  0  0  0  0
   58.9790   34.9890   45.5590 O   0  0  0  0  0  0  0  0  0  0  0  0
   59.6360   33.9320   46.2480 C   0  0  0  0  0  0  0  0  0  0  0  0
   60.7217   34.0874   46.1638 H   0  0  0  0  0  0  0  0  0  0  0  0
   59.2810   33.9636   47.2887 H   0  0  0  0  0  0  0  0  0  0  0  0
   59.3060   32.5290   45.7100 C   0  0  0  0  0  0  0  0  0  0  0  0
   59.6134   32.4648   44.6558 H   0  0  0  0  0  0  0  0  0  0  0  0
   59.8470   31.7832   46.3109 H   0  0  0  0  0  0  0  0  0  0  0  0
   58.9720   29.4460   46.3250 C   0  0  0  0  0  0  0  0  0  0  0  0
   58.9728   30.3110   47.0045 H   0  0  0  0  0  0  0  0  0  0  0  0
   59.7500   29.7850   50.4750 C   0  0  0  0  0  0  0  0  0  0  0  0
   58.5080   30.4180   50.6140 C   0  0  0  0  0  0  0  0  0  0  0  0
   57.4630   29.8020   51.2940 O   0  0  0  0  0  0  0  0  0  0  0  0
   58.3220   31.6590   50.1030 N   0  0  0  0  0  0  0  0  0  0  0  0
   59.3190   32.3230   49.4690 C   0  0  0  0  0  0  0  0  0  0  0  0
   59.0850   33.4680   48.9930 O   0  0  0  0  0  0  0  0  0  0  0  0
   60.5600   31.7510   49.3440 N   0  0  0  0  0  0  0  0  0  0  0  0
   61.6230   32.4690   48.6830 C   0  0  0  0  0  0  0  0  0  0  0  0
   62.1010   32.0370   47.4340 C   0  0  0  0  0  0  0  0  0  0  0  0
   61.6668   31.1445   46.9597 H   0  0  0  0  0  0  0  0  0  0  0  0
   63.1270   32.7380   46.7920 C   0  0  0  0  0  0  0  0  0  0  0  0
   63.4984   32.3954   45.8149 H   0  0  0  0  0  0  0  0  0  0  0  0
   63.6810   33.8730   47.3900 C   0  0  0  0  0  0  0  0  0  0  0  0
   64.4862   34.4248   46.8828 H   0  0  0  0  0  0  0  0  0  0  0  0
   63.2110   34.3070   48.6340 C   0  0  0  0  0  0  0  0  0  0  0  0
   63.6489   35.1989   49.1059 H   0  0  0  0  0  0  0  0  0  0  0  0
   62.1860   33.6090   49.2780 C   0  0  0  0  0  0  0  0  0  0  0  0
   61.8186   33.9544   50.2556 H   0  0  0  0  0  0  0  0  0  0  0  0
   60.7860   30.4950   49.8480 C   0  0  0  0  0  0  0  0  0  0  0  0
   61.9310   29.9710   49.7540 O   0  0  0  0  0  0  0  0  0  0  0  0
  1  2  1  0
  2  3  2  0
  3  4  1  0
  4  5  3  0
  3  6  1  0
  6  7  2  0
  6  8  1  0
  8  9  1  0
  8 10  1  0
 10 11  2  0
 11 12  1  0
 11 13  1  0
 13 14  1  0
 13 15  2  0
 15 16  1  0
 15 17  1  0
 17 18  1  0
 18 19  2  0
 18 20  2  0
 18 21  1  0
 21 22  1  0
 22 23  1  0
 22 24  1  0
 22 25  1  0
 25 26  1  0
 25 27  1  0
 25 28  1  0
 28 29  1  0
 29 30  1  0
 29 31  1  0
 29 32  1  0
 32 33  1  0
 32 34  1  0
 17 35  2  0
 35 36  1  0
  2 37  1  0
 37 38  2  0
 38 39  1  0
 38 40  1  0
 40 41  1  0
 41 42  2  0
 41 43  1  0
 43 44  1  0
 44 45  2  0
 45 46  1  0
 45 47  1  0
 47 48  1  0
 47 49  2  0
 49 50  1  0
 49 51  1  0
 51 52  1  0
 51 53  2  0
 53 54  1  0
 43 55  1  0
 55 56  2  0
 35 10  1  0
 55 37  1  0
 32 21  1  0
 53 44  1  0
M  CHG  2  39  -1  40  -1
M  END
>  <UniqueID>  (8) 
7

>  <SMILES>  (8) 
N#C/C(=C\c1c([O-])[n-]c(=O)n(-c2ccccc2)c1=O)C(=O)Nc1cccc(S(=O)(=O)N2CCOCC2)c1

>  <Energy>  (8) 
95.33682086906978

>  <Genealogy>  (8) 
N#CC(=Cc1c([O-])[n-]c(=O)n(-c2ccccc2)c1=O)C(=O)Nc1cccc(S(=O)(=O)N2CCOCC2)c1 (protonated)
N#C/C(=C\c1c([O-])[n-]c(=O)n(-c2ccccc2)c1=O)C(=O)Nc1cccc(S(=O)(=O)N2CCOCC2)c1 (cis-trans isomerization)
N#C/C(=C\c1c([O-])[n-]c(=O)n(-c2ccccc2)c1=O)C(=O)Nc1cccc(S(=O)(=O)N2CCOCC2)c1 (3D coordinates assigned)
N#C/C(=C\c1c([O-])[n-]c(=O)n(-c2ccccc2)c1=O)C(=O)Nc1cccc(S(=O)(=O)N2CCOCC2)c1 (nonaromatic ring conformer: 95.33682086906978 kcal/mol)

>  <smiles>  (8) 
N#CC(=Cc1c(O)[nH]c(=O)n(-c2ccccc2)c1=O)C(=O)Nc1cccc(S(=O)(=O)N2CCOCC2)c1

>  <score_type>  (8) 
oracle

>  <origin>  (8) 
adg

>  <m_score__min__energy>  (8) 
-14.33

>  <m_primary>  (8) 
energy

$$$$
8:0
     RDKit          3D

 43 46  0  0  0  0  0  0  0  0999 V2000
   59.5310   31.7890   50.6880 H   0  0  0  0  0  0  0  0  0  0  0  0
   59.7860   32.6720   50.2630 O   0  0  0  0  0  0  0  0  0  0  0  0
   59.4020   32.9890   48.9600 C   0  0  0  0  0  0  0  0  0  0  0  0
   59.6300   34.2760   48.4530 C   0  0  0  0  0  0  0  0  0  0  0  0
   60.0985   35.0416   49.0889 H   0  0  0  0  0  0  0  0  0  0  0  0
   59.2630   34.5880   47.1410 C   0  0  0  0  0  0  0  0  0  0  0  0
   59.4335   35.6014   46.7487 H   0  0  0  0  0  0  0  0  0  0  0  0
   58.6800   33.6140   46.3280 C   0  0  0  0  0  0  0  0  0  0  0  0
   58.4028   33.8579   45.2918 H   0  0  0  0  0  0  0  0  0  0  0  0
   58.4480   32.3300   46.8280 C   0  0  0  0  0  0  0  0  0  0  0  0
   58.0016   31.5615   46.1799 H   0  0  0  0  0  0  0  0  0  0  0  0
   58.7840   32.0170   48.1590 C   0  0  0  0  0  0  0  0  0  0  0  0
   58.5380   30.7140   48.7100 N   0  0  0  0  0  0  0  0  0  0  0  0
   59.4500   29.9220   49.4880 C   0  0  0  0  0  0  0  0  0  0  0  0
   60.4650   29.4400   48.9210 O   0  0  0  0  0  0  0  0  0  0  0  0
   59.2480   29.6570   50.8870 N   0  0  0  0  0  0  0  0  0  0  0  0
   58.3200   30.1600   51.6460 C   0  0  0  0  0  0  0  0  0  0  0  0
   57.0330   29.7350   51.5660 N   0  0  0  0  0  0  0  0  0  0  0  0
   56.0800   30.2700   52.3700 C   0  0  0  0  0  0  0  0  0  0  0  0
   54.7590   29.8090   52.3360 O   0  0  0  0  0  0  0  0  0  0  0  0
   53.6190   30.6240   52.2910 C   0  0  0  0  0  0  0  0  0  0  0  0
   52.7930   30.8200   53.4130 C   0  0  0  0  0  0  0  0  0  0  0  0
   53.0432   30.3368   54.3690 H   0  0  0  0  0  0  0  0  0  0  0  0
   51.6550   31.6270   53.3170 C   0  0  0  0  0  0  0  0  0  0  0  0
   51.0166   31.7830   54.1991 H   0  0  0  0  0  0  0  0  0  0  0  0
   51.3270   32.2360   52.1020 C   0  0  0  0  0  0  0  0  0  0  0  0
   50.1970   33.0380   52.0090 O   0  0  0  0  0  0  0  0  0  0  0  0
   52.1360   32.0330   50.9790 C   0  0  0  0  0  0  0  0  0  0  0  0
   51.8774   32.5086   50.0214 H   0  0  0  0  0  0  0  0  0  0  0  0
   53.2740   31.2250   51.0740 C   0  0  0  0  0  0  0  0  0  0  0  0
   53.9025   31.0605   50.1863 H   0  0  0  0  0  0  0  0  0  0  0  0
   56.4210   31.2380   53.2550 N   0  0  0  0  0  0  0  0  0  0  0  0
   57.7010   31.6870   53.3360 C   0  0  0  0  0  0  0  0  0  0  0  0
   58.0570   32.6220   54.1730 N   0  0  0  0  0  0  0  0  0  0  0  0
   58.7940   33.8890   54.0040 C   0  0  0  0  0  0  0  0  0  0  0  0
   58.5073   34.2633   54.9978 H   0  0  0  0  0  0  0  0  0  0  0  0
   58.8410   34.4840   52.6060 C   0  0  0  0  0  0  0  0  0  0  0  0
   58.3105   33.9893   51.7790 H   0  0  0  0  0  0  0  0  0  0  0  0
   58.6054   35.4656   52.1690 H   0  0  0  0  0  0  0  0  0  0  0  0
   60.0890   33.8390   53.2090 C   0  0  0  0  0  0  0  0  0  0  0  0
   60.4573   32.8797   52.8164 H   0  0  0  0  0  0  0  0  0  0  0  0
   61.1250   34.1632   53.3865 H   0  0  0  0  0  0  0  0  0  0  0  0
   58.6440   31.1410   52.5250 N   0  0  0  0  0  0  0  0  0  0  0  0
  1  2  1  0
  2  3  1  0
  3  4  2  0
  4  5  1  0
  4  6  1  0
  6  7  1  0
  6  8  2  0
  8  9  1  0
  8 10  1  0
 10 11  1  0
 10 12  2  0
 12 13  1  0
 13 14  1  0
 14 15  2  0
 14 16  1  0
 16 17  2  3
 17 18  1  0
 18 19  1  0
 19 20  1  0
 20 21  1  0
 21 22  2  0
 22 23  1  0
 22 24  1  0
 24 25  1  0
 24 26  2  0
 26 27  1  0
 26 28  1  0
 28 29  1  0
 28 30  2  0
 30 31  1  0
 19 32  2  0
 32 33  1  0
 33 34  2  0
 34 35  1  0
 35 36  1  0
 35 37  1  0
 37 38  1  0
 37 39  1  0
 37 40  1  0
 40 41  1  0
 40 42  1  0
 33 43  1  0
 12  3  1  0
 43 17  1  0
 30 21  1  0
 40 35  1  0
M  CHG  4  13  -1  18  -1  27  -1  43  -1
M  END
>  <UniqueID>  (9) 
8

>  <SMILES>  (9) 
O=C(N=c1[n-]c(Oc2ccc([O-])cc2)n/c(=N\C2CC2)[n-]1)[N-]c1ccccc1O

>  <Energy>  (9) 
331.625115156048

>  <Genealogy>  (9) 
O=C(N=c1[n-]c(Oc2ccc([O-])cc2)nc(=NC2CC2)[n-]1)[N-]c1ccccc1O (protonated)
O=C(N=c1[n-]c(Oc2ccc([O-])cc2)n/c(=N\C2CC2)[n-]1)[N-]c1ccccc1O (cis-trans isomerization)
O=C(N=c1[n-]c(Oc2ccc([O-])cc2)n/c(=N\C2CC2)[n-]1)[N-]c1ccccc1O (3D coordinates assigned)
O=C(N=c1[n-]c(Oc2ccc([O-])cc2)n/c(=N\C2CC2)[n-]1)[N-]c1ccccc1O (nonaromatic ring conformer: 331.625115156048 kcal/mol)

>  <smiles>  (9) 
O=C(N=c1[nH]c(Oc2ccc(O)cc2)nc(=NC2CC2)[nH]1)Nc1ccccc1O

>  <score_type>  (9) 
oracle

>  <origin>  (9) 
adg

>  <m_score__min__energy>  (9) 
-13.19

>  <m_primary>  (9) 
energy

$$$$
9:0
     RDKit          3D

 51 55  0  0  0  0  0  0  0  0999 V2000
   55.5300   29.7020   45.9920 H   0  0  0  0  0  0  0  0  0  0  0  0
   55.1780   29.4820   45.0900 O   0  0  0  0  0  0  0  0  0  0  0  0
   56.0640   30.0470   44.1630 C   0  0  0  0  0  0  0  0  0  0  0  0
   55.5133   30.7371   43.5069 H   0  0  0  0  0  0  0  0  0  0  0  0
   56.5189   29.2447   43.5636 H   0  0  0  0  0  0  0  0  0  0  0  0
   57.1520   30.8040   44.8830 C   0  0  0  0  0  0  0  0  0  0  0  0
   57.4930   32.0950   44.4560 C   0  0  0  0  0  0  0  0  0  0  0  0
   56.9509   32.5507   43.6143 H   0  0  0  0  0  0  0  0  0  0  0  0
   58.5170   32.8110   45.0900 C   0  0  0  0  0  0  0  0  0  0  0  0
   59.2650   32.2140   46.1220 C   0  0  0  0  0  0  0  0  0  0  0  0
   58.8990   30.9300   46.5690 C   0  0  0  0  0  0  0  0  0  0  0  0
   59.4330   30.4809   47.4194 H   0  0  0  0  0  0  0  0  0  0  0  0
   57.8610   30.2110   45.9460 C   0  0  0  0  0  0  0  0  0  0  0  0
   57.5090   28.9140   46.3570 O   0  0  0  0  0  0  0  0  0  0  0  0
   58.4350   27.9150   46.7710 C   0  0  0  0  0  0  0  0  0  0  0  0
   58.4685   27.8789   47.8699 H   0  0  0  0  0  0  0  0  0  0  0  0
   58.1173   26.9366   46.3815 H   0  0  0  0  0  0  0  0  0  0  0  0
   59.4347   28.1577   46.3815 H   0  0  0  0  0  0  0  0  0  0  0  0
   60.3500   32.9520   46.7430 N   0  0  0  0  0  0  0  0  0  0  0  0
   61.4550   32.2750   47.3740 C   0  0  0  0  0  0  0  0  0  0  0  0
   61.7530   31.0990   47.0320 O   0  0  0  0  0  0  0  0  0  0  0  0
   62.1850   32.9400   48.4210 N   0  0  0  0  0  0  0  0  0  0  0  0
   63.1920   32.5070   49.1290 C   0  0  0  0  0  0  0  0  0  0  0  0
   62.9480   31.5290   50.0620 N   0  0  0  0  0  0  0  0  0  0  0  0
   63.9240   31.0100   50.8640 C   0  0  0  0  0  0  0  0  0  0  0  0
   63.6969   30.2211   51.5962 H   0  0  0  0  0  0  0  0  0  0  0  0
   65.2100   31.5090   50.7260 C   0  0  0  0  0  0  0  0  0  0  0  0
   66.4080   31.2360   51.3500 C   0  0  0  0  0  0  0  0  0  0  0  0
   66.6610   30.1900   52.3920 C   0  0  0  0  0  0  0  0  0  0  0  0
   66.4326   30.8275   53.2588 H   0  0  0  0  0  0  0  0  0  0  0  0
   66.3020   28.7730   51.9700 C   0  0  0  0  0  0  0  0  0  0  0  0
   65.8992   28.0645   52.7088 H   0  0  0  0  0  0  0  0  0  0  0  0
   65.6574   28.3319   51.1954 H   0  0  0  0  0  0  0  0  0  0  0  0
   67.7590   29.1980   52.0410 C   0  0  0  0  0  0  0  0  0  0  0  0
   68.4108   28.7970   52.8311 H   0  0  0  0  0  0  0  0  0  0  0  0
   68.6058   29.1918   51.3389 H   0  0  0  0  0  0  0  0  0  0  0  0
   67.3670   32.0250   50.8050 N   0  0  0  0  0  0  0  0  0  0  0  0
   66.7970   32.7910   49.8810 N   0  0  0  0  0  0  0  0  0  0  0  0
   67.3020   33.4970   49.3010 H   0  0  0  0  0  0  0  0  0  0  0  0
   65.4900   32.4840   49.8200 C   0  0  0  0  0  0  0  0  0  0  0  0
   64.5100   33.0260   48.9950 C   0  0  0  0  0  0  0  0  0  0  0  0
   64.7436   33.8206   48.2711 H   0  0  0  0  0  0  0  0  0  0  0  0
   60.4930   34.4050   46.5390 C   0  0  0  0  0  0  0  0  0  0  0  0
   61.3712   34.5857   45.9017 H   0  0  0  0  0  0  0  0  0  0  0  0
   60.6055   34.8690   47.5300 H   0  0  0  0  0  0  0  0  0  0  0  0
   59.2650   35.0350   45.8710 C   0  0  0  0  0  0  0  0  0  0  0  0
   59.5134   36.0562   45.5464 H   0  0  0  0  0  0  0  0  0  0  0  0
   58.4381   35.0584   46.5960 H   0  0  0  0  0  0  0  0  0  0  0  0
   58.8360   34.2130   44.6590 C   0  0  0  0  0  0  0  0  0  0  0  0
   59.6527   34.1929   43.9224 H   0  0  0  0  0  0  0  0  0  0  0  0
   57.9431   34.6684   44.2057 H   0  0  0  0  0  0  0  0  0  0  0  0
  1  2  1  0
  2  3  1  0
  3  4  1  0
  3  5  1  0
  3  6  1  0
  6  7  2  0
  7  8  1  0
  7  9  1  0
  9 10  2  0
 10 11  1  0
 11 12  1  0
 11 13  2  0
 13 14  1  0
 14 15  1  0
 15 16  1  0
 15 17  1  0
 15 18  1  0
 10 19  1  0
 19 20  1  0
 20 21  2  0
 20 22  1  0
 22 23  2  0
 23 24  1  0
 24 25  1  0
 25 26  1  0
 25 27  2  0
 27 28  1  0
 28 29  1  0
 29 30  1  0
 29 31  1  0
 31 32  1  0
 31 33  1  0
 31 34  1  0
 34 35  1  0
 34 36  1  0
 28 37  2  0
 37 38  1  0
 38 39  1  0
 38 40  1  0
 40 41  2  0
 41 42  1  0
 19 43  1  0
 43 44  1  0
 43 45  1  0
 43 46  1  0
 46 47  1  0
 46 48  1  0
 46 49  1  0
 49 50  1  0
 49 51  1  0
 13  6  1  0
 41 23  1  0
 49  9  1  0
 40 27  1  0
 34 29  1  0
M  CHG  1  24  -1
M  END
>  <UniqueID>  (10) 
9

>  <SMILES>  (10) 
COc1cc2c(cc1CO)CCCN2C(=O)/N=c1\cc2[nH]nc(C3CC3)c2c[n-]1

>  <Energy>  (10) 
371.590192799354

>  <Genealogy>  (10) 
COc1cc2c(cc1CO)CCCN2C(=O)N=c1cc2[nH]nc(C3CC3)c2c[n-]1 (protonated)
COc1cc2c(cc1CO)CCCN2C(=O)/N=c1\cc2[nH]nc(C3CC3)c2c[n-]1 (cis-trans isomerization)
COc1cc2c(cc1CO)CCCN2C(=O)/N=c1\cc2[nH]nc(C3CC3)c2c[n-]1 (3D coordinates assigned)
COc1cc2c(cc1CO)CCCN2C(=O)/N=c1\cc2[nH]nc(C3CC3)c2c[n-]1 (nonaromatic ring conformer: 371.590192799354 kcal/mol)

>  <smiles>  (10) 
COc1cc2c(cc1CO)CCCN2C(=O)N=c1cc2[nH]nc(C3CC3)c2c[nH]1

>  <score_type>  (10) 
oracle

>  <origin>  (10) 
adg

>  <m_score__min__energy>  (10) 
-10.630000000000001

>  <m_primary>  (10) 
energy

$$$$
10:0
     RDKit          3D

 55 58  0  0  0  0  0  0  0  0999 V2000
   54.5170   31.0190   51.2180 O   0  0  0  0  0  0  0  0  0  0  0  0
   54.0120   30.5500   52.2740 C   0  0  0  0  0  0  0  0  0  0  0  0
   52.5270   30.3210   52.3370 C   0  0  0  0  0  0  0  0  0  0  0  0
   51.8520   30.7840   51.0800 C   0  0  0  0  0  0  0  0  0  0  0  0
   51.7600   30.0490   49.9570 N   0  0  0  0  0  0  0  0  0  0  0  0
   51.0530   30.8430   49.1240 C   0  0  0  0  0  0  0  0  0  0  0  0
   50.7600   30.5010   47.9510 O   0  0  0  0  0  0  0  0  0  0  0  0
   50.6810   32.0300   49.6490 N   0  0  0  0  0  0  0  0  0  0  0  0
   51.1930   31.9770   50.8890 C   0  0  0  0  0  0  0  0  0  0  0  0
   51.0600   32.9960   51.8280 O   0  0  0  0  0  0  0  0  0  0  0  0
   54.8830   30.1680   53.3450 N   0  0  0  0  0  0  0  0  0  0  0  0
   55.3000   28.8290   53.6430 C   0  0  0  0  0  0  0  0  0  0  0  0
   54.3490   27.8550   53.9870 C   0  0  0  0  0  0  0  0  0  0  0  0
   54.7480   26.5500   54.2800 C   0  0  0  0  0  0  0  0  0  0  0  0
   56.0990   26.2080   54.2390 C   0  0  0  0  0  0  0  0  0  0  0  0
   57.0570   27.1740   53.9250 C   0  0  0  0  0  0  0  0  0  0  0  0
   56.6730   28.4970   53.6490 C   0  0  0  0  0  0  0  0  0  0  0  0
   57.7270   29.5210   53.3010 C   0  0  0  0  0  0  0  0  0  0  0  0
   57.2890   30.3600   52.1840 N   0  0  0  0  0  0  0  0  0  0  0  0
   58.0030   31.5090   51.6910 C   0  0  0  0  0  0  0  0  0  0  0  0
   58.0160   32.6790   52.4640 C   0  0  0  0  0  0  0  0  0  0  0  0
   58.6680   33.8240   52.0080 C   0  0  0  0  0  0  0  0  0  0  0  0
   59.3070   33.8210   50.7690 C   0  0  0  0  0  0  0  0  0  0  0  0
   59.3110   32.6640   49.9740 C   0  0  0  0  0  0  0  0  0  0  0  0
   59.9420   32.7000   48.6320 C   0  0  0  0  0  0  0  0  0  0  0  0
   61.0780   32.1760   48.4740 O   0  0  0  0  0  0  0  0  0  0  0  0
   59.2870   33.3150   47.5050 N   0  0  0  0  0  0  0  0  0  0  0  0
   60.1270   33.9270   46.4710 C   0  0  0  0  0  0  0  0  0  0  0  0
   59.2850   34.8220   45.5610 C   0  0  0  0  0  0  0  0  0  0  0  0
   58.1670   34.1120   45.0670 O   0  0  0  0  0  0  0  0  0  0  0  0
   57.2950   33.8110   46.1370 C   0  0  0  0  0  0  0  0  0  0  0  0
   57.9510   32.8400   47.1260 C   0  0  0  0  0  0  0  0  0  0  0  0
   58.6600   31.5060   50.4420 C   0  0  0  0  0  0  0  0  0  0  0  0
   52.3353   29.2463   52.4721 H   0  0  0  0  0  0  0  0  0  0  0  0
   52.1217   30.8970   53.1820 H   0  0  0  0  0  0  0  0  0  0  0  0
   51.5270   32.9340   52.7230 H   0  0  0  0  0  0  0  0  0  0  0  0
   53.2826   28.1221   54.0258 H   0  0  0  0  0  0  0  0  0  0  0  0
   53.9964   25.7912   54.5433 H   0  0  0  0  0  0  0  0  0  0  0  0
   56.4107   25.1753   54.4544 H   0  0  0  0  0  0  0  0  0  0  0  0
   58.1211   26.8970   53.8935 H   0  0  0  0  0  0  0  0  0  0  0  0
   57.9146   30.1577   54.1782 H   0  0  0  0  0  0  0  0  0  0  0  0
   58.6465   28.9940   53.0063 H   0  0  0  0  0  0  0  0  0  0  0  0
   56.3580   30.1390   51.7640 H   0  0  0  0  0  0  0  0  0  0  0  0
   57.5071   32.6936   53.4391 H   0  0  0  0  0  0  0  0  0  0  0  0
   58.6782   34.7326   52.6279 H   0  0  0  0  0  0  0  0  0  0  0  0
   59.8113   34.7311   50.4120 H   0  0  0  0  0  0  0  0  0  0  0  0
   60.9097   34.5325   46.9513 H   0  0  0  0  0  0  0  0  0  0  0  0
   60.5838   33.1308   45.8649 H   0  0  0  0  0  0  0  0  0  0  0  0
   58.9361   35.6943   46.1331 H   0  0  0  0  0  0  0  0  0  0  0  0
   59.9031   35.1487   44.7118 H   0  0  0  0  0  0  0  0  0  0  0  0
   57.0380   34.7417   46.6640 H   0  0  0  0  0  0  0  0  0  0  0  0
   56.3907   33.3363   45.7284 H   0  0  0  0  0  0  0  0  0  0  0  0
   57.3250   32.7638   48.0273 H   0  0  0  0  0  0  0  0  0  0  0  0
   58.0472   31.8550   46.6459 H   0  0  0  0  0  0  0  0  0  0  0  0
   58.6637   30.5924   49.8294 H   0  0  0  0  0  0  0  0  0  0  0  0
  1  2  2  0
  2  3  1  0
  3  4  1  0
  4  5  1  0
  5  6  1  0
  6  7  2  0
  6  8  1  0
  8  9  1  0
  9 10  1  0
  2 11  1  0
 11 12  1  0
 12 13  2  0
 13 14  1  0
 14 15  2  0
 15 16  1  0
 16 17  2  0
 17 18  1  0
 18 19  1  0
 19 20  1  0
 20 21  2  0
 21 22  1  0
 22 23  2  0
 23 24  1  0
 24 25  1  0
 25 26  2  0
 25 27  1  0
 27 28  1  0
 28 29  1  0
 29 30  1  0
 30 31  1  0
 31 32  1  0
 24 33  2  0
  9  4  2  0
 17 12  1  0
 33 20  1  0
 32 27  1  0
  3 34  1  0
  3 35  1  0
 10 36  1  0
 13 37  1  0
 14 38  1  0
 15 39  1  0
 16 40  1  0
 18 41  1  0
 18 42  1  0
 19 43  1  0
 21 44  1  0
 22 45  1  0
 23 46  1  0
 28 47  1  0
 28 48  1  0
 29 49  1  0
 29 50  1  0
 31 51  1  0
 31 52  1  0
 32 53  1  0
 32 54  1  0
 33 55  1  0
M  CHG  3   5  -1   8  -1  11  -1
M  END
>  <UniqueID>  (11) 
10

>  <SMILES>  (11) 
O=C(Cc1[n-]c(=O)[n-]c1O)[N-]c1ccccc1CNc1cccc(C(=O)N2CCOCC2)c1

>  <Energy>  (11) 
94.40501645345057

>  <Genealogy>  (11) 
O=C(Cc1[n-]c(=O)[n-]c1O)[N-]c1ccccc1CNc1cccc(C(=O)N2CCOCC2)c1 (protonated)
O=C(Cc1[n-]c(=O)[n-]c1O)[N-]c1ccccc1CNc1cccc(C(=O)N2CCOCC2)c1 (3D coordinates assigned)
O=C(Cc1[n-]c(=O)[n-]c1O)[N-]c1ccccc1CNc1cccc(C(=O)N2CCOCC2)c1 (nonaromatic ring conformer: 94.40501645345057 kcal/mol)

>  <smiles>  (11) 
O=C(Cc1[nH]c(=O)[nH]c1O)Nc1ccccc1CNc1cccc(C(=O)N2CCOCC2)c1

>  <score_type>  (11) 
oracle

>  <origin>  (11) 
adg

>  <m_score__min__energy>  (11) 
-15.77

>  <m_primary>  (11) 
energy

$$$$
11:0
     RDKit          3D

 67 70  0  0  0  0  0  0  0  0999 V2000
   56.9030   30.7560   42.6770 C   0  0  0  0  0  0  0  0  0  0  0  0
   56.8610   30.8620   44.4570 S   0  0  0  0  0  0  0  0  0  0  0  0
   56.2910   32.1920   44.8650 O   0  0  0  0  0  0  0  0  0  0  0  0
   55.9630   29.7650   44.9570 O   0  0  0  0  0  0  0  0  0  0  0  0
   58.4530   30.6690   45.1420 N   0  0  0  0  0  0  0  0  0  0  0  0
   59.2970   29.5570   44.6980 C   0  0  0  0  0  0  0  0  0  0  0  0
   59.0250   28.3370   45.5350 C   0  0  0  0  0  0  0  0  0  0  0  0
   60.0720   27.7060   46.2210 C   0  0  0  0  0  0  0  0  0  0  0  0
   59.8210   26.5750   47.0000 C   0  0  0  0  0  0  0  0  0  0  0  0
   58.5280   26.0500   47.0810 C   0  0  0  0  0  0  0  0  0  0  0  0
   57.4720   26.6480   46.3740 C   0  0  0  0  0  0  0  0  0  0  0  0
   56.1080   26.0760   46.4440 C   0  0  0  0  0  0  0  0  0  0  0  0
   55.1200   26.7150   45.9920 O   0  0  0  0  0  0  0  0  0  0  0  0
   55.8980   24.8250   47.0140 O   0  0  0  0  0  0  0  0  0  0  0  0
   57.7310   27.7960   45.6010 C   0  0  0  0  0  0  0  0  0  0  0  0
   58.9980   31.6660   46.0230 C   0  0  0  0  0  0  0  0  0  0  0  0
   58.7570   32.8840   45.8010 O   0  0  0  0  0  0  0  0  0  0  0  0
   59.8430   31.2950   47.1790 C   0  0  0  0  0  0  0  0  0  0  0  0
   61.2230   31.5530   47.1520 C   0  0  0  0  0  0  0  0  0  0  0  0
   62.0250   31.2210   48.2460 C   0  0  0  0  0  0  0  0  0  0  0  0
   61.4620   30.6220   49.3730 C   0  0  0  0  0  0  0  0  0  0  0  0
   60.0870   30.3370   49.4170 C   0  0  0  0  0  0  0  0  0  0  0  0
   59.5110   29.6690   50.5570 N   0  0  0  0  0  0  0  0  0  0  0  0
   60.4680   28.7490   51.1000 C   0  0  0  0  0  0  0  0  0  0  0  0
   61.4010   28.7640   52.1300 C   0  0  0  0  0  0  0  0  0  0  0  0
   61.8040   29.6710   53.1590 N   0  0  0  0  0  0  0  0  0  0  0  0
   60.9400   29.9960   54.2910 C   0  0  0  0  0  0  0  0  0  0  0  0
   60.0240   31.1800   53.9630 C   0  0  0  0  0  0  0  0  0  0  0  0
   58.9690   30.7710   53.0080 N   0  0  0  0  0  0  0  0  0  0  0  0
   58.0740   29.7510   53.5940 C   0  0  0  0  0  0  0  0  0  0  0  0
   56.9660   29.3680   52.5900 C   0  0  0  0  0  0  0  0  0  0  0  0
   57.0690   30.1030   51.3850 O   0  0  0  0  0  0  0  0  0  0  0  0
   57.0080   31.4890   51.6650 C   0  0  0  0  0  0  0  0  0  0  0  0
   58.1720   31.9350   52.5750 C   0  0  0  0  0  0  0  0  0  0  0  0
   61.8180   27.4980   51.7620 C   0  0  0  0  0  0  0  0  0  0  0  0
   62.6840   26.6890   52.1870 O   0  0  0  0  0  0  0  0  0  0  0  0
   60.8960   27.4880   50.7370 C   0  0  0  0  0  0  0  0  0  0  0  0
   60.5780   26.6680   49.8380 O   0  0  0  0  0  0  0  0  0  0  0  0
   59.2850   30.6710   48.3090 C   0  0  0  0  0  0  0  0  0  0  0  0
   57.2929   29.7720   42.3774 H   0  0  0  0  0  0  0  0  0  0  0  0
   55.8860   30.8845   42.2779 H   0  0  0  0  0  0  0  0  0  0  0  0
   57.5560   31.5462   42.2779 H   0  0  0  0  0  0  0  0  0  0  0  0
   59.0775   29.3317   43.6439 H   0  0  0  0  0  0  0  0  0  0  0  0
   60.3541   29.8408   44.8071 H   0  0  0  0  0  0  0  0  0  0  0  0
   61.0949   28.1034   46.1453 H   0  0  0  0  0  0  0  0  0  0  0  0
   60.6431   26.0956   47.5517 H   0  0  0  0  0  0  0  0  0  0  0  0
   58.3364   25.1628   47.7024 H   0  0  0  0  0  0  0  0  0  0  0  0
   56.9118   28.2736   45.0435 H   0  0  0  0  0  0  0  0  0  0  0  0
   61.6749   32.0193   46.2641 H   0  0  0  0  0  0  0  0  0  0  0  0
   63.1041   31.4325   48.2189 H   0  0  0  0  0  0  0  0  0  0  0  0
   62.0994   30.3709   50.2337 H   0  0  0  0  0  0  0  0  0  0  0  0
   58.6620   29.1340   50.2620 H   0  0  0  0  0  0  0  0  0  0  0  0
   59.2190   30.3540   51.2890 H   0  0  0  0  0  0  0  0  0  0  0  0
   62.7840   30.0360   53.1270 H   0  0  0  0  0  0  0  0  0  0  0  0
   60.3213   29.1196   54.5341 H   0  0  0  0  0  0  0  0  0  0  0  0
   61.5738   30.2709   55.1470 H   0  0  0  0  0  0  0  0  0  0  0  0
   59.5534   31.5410   54.8894 H   0  0  0  0  0  0  0  0  0  0  0  0
   60.6261   31.9796   53.5067 H   0  0  0  0  0  0  0  0  0  0  0  0
   58.6608   28.8552   53.8456 H   0  0  0  0  0  0  0  0  0  0  0  0
   57.6074   30.1637   54.5006 H   0  0  0  0  0  0  0  0  0  0  0  0
   57.0492   28.2954   52.3606 H   0  0  0  0  0  0  0  0  0  0  0  0
   55.9941   29.6009   53.0495 H   0  0  0  0  0  0  0  0  0  0  0  0
   57.0603   32.0473   50.7186 H   0  0  0  0  0  0  0  0  0  0  0  0
   56.0628   31.6935   52.1892 H   0  0  0  0  0  0  0  0  0  0  0  0
   58.8192   32.6297   52.0196 H   0  0  0  0  0  0  0  0  0  0  0  0
   57.7563   32.4306   53.4647 H   0  0  0  0  0  0  0  0  0  0  0  0
   58.2094   30.4412   48.3275 H   0  0  0  0  0  0  0  0  0  0  0  0
  1  2  1  0
  2  3  2  0
  2  4  2  0
  2  5  1  0
  5  6  1  0
  6  7  1  0
  7  8  2  0
  8  9  1  0
  9 10  2  0
 10 11  1  0
 11 12  1  0
 12 13  2  0
 12 14  1  0
 11 15  2  0
  5 16  1  0
 16 17  2  0
 16 18  1  0
 18 19  2  0
 19 20  1  0
 20 21  2  0
 21 22  1  0
 22 23  1  0
 23 24  1  0
 24 25  2  0
 25 26  1  0
 26 27  1  0
 27 28  1  0
 28 29  1  0
 29 30  1  0
 30 31  1  0
 31 32  1  0
 32 33  1  0
 33 34  1  0
 25 35  1  0
 35 36  2  0
 35 37  1  0
 37 38  2  0
 22 39  2  0
 15  7  1  0
 39 18  1  0
 37 24  1  0
 34 29  1  0
  1 40  1  0
  1 41  1  0
  1 42  1  0
  6 43  1  0
  6 44  1  0
  8 45  1  0
  9 46  1  0
 10 47  1  0
 15 48  1  0
 19 49  1  0
 20 50  1  0
 21 51  1  0
 23 52  1  0
 23 53  1  0
 26 54  1  0
 27 55  1  0
 27 56  1  0
 28 57  1  0
 28 58  1  0
 30 59  1  0
 30 60  1  0
 31 61  1  0
 31 62  1  0
 33 63  1  0
 33 64  1  0
 34 65  1  0
 34 66  1  0
 39 67  1  0
M  CHG  2  14  -1  23   1
M  END
>  <UniqueID>  (12) 
11

>  <SMILES>  (12) 
CS(=O)(=O)N(Cc1cccc(C(=O)[O-])c1)C(=O)c1cccc([NH2+]c2c(NCCN3CCOCC3)c(=O)c2=O)c1

>  <Energy>  (12) 
66.12107379027505

>  <Genealogy>  (12) 
CS(=O)(=O)N(Cc1cccc(C(=O)[O-])c1)C(=O)c1cccc([NH2+]c2c(NCCN3CCOCC3)c(=O)c2=O)c1 (protonated)
CS(=O)(=O)N(Cc1cccc(C(=O)[O-])c1)C(=O)c1cccc([NH2+]c2c(NCCN3CCOCC3)c(=O)c2=O)c1 (3D coordinates assigned)
CS(=O)(=O)N(Cc1cccc(C(=O)[O-])c1)C(=O)c1cccc([NH2+]c2c(NCCN3CCOCC3)c(=O)c2=O)c1 (nonaromatic ring conformer: 66.12107379027505 kcal/mol)

>  <smiles>  (12) 
CS(=O)(=O)N(Cc1cccc(C(=O)O)c1)C(=O)c1cccc(Nc2c(NCCN3CCOCC3)c(=O)c2=O)c1

>  <score_type>  (12) 
oracle

>  <origin>  (12) 
adg

>  <m_score__min__energy>  (12) 
-11.960000000000001

>  <m_primary>  (12) 
energy

$$$$
12:0
     RDKit          3D

 64 67  0  0  0  0  0  0  0  0999 V2000
   57.7580   32.4900   41.3180 C   0  0  0  0  0  0  0  0  0  0  0  0
   57.4710   32.4800   42.7120 O   0  0  0  0  0  0  0  0  0  0  0  0
   57.4260   31.3240   43.5080 C   0  0  0  0  0  0  0  0  0  0  0  0
   57.0150   30.0810   42.9900 C   0  0  0  0  0  0  0  0  0  0  0  0
   56.9770   28.9510   43.8100 C   0  0  0  0  0  0  0  0  0  0  0  0
   57.3360   29.0430   45.1610 C   0  0  0  0  0  0  0  0  0  0  0  0
   57.3240   27.8160   46.0320 C   0  0  0  0  0  0  0  0  0  0  0  0
   58.7000   27.5570   46.5830 C   0  0  0  0  0  0  0  0  0  0  0  0
   59.6600   27.3960   45.7840 O   0  0  0  0  0  0  0  0  0  0  0  0
   58.9370   27.3970   47.9870 N   0  0  0  0  0  0  0  0  0  0  0  0
   59.6330   28.3160   48.8400 C   0  0  0  0  0  0  0  0  0  0  0  0
   60.8230   27.9530   49.4940 C   0  0  0  0  0  0  0  0  0  0  0  0
   61.4570   28.8560   50.3510 C   0  0  0  0  0  0  0  0  0  0  0  0
   60.9020   30.1180   50.5740 C   0  0  0  0  0  0  0  0  0  0  0  0
   59.7060   30.4820   49.9430 C   0  0  0  0  0  0  0  0  0  0  0  0
   58.9890   32.0590   50.2670 S   0  0  0  0  0  0  0  0  0  0  0  0
   57.8600   32.3090   49.3050 O   0  0  0  0  0  0  0  0  0  0  0  0
   60.0390   33.1110   50.0440 O   0  0  0  0  0  0  0  0  0  0  0  0
   58.4220   32.1560   51.9230 N   0  0  0  0  0  0  0  0  0  0  0  0
   58.7640   30.9490   52.6970 C   0  0  0  0  0  0  0  0  0  0  0  0
   57.8960   29.7330   52.2970 C   0  0  0  0  0  0  0  0  0  0  0  0
   56.7050   30.0850   51.6120 O   0  0  0  0  0  0  0  0  0  0  0  0
   56.1080   31.2120   52.2150 C   0  0  0  0  0  0  0  0  0  0  0  0
   56.9760   32.4650   51.9880 C   0  0  0  0  0  0  0  0  0  0  0  0
   59.0680   29.5710   49.0880 C   0  0  0  0  0  0  0  0  0  0  0  0
   57.7590   30.2760   45.6790 C   0  0  0  0  0  0  0  0  0  0  0  0
   57.8020   31.4150   44.8620 C   0  0  0  0  0  0  0  0  0  0  0  0
   58.3110   32.9660   45.5350 S   0  0  0  0  0  0  0  0  0  0  0  0
   58.1560   34.0570   44.5090 O   0  0  0  0  0  0  0  0  0  0  0  0
   57.4420   33.2850   46.7170 O   0  0  0  0  0  0  0  0  0  0  0  0
   59.9800   32.8600   46.0370 N   0  0  0  0  0  0  0  0  0  0  0  0
   60.3070   33.9780   46.9380 C   0  0  0  0  0  0  0  0  0  0  0  0
   61.7450   33.8290   47.4790 C   0  0  0  0  0  0  0  0  0  0  0  0
   62.3870   32.6840   46.9500 O   0  0  0  0  0  0  0  0  0  0  0  0
   61.6480   31.5250   47.2910 C   0  0  0  0  0  0  0  0  0  0  0  0
   60.2170   31.5760   46.7160 C   0  0  0  0  0  0  0  0  0  0  0  0
   58.8471   32.5280   41.1681 H   0  0  0  0  0  0  0  0  0  0  0  0
   57.3556   31.5773   40.8542 H   0  0  0  0  0  0  0  0  0  0  0  0
   57.2931   33.3725   40.8542 H   0  0  0  0  0  0  0  0  0  0  0  0
   56.7220   29.9993   41.9329 H   0  0  0  0  0  0  0  0  0  0  0  0
   56.6633   27.9829   43.3925 H   0  0  0  0  0  0  0  0  0  0  0  0
   56.6218   27.9684   46.8648 H   0  0  0  0  0  0  0  0  0  0  0  0
   57.0097   26.9510   45.4295 H   0  0  0  0  0  0  0  0  0  0  0  0
   61.2563   26.9552   49.3306 H   0  0  0  0  0  0  0  0  0  0  0  0
   62.3949   28.5725   50.8510 H   0  0  0  0  0  0  0  0  0  0  0  0
   61.4055   30.8277   51.2469 H   0  0  0  0  0  0  0  0  0  0  0  0
   59.8215   30.7028   52.5205 H   0  0  0  0  0  0  0  0  0  0  0  0
   58.5749   31.1641   53.7591 H   0  0  0  0  0  0  0  0  0  0  0  0
   58.4928   29.0800   51.6433 H   0  0  0  0  0  0  0  0  0  0  0  0
   57.5954   29.2314   53.2287 H   0  0  0  0  0  0  0  0  0  0  0  0
   55.1136   31.3751   51.7739 H   0  0  0  0  0  0  0  0  0  0  0  0
   56.0167   31.0320   53.2963 H   0  0  0  0  0  0  0  0  0  0  0  0
   56.6740   32.9350   51.0404 H   0  0  0  0  0  0  0  0  0  0  0  0
   56.8187   33.1369   52.8446 H   0  0  0  0  0  0  0  0  0  0  0  0
   58.1165   29.8458   48.6092 H   0  0  0  0  0  0  0  0  0  0  0  0
   58.0594   30.3501   46.7346 H   0  0  0  0  0  0  0  0  0  0  0  0
   60.2239   34.9254   46.3853 H   0  0  0  0  0  0  0  0  0  0  0  0
   59.6045   33.9718   47.7844 H   0  0  0  0  0  0  0  0  0  0  0  0
   62.3243   34.7223   47.2025 H   0  0  0  0  0  0  0  0  0  0  0  0
   61.6905   33.7175   48.5720 H   0  0  0  0  0  0  0  0  0  0  0  0
   62.1637   30.6410   46.8878 H   0  0  0  0  0  0  0  0  0  0  0  0
   61.5772   31.4715   48.3874 H   0  0  0  0  0  0  0  0  0  0  0  0
   60.0872   30.7557   45.9947 H   0  0  0  0  0  0  0  0  0  0  0  0
   59.4978   31.4721   47.5418 H   0  0  0  0  0  0  0  0  0  0  0  0
  1  2  1  0
  2  3  1  0
  3  4  2  0
  4  5  1  0
  5  6  2  0
  6  7  1  0
  7  8  1  0
  8  9  2  0
  8 10  1  0
 10 11  1  0
 11 12  2  0
 12 13  1  0
 13 14  2  0
 14 15  1  0
 15 16  1  0
 16 17  2  0
 16 18  2  0
 16 19  1  0
 19 20  1  0
 20 21  1  0
 21 22  1  0
 22 23  1  0
 23 24  1  0
 15 25  2  0
  6 26  1  0
 26 27  2  0
 27 28  1  0
 28 29  2  0
 28 30  2  0
 28 31  1  0
 31 32  1  0
 32 33  1  0
 33 34  1  0
 34 35  1  0
 35 36  1  0
 27  3  1  0
 36 31  1  0
 25 11  1  0
 24 19  1  0
  1 37  1  0
  1 38  1  0
  1 39  1  0
  4 40  1  0
  5 41  1  0
  7 42  1  0
  7 43  1  0
 12 44  1  0
 13 45  1  0
 14 46  1  0
 20 47  1  0
 20 48  1  0
 21 49  1  0
 21 50  1  0
 23 51  1  0
 23 52  1  0
 24 53  1  0
 24 54  1  0
 25 55  1  0
 26 56  1  0
 32 57  1  0
 32 58  1  0
 33 59  1  0
 33 60  1  0
 35 61  1  0
 35 62  1  0
 36 63  1  0
 36 64  1  0
M  CHG  1  10  -1
M  END
>  <UniqueID>  (13) 
12

>  <SMILES>  (13) 
COc1ccc(CC(=O)[N-]c2cccc(S(=O)(=O)N3CCOCC3)c2)cc1S(=O)(=O)N1CCOCC1

>  <Energy>  (13) 
87.24999412014343

>  <Genealogy>  (13) 
COc1ccc(CC(=O)[N-]c2cccc(S(=O)(=O)N3CCOCC3)c2)cc1S(=O)(=O)N1CCOCC1 (protonated)
COc1ccc(CC(=O)[N-]c2cccc(S(=O)(=O)N3CCOCC3)c2)cc1S(=O)(=O)N1CCOCC1 (3D coordinates assigned)
COc1ccc(CC(=O)[N-]c2cccc(S(=O)(=O)N3CCOCC3)c2)cc1S(=O)(=O)N1CCOCC1 (nonaromatic ring conformer: 87.24999412014343 kcal/mol)

>  <smiles>  (13) 
COc1ccc(CC(=O)Nc2cccc(S(=O)(=O)N3CCOCC3)c2)cc1S(=O)(=O)N1CCOCC1

>  <score_type>  (13) 
oracle

>  <origin>  (13) 
adg

>  <m_score__min__energy>  (13) 
-12.539999999999999

>  <m_primary>  (13) 
energy

$$$$
13:0
     RDKit          3D

 71 75  0  0  0  0  0  0  0  0999 V2000
   57.7580   32.3540   41.0810 C   0  0  0  0  0  0  0  0  0  0  0  0
   57.4450   31.8860   42.3870 O   0  0  0  0  0  0  0  0  0  0  0  0
   57.9110   32.5120   43.5500 C   0  0  0  0  0  0  0  0  0  0  0  0
   58.9100   33.4330   43.4850 N   0  0  0  0  0  0  0  0  0  0  0  0
   59.3780   34.0760   44.5870 C   0  0  0  0  0  0  0  0  0  0  0  0
   58.7960   33.8410   45.8470 C   0  0  0  0  0  0  0  0  0  0  0  0
   59.2700   34.5250   47.0860 C   0  0  0  0  0  0  0  0  0  0  0  0
   58.9120   35.7200   47.3140 O   0  0  0  0  0  0  0  0  0  0  0  0
   60.1180   33.8560   48.0940 C   0  0  0  0  0  0  0  0  0  0  0  0
   59.8590   33.6930   49.4500 C   0  0  0  0  0  0  0  0  0  0  0  0
   60.8600   32.9980   50.0520 N   0  0  0  0  0  0  0  0  0  0  0  0
   60.9690   32.6930   51.4910 C   0  0  0  0  0  0  0  0  0  0  0  0
   59.7210   33.1460   52.2660 C   0  0  0  0  0  0  0  0  0  0  0  0
   62.2290   33.3390   52.0690 C   0  0  0  0  0  0  0  0  0  0  0  0
   61.7700   32.7440   49.0790 C   0  0  0  0  0  0  0  0  0  0  0  0
   63.0240   32.1200   49.1760 C   0  0  0  0  0  0  0  0  0  0  0  0
   63.5420   31.6820   50.3510 F   0  0  0  0  0  0  0  0  0  0  0  0
   63.7730   31.9830   47.9930 C   0  0  0  0  0  0  0  0  0  0  0  0
   63.2910   32.4590   46.8020 N   0  0  0  0  0  0  0  0  0  0  0  0
   62.0830   33.0860   46.7120 C   0  0  0  0  0  0  0  0  0  0  0  0
   61.3260   33.2300   47.8750 C   0  0  0  0  0  0  0  0  0  0  0  0
   57.7730   32.8780   45.9290 C   0  0  0  0  0  0  0  0  0  0  0  0
   57.3500   32.1790   44.7860 C   0  0  0  0  0  0  0  0  0  0  0  0
   56.3380   31.1620   44.8490 N   0  0  0  0  0  0  0  0  0  0  0  0
   56.5820   29.7470   44.8680 C   0  0  0  0  0  0  0  0  0  0  0  0
   55.6370   28.9390   45.0860 O   0  0  0  0  0  0  0  0  0  0  0  0
   57.9600   29.2330   44.5680 C   0  0  0  0  0  0  0  0  0  0  0  0
   58.6740   28.7960   45.8230 C   0  0  0  0  0  0  0  0  0  0  0  0
   59.3290   27.5570   45.8780 C   0  0  0  0  0  0  0  0  0  0  0  0
   60.0490   27.1900   47.0190 C   0  0  0  0  0  0  0  0  0  0  0  0
   60.1390   28.0640   48.1060 C   0  0  0  0  0  0  0  0  0  0  0  0
   59.5020   29.3130   48.0590 C   0  0  0  0  0  0  0  0  0  0  0  0
   59.6580   30.3050   49.1850 C   0  0  0  0  0  0  0  0  0  0  0  0
   58.5900   30.1090   50.1880 N   0  0  0  0  0  0  0  0  0  0  0  0
   59.1400   29.5560   51.4390 C   0  0  0  0  0  0  0  0  0  0  0  0
   58.0030   29.3220   52.4610 C   0  0  0  0  0  0  0  0  0  0  0  0
   56.7620   29.8450   52.0110 O   0  0  0  0  0  0  0  0  0  0  0  0
   56.9160   31.2100   51.6700 C   0  0  0  0  0  0  0  0  0  0  0  0
   57.8750   31.3740   50.4710 C   0  0  0  0  0  0  0  0  0  0  0  0
   58.7680   29.6710   46.9170 C   0  0  0  0  0  0  0  0  0  0  0  0
   58.3681   33.2663   41.1549 H   0  0  0  0  0  0  0  0  0  0  0  0
   58.3205   31.5795   40.5390 H   0  0  0  0  0  0  0  0  0  0  0  0
   56.8274   32.5781   40.5390 H   0  0  0  0  0  0  0  0  0  0  0  0
   60.2153   34.7833   44.4940 H   0  0  0  0  0  0  0  0  0  0  0  0
   58.9654   34.0746   49.9657 H   0  0  0  0  0  0  0  0  0  0  0  0
   61.0421   31.6010   51.6016 H   0  0  0  0  0  0  0  0  0  0  0  0
   59.9148   33.0757   53.3465 H   0  0  0  0  0  0  0  0  0  0  0  0
   59.4841   34.1875   52.0030 H   0  0  0  0  0  0  0  0  0  0  0  0
   58.8712   32.4990   52.0030 H   0  0  0  0  0  0  0  0  0  0  0  0
   62.1823   33.3151   53.1677 H   0  0  0  0  0  0  0  0  0  0  0  0
   63.1152   32.7841   51.7275 H   0  0  0  0  0  0  0  0  0  0  0  0
   62.2957   34.3825   51.7275 H   0  0  0  0  0  0  0  0  0  0  0  0
   64.7553   31.4889   48.0245 H   0  0  0  0  0  0  0  0  0  0  0  0
   61.7155   33.4679   45.7481 H   0  0  0  0  0  0  0  0  0  0  0  0
   57.2989   32.6701   46.8996 H   0  0  0  0  0  0  0  0  0  0  0  0
   57.8801   28.3743   43.8851 H   0  0  0  0  0  0  0  0  0  0  0  0
   58.5389   30.0475   44.1081 H   0  0  0  0  0  0  0  0  0  0  0  0
   59.2760   26.8710   45.0197 H   0  0  0  0  0  0  0  0  0  0  0  0
   60.5464   26.2098   47.0613 H   0  0  0  0  0  0  0  0  0  0  0  0
   60.7101   27.7721   48.9996 H   0  0  0  0  0  0  0  0  0  0  0  0
   60.6376   30.1602   49.6640 H   0  0  0  0  0  0  0  0  0  0  0  0
   59.5865   31.3246   48.7783 H   0  0  0  0  0  0  0  0  0  0  0  0
   59.6398   28.5997   51.2254 H   0  0  0  0  0  0  0  0  0  0  0  0
   59.8628   30.2696   51.8613 H   0  0  0  0  0  0  0  0  0  0  0  0
   57.8925   28.2402   52.6266 H   0  0  0  0  0  0  0  0  0  0  0  0
   58.2722   29.8437   53.3913 H   0  0  0  0  0  0  0  0  0  0  0  0
   55.9336   31.6280   51.4051 H   0  0  0  0  0  0  0  0  0  0  0  0
   57.3399   31.7423   52.5343 H   0  0  0  0  0  0  0  0  0  0  0  0
   57.2947   31.6658   49.5833 H   0  0  0  0  0  0  0  0  0  0  0  0
   58.6162   32.1484   50.7179 H   0  0  0  0  0  0  0  0  0  0  0  0
   58.2615   30.6467   46.8790 H   0  0  0  0  0  0  0  0  0  0  0  0
  1  2  1  0
  2  3  1  0
  3  4  2  0
  4  5  1  0
  5  6  2  0
  6  7  1  0
  7  8  2  0
  7  9  1  0
  9 10  2  0
 10 11  1  0
 11 12  1  0
 12 13  1  0
 12 14  1  0
 11 15  1  0
 15 16  2  0
 16 17  1  0
 16 18  1  0
 18 19  2  0
 19 20  1  0
 20 21  2  0
  6 22  1  0
 22 23  2  0
 23 24  1  0
 24 25  1  0
 25 26  2  0
 25 27  1  0
 27 28  1  0
 28 29  2  0
 29 30  1  0
 30 31  2  0
 31 32  1  0
 32 33  1  0
 33 34  1  0
 34 35  1  0
 35 36  1  0
 36 37  1  0
 37 38  1  0
 38 39  1  0
 32 40  2  0
 23  3  1  0
 40 28  1  0
 21  9  1  0
 39 34  1  0
 21 15  1  0
  1 41  1  0
  1 42  1  0
  1 43  1  0
  5 44  1  0
 10 45  1  0
 12 46  1  0
 13 47  1  0
 13 48  1  0
 13 49  1  0
 14 50  1  0
 14 51  1  0
 14 52  1  0
 18 53  1  0
 20 54  1  0
 22 55  1  0
 27 56  1  0
 27 57  1  0
 29 58  1  0
 30 59  1  0
 31 60  1  0
 33 61  1  0
 33 62  1  0
 35 63  1  0
 35 64  1  0
 36 65  1  0
 36 66  1  0
 38 67  1  0
 38 68  1  0
 39 69  1  0
 39 70  1  0
 40 71  1  0
M  CHG  1  24  -1
M  END
>  <UniqueID>  (14) 
13

>  <SMILES>  (14) 
COc1ncc(C(=O)c2cn(C(C)C)c3c(F)cncc23)cc1[N-]C(=O)Cc1cccc(CN2CCOCC2)c1

>  <Energy>  (14) 
127.3045948287916

>  <Genealogy>  (14) 
COc1ncc(C(=O)c2cn(C(C)C)c3c(F)cncc23)cc1[N-]C(=O)Cc1cccc(CN2CCOCC2)c1 (protonated)
COc1ncc(C(=O)c2cn(C(C)C)c3c(F)cncc23)cc1[N-]C(=O)Cc1cccc(CN2CCOCC2)c1 (3D coordinates assigned)
COc1ncc(C(=O)c2cn(C(C)C)c3c(F)cncc23)cc1[N-]C(=O)Cc1cccc(CN2CCOCC2)c1 (nonaromatic ring conformer: 127.3045948287916 kcal/mol)

>  <smiles>  (14) 
COc1ncc(C(=O)c2cn(C(C)C)c3c(F)cncc23)cc1NC(=O)Cc1cccc(CN2CCOCC2)c1

>  <score_type>  (14) 
oracle

>  <origin>  (14) 
adg

>  <m_score__min__energy>  (14) 
-11.77

>  <m_primary>  (14) 
energy

$$$$
14:0
     RDKit          3D

 58 59  0  0  0  0  0  0  0  0999 V2000
   65.9640   30.5090   51.6160 C   0  0  0  0  0  0  0  0  0  0  0  0
   65.2050   31.5860   51.8230 C   0  0  0  0  0  0  0  0  0  0  0  0
   64.6390   32.3950   50.7270 C   0  0  0  0  0  0  0  0  0  0  0  0
   64.5610   32.0630   49.3870 C   0  0  0  0  0  0  0  0  0  0  0  0
   63.9480   33.1580   48.8130 C   0  0  0  0  0  0  0  0  0  0  0  0
   63.5700   33.2950   47.3700 C   0  0  0  0  0  0  0  0  0  0  0  0
   62.1550   33.7730   47.2350 C   0  0  0  0  0  0  0  0  0  0  0  0
   61.6710   33.9700   46.0850 O   0  0  0  0  0  0  0  0  0  0  0  0
   61.3720   34.0580   48.4040 N   0  0  0  0  0  0  0  0  0  0  0  0
   60.0220   34.6090   48.3270 C   0  0  0  0  0  0  0  0  0  0  0  0
   59.1910   33.8260   47.3450 C   0  0  0  0  0  0  0  0  0  0  0  0
   59.0770   32.4300   47.4570 C   0  0  0  0  0  0  0  0  0  0  0  0
   58.3210   31.7080   46.5290 C   0  0  0  0  0  0  0  0  0  0  0  0
   57.6750   32.3690   45.4730 C   0  0  0  0  0  0  0  0  0  0  0  0
   56.8470   31.5850   44.4920 C   0  0  0  0  0  0  0  0  0  0  0  0
   57.3300   30.2120   44.4100 N   0  0  0  0  0  0  0  0  0  0  0  0
   56.7480   29.1240   45.1360 C   0  0  0  0  0  0  0  0  0  0  0  0
   55.5010   28.9680   45.1570 O   0  0  0  0  0  0  0  0  0  0  0  0
   57.5800   28.1990   45.8420 N   0  0  0  0  0  0  0  0  0  0  0  0
   58.6010   27.3740   45.1990 C   0  0  2  0  0  0  0  0  0  0  0  0
   58.1420   26.9760   43.8210 C   0  0  0  0  0  0  0  0  0  0  0  0
   57.4220   26.0020   43.6690 O   0  0  0  0  0  0  0  0  0  0  0  0
   58.8710   26.1240   46.0520 C   0  0  0  0  0  0  0  0  0  0  0  0
   58.0940   26.1590   47.3780 C   0  0  0  0  0  0  0  0  0  0  0  0
   56.9680   25.1120   47.4450 C   0  0  0  0  0  0  0  0  0  0  0  0
   56.0160   25.1460   46.2390 C   0  0  0  0  0  0  0  0  0  0  0  0
   55.5410   26.5030   45.9850 N   0  0  0  0  0  0  0  0  0  0  0  0
   57.7800   33.7650   45.3670 C   0  0  0  0  0  0  0  0  0  0  0  0
   58.5340   34.4880   46.2960 C   0  0  0  0  0  0  0  0  0  0  0  0
   63.6660   34.0750   49.7570 N   0  0  0  0  0  0  0  0  0  0  0  0
   64.0920   33.6120   50.9230 N   0  0  0  0  0  0  0  0  0  0  0  0
   66.3600   29.9425   52.4717 H   0  0  0  0  0  0  0  0  0  0  0  0
   66.1939   30.1872   50.5896 H   0  0  0  0  0  0  0  0  0  0  0  0
   64.9910   31.8850   52.8597 H   0  0  0  0  0  0  0  0  0  0  0  0
   64.9065   31.1422   48.8942 H   0  0  0  0  0  0  0  0  0  0  0  0
   64.2431   34.0191   46.8877 H   0  0  0  0  0  0  0  0  0  0  0  0
   63.6581   32.3108   46.8867 H   0  0  0  0  0  0  0  0  0  0  0  0
   61.7840   33.8850   49.3490 H   0  0  0  0  0  0  0  0  0  0  0  0
   59.5526   34.5584   49.3205 H   0  0  0  0  0  0  0  0  0  0  0  0
   60.0818   35.6545   47.9902 H   0  0  0  0  0  0  0  0  0  0  0  0
   59.5848   31.9031   48.2783 H   0  0  0  0  0  0  0  0  0  0  0  0
   58.2320   30.6160   46.6270 H   0  0  0  0  0  0  0  0  0  0  0  0
   55.7979   31.5820   44.8227 H   0  0  0  0  0  0  0  0  0  0  0  0
   56.9266   32.0534   43.4999 H   0  0  0  0  0  0  0  0  0  0  0  0
   59.5328   27.9516   45.1092 H   0  0  0  0  0  0  0  0  0  0  0  0
   58.4570   27.5657   42.9474 H   0  0  0  0  0  0  0  0  0  0  0  0
   58.5661   25.2327   45.4840 H   0  0  0  0  0  0  0  0  0  0  0  0
   59.9454   26.0952   46.2859 H   0  0  0  0  0  0  0  0  0  0  0  0
   58.7981   25.9693   48.2016 H   0  0  0  0  0  0  0  0  0  0  0  0
   57.6251   27.1509   47.4577 H   0  0  0  0  0  0  0  0  0  0  0  0
   57.4259   24.1132   47.4971 H   0  0  0  0  0  0  0  0  0  0  0  0
   56.3656   25.3463   48.3351 H   0  0  0  0  0  0  0  0  0  0  0  0
   56.5491   24.7792   45.3495 H   0  0  0  0  0  0  0  0  0  0  0  0
   55.1484   24.5067   46.4594 H   0  0  0  0  0  0  0  0  0  0  0  0
   55.8980   27.1170   46.7510 H   0  0  0  0  0  0  0  0  0  0  0  0
   55.9800   26.8430   45.0990 H   0  0  0  0  0  0  0  0  0  0  0  0
   57.2667   34.2922   44.5493 H   0  0  0  0  0  0  0  0  0  0  0  0
   58.6128   35.5813   46.2045 H   0  0  0  0  0  0  0  0  0  0  0  0
  1  2  2  0
  2  3  1  0
  3  4  1  0
  4  5  2  0
  5  6  1  0
  6  7  1  0
  7  8  2  0
  7  9  1  0
  9 10  1  0
 10 11  1  0
 11 12  2  0
 12 13  1  0
 13 14  2  0
 14 15  1  0
 15 16  1  0
 16 17  1  0
 17 18  2  0
 17 19  1  0
 19 20  1  0
 20 21  1  0
 21 22  2  0
 20 23  1  0
 23 24  1  0
 24 25  1  0
 25 26  1  0
 26 27  1  0
 14 28  1  0
 28 29  2  0
  5 30  1  0
 30 31  1  0
 31  3  2  0
 29 11  1  0
  1 32  1  0
  1 33  1  0
  2 34  1  0
  4 35  1  0
  6 36  1  0
  6 37  1  0
  9 38  1  0
 10 39  1  0
 10 40  1  0
 12 41  1  0
 13 42  1  0
 15 43  1  0
 15 44  1  0
 20 45  1  6
 21 46  1  0
 23 47  1  0
 23 48  1  0
 24 49  1  0
 24 50  1  0
 25 51  1  0
 25 52  1  0
 26 53  1  0
 26 54  1  0
 27 55  1  0
 27 56  1  0
 28 57  1  0
 29 58  1  0
M  CHG  3  16  -1  19  -1  30  -1
M  END
>  <UniqueID>  (15) 
14

>  <SMILES>  (15) 
C=Cc1cc(CC(=O)NCc2ccc(C[N-]C(=O)[N-][C@H](C=O)CCCCN)cc2)[n-]n1

>  <Energy>  (15) 
68.59679792428557

>  <Genealogy>  (15) 
C=Cc1cc(CC(=O)NCc2ccc(C[N-]C(=O)[N-]C(C=O)CCCCN)cc2)[n-]n1 (protonated)
C=Cc1cc(CC(=O)NCc2ccc(C[N-]C(=O)[N-][C@H](C=O)CCCCN)cc2)[n-]n1 (chirality)
C=Cc1cc(CC(=O)NCc2ccc(C[N-]C(=O)[N-][C@H](C=O)CCCCN)cc2)[n-]n1 (3D coordinates assigned)
C=Cc1cc(CC(=O)NCc2ccc(C[N-]C(=O)[N-][C@H](C=O)CCCCN)cc2)[n-]n1 (optimized conformer: 68.59679792428557 kcal/mol)

>  <smiles>  (15) 
C=Cc1cc(CC(=O)NCc2ccc(CNC(=O)NC(C=O)CCCCN)cc2)[nH]n1

>  <score_type>  (15) 
oracle

>  <origin>  (15) 
adg

>  <m_score__min__energy>  (15) 
-12.869999999999999

>  <m_primary>  (15) 
energy

$$$$
15:0
     RDKit          3D

 51 53  0  0  0  0  0  0  0  0999 V2000
   63.3570   33.8790   46.7680 C   0  0  0  0  0  0  0  0  0  0  0  0
   62.5320   33.0710   47.7290 C   0  0  0  0  0  0  0  0  0  0  0  0
   63.1560   32.1860   48.6200 C   0  0  0  0  0  0  0  0  0  0  0  0
   62.4020   31.4430   49.5440 C   0  0  0  0  0  0  0  0  0  0  0  0
   63.1270   30.5100   50.4760 C   0  0  0  0  0  0  0  0  0  0  0  0
   60.9990   31.6310   49.6040 C   0  0  0  0  0  0  0  0  0  0  0  0
   60.1990   30.9190   50.5570 N   0  0  0  0  0  0  0  0  0  0  0  0
   59.3820   29.7950   50.2230 C   0  0  0  0  0  0  0  0  0  0  0  0
   58.1340   29.8370   50.3910 O   0  0  0  0  0  0  0  0  0  0  0  0
   60.0160   28.5900   49.6130 C   0  0  0  0  0  0  0  0  0  0  0  0
   60.5100   28.9970   47.9050 S   0  0  0  0  0  0  0  0  0  0  0  0
   59.2630   27.9910   47.1120 C   0  0  0  0  0  0  0  0  0  0  0  0
   59.3530   26.6360   47.1700 N   0  0  0  0  0  0  0  0  0  0  0  0
   58.3950   25.8510   46.6150 C   0  0  0  0  0  0  0  0  0  0  0  0
   58.5300   24.6030   46.6120 O   0  0  0  0  0  0  0  0  0  0  0  0
   57.2780   26.4350   46.0150 C   0  0  0  0  0  0  0  0  0  0  0  0
   57.2230   27.8320   45.9210 C   0  0  0  0  0  0  0  0  0  0  0  0
   56.1300   28.4630   45.2450 N   0  0  0  0  0  0  0  0  0  0  0  0
   56.3740   29.4050   43.8040 S   0  0  0  0  0  0  0  0  0  0  0  0
   57.2030   28.6170   42.8400 O   0  0  0  0  0  0  0  0  0  0  0  0
   55.0420   29.7120   43.1710 O   0  0  0  0  0  0  0  0  0  0  0  0
   57.2170   30.8980   44.2010 C   0  0  0  0  0  0  0  0  0  0  0  0
   57.4640   31.8570   43.2050 C   0  0  0  0  0  0  0  0  0  0  0  0
   58.1310   33.0480   43.5260 C   0  0  0  0  0  0  0  0  0  0  0  0
   58.5430   33.2890   44.8430 C   0  0  0  0  0  0  0  0  0  0  0  0
   59.3360   34.7970   45.2530 Cl  0  0  0  0  0  0  0  0  0  0  0  0
   58.3060   32.3280   45.8370 C   0  0  0  0  0  0  0  0  0  0  0  0
   57.6510   31.1350   45.5170 C   0  0  0  0  0  0  0  0  0  0  0  0
   58.2110   28.5820   46.4810 N   0  0  0  0  0  0  0  0  0  0  0  0
   60.3690   32.5270   48.7140 C   0  0  0  0  0  0  0  0  0  0  0  0
   58.8940   32.8120   48.8210 C   0  0  0  0  0  0  0  0  0  0  0  0
   61.1440   33.2530   47.7960 C   0  0  0  0  0  0  0  0  0  0  0  0
   64.0323   34.5404   47.3306 H   0  0  0  0  0  0  0  0  0  0  0  0
   63.9498   33.2025   46.1349 H   0  0  0  0  0  0  0  0  0  0  0  0
   62.6929   34.4858   46.1349 H   0  0  0  0  0  0  0  0  0  0  0  0
   64.2498   32.0720   48.5952 H   0  0  0  0  0  0  0  0  0  0  0  0
   62.9095   30.7898   51.5173 H   0  0  0  0  0  0  0  0  0  0  0  0
   62.7915   29.4780   50.2959 H   0  0  0  0  0  0  0  0  0  0  0  0
   64.2099   30.5802   50.2959 H   0  0  0  0  0  0  0  0  0  0  0  0
   60.9026   28.3016   50.1968 H   0  0  0  0  0  0  0  0  0  0  0  0
   59.3045   27.7511   49.6095 H   0  0  0  0  0  0  0  0  0  0  0  0
   56.4594   25.8125   45.6248 H   0  0  0  0  0  0  0  0  0  0  0  0
   55.1520   28.2070   45.5020 H   0  0  0  0  0  0  0  0  0  0  0  0
   57.1338   31.6736   42.1719 H   0  0  0  0  0  0  0  0  0  0  0  0
   58.3309   33.7939   42.7427 H   0  0  0  0  0  0  0  0  0  0  0  0
   58.6360   32.5133   46.8698 H   0  0  0  0  0  0  0  0  0  0  0  0
   57.4748   30.3797   46.2971 H   0  0  0  0  0  0  0  0  0  0  0  0
   58.6072   32.8674   49.8815 H   0  0  0  0  0  0  0  0  0  0  0  0
   58.6691   33.7702   48.3298 H   0  0  0  0  0  0  0  0  0  0  0  0
   58.3283   32.0065   48.3298 H   0  0  0  0  0  0  0  0  0  0  0  0
   60.6566   33.9726   47.1218 H   0  0  0  0  0  0  0  0  0  0  0  0
  1  2  1  0
  2  3  2  0
  3  4  1  0
  4  5  1  0
  4  6  2  0
  6  7  1  0
  7  8  1  0
  8  9  2  0
  8 10  1  0
 10 11  1  0
 11 12  1  0
 12 13  2  0
 13 14  1  0
 14 15  2  0
 14 16  1  0
 16 17  2  0
 17 18  1  0
 18 19  1  0
 19 20  2  0
 19 21  2  0
 19 22  1  0
 22 23  2  0
 23 24  1  0
 24 25  2  0
 25 26  1  0
 25 27  1  0
 27 28  2  0
 17 29  1  0
  6 30  1  0
 30 31  1  0
 30 32  2  0
 32  2  1  0
 29 12  1  0
 28 22  1  0
  1 33  1  0
  1 34  1  0
  1 35  1  0
  3 36  1  0
  5 37  1  0
  5 38  1  0
  5 39  1  0
 10 40  1  0
 10 41  1  0
 16 42  1  0
 18 43  1  0
 23 44  1  0
 24 45  1  0
 27 46  1  0
 28 47  1  0
 31 48  1  0
 31 49  1  0
 31 50  1  0
 32 51  1  0
M  CHG  2   7  -1  29  -1
M  END
>  <UniqueID>  (16) 
15

>  <SMILES>  (16) 
Cc1cc(C)c([N-]C(=O)CSc2nc(=O)cc(NS(=O)(=O)c3ccc(Cl)cc3)[n-]2)c(C)c1

>  <Energy>  (16) 
53.95853055567748

>  <Genealogy>  (16) 
Cc1cc(C)c([N-]C(=O)CSc2nc(=O)cc(NS(=O)(=O)c3ccc(Cl)cc3)[n-]2)c(C)c1 (protonated)
Cc1cc(C)c([N-]C(=O)CSc2nc(=O)cc(NS(=O)(=O)c3ccc(Cl)cc3)[n-]2)c(C)c1 (3D coordinates assigned)
Cc1cc(C)c([N-]C(=O)CSc2nc(=O)cc(NS(=O)(=O)c3ccc(Cl)cc3)[n-]2)c(C)c1 (optimized conformer: 53.95853055567748 kcal/mol)

>  <smiles>  (16) 
Cc1cc(C)c(NC(=O)CSc2nc(=O)cc(NS(=O)(=O)c3ccc(Cl)cc3)[nH]2)c(C)c1

>  <score_type>  (16) 
oracle

>  <origin>  (16) 
adg

>  <m_score__min__energy>  (16) 
-12.369999999999999

>  <m_primary>  (16) 
energy

$$$$
16:0
     RDKit          3D

 51 54  0  0  0  0  0  0  0  0999 V2000
   61.2300   30.4470   49.5900 C   0  0  0  0  0  0  0  0  0  0  0  0
   60.6800   32.1540   49.9020 S   0  0  0  0  0  0  0  0  0  0  0  0
   61.7130   32.8560   48.6040 C   0  0  0  0  0  0  0  0  0  0  0  0
   63.0880   32.9820   48.8400 C   0  0  0  0  0  0  0  0  0  0  0  0
   63.9300   33.5040   47.8560 C   0  0  0  0  0  0  0  0  0  0  0  0
   63.4060   33.8940   46.6230 C   0  0  0  0  0  0  0  0  0  0  0  0
   62.0360   33.7670   46.3720 C   0  0  0  0  0  0  0  0  0  0  0  0
   61.1740   33.2570   47.3590 C   0  0  0  0  0  0  0  0  0  0  0  0
   59.7070   33.0920   47.0450 C   0  0  0  0  0  0  0  0  0  0  0  0
   59.3230   31.6820   47.0950 N   0  0  0  0  0  0  0  0  0  0  0  0
   58.7270   31.0310   45.9630 C   0  0  0  0  0  0  0  0  0  0  0  0
   58.7110   31.6170   44.8460 O   0  0  0  0  0  0  0  0  0  0  0  0
   58.1400   29.6730   46.0810 C   0  0  0  0  0  0  0  0  0  0  0  0
   57.1980   29.2070   45.1480 C   0  0  0  0  0  0  0  0  0  0  0  0
   56.6570   27.9240   45.2650 C   0  0  0  0  0  0  0  0  0  0  0  0
   57.0500   27.0740   46.3130 C   0  0  0  0  0  0  0  0  0  0  0  0
   56.4760   25.7110   46.4380 C   0  0  0  0  0  0  0  0  0  0  0  0
   55.2520   25.4280   45.8910 N   0  0  0  0  0  0  0  0  0  0  0  0
   54.7610   24.1720   46.0190 C   0  0  0  0  0  0  0  0  0  0  0  0
   55.4310   23.1900   46.6770 C   0  0  0  0  0  0  0  0  0  0  0  0
   56.6700   23.4650   47.2460 C   0  0  0  0  0  0  0  0  0  0  0  0
   57.3200   22.5890   47.8740 O   0  0  0  0  0  0  0  0  0  0  0  0
   57.1680   24.7280   47.1080 N   0  0  0  0  0  0  0  0  0  0  0  0
   54.6820   22.0670   46.6840 N   0  0  0  0  0  0  0  0  0  0  0  0
   54.9730   20.7920   47.3340 C   0  0  0  0  0  0  0  0  0  0  0  0
   53.5490   22.4270   46.0240 C   0  0  0  0  0  0  0  0  0  0  0  0
   52.5650   21.6570   45.8570 O   0  0  0  0  0  0  0  0  0  0  0  0
   53.5760   23.7110   45.5810 N   0  0  0  0  0  0  0  0  0  0  0  0
   52.5050   24.4640   44.9380 C   0  0  0  0  0  0  0  0  0  0  0  0
   58.0020   27.5370   47.2390 C   0  0  0  0  0  0  0  0  0  0  0  0
   58.5430   28.8200   47.1200 C   0  0  0  0  0  0  0  0  0  0  0  0
   61.3953   29.9340   50.5489 H   0  0  0  0  0  0  0  0  0  0  0  0
   60.4587   29.9123   49.0163 H   0  0  0  0  0  0  0  0  0  0  0  0
   62.1684   30.4632   49.0163 H   0  0  0  0  0  0  0  0  0  0  0  0
   63.5073   32.6676   49.8071 H   0  0  0  0  0  0  0  0  0  0  0  0
   65.0072   33.6079   48.0530 H   0  0  0  0  0  0  0  0  0  0  0  0
   64.0711   34.3018   45.8476 H   0  0  0  0  0  0  0  0  0  0  0  0
   61.6298   34.0683   45.3952 H   0  0  0  0  0  0  0  0  0  0  0  0
   59.1146   33.6539   47.7821 H   0  0  0  0  0  0  0  0  0  0  0  0
   59.5172   33.4744   46.0312 H   0  0  0  0  0  0  0  0  0  0  0  0
   59.5270   31.1270   47.9560 H   0  0  0  0  0  0  0  0  0  0  0  0
   56.8839   29.8578   44.3186 H   0  0  0  0  0  0  0  0  0  0  0  0
   55.9165   27.5759   44.5298 H   0  0  0  0  0  0  0  0  0  0  0  0
   54.9434   20.9219   48.4259 H   0  0  0  0  0  0  0  0  0  0  0  0
   54.2218   20.0470   47.0328 H   0  0  0  0  0  0  0  0  0  0  0  0
   55.9730   20.4467   47.0328 H   0  0  0  0  0  0  0  0  0  0  0  0
   51.8618   24.9162   45.7072 H   0  0  0  0  0  0  0  0  0  0  0  0
   52.9393   25.2565   44.3109 H   0  0  0  0  0  0  0  0  0  0  0  0
   51.9062   23.7871   44.3109 H   0  0  0  0  0  0  0  0  0  0  0  0
   58.3234   26.8838   48.0637 H   0  0  0  0  0  0  0  0  0  0  0  0
   59.2922   29.1647   47.8479 H   0  0  0  0  0  0  0  0  0  0  0  0
  1  2  1  0
  2  3  1  0
  3  4  2  0
  4  5  1  0
  5  6  2  0
  6  7  1  0
  7  8  2  0
  8  9  1  0
  9 10  1  0
 10 11  1  0
 11 12  2  0
 11 13  1  0
 13 14  2  0
 14 15  1  0
 15 16  2  0
 16 17  1  0
 17 18  2  0
 18 19  1  0
 19 20  2  0
 20 21  1  0
 21 22  2  0
 21 23  1  0
 20 24  1  0
 24 25  1  0
 24 26  1  0
 26 27  2  0
 26 28  1  0
 28 29  1  0
 16 30  1  0
 30 31  2  0
  8  3  1  0
 31 13  1  0
 23 17  1  0
 28 19  1  0
  1 32  1  0
  1 33  1  0
  1 34  1  0
  4 35  1  0
  5 36  1  0
  6 37  1  0
  7 38  1  0
  9 39  1  0
  9 40  1  0
 10 41  1  0
 14 42  1  0
 15 43  1  0
 25 44  1  0
 25 45  1  0
 25 46  1  0
 29 47  1  0
 29 48  1  0
 29 49  1  0
 30 50  1  0
 31 51  1  0
M  CHG  1  23  -1
M  END
>  <UniqueID>  (17) 
16

>  <SMILES>  (17) 
CSc1ccccc1CNC(=O)c1ccc(-c2nc3c(c(=O)[n-]2)n(C)c(=O)n3C)cc1

>  <Energy>  (17) 
98.49855642969369

>  <Genealogy>  (17) 
CSc1ccccc1CNC(=O)c1ccc(-c2nc3c(c(=O)[n-]2)n(C)c(=O)n3C)cc1 (protonated)
CSc1ccccc1CNC(=O)c1ccc(-c2nc3c(c(=O)[n-]2)n(C)c(=O)n3C)cc1 (3D coordinates assigned)
CSc1ccccc1CNC(=O)c1ccc(-c2nc3c(c(=O)[n-]2)n(C)c(=O)n3C)cc1 (optimized conformer: 98.49855642969369 kcal/mol)

>  <smiles>  (17) 
CSc1ccccc1CNC(=O)c1ccc(-c2nc3c(c(=O)[nH]2)n(C)c(=O)n3C)cc1

>  <score_type>  (17) 
oracle

>  <origin>  (17) 
adg

>  <m_score__min__energy>  (17) 
-9.75

>  <m_primary>  (17) 
energy

$$$$
17:0
     RDKit          3D

 40 42  0  0  0  0  0  0  0  0999 V2000
   55.3370   29.1830   52.9100 O   0  0  0  0  0  0  0  0  0  0  0  0
   54.5270   30.0600   52.5060 C   0  0  0  0  0  0  0  0  0  0  0  0
   53.0580   29.8430   52.6950 C   0  0  0  0  0  0  0  0  0  0  0  0
   52.2870   30.8860   51.9510 C   0  0  0  0  0  0  0  0  0  0  0  0
   51.6880   31.9960   52.5000 C   0  0  0  0  0  0  0  0  0  0  0  0
   51.0330   32.6610   51.5340 N   0  0  0  0  0  0  0  0  0  0  0  0
   51.2530   31.9200   50.4290 C   0  0  0  0  0  0  0  0  0  0  0  0
   50.6470   32.3110   48.9640 S   0  0  0  0  0  0  0  0  0  0  0  0
   52.0070   30.8210   50.6380 N   0  0  0  0  0  0  0  0  0  0  0  0
   54.9940   31.2140   51.7880 N   0  0  0  0  0  0  0  0  0  0  0  0
   56.3770   31.5930   51.6830 C   0  0  0  0  0  0  0  0  0  0  0  0
   57.2940   30.8300   50.9380 C   0  0  0  0  0  0  0  0  0  0  0  0
   58.6370   31.2090   50.8690 C   0  0  0  0  0  0  0  0  0  0  0  0
   59.0850   32.3440   51.5540 C   0  0  0  0  0  0  0  0  0  0  0  0
   60.7740   32.8320   51.4410 S   0  0  0  0  0  0  0  0  0  0  0  0
   61.1760   33.5660   52.6930 O   0  0  0  0  0  0  0  0  0  0  0  0
   61.6340   31.6060   51.3080 O   0  0  0  0  0  0  0  0  0  0  0  0
   60.9880   33.8490   50.0380 N   0  0  0  0  0  0  0  0  0  0  0  0
   61.7630   33.1690   49.0030 C   0  0  0  0  0  0  0  0  0  0  0  0
   61.3380   33.7740   47.6740 C   0  0  0  0  0  0  0  0  0  0  0  0
   59.9880   34.4220   47.9420 C   0  0  0  0  0  0  0  0  0  0  0  0
   59.7040   34.1710   49.4150 C   0  0  0  0  0  0  0  0  0  0  0  0
   58.1790   33.1010   52.3090 C   0  0  0  0  0  0  0  0  0  0  0  0
   56.8360   32.7210   52.3800 C   0  0  0  0  0  0  0  0  0  0  0  0
   52.7849   28.8476   52.3147 H   0  0  0  0  0  0  0  0  0  0  0  0
   52.8177   29.9119   53.7662 H   0  0  0  0  0  0  0  0  0  0  0  0
   51.7374   32.2912   53.5585 H   0  0  0  0  0  0  0  0  0  0  0  0
   54.2920   31.7570   51.2350 H   0  0  0  0  0  0  0  0  0  0  0  0
   56.9519   29.9297   50.4066 H   0  0  0  0  0  0  0  0  0  0  0  0
   59.3447   30.6130   50.2741 H   0  0  0  0  0  0  0  0  0  0  0  0
   62.8387   33.3303   49.1668 H   0  0  0  0  0  0  0  0  0  0  0  0
   61.5826   32.0840   49.0208 H   0  0  0  0  0  0  0  0  0  0  0  0
   62.0680   34.5271   47.3424 H   0  0  0  0  0  0  0  0  0  0  0  0
   61.2789   33.0165   46.8785 H   0  0  0  0  0  0  0  0  0  0  0  0
   60.0322   35.5019   47.7373 H   0  0  0  0  0  0  0  0  0  0  0  0
   59.1998   34.0063   47.2971 H   0  0  0  0  0  0  0  0  0  0  0  0
   59.2727   35.0711   49.8774 H   0  0  0  0  0  0  0  0  0  0  0  0
   58.9821   33.3514   49.5463 H   0  0  0  0  0  0  0  0  0  0  0  0
   58.5255   33.9959   52.8467 H   0  0  0  0  0  0  0  0  0  0  0  0
   56.1333   33.3107   52.9870 H   0  0  0  0  0  0  0  0  0  0  0  0
  1  2  2  0
  2  3  1  0
  3  4  1  0
  4  5  2  0
  5  6  1  0
  6  7  1  0
  7  8  2  0
  7  9  1  0
  2 10  1  0
 10 11  1  0
 11 12  2  0
 12 13  1  0
 13 14  2  0
 14 15  1  0
 15 16  2  0
 15 17  2  0
 15 18  1  0
 18 19  1  0
 19 20  1  0
 20 21  1  0
 21 22  1  0
 14 23  1  0
 23 24  2  0
  9  4  1  0
 24 11  1  0
 22 18  1  0
  3 25  1  0
  3 26  1  0
  5 27  1  0
 10 28  1  0
 12 29  1  0
 13 30  1  0
 19 31  1  0
 19 32  1  0
 20 33  1  0
 20 34  1  0
 21 35  1  0
 21 36  1  0
 22 37  1  0
 22 38  1  0
 23 39  1  0
 24 40  1  0
M  CHG  2   6  -1   9  -1
M  END
>  <UniqueID>  (18) 
17

>  <SMILES>  (18) 
O=C(Cc1c[n-]c(=S)[n-]1)Nc1ccc(S(=O)(=O)N2CCCC2)cc1

>  <Energy>  (18) 
69.69934875303157

>  <Genealogy>  (18) 
O=C(Cc1c[n-]c(=S)[n-]1)Nc1ccc(S(=O)(=O)N2CCCC2)cc1 (protonated)
O=C(Cc1c[n-]c(=S)[n-]1)Nc1ccc(S(=O)(=O)N2CCCC2)cc1 (3D coordinates assigned)
O=C(Cc1c[n-]c(=S)[n-]1)Nc1ccc(S(=O)(=O)N2CCCC2)cc1 (nonaromatic ring conformer: 69.69934875303157 kcal/mol)

>  <smiles>  (18) 
O=C(Cc1c[nH]c(=S)[nH]1)Nc1ccc(S(=O)(=O)N2CCCC2)cc1

>  <score_type>  (18) 
oracle

>  <origin>  (18) 
adg

>  <m_score__min__energy>  (18) 
-11.94

>  <m_primary>  (18) 
energy

$$$$
18:0
     RDKit          3D

 38 40  0  0  0  0  0  0  0  0999 V2000
   59.8940   29.7690   47.1780 C   0  0  0  0  0  0  0  0  0  0  0  0
   59.1110   29.9050   46.0970 C   0  0  0  0  0  0  0  0  0  0  0  0
   58.5820   28.8760   45.3020 C   0  0  0  0  0  0  0  0  0  0  0  0
   58.5090   27.5470   45.5100 C   0  0  0  0  0  0  0  0  0  0  0  0
   57.2700   26.7810   45.7250 C   0  0  0  0  0  0  0  0  0  0  0  0
   57.2170   25.5320   46.2240 N   0  0  0  0  0  0  0  0  0  0  0  0
   55.8930   25.3100   46.3660 C   0  0  0  0  0  0  0  0  0  0  0  0
   55.4310   24.2220   46.8010 O   0  0  0  0  0  0  0  0  0  0  0  0
   55.1030   26.3480   46.0180 N   0  0  0  0  0  0  0  0  0  0  0  0
   55.9920   27.2750   45.6270 C   0  0  0  0  0  0  0  0  0  0  0  0
   55.6470   28.5520   45.1960 O   0  0  0  0  0  0  0  0  0  0  0  0
   58.0800   29.4850   44.1640 C   0  0  0  0  0  0  0  0  0  0  0  0
   58.2410   30.8450   44.3330 C   0  0  0  0  0  0  0  0  0  0  0  0
   57.8070   31.8800   43.3410 C   0  0  0  0  0  0  0  0  0  0  0  0
   58.8650   31.1030   45.5030 N   0  0  0  0  0  0  0  0  0  0  0  0
   59.2290   32.4060   45.9940 C   0  0  0  0  0  0  0  0  0  0  0  0
   58.2890   33.4470   46.0040 C   0  0  0  0  0  0  0  0  0  0  0  0
   58.6450   34.7080   46.4850 C   0  0  0  0  0  0  0  0  0  0  0  0
   59.9390   34.9400   46.9590 C   0  0  0  0  0  0  0  0  0  0  0  0
   60.8910   33.9130   46.9550 C   0  0  0  0  0  0  0  0  0  0  0  0
   62.1770   34.1950   47.4370 O   0  0  0  0  0  0  0  0  0  0  0  0
   63.3370   33.4270   47.1320 C   0  0  0  0  0  0  0  0  0  0  0  0
   60.5280   32.6410   46.4700 C   0  0  0  0  0  0  0  0  0  0  0  0
   60.2455   30.6604   47.7182 H   0  0  0  0  0  0  0  0  0  0  0  0
   60.1845   28.7661   47.5241 H   0  0  0  0  0  0  0  0  0  0  0  0
   59.4554   26.9864   45.5201 H   0  0  0  0  0  0  0  0  0  0  0  0
   54.7610   28.9640   45.4630 H   0  0  0  0  0  0  0  0  0  0  0  0
   57.6375   28.9810   43.2921 H   0  0  0  0  0  0  0  0  0  0  0  0
   57.4352   32.7668   43.8752 H   0  0  0  0  0  0  0  0  0  0  0  0
   58.6618   32.1640   42.7096 H   0  0  0  0  0  0  0  0  0  0  0  0
   57.0053   31.4693   42.7096 H   0  0  0  0  0  0  0  0  0  0  0  0
   57.2692   33.2693   45.6320 H   0  0  0  0  0  0  0  0  0  0  0  0
   57.9048   35.5216   46.4910 H   0  0  0  0  0  0  0  0  0  0  0  0
   60.2116   35.9361   47.3378 H   0  0  0  0  0  0  0  0  0  0  0  0
   63.8208   33.1067   48.0665 H   0  0  0  0  0  0  0  0  0  0  0  0
   63.0472   32.5417   46.5470 H   0  0  0  0  0  0  0  0  0  0  0  0
   64.0389   34.0395   46.5470 H   0  0  0  0  0  0  0  0  0  0  0  0
   61.2676   31.8268   46.4644 H   0  0  0  0  0  0  0  0  0  0  0  0
  1  2  2  0
  2  3  1  0
  3  4  2  3
  4  5  1  0
  5  6  1  0
  6  7  1  0
  7  8  2  0
  7  9  1  0
  9 10  1  0
 10 11  1  0
  3 12  1  0
 12 13  2  0
 13 14  1  0
 13 15  1  0
 15 16  1  0
 16 17  2  0
 17 18  1  0
 18 19  2  0
 19 20  1  0
 20 21  1  0
 21 22  1  0
 20 23  2  0
 15  2  1  0
 23 16  1  0
 10  5  2  0
  1 24  1  0
  1 25  1  0
  4 26  1  0
 11 27  1  0
 12 28  1  0
 14 29  1  0
 14 30  1  0
 14 31  1  0
 17 32  1  0
 18 33  1  0
 19 34  1  0
 22 35  1  0
 22 36  1  0
 22 37  1  0
 23 38  1  0
M  CHG  2   6  -1   9  -1
M  END
>  <UniqueID>  (19) 
18

>  <SMILES>  (19) 
C=c1c(=Cc2[n-]c(=O)[n-]c2O)cc(C)n1-c1cccc(OC)c1

>  <Energy>  (19) 
113.04511447026665

>  <Genealogy>  (19) 
C=c1c(=Cc2[n-]c(=O)[n-]c2O)cc(C)n1-c1cccc(OC)c1 (protonated)
C=c1c(=Cc2[n-]c(=O)[n-]c2O)cc(C)n1-c1cccc(OC)c1 (3D coordinates assigned)
C=c1c(=Cc2[n-]c(=O)[n-]c2O)cc(C)n1-c1cccc(OC)c1 (optimized conformer: 113.04511447026665 kcal/mol)

>  <smiles>  (19) 
C=c1c(=Cc2[nH]c(=O)[nH]c2O)cc(C)n1-c1cccc(OC)c1

>  <score_type>  (19) 
oracle

>  <origin>  (19) 
adg

>  <m_score__min__energy>  (19) 
-12.51

>  <m_primary>  (19) 
energy

$$$$
19:0
     RDKit          3D

 50 53  0  0  0  0  0  0  0  0999 V2000
   64.6820   33.0270   49.1810 C   0  0  0  0  0  0  0  0  0  0  0  0
   63.2140   32.6850   48.9380 C   0  0  2  0  0  0  0  0  0  0  0  0
   62.3770   32.9250   50.2290 C   0  0  0  0  0  0  0  0  0  0  0  0
   61.1850   31.9610   50.2370 C   0  0  1  0  0  0  0  0  0  0  0  0
   59.9650   32.2940   51.0550 C   0  0  0  0  0  0  0  0  0  0  0  0
   58.9050   31.3770   50.4320 C   0  0  0  0  0  0  0  0  0  0  0  0
   59.3540   30.9880   49.0670 N   0  0  0  0  0  0  0  0  0  0  0  0
   59.3360   29.5270   48.8510 C   0  0  0  0  0  0  0  0  0  0  0  0
   58.6100   29.1920   47.5780 C   0  0  0  0  0  0  0  0  0  0  0  0
   58.1400   30.2230   46.7120 N   0  0  0  0  0  0  0  0  0  0  0  0
   58.4370   27.9840   47.2620 O   0  0  0  0  0  0  0  0  0  0  0  0
   60.6420   31.6920   48.8380 C   0  0  1  0  0  0  0  0  0  0  0  0
   60.2710   32.9400   48.0380 C   0  0  0  0  0  0  0  0  0  0  0  0
   59.6320   32.8650   46.8480 N   0  0  0  0  0  0  0  0  0  0  0  0
   59.4250   34.1520   46.5220 C   0  0  0  0  0  0  0  0  0  0  0  0
   58.7740   34.5970   45.3300 N   0  0  0  0  0  0  0  0  0  0  0  0
   57.4980   34.1330   44.8700 C   0  0  0  0  0  0  0  0  0  0  0  0
   56.4650   34.8390   45.0200 O   0  0  0  0  0  0  0  0  0  0  0  0
   57.3910   32.8300   44.2040 C   0  0  0  0  0  0  0  0  0  0  0  0
   57.8960   32.5100   42.9570 C   0  0  0  0  0  0  0  0  0  0  0  0
   57.5650   31.1890   42.7450 C   0  0  0  0  0  0  0  0  0  0  0  0
   56.8810   30.7890   43.8790 C   0  0  0  0  0  0  0  0  0  0  0  0
   56.3200   29.4580   44.1260 C   0  0  0  0  0  0  0  0  0  0  0  0
   55.7190   29.2040   45.2030 O   0  0  0  0  0  0  0  0  0  0  0  0
   56.7930   31.7870   44.7300 O   0  0  0  0  0  0  0  0  0  0  0  0
   59.9110   34.9740   47.5030 C   0  0  0  0  0  0  0  0  0  0  0  0
   60.4350   34.2120   48.4760 N   0  0  0  0  0  0  0  0  0  0  0  0
   61.8090   30.9460   48.0820 C   0  0  0  0  0  0  0  0  0  0  0  0
   63.1240   31.3330   48.5020 O   0  0  0  0  0  0  0  0  0  0  0  0
   64.8738   33.0717   50.2632 H   0  0  0  0  0  0  0  0  0  0  0  0
   65.3187   32.2531   48.7274 H   0  0  0  0  0  0  0  0  0  0  0  0
   64.9111   34.0026   48.7274 H   0  0  0  0  0  0  0  0  0  0  0  0
   62.8007   33.3399   48.1568 H   0  0  0  0  0  0  0  0  0  0  0  0
   63.0042   32.7434   51.1143 H   0  0  0  0  0  0  0  0  0  0  0  0
   62.0153   33.9636   50.2499 H   0  0  0  0  0  0  0  0  0  0  0  0
   61.6790   31.1049   50.7197 H   0  0  0  0  0  0  0  0  0  0  0  0
   60.1207   32.0604   52.1186 H   0  0  0  0  0  0  0  0  0  0  0  0
   59.6957   33.3604   51.0368 H   0  0  0  0  0  0  0  0  0  0  0  0
   58.7834   30.4768   51.0523 H   0  0  0  0  0  0  0  0  0  0  0  0
   57.9410   31.9036   50.3739 H   0  0  0  0  0  0  0  0  0  0  0  0
   60.3702   29.1579   48.7858 H   0  0  0  0  0  0  0  0  0  0  0  0
   58.8153   29.0491   49.6939 H   0  0  0  0  0  0  0  0  0  0  0  0
   58.2690   31.2290   46.9590 H   0  0  0  0  0  0  0  0  0  0  0  0
   57.6480   29.9810   45.8230 H   0  0  0  0  0  0  0  0  0  0  0  0
   58.4481   33.1732   42.2748 H   0  0  0  0  0  0  0  0  0  0  0  0
   57.7964   30.5798   41.8589 H   0  0  0  0  0  0  0  0  0  0  0  0
   56.4249   28.6728   43.3628 H   0  0  0  0  0  0  0  0  0  0  0  0
   59.8777   36.0735   47.4952 H   0  0  0  0  0  0  0  0  0  0  0  0
   61.6961   29.8654   48.2542 H   0  0  0  0  0  0  0  0  0  0  0  0
   61.7232   31.2200   47.0201 H   0  0  0  0  0  0  0  0  0  0  0  0
  1  2  1  0
  2  3  1  0
  3  4  1  0
  4  5  1  0
  5  6  1  0
  6  7  1  0
  7  8  1  0
  8  9  1  0
  9 10  1  0
  9 11  2  0
  7 12  1  0
 12 13  1  6
 13 14  2  0
 14 15  1  0
 15 16  1  0
 16 17  1  0
 17 18  2  0
 17 19  1  0
 19 20  2  0
 20 21  1  0
 21 22  2  0
 22 23  1  0
 23 24  2  0
 22 25  1  0
 15 26  2  0
 26 27  1  0
 12 28  1  0
 28 29  1  0
 29  2  1  0
 12  4  1  0
 27 13  1  0
 25 19  1  0
  1 30  1  0
  1 31  1  0
  1 32  1  0
  2 33  1  6
  3 34  1  0
  3 35  1  0
  4 36  1  1
  5 37  1  0
  5 38  1  0
  6 39  1  0
  6 40  1  0
  8 41  1  0
  8 42  1  0
 10 43  1  0
 10 44  1  0
 20 45  1  0
 21 46  1  0
 23 47  1  0
 26 48  1  0
 28 49  1  0
 28 50  1  0
M  CHG  2  16  -1  27  -1
M  END
>  <UniqueID>  (20) 
19

>  <SMILES>  (20) 
C[C@@H]1C[C@H]2CCN(CC(N)=O)C2(c2nc([N-]C(=O)c3ccc(C=O)o3)c[n-]2)CO1

>  <Energy>  (20) 
135.26891609592295

>  <Genealogy>  (20) 
CC1CC2CCN(CC(N)=O)C2(c2nc([N-]C(=O)c3ccc(C=O)o3)c[n-]2)CO1 (protonated)
C[C@@H]1C[C@H]2CCN(CC(N)=O)C2(c2nc([N-]C(=O)c3ccc(C=O)o3)c[n-]2)CO1 (chirality)
C[C@@H]1C[C@H]2CCN(CC(N)=O)C2(c2nc([N-]C(=O)c3ccc(C=O)o3)c[n-]2)CO1 (3D coordinates assigned)
C[C@@H]1C[C@H]2CCN(CC(N)=O)C2(c2nc([N-]C(=O)c3ccc(C=O)o3)c[n-]2)CO1 (nonaromatic ring conformer: 135.26891609592295 kcal/mol)

>  <smiles>  (20) 
CC1CC2CCN(CC(N)=O)C2(c2nc(NC(=O)c3ccc(C=O)o3)c[nH]2)CO1

>  <score_type>  (20) 
oracle

>  <origin>  (20) 
adg

>  <m_score__min__energy>  (20) 
-9.4199999999999999

>  <m_primary>  (20) 
energy

$$$$
20:0
     RDKit          3D

 46 49  0  0  0  0  0  0  0  0999 V2000
   61.4933   26.4256   48.3104 H   0  0  0  0  0  0  0  0  0  0  0  0
   60.7310   27.2110   48.4200 C   0  0  0  0  0  0  0  0  0  0  0  0
   60.5020   27.7690   49.6360 N   0  0  0  0  0  0  0  0  0  0  0  0
   59.5700   28.7430   49.7950 C   0  0  0  0  0  0  0  0  0  0  0  0
   59.3640   29.2380   50.9800 N   0  0  0  0  0  0  0  0  0  0  0  0
   58.8340   30.5440   51.2670 C   0  0  0  0  0  0  0  0  0  0  0  0
   59.6370   31.6620   51.0180 C   0  0  0  0  0  0  0  0  0  0  0  0
   60.6593   31.5273   50.6349 H   0  0  0  0  0  0  0  0  0  0  0  0
   59.1480   32.9460   51.2530 C   0  0  0  0  0  0  0  0  0  0  0  0
   59.7851   33.8247   51.0739 H   0  0  0  0  0  0  0  0  0  0  0  0
   57.8440   33.1050   51.7170 C   0  0  0  0  0  0  0  0  0  0  0  0
   57.4496   34.1127   51.9143 H   0  0  0  0  0  0  0  0  0  0  0  0
   57.0590   32.0150   51.9260 N   0  0  0  0  0  0  0  0  0  0  0  0
   57.5060   30.7440   51.7100 C   0  0  0  0  0  0  0  0  0  0  0  0
   56.7160   29.7220   51.8810 N   0  0  0  0  0  0  0  0  0  0  0  0
   55.6730   29.5790   52.8630 C   0  0  0  0  0  0  0  0  0  0  0  0
   55.8790   29.8640   54.0740 O   0  0  0  0  0  0  0  0  0  0  0  0
   54.3280   29.0380   52.4670 C   0  0  0  0  0  0  0  0  0  0  0  0
   54.4210   28.5379   51.4917 H   0  0  0  0  0  0  0  0  0  0  0  0
   54.0042   28.3357   53.2492 H   0  0  0  0  0  0  0  0  0  0  0  0
   53.2850   30.1210   52.3590 C   0  0  0  0  0  0  0  0  0  0  0  0
   52.3050   30.2710   53.3560 C   0  0  0  0  0  0  0  0  0  0  0  0
   52.3075   29.6044   54.2310 H   0  0  0  0  0  0  0  0  0  0  0  0
   51.3270   31.2640   53.2400 C   0  0  0  0  0  0  0  0  0  0  0  0
   50.5702   31.3837   54.0293 H   0  0  0  0  0  0  0  0  0  0  0  0
   51.3090   32.1050   52.1230 C   0  0  0  0  0  0  0  0  0  0  0  0
   50.3260   33.0780   52.0020 O   0  0  0  0  0  0  0  0  0  0  0  0
   52.2820   31.9630   51.1270 C   0  0  0  0  0  0  0  0  0  0  0  0
   52.2705   32.6261   50.2494 H   0  0  0  0  0  0  0  0  0  0  0  0
   53.2680   30.9800   51.2460 C   0  0  0  0  0  0  0  0  0  0  0  0
   54.0353   30.8776   50.4644 H   0  0  0  0  0  0  0  0  0  0  0  0
   58.8460   29.1620   48.7220 N   0  0  0  0  0  0  0  0  0  0  0  0
   59.0350   28.6400   47.4790 C   0  0  0  0  0  0  0  0  0  0  0  0
   58.2590   29.1880   46.3350 C   0  0  0  0  0  0  0  0  0  0  0  0
   58.4500   30.5270   45.9430 C   0  0  0  0  0  0  0  0  0  0  0  0
   59.1571   31.1614   46.4975 H   0  0  0  0  0  0  0  0  0  0  0  0
   57.7490   31.0580   44.8550 C   0  0  0  0  0  0  0  0  0  0  0  0
   57.9131   32.1029   44.5528 H   0  0  0  0  0  0  0  0  0  0  0  0
   56.8410   30.2630   44.1520 C   0  0  0  0  0  0  0  0  0  0  0  0
   56.1480   30.7920   43.0700 O   0  0  0  0  0  0  0  0  0  0  0  0
   56.6300   28.9370   44.5390 C   0  0  0  0  0  0  0  0  0  0  0  0
   55.9112   28.3127   43.9880 H   0  0  0  0  0  0  0  0  0  0  0  0
   57.3300   28.4010   45.6250 C   0  0  0  0  0  0  0  0  0  0  0  0
   57.1542   27.3580   45.9270 H   0  0  0  0  0  0  0  0  0  0  0  0
   60.0000   27.6330   47.3090 C   0  0  0  0  0  0  0  0  0  0  0  0
   60.1757   27.1861   46.3194 H   0  0  0  0  0  0  0  0  0  0  0  0
  1  2  1  0
  2  3  1  0
  3  4  1  0
  4  5  2  0
  5  6  1  0
  6  7  2  0
  7  8  1  0
  7  9  1  0
  9 10  1  0
  9 11  2  0
 11 12  1  0
 11 13  1  0
 13 14  1  0
 14 15  2  0
 15 16  1  0
 16 17  2  0
 16 18  1  0
 18 19  1  0
 18 20  1  0
 18 21  1  0
 21 22  2  0
 22 23  1  0
 22 24  1  0
 24 25  1  0
 24 26  2  0
 26 27  1  0
 26 28  1  0
 28 29  1  0
 28 30  2  0
 30 31  1  0
  4 32  1  0
 32 33  2  0
 33 34  1  0
 34 35  2  0
 35 36  1  0
 35 37  1  0
 37 38  1  0
 37 39  2  0
 39 40  1  0
 39 41  1  0
 41 42  1  0
 41 43  2  0
 43 44  1  0
 33 45  1  0
 45 46  1  0
 45  2  2  0
 14  6  1  0
 30 21  1  0
 43 34  1  0
M  CHG  4   3  -1  13  -1  27  -1  40  -1
M  END
>  <UniqueID>  (21) 
20

>  <SMILES>  (21) 
O=C(Cc1ccc([O-])cc1)/N=c1\[n-]cccc1/N=c1\nc(-c2ccc([O-])cc2)cc[n-]1

>  <Energy>  (21) 
60.94010506437505

>  <Genealogy>  (21) 
O=C(Cc1ccc([O-])cc1)N=c1[n-]cccc1N=c1nc(-c2ccc([O-])cc2)cc[n-]1 (protonated)
O=C(Cc1ccc([O-])cc1)/N=c1\[n-]cccc1/N=c1\nc(-c2ccc([O-])cc2)cc[n-]1 (cis-trans isomerization)
O=C(Cc1ccc([O-])cc1)/N=c1\[n-]cccc1/N=c1\nc(-c2ccc([O-])cc2)cc[n-]1 (3D coordinates assigned)
O=C(Cc1ccc([O-])cc1)/N=c1\[n-]cccc1/N=c1\nc(-c2ccc([O-])cc2)cc[n-]1 (optimized conformer: 60.94010506437505 kcal/mol)

>  <smiles>  (21) 
O=C(Cc1ccc(O)cc1)N=c1[nH]cccc1N=c1nc(-c2ccc(O)cc2)cc[nH]1

>  <score_type>  (21) 
oracle

>  <origin>  (21) 
adg

>  <m_score__min__energy>  (21) 
-17.879999999999999

>  <m_primary>  (21) 
energy

$$$$
21:0
     RDKit          3D

 51 53  0  0  0  0  0  0  0  0999 V2000
   58.0480   32.3840   42.7750 C   0  0  0  0  0  0  0  0  0  0  0  0
   58.2300   32.8190   44.2050 C   0  0  0  0  0  0  0  0  0  0  0  0
   58.6830   34.1240   44.4680 C   0  0  0  0  0  0  0  0  0  0  0  0
   58.8780   34.5570   45.7810 C   0  0  0  0  0  0  0  0  0  0  0  0
   58.6150   33.6990   46.8470 C   0  0  0  0  0  0  0  0  0  0  0  0
   58.1500   32.4050   46.6060 C   0  0  0  0  0  0  0  0  0  0  0  0
   57.9490   31.9500   45.2900 C   0  0  0  0  0  0  0  0  0  0  0  0
   57.4210   30.5810   45.0860 C   0  0  0  0  0  0  0  0  0  0  0  0
   56.2280   30.4340   44.7030 O   0  0  0  0  0  0  0  0  0  0  0  0
   58.2240   29.4190   45.3700 N   0  0  0  0  0  0  0  0  0  0  0  0
   57.5840   28.2040   45.8890 C   0  0  0  0  0  0  0  0  0  0  0  0
   58.5300   26.9950   45.7990 C   0  0  0  0  0  0  0  0  0  0  0  0
   59.8720   27.2560   46.3850 N   0  0  0  0  0  0  0  0  0  0  0  0
   59.9570   26.8310   47.7980 C   0  0  0  0  0  0  0  0  0  0  0  0
   59.9200   28.0220   48.7060 C   0  0  0  0  0  0  0  0  0  0  0  0
   60.8680   28.3840   49.6460 C   0  0  0  0  0  0  0  0  0  0  0  0
   60.4470   29.5020   50.2630 N   0  0  0  0  0  0  0  0  0  0  0  0
   59.2760   29.8590   49.7510 N   0  0  0  0  0  0  0  0  0  0  0  0
   58.4910   31.0200   50.1780 C   0  0  0  0  0  0  0  0  0  0  0  0
   59.3010   32.3070   49.9980 C   0  0  0  0  0  0  0  0  0  0  0  0
   58.0370   30.8500   51.6290 C   0  0  0  0  0  0  0  0  0  0  0  0
   58.9230   28.9750   48.7970 C   0  0  0  0  0  0  0  0  0  0  0  0
   60.3710   28.6450   46.2130 C   0  0  0  0  0  0  0  0  0  0  0  0
   59.6620   29.3930   45.0840 C   0  0  0  0  0  0  0  0  0  0  0  0
   57.6235   31.3695   42.7516 H   0  0  0  0  0  0  0  0  0  0  0  0
   57.3652   33.0790   42.2644 H   0  0  0  0  0  0  0  0  0  0  0  0
   59.0223   32.3857   42.2644 H   0  0  0  0  0  0  0  0  0  0  0  0
   58.8855   34.8097   43.6320 H   0  0  0  0  0  0  0  0  0  0  0  0
   59.2400   35.5776   45.9743 H   0  0  0  0  0  0  0  0  0  0  0  0
   58.7740   34.0419   47.8800 H   0  0  0  0  0  0  0  0  0  0  0  0
   57.9389   31.7351   47.4526 H   0  0  0  0  0  0  0  0  0  0  0  0
   57.3076   28.3657   46.9414 H   0  0  0  0  0  0  0  0  0  0  0  0
   56.6915   27.9938   45.2813 H   0  0  0  0  0  0  0  0  0  0  0  0
   58.0718   26.1518   46.3366 H   0  0  0  0  0  0  0  0  0  0  0  0
   58.6769   26.7737   44.7315 H   0  0  0  0  0  0  0  0  0  0  0  0
   59.1071   26.1722   48.0298 H   0  0  0  0  0  0  0  0  0  0  0  0
   60.9049   26.2947   47.9523 H   0  0  0  0  0  0  0  0  0  0  0  0
   61.8063   27.8486   49.8534 H   0  0  0  0  0  0  0  0  0  0  0  0
   60.9510   30.0070   51.0260 H   0  0  0  0  0  0  0  0  0  0  0  0
   57.5929   31.0938   49.5472 H   0  0  0  0  0  0  0  0  0  0  0  0
   59.5599   32.7183   50.9848 H   0  0  0  0  0  0  0  0  0  0  0  0
   60.2226   32.0852   49.4399 H   0  0  0  0  0  0  0  0  0  0  0  0
   58.7024   33.0420   49.4399 H   0  0  0  0  0  0  0  0  0  0  0  0
   58.8494   31.1542   52.3054 H   0  0  0  0  0  0  0  0  0  0  0  0
   57.1526   31.4779   51.8125 H   0  0  0  0  0  0  0  0  0  0  0  0
   57.7825   29.7957   51.8125 H   0  0  0  0  0  0  0  0  0  0  0  0
   58.0024   29.0064   48.1958 H   0  0  0  0  0  0  0  0  0  0  0  0
   60.2124   29.1944   47.1527 H   0  0  0  0  0  0  0  0  0  0  0  0
   61.4377   28.5840   45.9514 H   0  0  0  0  0  0  0  0  0  0  0  0
   60.0462   30.4219   45.0228 H   0  0  0  0  0  0  0  0  0  0  0  0
   59.8450   28.8864   44.1249 H   0  0  0  0  0  0  0  0  0  0  0  0
  1  2  1  0
  2  3  2  0
  3  4  1  0
  4  5  2  0
  5  6  1  0
  6  7  2  0
  7  8  1  0
  8  9  2  0
  8 10  1  0
 10 11  1  0
 11 12  1  0
 12 13  1  0
 13 14  1  0
 14 15  1  0
 15 16  1  0
 16 17  2  0
 17 18  1  0
 18 19  1  0
 19 20  1  0
 19 21  1  0
 18 22  1  0
 13 23  1  0
 23 24  1  0
  7  2  1  0
 24 10  1  0
 22 15  2  0
  1 25  1  0
  1 26  1  0
  1 27  1  0
  3 28  1  0
  4 29  1  0
  5 30  1  0
  6 31  1  0
 11 32  1  0
 11 33  1  0
 12 34  1  0
 12 35  1  0
 14 36  1  0
 14 37  1  0
 16 38  1  0
 17 39  1  0
 19 40  1  0
 20 41  1  0
 20 42  1  0
 20 43  1  0
 21 44  1  0
 21 45  1  0
 21 46  1  0
 22 47  1  0
 23 48  1  0
 23 49  1  0
 24 50  1  0
 24 51  1  0
M  CHG  1  17   1
M  END
>  <UniqueID>  (22) 
21

>  <SMILES>  (22) 
Cc1ccccc1C(=O)N1CCN(Cc2c[nH+]n(C(C)C)c2)CC1

>  <Energy>  (22) 
91.25797414591732

>  <Genealogy>  (22) 
Cc1ccccc1C(=O)N1CCN(Cc2c[nH+]n(C(C)C)c2)CC1 (protonated)
Cc1ccccc1C(=O)N1CCN(Cc2c[nH+]n(C(C)C)c2)CC1 (3D coordinates assigned)
Cc1ccccc1C(=O)N1CCN(Cc2c[nH+]n(C(C)C)c2)CC1 (nonaromatic ring conformer: 91.25797414591732 kcal/mol)

>  <smiles>  (22) 
Cc1ccccc1C(=O)N1CCN(Cc2cnn(C(C)C)c2)CC1

>  <score_type>  (22) 
oracle

>  <origin>  (22) 
adg

>  <m_score__min__energy>  (22) 
-6.9699999999999998

>  <m_primary>  (22) 
energy

$$$$
22:0
     RDKit          3D

 51 55  0  0  0  0  0  0  0  0999 V2000
   58.1280   27.0860   42.7970 C   0  0  0  0  0  0  0  0  0  0  0  0
   57.8560   28.2570   43.7030 C   0  0  0  0  0  0  0  0  0  0  0  0
   56.6920   29.0180   43.5140 C   0  0  0  0  0  0  0  0  0  0  0  0
   56.4390   30.1060   44.3510 C   0  0  0  0  0  0  0  0  0  0  0  0
   55.3970   30.7940   44.1900 O   0  0  0  0  0  0  0  0  0  0  0  0
   57.2890   30.4210   45.3210 O   0  0  0  0  0  0  0  0  0  0  0  0
   58.4040   29.7350   45.5490 C   0  0  0  0  0  0  0  0  0  0  0  0
   59.2450   30.1260   46.5940 C   0  0  0  0  0  0  0  0  0  0  0  0
   60.4200   29.4070   46.8740 C   0  0  0  0  0  0  0  0  0  0  0  0
   61.2730   29.7430   47.9370 O   0  0  0  0  0  0  0  0  0  0  0  0
   61.4180   31.0520   48.4920 C   0  0  0  0  0  0  0  0  0  0  0  0
   60.3880   31.2690   49.5670 C   0  0  0  0  0  0  0  0  0  0  0  0
   59.6600   30.2440   50.0770 N   0  0  0  0  0  0  0  0  0  0  0  0
   58.7650   30.8360   50.8840 C   0  0  0  0  0  0  0  0  0  0  0  0
   57.7690   30.2330   51.6500 C   0  0  0  0  0  0  0  0  0  0  0  0
   56.9460   31.0710   52.4240 C   0  0  0  0  0  0  0  0  0  0  0  0
   57.1370   32.4720   52.4130 C   0  0  0  0  0  0  0  0  0  0  0  0
   58.1510   33.0480   51.6240 C   0  0  0  0  0  0  0  0  0  0  0  0
   58.9460   32.1890   50.8590 C   0  0  0  0  0  0  0  0  0  0  0  0
   59.9730   32.4820   50.0350 N   0  0  0  0  0  0  0  0  0  0  0  0
   60.4660   33.7850   49.6940 C   0  0  0  0  0  0  0  0  0  0  0  0
   61.5530   34.1920   50.1850 O   0  0  0  0  0  0  0  0  0  0  0  0
   59.6990   34.6240   48.8210 N   0  0  0  0  0  0  0  0  0  0  0  0
   59.1750   34.2860   47.5280 C   0  0  0  0  0  0  0  0  0  0  0  0
   59.7710   34.8590   46.3970 C   0  0  0  0  0  0  0  0  0  0  0  0
   59.2660   34.5960   45.1190 C   0  0  0  0  0  0  0  0  0  0  0  0
   58.1540   33.7670   44.9640 C   0  0  0  0  0  0  0  0  0  0  0  0
   57.5400   33.2050   46.0870 C   0  0  0  0  0  0  0  0  0  0  0  0
   58.0420   33.4650   47.3660 C   0  0  0  0  0  0  0  0  0  0  0  0
   60.7630   28.3190   46.0650 C   0  0  0  0  0  0  0  0  0  0  0  0
   59.9320   27.9220   45.0120 C   0  0  0  0  0  0  0  0  0  0  0  0
   58.7390   28.6190   44.7460 C   0  0  0  0  0  0  0  0  0  0  0  0
   58.3355   26.1928   43.4045 H   0  0  0  0  0  0  0  0  0  0  0  0
   57.2488   26.9016   42.1622 H   0  0  0  0  0  0  0  0  0  0  0  0
   58.9985   27.3080   42.1622 H   0  0  0  0  0  0  0  0  0  0  0  0
   55.9846   28.7590   42.7125 H   0  0  0  0  0  0  0  0  0  0  0  0
   58.9853   31.0044   47.2031 H   0  0  0  0  0  0  0  0  0  0  0  0
   62.4241   31.1555   48.9245 H   0  0  0  0  0  0  0  0  0  0  0  0
   61.2761   31.7999   47.6980 H   0  0  0  0  0  0  0  0  0  0  0  0
   59.7500   29.2260   49.8620 H   0  0  0  0  0  0  0  0  0  0  0  0
   57.6315   29.1416   51.6493 H   0  0  0  0  0  0  0  0  0  0  0  0
   56.1483   30.6334   53.0421 H   0  0  0  0  0  0  0  0  0  0  0  0
   56.4889   33.1164   53.0251 H   0  0  0  0  0  0  0  0  0  0  0  0
   58.3122   34.1360   51.6099 H   0  0  0  0  0  0  0  0  0  0  0  0
   60.6421   35.5203   46.5146 H   0  0  0  0  0  0  0  0  0  0  0  0
   59.7457   35.0429   44.2358 H   0  0  0  0  0  0  0  0  0  0  0  0
   57.7609   33.5559   43.9586 H   0  0  0  0  0  0  0  0  0  0  0  0
   56.6599   32.5567   45.9643 H   0  0  0  0  0  0  0  0  0  0  0  0
   57.5509   33.0273   48.2476 H   0  0  0  0  0  0  0  0  0  0  0  0
   61.6961   27.7696   46.2587 H   0  0  0  0  0  0  0  0  0  0  0  0
   60.2127   27.0603   44.3886 H   0  0  0  0  0  0  0  0  0  0  0  0
  1  2  1  0
  2  3  2  0
  3  4  1  0
  4  5  2  0
  4  6  1  0
  6  7  1  0
  7  8  2  0
  8  9  1  0
  9 10  1  0
 10 11  1  0
 11 12  1  0
 12 13  2  0
 13 14  1  0
 14 15  2  0
 15 16  1  0
 16 17  2  0
 17 18  1  0
 18 19  2  0
 19 20  1  0
 20 21  1  0
 21 22  2  0
 21 23  1  0
 23 24  1  0
 24 25  2  0
 25 26  1  0
 26 27  2  0
 27 28  1  0
 28 29  2  0
  9 30  2  0
 30 31  1  0
 31 32  2  0
 32  2  1  0
 32  7  1  0
 20 12  1  0
 29 24  1  0
 19 14  1  0
  1 33  1  0
  1 34  1  0
  1 35  1  0
  3 36  1  0
  8 37  1  0
 11 38  1  0
 11 39  1  0
 13 40  1  0
 15 41  1  0
 16 42  1  0
 17 43  1  0
 18 44  1  0
 25 45  1  0
 26 46  1  0
 27 47  1  0
 28 48  1  0
 29 49  1  0
 30 50  1  0
 31 51  1  0
M  CHG  2  13   1  23  -1
M  END
>  <UniqueID>  (23) 
22

>  <SMILES>  (23) 
Cc1cc(=O)oc2cc(OCc3[nH+]c4ccccc4n3C(=O)[N-]c3ccccc3)ccc12

>  <Energy>  (23) 
107.63889134501075

>  <Genealogy>  (23) 
Cc1cc(=O)oc2cc(OCc3[nH+]c4ccccc4n3C(=O)[N-]c3ccccc3)ccc12 (protonated)
Cc1cc(=O)oc2cc(OCc3[nH+]c4ccccc4n3C(=O)[N-]c3ccccc3)ccc12 (3D coordinates assigned)
Cc1cc(=O)oc2cc(OCc3[nH+]c4ccccc4n3C(=O)[N-]c3ccccc3)ccc12 (optimized conformer: 107.63889134501075 kcal/mol)

>  <smiles>  (23) 
Cc1cc(=O)oc2cc(OCc3nc4ccccc4n3C(=O)Nc3ccccc3)ccc12

>  <score_type>  (23) 
oracle

>  <origin>  (23) 
adg

>  <m_score__min__energy>  (23) 
-9.8699999999999992

>  <m_primary>  (23) 
energy

$$$$
23:0
     RDKit          3D

 51 54  0  0  0  0  0  0  0  0999 V2000
   57.9840   35.0230   44.5790 O   0  0  0  0  0  0  0  0  0  0  0  0
   58.1200   33.8560   45.0370 C   0  0  0  0  0  0  0  0  0  0  0  0
   57.6250   32.6990   44.2570 C   0  0  0  0  0  0  0  0  0  0  0  0
   57.8910   32.6000   42.8810 C   0  0  0  0  0  0  0  0  0  0  0  0
   57.4430   31.4960   42.1510 C   0  0  0  0  0  0  0  0  0  0  0  0
   56.7310   30.4750   42.7870 C   0  0  0  0  0  0  0  0  0  0  0  0
   56.4560   30.5570   44.1610 C   0  0  0  0  0  0  0  0  0  0  0  0
   55.7350   29.4380   44.8600 C   0  0  0  0  0  0  0  0  0  0  0  0
   56.7090   28.3870   45.2940 C   0  0  0  0  0  0  0  0  0  0  0  0
   58.0450   28.5210   45.2230 N   0  0  0  0  0  0  0  0  0  0  0  0
   58.5000   27.3730   45.7720 C   0  0  0  0  0  0  0  0  0  0  0  0
   59.7280   27.1170   45.8810 O   0  0  0  0  0  0  0  0  0  0  0  0
   57.5390   26.5260   46.1960 N   0  0  0  0  0  0  0  0  0  0  0  0
   56.4100   27.1860   45.8910 C   0  0  0  0  0  0  0  0  0  0  0  0
   55.1330   26.7060   46.1570 O   0  0  0  0  0  0  0  0  0  0  0  0
   56.9180   31.6640   44.8910 C   0  0  0  0  0  0  0  0  0  0  0  0
   58.7730   33.6690   46.3020 N   0  0  0  0  0  0  0  0  0  0  0  0
   58.0630   33.0150   47.4060 C   0  0  0  0  0  0  0  0  0  0  0  0
   59.0090   32.0630   48.1340 C   0  0  0  0  0  0  0  0  0  0  0  0
   60.2790   32.7810   48.6590 C   0  0  0  0  0  0  0  0  0  0  0  0
   61.4340   31.8420   48.6880 N   0  0  0  0  0  0  0  0  0  0  0  0
   62.5910   32.3520   49.4450 C   0  0  0  0  0  0  0  0  0  0  0  0
   63.8170   32.2960   48.5410 C   0  0  0  0  0  0  0  0  0  0  0  0
   63.2820   32.0370   47.1500 C   0  0  0  0  0  0  0  0  0  0  0  0
   61.9260   31.4020   47.3730 C   0  0  0  0  0  0  0  0  0  0  0  0
   60.5730   34.1520   47.9710 C   0  0  0  0  0  0  0  0  0  0  0  0
   60.0950   34.2720   46.5130 C   0  0  0  0  0  0  0  0  0  0  0  0
   58.4557   33.3969   42.3750 H   0  0  0  0  0  0  0  0  0  0  0  0
   57.6512   31.4302   41.0729 H   0  0  0  0  0  0  0  0  0  0  0  0
   56.3853   29.6051   42.2093 H   0  0  0  0  0  0  0  0  0  0  0  0
   55.2137   29.8370   45.7426 H   0  0  0  0  0  0  0  0  0  0  0  0
   55.0089   28.9898   44.1658 H   0  0  0  0  0  0  0  0  0  0  0  0
   54.7650   26.7100   47.1010 H   0  0  0  0  0  0  0  0  0  0  0  0
   56.7239   31.7213   45.9722 H   0  0  0  0  0  0  0  0  0  0  0  0
   57.6992   33.7781   48.1098 H   0  0  0  0  0  0  0  0  0  0  0  0
   57.2111   32.4462   47.0051 H   0  0  0  0  0  0  0  0  0  0  0  0
   58.4758   31.6187   48.9874 H   0  0  0  0  0  0  0  0  0  0  0  0
   59.3303   31.2941   47.4159 H   0  0  0  0  0  0  0  0  0  0  0  0
   60.0804   33.0769   49.6997 H   0  0  0  0  0  0  0  0  0  0  0  0
   62.4043   33.3909   49.7545 H   0  0  0  0  0  0  0  0  0  0  0  0
   62.7550   31.7401   50.3442 H   0  0  0  0  0  0  0  0  0  0  0  0
   64.3613   33.2514   48.5718 H   0  0  0  0  0  0  0  0  0  0  0  0
   64.5230   31.5146   48.8588 H   0  0  0  0  0  0  0  0  0  0  0  0
   63.1822   32.9791   46.5910 H   0  0  0  0  0  0  0  0  0  0  0  0
   63.9511   31.3940   46.5594 H   0  0  0  0  0  0  0  0  0  0  0  0
   61.2283   31.7235   46.5857 H   0  0  0  0  0  0  0  0  0  0  0  0
   62.0052   30.3054   47.3397 H   0  0  0  0  0  0  0  0  0  0  0  0
   60.0770   34.9397   48.5572 H   0  0  0  0  0  0  0  0  0  0  0  0
   61.6683   34.2486   47.9410 H   0  0  0  0  0  0  0  0  0  0  0  0
   60.0431   35.3377   46.2456 H   0  0  0  0  0  0  0  0  0  0  0  0
   60.8137   33.7302   45.8806 H   0  0  0  0  0  0  0  0  0  0  0  0
  1  2  2  0
  2  3  1  0
  3  4  2  0
  4  5  1  0
  5  6  2  0
  6  7  1  0
  7  8  1  0
  8  9  1  0
  9 10  1  0
 10 11  1  0
 11 12  2  0
 11 13  1  0
 13 14  1  0
 14 15  1  0
  7 16  2  0
  2 17  1  0
 17 18  1  0
 18 19  1  0
 19 20  1  0
 20 21  1  0
 21 22  1  0
 22 23  1  0
 23 24  1  0
 24 25  1  0
 20 26  1  0
 26 27  1  0
 16  3  1  0
 27 17  1  0
 14  9  2  0
 25 21  1  0
  4 28  1  0
  5 29  1  0
  6 30  1  0
  8 31  1  0
  8 32  1  0
 15 33  1  0
 16 34  1  0
 18 35  1  0
 18 36  1  0
 19 37  1  0
 19 38  1  0
 20 39  1  0
 22 40  1  0
 22 41  1  0
 23 42  1  0
 23 43  1  0
 24 44  1  0
 24 45  1  0
 25 46  1  0
 25 47  1  0
 26 48  1  0
 26 49  1  0
 27 50  1  0
 27 51  1  0
M  CHG  2  10  -1  13  -1
M  END
>  <UniqueID>  (24) 
23

>  <SMILES>  (24) 
O=C(c1cccc(Cc2[n-]c(=O)[n-]c2O)c1)N1CCC(N2CCCC2)CC1

>  <Energy>  (24) 
94.4378803311384

>  <Genealogy>  (24) 
O=C(c1cccc(Cc2[n-]c(=O)[n-]c2O)c1)N1CCC(N2CCCC2)CC1 (protonated)
O=C(c1cccc(Cc2[n-]c(=O)[n-]c2O)c1)N1CCC(N2CCCC2)CC1 (3D coordinates assigned)
O=C(c1cccc(Cc2[n-]c(=O)[n-]c2O)c1)N1CCC(N2CCCC2)CC1 (nonaromatic ring conformer: 94.4378803311384 kcal/mol)

>  <smiles>  (24) 
O=C(c1cccc(Cc2[nH]c(=O)[nH]c2O)c1)N1CCC(N2CCCC2)CC1

>  <score_type>  (24) 
oracle

>  <origin>  (24) 
adg

>  <m_score__min__energy>  (24) 
-14.44

>  <m_primary>  (24) 
energy

$$$$
24:0
     RDKit          3D

 55 58  0  0  1  0  0  0  0  0999 V2000
   65.3940   32.9460   49.8070 C   0  0  0  0  0  0  0  0  0  0  0  0
   63.9130   33.0490   49.6300 C   0  0  0  0  0  0  0  0  0  0  0  0
   63.4020   32.8700   48.3650 C   0  0  0  0  0  0  0  0  0  0  0  0
   62.0410   32.9570   48.1640 C   0  0  0  0  0  0  0  0  0  0  0  0
   61.5490   32.7650   46.7760 C   0  0  0  0  0  0  0  0  0  0  0  0
   61.1730   33.2230   49.2190 C   0  0  0  0  0  0  0  0  0  0  0  0
   59.7260   33.2140   48.8840 C   0  0  0  0  0  0  0  0  0  0  0  0
   59.5410   34.6120   47.6820 S   0  0  0  0  0  0  0  0  0  0  0  0
   58.5700   34.0000   46.3340 C   0  0  0  0  0  0  0  0  0  0  0  0
   58.1600   34.2270   45.2330 N   0  0  0  0  0  0  0  0  0  0  0  0
   57.4170   33.5130   44.4730 N   0  0  0  0  0  0  0  0  0  0  0  0
   57.0240   32.3440   44.9370 C   0  0  0  0  0  0  0  0  0  0  0  0
   56.2940   31.3990   44.4590 N   0  0  0  0  0  0  0  0  0  0  0  0
   56.6410   30.0510   44.7150 C   0  0  0  0  0  0  0  0  0  0  0  0
   55.7670   29.2830   45.2120 O   0  0  0  0  0  0  0  0  0  0  0  0
   57.9860   29.4830   44.4300 C   0  0  0  0  0  0  0  0  0  0  0  0
   58.7090   29.2960   45.7330 C   0  0  0  0  0  0  0  0  0  0  0  0
   59.9790   29.8260   45.9020 C   0  0  0  0  0  0  0  0  0  0  0  0
   60.7050   29.6990   47.0600 C   0  0  0  0  0  0  0  0  0  0  0  0
   60.1470   29.0090   48.1160 C   0  0  0  0  0  0  0  0  0  0  0  0
   58.8710   28.4720   47.9590 C   0  0  0  0  0  0  0  0  0  0  0  0
   58.1580   28.6100   46.7880 C   0  0  0  0  0  0  0  0  0  0  0  0
   57.7740   32.2710   46.5760 S   0  0  0  0  0  0  0  0  0  0  0  0
   61.6620   33.4070   50.4800 C   0  0  0  0  0  0  0  0  0  0  0  0
   60.8900   33.7960   51.6740 C   0  0  0  0  0  0  0  0  0  0  0  0
   59.6510   33.0080   51.7380 C   0  0  0  0  0  0  0  0  0  0  0  0
   59.7520   31.2940   51.3880 S   0  0  0  0  0  0  0  0  0  0  0  0
   57.9270   31.0210   51.6800 C   0  0  0  0  0  0  0  0  0  0  0  0
   57.3980   29.8840   51.5610 O   0  0  0  0  0  0  0  0  0  0  0  0
   57.4990   32.2280   51.9940 N   0  0  0  0  0  0  0  0  0  0  0  0
   58.3400   33.2290   52.0280 C   0  0  0  0  0  0  0  0  0  0  0  0
   57.8880   34.5420   52.3650 O   0  0  0  0  0  0  0  0  0  0  0  0
   63.0520   33.3140   50.6700 C   0  0  0  0  0  0  0  0  0  0  0  0
   65.6347   32.9293   50.8802 H   0  0  0  0  0  0  0  0  0  0  0  0
   65.7561   32.0205   49.3355 H   0  0  0  0  0  0  0  0  0  0  0  0
   65.8808   33.8125   49.3355 H   0  0  0  0  0  0  0  0  0  0  0  0
   64.0745   32.6591   47.5205 H   0  0  0  0  0  0  0  0  0  0  0  0
   60.5246   32.3652   46.8021 H   0  0  0  0  0  0  0  0  0  0  0  0
   61.5525   33.7305   46.2489 H   0  0  0  0  0  0  0  0  0  0  0  0
   62.2055   32.0571   46.2489 H   0  0  0  0  0  0  0  0  0  0  0  0
   59.4369   32.2588   48.4214 H   0  0  0  0  0  0  0  0  0  0  0  0
   59.0838   33.3272   49.7699 H   0  0  0  0  0  0  0  0  0  0  0  0
   57.1190   33.8400   43.4910 H   0  0  0  0  0  0  0  0  0  0  0  0
   57.8794   28.5131   43.9221 H   0  0  0  0  0  0  0  0  0  0  0  0
   58.5529   30.1641   43.7783 H   0  0  0  0  0  0  0  0  0  0  0  0
   60.4288   30.3777   45.0634 H   0  0  0  0  0  0  0  0  0  0  0  0
   61.7101   30.1380   47.1440 H   0  0  0  0  0  0  0  0  0  0  0  0
   60.6969   28.8855   49.0606 H   0  0  0  0  0  0  0  0  0  0  0  0
   58.4185   27.9205   48.7963 H   0  0  0  0  0  0  0  0  0  0  0  0
   57.1525   28.1730   46.6984 H   0  0  0  0  0  0  0  0  0  0  0  0
   61.4908   33.6075   52.5759 H   0  0  0  0  0  0  0  0  0  0  0  0
   60.6401   34.8656   51.6151 H   0  0  0  0  0  0  0  0  0  0  0  0
   56.4470   32.3660   52.2190 H   0  0  0  0  0  0  0  0  0  0  0  0
   58.2340   35.3420   51.8940 H   0  0  0  0  0  0  0  0  0  0  0  0
   63.4633   33.4574   51.6801 H   0  0  0  0  0  0  0  0  0  0  0  0
  1  2  1  0
  2  3  2  0
  3  4  1  0
  4  5  1  0
  4  6  2  0
  6  7  1  0
  7  8  1  0
  8  9  1  0
  9 10  2  0
 10 11  1  0
 11 12  1  0
 12 13  2  0
 13 14  1  0
 14 15  2  0
 14 16  1  0
 16 17  1  0
 17 18  2  0
 18 19  1  0
 19 20  2  0
 20 21  1  0
 21 22  2  0
 12 23  1  0
  6 24  1  0
 24 25  1  0
 25 26  1  0
 26 27  1  0
 27 28  1  0
 28 29  2  0
 28 30  1  0
 30 31  1  0
 31 32  1  0
 24 33  2  0
 33  2  1  0
 23  9  1  0
 31 26  2  0
 22 17  1  0
  1 34  1  0
  1 35  1  0
  1 36  1  0
  3 37  1  0
  5 38  1  0
  5 39  1  0
  5 40  1  0
  7 41  1  0
  7 42  1  0
 11 43  1  0
 16 44  1  0
 16 45  1  0
 18 46  1  0
 19 47  1  0
 20 48  1  0
 21 49  1  0
 22 50  1  0
 25 51  1  0
 25 52  1  0
 30 53  1  0
 32 54  1  0
 33 55  1  0
M  END
>  <smiles>  (25) 
Cc1cc(C)c(CSc2n[nH]c(=NC(=O)Cc3ccccc3)s2)c(Cc2sc(=O)[nH]c2O)c1

>  <score_type>  (25) 
oracle

>  <origin>  (25) 
adg

>  <m_score__min__energy>  (25) 
-11.75

>  <m_primary>  (25) 
energy

$$$$
25:0
     RDKit          3D

 60 63  0  0  0  0  0  0  0  0999 V2000
   56.9180   21.1150   43.0150 C   0  0  0  0  0  0  0  0  0  0  0  0
   55.9130   22.0650   43.3460 O   0  0  0  0  0  0  0  0  0  0  0  0
   56.1500   23.2730   44.0210 C   0  0  0  0  0  0  0  0  0  0  0  0
   55.2480   23.7990   44.9650 C   0  0  0  0  0  0  0  0  0  0  0  0
   55.5400   24.9950   45.6300 C   0  0  0  0  0  0  0  0  0  0  0  0
   56.7360   25.6820   45.3650 C   0  0  0  0  0  0  0  0  0  0  0  0
   57.0720   26.9420   46.1210 C   0  0  0  0  0  0  0  0  0  0  0  0
   57.5810   27.9790   45.2110 N   0  0  0  0  0  0  0  0  0  0  0  0
   56.6260   28.9350   44.6300 C   0  0  0  0  0  0  0  0  0  0  0  0
   57.2100   30.3130   44.5890 C   0  0  0  0  0  0  0  0  0  0  0  0
   57.5400   30.8740   43.4000 N   0  0  0  0  0  0  0  0  0  0  0  0
   58.0520   32.1310   43.3310 C   0  0  0  0  0  0  0  0  0  0  0  0
   58.3430   32.6140   42.2050 O   0  0  0  0  0  0  0  0  0  0  0  0
   58.2430   32.8740   44.5030 C   0  0  0  0  0  0  0  0  0  0  0  0
   58.7530   34.1860   44.4950 C   0  0  0  0  0  0  0  0  0  0  0  0
   58.9170   34.8790   45.6960 C   0  0  0  0  0  0  0  0  0  0  0  0
   58.5780   34.2710   46.9100 C   0  0  0  0  0  0  0  0  0  0  0  0
   58.0740   32.9650   46.9290 C   0  0  0  0  0  0  0  0  0  0  0  0
   57.9040   32.2640   45.7310 C   0  0  0  0  0  0  0  0  0  0  0  0
   57.4010   31.0040   45.7450 N   0  0  0  0  0  0  0  0  0  0  0  0
   59.0070   28.0540   44.9520 C   0  0  0  0  0  0  0  0  0  0  0  0
   59.4360   27.9020   43.7750 O   0  0  0  0  0  0  0  0  0  0  0  0
   60.0190   28.2950   46.0420 C   0  0  0  0  0  0  0  0  0  0  0  0
   59.7820   29.5790   46.6990 N   0  0  0  0  0  0  0  0  0  0  0  0
   60.1810   29.8250   48.0540 C   0  0  0  0  0  0  0  0  0  0  0  0
   60.5640   28.8750   48.7910 O   0  0  0  0  0  0  0  0  0  0  0  0
   60.1780   31.2200   48.5940 C   0  0  0  0  0  0  0  0  0  0  0  0
   61.4360   31.9310   48.1690 C   0  0  0  0  0  0  0  0  0  0  0  0
   62.6290   31.7610   48.8940 C   0  0  0  0  0  0  0  0  0  0  0  0
   63.7960   32.4240   48.4940 C   0  0  0  0  0  0  0  0  0  0  0  0
   63.7750   33.2700   47.3780 C   0  0  0  0  0  0  0  0  0  0  0  0
   62.5840   33.4700   46.6760 C   0  0  0  0  0  0  0  0  0  0  0  0
   61.4140   32.8110   47.0740 C   0  0  0  0  0  0  0  0  0  0  0  0
   57.6290   25.1640   44.4120 C   0  0  0  0  0  0  0  0  0  0  0  0
   57.3340   23.9670   43.7490 C   0  0  0  0  0  0  0  0  0  0  0  0
   57.3526   20.7042   43.9383 H   0  0  0  0  0  0  0  0  0  0  0  0
   56.4725   20.3003   42.4253 H   0  0  0  0  0  0  0  0  0  0  0  0
   57.7064   21.6056   42.4253 H   0  0  0  0  0  0  0  0  0  0  0  0
   54.3094   23.2675   45.1809 H   0  0  0  0  0  0  0  0  0  0  0  0
   54.8285   25.3996   46.3648 H   0  0  0  0  0  0  0  0  0  0  0  0
   56.1659   27.3146   46.6211 H   0  0  0  0  0  0  0  0  0  0  0  0
   57.8515   26.7105   46.8618 H   0  0  0  0  0  0  0  0  0  0  0  0
   56.3768   28.6185   43.6064 H   0  0  0  0  0  0  0  0  0  0  0  0
   55.7219   28.9542   45.2562 H   0  0  0  0  0  0  0  0  0  0  0  0
   59.0224   34.6654   43.5423 H   0  0  0  0  0  0  0  0  0  0  0  0
   59.3135   35.9050   45.6879 H   0  0  0  0  0  0  0  0  0  0  0  0
   58.7081   34.8216   47.8534 H   0  0  0  0  0  0  0  0  0  0  0  0
   57.8118   32.4904   47.8861 H   0  0  0  0  0  0  0  0  0  0  0  0
   59.9440   27.4897   46.7875 H   0  0  0  0  0  0  0  0  0  0  0  0
   61.0229   28.3101   45.5925 H   0  0  0  0  0  0  0  0  0  0  0  0
   59.3420   30.3510   46.1510 H   0  0  0  0  0  0  0  0  0  0  0  0
   59.3029   31.7610   48.2048 H   0  0  0  0  0  0  0  0  0  0  0  0
   60.1321   31.1855   49.6925 H   0  0  0  0  0  0  0  0  0  0  0  0
   62.6456   31.1057   49.7774 H   0  0  0  0  0  0  0  0  0  0  0  0
   64.7300   32.2801   49.0569 H   0  0  0  0  0  0  0  0  0  0  0  0
   64.6961   33.7768   47.0544 H   0  0  0  0  0  0  0  0  0  0  0  0
   62.5650   34.1465   45.8088 H   0  0  0  0  0  0  0  0  0  0  0  0
   60.4749   32.9829   46.5276 H   0  0  0  0  0  0  0  0  0  0  0  0
   58.5624   25.7005   44.1863 H   0  0  0  0  0  0  0  0  0  0  0  0
   58.0405   23.5678   43.0063 H   0  0  0  0  0  0  0  0  0  0  0  0
  1  2  1  0
  2  3  1  0
  3  4  2  0
  4  5  1  0
  5  6  2  0
  6  7  1  0
  7  8  1  0
  8  9  1  0
  9 10  1  0
 10 11  2  0
 11 12  1  0
 12 13  2  0
 12 14  1  0
 14 15  2  0
 15 16  1  0
 16 17  2  0
 17 18  1  0
 18 19  2  0
 19 20  1  0
  8 21  1  0
 21 22  2  0
 21 23  1  0
 23 24  1  0
 24 25  1  0
 25 26  2  0
 25 27  1  0
 27 28  1  0
 28 29  2  0
 29 30  1  0
 30 31  2  0
 31 32  1  0
 32 33  2  0
  6 34  1  0
 34 35  2  0
 35  3  1  0
 20 10  1  0
 33 28  1  0
 19 14  1  0
  1 36  1  0
  1 37  1  0
  1 38  1  0
  4 39  1  0
  5 40  1  0
  7 41  1  0
  7 42  1  0
  9 43  1  0
  9 44  1  0
 15 45  1  0
 16 46  1  0
 17 47  1  0
 18 48  1  0
 23 49  1  0
 23 50  1  0
 24 51  1  0
 27 52  1  0
 27 53  1  0
 29 54  1  0
 30 55  1  0
 31 56  1  0
 32 57  1  0
 33 58  1  0
 34 59  1  0
 35 60  1  0
M  CHG  1  20  -1
M  END
>  <UniqueID>  (26) 
24

>  <SMILES>  (26) 
COc1ccc(CN(Cc2nc(=O)c3ccccc3[n-]2)C(=O)CNC(=O)Cc2ccccc2)cc1

>  <Energy>  (26) 
56.91690462443322

>  <Genealogy>  (26) 
COc1ccc(CN(Cc2nc(=O)c3ccccc3[n-]2)C(=O)CNC(=O)Cc2ccccc2)cc1 (protonated)
COc1ccc(CN(Cc2nc(=O)c3ccccc3[n-]2)C(=O)CNC(=O)Cc2ccccc2)cc1 (3D coordinates assigned)
COc1ccc(CN(Cc2nc(=O)c3ccccc3[n-]2)C(=O)CNC(=O)Cc2ccccc2)cc1 (optimized conformer: 56.91690462443322 kcal/mol)

>  <smiles>  (26) 
COc1ccc(CN(Cc2nc(=O)c3ccccc3[nH]2)C(=O)CNC(=O)Cc2ccccc2)cc1

>  <score_type>  (26) 
oracle

>  <origin>  (26) 
adg

>  <m_score__min__energy>  (26) 
-11.85

>  <m_primary>  (26) 
energy

$$$$
26:0
     RDKit          3D

 43 44  0  0  0  0  0  0  0  0999 V2000
   58.5820   31.4530   50.0350 O   0  0  0  0  0  0  0  0  0  0  0  0
   59.8010   31.4020   49.7130 C   0  0  0  0  0  0  0  0  0  0  0  0
   60.7490   32.4380   50.2270 C   0  0  0  0  0  0  0  0  0  0  0  0
   62.0020   32.4160   49.4610 N   0  0  0  0  0  0  0  0  0  0  0  0
   61.8750   33.4200   48.0450 S   0  0  0  0  0  0  0  0  0  0  0  0
   63.1490   34.1980   47.8510 O   0  0  0  0  0  0  0  0  0  0  0  0
   61.6180   32.5690   46.8280 O   0  0  0  0  0  0  0  0  0  0  0  0
   60.5230   34.5650   48.2590 C   0  0  0  0  0  0  0  0  0  0  0  0
   59.4810   34.3250   47.2010 C   0  0  0  0  0  0  0  0  0  0  0  0
   58.3720   33.5050   47.4740 C   0  0  0  0  0  0  0  0  0  0  0  0
   57.4500   33.2120   46.4640 C   0  0  0  0  0  0  0  0  0  0  0  0
   57.6480   33.7140   45.1710 C   0  0  0  0  0  0  0  0  0  0  0  0
   58.7550   34.5220   44.8890 C   0  0  0  0  0  0  0  0  0  0  0  0
   59.6700   34.8290   45.9020 C   0  0  0  0  0  0  0  0  0  0  0  0
   60.2830   30.3760   48.8900 O   0  0  0  0  0  0  0  0  0  0  0  0
   59.5110   29.7560   47.8590 C   0  0  0  0  0  0  0  0  0  0  0  0
   59.5670   30.5520   46.5440 C   0  0  0  0  0  0  0  0  0  0  0  0
   59.3860   29.6520   45.3150 C   0  0  0  0  0  0  0  0  0  0  0  0
   58.1760   28.7590   45.4690 C   0  0  0  0  0  0  0  0  0  0  0  0
   58.3260   27.4510   45.9460 C   0  0  0  0  0  0  0  0  0  0  0  0
   57.2480   26.6410   46.0870 N   0  0  0  0  0  0  0  0  0  0  0  0
   56.0050   27.0800   45.7720 C   0  0  0  0  0  0  0  0  0  0  0  0
   55.0110   26.3180   45.9090 O   0  0  0  0  0  0  0  0  0  0  0  0
   55.8270   28.3430   45.3070 N   0  0  0  0  0  0  0  0  0  0  0  0
   56.8800   29.1890   45.1440 C   0  0  0  0  0  0  0  0  0  0  0  0
   56.6740   30.3560   44.7060 O   0  0  0  0  0  0  0  0  0  0  0  0
   60.2852   33.4310   50.1334 H   0  0  0  0  0  0  0  0  0  0  0  0
   60.9738   32.2216   51.2818 H   0  0  0  0  0  0  0  0  0  0  0  0
   62.1320   31.4370   49.1070 H   0  0  0  0  0  0  0  0  0  0  0  0
   60.0748   34.4194   49.2529 H   0  0  0  0  0  0  0  0  0  0  0  0
   60.9007   35.5943   48.1704 H   0  0  0  0  0  0  0  0  0  0  0  0
   58.2292   33.0931   48.4839 H   0  0  0  0  0  0  0  0  0  0  0  0
   56.5709   32.5885   46.6844 H   0  0  0  0  0  0  0  0  0  0  0  0
   56.9298   33.4718   44.3738 H   0  0  0  0  0  0  0  0  0  0  0  0
   58.9056   34.9151   43.8728 H   0  0  0  0  0  0  0  0  0  0  0  0
   60.5392   35.4661   45.6817 H   0  0  0  0  0  0  0  0  0  0  0  0
   59.9043   28.7445   47.6796 H   0  0  0  0  0  0  0  0  0  0  0  0
   58.4632   29.7205   48.1919 H   0  0  0  0  0  0  0  0  0  0  0  0
   58.7664   31.3063   46.5519 H   0  0  0  0  0  0  0  0  0  0  0  0
   60.5589   31.0225   46.4755 H   0  0  0  0  0  0  0  0  0  0  0  0
   59.2559   30.2830   44.4234 H   0  0  0  0  0  0  0  0  0  0  0  0
   60.2784   29.0172   45.2119 H   0  0  0  0  0  0  0  0  0  0  0  0
   59.3268   27.0776   46.2085 H   0  0  0  0  0  0  0  0  0  0  0  0
  1  2  2  0
  2  3  1  0
  3  4  1  0
  4  5  1  0
  5  6  2  0
  5  7  2  0
  5  8  1  0
  8  9  1  0
  9 10  2  0
 10 11  1  0
 11 12  2  0
 12 13  1  0
 13 14  2  0
  2 15  1  0
 15 16  1  0
 16 17  1  0
 17 18  1  0
 18 19  1  0
 19 20  2  0
 20 21  1  0
 21 22  1  0
 22 23  2  0
 22 24  1  0
 24 25  1  0
 25 26  2  0
 14  9  1  0
 25 19  1  0
  3 27  1  0
  3 28  1  0
  4 29  1  0
  8 30  1  0
  8 31  1  0
 10 32  1  0
 11 33  1  0
 12 34  1  0
 13 35  1  0
 14 36  1  0
 16 37  1  0
 16 38  1  0
 17 39  1  0
 17 40  1  0
 18 41  1  0
 18 42  1  0
 20 43  1  0
M  CHG  2  21  -1  24  -1
M  END
>  <UniqueID>  (27) 
25

>  <SMILES>  (27) 
O=C(CNS(=O)(=O)Cc1ccccc1)OCCCc1c[n-]c(=O)[n-]c1=O

>  <Energy>  (27) 
33.37819936170696

>  <Genealogy>  (27) 
O=C(CNS(=O)(=O)Cc1ccccc1)OCCCc1c[n-]c(=O)[n-]c1=O (protonated)
O=C(CNS(=O)(=O)Cc1ccccc1)OCCCc1c[n-]c(=O)[n-]c1=O (3D coordinates assigned)
O=C(CNS(=O)(=O)Cc1ccccc1)OCCCc1c[n-]c(=O)[n-]c1=O (optimized conformer: 33.37819936170696 kcal/mol)

>  <smiles>  (27) 
O=C(CNS(=O)(=O)Cc1ccccc1)OCCCc1c[nH]c(=O)[nH]c1=O

>  <score_type>  (27) 
oracle

>  <origin>  (27) 
adg

>  <m_score__min__energy>  (27) 
-13.539999999999999

>  <m_primary>  (27) 
energy

$$$$
27:0
     RDKit          3D

 59 62  0  0  0  0  0  0  0  0999 V2000
   60.6810   27.7350   50.3260 O   0  0  0  0  0  0  0  0  0  0  0  0
   61.3610   28.7950   50.3630 C   0  0  0  0  0  0  0  0  0  0  0  0
   62.3660   28.9890   51.4640 C   0  0  0  0  0  0  0  0  0  0  0  0
   62.6890   30.3540   51.6420 O   0  0  0  0  0  0  0  0  0  0  0  0
   63.1550   30.9020   50.4240 C   0  0  0  0  0  0  0  0  0  0  0  0
   61.9980   31.0370   49.4300 C   0  0  0  0  0  0  0  0  0  0  0  0
   61.2570   29.7770   49.3150 N   0  0  0  0  0  0  0  0  0  0  0  0
   60.2980   29.6240   48.2520 C   0  0  0  0  0  0  0  0  0  0  0  0
   60.5920   30.0770   46.9560 C   0  0  0  0  0  0  0  0  0  0  0  0
   59.6590   29.9220   45.9260 C   0  0  0  0  0  0  0  0  0  0  0  0
   58.4290   29.3030   46.1760 C   0  0  0  0  0  0  0  0  0  0  0  0
   57.2390   29.1540   44.8830 S   0  0  0  0  0  0  0  0  0  0  0  0
   57.9030   28.5650   43.6680 O   0  0  0  0  0  0  0  0  0  0  0  0
   56.1300   28.2310   45.3090 O   0  0  0  0  0  0  0  0  0  0  0  0
   56.5950   30.7200   44.4770 N   0  0  0  0  0  0  0  0  0  0  0  0
   57.5640   31.7800   44.7760 C   0  0  1  0  0  0  0  0  0  0  0  0
   57.8940   32.5350   43.4890 C   0  0  0  0  0  0  0  0  0  0  0  0
   58.8920   33.6610   43.7920 C   0  0  0  0  0  0  0  0  0  0  0  0
   58.4330   34.5900   44.8650 N   0  0  2  0  0  0  0  0  0  0  0  0
   59.4710   34.8710   45.8470 C   0  0  0  0  0  0  0  0  0  0  0  0
   59.6000   36.0130   46.2680 O   0  0  0  0  0  0  0  0  0  0  0  0
   60.3420   33.7860   46.4460 C   0  0  0  0  0  0  0  0  0  0  0  0
   59.9620   33.5010   47.8760 C   0  0  0  0  0  0  0  0  0  0  0  0
   58.9040   32.6220   48.1650 C   0  0  0  0  0  0  0  0  0  0  0  0
   58.5450   32.3630   49.4910 C   0  0  0  0  0  0  0  0  0  0  0  0
   59.2380   32.9770   50.5390 C   0  0  0  0  0  0  0  0  0  0  0  0
   58.7870   32.6430   52.2010 Cl  0  0  0  0  0  0  0  0  0  0  0  0
   60.2900   33.8530   50.2600 C   0  0  0  0  0  0  0  0  0  0  0  0
   60.6520   34.1150   48.9350 C   0  0  0  0  0  0  0  0  0  0  0  0
   57.1500   34.2260   45.5200 C   0  0  0  0  0  0  0  0  0  0  0  0
   57.0180   32.7300   45.8680 C   0  0  0  0  0  0  0  0  0  0  0  0
   58.1340   28.8450   47.4670 C   0  0  0  0  0  0  0  0  0  0  0  0
   59.0630   29.0050   48.4990 C   0  0  0  0  0  0  0  0  0  0  0  0
   61.9472   28.5964   52.4023 H   0  0  0  0  0  0  0  0  0  0  0  0
   63.2854   28.4520   51.1879 H   0  0  0  0  0  0  0  0  0  0  0  0
   63.5887   31.8948   50.6143 H   0  0  0  0  0  0  0  0  0  0  0  0
   63.9189   30.2347   49.9983 H   0  0  0  0  0  0  0  0  0  0  0  0
   61.3149   31.8261   49.7775 H   0  0  0  0  0  0  0  0  0  0  0  0
   62.4108   31.2932   48.4431 H   0  0  0  0  0  0  0  0  0  0  0  0
   61.5606   30.5560   46.7499 H   0  0  0  0  0  0  0  0  0  0  0  0
   59.8928   30.2880   44.9154 H   0  0  0  0  0  0  0  0  0  0  0  0
   58.4885   31.3330   45.1703 H   0  0  0  0  0  0  0  0  0  0  0  0
   56.9722   32.9659   43.0711 H   0  0  0  0  0  0  0  0  0  0  0  0
   58.3388   31.8394   42.7621 H   0  0  0  0  0  0  0  0  0  0  0  0
   59.0504   34.2428   42.8720 H   0  0  0  0  0  0  0  0  0  0  0  0
   59.8174   33.1857   44.1495 H   0  0  0  0  0  0  0  0  0  0  0  0
   58.2350   35.5020   44.3830 H   0  0  0  0  0  0  0  0  0  0  0  0
   60.2246   32.8660   45.8546 H   0  0  0  0  0  0  0  0  0  0  0  0
   61.3861   34.1318   46.4282 H   0  0  0  0  0  0  0  0  0  0  0  0
   58.3562   32.1358   47.3443 H   0  0  0  0  0  0  0  0  0  0  0  0
   57.7155   31.6747   49.7105 H   0  0  0  0  0  0  0  0  0  0  0  0
   60.8344   34.3374   51.0840 H   0  0  0  0  0  0  0  0  0  0  0  0
   61.4812   34.8053   48.7206 H   0  0  0  0  0  0  0  0  0  0  0  0
   56.3277   34.4957   44.8409 H   0  0  0  0  0  0  0  0  0  0  0  0
   57.1153   34.7754   46.4723 H   0  0  0  0  0  0  0  0  0  0  0  0
   55.9528   32.5034   46.0226 H   0  0  0  0  0  0  0  0  0  0  0  0
   57.6226   32.5584   46.7708 H   0  0  0  0  0  0  0  0  0  0  0  0
   57.1685   28.3581   47.6689 H   0  0  0  0  0  0  0  0  0  0  0  0
   58.8248   28.6437   49.5103 H   0  0  0  0  0  0  0  0  0  0  0  0
  1  2  2  0
  2  3  1  0
  3  4  1  0
  4  5  1  0
  5  6  1  0
  6  7  1  0
  7  8  1  0
  8  9  2  0
  9 10  1  0
 10 11  2  0
 11 12  1  0
 12 13  2  0
 12 14  2  0
 12 15  1  0
 15 16  1  0
 16 17  1  0
 17 18  1  0
 18 19  1  0
 19 20  1  0
 20 21  2  0
 20 22  1  0
 22 23  1  0
 23 24  2  0
 24 25  1  0
 25 26  2  0
 26 27  1  0
 26 28  1  0
 28 29  2  0
 19 30  1  0
 30 31  1  0
 11 32  1  0
 32 33  2  0
  7  2  1  0
 33  8  1  0
 31 16  1  0
 29 23  1  0
  3 34  1  0
  3 35  1  0
  5 36  1  0
  5 37  1  0
  6 38  1  0
  6 39  1  0
  9 40  1  0
 10 41  1  0
 16 42  1  1
 17 43  1  0
 17 44  1  0
 18 45  1  0
 18 46  1  0
 19 47  1  6
 22 48  1  0
 22 49  1  0
 24 50  1  0
 25 51  1  0
 28 52  1  0
 29 53  1  0
 30 54  1  0
 30 55  1  0
 31 56  1  0
 31 57  1  0
 32 58  1  0
 33 59  1  0
M  CHG  2  15  -1  19   1
M  END
>  <UniqueID>  (28) 
26

>  <SMILES>  (28) 
O=C1COCCN1c1ccc(S(=O)(=O)[N-]C2CC[NH+](C(=O)Cc3ccc(Cl)cc3)CC2)cc1

>  <Energy>  (28) 
79.80618808136646

>  <Genealogy>  (28) 
O=C1COCCN1c1ccc(S(=O)(=O)[N-]C2CC[NH+](C(=O)Cc3ccc(Cl)cc3)CC2)cc1 (protonated)
O=C1COCCN1c1ccc(S(=O)(=O)[N-]C2CC[NH+](C(=O)Cc3ccc(Cl)cc3)CC2)cc1 (3D coordinates assigned)
O=C1COCCN1c1ccc(S(=O)(=O)[N-]C2CC[NH+](C(=O)Cc3ccc(Cl)cc3)CC2)cc1 (nonaromatic ring conformer: 79.80618808136646 kcal/mol)

>  <smiles>  (28) 
O=C(Cc1ccc(Cl)cc1)N1CCC(NS(=O)(=O)c2ccc(N3CCOCC3=O)cc2)CC1

>  <score_type>  (28) 
oracle

>  <origin>  (28) 
adg

>  <m_score__min__energy>  (28) 
-9.6199999999999992

>  <m_primary>  (28) 
energy

$$$$
28:0
     RDKit          3D

 48 51  0  0  0  0  0  0  0  0999 V2000
   58.3430   30.9950   46.5800 C   0  0  0  0  0  0  0  0  0  0  0  0
   58.2180   31.6740   45.4300 C   0  0  0  0  0  0  0  0  0  0  0  0
   57.9210   31.1690   44.1550 C   0  0  0  0  0  0  0  0  0  0  0  0
   57.7780   29.9050   43.7060 C   0  0  0  0  0  0  0  0  0  0  0  0
   57.5750   28.7160   44.5540 C   0  0  0  0  0  0  0  0  0  0  0  0
   56.3470   28.4660   45.2010 C   0  0  0  0  0  0  0  0  0  0  0  0
   55.2520   29.3190   45.0600 O   0  0  0  0  0  0  0  0  0  0  0  0
   56.2170   27.3670   45.9880 N   0  0  0  0  0  0  0  0  0  0  0  0
   57.2520   26.5090   46.1800 C   0  0  0  0  0  0  0  0  0  0  0  0
   57.0580   25.1990   47.1310 S   0  0  0  0  0  0  0  0  0  0  0  0
   58.4500   26.7460   45.5880 N   0  0  0  0  0  0  0  0  0  0  0  0
   58.6360   27.8270   44.7890 C   0  0  0  0  0  0  0  0  0  0  0  0
   59.7640   28.0170   44.2580 O   0  0  0  0  0  0  0  0  0  0  0  0
   57.8040   32.3070   43.3630 C   0  0  0  0  0  0  0  0  0  0  0  0
   57.4940   32.3570   41.8990 C   0  0  0  0  0  0  0  0  0  0  0  0
   58.0390   33.4080   44.0980 N   0  0  0  0  0  0  0  0  0  0  0  0
   58.2980   33.0260   45.3380 N   0  0  0  0  0  0  0  0  0  0  0  0
   58.5350   33.9900   46.4170 C   0  0  0  0  0  0  0  0  0  0  0  0
   59.7940   33.6420   47.1670 C   0  0  0  0  0  0  0  0  0  0  0  0
   59.7670   33.5110   48.5630 C   0  0  0  0  0  0  0  0  0  0  0  0
   60.9290   33.1790   49.2660 C   0  0  0  0  0  0  0  0  0  0  0  0
   62.1410   32.9730   48.5840 C   0  0  0  0  0  0  0  0  0  0  0  0
   63.3760   32.6160   49.3280 C   0  0  0  0  0  0  0  0  0  0  0  0
   64.5580   33.3580   49.1510 C   0  0  0  0  0  0  0  0  0  0  0  0
   65.7190   33.0200   49.8540 C   0  0  0  0  0  0  0  0  0  0  0  0
   65.7130   31.9420   50.7400 C   0  0  0  0  0  0  0  0  0  0  0  0
   64.5450   31.1970   50.9270 C   0  0  0  0  0  0  0  0  0  0  0  0
   63.3820   31.5310   50.2250 C   0  0  0  0  0  0  0  0  0  0  0  0
   62.1650   33.1110   47.1840 C   0  0  0  0  0  0  0  0  0  0  0  0
   61.0030   33.4450   46.4830 C   0  0  0  0  0  0  0  0  0  0  0  0
   58.5808   31.5297   47.5114 H   0  0  0  0  0  0  0  0  0  0  0  0
   58.2077   29.9034   46.5917 H   0  0  0  0  0  0  0  0  0  0  0  0
   57.8160   29.7485   42.6179 H   0  0  0  0  0  0  0  0  0  0  0  0
   55.1370   30.1600   45.6120 H   0  0  0  0  0  0  0  0  0  0  0  0
   56.4170   32.5307   41.7580 H   0  0  0  0  0  0  0  0  0  0  0  0
   58.0616   33.1752   41.4317 H   0  0  0  0  0  0  0  0  0  0  0  0
   57.7756   31.4018   41.4317 H   0  0  0  0  0  0  0  0  0  0  0  0
   58.6364   34.9973   45.9869 H   0  0  0  0  0  0  0  0  0  0  0  0
   57.6850   33.9598   47.1146 H   0  0  0  0  0  0  0  0  0  0  0  0
   58.8252   33.6705   49.1086 H   0  0  0  0  0  0  0  0  0  0  0  0
   60.8947   33.0782   50.3608 H   0  0  0  0  0  0  0  0  0  0  0  0
   64.5693   34.2098   48.4550 H   0  0  0  0  0  0  0  0  0  0  0  0
   66.6389   33.6053   49.7081 H   0  0  0  0  0  0  0  0  0  0  0  0
   66.6276   31.6784   51.2914 H   0  0  0  0  0  0  0  0  0  0  0  0
   64.5404   30.3479   51.6263 H   0  0  0  0  0  0  0  0  0  0  0  0
   62.4655   30.9415   50.3750 H   0  0  0  0  0  0  0  0  0  0  0  0
   63.1062   32.9547   46.6366 H   0  0  0  0  0  0  0  0  0  0  0  0
   61.0365   33.5540   45.3889 H   0  0  0  0  0  0  0  0  0  0  0  0
  1  2  2  0
  2  3  1  0
  3  4  2  3
  4  5  1  0
  5  6  2  0
  6  7  1  0
  6  8  1  0
  8  9  1  0
  9 10  2  0
  9 11  1  0
 11 12  1  0
 12 13  2  0
  3 14  1  0
 14 15  1  0
 14 16  2  0
 16 17  1  0
 17 18  1  0
 18 19  1  0
 19 20  2  0
 20 21  1  0
 21 22  2  0
 22 23  1  0
 23 24  2  0
 24 25  1  0
 25 26  2  0
 26 27  1  0
 27 28  2  0
 22 29  1  0
 29 30  2  0
 17  2  1  0
 30 19  1  0
 12  5  1  0
 28 23  1  0
  1 31  1  0
  1 32  1  0
  4 33  1  0
  7 34  1  0
 15 35  1  0
 15 36  1  0
 15 37  1  0
 18 38  1  0
 18 39  1  0
 20 40  1  0
 21 41  1  0
 24 42  1  0
 25 43  1  0
 26 44  1  0
 27 45  1  0
 28 46  1  0
 29 47  1  0
 30 48  1  0
M  CHG  2   8  -1  11  -1
M  END
>  <UniqueID>  (29) 
27

>  <SMILES>  (29) 
C=c1c(=Cc2c(O)[n-]c(=S)[n-]c2=O)c(C)nn1Cc1ccc(-c2ccccc2)cc1

>  <Energy>  (29) 
103.01914579602789

>  <Genealogy>  (29) 
C=c1c(=Cc2c(O)[n-]c(=S)[n-]c2=O)c(C)nn1Cc1ccc(-c2ccccc2)cc1 (protonated)
C=c1c(=Cc2c(O)[n-]c(=S)[n-]c2=O)c(C)nn1Cc1ccc(-c2ccccc2)cc1 (3D coordinates assigned)
C=c1c(=Cc2c(O)[n-]c(=S)[n-]c2=O)c(C)nn1Cc1ccc(-c2ccccc2)cc1 (optimized conformer: 103.01914579602789 kcal/mol)

>  <smiles>  (29) 
C=c1c(=Cc2c(O)[nH]c(=S)[nH]c2=O)c(C)nn1Cc1ccc(-c2ccccc2)cc1

>  <score_type>  (29) 
oracle

>  <origin>  (29) 
adg

>  <m_score__min__energy>  (29) 
-13.83

>  <m_primary>  (29) 
energy

$$$$
29:0
     RDKit          3D

 49 51  0  0  0  0  0  0  0  0999 V2000
   54.7720   27.0960   45.9570 H   0  0  0  0  0  0  0  0  0  0  0  0
   54.5730   26.1090   45.8400 O   0  0  0  0  0  0  0  0  0  0  0  0
   55.5700   25.1950   45.5000 C   0  0  0  0  0  0  0  0  0  0  0  0
   55.2740   24.1380   44.6270 C   0  0  0  0  0  0  0  0  0  0  0  0
   54.2650   24.0506   44.1978 H   0  0  0  0  0  0  0  0  0  0  0  0
   56.2590   23.1880   44.2960 C   0  0  0  0  0  0  0  0  0  0  0  0
   56.0100   22.1160   43.4260 O   0  0  0  0  0  0  0  0  0  0  0  0
   56.7200   20.8830   43.4460 C   0  0  0  0  0  0  0  0  0  0  0  0
   56.8957   20.5779   44.4881 H   0  0  0  0  0  0  0  0  0  0  0  0
   56.1283   20.1108   42.9327 H   0  0  0  0  0  0  0  0  0  0  0  0
   57.6849   21.0071   42.9327 H   0  0  0  0  0  0  0  0  0  0  0  0
   57.5350   23.3070   44.8540 C   0  0  0  0  0  0  0  0  0  0  0  0
   58.3096   22.5663   44.6064 H   0  0  0  0  0  0  0  0  0  0  0  0
   57.8350   24.3580   45.7230 C   0  0  0  0  0  0  0  0  0  0  0  0
   58.8388   24.4282   46.1674 H   0  0  0  0  0  0  0  0  0  0  0  0
   56.8690   25.3240   46.0340 C   0  0  0  0  0  0  0  0  0  0  0  0
   57.2230   26.3930   46.9960 C   0  0  0  0  0  0  0  0  0  0  0  0
   56.8912   26.2454   48.0343 H   0  0  0  0  0  0  0  0  0  0  0  0
   57.9150   27.5410   46.7380 C   0  0  0  0  0  0  0  0  0  0  0  0
   59.1240   27.9300   47.3890 C   0  0  0  0  0  0  0  0  0  0  0  0
   59.5540   27.4230   48.5540 C   0  0  0  0  0  0  0  0  0  0  0  0
   59.0163   26.5846   49.0209 H   0  0  0  0  0  0  0  0  0  0  0  0
   60.4444   27.8456   49.0425 H   0  0  0  0  0  0  0  0  0  0  0  0
   59.8410   28.9610   46.8800 N   0  0  0  0  0  0  0  0  0  0  0  0
   59.4140   29.7030   45.8340 C   0  0  0  0  0  0  0  0  0  0  0  0
   60.1430   30.6430   45.4190 O   0  0  0  0  0  0  0  0  0  0  0  0
   58.1900   29.4610   45.2700 N   0  0  0  0  0  0  0  0  0  0  0  0
   57.6970   30.3470   44.1910 C   0  0  0  0  0  0  0  0  0  0  0  0
   58.5615   30.7806   43.6669 H   0  0  0  0  0  0  0  0  0  0  0  0
   57.0791   29.7396   43.5134 H   0  0  0  0  0  0  0  0  0  0  0  0
   56.8190   31.4920   44.7290 C   0  0  0  0  0  0  0  0  0  0  0  0
   55.8385   31.4369   44.2335 H   0  0  0  0  0  0  0  0  0  0  0  0
   56.7542   31.3555   45.8186 H   0  0  0  0  0  0  0  0  0  0  0  0
   57.4010   32.8980   44.4930 C   0  0  0  0  0  0  0  0  0  0  0  0
   57.9802   32.8803   43.5580 H   0  0  0  0  0  0  0  0  0  0  0  0
   56.5490   33.5924   44.4499 H   0  0  0  0  0  0  0  0  0  0  0  0
   58.3040   33.3820   45.6020 C   0  0  0  0  0  0  0  0  0  0  0  0
   59.2120   34.4300   45.3650 C   0  0  0  0  0  0  0  0  0  0  0  0
   59.2896   34.8689   44.3594 H   0  0  0  0  0  0  0  0  0  0  0  0
   60.0160   34.9170   46.3990 C   0  0  0  0  0  0  0  0  0  0  0  0
   60.7393   35.7215   46.2002 H   0  0  0  0  0  0  0  0  0  0  0  0
   59.9020   34.3830   47.6850 C   0  0  0  0  0  0  0  0  0  0  0  0
   60.5331   34.7693   48.4989 H   0  0  0  0  0  0  0  0  0  0  0  0
   58.9870   33.3590   47.9370 C   0  0  0  0  0  0  0  0  0  0  0  0
   58.8966   32.9412   48.9506 H   0  0  0  0  0  0  0  0  0  0  0  0
   58.1850   32.8630   46.9040 C   0  0  0  0  0  0  0  0  0  0  0  0
   57.4581   32.0637   47.1106 H   0  0  0  0  0  0  0  0  0  0  0  0
   57.4250   28.4180   45.7320 C   0  0  0  0  0  0  0  0  0  0  0  0
   56.2750   28.2280   45.2420 O   0  0  0  0  0  0  0  0  0  0  0  0
  1  2  1  0
  2  3  1  0
  3  4  2  0
  4  5  1  0
  4  6  1  0
  6  7  1  0
  7  8  1  0
  8  9  1  0
  8 10  1  0
  8 11  1  0
  6 12  2  0
 12 13  1  0
 12 14  1  0
 14 15  1  0
 14 16  2  0
 16 17  1  0
 17 18  1  0
 17 19  2  0
 19 20  1  0
 20 21  2  0
 21 22  1  0
 21 23  1  0
 20 24  1  0
 24 25  1  0
 25 26  2  0
 25 27  1  0
 27 28  1  0
 28 29  1  0
 28 30  1  0
 28 31  1  0
 31 32  1  0
 31 33  1  0
 31 34  1  0
 34 35  1  0
 34 36  1  0
 34 37  1  0
 37 38  2  0
 38 39  1  0
 38 40  1  0
 40 41  1  0
 40 42  2  0
 42 43  1  0
 42 44  1  0
 44 45  1  0
 44 46  2  0
 46 47  1  0
 27 48  1  0
 48 49  2  0
 16  3  1  0
 48 19  1  0
 46 37  1  0
M  CHG  1  24  -1
M  END
>  <UniqueID>  (30) 
28

>  <SMILES>  (30) 
C=c1[n-]c(=O)n(CCCc2ccccc2)c(=O)/c1=C/c1ccc(OC)cc1O

>  <Energy>  (30) 
73.52284709942415

>  <Genealogy>  (30) 
C=c1[n-]c(=O)n(CCCc2ccccc2)c(=O)c1=Cc1ccc(OC)cc1O (protonated)
C=c1[n-]c(=O)n(CCCc2ccccc2)c(=O)/c1=C/c1ccc(OC)cc1O (cis-trans isomerization)
C=c1[n-]c(=O)n(CCCc2ccccc2)c(=O)/c1=C/c1ccc(OC)cc1O (3D coordinates assigned)
C=c1[n-]c(=O)n(CCCc2ccccc2)c(=O)/c1=C/c1ccc(OC)cc1O (optimized conformer: 73.52284709942415 kcal/mol)

>  <smiles>  (30) 
C=c1[nH]c(=O)n(CCCc2ccccc2)c(=O)c1=Cc1ccc(OC)cc1O

>  <score_type>  (30) 
oracle

>  <origin>  (30) 
adg

>  <m_score__min__energy>  (30) 
-11.25

>  <m_primary>  (30) 
energy

$$$$
30:0
     RDKit          3D

 48 50  0  0  0  0  0  0  0  0999 V2000
   64.5010   33.0430   48.9830 C   0  0  0  0  0  0  0  0  0  0  0  0
   63.4670   33.8280   48.1630 C   0  0  0  0  0  0  0  0  0  0  0  0
   63.2170   33.1430   46.8150 C   0  0  0  0  0  0  0  0  0  0  0  0
   62.1560   34.1090   48.9510 C   0  0  0  0  0  0  0  0  0  0  0  0
   61.1360   33.0360   48.8210 N   0  0  0  0  0  0  0  0  0  0  0  0
   60.0230   33.1730   48.0110 C   0  0  0  0  0  0  0  0  0  0  0  0
   59.7460   34.3970   47.3020 N   0  0  0  0  0  0  0  0  0  0  0  0
   59.1300   32.0980   47.8550 C   0  0  0  0  0  0  0  0  0  0  0  0
   57.9600   32.2410   47.0360 N   0  0  0  0  0  0  0  0  0  0  0  0
   57.9360   32.2460   45.6020 C   0  0  0  0  0  0  0  0  0  0  0  0
   58.7610   32.9650   44.9850 O   0  0  0  0  0  0  0  0  0  0  0  0
   57.0350   31.3270   44.8210 C   0  0  0  0  0  0  0  0  0  0  0  0
   57.3680   29.9320   45.1130 N   0  0  0  0  0  0  0  0  0  0  0  0
   56.5050   28.8920   45.1640 C   0  0  0  0  0  0  0  0  0  0  0  0
   55.1440   28.9820   44.8740 O   0  0  0  0  0  0  0  0  0  0  0  0
   57.1670   27.7390   45.5310 C   0  0  0  0  0  0  0  0  0  0  0  0
   58.4860   28.0830   45.7070 C   0  0  0  0  0  0  0  0  0  0  0  0
   58.5830   29.4340   45.4510 C   0  0  0  0  0  0  0  0  0  0  0  0
   59.7630   30.1760   45.5330 O   0  0  0  0  0  0  0  0  0  0  0  0
   59.5510   27.1300   46.1340 C   0  0  0  0  0  0  0  0  0  0  0  0
   59.0190   25.7160   46.2490 C   0  0  0  0  0  0  0  0  0  0  0  0
   57.7200   25.3750   46.0780 C   0  0  0  0  0  0  0  0  0  0  0  0
   56.6180   26.3630   45.7450 C   0  0  0  0  0  0  0  0  0  0  0  0
   59.3370   30.9430   48.6150 C   0  0  0  0  0  0  0  0  0  0  0  0
   58.5100   29.9930   48.5870 O   0  0  0  0  0  0  0  0  0  0  0  0
   60.4170   30.8530   49.4190 N   0  0  0  0  0  0  0  0  0  0  0  0
   61.3100   31.8650   49.5290 C   0  0  0  0  0  0  0  0  0  0  0  0
   62.2990   31.7080   50.2970 O   0  0  0  0  0  0  0  0  0  0  0  0
   64.3068   33.1904   50.0556 H   0  0  0  0  0  0  0  0  0  0  0  0
   64.4254   31.9728   48.7404 H   0  0  0  0  0  0  0  0  0  0  0  0
   65.5116   33.4035   48.7404 H   0  0  0  0  0  0  0  0  0  0  0  0
   63.8921   34.8214   47.9571 H   0  0  0  0  0  0  0  0  0  0  0  0
   62.8445   32.1222   46.9859 H   0  0  0  0  0  0  0  0  0  0  0  0
   62.4698   33.7155   46.2458 H   0  0  0  0  0  0  0  0  0  0  0  0
   64.1573   33.0996   46.2458 H   0  0  0  0  0  0  0  0  0  0  0  0
   62.4085   34.2202   50.0158 H   0  0  0  0  0  0  0  0  0  0  0  0
   61.7158   35.0226   48.5249 H   0  0  0  0  0  0  0  0  0  0  0  0
   59.0630   34.4600   46.5200 H   0  0  0  0  0  0  0  0  0  0  0  0
   60.2870   35.2700   47.4990 H   0  0  0  0  0  0  0  0  0  0  0  0
   55.9886   31.5180   45.1013 H   0  0  0  0  0  0  0  0  0  0  0  0
   57.1734   31.5137   43.7458 H   0  0  0  0  0  0  0  0  0  0  0  0
   59.7620   31.1520   45.7970 H   0  0  0  0  0  0  0  0  0  0  0  0
   60.3635   27.1468   45.3927 H   0  0  0  0  0  0  0  0  0  0  0  0
   59.9163   27.4423   47.1235 H   0  0  0  0  0  0  0  0  0  0  0  0
   59.7343   24.9149   46.4868 H   0  0  0  0  0  0  0  0  0  0  0  0
   57.4465   24.3152   46.1874 H   0  0  0  0  0  0  0  0  0  0  0  0
   56.1074   26.0344   44.8278 H   0  0  0  0  0  0  0  0  0  0  0  0
   55.9155   26.3973   46.5908 H   0  0  0  0  0  0  0  0  0  0  0  0
  1  2  1  0
  2  3  1  0
  2  4  1  0
  4  5  1  0
  5  6  1  0
  6  7  1  0
  6  8  2  0
  8  9  1  0
  9 10  1  0
 10 11  2  0
 10 12  1  0
 12 13  1  0
 13 14  1  0
 14 15  1  0
 14 16  2  0
 16 17  1  0
 17 18  2  0
 18 19  1  0
 17 20  1  0
 20 21  1  0
 21 22  2  0
 22 23  1  0
  8 24  1  0
 24 25  2  0
 24 26  1  0
 26 27  1  0
 27 28  2  0
 27  5  1  0
 18 13  1  0
 23 16  1  0
  1 29  1  0
  1 30  1  0
  1 31  1  0
  2 32  1  0
  3 33  1  0
  3 34  1  0
  3 35  1  0
  4 36  1  0
  4 37  1  0
  7 38  1  0
  7 39  1  0
 12 40  1  0
 12 41  1  0
 19 42  1  0
 20 43  1  0
 20 44  1  0
 21 45  1  0
 22 46  1  0
 23 47  1  0
 23 48  1  0
M  CHG  3   9  -1  15  -1  26  -1
M  END
>  <UniqueID>  (31) 
29

>  <SMILES>  (31) 
CC(C)Cn1c(N)c([N-]C(=O)Cn2c([O-])c3c(c2O)CC=CC3)c(=O)[n-]c1=O

>  <Energy>  (31) 
89.1727274663279

>  <Genealogy>  (31) 
CC(C)Cn1c(N)c([N-]C(=O)Cn2c([O-])c3c(c2O)CC=CC3)c(=O)[n-]c1=O (protonated)
CC(C)Cn1c(N)c([N-]C(=O)Cn2c([O-])c3c(c2O)CC=CC3)c(=O)[n-]c1=O (3D coordinates assigned)
CC(C)Cn1c(N)c([N-]C(=O)Cn2c([O-])c3c(c2O)CC=CC3)c(=O)[n-]c1=O (nonaromatic ring conformer: 89.1727274663279 kcal/mol)

>  <smiles>  (31) 
CC(C)Cn1c(N)c(NC(=O)Cn2c(O)c3c(c2O)CC=CC3)c(=O)[nH]c1=O

>  <score_type>  (31) 
oracle

>  <origin>  (31) 
adg

>  <m_score__min__energy>  (31) 
-12.83

>  <m_primary>  (31) 
energy

$$$$
31:0
     RDKit          3D

 41 43  0  0  0  0  0  0  0  0999 V2000
   56.5606   30.3690   44.0085 H   0  0  0  0  0  0  0  0  0  0  0  0
   57.0520   29.6270   44.6550 C   0  0  0  0  0  0  0  0  0  0  0  0
   56.3610   28.5400   45.0850 N   0  0  0  0  0  0  0  0  0  0  0  0
   56.9200   27.5930   45.8890 C   0  0  0  0  0  0  0  0  0  0  0  0
   56.1240   26.4260   46.3510 C   0  0  0  0  0  0  0  0  0  0  0  0
   56.6690   25.5770   47.1080 O   0  0  0  0  0  0  0  0  0  0  0  0
   54.7550   26.2050   45.9760 N   0  0  0  0  0  0  0  0  0  0  0  0
   54.1410   24.9310   45.6320 C   0  0  0  0  0  0  0  0  0  0  0  0
   53.8799   24.3892   46.5530 H   0  0  0  0  0  0  0  0  0  0  0  0
   53.2304   25.1104   45.0415 H   0  0  0  0  0  0  0  0  0  0  0  0
   54.8486   24.3305   45.0415 H   0  0  0  0  0  0  0  0  0  0  0  0
   58.2590   27.7480   46.2900 C   0  0  0  0  0  0  0  0  0  0  0  0
   58.7227   27.0035   46.9538 H   0  0  0  0  0  0  0  0  0  0  0  0
   59.0020   28.8460   45.8470 C   0  0  0  0  0  0  0  0  0  0  0  0
   60.3320   28.9780   46.2700 O   0  0  0  0  0  0  0  0  0  0  0  0
   60.8010   29.9210   47.1970 C   0  0  0  0  0  0  0  0  0  0  0  0
   60.3260   29.9750   48.5160 C   0  0  0  0  0  0  0  0  0  0  0  0
   59.5695   29.2530   48.8572 H   0  0  0  0  0  0  0  0  0  0  0  0
   60.7990   30.9180   49.3730 N   0  0  0  0  0  0  0  0  0  0  0  0
   61.7310   31.8400   48.9990 C   0  0  0  0  0  0  0  0  0  0  0  0
   62.1710   32.7330   49.8390 N   0  0  0  0  0  0  0  0  0  0  0  0
   61.8310   34.1270   49.8900 C   0  0  0  0  0  0  0  0  0  0  0  0
   62.6890   34.9410   50.3210 O   0  0  0  0  0  0  0  0  0  0  0  0
   60.5220   34.5870   49.5210 N   0  0  0  0  0  0  0  0  0  0  0  0
   59.8130   34.2810   48.3110 C   0  0  0  0  0  0  0  0  0  0  0  0
   58.8800   33.2350   48.3280 C   0  0  0  0  0  0  0  0  0  0  0  0
   58.6958   32.6816   49.2606 H   0  0  0  0  0  0  0  0  0  0  0  0
   58.1820   32.8910   47.1660 C   0  0  0  0  0  0  0  0  0  0  0  0
   57.4432   32.0764   47.1906 H   0  0  0  0  0  0  0  0  0  0  0  0
   58.4210   33.5800   45.9730 C   0  0  0  0  0  0  0  0  0  0  0  0
   57.5450   33.1460   44.5170 Cl  0  0  0  0  0  0  0  0  0  0  0  0
   59.3690   34.6080   45.9420 C   0  0  0  0  0  0  0  0  0  0  0  0
   59.5646   35.1452   45.0023 H   0  0  0  0  0  0  0  0  0  0  0  0
   60.0690   34.9550   47.1020 C   0  0  0  0  0  0  0  0  0  0  0  0
   60.8215   35.7567   47.0695 H   0  0  0  0  0  0  0  0  0  0  0  0
   62.2130   31.8310   47.6800 C   0  0  0  0  0  0  0  0  0  0  0  0
   63.4040   33.0060   47.1320 Cl  0  0  0  0  0  0  0  0  0  0  0  0
   61.7380   30.8690   46.7830 C   0  0  0  0  0  0  0  0  0  0  0  0
   62.1047   30.8594   45.7460 H   0  0  0  0  0  0  0  0  0  0  0  0
   58.3830   29.8050   45.0310 C   0  0  0  0  0  0  0  0  0  0  0  0
   58.9424   30.6890   44.6910 H   0  0  0  0  0  0  0  0  0  0  0  0
  1  2  1  0
  2  3  2  0
  3  4  1  0
  4  5  1  0
  5  6  2  0
  5  7  1  0
  7  8  1  0
  8  9  1  0
  8 10  1  0
  8 11  1  0
  4 12  2  0
 12 13  1  0
 12 14  1  0
 14 15  1  0
 15 16  1  0
 16 17  2  0
 17 18  1  0
 17 19  1  0
 19 20  1  0
 20 21  2  0
 21 22  1  0
 22 23  2  0
 22 24  1  0
 24 25  1  0
 25 26  2  0
 26 27  1  0
 26 28  1  0
 28 29  1  0
 28 30  2  0
 30 31  1  0
 30 32  1  0
 32 33  1  0
 32 34  2  0
 34 35  1  0
 20 36  1  0
 36 37  1  0
 36 38  2  0
 38 39  1  0
 14 40  2  0
 40 41  1  0
 40  2  1  0
 38 16  1  0
 34 25  1  0
M  CHG  3   7  -1  19  -1  24  -1
M  END
>  <UniqueID>  (32) 
30

>  <SMILES>  (32) 
C[N-]C(=O)c1cc(Oc2c[n-]/c(=N\C(=O)[N-]c3ccc(Cl)cc3)c(Cl)c2)ccn1

>  <Energy>  (32) 
59.02851420853258

>  <Genealogy>  (32) 
C[N-]C(=O)c1cc(Oc2c[n-]c(=NC(=O)[N-]c3ccc(Cl)cc3)c(Cl)c2)ccn1 (protonated)
C[N-]C(=O)c1cc(Oc2c[n-]/c(=N\C(=O)[N-]c3ccc(Cl)cc3)c(Cl)c2)ccn1 (cis-trans isomerization)
C[N-]C(=O)c1cc(Oc2c[n-]/c(=N\C(=O)[N-]c3ccc(Cl)cc3)c(Cl)c2)ccn1 (3D coordinates assigned)
C[N-]C(=O)c1cc(Oc2c[n-]/c(=N\C(=O)[N-]c3ccc(Cl)cc3)c(Cl)c2)ccn1 (optimized conformer: 59.02851420853258 kcal/mol)

>  <smiles>  (32) 
CNC(=O)c1cc(Oc2c[nH]c(=NC(=O)Nc3ccc(Cl)cc3)c(Cl)c2)ccn1

>  <score_type>  (32) 
oracle

>  <origin>  (32) 
adg

>  <m_score__min__energy>  (32) 
-13.470000000000001

>  <m_primary>  (32) 
energy

$$$$
32:0
     RDKit          3D

 60 64  0  0  0  0  0  0  0  0999 V2000
   55.3390   30.6560   52.2260 C   0  0  0  0  0  0  0  0  0  0  0  0
   56.0440   29.3290   52.4270 C   0  0  0  0  0  0  0  0  0  0  0  0
   57.4410   29.4670   52.1440 O   0  0  0  0  0  0  0  0  0  0  0  0
   58.2840   30.2890   52.9150 C   0  0  0  0  0  0  0  0  0  0  0  0
   58.1610   30.3180   54.1730 O   0  0  0  0  0  0  0  0  0  0  0  0
   59.4050   31.0560   52.2310 C   0  0  1  0  0  0  0  0  0  0  0  0
   59.6130   30.6620   50.7690 C   0  0  1  0  0  0  0  0  0  0  0  0
   59.3480   29.2390   50.2690 C   0  0  0  0  0  0  0  0  0  0  0  0
   59.6270   29.1980   48.8600 O   0  0  0  0  0  0  0  0  0  0  0  0
   59.3820   30.2890   48.0030 C   0  0  0  0  0  0  0  0  0  0  0  0
   59.5640   30.1330   46.6280 C   0  0  0  0  0  0  0  0  0  0  0  0
   59.2580   31.1810   45.7550 C   0  0  0  0  0  0  0  0  0  0  0  0
   58.7480   32.3870   46.2430 C   0  0  0  0  0  0  0  0  0  0  0  0
   58.4250   33.3890   45.3190 O   0  0  0  0  0  0  0  0  0  0  0  0
   57.1330   33.9940   45.1990 C   0  0  0  0  0  0  0  0  0  0  0  0
   58.5720   32.5540   47.6320 C   0  0  0  0  0  0  0  0  0  0  0  0
   58.9580   31.5370   48.5200 C   0  0  0  0  0  0  0  0  0  0  0  0
   58.7370   31.6480   50.0200 C   0  0  2  0  0  0  0  0  0  0  0  0
   58.9410   32.9560   50.6880 N   0  0  2  0  0  0  0  0  0  0  0  0
   59.9590   33.7970   50.0690 C   0  0  0  0  0  0  0  0  0  0  0  0
   59.6590   34.9680   49.6910 O   0  0  0  0  0  0  0  0  0  0  0  0
   61.3360   33.3210   49.8360 C   0  0  0  0  0  0  0  0  0  0  0  0
   61.8450   33.3270   48.5250 C   0  0  0  0  0  0  0  0  0  0  0  0
   63.1500   32.8750   48.2590 C   0  0  0  0  0  0  0  0  0  0  0  0
   63.6820   32.8490   46.9580 O   0  0  0  0  0  0  0  0  0  0  0  0
   63.5060   33.8920   46.0010 C   0  0  0  0  0  0  0  0  0  0  0  0
   63.9520   32.4480   49.3300 C   0  0  0  0  0  0  0  0  0  0  0  0
   63.4620   32.4740   50.6410 C   0  0  0  0  0  0  0  0  0  0  0  0
   62.1550   32.9110   50.9050 C   0  0  0  0  0  0  0  0  0  0  0  0
   61.7470   33.0760   52.2660 N   0  0  0  0  0  0  0  0  0  0  0  0
   60.4180   33.3390   52.7390 C   0  0  0  0  0  0  0  0  0  0  0  0
   60.2890   34.1320   53.7130 O   0  0  0  0  0  0  0  0  0  0  0  0
   59.1800   32.6280   52.1430 C   0  0  2  0  0  0  0  0  0  0  0  0
   57.9320   33.0820   52.9690 C   0  0  0  0  0  0  0  0  0  0  0  0
   55.1040   31.0984   53.2053 H   0  0  0  0  0  0  0  0  0  0  0  0
   55.9939   31.3376   51.6634 H   0  0  0  0  0  0  0  0  0  0  0  0
   54.4076   30.4949   51.6634 H   0  0  0  0  0  0  0  0  0  0  0  0
   55.9143   29.0022   53.4693 H   0  0  0  0  0  0  0  0  0  0  0  0
   55.6100   28.5834   51.7446 H   0  0  0  0  0  0  0  0  0  0  0  0
   60.2572   30.7963   52.8762 H   0  0  0  0  0  0  0  0  0  0  0  0
   60.6999   30.6882   50.6020 H   0  0  0  0  0  0  0  0  0  0  0  0
   60.0019   28.5306   50.7987 H   0  0  0  0  0  0  0  0  0  0  0  0
   58.3008   28.9595   50.4569 H   0  0  0  0  0  0  0  0  0  0  0  0
   59.9493   29.1826   46.2302 H   0  0  0  0  0  0  0  0  0  0  0  0
   59.4201   31.0552   44.6743 H   0  0  0  0  0  0  0  0  0  0  0  0
   56.7234   34.1858   46.2017 H   0  0  0  0  0  0  0  0  0  0  0  0
   57.2223   34.9439   44.6515 H   0  0  0  0  0  0  0  0  0  0  0  0
   56.4606   33.3171   44.6515 H   0  0  0  0  0  0  0  0  0  0  0  0
   58.1311   33.4836   48.0211 H   0  0  0  0  0  0  0  0  0  0  0  0
   57.6566   31.4483   50.0732 H   0  0  0  0  0  0  0  0  0  0  0  0
   58.0370   33.4780   50.5730 H   0  0  0  0  0  0  0  0  0  0  0  0
   61.2157   33.6891   47.6987 H   0  0  0  0  0  0  0  0  0  0  0  0
   63.3450   34.8462   46.5240 H   0  0  0  0  0  0  0  0  0  0  0  0
   64.4043   33.9665   45.3705 H   0  0  0  0  0  0  0  0  0  0  0  0
   62.6330   33.6676   45.3705 H   0  0  0  0  0  0  0  0  0  0  0  0
   64.9741   32.0900   49.1369 H   0  0  0  0  0  0  0  0  0  0  0  0
   64.1068   32.1492   51.4709 H   0  0  0  0  0  0  0  0  0  0  0  0
   58.1541   33.0012   54.0433 H   0  0  0  0  0  0  0  0  0  0  0  0
   57.6891   34.1261   52.7223 H   0  0  0  0  0  0  0  0  0  0  0  0
   57.0750   32.4380   52.7223 H   0  0  0  0  0  0  0  0  0  0  0  0
  1  2  1  0
  2  3  1  0
  3  4  1  0
  4  5  2  0
  4  6  1  0
  6  7  1  0
  7  8  1  0
  8  9  1  0
  9 10  1  0
 10 11  2  0
 11 12  1  0
 12 13  2  0
 13 14  1  0
 14 15  1  0
 13 16  1  0
 16 17  2  0
 17 18  1  0
 18 19  1  0
 19 20  1  0
 20 21  2  0
 20 22  1  0
 22 23  2  0
 23 24  1  0
 24 25  1  0
 25 26  1  0
 24 27  2  0
 27 28  1  0
 28 29  2  0
 29 30  1  0
 30 31  1  0
 31 32  2  0
 31 33  1  0
 33 34  1  1
 33  6  1  0
 18  7  1  0
 33 19  1  0
 17 10  1  0
 29 22  1  0
  1 35  1  0
  1 36  1  0
  1 37  1  0
  2 38  1  0
  2 39  1  0
  6 40  1  1
  7 41  1  6
  8 42  1  0
  8 43  1  0
 11 44  1  0
 12 45  1  0
 15 46  1  0
 15 47  1  0
 15 48  1  0
 16 49  1  0
 18 50  1  6
 19 51  1  1
 23 52  1  0
 26 53  1  0
 26 54  1  0
 26 55  1  0
 27 56  1  0
 28 57  1  0
 34 58  1  0
 34 59  1  0
 34 60  1  0
M  CHG  2  19   1  30  -1
M  END
>  <UniqueID>  (33) 
31

>  <SMILES>  (33) 
CCOC(=O)[C@H]1[C@H]2COc3ccc(OC)cc3C2[NH+]2C(=O)c3cc(OC)ccc3[N-]C(=O)C12C

>  <Energy>  (33) 
109.02891205607459

>  <Genealogy>  (33) 
CCOC(=O)C1C2COc3ccc(OC)cc3C2[NH+]2C(=O)c3cc(OC)ccc3[N-]C(=O)C12C (protonated)
CCOC(=O)[C@H]1[C@H]2COc3ccc(OC)cc3C2[NH+]2C(=O)c3cc(OC)ccc3[N-]C(=O)C12C (chirality)
CCOC(=O)[C@H]1[C@H]2COc3ccc(OC)cc3C2[NH+]2C(=O)c3cc(OC)ccc3[N-]C(=O)C12C (3D coordinates assigned)
CCOC(=O)[C@H]1[C@H]2COc3ccc(OC)cc3C2[NH+]2C(=O)c3cc(OC)ccc3[N-]C(=O)C12C (nonaromatic ring conformer: 109.02891205607459 kcal/mol)

>  <smiles>  (33) 
CCOC(=O)C1C2COc3ccc(OC)cc3C2N2C(=O)c3cc(OC)ccc3NC(=O)C12C

>  <score_type>  (33) 
oracle

>  <origin>  (33) 
adg

>  <m_score__min__energy>  (33) 
-4.7800000000000002

>  <m_primary>  (33) 
energy

$$$$
33:0
     RDKit          3D

 58 62  0  0  0  0  0  0  0  0999 V2000
   58.5980   28.9750   47.8880 O   0  0  0  0  0  0  0  0  0  0  0  0
   58.9950   30.1700   47.8320 C   0  0  0  0  0  0  0  0  0  0  0  0
   59.1770   30.8010   46.5550 N   0  0  0  0  0  0  0  0  0  0  0  0
   58.9890   30.0860   45.2950 C   0  0  0  0  0  0  0  0  0  0  0  0
   57.5310   29.8660   45.0380 C   0  0  0  0  0  0  0  0  0  0  0  0
   56.6510   30.7370   44.4340 C   0  0  0  0  0  0  0  0  0  0  0  0
   55.4390   30.1540   44.3660 N   0  0  0  0  0  0  0  0  0  0  0  0
   55.5240   28.9410   44.8940 N   0  0  0  0  0  0  0  0  0  0  0  0
   56.7910   28.7360   45.3060 C   0  0  0  0  0  0  0  0  0  0  0  0
   59.2660   30.9110   49.0810 C   0  0  0  0  0  0  0  0  0  0  0  0
   60.2920   30.5110   49.9540 C   0  0  0  0  0  0  0  0  0  0  0  0
   60.5250   31.2320   51.1390 C   0  0  0  0  0  0  0  0  0  0  0  0
   61.5220   30.8790   52.0630 O   0  0  0  0  0  0  0  0  0  0  0  0
   62.8920   31.2830   52.0330 C   0  0  0  0  0  0  0  0  0  0  0  0
   63.0120   32.8160   52.0060 C   0  0  1  0  0  0  0  0  0  0  0  0
   64.2890   33.3390   52.5920 C   0  0  0  0  0  0  0  0  0  0  0  0
   64.5200   33.8270   51.1980 C   0  0  0  0  0  0  0  0  0  0  0  0
   63.2490   33.3240   50.6380 N   0  0  0  0  0  0  0  0  0  0  0  0
   62.5520   33.3640   49.3890 C   0  0  0  0  0  0  0  0  0  0  0  0
   61.4230   34.1800   49.2450 C   0  0  0  0  0  0  0  0  0  0  0  0
   60.7310   34.2230   48.0340 C   0  0  0  0  0  0  0  0  0  0  0  0
   61.1810   33.4690   46.9320 C   0  0  0  0  0  0  0  0  0  0  0  0
   60.5370   33.4890   45.6840 O   0  0  0  0  0  0  0  0  0  0  0  0
   59.4460   34.3380   45.3320 C   0  0  0  0  0  0  0  0  0  0  0  0
   58.1650   33.5090   45.2010 C   0  0  0  0  0  0  0  0  0  0  0  0
   57.2570   33.4470   46.4210 C   0  0  0  0  0  0  0  0  0  0  0  0
   56.8830   34.3240   45.2380 C   0  0  0  0  0  0  0  0  0  0  0  0
   62.3250   32.6750   47.0730 C   0  0  0  0  0  0  0  0  0  0  0  0
   63.0050   32.6120   48.2940 C   0  0  0  0  0  0  0  0  0  0  0  0
   64.0970   31.8150   48.4030 F   0  0  0  0  0  0  0  0  0  0  0  0
   59.7430   32.3650   51.4060 C   0  0  0  0  0  0  0  0  0  0  0  0
   60.0090   33.3170   52.8570 Cl  0  0  0  0  0  0  0  0  0  0  0  0
   58.7300   32.7320   50.5160 C   0  0  0  0  0  0  0  0  0  0  0  0
   58.5160   32.0040   49.3910 N   0  0  0  0  0  0  0  0  0  0  0  0
   59.4230   31.8180   46.5140 H   0  0  0  0  0  0  0  0  0  0  0  0
   59.4174   30.6789   44.4734 H   0  0  0  0  0  0  0  0  0  0  0  0
   59.4937   29.1106   45.3571 H   0  0  0  0  0  0  0  0  0  0  0  0
   56.8980   31.7442   44.0672 H   0  0  0  0  0  0  0  0  0  0  0  0
   57.1709   27.8180   45.7781 H   0  0  0  0  0  0  0  0  0  0  0  0
   60.9119   29.6354   49.7110 H   0  0  0  0  0  0  0  0  0  0  0  0
   63.4007   30.8977   52.9290 H   0  0  0  0  0  0  0  0  0  0  0  0
   63.3578   30.8781   51.1225 H   0  0  0  0  0  0  0  0  0  0  0  0
   62.0864   33.1176   52.5182 H   0  0  0  0  0  0  0  0  0  0  0  0
   64.1753   34.1216   53.3566 H   0  0  0  0  0  0  0  0  0  0  0  0
   65.0055   32.7223   53.1543 H   0  0  0  0  0  0  0  0  0  0  0  0
   64.6042   34.9223   51.1409 H   0  0  0  0  0  0  0  0  0  0  0  0
   65.4469   33.5023   50.7026 H   0  0  0  0  0  0  0  0  0  0  0  0
   61.0793   34.7913   50.0924 H   0  0  0  0  0  0  0  0  0  0  0  0
   59.8307   34.8479   47.9393 H   0  0  0  0  0  0  0  0  0  0  0  0
   59.3095   35.1001   46.1133 H   0  0  0  0  0  0  0  0  0  0  0  0
   59.6619   34.8273   44.3708 H   0  0  0  0  0  0  0  0  0  0  0  0
   58.6058   32.7520   44.5356 H   0  0  0  0  0  0  0  0  0  0  0  0
   56.6814   32.5338   46.6326 H   0  0  0  0  0  0  0  0  0  0  0  0
   57.3914   33.6120   47.5002 H   0  0  0  0  0  0  0  0  0  0  0  0
   56.0360   34.0459   44.5936 H   0  0  0  0  0  0  0  0  0  0  0  0
   56.6341   35.3874   45.1069 H   0  0  0  0  0  0  0  0  0  0  0  0
   62.6934   32.0943   46.2145 H   0  0  0  0  0  0  0  0  0  0  0  0
   58.1052   33.6122   50.7277 H   0  0  0  0  0  0  0  0  0  0  0  0
  1  2  2  0
  2  3  1  0
  3  4  1  0
  4  5  1  0
  5  6  1  0
  6  7  2  0
  7  8  1  0
  8  9  1  0
  2 10  1  0
 10 11  2  0
 11 12  1  0
 12 13  1  0
 13 14  1  0
 14 15  1  0
 15 16  1  0
 16 17  1  0
 17 18  1  0
 18 19  1  0
 19 20  2  0
 20 21  1  0
 21 22  2  0
 22 23  1  0
 23 24  1  0
 24 25  1  0
 25 26  1  0
 26 27  1  0
 22 28  1  0
 28 29  2  0
 29 30  1  0
 12 31  2  0
 31 32  1  0
 31 33  1  0
 33 34  2  0
  9  5  2  0
 34 10  1  0
 18 15  1  0
 29 19  1  0
 27 25  1  0
  3 35  1  0
  4 36  1  0
  4 37  1  0
  6 38  1  0
  9 39  1  0
 11 40  1  0
 14 41  1  0
 14 42  1  0
 15 43  1  1
 16 44  1  0
 16 45  1  0
 17 46  1  0
 17 47  1  0
 20 48  1  0
 21 49  1  0
 24 50  1  0
 24 51  1  0
 25 52  1  0
 26 53  1  0
 26 54  1  0
 27 55  1  0
 27 56  1  0
 28 57  1  0
 33 58  1  0
M  CHG  1   8  -1
M  END
>  <UniqueID>  (34) 
32

>  <SMILES>  (34) 
O=C(NCc1cn[n-]c1)c1cc(OC[C@H]2CCN2c2ccc(OCC3CC3)cc2F)c(Cl)cn1

>  <Energy>  (34) 
400.3507974688956

>  <Genealogy>  (34) 
O=C(NCc1cn[n-]c1)c1cc(OCC2CCN2c2ccc(OCC3CC3)cc2F)c(Cl)cn1 (protonated)
O=C(NCc1cn[n-]c1)c1cc(OC[C@H]2CCN2c2ccc(OCC3CC3)cc2F)c(Cl)cn1 (chirality)
O=C(NCc1cn[n-]c1)c1cc(OC[C@H]2CCN2c2ccc(OCC3CC3)cc2F)c(Cl)cn1 (3D coordinates assigned)
O=C(NCc1cn[n-]c1)c1cc(OC[C@H]2CCN2c2ccc(OCC3CC3)cc2F)c(Cl)cn1 (nonaromatic ring conformer: 400.3507974688956 kcal/mol)

>  <smiles>  (34) 
O=C(NCc1cn[nH]c1)c1cc(OCC2CCN2c2ccc(OCC3CC3)cc2F)c(Cl)cn1

>  <score_type>  (34) 
oracle

>  <origin>  (34) 
adg

>  <m_score__min__energy>  (34) 
-12.550000000000001

>  <m_primary>  (34) 
energy

$$$$
34:0
     RDKit          3D

 37 38  0  0  1  0  0  0  0  0999 V2000
   59.6410   33.7050   47.5060 C   0  0  0  0  0  0  0  0  0  0  0  0
   58.5950   32.9910   47.1800 C   0  0  0  0  0  0  0  0  0  0  0  0
   58.1970   32.5360   45.8850 C   0  0  0  0  0  0  0  0  0  0  0  0
   57.9780   31.1630   45.6790 C   0  0  0  0  0  0  0  0  0  0  0  0
   57.6040   30.6700   44.4900 N   0  0  0  0  0  0  0  0  0  0  0  0
   57.3940   29.2430   44.3470 C   0  0  1  0  0  0  0  0  0  0  0  0
   58.7010   28.5010   44.2090 C   0  0  0  0  0  0  0  0  0  0  0  0
   58.3400   27.1700   44.8390 C   0  0  2  0  0  0  0  0  0  0  0  0
   57.6590   26.3680   43.9120 O   0  0  0  0  0  0  0  0  0  0  0  0
   57.3840   27.6470   45.9150 C   0  0  2  0  0  0  0  0  0  0  0  0
   58.2100   28.0900   47.0810 C   0  0  0  0  0  0  0  0  0  0  0  0
   59.3010   27.4520   47.4790 C   0  0  0  0  0  0  0  0  0  0  0  0
   56.5230   26.5090   46.3610 C   0  0  0  0  0  0  0  0  0  0  0  0
   55.3290   26.5610   45.6450 O   0  0  0  0  0  0  0  0  0  0  0  0
   56.6690   28.6960   45.3670 O   0  0  0  0  0  0  0  0  0  0  0  0
   57.9980   33.3240   44.7740 C   0  0  0  0  0  0  0  0  0  0  0  0
   57.0720   31.0730   42.2960 O   0  0  0  0  0  0  0  0  0  0  0  0
   57.6170   32.7990   43.5710 N   0  0  0  0  0  0  0  0  0  0  0  0
   57.4220   31.4800   43.4340 C   0  0  0  0  0  0  0  0  0  0  0  0
   58.1740   34.5890   44.8630 N   0  0  0  0  0  0  0  0  0  0  0  0
   59.8139   33.9791   48.5572 H   0  0  0  0  0  0  0  0  0  0  0  0
   60.3480   34.0314   46.7290 H   0  0  0  0  0  0  0  0  0  0  0  0
   57.9350   32.7029   48.0115 H   0  0  0  0  0  0  0  0  0  0  0  0
   58.1182   30.4699   46.5216 H   0  0  0  0  0  0  0  0  0  0  0  0
   56.8064   29.1299   43.4240 H   0  0  0  0  0  0  0  0  0  0  0  0
   58.9908   28.3843   43.1543 H   0  0  0  0  0  0  0  0  0  0  0  0
   59.5621   29.0053   44.6719 H   0  0  0  0  0  0  0  0  0  0  0  0
   59.1902   26.5692   45.1943 H   0  0  0  0  0  0  0  0  0  0  0  0
   56.6910   26.6440   43.9010 H   0  0  0  0  0  0  0  0  0  0  0  0
   57.8968   28.9878   47.6341 H   0  0  0  0  0  0  0  0  0  0  0  0
   59.8704   27.8230   48.3440 H   0  0  0  0  0  0  0  0  0  0  0  0
   59.6373   26.5514   46.9444 H   0  0  0  0  0  0  0  0  0  0  0  0
   57.0344   25.5553   46.1637 H   0  0  0  0  0  0  0  0  0  0  0  0
   56.3230   26.5836   47.4401 H   0  0  0  0  0  0  0  0  0  0  0  0
   55.1430   27.4860   45.3010 H   0  0  0  0  0  0  0  0  0  0  0  0
   57.4820   33.4380   42.7680 H   0  0  0  0  0  0  0  0  0  0  0  0
   58.2070   35.0350   45.8000 H   0  0  0  0  0  0  0  0  0  0  0  0
  1  2  2  0
  2  3  1  0
  3  4  2  0
  4  5  1  0
  5  6  1  0
  6  7  1  0
  7  8  1  0
  8  9  1  0
  8 10  1  0
 10 11  1  0
 11 12  2  0
 10 13  1  1
 13 14  1  0
 10 15  1  0
  5 16  1  0
 16 17  2  0
 16 18  1  0
 18 19  1  0
 19 20  2  3
 19  3  1  0
 15  6  1  0
  1 21  1  0
  1 22  1  0
  2 23  1  0
  4 24  1  0
  6 25  1  6
  7 26  1  0
  7 27  1  0
  8 28  1  1
  9 29  1  0
 11 30  1  0
 12 31  1  0
 12 32  1  0
 13 33  1  0
 13 34  1  0
 14 35  1  0
 18 36  1  0
 20 37  1  0
M  END
>  <smiles>  (35) 
C=Cc1cn(C2CC(O)C(C=C)(CO)O2)c(=O)[nH]c1=N

>  <score_type>  (35) 
oracle

>  <origin>  (35) 
adg

>  <m_score__min__energy>  (35) 
-7.3899999999999997

>  <m_primary>  (35) 
energy

$$$$
35:0
     RDKit          3D

 51 53  0  0  0  0  0  0  0  0999 V2000
   56.6330   30.5410   43.1310 C   0  0  0  0  0  0  0  0  0  0  0  0
   55.3920   29.7440   43.5190 C   0  0  0  0  0  0  0  0  0  0  0  0
   55.5080   29.2420   44.8510 O   0  0  0  0  0  0  0  0  0  0  0  0
   56.6190   28.5610   45.3750 C   0  0  0  0  0  0  0  0  0  0  0  0
   57.9170   29.1100   45.3770 C   0  0  0  0  0  0  0  0  0  0  0  0
   58.9970   28.3880   45.9100 C   0  0  0  0  0  0  0  0  0  0  0  0
   60.3800   28.9860   45.8960 C   0  0  0  0  0  0  0  0  0  0  0  0
   60.7340   29.4990   47.2350 N   0  0  0  0  0  0  0  0  0  0  0  0
   59.5350   29.8850   48.0260 C   0  0  0  0  0  0  0  0  0  0  0  0
   59.3060   31.4060   48.0490 C   0  0  0  0  0  0  0  0  0  0  0  0
   60.4840   32.1360   48.5740 N   0  0  0  0  0  0  0  0  0  0  0  0
   60.3000   32.7180   49.9230 C   0  0  0  0  0  0  0  0  0  0  0  0
   59.2430   32.0200   50.7570 C   0  0  0  0  0  0  0  0  0  0  0  0
   58.1060   32.7140   51.2020 C   0  0  0  0  0  0  0  0  0  0  0  0
   57.1310   32.0660   51.9650 C   0  0  0  0  0  0  0  0  0  0  0  0
   57.2820   30.7110   52.3140 C   0  0  0  0  0  0  0  0  0  0  0  0
   56.2800   30.0390   53.0980 N   0  0  0  0  0  0  0  0  0  0  0  0
   56.1120   30.3270   54.3020 O   0  0  0  0  0  0  0  0  0  0  0  0
   55.4840   29.0690   52.5330 O   0  0  0  0  0  0  0  0  0  0  0  0
   58.4330   30.0260   51.8930 C   0  0  0  0  0  0  0  0  0  0  0  0
   59.4070   30.6760   51.1290 C   0  0  0  0  0  0  0  0  0  0  0  0
   61.7740   31.4330   48.3980 C   0  0  0  0  0  0  0  0  0  0  0  0
   61.7510   30.5720   47.1330 C   0  0  0  0  0  0  0  0  0  0  0  0
   58.7770   27.1080   46.4410 C   0  0  0  0  0  0  0  0  0  0  0  0
   57.4940   26.5580   46.4380 C   0  0  0  0  0  0  0  0  0  0  0  0
   56.4210   27.2790   45.9070 C   0  0  0  0  0  0  0  0  0  0  0  0
   55.1490   26.7160   45.9110 O   0  0  0  0  0  0  0  0  0  0  0  0
   57.1534   30.8752   44.0407 H   0  0  0  0  0  0  0  0  0  0  0  0
   57.3057   29.9056   42.5362 H   0  0  0  0  0  0  0  0  0  0  0  0
   56.3350   31.4170   42.5362 H   0  0  0  0  0  0  0  0  0  0  0  0
   54.5093   30.3973   43.4553 H   0  0  0  0  0  0  0  0  0  0  0  0
   55.2892   28.8934   42.8292 H   0  0  0  0  0  0  0  0  0  0  0  0
   58.0855   30.1128   44.9574 H   0  0  0  0  0  0  0  0  0  0  0  0
   61.1055   28.2138   45.6005 H   0  0  0  0  0  0  0  0  0  0  0  0
   60.4006   29.8193   45.1783 H   0  0  0  0  0  0  0  0  0  0  0  0
   58.6509   29.4023   47.5840 H   0  0  0  0  0  0  0  0  0  0  0  0
   59.7003   29.5573   49.0629 H   0  0  0  0  0  0  0  0  0  0  0  0
   59.1024   31.7502   47.0243 H   0  0  0  0  0  0  0  0  0  0  0  0
   58.4542   31.6117   48.7139 H   0  0  0  0  0  0  0  0  0  0  0  0
   61.2587   32.6584   50.4591 H   0  0  0  0  0  0  0  0  0  0  0  0
   59.9589   33.7538   49.7789 H   0  0  0  0  0  0  0  0  0  0  0  0
   57.9819   33.7770   50.9477 H   0  0  0  0  0  0  0  0  0  0  0  0
   56.2392   32.6189   52.2952 H   0  0  0  0  0  0  0  0  0  0  0  0
   58.5696   28.9693   52.1665 H   0  0  0  0  0  0  0  0  0  0  0  0
   60.3094   30.1299   50.8167 H   0  0  0  0  0  0  0  0  0  0  0  0
   62.5817   32.1752   48.3153 H   0  0  0  0  0  0  0  0  0  0  0  0
   61.9435   30.7808   49.2674 H   0  0  0  0  0  0  0  0  0  0  0  0
   61.5144   31.2100   46.2687 H   0  0  0  0  0  0  0  0  0  0  0  0
   62.7395   30.1053   47.0107 H   0  0  0  0  0  0  0  0  0  0  0  0
   59.6178   26.5364   46.8608 H   0  0  0  0  0  0  0  0  0  0  0  0
   57.3270   25.5539   46.8549 H   0  0  0  0  0  0  0  0  0  0  0  0
  1  2  1  0
  2  3  1  0
  3  4  1  0
  4  5  2  0
  5  6  1  0
  6  7  1  0
  7  8  1  0
  8  9  1  0
  9 10  1  0
 10 11  1  0
 11 12  1  0
 12 13  1  0
 13 14  2  0
 14 15  1  0
 15 16  2  0
 16 17  1  0
 17 18  2  0
 17 19  1  0
 16 20  1  0
 20 21  2  0
 11 22  1  0
 22 23  1  0
  6 24  2  0
 24 25  1  0
 25 26  2  0
 26 27  1  0
 26  4  1  0
 23  8  1  0
 21 13  1  0
  1 28  1  0
  1 29  1  0
  1 30  1  0
  2 31  1  0
  2 32  1  0
  5 33  1  0
  7 34  1  0
  7 35  1  0
  9 36  1  0
  9 37  1  0
 10 38  1  0
 10 39  1  0
 12 40  1  0
 12 41  1  0
 14 42  1  0
 15 43  1  0
 20 44  1  0
 21 45  1  0
 22 46  1  0
 22 47  1  0
 23 48  1  0
 23 49  1  0
 24 50  1  0
 25 51  1  0
M  CHG  3  17   1  19  -1  27  -1
M  END
>  <UniqueID>  (36) 
33

>  <SMILES>  (36) 
CCOc1cc(CN2CCN(Cc3ccc([N+](=O)[O-])cc3)CC2)ccc1[O-]

>  <Energy>  (36) 
66.58944014875213

>  <Genealogy>  (36) 
CCOc1cc(CN2CCN(Cc3ccc([N+](=O)[O-])cc3)CC2)ccc1[O-] (protonated)
CCOc1cc(CN2CCN(Cc3ccc([N+](=O)[O-])cc3)CC2)ccc1[O-] (3D coordinates assigned)
CCOc1cc(CN2CCN(Cc3ccc([N+](=O)[O-])cc3)CC2)ccc1[O-] (nonaromatic ring conformer: 66.58944014875213 kcal/mol)

>  <smiles>  (36) 
CCOc1cc(CN2CCN(Cc3ccc([N+](=O)[O-])cc3)CC2)ccc1O

>  <score_type>  (36) 
oracle

>  <origin>  (36) 
adg

>  <m_score__min__energy>  (36) 
-11.390000000000001

>  <m_primary>  (36) 
energy

$$$$
36:0
     RDKit          3D

 57 60  0  0  0  0  0  0  0  0999 V2000
   57.0860   25.3580   47.5910 O   0  0  0  0  0  0  0  0  0  0  0  0
   57.2830   25.9900   46.5170 C   0  0  0  0  0  0  0  0  0  0  0  0
   58.0650   27.2670   46.5430 C   0  0  0  0  0  0  0  0  0  0  0  0
   57.3420   28.3480   45.7920 C   0  0  0  0  0  0  0  0  0  0  0  0
   56.1220   28.1820   45.2520 N   0  0  0  0  0  0  0  0  0  0  0  0
   55.8590   29.3820   44.6970 C   0  0  0  0  0  0  0  0  0  0  0  0
   54.7890   29.6260   44.0830 O   0  0  0  0  0  0  0  0  0  0  0  0
   56.8330   30.3020   44.8550 N   0  0  0  0  0  0  0  0  0  0  0  0
   57.7730   29.6430   45.5550 C   0  0  0  0  0  0  0  0  0  0  0  0
   59.0750   30.2640   45.9660 C   0  0  0  0  0  0  0  0  0  0  0  0
   58.8700   31.2380   47.4960 S   0  0  0  0  0  0  0  0  0  0  0  0
   59.0420   32.8290   46.6840 C   0  0  0  0  0  0  0  0  0  0  0  0
   58.3210   33.1020   45.5140 C   0  0  0  0  0  0  0  0  0  0  0  0
   58.4400   34.3490   44.8930 C   0  0  0  0  0  0  0  0  0  0  0  0
   59.2860   35.3230   45.4340 C   0  0  0  0  0  0  0  0  0  0  0  0
   60.0150   35.0490   46.5970 C   0  0  0  0  0  0  0  0  0  0  0  0
   59.8960   33.8030   47.2190 C   0  0  0  0  0  0  0  0  0  0  0  0
   56.7370   25.5060   45.2810 N   0  0  0  0  0  0  0  0  0  0  0  0
   56.4460   24.1210   45.0350 C   0  0  0  0  0  0  0  0  0  0  0  0
   57.3130   23.3640   44.2350 C   0  0  0  0  0  0  0  0  0  0  0  0
   57.0520   22.0120   43.9960 C   0  0  0  0  0  0  0  0  0  0  0  0
   55.9330   21.4020   44.5670 C   0  0  0  0  0  0  0  0  0  0  0  0
   55.0770   22.1380   45.3950 C   0  0  0  0  0  0  0  0  0  0  0  0
   53.6660   21.3690   46.1220 S   0  0  0  0  0  0  0  0  0  0  0  0
   53.7560   21.4660   47.6210 O   0  0  0  0  0  0  0  0  0  0  0  0
   53.6510   19.9160   45.7380 O   0  0  0  0  0  0  0  0  0  0  0  0
   52.2060   22.1410   45.5520 N   0  0  0  0  0  0  0  0  0  0  0  0
   52.5460   23.3770   44.8130 C   0  0  0  0  0  0  0  0  0  0  0  0
   51.3220   24.2950   44.5960 C   0  0  0  0  0  0  0  0  0  0  0  0
   50.0080   23.5370   44.7920 C   0  0  0  0  0  0  0  0  0  0  0  0
   49.9410   22.9040   46.1920 C   0  0  0  0  0  0  0  0  0  0  0  0
   51.3210   22.4330   46.6910 C   0  0  0  0  0  0  0  0  0  0  0  0
   55.3370   23.4950   45.6310 C   0  0  0  0  0  0  0  0  0  0  0  0
   58.2042   27.5839   47.5871 H   0  0  0  0  0  0  0  0  0  0  0  0
   59.0397   27.0945   46.0632 H   0  0  0  0  0  0  0  0  0  0  0  0
   59.8152   29.4692   46.1403 H   0  0  0  0  0  0  0  0  0  0  0  0
   59.4166   30.9339   45.1632 H   0  0  0  0  0  0  0  0  0  0  0  0
   57.6608   32.3346   45.0837 H   0  0  0  0  0  0  0  0  0  0  0  0
   57.8680   34.5644   43.9784 H   0  0  0  0  0  0  0  0  0  0  0  0
   59.3783   36.3042   44.9454 H   0  0  0  0  0  0  0  0  0  0  0  0
   60.6815   35.8142   47.0215 H   0  0  0  0  0  0  0  0  0  0  0  0
   60.4735   33.5865   48.1298 H   0  0  0  0  0  0  0  0  0  0  0  0
   56.5360   26.1980   44.5250 H   0  0  0  0  0  0  0  0  0  0  0  0
   58.2029   23.8362   43.7933 H   0  0  0  0  0  0  0  0  0  0  0  0
   57.7295   21.4270   43.3567 H   0  0  0  0  0  0  0  0  0  0  0  0
   55.7237   20.3410   44.3658 H   0  0  0  0  0  0  0  0  0  0  0  0
   53.3054   23.9313   45.3840 H   0  0  0  0  0  0  0  0  0  0  0  0
   52.9201   23.0805   43.8220 H   0  0  0  0  0  0  0  0  0  0  0  0
   51.3662   25.1251   45.3164 H   0  0  0  0  0  0  0  0  0  0  0  0
   51.3521   24.6700   43.5623 H   0  0  0  0  0  0  0  0  0  0  0  0
   49.1677   24.2368   44.6730 H   0  0  0  0  0  0  0  0  0  0  0  0
   49.9505   22.7349   44.0414 H   0  0  0  0  0  0  0  0  0  0  0  0
   49.5456   23.6492   46.8980 H   0  0  0  0  0  0  0  0  0  0  0  0
   49.2878   22.0211   46.1297 H   0  0  0  0  0  0  0  0  0  0  0  0
   51.7728   23.2240   47.3076 H   0  0  0  0  0  0  0  0  0  0  0  0
   51.1917   21.5172   47.2864 H   0  0  0  0  0  0  0  0  0  0  0  0
   54.6694   24.0736   46.2864 H   0  0  0  0  0  0  0  0  0  0  0  0
  1  2  2  0
  2  3  1  0
  3  4  1  0
  4  5  1  0
  5  6  1  0
  6  7  2  0
  6  8  1  0
  8  9  1  0
  9 10  1  0
 10 11  1  0
 11 12  1  0
 12 13  2  0
 13 14  1  0
 14 15  2  0
 15 16  1  0
 16 17  2  0
  2 18  1  0
 18 19  1  0
 19 20  2  0
 20 21  1  0
 21 22  2  0
 22 23  1  0
 23 24  1  0
 24 25  2  0
 24 26  2  0
 24 27  1  0
 27 28  1  0
 28 29  1  0
 29 30  1  0
 30 31  1  0
 31 32  1  0
 23 33  2  0
  9  4  2  0
 17 12  1  0
 33 19  1  0
 32 27  1  0
  3 34  1  0
  3 35  1  0
 10 36  1  0
 10 37  1  0
 13 38  1  0
 14 39  1  0
 15 40  1  0
 16 41  1  0
 17 42  1  0
 18 43  1  0
 20 44  1  0
 21 45  1  0
 22 46  1  0
 28 47  1  0
 28 48  1  0
 29 49  1  0
 29 50  1  0
 30 51  1  0
 30 52  1  0
 31 53  1  0
 31 54  1  0
 32 55  1  0
 32 56  1  0
 33 57  1  0
M  CHG  2   5  -1   8  -1
M  END
>  <UniqueID>  (37) 
34

>  <SMILES>  (37) 
O=C(Cc1[n-]c(=O)[n-]c1CSc1ccccc1)Nc1cccc(S(=O)(=O)N2CCCCC2)c1

>  <Energy>  (37) 
84.30312921066029

>  <Genealogy>  (37) 
O=C(Cc1[n-]c(=O)[n-]c1CSc1ccccc1)Nc1cccc(S(=O)(=O)N2CCCCC2)c1 (protonated)
O=C(Cc1[n-]c(=O)[n-]c1CSc1ccccc1)Nc1cccc(S(=O)(=O)N2CCCCC2)c1 (3D coordinates assigned)
O=C(Cc1[n-]c(=O)[n-]c1CSc1ccccc1)Nc1cccc(S(=O)(=O)N2CCCCC2)c1 (nonaromatic ring conformer: 84.30312921066029 kcal/mol)

>  <smiles>  (37) 
O=C(Cc1[nH]c(=O)[nH]c1CSc1ccccc1)Nc1cccc(S(=O)(=O)N2CCCCC2)c1

>  <score_type>  (37) 
oracle

>  <origin>  (37) 
adg

>  <m_score__min__energy>  (37) 
-13.75

>  <m_primary>  (37) 
energy

$$$$
37:0
     RDKit          3D

 32 33  0  0  0  0  0  0  0  0999 V2000
   59.6560   35.3910   47.0990 O   0  0  0  0  0  0  0  0  0  0  0  0
   59.1030   34.2790   47.3040 C   0  0  0  0  0  0  0  0  0  0  0  0
   59.1260   33.7280   48.5800 O   0  0  0  0  0  0  0  0  0  0  0  0
   58.4410   33.5710   46.2040 C   0  0  0  0  0  0  0  0  0  0  0  0
   58.2810   32.2010   46.1190 C   0  0  0  0  0  0  0  0  0  0  0  0
   57.6170   31.9860   44.9350 C   0  0  0  0  0  0  0  0  0  0  0  0
   57.1650   30.4290   44.2610 S   0  0  0  0  0  0  0  0  0  0  0  0
   55.8500   29.9910   44.8420 O   0  0  0  0  0  0  0  0  0  0  0  0
   57.0100   30.5680   42.7720 O   0  0  0  0  0  0  0  0  0  0  0  0
   58.3840   29.2400   44.6040 N   0  0  0  0  0  0  0  0  0  0  0  0
   57.8490   27.8970   44.3640 C   0  0  0  0  0  0  0  0  0  0  0  0
   57.6120   27.1700   45.6910 C   0  0  0  0  0  0  0  0  0  0  0  0
   56.9700   25.8210   45.4750 C   0  0  0  0  0  0  0  0  0  0  0  0
   57.7580   24.7300   45.0670 C   0  0  0  0  0  0  0  0  0  0  0  0
   57.1710   23.4830   44.8320 C   0  0  0  0  0  0  0  0  0  0  0  0
   55.7930   23.3160   44.9940 C   0  0  0  0  0  0  0  0  0  0  0  0
   54.9990   24.3960   45.3880 C   0  0  0  0  0  0  0  0  0  0  0  0
   55.5790   25.6480   45.6250 C   0  0  0  0  0  0  0  0  0  0  0  0
   54.7690   26.7120   46.0050 O   0  0  0  0  0  0  0  0  0  0  0  0
   57.4070   33.2160   44.3520 C   0  0  0  0  0  0  0  0  0  0  0  0
   57.9110   34.1950   45.1300 N   0  0  0  0  0  0  0  0  0  0  0  0
   58.6140   31.4440   46.8443 H   0  0  0  0  0  0  0  0  0  0  0  0
   58.6100   29.3240   45.6220 H   0  0  0  0  0  0  0  0  0  0  0  0
   56.8961   27.9785   43.8205 H   0  0  0  0  0  0  0  0  0  0  0  0
   58.5764   27.3249   43.7694 H   0  0  0  0  0  0  0  0  0  0  0  0
   58.5775   27.0293   46.1990 H   0  0  0  0  0  0  0  0  0  0  0  0
   56.9331   27.7815   46.3035 H   0  0  0  0  0  0  0  0  0  0  0  0
   58.8421   24.8584   44.9320 H   0  0  0  0  0  0  0  0  0  0  0  0
   57.7945   22.6324   44.5193 H   0  0  0  0  0  0  0  0  0  0  0  0
   55.3332   22.3336   44.8112 H   0  0  0  0  0  0  0  0  0  0  0  0
   53.9143   24.2621   45.5124 H   0  0  0  0  0  0  0  0  0  0  0  0
   56.9003   33.3767   43.3890 H   0  0  0  0  0  0  0  0  0  0  0  0
  1  2  2  0
  2  3  1  0
  2  4  1  0
  4  5  2  0
  5  6  1  0
  6  7  1  0
  7  8  2  0
  7  9  2  0
  7 10  1  0
 10 11  1  0
 11 12  1  0
 12 13  1  0
 13 14  2  0
 14 15  1  0
 15 16  2  0
 16 17  1  0
 17 18  2  0
 18 19  1  0
  6 20  2  0
 20 21  1  0
 21  4  1  0
 18 13  1  0
  5 22  1  0
 10 23  1  0
 11 24  1  0
 11 25  1  0
 12 26  1  0
 12 27  1  0
 14 28  1  0
 15 29  1  0
 16 30  1  0
 17 31  1  0
 20 32  1  0
M  CHG  3   3  -1  19  -1  21  -1
M  END
>  <UniqueID>  (38) 
35

>  <SMILES>  (38) 
O=C([O-])c1cc(S(=O)(=O)NCCc2ccccc2[O-])c[n-]1

>  <Energy>  (38) 
51.63219773178346

>  <Genealogy>  (38) 
O=C([O-])c1cc(S(=O)(=O)NCCc2ccccc2[O-])c[n-]1 (protonated)
O=C([O-])c1cc(S(=O)(=O)NCCc2ccccc2[O-])c[n-]1 (3D coordinates assigned)
O=C([O-])c1cc(S(=O)(=O)NCCc2ccccc2[O-])c[n-]1 (optimized conformer: 51.63219773178346 kcal/mol)

>  <smiles>  (38) 
O=C(O)c1cc(S(=O)(=O)NCCc2ccccc2O)c[nH]1

>  <score_type>  (38) 
oracle

>  <origin>  (38) 
adg

>  <m_score__min__energy>  (38) 
-13.93

>  <m_primary>  (38) 
energy

$$$$
38:0
     RDKit          3D

 48 50  0  0  0  0  0  0  0  0999 V2000
   60.3950   28.6750   47.1360 C   0  0  0  0  0  0  0  0  0  0  0  0
   59.3270   29.0400   46.1480 C   0  0  0  0  0  0  0  0  0  0  0  0
   58.9190   28.1220   45.1720 C   0  0  0  0  0  0  0  0  0  0  0  0
   57.9560   28.4810   44.2260 C   0  0  0  0  0  0  0  0  0  0  0  0
   57.3910   29.7660   44.2390 C   0  0  0  0  0  0  0  0  0  0  0  0
   56.3300   30.1270   43.2360 C   0  0  0  0  0  0  0  0  0  0  0  0
   57.7820   30.6900   45.2300 C   0  0  0  0  0  0  0  0  0  0  0  0
   57.1720   31.9870   45.2640 N   0  0  0  0  0  0  0  0  0  0  0  0
   58.0040   33.4780   44.9430 S   0  0  0  0  0  0  0  0  0  0  0  0
   56.9850   34.5820   44.8920 O   0  0  0  0  0  0  0  0  0  0  0  0
   58.7120   33.4260   43.6180 O   0  0  0  0  0  0  0  0  0  0  0  0
   59.1560   33.7950   46.2400 C   0  0  0  0  0  0  0  0  0  0  0  0
   58.7150   34.1440   47.5230 C   0  0  0  0  0  0  0  0  0  0  0  0
   59.6410   34.3570   48.5480 C   0  0  0  0  0  0  0  0  0  0  0  0
   61.0090   34.2030   48.3030 C   0  0  0  0  0  0  0  0  0  0  0  0
   61.4660   33.8370   47.0260 C   0  0  0  0  0  0  0  0  0  0  0  0
   62.9200   33.6420   46.7820 C   0  0  0  0  0  0  0  0  0  0  0  0
   63.4980   34.3780   45.9330 O   0  0  0  0  0  0  0  0  0  0  0  0
   63.6770   32.6190   47.4810 N   0  0  0  0  0  0  0  0  0  0  0  0
   62.8880   31.3650   47.6260 C   0  0  0  0  0  0  0  0  0  0  0  0
   62.2790   31.2300   49.0340 C   0  0  0  0  0  0  0  0  0  0  0  0
   63.2480   31.2340   50.0760 O   0  0  0  0  0  0  0  0  0  0  0  0
   64.4090   31.9990   49.7750 C   0  0  0  0  0  0  0  0  0  0  0  0
   64.1520   33.1450   48.7830 C   0  0  0  0  0  0  0  0  0  0  0  0
   60.5280   33.6660   45.9940 C   0  0  0  0  0  0  0  0  0  0  0  0
   58.7700   30.3270   46.1600 C   0  0  0  0  0  0  0  0  0  0  0  0
   60.0097   28.8067   48.1579 H   0  0  0  0  0  0  0  0  0  0  0  0
   60.6888   27.6254   46.9873 H   0  0  0  0  0  0  0  0  0  0  0  0
   61.2697   29.3252   46.9873 H   0  0  0  0  0  0  0  0  0  0  0  0
   59.3588   27.1140   45.1504 H   0  0  0  0  0  0  0  0  0  0  0  0
   57.6383   27.7521   43.4659 H   0  0  0  0  0  0  0  0  0  0  0  0
   55.4166   30.4378   43.7643 H   0  0  0  0  0  0  0  0  0  0  0  0
   56.6880   30.9539   42.6051 H   0  0  0  0  0  0  0  0  0  0  0  0
   56.1094   29.2533   42.6051 H   0  0  0  0  0  0  0  0  0  0  0  0
   57.6388   34.2505   47.7240 H   0  0  0  0  0  0  0  0  0  0  0  0
   59.2926   34.6466   49.5504 H   0  0  0  0  0  0  0  0  0  0  0  0
   61.7319   34.3695   49.1153 H   0  0  0  0  0  0  0  0  0  0  0  0
   64.5160   32.3670   46.9070 H   0  0  0  0  0  0  0  0  0  0  0  0
   62.0746   31.3688   46.8855 H   0  0  0  0  0  0  0  0  0  0  0  0
   63.5666   30.5144   47.4648 H   0  0  0  0  0  0  0  0  0  0  0  0
   61.5895   32.0715   49.1969 H   0  0  0  0  0  0  0  0  0  0  0  0
   61.7675   30.2569   49.0725 H   0  0  0  0  0  0  0  0  0  0  0  0
   64.7940   32.4295   50.7112 H   0  0  0  0  0  0  0  0  0  0  0  0
   65.1298   31.3173   49.2999 H   0  0  0  0  0  0  0  0  0  0  0  0
   63.3885   33.8182   49.1999 H   0  0  0  0  0  0  0  0  0  0  0  0
   65.0946   33.6882   48.6206 H   0  0  0  0  0  0  0  0  0  0  0  0
   60.8767   33.4274   44.9784 H   0  0  0  0  0  0  0  0  0  0  0  0
   59.1106   31.0602   46.9059 H   0  0  0  0  0  0  0  0  0  0  0  0
  1  2  1  0
  2  3  2  0
  3  4  1  0
  4  5  2  0
  5  6  1  0
  5  7  1  0
  7  8  1  0
  8  9  1  0
  9 10  2  0
  9 11  2  0
  9 12  1  0
 12 13  2  0
 13 14  1  0
 14 15  2  0
 15 16  1  0
 16 17  1  0
 17 18  2  0
 17 19  1  0
 19 20  1  0
 20 21  1  0
 21 22  1  0
 22 23  1  0
 23 24  1  0
 16 25  2  0
  7 26  2  0
 26  2  1  0
 25 12  1  0
 24 19  1  0
  1 27  1  0
  1 28  1  0
  1 29  1  0
  3 30  1  0
  4 31  1  0
  6 32  1  0
  6 33  1  0
  6 34  1  0
 13 35  1  0
 14 36  1  0
 15 37  1  0
 19 38  1  0
 20 39  1  0
 20 40  1  0
 21 41  1  0
 21 42  1  0
 23 43  1  0
 23 44  1  0
 24 45  1  0
 24 46  1  0
 25 47  1  0
 26 48  1  0
M  CHG  2   8  -1  19   1
M  END
>  <UniqueID>  (39) 
36

>  <SMILES>  (39) 
Cc1ccc(C)c([N-]S(=O)(=O)c2cccc(C(=O)[NH+]3CCOCC3)c2)c1

>  <Energy>  (39) 
70.10560208463907

>  <Genealogy>  (39) 
Cc1ccc(C)c([N-]S(=O)(=O)c2cccc(C(=O)[NH+]3CCOCC3)c2)c1 (protonated)
Cc1ccc(C)c([N-]S(=O)(=O)c2cccc(C(=O)[NH+]3CCOCC3)c2)c1 (3D coordinates assigned)
Cc1ccc(C)c([N-]S(=O)(=O)c2cccc(C(=O)[NH+]3CCOCC3)c2)c1 (nonaromatic ring conformer: 70.10560208463907 kcal/mol)

>  <smiles>  (39) 
Cc1ccc(C)c(NS(=O)(=O)c2cccc(C(=O)N3CCOCC3)c2)c1

>  <score_type>  (39) 
oracle

>  <origin>  (39) 
adg

>  <m_score__min__energy>  (39) 
-9.0700000000000003

>  <m_primary>  (39) 
energy

$$$$
39:0
     RDKit          3D

 46 48  0  0  1  0  0  0  0  0999 V2000
   63.3170   34.1330   46.0450 O   0  0  0  0  0  0  0  0  0  0  0  0
   63.2740   33.4700   47.1200 C   0  0  0  0  0  0  0  0  0  0  0  0
   63.6930   32.1460   47.1340 O   0  0  0  0  0  0  0  0  0  0  0  0
   62.7730   34.0840   48.4010 C   0  0  0  0  0  0  0  0  0  0  0  0
   61.3360   33.7260   48.6170 C   0  0  0  0  0  0  0  0  0  0  0  0
   60.3940   34.6830   47.9050 C   0  0  0  0  0  0  0  0  0  0  0  0
   59.5480   33.8900   46.9600 C   0  0  0  0  0  0  0  0  0  0  0  0
   59.1520   32.6370   47.4180 C   0  0  0  0  0  0  0  0  0  0  0  0
   58.3670   31.8210   46.6230 C   0  0  0  0  0  0  0  0  0  0  0  0
   57.9950   32.2930   45.3720 C   0  0  0  0  0  0  0  0  0  0  0  0
   57.1870   31.4200   44.5870 N   0  0  0  0  0  0  0  0  0  0  0  0
   56.9770   30.1870   44.9080 C   0  0  0  0  0  0  0  0  0  0  0  0
   57.8480   29.2650   45.3580 N   0  0  0  0  0  0  0  0  0  0  0  0
   57.2000   28.1180   45.5640 C   0  0  0  0  0  0  0  0  0  0  0  0
   57.7310   26.8400   46.0490 C   0  0  0  0  0  0  0  0  0  0  0  0
   57.1280   25.6670   45.3680 C   0  0  0  0  0  0  0  0  0  0  0  0
   57.8320   24.7910   44.5830 C   0  0  0  0  0  0  0  0  0  0  0  0
   57.1690   23.7150   43.9850 C   0  0  0  0  0  0  0  0  0  0  0  0
   55.8040   23.5210   44.1760 C   0  0  0  0  0  0  0  0  0  0  0  0
   55.0960   24.4190   44.9790 C   0  0  0  0  0  0  0  0  0  0  0  0
   55.7630   25.4770   45.5640 C   0  0  0  0  0  0  0  0  0  0  0  0
   55.0050   26.3410   46.3540 O   0  0  0  0  0  0  0  0  0  0  0  0
   55.9010   28.3360   45.2350 N   0  0  0  0  0  0  0  0  0  0  0  0
   55.7610   29.6040   44.8330 N   0  0  0  0  0  0  0  0  0  0  0  0
   58.3900   33.5390   44.9230 C   0  0  0  0  0  0  0  0  0  0  0  0
   59.1810   34.3650   45.7200 C   0  0  0  0  0  0  0  0  0  0  0  0
   64.6590   31.8890   47.3850 H   0  0  0  0  0  0  0  0  0  0  0  0
   63.3720   33.7075   49.2433 H   0  0  0  0  0  0  0  0  0  0  0  0
   62.8648   35.1782   48.3351 H   0  0  0  0  0  0  0  0  0  0  0  0
   61.1629   32.7089   48.2356 H   0  0  0  0  0  0  0  0  0  0  0  0
   61.1302   33.7888   49.6958 H   0  0  0  0  0  0  0  0  0  0  0  0
   59.7537   35.1915   48.6408 H   0  0  0  0  0  0  0  0  0  0  0  0
   60.9687   35.4424   47.3545 H   0  0  0  0  0  0  0  0  0  0  0  0
   59.4642   32.2942   48.4155 H   0  0  0  0  0  0  0  0  0  0  0  0
   58.0473   30.8280   46.9719 H   0  0  0  0  0  0  0  0  0  0  0  0
   58.8176   26.8243   45.8785 H   0  0  0  0  0  0  0  0  0  0  0  0
   57.4826   26.7642   47.1179 H   0  0  0  0  0  0  0  0  0  0  0  0
   58.9112   24.9336   44.4246 H   0  0  0  0  0  0  0  0  0  0  0  0
   57.7339   23.0122   43.3550 H   0  0  0  0  0  0  0  0  0  0  0  0
   55.2897   22.6724   43.7013 H   0  0  0  0  0  0  0  0  0  0  0  0
   54.0168   24.2842   45.1436 H   0  0  0  0  0  0  0  0  0  0  0  0
   55.2170   26.3750   47.3370 H   0  0  0  0  0  0  0  0  0  0  0  0
   55.1360   27.6010   45.2950 H   0  0  0  0  0  0  0  0  0  0  0  0
   54.8770   30.0620   44.5170 H   0  0  0  0  0  0  0  0  0  0  0  0
   58.0768   33.8826   43.9261 H   0  0  0  0  0  0  0  0  0  0  0  0
   59.5001   35.3585   45.3720 H   0  0  0  0  0  0  0  0  0  0  0  0
  1  2  2  0
  2  3  1  0
  2  4  1  0
  4  5  1  0
  5  6  1  0
  6  7  1  0
  7  8  2  0
  8  9  1  0
  9 10  2  0
 10 11  1  0
 11 12  2  0
 12 13  1  0
 13 14  2  0
 14 15  1  0
 15 16  1  0
 16 17  2  0
 17 18  1  0
 18 19  2  0
 19 20  1  0
 20 21  2  0
 21 22  1  0
 14 23  1  0
 23 24  1  0
 10 25  1  0
 25 26  2  0
 26  7  1  0
 24 12  1  0
 21 16  1  0
  3 27  1  0
  4 28  1  0
  4 29  1  0
  5 30  1  0
  5 31  1  0
  6 32  1  0
  6 33  1  0
  8 34  1  0
  9 35  1  0
 15 36  1  0
 15 37  1  0
 17 38  1  0
 18 39  1  0
 19 40  1  0
 20 41  1  0
 22 42  1  0
 23 43  1  0
 24 44  1  0
 25 45  1  0
 26 46  1  0
M  END
>  <smiles>  (40) 
O=C(O)CCCc1ccc(N=c2nc(Cc3ccccc3O)[nH][nH]2)cc1

>  <score_type>  (40) 
oracle

>  <origin>  (40) 
adg

>  <m_score__min__energy>  (40) 
-10.119999999999999

>  <m_primary>  (40) 
energy

$$$$
40:0
     RDKit          3D

 45 47  0  0  0  0  0  0  0  0999 V2000
   59.6888   30.2418   50.0703 H   0  0  0  0  0  0  0  0  0  0  0  0
   59.5410   29.8860   49.0400 C   0  0  0  0  0  0  0  0  0  0  0  0
   59.2830   30.8000   48.0180 C   0  0  0  0  0  0  0  0  0  0  0  0
   59.2275   31.8750   48.2443 H   0  0  0  0  0  0  0  0  0  0  0  0
   59.0950   30.3530   46.7080 C   0  0  0  0  0  0  0  0  0  0  0  0
   58.8925   31.0772   45.9052 H   0  0  0  0  0  0  0  0  0  0  0  0
   59.1640   28.9770   46.4120 C   0  0  0  0  0  0  0  0  0  0  0  0
   58.9790   28.4800   45.1120 O   0  0  0  0  0  0  0  0  0  0  0  0
   57.9890   27.5310   44.7160 C   0  0  0  0  0  0  0  0  0  0  0  0
   57.9435   27.4963   43.6175 H   0  0  0  0  0  0  0  0  0  0  0  0
   58.2655   26.5470   45.1225 H   0  0  0  0  0  0  0  0  0  0  0  0
   56.6330   27.9070   45.2530 C   0  0  0  0  0  0  0  0  0  0  0  0
   56.0430   27.0910   46.0110 O   0  0  0  0  0  0  0  0  0  0  0  0
   55.9670   29.1410   44.9320 N   0  0  0  0  0  0  0  0  0  0  0  0
   56.4880   30.2420   44.4730 C   0  0  0  0  0  0  0  0  0  0  0  0
   56.7210   31.3530   45.1970 N   0  0  0  0  0  0  0  0  0  0  0  0
   57.2660   32.2460   44.3860 N   0  0  0  0  0  0  0  0  0  0  0  0
   57.6800   33.5420   44.8440 C   0  0  0  0  0  0  0  0  0  0  0  0
   56.8520   34.4930   44.8090 O   0  0  0  0  0  0  0  0  0  0  0  0
   59.0760   33.7870   45.3740 C   0  0  0  0  0  0  0  0  0  0  0  0
   59.6099   32.9953   44.8278 H   0  0  0  0  0  0  0  0  0  0  0  0
   59.5190   35.2490   45.2810 C   0  0  0  0  0  0  0  0  0  0  0  0
   60.4771   35.3948   44.7606 H   0  0  0  0  0  0  0  0  0  0  0  0
   58.9084   35.9797   44.7303 H   0  0  0  0  0  0  0  0  0  0  0  0
   59.6200   35.3210   46.7980 C   0  0  0  0  0  0  0  0  0  0  0  0
   60.6388   35.5012   47.1716 H   0  0  0  0  0  0  0  0  0  0  0  0
   59.0894   36.1086   47.3531 H   0  0  0  0  0  0  0  0  0  0  0  0
   59.1690   33.8720   46.9010 C   0  0  0  0  0  0  0  0  0  0  0  0
   59.9190   33.1993   47.3426 H   0  0  0  0  0  0  0  0  0  0  0  0
   58.3044   33.6029   47.5255 H   0  0  0  0  0  0  0  0  0  0  0  0
   57.3960   31.7060   43.1490 C   0  0  0  0  0  0  0  0  0  0  0  0
   58.0660   32.3460   41.9730 C   0  0  0  0  0  0  0  0  0  0  0  0
   58.8192   33.0654   42.3268 H   0  0  0  0  0  0  0  0  0  0  0  0
   58.5559   31.5719   41.3641 H   0  0  0  0  0  0  0  0  0  0  0  0
   57.3152   32.8709   41.3641 H   0  0  0  0  0  0  0  0  0  0  0  0
   56.8900   30.4210   43.1660 C   0  0  0  0  0  0  0  0  0  0  0  0
   56.8232   29.7071   42.3318 H   0  0  0  0  0  0  0  0  0  0  0  0
   59.4220   28.0570   47.4400 C   0  0  0  0  0  0  0  0  0  0  0  0
   59.4740   26.6920   47.1130 O   0  0  0  0  0  0  0  0  0  0  0  0
   60.5270   26.0770   46.3780 C   0  0  0  0  0  0  0  0  0  0  0  0
   61.2605   25.6486   47.0769 H   0  0  0  0  0  0  0  0  0  0  0  0
   60.1141   25.2781   45.7446 H   0  0  0  0  0  0  0  0  0  0  0  0
   61.0200   26.8292   45.7446 H   0  0  0  0  0  0  0  0  0  0  0  0
   59.6120   28.5190   48.7570 C   0  0  0  0  0  0  0  0  0  0  0  0
   59.8169   27.8017   49.5654 H   0  0  0  0  0  0  0  0  0  0  0  0
  1  2  1  0
  2  3  2  0
  3  4  1  0
  3  5  1  0
  5  6  1  0
  5  7  2  0
  7  8  1  0
  8  9  1  0
  9 10  1  0
  9 11  1  0
  9 12  1  0
 12 13  2  0
 12 14  1  0
 14 15  2  0
 15 16  1  0
 16 17  1  0
 17 18  1  0
 18 19  2  0
 18 20  1  0
 20 21  1  0
 20 22  1  0
 22 23  1  0
 22 24  1  0
 22 25  1  0
 25 26  1  0
 25 27  1  0
 25 28  1  0
 28 29  1  0
 28 30  1  0
 17 31  1  0
 31 32  1  0
 32 33  1  0
 32 34  1  0
 32 35  1  0
 31 36  2  0
 36 37  1  0
  7 38  1  0
 38 39  1  0
 39 40  1  0
 40 41  1  0
 40 42  1  0
 40 43  1  0
 38 44  2  0
 44 45  1  0
 44  2  1  0
 36 15  1  0
 28 20  1  0
M  CHG  1  16  -1
M  END
>  <UniqueID>  (41) 
37

>  <SMILES>  (41) 
COc1ccccc1OCC(=O)/N=c1/cc(C)n(C(=O)C2CCC2)[n-]1

>  <Energy>  (41) 
141.23743659132322

>  <Genealogy>  (41) 
COc1ccccc1OCC(=O)N=c1cc(C)n(C(=O)C2CCC2)[n-]1 (protonated)
COc1ccccc1OCC(=O)/N=c1/cc(C)n(C(=O)C2CCC2)[n-]1 (cis-trans isomerization)
COc1ccccc1OCC(=O)/N=c1/cc(C)n(C(=O)C2CCC2)[n-]1 (3D coordinates assigned)
COc1ccccc1OCC(=O)/N=c1/cc(C)n(C(=O)C2CCC2)[n-]1 (nonaromatic ring conformer: 141.23743659132322 kcal/mol)

>  <smiles>  (41) 
COc1ccccc1OCC(=O)N=c1cc(C)n(C(=O)C2CCC2)[nH]1

>  <score_type>  (41) 
oracle

>  <origin>  (41) 
adg

>  <m_score__min__energy>  (41) 
-10.17

>  <m_primary>  (41) 
energy

$$$$
41:0
     RDKit          3D

 61 64  0  0  0  0  0  0  0  0999 V2000
   64.3580   33.1700   49.7040 C   0  0  0  0  0  0  0  0  0  0  0  0
   63.2060   32.5140   49.0000 C   0  0  0  0  0  0  0  0  0  0  0  0
   63.3860   31.9090   47.7480 C   0  0  0  0  0  0  0  0  0  0  0  0
   62.3190   31.2610   47.1220 C   0  0  0  0  0  0  0  0  0  0  0  0
   61.0670   31.2120   47.7400 C   0  0  0  0  0  0  0  0  0  0  0  0
   60.8670   31.8150   48.9940 C   0  0  0  0  0  0  0  0  0  0  0  0
   59.5330   31.7530   49.6400 C   0  0  0  0  0  0  0  0  0  0  0  0
   58.7890   32.7700   49.6190 O   0  0  0  0  0  0  0  0  0  0  0  0
   59.0410   30.5600   50.2650 N   0  0  0  0  0  0  0  0  0  0  0  0
   59.6700   29.2710   50.2280 C   0  0  0  0  0  0  0  0  0  0  0  0
   59.7280   28.6000   49.0000 C   0  0  0  0  0  0  0  0  0  0  0  0
   60.3540   27.3550   48.8900 C   0  0  0  0  0  0  0  0  0  0  0  0
   60.4190   26.7230   47.6040 N   0  0  0  0  0  0  0  0  0  0  0  0
   60.2810   27.3790   46.3380 C   0  0  0  0  0  0  0  0  0  0  0  0
   61.2800   27.4230   45.5710 O   0  0  0  0  0  0  0  0  0  0  0  0
   59.0240   28.0540   45.9350 C   0  0  0  0  0  0  0  0  0  0  0  0
   57.8850   27.3080   45.5920 C   0  0  0  0  0  0  0  0  0  0  0  0
   56.7020   27.9530   45.2240 C   0  0  0  0  0  0  0  0  0  0  0  0
   56.6360   29.3480   45.2070 C   0  0  0  0  0  0  0  0  0  0  0  0
   55.4570   29.9720   44.8140 O   0  0  0  0  0  0  0  0  0  0  0  0
   57.7580   30.1120   45.5690 C   0  0  0  0  0  0  0  0  0  0  0  0
   57.6980   31.5470   45.5610 N   0  0  0  0  0  0  0  0  0  0  0  0
   57.7700   32.2890   46.8240 C   0  0  0  0  0  0  0  0  0  0  0  0
   57.9230   33.7950   46.5650 C   0  0  0  0  0  0  0  0  0  0  0  0
   58.8090   34.0660   45.4130 N   0  0  0  0  0  0  0  0  0  0  0  0
   60.2040   33.6750   45.6830 C   0  0  0  0  0  0  0  0  0  0  0  0
   58.3060   33.4890   44.1430 C   0  0  0  0  0  0  0  0  0  0  0  0
   57.3860   32.2650   44.3220 C   0  0  0  0  0  0  0  0  0  0  0  0
   58.9490   29.4580   45.9320 C   0  0  0  0  0  0  0  0  0  0  0  0
   60.9500   26.7820   50.0240 C   0  0  0  0  0  0  0  0  0  0  0  0
   60.8640   27.4210   51.2620 C   0  0  0  0  0  0  0  0  0  0  0  0
   60.2010   28.6520   51.3870 C   0  0  0  0  0  0  0  0  0  0  0  0
   60.0740   29.2730   52.7540 C   0  0  0  0  0  0  0  0  0  0  0  0
   61.9530   32.4450   49.6280 C   0  0  0  0  0  0  0  0  0  0  0  0
   64.2167   33.0895   50.7919 H   0  0  0  0  0  0  0  0  0  0  0  0
   65.2952   32.6701   49.4180 H   0  0  0  0  0  0  0  0  0  0  0  0
   64.4063   34.2311   49.4180 H   0  0  0  0  0  0  0  0  0  0  0  0
   64.3700   31.9449   47.2577 H   0  0  0  0  0  0  0  0  0  0  0  0
   62.4647   30.7879   46.1397 H   0  0  0  0  0  0  0  0  0  0  0  0
   60.2318   30.6979   47.2418 H   0  0  0  0  0  0  0  0  0  0  0  0
   59.2744   29.0593   48.1093 H   0  0  0  0  0  0  0  0  0  0  0  0
   57.9246   26.2089   45.6132 H   0  0  0  0  0  0  0  0  0  0  0  0
   55.8184   27.3596   44.9463 H   0  0  0  0  0  0  0  0  0  0  0  0
   56.8481   32.1138   47.3980 H   0  0  0  0  0  0  0  0  0  0  0  0
   58.6461   31.9381   47.3891 H   0  0  0  0  0  0  0  0  0  0  0  0
   56.9310   34.2238   46.3600 H   0  0  0  0  0  0  0  0  0  0  0  0
   58.3738   34.2518   47.4584 H   0  0  0  0  0  0  0  0  0  0  0  0
   60.3681   33.6290   46.7697 H   0  0  0  0  0  0  0  0  0  0  0  0
   60.4002   32.6873   45.2404 H   0  0  0  0  0  0  0  0  0  0  0  0
   60.8850   34.4169   45.2404 H   0  0  0  0  0  0  0  0  0  0  0  0
   57.7420   34.2687   43.6100 H   0  0  0  0  0  0  0  0  0  0  0  0
   59.1875   33.1411   43.5845 H   0  0  0  0  0  0  0  0  0  0  0  0
   56.3401   32.6038   44.3568 H   0  0  0  0  0  0  0  0  0  0  0  0
   57.5434   31.5826   43.4737 H   0  0  0  0  0  0  0  0  0  0  0  0
   59.8308   30.0509   46.2164 H   0  0  0  0  0  0  0  0  0  0  0  0
   61.4869   25.8259   49.9369 H   0  0  0  0  0  0  0  0  0  0  0  0
   61.3201   26.9555   52.1481 H   0  0  0  0  0  0  0  0  0  0  0  0
   60.2316   28.5023   53.5229 H   0  0  0  0  0  0  0  0  0  0  0  0
   60.8288   30.0650   52.8685 H   0  0  0  0  0  0  0  0  0  0  0  0
   59.0689   29.7051   52.8685 H   0  0  0  0  0  0  0  0  0  0  0  0
   61.8188   32.8880   50.6259 H   0  0  0  0  0  0  0  0  0  0  0  0
  1  2  1  0
  2  3  2  0
  3  4  1  0
  4  5  2  0
  5  6  1  0
  6  7  1  0
  7  8  2  0
  7  9  1  0
  9 10  1  0
 10 11  2  0
 11 12  1  0
 12 13  1  0
 13 14  1  0
 14 15  2  0
 14 16  1  0
 16 17  2  0
 17 18  1  0
 18 19  2  0
 19 20  1  0
 19 21  1  0
 21 22  1  0
 22 23  1  0
 23 24  1  0
 24 25  1  0
 25 26  1  0
 25 27  1  0
 27 28  1  0
 21 29  2  0
 12 30  2  0
 30 31  1  0
 31 32  2  0
 32 33  1  0
  6 34  2  0
 34  2  1  0
 32 10  1  0
 29 16  1  0
 28 22  1  0
  1 35  1  0
  1 36  1  0
  1 37  1  0
  3 38  1  0
  4 39  1  0
  5 40  1  0
 11 41  1  0
 17 42  1  0
 18 43  1  0
 23 44  1  0
 23 45  1  0
 24 46  1  0
 24 47  1  0
 26 48  1  0
 26 49  1  0
 26 50  1  0
 27 51  1  0
 27 52  1  0
 28 53  1  0
 28 54  1  0
 29 55  1  0
 30 56  1  0
 31 57  1  0
 33 58  1  0
 33 59  1  0
 33 60  1  0
 34 61  1  0
M  CHG  3   9  -1  13  -1  20  -1
M  END
>  <UniqueID>  (42) 
38

>  <SMILES>  (42) 
Cc1cccc(C(=O)[N-]c2cc([N-]C(=O)c3ccc([O-])c(N4CCN(C)CC4)c3)ccc2C)c1

>  <Energy>  (42) 
91.8024896090824

>  <Genealogy>  (42) 
Cc1cccc(C(=O)[N-]c2cc([N-]C(=O)c3ccc([O-])c(N4CCN(C)CC4)c3)ccc2C)c1 (protonated)
Cc1cccc(C(=O)[N-]c2cc([N-]C(=O)c3ccc([O-])c(N4CCN(C)CC4)c3)ccc2C)c1 (3D coordinates assigned)
Cc1cccc(C(=O)[N-]c2cc([N-]C(=O)c3ccc([O-])c(N4CCN(C)CC4)c3)ccc2C)c1 (nonaromatic ring conformer: 91.8024896090824 kcal/mol)

>  <smiles>  (42) 
Cc1cccc(C(=O)Nc2cc(NC(=O)c3ccc(O)c(N4CCN(C)CC4)c3)ccc2C)c1

>  <score_type>  (42) 
oracle

>  <origin>  (42) 
adg

>  <m_score__min__energy>  (42) 
-14.460000000000001

>  <m_primary>  (42) 
energy

$$$$
42:0
     RDKit          3D

 66 69  0  0  0  0  0  0  0  0999 V2000
   56.4090   29.7140   42.8360 C   0  0  0  0  0  0  0  0  0  0  0  0
   55.5170   29.8820   44.0620 C   0  0  0  0  0  0  0  0  0  0  0  0
   55.6130   28.7450   44.9170 O   0  0  0  0  0  0  0  0  0  0  0  0
   56.8270   28.1290   45.2500 C   0  0  0  0  0  0  0  0  0  0  0  0
   57.0480   26.9360   44.9040 O   0  0  0  0  0  0  0  0  0  0  0  0
   57.8480   28.8810   46.0120 C   0  0  0  0  0  0  0  0  0  0  0  0
   58.2630   30.1560   45.5900 C   0  0  0  0  0  0  0  0  0  0  0  0
   59.2220   30.8640   46.3150 C   0  0  0  0  0  0  0  0  0  0  0  0
   59.7940   30.3100   47.4730 C   0  0  0  0  0  0  0  0  0  0  0  0
   60.7930   31.0450   48.2150 N   0  0  0  0  0  0  0  0  0  0  0  0
   60.8420   30.6160   49.6230 C   0  0  0  0  0  0  0  0  0  0  0  0
   59.5080   30.8730   50.3510 C   0  0  0  0  0  0  0  0  0  0  0  0
   59.0290   32.3250   50.1770 C   0  0  0  0  0  0  0  0  0  0  0  0
   59.7110   33.2990   51.1530 C   0  0  0  0  0  0  0  0  0  0  0  0
   60.6310   34.1920   50.4460 N   0  0  0  0  0  0  0  0  0  0  0  0
   62.0240   33.8890   50.2960 C   0  0  0  0  0  0  0  0  0  0  0  0
   62.8030   33.8980   51.4090 N   0  0  0  0  0  0  0  0  0  0  0  0
   64.1390   33.6660   51.3690 C   0  0  0  0  0  0  0  0  0  0  0  0
   64.8910   33.7210   52.5480 C   0  0  0  0  0  0  0  0  0  0  0  0
   66.2690   33.4940   52.5120 C   0  0  0  0  0  0  0  0  0  0  0  0
   66.9010   33.2070   51.2990 C   0  0  0  0  0  0  0  0  0  0  0  0
   66.1580   33.1450   50.1170 C   0  0  0  0  0  0  0  0  0  0  0  0
   64.7680   33.3780   50.1400 C   0  0  0  0  0  0  0  0  0  0  0  0
   63.9860   33.3270   48.9720 C   0  0  0  0  0  0  0  0  0  0  0  0
   64.5220   33.0150   47.8740 O   0  0  0  0  0  0  0  0  0  0  0  0
   62.6000   33.5990   49.0340 C   0  0  0  0  0  0  0  0  0  0  0  0
   61.7760   33.5580   47.8020 C   0  0  0  0  0  0  0  0  0  0  0  0
   62.1380   32.8500   46.8230 O   0  0  0  0  0  0  0  0  0  0  0  0
   60.5890   34.3540   47.7130 N   0  0  0  0  0  0  0  0  0  0  0  0
   59.5140   34.1760   46.7810 C   0  0  0  0  0  0  0  0  0  0  0  0
   59.6920   34.3600   45.3970 C   0  0  0  0  0  0  0  0  0  0  0  0
   58.6330   34.1260   44.5160 C   0  0  0  0  0  0  0  0  0  0  0  0
   57.3960   33.6960   45.0050 C   0  0  0  0  0  0  0  0  0  0  0  0
   57.2190   33.4930   46.3760 C   0  0  0  0  0  0  0  0  0  0  0  0
   58.2760   33.7270   47.2600 C   0  0  0  0  0  0  0  0  0  0  0  0
   59.3780   29.0380   47.8980 C   0  0  0  0  0  0  0  0  0  0  0  0
   58.4170   28.3290   47.1730 C   0  0  0  0  0  0  0  0  0  0  0  0
   57.4425   29.5193   43.1584 H   0  0  0  0  0  0  0  0  0  0  0  0
   56.0476   28.8681   42.2328 H   0  0  0  0  0  0  0  0  0  0  0  0
   56.3801   30.6334   42.2328 H   0  0  0  0  0  0  0  0  0  0  0  0
   55.8315   30.7782   44.6169 H   0  0  0  0  0  0  0  0  0  0  0  0
   54.4740   29.9852   43.7280 H   0  0  0  0  0  0  0  0  0  0  0  0
   57.8285   30.5987   44.6816 H   0  0  0  0  0  0  0  0  0  0  0  0
   59.5328   31.8637   45.9775 H   0  0  0  0  0  0  0  0  0  0  0  0
   61.7370   30.9440   47.7740 H   0  0  0  0  0  0  0  0  0  0  0  0
   60.5490   32.0630   48.1840 H   0  0  0  0  0  0  0  0  0  0  0  0
   61.0646   29.5393   49.6588 H   0  0  0  0  0  0  0  0  0  0  0  0
   61.6240   31.2007   50.1296 H   0  0  0  0  0  0  0  0  0  0  0  0
   58.7439   30.1952   49.9427 H   0  0  0  0  0  0  0  0  0  0  0  0
   59.6656   30.6927   51.4246 H   0  0  0  0  0  0  0  0  0  0  0  0
   59.2490   32.6467   49.1484 H   0  0  0  0  0  0  0  0  0  0  0  0
   57.9498   32.3453   50.3891 H   0  0  0  0  0  0  0  0  0  0  0  0
   58.9409   33.9015   51.6568 H   0  0  0  0  0  0  0  0  0  0  0  0
   60.2848   32.7147   51.8874 H   0  0  0  0  0  0  0  0  0  0  0  0
   60.2060   34.8110   49.7200 H   0  0  0  0  0  0  0  0  0  0  0  0
   64.3961   33.9434   53.5049 H   0  0  0  0  0  0  0  0  0  0  0  0
   66.8576   33.5412   53.4401 H   0  0  0  0  0  0  0  0  0  0  0  0
   67.9863   33.0294   51.2746 H   0  0  0  0  0  0  0  0  0  0  0  0
   66.6595   32.9136   49.1657 H   0  0  0  0  0  0  0  0  0  0  0  0
   60.6670   34.6888   45.0080 H   0  0  0  0  0  0  0  0  0  0  0  0
   58.7729   34.2804   43.4359 H   0  0  0  0  0  0  0  0  0  0  0  0
   56.5619   33.5175   44.3104 H   0  0  0  0  0  0  0  0  0  0  0  0
   56.2473   33.1488   46.7598 H   0  0  0  0  0  0  0  0  0  0  0  0
   58.1353   33.5578   48.3378 H   0  0  0  0  0  0  0  0  0  0  0  0
   59.8116   28.5969   48.8077 H   0  0  0  0  0  0  0  0  0  0  0  0
   58.1031   27.3311   47.5132 H   0  0  0  0  0  0  0  0  0  0  0  0
  1  2  1  0
  2  3  1  0
  3  4  1  0
  4  5  2  0
  4  6  1  0
  6  7  2  0
  7  8  1  0
  8  9  2  0
  9 10  1  0
 10 11  1  0
 11 12  1  0
 12 13  1  0
 13 14  1  0
 14 15  1  0
 15 16  1  0
 16 17  1  0
 17 18  1  0
 18 19  2  0
 19 20  1  0
 20 21  2  0
 21 22  1  0
 22 23  2  0
 23 24  1  0
 24 25  2  0
 24 26  1  0
 26 27  1  0
 27 28  2  0
 27 29  1  0
 29 30  1  0
 30 31  2  0
 31 32  1  0
 32 33  2  0
 33 34  1  0
 34 35  2  0
  9 36  1  0
 36 37  2  0
 37  6  1  0
 26 16  2  0
 35 30  1  0
 23 18  1  0
  1 38  1  0
  1 39  1  0
  1 40  1  0
  2 41  1  0
  2 42  1  0
  7 43  1  0
  8 44  1  0
 10 45  1  0
 10 46  1  0
 11 47  1  0
 11 48  1  0
 12 49  1  0
 12 50  1  0
 13 51  1  0
 13 52  1  0
 14 53  1  0
 14 54  1  0
 15 55  1  0
 19 56  1  0
 20 57  1  0
 21 58  1  0
 22 59  1  0
 31 60  1  0
 32 61  1  0
 33 62  1  0
 34 63  1  0
 35 64  1  0
 36 65  1  0
 37 66  1  0
M  CHG  3  10   1  17  -1  29  -1
M  END
>  <UniqueID>  (43) 
39

>  <SMILES>  (43) 
CCOC(=O)c1ccc([NH2+]CCCCNc2[n-]c3ccccc3c(=O)c2C(=O)[N-]c2ccccc2)cc1

>  <Energy>  (43) 
71.95384491249823

>  <Genealogy>  (43) 
CCOC(=O)c1ccc([NH2+]CCCCNc2[n-]c3ccccc3c(=O)c2C(=O)[N-]c2ccccc2)cc1 (protonated)
CCOC(=O)c1ccc([NH2+]CCCCNc2[n-]c3ccccc3c(=O)c2C(=O)[N-]c2ccccc2)cc1 (3D coordinates assigned)
CCOC(=O)c1ccc([NH2+]CCCCNc2[n-]c3ccccc3c(=O)c2C(=O)[N-]c2ccccc2)cc1 (optimized conformer: 71.95384491249823 kcal/mol)

>  <smiles>  (43) 
CCOC(=O)c1ccc(NCCCCNc2[nH]c3ccccc3c(=O)c2C(=O)Nc2ccccc2)cc1

>  <score_type>  (43) 
oracle

>  <origin>  (43) 
adg

>  <m_score__min__energy>  (43) 
-10.65

>  <m_primary>  (43) 
energy

$$$$
43:0
     RDKit          3D

 59 62  0  0  0  0  0  0  0  0999 V2000
   58.3730   25.5670   47.9420 O   0  0  0  0  0  0  0  0  0  0  0  0
   58.4380   26.2830   46.9050 C   0  0  0  0  0  0  0  0  0  0  0  0
   57.1840   26.6610   46.1830 C   0  0  0  0  0  0  0  0  0  0  0  0
   56.7250   25.5180   45.3200 C   0  0  0  0  0  0  0  0  0  0  0  0
   57.4980   25.1040   44.2220 C   0  0  0  0  0  0  0  0  0  0  0  0
   57.0910   24.0160   43.4440 C   0  0  0  0  0  0  0  0  0  0  0  0
   55.9160   23.3250   43.7620 C   0  0  0  0  0  0  0  0  0  0  0  0
   55.5200   22.2430   42.9860 O   0  0  0  0  0  0  0  0  0  0  0  0
   55.1450   23.7210   44.8630 C   0  0  0  0  0  0  0  0  0  0  0  0
   53.9800   23.0240   45.1790 O   0  0  0  0  0  0  0  0  0  0  0  0
   55.5530   24.8140   45.6430 C   0  0  0  0  0  0  0  0  0  0  0  0
   59.7060   26.6850   46.3810 N   0  0  0  0  0  0  0  0  0  0  0  0
   60.2120   28.0450   46.5030 C   0  0  0  0  0  0  0  0  0  0  0  0
   59.9770   28.5560   47.9230 C   0  0  0  0  0  0  0  0  0  0  0  0
   58.8330   29.5210   47.9470 C   0  0  0  0  0  0  0  0  0  0  0  0
   58.4740   30.0360   49.0410 O   0  0  0  0  0  0  0  0  0  0  0  0
   58.0890   29.7570   46.7460 N   0  0  0  0  0  0  0  0  0  0  0  0
   58.1670   30.9140   45.9030 C   0  0  0  0  0  0  0  0  0  0  0  0
   57.6040   30.9390   44.6130 C   0  0  0  0  0  0  0  0  0  0  0  0
   57.6970   32.0910   43.8290 C   0  0  0  0  0  0  0  0  0  0  0  0
   58.3370   33.2300   44.3250 C   0  0  0  0  0  0  0  0  0  0  0  0
   58.8740   33.2300   45.6220 C   0  0  0  0  0  0  0  0  0  0  0  0
   59.5570   34.4560   46.1740 C   0  0  0  0  0  0  0  0  0  0  0  0
   60.1020   34.1940   47.5560 C   0  0  0  0  0  0  0  0  0  0  0  0
   59.2490   34.3250   48.6100 N   0  0  0  0  0  0  0  0  0  0  0  0
   59.6480   34.1670   49.8710 N   0  0  0  0  0  0  0  0  0  0  0  0
   60.9370   33.8720   50.1770 C   0  0  0  0  0  0  0  0  0  0  0  0
   61.2720   33.7470   51.3840 O   0  0  0  0  0  0  0  0  0  0  0  0
   61.8740   33.7190   49.1450 C   0  0  0  0  0  0  0  0  0  0  0  0
   61.4600   33.8830   47.8130 C   0  0  0  0  0  0  0  0  0  0  0  0
   62.5180   33.7810   46.7370 C   0  0  0  0  0  0  0  0  0  0  0  0
   63.4390   32.5720   46.9850 C   0  0  0  0  0  0  0  0  0  0  0  0
   63.9000   32.4070   48.4550 C   0  0  0  0  0  0  0  0  0  0  0  0
   63.3370   33.4620   49.4210 C   0  0  0  0  0  0  0  0  0  0  0  0
   58.7810   32.0670   46.4050 C   0  0  0  0  0  0  0  0  0  0  0  0
   56.4000   26.9023   46.9158 H   0  0  0  0  0  0  0  0  0  0  0  0
   57.3822   27.5370   45.5479 H   0  0  0  0  0  0  0  0  0  0  0  0
   58.4270   25.6381   43.9736 H   0  0  0  0  0  0  0  0  0  0  0  0
   57.6955   23.7023   42.5801 H   0  0  0  0  0  0  0  0  0  0  0  0
   53.6730   22.2270   44.6310 H   0  0  0  0  0  0  0  0  0  0  0  0
   54.9521   25.1210   46.5117 H   0  0  0  0  0  0  0  0  0  0  0  0
   61.2900   28.0551   46.2845 H   0  0  0  0  0  0  0  0  0  0  0  0
   59.6845   28.6954   45.7897 H   0  0  0  0  0  0  0  0  0  0  0  0
   59.7474   27.7051   48.5812 H   0  0  0  0  0  0  0  0  0  0  0  0
   60.8848   29.0696   48.2725 H   0  0  0  0  0  0  0  0  0  0  0  0
   57.0896   30.0490   44.2215 H   0  0  0  0  0  0  0  0  0  0  0  0
   57.2649   32.1019   42.8175 H   0  0  0  0  0  0  0  0  0  0  0  0
   58.4202   34.1294   43.6971 H   0  0  0  0  0  0  0  0  0  0  0  0
   60.3858   34.7370   45.5076 H   0  0  0  0  0  0  0  0  0  0  0  0
   58.8200   35.2702   46.2360 H   0  0  0  0  0  0  0  0  0  0  0  0
   62.0274   33.6655   45.7593 H   0  0  0  0  0  0  0  0  0  0  0  0
   63.1273   34.6966   46.7552 H   0  0  0  0  0  0  0  0  0  0  0  0
   62.8972   31.6611   46.6904 H   0  0  0  0  0  0  0  0  0  0  0  0
   64.3477   32.7433   46.3893 H   0  0  0  0  0  0  0  0  0  0  0  0
   63.5809   31.4145   48.8060 H   0  0  0  0  0  0  0  0  0  0  0  0
   64.9928   32.5324   48.4565 H   0  0  0  0  0  0  0  0  0  0  0  0
   63.4508   33.1017   50.4541 H   0  0  0  0  0  0  0  0  0  0  0  0
   63.8919   34.4010   49.2785 H   0  0  0  0  0  0  0  0  0  0  0  0
   59.1954   32.0628   47.4239 H   0  0  0  0  0  0  0  0  0  0  0  0
  1  2  2  0
  2  3  1  0
  3  4  1  0
  4  5  2  0
  5  6  1  0
  6  7  2  0
  7  8  1  0
  7  9  1  0
  9 10  1  0
  9 11  2  0
  2 12  1  0
 12 13  1  0
 13 14  1  0
 14 15  1  0
 15 16  2  0
 15 17  1  0
 17 18  1  0
 18 19  2  0
 19 20  1  0
 20 21  2  0
 21 22  1  0
 22 23  1  0
 23 24  1  0
 24 25  2  0
 25 26  1  0
 26 27  1  0
 27 28  2  0
 27 29  1  0
 29 30  2  0
 30 31  1  0
 31 32  1  0
 32 33  1  0
 33 34  1  0
 22 35  2  0
 11  4  1  0
 35 18  1  0
 30 24  1  0
 34 29  1  0
  3 36  1  0
  3 37  1  0
  5 38  1  0
  6 39  1  0
 10 40  1  0
 11 41  1  0
 13 42  1  0
 13 43  1  0
 14 44  1  0
 14 45  1  0
 19 46  1  0
 20 47  1  0
 21 48  1  0
 23 49  1  0
 23 50  1  0
 31 51  1  0
 31 52  1  0
 32 53  1  0
 32 54  1  0
 33 55  1  0
 33 56  1  0
 34 57  1  0
 34 58  1  0
 35 59  1  0
M  CHG  4   8  -1  12  -1  17  -1  26  -1
M  END
>  <UniqueID>  (44) 
40

>  <SMILES>  (44) 
O=C(Cc1ccc([O-])c(O)c1)[N-]CCC(=O)[N-]c1cccc(Cc2n[n-]c(=O)c3c2CCCC3)c1

>  <Energy>  (44) 
65.42813200014292

>  <Genealogy>  (44) 
O=C(Cc1ccc([O-])c(O)c1)[N-]CCC(=O)[N-]c1cccc(Cc2n[n-]c(=O)c3c2CCCC3)c1 (protonated)
O=C(Cc1ccc([O-])c(O)c1)[N-]CCC(=O)[N-]c1cccc(Cc2n[n-]c(=O)c3c2CCCC3)c1 (3D coordinates assigned)
O=C(Cc1ccc([O-])c(O)c1)[N-]CCC(=O)[N-]c1cccc(Cc2n[n-]c(=O)c3c2CCCC3)c1 (nonaromatic ring conformer: 65.42813200014292 kcal/mol)

>  <smiles>  (44) 
O=C(Cc1ccc(O)c(O)c1)NCCC(=O)Nc1cccc(Cc2n[nH]c(=O)c3c2CCCC3)c1

>  <score_type>  (44) 
oracle

>  <origin>  (44) 
adg

>  <m_score__min__energy>  (44) 
-18.780000000000001

>  <m_primary>  (44) 
energy

$$$$
44:0
     RDKit          3D

 62 66  0  0  0  0  0  0  0  0999 V2000
   64.9638   32.9528   47.9109 H   0  0  0  0  0  0  0  0  0  0  0  0
   63.9260   33.2590   48.1090 C   0  0  0  0  0  0  0  0  0  0  0  0
   63.5130   33.3920   49.3680 C   0  0  0  0  0  0  0  0  0  0  0  0
   64.2121   33.2099   50.1975 H   0  0  0  0  0  0  0  0  0  0  0  0
   62.1130   33.7850   49.6530 C   0  0  0  0  0  0  0  0  0  0  0  0
   61.6880   34.0670   50.8530 N   0  0  0  0  0  0  0  0  0  0  0  0
   60.7520   33.3290   51.6490 C   0  0  0  0  0  0  0  0  0  0  0  0
   60.1100   33.9350   52.5480 O   0  0  0  0  0  0  0  0  0  0  0  0
   60.6530   31.9020   51.5310 N   0  0  0  0  0  0  0  0  0  0  0  0
   60.4040   31.1650   50.3240 C   0  0  0  0  0  0  0  0  0  0  0  0
   59.0840   30.8200   50.0070 C   0  0  0  0  0  0  0  0  0  0  0  0
   58.2652   31.1190   50.6780 H   0  0  0  0  0  0  0  0  0  0  0  0
   58.8000   30.0990   48.8450 C   0  0  0  0  0  0  0  0  0  0  0  0
   57.7586   29.8430   48.6000 H   0  0  0  0  0  0  0  0  0  0  0  0
   59.8400   29.6990   47.9870 C   0  0  0  0  0  0  0  0  0  0  0  0
   59.5970   28.9580   46.8210 O   0  0  0  0  0  0  0  0  0  0  0  0
   58.3420   28.4770   46.4220 C   0  0  0  0  0  0  0  0  0  0  0  0
   57.9410   27.2310   46.8080 N   0  0  0  0  0  0  0  0  0  0  0  0
   56.7250   26.7120   46.4330 C   0  0  0  0  0  0  0  0  0  0  0  0
   56.3580   25.5270   46.8200 N   0  0  0  0  0  0  0  0  0  0  0  0
   56.3020   24.3390   45.9640 C   0  0  1  0  0  0  0  0  0  0  0  0
   56.9927   23.5803   46.3606 H   0  0  0  0  0  0  0  0  0  0  0  0
   54.8970   23.7820   45.9620 C   0  0  0  0  0  0  0  0  0  0  0  0
   53.9170   24.3370   45.1180 C   0  0  0  0  0  0  0  0  0  0  0  0
   54.1793   25.1695   44.4486 H   0  0  0  0  0  0  0  0  0  0  0  0
   52.6100   23.8350   45.1260 C   0  0  0  0  0  0  0  0  0  0  0  0
   51.8493   24.2723   44.4626 H   0  0  0  0  0  0  0  0  0  0  0  0
   52.2710   22.7790   45.9760 C   0  0  0  0  0  0  0  0  0  0  0  0
   51.2455   22.3811   45.9758 H   0  0  0  0  0  0  0  0  0  0  0  0
   53.2330   22.2280   46.8260 C   0  0  0  0  0  0  0  0  0  0  0  0
   52.9626   21.3991   47.4967 H   0  0  0  0  0  0  0  0  0  0  0  0
   54.5390   22.7280   46.8260 C   0  0  0  0  0  0  0  0  0  0  0  0
   55.2904   22.2965   47.5037 H   0  0  0  0  0  0  0  0  0  0  0  0
   56.7360   24.6850   44.5360 C   0  0  0  0  0  0  0  0  0  0  0  0
   57.5957   25.3704   44.5700 H   0  0  0  0  0  0  0  0  0  0  0  0
   57.0218   23.7642   44.0064 H   0  0  0  0  0  0  0  0  0  0  0  0
   55.9021   25.1688   44.0064 H   0  0  0  0  0  0  0  0  0  0  0  0
   55.8830   27.4470   45.6410 N   0  0  0  0  0  0  0  0  0  0  0  0
   56.2830   28.6780   45.2450 C   0  0  0  0  0  0  0  0  0  0  0  0
   55.6170   29.5120   44.4340 N   0  0  0  0  0  0  0  0  0  0  0  0
   56.4840   30.5560   44.3310 C   0  0  0  0  0  0  0  0  0  0  0  0
   56.2660   31.4532   43.7330 H   0  0  0  0  0  0  0  0  0  0  0  0
   57.6430   30.4000   45.0280 N   0  0  0  0  0  0  0  0  0  0  0  0
   57.4750   29.2010   45.6040 C   0  0  0  0  0  0  0  0  0  0  0  0
   61.1620   30.0040   48.3270 C   0  0  0  0  0  0  0  0  0  0  0  0
   61.9838   29.6700   47.6765 H   0  0  0  0  0  0  0  0  0  0  0  0
   61.4470   30.7300   49.4870 C   0  0  0  0  0  0  0  0  0  0  0  0
   62.4906   30.9618   49.7460 H   0  0  0  0  0  0  0  0  0  0  0  0
   61.0970   33.7130   48.5410 C   0  0  0  0  0  0  0  0  0  0  0  0
   60.4009   34.5579   48.6486 H   0  0  0  0  0  0  0  0  0  0  0  0
   60.5866   32.7424   48.6278 H   0  0  0  0  0  0  0  0  0  0  0  0
   61.7180   33.7730   47.1560 C   0  0  0  0  0  0  0  0  0  0  0  0
   60.9180   34.0140   45.9880 N   0  0  0  0  0  0  0  0  0  0  0  0
   59.3140   34.6710   45.9750 S   0  0  0  0  0  0  0  0  0  0  0  0
   59.2250   35.6880   44.8770 O   0  0  0  0  0  0  0  0  0  0  0  0
   59.0220   35.3500   47.2800 O   0  0  0  0  0  0  0  0  0  0  0  0
   58.1160   33.3960   45.6600 C   0  0  0  0  0  0  0  0  0  0  0  0
   57.7431   32.9991   46.6157 H   0  0  0  0  0  0  0  0  0  0  0  0
   57.2773   33.8150   45.0847 H   0  0  0  0  0  0  0  0  0  0  0  0
   58.5864   32.5850   45.0847 H   0  0  0  0  0  0  0  0  0  0  0  0
   63.0200   33.5140   46.9780 C   0  0  0  0  0  0  0  0  0  0  0  0
   63.4243   33.4912   45.9552 H   0  0  0  0  0  0  0  0  0  0  0  0
  1  2  1  0
  2  3  2  0
  3  4  1  0
  3  5  1  0
  5  6  2  0
  6  7  1  0
  7  8  2  0
  7  9  1  0
  9 10  1  0
 10 11  2  0
 11 12  1  0
 11 13  1  0
 13 14  1  0
 13 15  2  0
 15 16  1  0
 16 17  1  0
 17 18  2  0
 18 19  1  0
 19 20  2  0
 20 21  1  0
 21 22  1  1
 21 23  1  0
 23 24  2  0
 24 25  1  0
 24 26  1  0
 26 27  1  0
 26 28  2  0
 28 29  1  0
 28 30  1  0
 30 31  1  0
 30 32  2  0
 32 33  1  0
 21 34  1  0
 34 35  1  0
 34 36  1  0
 34 37  1  0
 19 38  1  0
 38 39  1  0
 39 40  1  0
 40 41  2  0
 41 42  1  0
 41 43  1  0
 43 44  1  0
 15 45  1  0
 45 46  1  0
 45 47  2  0
 47 48  1  0
  5 49  1  0
 49 50  1  0
 49 51  1  0
 49 52  1  0
 52 53  1  0
 53 54  1  0
 54 55  2  0
 54 56  2  0
 54 57  1  0
 57 58  1  0
 57 59  1  0
 57 60  1  0
 52 61  2  0
 61 62  1  0
 61  2  1  0
 47 10  1  0
 44 17  1  0
 32 23  1  0
 44 39  2  0
M  CHG  4   9  -1  38  -1  43  -1  53  -1
M  END
>  <UniqueID>  (45) 
41

>  <SMILES>  (45) 
C[C@@H](/N=c1\nc(Oc2ccc([N-]C(=O)/N=C3\C=CC=C([N-]S(C)(=O)=O)C3)cc2)c2[n-]cnc2[n-]1)c1ccccc1

>  <Energy>  (45) 
118.80726501732376

>  <Genealogy>  (45) 
CC(N=c1nc(Oc2ccc([N-]C(=O)N=C3C=CC=C([N-]S(C)(=O)=O)C3)cc2)c2[n-]cnc2[n-]1)c1ccccc1 (protonated)
C[C@@H](N=c1nc(Oc2ccc([N-]C(=O)N=C3C=CC=C([N-]S(C)(=O)=O)C3)cc2)c2[n-]cnc2[n-]1)c1ccccc1 (chirality)
C[C@@H](/N=c1\nc(Oc2ccc([N-]C(=O)/N=C3\C=CC=C([N-]S(C)(=O)=O)C3)cc2)c2[n-]cnc2[n-]1)c1ccccc1 (cis-trans isomerization)
C[C@@H](/N=c1\nc(Oc2ccc([N-]C(=O)/N=C3\C=CC=C([N-]S(C)(=O)=O)C3)cc2)c2[n-]cnc2[n-]1)c1ccccc1 (3D coordinates assigned)
C[C@@H](/N=c1\nc(Oc2ccc([N-]C(=O)/N=C3\C=CC=C([N-]S(C)(=O)=O)C3)cc2)c2[n-]cnc2[n-]1)c1ccccc1 (nonaromatic ring conformer: 118.80726501732376 kcal/mol)

>  <smiles>  (45) 
CC(N=c1nc(Oc2ccc(NC(=O)N=C3C=CC=C(NS(C)(=O)=O)C3)cc2)c2[nH]cnc2[nH]1)c1ccccc1

>  <score_type>  (45) 
oracle

>  <origin>  (45) 
adg

>  <m_score__min__energy>  (45) 
-14.289999999999999

>  <m_primary>  (45) 
energy

$$$$
45:0
     RDKit          3D

 65 69  0  0  0  0  0  0  0  0999 V2000
   64.7520   28.8110   51.9990 C   0  0  0  0  0  0  0  0  0  0  0  0
   63.3060   28.2960   52.0760 C   0  0  0  0  0  0  0  0  0  0  0  0
   62.2700   29.3500   51.9160 N   0  0  1  0  0  0  0  0  0  0  0  0
   60.9010   28.7900   52.0720 C   0  0  0  0  0  0  0  0  0  0  0  0
   60.3870   28.1890   50.7960 C   0  0  0  0  0  0  0  0  0  0  0  0
   61.0360   28.3540   49.6830 N   0  0  0  0  0  0  0  0  0  0  0  0
   60.5630   27.9340   48.3940 C   0  0  0  0  0  0  0  0  0  0  0  0
   60.9140   26.8060   47.9570 O   0  0  0  0  0  0  0  0  0  0  0  0
   59.6910   28.7790   47.5570 C   0  0  0  0  0  0  0  0  0  0  0  0
   58.6250   28.3090   46.7960 C   0  0  0  0  0  0  0  0  0  0  0  0
   58.0910   29.4350   46.2030 C   0  0  0  0  0  0  0  0  0  0  0  0
   57.0170   29.5900   45.3290 C   0  0  0  0  0  0  0  0  0  0  0  0
   56.3490   28.5980   44.9370 O   0  0  0  0  0  0  0  0  0  0  0  0
   56.7010   30.8470   44.9020 N   0  0  0  0  0  0  0  0  0  0  0  0
   57.4060   31.9510   45.3070 C   0  0  0  0  0  0  0  0  0  0  0  0
   57.0470   33.2210   44.8430 C   0  0  0  0  0  0  0  0  0  0  0  0
   57.7670   34.3470   45.2560 C   0  0  0  0  0  0  0  0  0  0  0  0
   58.8480   34.2130   46.1320 C   0  0  0  0  0  0  0  0  0  0  0  0
   59.2210   32.9510   46.6070 C   0  0  0  0  0  0  0  0  0  0  0  0
   58.5070   31.8140   46.1970 C   0  0  0  0  0  0  0  0  0  0  0  0
   58.8200   30.5160   46.6250 C   0  0  0  0  0  0  0  0  0  0  0  0
   59.8030   30.1250   47.4590 N   0  0  0  0  0  0  0  0  0  0  0  0
   62.5200   30.5020   52.8260 C   0  0  0  0  0  0  0  0  0  0  0  0
   63.3250   31.5910   52.1710 C   0  0  0  0  0  0  0  0  0  0  0  0
   63.4740   32.6980   52.7540 O   0  0  0  0  0  0  0  0  0  0  0  0
   63.8780   31.3610   50.8710 N   0  0  0  0  0  0  0  0  0  0  0  0
   63.5470   32.0090   49.6350 C   0  0  0  0  0  0  0  0  0  0  0  0
   64.4960   32.7770   48.9350 C   0  0  0  0  0  0  0  0  0  0  0  0
   64.1420   33.4270   47.7490 C   0  0  0  0  0  0  0  0  0  0  0  0
   62.8460   33.3110   47.2460 C   0  0  0  0  0  0  0  0  0  0  0  0
   61.9030   32.5310   47.9180 C   0  0  0  0  0  0  0  0  0  0  0  0
   62.2470   31.8550   49.0970 C   0  0  0  0  0  0  0  0  0  0  0  0
   61.2490   31.0960   49.7330 O   0  0  0  0  0  0  0  0  0  0  0  0
   60.1060   31.6100   50.3620 C   0  0  0  0  0  0  0  0  0  0  0  0
   60.2080   32.8130   51.0740 C   0  0  0  0  0  0  0  0  0  0  0  0
   59.0950   33.3380   51.7390 C   0  0  0  0  0  0  0  0  0  0  0  0
   57.8670   32.6730   51.6780 C   0  0  0  0  0  0  0  0  0  0  0  0
   57.7490   31.4920   50.9410 C   0  0  0  0  0  0  0  0  0  0  0  0
   58.8600   30.9640   50.2770 C   0  0  0  0  0  0  0  0  0  0  0  0
   65.1459   28.9513   53.0164 H   0  0  0  0  0  0  0  0  0  0  0  0
   65.3738   28.0791   51.4627 H   0  0  0  0  0  0  0  0  0  0  0  0
   64.7712   29.7712   51.4627 H   0  0  0  0  0  0  0  0  0  0  0  0
   63.1636   27.5499   51.2804 H   0  0  0  0  0  0  0  0  0  0  0  0
   63.1749   27.8772   53.0847 H   0  0  0  0  0  0  0  0  0  0  0  0
   62.3740   29.6740   50.9260 H   0  0  0  0  0  0  0  0  0  0  0  0
   60.9232   28.0102   52.8475 H   0  0  0  0  0  0  0  0  0  0  0  0
   60.2284   29.6138   52.3530 H   0  0  0  0  0  0  0  0  0  0  0  0
   59.4548   27.6051   50.8036 H   0  0  0  0  0  0  0  0  0  0  0  0
   58.2832   27.2688   46.6903 H   0  0  0  0  0  0  0  0  0  0  0  0
   56.1979   33.3343   44.1529 H   0  0  0  0  0  0  0  0  0  0  0  0
   57.4808   35.3438   44.8892 H   0  0  0  0  0  0  0  0  0  0  0  0
   59.4085   35.1046   46.4496 H   0  0  0  0  0  0  0  0  0  0  0  0
   60.0702   32.8501   47.2989 H   0  0  0  0  0  0  0  0  0  0  0  0
   60.4960   30.7320   47.9550 H   0  0  0  0  0  0  0  0  0  0  0  0
   61.5521   30.9195   53.1402 H   0  0  0  0  0  0  0  0  0  0  0  0
   63.0984   30.1298   53.6844 H   0  0  0  0  0  0  0  0  0  0  0  0
   65.5214   32.8663   49.3230 H   0  0  0  0  0  0  0  0  0  0  0  0
   64.8872   34.0314   47.2111 H   0  0  0  0  0  0  0  0  0  0  0  0
   62.5669   33.8343   46.3196 H   0  0  0  0  0  0  0  0  0  0  0  0
   60.8814   32.4461   47.5190 H   0  0  0  0  0  0  0  0  0  0  0  0
   61.1688   33.3473   51.1100 H   0  0  0  0  0  0  0  0  0  0  0  0
   59.1861   34.2739   52.3098 H   0  0  0  0  0  0  0  0  0  0  0  0
   56.9941   33.0793   52.2099 H   0  0  0  0  0  0  0  0  0  0  0  0
   56.7792   30.9762   50.8831 H   0  0  0  0  0  0  0  0  0  0  0  0
   58.7593   30.0412   49.6868 H   0  0  0  0  0  0  0  0  0  0  0  0
  1  2  1  0
  2  3  1  0
  3  4  1  0
  4  5  1  0
  5  6  2  3
  6  7  1  0
  7  8  2  0
  7  9  1  0
  9 10  2  0
 10 11  1  0
 11 12  1  0
 12 13  2  0
 12 14  1  0
 14 15  1  0
 15 16  2  0
 16 17  1  0
 17 18  2  0
 18 19  1  0
 19 20  2  0
 20 21  1  0
 21 22  1  0
  3 23  1  0
 23 24  1  0
 24 25  2  0
 24 26  1  0
 26 27  1  0
 27 28  2  0
 28 29  1  0
 29 30  2  0
 30 31  1  0
 31 32  2  0
 32 33  1  0
 33 34  1  0
 34 35  2  0
 35 36  1  0
 36 37  2  0
 37 38  1  0
 38 39  2  0
 22  9  1  0
 32 27  1  0
 39 34  1  0
 21 11  2  0
 20 15  1  0
  1 40  1  0
  1 41  1  0
  1 42  1  0
  2 43  1  0
  2 44  1  0
  3 45  1  6
  4 46  1  0
  4 47  1  0
  5 48  1  0
 10 49  1  0
 16 50  1  0
 17 51  1  0
 18 52  1  0
 19 53  1  0
 22 54  1  0
 23 55  1  0
 23 56  1  0
 28 57  1  0
 29 58  1  0
 30 59  1  0
 31 60  1  0
 35 61  1  0
 36 62  1  0
 37 63  1  0
 38 64  1  0
 39 65  1  0
M  CHG  3   3   1  14  -1  26  -1
M  END
>  <UniqueID>  (46) 
42

>  <SMILES>  (46) 
CC[N@@H+](CC=NC(=O)c1cc2c(=O)[n-]c3ccccc3c2[nH]1)CC(=O)[N-]c1ccccc1Oc1ccccc1

>  <Energy>  (46) 
120.40401772663509

>  <Genealogy>  (46) 
CC[NH+](CC=NC(=O)c1cc2c(=O)[n-]c3ccccc3c2[nH]1)CC(=O)[N-]c1ccccc1Oc1ccccc1 (protonated)
CC[N@@H+](CC=NC(=O)c1cc2c(=O)[n-]c3ccccc3c2[nH]1)CC(=O)[N-]c1ccccc1Oc1ccccc1 (chirality)
CC[N@@H+](CC=NC(=O)c1cc2c(=O)[n-]c3ccccc3c2[nH]1)CC(=O)[N-]c1ccccc1Oc1ccccc1 (3D coordinates assigned)
CC[N@@H+](CC=NC(=O)c1cc2c(=O)[n-]c3ccccc3c2[nH]1)CC(=O)[N-]c1ccccc1Oc1ccccc1 (optimized conformer: 120.40401772663509 kcal/mol)

>  <smiles>  (46) 
CCN(CC=NC(=O)c1cc2c(=O)[nH]c3ccccc3c2[nH]1)CC(=O)Nc1ccccc1Oc1ccccc1

>  <score_type>  (46) 
oracle

>  <origin>  (46) 
adg

>  <m_score__min__energy>  (46) 
-10.56

>  <m_primary>  (46) 
energy

$$$$
46:0
     RDKit          3D

 72 75  0  0  0  0  0  0  0  0999 V2000
   56.6940   22.6050   43.4670 C   0  0  0  0  0  0  0  0  0  0  0  0
   57.1290   23.4070   44.7030 C   0  0  0  0  0  0  0  0  0  0  0  0
   58.5820   23.0630   45.0570 C   0  0  0  0  0  0  0  0  0  0  0  0
   56.9830   24.9300   44.4810 C   0  0  0  0  0  0  0  0  0  0  0  0
   57.1980   25.7370   45.7380 C   0  0  0  0  0  0  0  0  0  0  0  0
   56.3790   25.6370   46.6890 O   0  0  0  0  0  0  0  0  0  0  0  0
   58.3190   26.6320   45.8650 N   0  0  0  0  0  0  0  0  0  0  0  0
   59.5950   26.0800   46.3300 C   0  0  0  0  0  0  0  0  0  0  0  0
   59.8500   26.5440   47.7690 C   0  0  0  0  0  0  0  0  0  0  0  0
   59.7800   28.0770   47.8690 C   0  0  0  0  0  0  0  0  0  0  0  0
   58.4560   28.6200   47.3070 C   0  0  0  0  0  0  0  0  0  0  0  0
   58.2240   28.1090   45.8750 C   0  0  2  0  0  0  0  0  0  0  0  0
   56.9410   28.6850   45.3030 C   0  0  0  0  0  0  0  0  0  0  0  0
   55.8900   27.9980   45.2800 O   0  0  0  0  0  0  0  0  0  0  0  0
   56.8400   30.0630   44.9240 N   0  0  0  0  0  0  0  0  0  0  0  0
   56.3840   30.5640   43.6300 C   0  0  0  0  0  0  0  0  0  0  0  0
   57.3290   31.6600   43.1260 C   0  0  0  0  0  0  0  0  0  0  0  0
   57.4340   32.8130   44.1500 C   0  0  0  0  0  0  0  0  0  0  0  0
   58.7780   32.9760   44.7440 N   0  0  0  0  0  0  0  0  0  0  0  0
   59.2570   31.8160   45.5360 C   0  0  0  0  0  0  0  0  0  0  0  0
   59.3120   32.1100   47.0450 C   0  0  0  0  0  0  0  0  0  0  0  0
   60.1720   33.3690   47.3860 C   0  0  0  0  0  0  0  0  0  0  0  0
   59.5790   34.1250   48.6190 C   0  0  0  0  0  0  0  0  0  0  0  0
   60.7560   34.5060   49.5320 C   0  0  0  0  0  0  0  0  0  0  0  0
   61.8540   33.6350   49.0600 C   0  0  0  0  0  0  0  0  0  0  0  0
   63.0940   33.4600   49.6780 C   0  0  0  0  0  0  0  0  0  0  0  0
   64.0360   32.6160   49.0730 C   0  0  0  0  0  0  0  0  0  0  0  0
   63.7320   31.9740   47.8600 C   0  0  0  0  0  0  0  0  0  0  0  0
   62.4820   32.1680   47.2510 C   0  0  0  0  0  0  0  0  0  0  0  0
   61.5440   33.0010   47.8770 C   0  0  0  0  0  0  0  0  0  0  0  0
   60.2970   34.3260   46.1690 C   0  0  0  0  0  0  0  0  0  0  0  0
   59.0100   34.3110   45.3380 C   0  0  0  0  0  0  0  0  0  0  0  0
   56.1924   21.6801   43.7879 H   0  0  0  0  0  0  0  0  0  0  0  0
   55.9996   23.2085   42.8640 H   0  0  0  0  0  0  0  0  0  0  0  0
   57.5786   22.3521   42.8640 H   0  0  0  0  0  0  0  0  0  0  0  0
   56.4674   23.1293   45.5368 H   0  0  0  0  0  0  0  0  0  0  0  0
   58.6964   23.0359   46.1507 H   0  0  0  0  0  0  0  0  0  0  0  0
   58.8387   22.0793   44.6370 H   0  0  0  0  0  0  0  0  0  0  0  0
   59.2525   23.8272   44.6370 H   0  0  0  0  0  0  0  0  0  0  0  0
   57.7231   25.2466   43.7313 H   0  0  0  0  0  0  0  0  0  0  0  0
   55.9514   25.1143   44.1465 H   0  0  0  0  0  0  0  0  0  0  0  0
   59.5536   24.9812   46.2995 H   0  0  0  0  0  0  0  0  0  0  0  0
   60.4090   26.4309   45.6786 H   0  0  0  0  0  0  0  0  0  0  0  0
   59.0885   26.1043   48.4300 H   0  0  0  0  0  0  0  0  0  0  0  0
   60.8554   26.2164   48.0721 H   0  0  0  0  0  0  0  0  0  0  0  0
   59.8665   28.3703   48.9256 H   0  0  0  0  0  0  0  0  0  0  0  0
   60.6048   28.4989   47.2759 H   0  0  0  0  0  0  0  0  0  0  0  0
   57.6272   28.2859   47.9485 H   0  0  0  0  0  0  0  0  0  0  0  0
   58.5039   29.7188   47.2874 H   0  0  0  0  0  0  0  0  0  0  0  0
   59.0094   28.4659   45.1925 H   0  0  0  0  0  0  0  0  0  0  0  0
   56.3671   29.7368   42.9052 H   0  0  0  0  0  0  0  0  0  0  0  0
   55.3736   30.9841   43.7427 H   0  0  0  0  0  0  0  0  0  0  0  0
   58.3281   31.2284   42.9662 H   0  0  0  0  0  0  0  0  0  0  0  0
   56.9287   32.0627   42.1839 H   0  0  0  0  0  0  0  0  0  0  0  0
   57.1654   33.7510   43.6420 H   0  0  0  0  0  0  0  0  0  0  0  0
   56.7514   32.5649   44.9762 H   0  0  0  0  0  0  0  0  0  0  0  0
   58.5758   30.9690   45.3670 H   0  0  0  0  0  0  0  0  0  0  0  0
   60.2805   31.5870   45.2044 H   0  0  0  0  0  0  0  0  0  0  0  0
   58.2870   32.2757   47.4083 H   0  0  0  0  0  0  0  0  0  0  0  0
   59.7835   31.2447   47.5338 H   0  0  0  0  0  0  0  0  0  0  0  0
   59.0517   35.0314   48.2867 H   0  0  0  0  0  0  0  0  0  0  0  0
   58.8597   33.4893   49.1562 H   0  0  0  0  0  0  0  0  0  0  0  0
   61.0178   35.5678   49.4138 H   0  0  0  0  0  0  0  0  0  0  0  0
   60.5310   34.3714   50.6003 H   0  0  0  0  0  0  0  0  0  0  0  0
   63.3273   33.9747   50.6218 H   0  0  0  0  0  0  0  0  0  0  0  0
   65.0149   32.4559   49.5485 H   0  0  0  0  0  0  0  0  0  0  0  0
   64.4763   31.3171   47.3862 H   0  0  0  0  0  0  0  0  0  0  0  0
   62.2423   31.6742   46.2977 H   0  0  0  0  0  0  0  0  0  0  0  0
   60.4823   35.3483   46.5303 H   0  0  0  0  0  0  0  0  0  0  0  0
   61.1318   33.9892   45.5368 H   0  0  0  0  0  0  0  0  0  0  0  0
   58.1599   34.5687   45.9868 H   0  0  0  0  0  0  0  0  0  0  0  0
   59.1098   35.0442   44.5241 H   0  0  0  0  0  0  0  0  0  0  0  0
  1  2  1  0
  2  3  1  0
  2  4  1  0
  4  5  1  0
  5  6  2  0
  5  7  1  0
  7  8  1  0
  8  9  1  0
  9 10  1  0
 10 11  1  0
 11 12  1  0
 12 13  1  0
 13 14  2  0
 13 15  1  0
 15 16  1  0
 16 17  1  0
 17 18  1  0
 18 19  1  0
 19 20  1  0
 20 21  1  0
 21 22  1  0
 22 23  1  0
 23 24  1  0
 24 25  1  0
 25 26  2  0
 26 27  1  0
 27 28  2  0
 28 29  1  0
 29 30  2  0
 22 31  1  0
 31 32  1  0
 12  7  1  0
 32 19  1  0
 30 22  1  0
 30 25  1  0
  1 33  1  0
  1 34  1  0
  1 35  1  0
  2 36  1  0
  3 37  1  0
  3 38  1  0
  3 39  1  0
  4 40  1  0
  4 41  1  0
  8 42  1  0
  8 43  1  0
  9 44  1  0
  9 45  1  0
 10 46  1  0
 10 47  1  0
 11 48  1  0
 11 49  1  0
 12 50  1  6
 16 51  1  0
 16 52  1  0
 17 53  1  0
 17 54  1  0
 18 55  1  0
 18 56  1  0
 20 57  1  0
 20 58  1  0
 21 59  1  0
 21 60  1  0
 23 61  1  0
 23 62  1  0
 24 63  1  0
 24 64  1  0
 26 65  1  0
 27 66  1  0
 28 67  1  0
 29 68  1  0
 31 69  1  0
 31 70  1  0
 32 71  1  0
 32 72  1  0
M  CHG  1  15  -1
M  END
>  <UniqueID>  (47) 
43

>  <SMILES>  (47) 
CC(C)CC(=O)N1CCCC[C@@H]1C(=O)[N-]CCCN1CCC2(CCc3ccccc32)CC1

>  <Energy>  (47) 
91.45735448037341

>  <Genealogy>  (47) 
CC(C)CC(=O)N1CCCCC1C(=O)[N-]CCCN1CCC2(CCc3ccccc32)CC1 (protonated)
CC(C)CC(=O)N1CCCC[C@@H]1C(=O)[N-]CCCN1CCC2(CCc3ccccc32)CC1 (chirality)
CC(C)CC(=O)N1CCCC[C@@H]1C(=O)[N-]CCCN1CCC2(CCc3ccccc32)CC1 (3D coordinates assigned)
CC(C)CC(=O)N1CCCC[C@@H]1C(=O)[N-]CCCN1CCC2(CCc3ccccc32)CC1 (nonaromatic ring conformer: 91.45735448037341 kcal/mol)

>  <smiles>  (47) 
CC(C)CC(=O)N1CCCCC1C(=O)NCCCN1CCC2(CCc3ccccc32)CC1

>  <score_type>  (47) 
oracle

>  <origin>  (47) 
adg

>  <m_score__min__energy>  (47) 
-12.49

>  <m_primary>  (47) 
energy

$$$$
47:0
     RDKit          3D

 50 53  0  0  0  0  0  0  0  0999 V2000
   58.7990   28.6380   47.1080 C   0  0  0  0  0  0  0  0  0  0  0  0
   58.3380   29.2060   45.9820 C   0  0  0  0  0  0  0  0  0  0  0  0
   57.6370   28.5780   44.9400 C   0  0  0  0  0  0  0  0  0  0  0  0
   57.4100   27.2740   44.6860 C   0  0  0  0  0  0  0  0  0  0  0  0
   57.2700   26.2140   45.7050 C   0  0  0  0  0  0  0  0  0  0  0  0
   56.0400   25.9730   46.3430 C   0  0  0  0  0  0  0  0  0  0  0  0
   54.9070   26.7060   46.0070 O   0  0  0  0  0  0  0  0  0  0  0  0
   55.9520   25.0150   47.3030 N   0  0  0  0  0  0  0  0  0  0  0  0
   57.0410   24.2950   47.6760 C   0  0  0  0  0  0  0  0  0  0  0  0
   56.9340   23.4120   48.5640 O   0  0  0  0  0  0  0  0  0  0  0  0
   58.2440   24.5310   47.0950 N   0  0  0  0  0  0  0  0  0  0  0  0
   58.3850   25.4750   46.1290 C   0  0  0  0  0  0  0  0  0  0  0  0
   59.5190   25.6730   45.6150 O   0  0  0  0  0  0  0  0  0  0  0  0
   57.1880   29.5920   44.1080 C   0  0  0  0  0  0  0  0  0  0  0  0
   57.6760   30.7760   44.6200 C   0  0  0  0  0  0  0  0  0  0  0  0
   57.4600   32.1220   43.9990 C   0  0  0  0  0  0  0  0  0  0  0  0
   58.3720   30.5460   45.7550 N   0  0  0  0  0  0  0  0  0  0  0  0
   59.0550   31.5400   46.5420 C   0  0  0  0  0  0  0  0  0  0  0  0
   58.3420   32.5820   47.1500 C   0  0  0  0  0  0  0  0  0  0  0  0
   59.0140   33.5420   47.9100 C   0  0  0  0  0  0  0  0  0  0  0  0
   60.3990   33.4620   48.0810 C   0  0  0  0  0  0  0  0  0  0  0  0
   61.1260   32.4130   47.4910 C   0  0  0  0  0  0  0  0  0  0  0  0
   62.5920   32.3130   47.6790 C   0  0  0  0  0  0  0  0  0  0  0  0
   63.2990   31.7610   46.7920 O   0  0  0  0  0  0  0  0  0  0  0  0
   63.2180   32.8150   48.8720 N   0  0  0  0  0  0  0  0  0  0  0  0
   63.0380   34.2140   49.2650 C   0  0  0  0  0  0  0  0  0  0  0  0
   63.1670   34.3340   50.7860 C   0  0  0  0  0  0  0  0  0  0  0  0
   64.3820   33.7600   51.2310 O   0  0  0  0  0  0  0  0  0  0  0  0
   64.3790   32.3670   50.9760 C   0  0  0  0  0  0  0  0  0  0  0  0
   64.3370   32.0850   49.4700 C   0  0  0  0  0  0  0  0  0  0  0  0
   60.4460   31.4680   46.7050 C   0  0  0  0  0  0  0  0  0  0  0  0
   59.3367   29.2460   47.8505 H   0  0  0  0  0  0  0  0  0  0  0  0
   58.6390   27.5647   47.2880 H   0  0  0  0  0  0  0  0  0  0  0  0
   57.3216   26.9740   43.6314 H   0  0  0  0  0  0  0  0  0  0  0  0
   56.5622   29.4747   43.2110 H   0  0  0  0  0  0  0  0  0  0  0  0
   57.3390   32.8760   44.7908 H   0  0  0  0  0  0  0  0  0  0  0  0
   58.3280   32.3815   43.3751 H   0  0  0  0  0  0  0  0  0  0  0  0
   56.5544   32.0969   43.3751 H   0  0  0  0  0  0  0  0  0  0  0  0
   57.2505   32.6440   47.0284 H   0  0  0  0  0  0  0  0  0  0  0  0
   58.4511   34.3643   48.3758 H   0  0  0  0  0  0  0  0  0  0  0  0
   60.9221   34.2225   48.6793 H   0  0  0  0  0  0  0  0  0  0  0  0
   63.8076   34.8333   48.7811 H   0  0  0  0  0  0  0  0  0  0  0  0
   62.0416   34.5590   48.9517 H   0  0  0  0  0  0  0  0  0  0  0  0
   63.1452   35.3971   51.0677 H   0  0  0  0  0  0  0  0  0  0  0  0
   62.3292   33.7979   51.2558 H   0  0  0  0  0  0  0  0  0  0  0  0
   65.2909   31.9216   51.4002 H   0  0  0  0  0  0  0  0  0  0  0  0
   63.4839   31.9274   51.4402 H   0  0  0  0  0  0  0  0  0  0  0  0
   65.2794   32.4144   49.0081 H   0  0  0  0  0  0  0  0  0  0  0  0
   64.2055   31.0061   49.3007 H   0  0  0  0  0  0  0  0  0  0  0  0
   61.0106   30.6629   46.2121 H   0  0  0  0  0  0  0  0  0  0  0  0
  1  2  2  0
  2  3  1  0
  3  4  2  3
  4  5  1  0
  5  6  2  0
  6  7  1  0
  6  8  1  0
  8  9  1  0
  9 10  2  0
  9 11  1  0
 11 12  1  0
 12 13  2  0
  3 14  1  0
 14 15  2  0
 15 16  1  0
 15 17  1  0
 17 18  1  0
 18 19  2  0
 19 20  1  0
 20 21  2  0
 21 22  1  0
 22 23  1  0
 23 24  2  0
 23 25  1  0
 25 26  1  0
 26 27  1  0
 27 28  1  0
 28 29  1  0
 29 30  1  0
 22 31  2  0
 17  2  1  0
 31 18  1  0
 12  5  1  0
 30 25  1  0
  1 32  1  0
  1 33  1  0
  4 34  1  0
 14 35  1  0
 16 36  1  0
 16 37  1  0
 16 38  1  0
 19 39  1  0
 20 40  1  0
 21 41  1  0
 26 42  1  0
 26 43  1  0
 27 44  1  0
 27 45  1  0
 29 46  1  0
 29 47  1  0
 30 48  1  0
 30 49  1  0
 31 50  1  0
M  CHG  3   7  -1   8  -1  11  -1
M  END
>  <UniqueID>  (48) 
44

>  <SMILES>  (48) 
C=c1c(=Cc2c([O-])[n-]c(=O)[n-]c2=O)cc(C)n1-c1cccc(C(=O)N2CCOCC2)c1

>  <Energy>  (48) 
106.73283433654319

>  <Genealogy>  (48) 
C=c1c(=Cc2c([O-])[n-]c(=O)[n-]c2=O)cc(C)n1-c1cccc(C(=O)N2CCOCC2)c1 (protonated)
C=c1c(=Cc2c([O-])[n-]c(=O)[n-]c2=O)cc(C)n1-c1cccc(C(=O)N2CCOCC2)c1 (3D coordinates assigned)
C=c1c(=Cc2c([O-])[n-]c(=O)[n-]c2=O)cc(C)n1-c1cccc(C(=O)N2CCOCC2)c1 (nonaromatic ring conformer: 106.73283433654319 kcal/mol)

>  <smiles>  (48) 
C=c1c(=Cc2c(O)[nH]c(=O)[nH]c2=O)cc(C)n1-c1cccc(C(=O)N2CCOCC2)c1

>  <score_type>  (48) 
oracle

>  <origin>  (48) 
adg

>  <m_score__min__energy>  (48) 
-17.149999999999999

>  <m_primary>  (48) 
energy

$$$$
48:0
     RDKit          3D

 71 75  0  0  1  0  0  0  0  0999 V2000
   58.2080   32.6620   49.5410 O   0  0  0  0  0  0  0  0  0  0  0  0
   58.7830   31.9750   50.4250 C   0  0  0  0  0  0  0  0  0  0  0  0
   58.4450   32.0860   51.8730 C   0  0  0  0  0  0  0  0  0  0  0  0
   57.5070   30.9990   52.1870 C   0  0  0  0  0  0  0  0  0  0  0  0
   57.6800   29.7010   52.5630 C   0  0  0  0  0  0  0  0  0  0  0  0
   56.4770   29.1050   52.7360 N   0  0  0  0  0  0  0  0  0  0  0  0
   55.4830   30.0020   52.4750 C   0  0  0  0  0  0  0  0  0  0  0  0
   54.0890   29.6600   52.5980 C   0  0  0  0  0  0  0  0  0  0  0  0
   53.8240   28.4340   52.8670 O   0  0  0  0  0  0  0  0  0  0  0  0
   52.9520   30.5310   52.4550 C   0  0  0  0  0  0  0  0  0  0  0  0
   52.5640   31.1740   51.3050 C   0  0  0  0  0  0  0  0  0  0  0  0
   51.4740   32.0190   51.2370 C   0  0  0  0  0  0  0  0  0  0  0  0
   50.6950   32.2720   52.3410 C   0  0  0  0  0  0  0  0  0  0  0  0
   51.0640   31.6330   53.5180 C   0  0  0  0  0  0  0  0  0  0  0  0
   52.1520   30.7920   53.5810 C   0  0  0  0  0  0  0  0  0  0  0  0
   56.1190   31.1710   52.1360 C   0  0  0  0  0  0  0  0  0  0  0  0
   56.9880   32.3220   44.9630 N   0  0  0  0  0  0  0  0  0  0  0  0
   57.0150   31.1300   44.7440 C   0  0  0  0  0  0  0  0  0  0  0  0
   60.2260   28.9320   49.4280 C   0  0  0  0  0  0  0  0  0  0  0  0
   60.0760   27.9620   48.4860 C   0  0  0  0  0  0  0  0  0  0  0  0
   59.3710   28.1790   47.2810 C   0  0  0  0  0  0  0  0  0  0  0  0
   59.3060   27.0430   46.3770 C   0  0  0  0  0  0  0  0  0  0  0  0
   57.9220   26.6380   46.0060 C   0  0  0  0  0  0  0  0  0  0  0  0
   57.8290   26.2590   44.5670 C   0  0  0  0  0  0  0  0  0  0  0  0
   58.1880   27.3780   43.6630 C   0  0  0  0  0  0  0  0  0  0  0  0
   57.5390   28.6100   44.1120 C   0  0  0  0  0  0  0  0  0  0  0  0
   58.8640   29.3980   47.1310 N   0  0  0  0  0  0  0  0  0  0  0  0
   58.9800   30.3860   48.0220 N   0  0  0  0  0  0  0  0  0  0  0  0
   59.6430   30.1730   49.1470 C   0  0  0  0  0  0  0  0  0  0  0  0
   59.7800   31.0780   50.0150 N   0  0  0  0  0  0  0  0  0  0  0  0
   57.7240   33.0680   45.8600 C   0  0  0  0  0  0  0  0  0  0  0  0
   57.4130   32.8530   47.1080 O   0  0  0  0  0  0  0  0  0  0  0  0
   58.7880   34.0530   45.6890 C   0  0  0  0  0  0  0  0  0  0  0  0
   59.8630   33.7830   46.7480 C   0  0  0  0  0  0  0  0  0  0  0  0
   60.7270   32.7460   46.4590 C   0  0  0  0  0  0  0  0  0  0  0  0
   61.7040   32.4520   47.3680 C   0  0  0  0  0  0  0  0  0  0  0  0
   61.7990   33.1910   48.5380 C   0  0  0  0  0  0  0  0  0  0  0  0
   60.9180   34.2280   48.8020 C   0  0  0  0  0  0  0  0  0  0  0  0
   59.9250   34.5370   47.8910 C   0  0  0  0  0  0  0  0  0  0  0  0
   58.4400   30.2020   44.1280 S   0  0  0  0  0  0  0  0  0  0  0  0
   56.3770   28.9970   44.5480 N   0  0  0  0  0  0  0  0  0  0  0  0
   56.1010   30.1960   44.8560 N   0  0  0  0  0  0  0  0  0  0  0  0
   59.3560   31.9846   52.4811 H   0  0  0  0  0  0  0  0  0  0  0  0
   57.9949   33.0650   52.0941 H   0  0  0  0  0  0  0  0  0  0  0  0
   58.6539   29.2097   52.7051 H   0  0  0  0  0  0  0  0  0  0  0  0
   56.4080   28.1090   53.0240 H   0  0  0  0  0  0  0  0  0  0  0  0
   53.1522   31.0071   50.3906 H   0  0  0  0  0  0  0  0  0  0  0  0
   51.2239   32.4996   50.2797 H   0  0  0  0  0  0  0  0  0  0  0  0
   49.8258   32.9446   52.2949 H   0  0  0  0  0  0  0  0  0  0  0  0
   50.4688   31.8042   54.4271 H   0  0  0  0  0  0  0  0  0  0  0  0
   52.4021   30.3113   54.5383 H   0  0  0  0  0  0  0  0  0  0  0  0
   55.6107   32.1077   51.8636 H   0  0  0  0  0  0  0  0  0  0  0  0
   60.7771   28.7503   50.3625 H   0  0  0  0  0  0  0  0  0  0  0  0
   60.5199   26.9724   48.6692 H   0  0  0  0  0  0  0  0  0  0  0  0
   59.8481   27.3034   45.4559 H   0  0  0  0  0  0  0  0  0  0  0  0
   59.7539   26.1900   46.9078 H   0  0  0  0  0  0  0  0  0  0  0  0
   57.6247   25.7766   46.6221 H   0  0  0  0  0  0  0  0  0  0  0  0
   57.2541   27.4944   46.1804 H   0  0  0  0  0  0  0  0  0  0  0  0
   58.5135   25.4189   44.3781 H   0  0  0  0  0  0  0  0  0  0  0  0
   56.7846   25.9827   44.3600 H   0  0  0  0  0  0  0  0  0  0  0  0
   59.2791   27.5171   43.6706 H   0  0  0  0  0  0  0  0  0  0  0  0
   57.8498   27.1419   42.6432 H   0  0  0  0  0  0  0  0  0  0  0  0
   58.5680   31.3350   47.8720 H   0  0  0  0  0  0  0  0  0  0  0  0
   59.2239   33.9600   44.6833 H   0  0  0  0  0  0  0  0  0  0  0  0
   58.3868   35.0707   45.8046 H   0  0  0  0  0  0  0  0  0  0  0  0
   60.6319   32.1733   45.5247 H   0  0  0  0  0  0  0  0  0  0  0  0
   62.4119   31.6330   47.1728 H   0  0  0  0  0  0  0  0  0  0  0  0
   62.5860   32.9503   49.2679 H   0  0  0  0  0  0  0  0  0  0  0  0
   61.0087   34.8041   49.7347 H   0  0  0  0  0  0  0  0  0  0  0  0
   59.2133   35.3551   48.0760 H   0  0  0  0  0  0  0  0  0  0  0  0
   55.1130   30.4680   45.2170 H   0  0  0  0  0  0  0  0  0  0  0  0
  1  2  2  0
  2  3  1  0
  3  4  1  0
  4  5  2  0
  5  6  1  0
  6  7  1  0
  7  8  1  0
  8  9  2  0
  8 10  1  0
 10 11  2  0
 11 12  1  0
 12 13  2  0
 13 14  1  0
 14 15  2  0
  7 16  2  0
  2 17  1  0
 17 18  2  0
 18 19  1  0
 19 20  2  0
 20 21  1  0
 21 22  1  0
 22 23  1  0
 23 24  1  0
 24 25  1  0
 25 26  1  0
 26 27  2  0
 27 28  1  0
 28 29  1  0
 29 30  2  0
 30 31  1  0
 31 32  2  0
 31 33  1  0
 33 34  1  0
 34 35  2  0
 35 36  1  0
 36 37  2  0
 37 38  1  0
 38 39  2  0
 29 40  1  0
 21 41  2  0
 41 42  1  0
 16  4  1  0
 42 18  1  0
 15 10  1  0
 40 26  1  0
 39 34  1  0
  3 43  1  0
  3 44  1  0
  5 45  1  0
  6 46  1  0
 11 47  1  0
 12 48  1  0
 13 49  1  0
 14 50  1  0
 15 51  1  0
 16 52  1  0
 19 53  1  0
 20 54  1  0
 22 55  1  0
 22 56  1  0
 23 57  1  0
 23 58  1  0
 24 59  1  0
 24 60  1  0
 25 61  1  0
 25 62  1  0
 28 63  1  0
 33 64  1  0
 33 65  1  0
 35 66  1  0
 36 67  1  0
 37 68  1  0
 38 69  1  0
 39 70  1  0
 42 71  1  0
M  END
>  <smiles>  (49) 
O=C(Cc1c[nH]c(C(=O)c2ccccc2)c1)N=c1ccc(CCCCc2n[nH]c(=NC(=O)Cc3ccccc3)s2)n[nH]1

>  <score_type>  (49) 
oracle

>  <origin>  (49) 
adg

>  <m_score__min__energy>  (49) 
-10.82

>  <m_primary>  (49) 
energy

$$$$
49:0
     RDKit          3D

 40 42  0  0  0  0  0  0  0  0999 V2000
   60.5396   28.6161   48.0879 H   0  0  0  0  0  0  0  0  0  0  0  0
   60.0600   28.7570   47.1080 C   0  0  0  0  0  0  0  0  0  0  0  0
   58.4910   28.3090   46.7070 S   0  0  0  0  0  0  0  0  0  0  0  0
   58.5450   28.8520   45.1150 C   0  0  0  0  0  0  0  0  0  0  0  0
   57.4160   28.7660   44.1280 C   0  0  0  0  0  0  0  0  0  0  0  0
   56.9845   27.7547   44.1617 H   0  0  0  0  0  0  0  0  0  0  0  0
   57.8099   28.9827   43.1240 H   0  0  0  0  0  0  0  0  0  0  0  0
   56.3400   29.7730   44.4510 C   0  0  0  0  0  0  0  0  0  0  0  0
   55.2360   29.3540   44.8830 O   0  0  0  0  0  0  0  0  0  0  0  0
   56.5550   31.1930   44.3730 N   0  0  0  0  0  0  0  0  0  0  0  0
   57.3070   31.9150   45.1490 C   0  0  0  0  0  0  0  0  0  0  0  0
   57.7990   31.5030   46.3380 N   0  0  0  0  0  0  0  0  0  0  0  0
   58.5220   32.4350   46.9510 N   0  0  0  0  0  0  0  0  0  0  0  0
   58.6200   33.5830   46.2440 C   0  0  0  0  0  0  0  0  0  0  0  0
   59.2660   34.8240   46.7700 C   0  0  0  0  0  0  0  0  0  0  0  0
   58.8543   35.0560   47.7633 H   0  0  0  0  0  0  0  0  0  0  0  0
   59.0652   35.6561   46.0791 H   0  0  0  0  0  0  0  0  0  0  0  0
   60.6780   34.6330   46.8760 O   0  0  0  0  0  0  0  0  0  0  0  0
   61.3120   33.7500   47.7660 C   0  0  0  0  0  0  0  0  0  0  0  0
   60.6710   33.2610   48.9220 C   0  0  0  0  0  0  0  0  0  0  0  0
   59.6322   33.5533   49.1352 H   0  0  0  0  0  0  0  0  0  0  0  0
   61.3450   32.4080   49.7990 C   0  0  0  0  0  0  0  0  0  0  0  0
   60.8336   32.0303   50.6967 H   0  0  0  0  0  0  0  0  0  0  0  0
   62.6670   32.0320   49.5410 C   0  0  0  0  0  0  0  0  0  0  0  0
   63.3730   31.0960   50.4820 C   0  0  0  0  0  0  0  0  0  0  0  0
   63.1543   31.3860   51.5203 H   0  0  0  0  0  0  0  0  0  0  0  0
   63.0236   30.0677   50.3071 H   0  0  0  0  0  0  0  0  0  0  0  0
   64.4577   31.1494   50.3071 H   0  0  0  0  0  0  0  0  0  0  0  0
   63.3070   32.5020   48.3850 C   0  0  0  0  0  0  0  0  0  0  0  0
   64.3459   32.2055   48.1782 H   0  0  0  0  0  0  0  0  0  0  0  0
   62.6330   33.3480   47.4890 C   0  0  0  0  0  0  0  0  0  0  0  0
   63.3470   33.8770   46.2760 C   0  0  0  0  0  0  0  0  0  0  0  0
   64.1933   34.5040   46.5931 H   0  0  0  0  0  0  0  0  0  0  0  0
   63.7197   33.0353   45.6738 H   0  0  0  0  0  0  0  0  0  0  0  0
   62.6503   34.4786   45.6738 H   0  0  0  0  0  0  0  0  0  0  0  0
   57.7820   33.4840   44.7850 S   0  0  0  0  0  0  0  0  0  0  0  0
   59.8060   29.3850   44.8730 C   0  0  0  0  0  0  0  0  0  0  0  0
   60.1110   29.8028   43.9022 H   0  0  0  0  0  0  0  0  0  0  0  0
   60.6480   29.3360   45.9900 C   0  0  0  0  0  0  0  0  0  0  0  0
   61.6788   29.7199   45.9834 H   0  0  0  0  0  0  0  0  0  0  0  0
  1  2  1  0
  2  3  1  0
  3  4  1  0
  4  5  1  0
  5  6  1  0
  5  7  1  0
  5  8  1  0
  8  9  2  0
  8 10  1  0
 10 11  2  0
 11 12  1  0
 12 13  1  0
 13 14  2  0
 14 15  1  0
 15 16  1  0
 15 17  1  0
 15 18  1  0
 18 19  1  0
 19 20  2  0
 20 21  1  0
 20 22  1  0
 22 23  1  0
 22 24  2  0
 24 25  1  0
 25 26  1  0
 25 27  1  0
 25 28  1  0
 24 29  1  0
 29 30  1  0
 29 31  2  0
 31 32  1  0
 32 33  1  0
 32 34  1  0
 32 35  1  0
 14 36  1  0
  4 37  2  0
 37 38  1  0
 37 39  1  0
 39 40  1  0
 39  2  2  0
 36 11  1  0
 31 19  1  0
M  CHG  1  12  -1
M  END
>  <UniqueID>  (50) 
45

>  <SMILES>  (50) 
Cc1ccc(OCc2n[n-]/c(=N\C(=O)Cc3cccs3)s2)c(C)c1

>  <Energy>  (50) 
100.87157722568733

>  <Genealogy>  (50) 
Cc1ccc(OCc2n[n-]c(=NC(=O)Cc3cccs3)s2)c(C)c1 (protonated)
Cc1ccc(OCc2n[n-]/c(=N\C(=O)Cc3cccs3)s2)c(C)c1 (cis-trans isomerization)
Cc1ccc(OCc2n[n-]/c(=N\C(=O)Cc3cccs3)s2)c(C)c1 (3D coordinates assigned)
Cc1ccc(OCc2n[n-]/c(=N\C(=O)Cc3cccs3)s2)c(C)c1 (optimized conformer: 100.87157722568733 kcal/mol)

>  <smiles>  (50) 
Cc1ccc(OCc2n[nH]c(=NC(=O)Cc3cccs3)s2)c(C)c1

>  <score_type>  (50) 
oracle

>  <origin>  (50) 
adg

>  <m_score__min__energy>  (50) 
-10.609999999999999

>  <m_primary>  (50) 
energy

$$$$
50:0
     RDKit          3D

 32 34  0  0  0  0  0  0  0  0999 V2000
   55.1790   29.0480   44.7510 N   0  0  0  0  0  0  0  0  0  0  0  0
   56.5370   28.9460   45.1780 C   0  0  0  0  0  0  0  0  0  0  0  0
   57.2500   29.9840   45.1780 O   0  0  0  0  0  0  0  0  0  0  0  0
   57.1160   27.6430   45.6090 C   0  0  0  0  0  0  0  0  0  0  0  0
   58.5120   27.4800   45.5970 C   0  0  0  0  0  0  0  0  0  0  0  0
   59.0930   26.2790   45.9990 C   0  0  0  0  0  0  0  0  0  0  0  0
   58.2950   25.2170   46.4120 C   0  0  0  0  0  0  0  0  0  0  0  0
   56.8930   25.3340   46.4210 C   0  0  0  0  0  0  0  0  0  0  0  0
   56.0250   24.1880   46.9260 C   0  0  2  0  0  0  0  0  0  0  0  0
   56.8160   22.8680   46.9260 C   0  0  0  0  0  0  0  0  0  0  0  0
   56.9720   22.3760   45.5670 N   0  0  0  0  0  0  0  0  0  0  0  0
   58.2010   22.1470   44.8370 C   0  0  0  0  0  0  0  0  0  0  0  0
   57.7060   21.8240   43.4140 C   0  0  0  0  0  0  0  0  0  0  0  0
   56.2530   21.9780   43.4660 N   0  0  0  0  0  0  0  0  0  0  0  0
   55.9030   22.2810   44.6670 C   0  0  0  0  0  0  0  0  0  0  0  0
   54.5050   22.5530   45.0950 C   0  0  0  0  0  0  0  0  0  0  0  0
   54.3950   24.1290   46.0340 S   0  0  0  0  0  0  0  0  0  0  0  0
   56.3060   26.5620   46.0390 C   0  0  0  0  0  0  0  0  0  0  0  0
   54.9230   26.7050   46.1040 O   0  0  0  0  0  0  0  0  0  0  0  0
   54.4340   29.3810   45.4040 H   0  0  0  0  0  0  0  0  0  0  0  0
   59.1534   28.3103   45.2664 H   0  0  0  0  0  0  0  0  0  0  0  0
   60.1876   26.1702   45.9897 H   0  0  0  0  0  0  0  0  0  0  0  0
   58.7649   24.2763   46.7348 H   0  0  0  0  0  0  0  0  0  0  0  0
   55.7568   24.3662   47.9778 H   0  0  0  0  0  0  0  0  0  0  0  0
   57.8092   23.0396   47.3665 H   0  0  0  0  0  0  0  0  0  0  0  0
   56.2668   22.1206   47.5174 H   0  0  0  0  0  0  0  0  0  0  0  0
   58.8356   23.0455   44.8401 H   0  0  0  0  0  0  0  0  0  0  0  0
   58.8201   21.3483   45.2716 H   0  0  0  0  0  0  0  0  0  0  0  0
   58.1418   22.5244   42.6863 H   0  0  0  0  0  0  0  0  0  0  0  0
   57.9998   20.8123   43.0977 H   0  0  0  0  0  0  0  0  0  0  0  0
   53.8632   22.6201   44.2042 H   0  0  0  0  0  0  0  0  0  0  0  0
   54.1741   21.7329   45.7491 H   0  0  0  0  0  0  0  0  0  0  0  0
  1  2  1  0
  2  3  2  0
  2  4  1  0
  4  5  2  0
  5  6  1  0
  6  7  2  0
  7  8  1  0
  8  9  1  0
  9 10  1  0
 10 11  1  0
 11 12  1  0
 12 13  1  0
 13 14  1  0
 14 15  2  0
 15 16  1  0
 16 17  1  0
  8 18  2  0
 18 19  1  0
 18  4  1  0
 17  9  1  0
 15 11  1  0
  1 20  1  0
  5 21  1  0
  6 22  1  0
  7 23  1  0
  9 24  1  1
 10 25  1  0
 10 26  1  0
 12 27  1  0
 12 28  1  0
 13 29  1  0
 13 30  1  0
 16 31  1  0
 16 32  1  0
M  CHG  2   1  -1  19  -1
M  END
>  <UniqueID>  (51) 
46

>  <SMILES>  (51) 
[NH-]C(=O)c1cccc([C@@H]2CN3CCN=C3CS2)c1[O-]

>  <Energy>  (51) 
51.902953531899406

>  <Genealogy>  (51) 
[NH-]C(=O)c1cccc(C2CN3CCN=C3CS2)c1[O-] (protonated)
[NH-]C(=O)c1cccc([C@@H]2CN3CCN=C3CS2)c1[O-] (chirality)
[NH-]C(=O)c1cccc([C@@H]2CN3CCN=C3CS2)c1[O-] (3D coordinates assigned)
[NH-]C(=O)c1cccc([C@@H]2CN3CCN=C3CS2)c1[O-] (nonaromatic ring conformer: 51.902953531899406 kcal/mol)

>  <smiles>  (51) 
NC(=O)c1cccc(C2CN3CCN=C3CS2)c1O

>  <score_type>  (51) 
oracle

>  <origin>  (51) 
adg

>  <m_score__min__energy>  (51) 
-13.800000000000001

>  <m_primary>  (51) 
energy

$$$$
51:0
     RDKit          3D

 41 42  0  0  0  0  0  0  0  0999 V2000
   55.7710   24.5850   47.0440 H   0  0  0  0  0  0  0  0  0  0  0  0
   56.7560   24.7960   47.1630 O   0  0  0  0  0  0  0  0  0  0  0  0
   57.3000   26.0000   46.7190 C   0  0  0  0  0  0  0  0  0  0  0  0
   58.6690   26.2590   46.8670 C   0  0  0  0  0  0  0  0  0  0  0  0
   59.3199   25.5118   47.3445 H   0  0  0  0  0  0  0  0  0  0  0  0
   59.2110   27.4660   46.4090 C   0  0  0  0  0  0  0  0  0  0  0  0
   60.2846   27.6660   46.5405 H   0  0  0  0  0  0  0  0  0  0  0  0
   58.3960   28.4240   45.7830 C   0  0  0  0  0  0  0  0  0  0  0  0
   59.0130   29.6940   45.3300 C   0  0  0  0  0  0  0  0  0  0  0  0
   59.9922   29.9743   45.7454 H   0  0  0  0  0  0  0  0  0  0  0  0
   58.4410   30.5190   44.4410 C   0  0  0  0  0  0  0  0  0  0  0  0
   58.9368   30.6735   43.4713 H   0  0  0  0  0  0  0  0  0  0  0  0
   57.1740   31.2290   44.7080 C   0  0  0  0  0  0  0  0  0  0  0  0
   56.1070   30.5600   44.6520 O   0  0  0  0  0  0  0  0  0  0  0  0
   57.0640   32.7330   44.8230 C   0  0  0  0  0  0  0  0  0  0  0  0
   56.1791   32.9664   45.4333 H   0  0  0  0  0  0  0  0  0  0  0  0
   56.9943   33.1195   43.7955 H   0  0  0  0  0  0  0  0  0  0  0  0
   58.2580   33.4040   45.4510 C   0  0  0  0  0  0  0  0  0  0  0  0
   59.2750   33.5850   44.7240 O   0  0  0  0  0  0  0  0  0  0  0  0
   58.3240   33.9030   46.8480 C   0  0  0  0  0  0  0  0  0  0  0  0
   57.5050   34.5694   47.1565 H   0  0  0  0  0  0  0  0  0  0  0  0
   59.2540   33.6470   47.7860 C   0  0  0  0  0  0  0  0  0  0  0  0
   58.9911   33.8894   48.8263 H   0  0  0  0  0  0  0  0  0  0  0  0
   60.5910   33.0730   47.5530 C   0  0  0  0  0  0  0  0  0  0  0  0
   61.6020   33.9100   47.0540 C   0  0  0  0  0  0  0  0  0  0  0  0
   61.3689   34.9529   46.7930 H   0  0  0  0  0  0  0  0  0  0  0  0
   62.9010   33.4270   46.8870 C   0  0  0  0  0  0  0  0  0  0  0  0
   63.6836   34.0848   46.4810 H   0  0  0  0  0  0  0  0  0  0  0  0
   63.2080   32.1120   47.2340 C   0  0  0  0  0  0  0  0  0  0  0  0
   64.2294   31.7305   47.0881 H   0  0  0  0  0  0  0  0  0  0  0  0
   62.2230   31.2780   47.7660 C   0  0  0  0  0  0  0  0  0  0  0  0
   62.4785   30.2463   48.0494 H   0  0  0  0  0  0  0  0  0  0  0  0
   60.9040   31.7440   47.9440 C   0  0  0  0  0  0  0  0  0  0  0  0
   59.8510   30.8430   48.5620 C   0  0  0  0  0  0  0  0  0  0  0  0
   59.6270   31.2140   49.8760 F   0  0  0  0  0  0  0  0  0  0  0  0
   58.6470   30.9140   47.8810 F   0  0  0  0  0  0  0  0  0  0  0  0
   60.2890   29.5320   48.5300 F   0  0  0  0  0  0  0  0  0  0  0  0
   57.0160   28.1660   45.6540 C   0  0  0  0  0  0  0  0  0  0  0  0
   56.3606   28.9159   45.1870 H   0  0  0  0  0  0  0  0  0  0  0  0
   56.4740   26.9580   46.1180 C   0  0  0  0  0  0  0  0  0  0  0  0
   55.1110   26.7180   45.9830 O   0  0  0  0  0  0  0  0  0  0  0  0
  1  2  1  0
  2  3  1  0
  3  4  2  0
  4  5  1  0
  4  6  1  0
  6  7  1  0
  6  8  2  0
  8  9  1  0
  9 10  1  0
  9 11  2  0
 11 12  1  0
 11 13  1  0
 13 14  2  0
 13 15  1  0
 15 16  1  0
 15 17  1  0
 15 18  1  0
 18 19  2  0
 18 20  1  0
 20 21  1  0
 20 22  2  3
 22 23  1  0
 22 24  1  0
 24 25  2  0
 25 26  1  0
 25 27  1  0
 27 28  1  0
 27 29  2  0
 29 30  1  0
 29 31  1  0
 31 32  1  0
 31 33  2  0
 33 34  1  0
 34 35  1  0
 34 36  1  0
 34 37  1  0
  8 38  1  0
 38 39  1  0
 38 40  2  0
 40 41  1  0
 40  3  1  0
 33 24  1  0
M  CHG  1  41  -1
M  END
>  <UniqueID>  (52) 
47

>  <SMILES>  (52) 
O=C(C=Cc1ccccc1C(F)(F)F)CC(=O)/C=C/c1ccc(O)c([O-])c1

>  <Energy>  (52) 
62.377581231636725

>  <Genealogy>  (52) 
O=C(C=Cc1ccc(O)c([O-])c1)CC(=O)C=Cc1ccccc1C(F)(F)F (protonated)
O=C(C=Cc1ccccc1C(F)(F)F)CC(=O)/C=C/c1ccc(O)c([O-])c1 (cis-trans isomerization)
O=C(C=Cc1ccccc1C(F)(F)F)CC(=O)/C=C/c1ccc(O)c([O-])c1 (3D coordinates assigned)
O=C(C=Cc1ccccc1C(F)(F)F)CC(=O)/C=C/c1ccc(O)c([O-])c1 (optimized conformer: 62.377581231636725 kcal/mol)

>  <smiles>  (52) 
O=C(C=Cc1ccc(O)c(O)c1)CC(=O)C=Cc1ccccc1C(F)(F)F

>  <score_type>  (52) 
oracle

>  <origin>  (52) 
adg

>  <m_score__min__energy>  (52) 
-12.41

>  <m_primary>  (52) 
energy

$$$$
52:0
     RDKit          3D

 45 47  0  0  0  0  0  0  0  0999 V2000
   56.2370   29.7440   45.2090 O   0  0  0  0  0  0  0  0  0  0  0  0
   57.3780   29.3000   44.9120 C   0  0  0  0  0  0  0  0  0  0  0  0
   57.5000   28.4290   43.7800 N   0  0  0  0  0  0  0  0  0  0  0  0
   58.0330   27.0670   43.7840 C   0  0  0  0  0  0  0  0  0  0  0  0
   58.5830   26.6950   45.1640 C   0  0  0  0  0  0  0  0  0  0  0  0
   57.6570   25.7900   45.9210 C   0  0  0  0  0  0  0  0  0  0  0  0
   58.0460   24.6580   46.5360 N   0  0  0  0  0  0  0  0  0  0  0  0
   56.9000   24.1860   47.0720 C   0  0  0  0  0  0  0  0  0  0  0  0
   56.8530   23.1190   47.7400 O   0  0  0  0  0  0  0  0  0  0  0  0
   55.8080   24.9450   46.8370 N   0  0  0  0  0  0  0  0  0  0  0  0
   56.3040   25.9580   46.1070 C   0  0  0  0  0  0  0  0  0  0  0  0
   55.5420   27.0160   45.6250 O   0  0  0  0  0  0  0  0  0  0  0  0
   58.5340   29.6910   45.7440 C   0  0  0  0  0  0  0  0  0  0  0  0
   59.8430   29.5980   45.2440 C   0  0  0  0  0  0  0  0  0  0  0  0
   60.9310   29.9420   46.0520 C   0  0  0  0  0  0  0  0  0  0  0  0
   60.7240   30.3630   47.3690 C   0  0  0  0  0  0  0  0  0  0  0  0
   59.4240   30.4350   47.8850 C   0  0  0  0  0  0  0  0  0  0  0  0
   59.1430   30.9350   49.5510 S   0  0  0  0  0  0  0  0  0  0  0  0
   60.4350   30.8370   50.3100 O   0  0  0  0  0  0  0  0  0  0  0  0
   58.1340   30.0360   50.2070 O   0  0  0  0  0  0  0  0  0  0  0  0
   58.5780   32.5820   49.6020 N   0  0  0  0  0  0  0  0  0  0  0  0
   59.4810   33.4760   48.8740 C   0  0  0  0  0  0  0  0  0  0  0  0
   58.9790   33.7200   47.4770 C   0  0  0  0  0  0  0  0  0  0  0  0
   57.6950   33.2850   47.1060 C   0  0  0  0  0  0  0  0  0  0  0  0
   57.2240   33.5070   45.8080 C   0  0  0  0  0  0  0  0  0  0  0  0
   58.0300   34.1620   44.8730 C   0  0  0  0  0  0  0  0  0  0  0  0
   59.3090   34.5960   45.2330 C   0  0  0  0  0  0  0  0  0  0  0  0
   59.7840   34.3780   46.5300 C   0  0  0  0  0  0  0  0  0  0  0  0
   58.3350   30.0850   47.0770 C   0  0  0  0  0  0  0  0  0  0  0  0
   57.2289   26.3656   43.5166 H   0  0  0  0  0  0  0  0  0  0  0  0
   58.8536   27.0105   43.0537 H   0  0  0  0  0  0  0  0  0  0  0  0
   59.5486   26.1844   45.0340 H   0  0  0  0  0  0  0  0  0  0  0  0
   58.6941   27.6235   45.7433 H   0  0  0  0  0  0  0  0  0  0  0  0
   55.8990   27.6120   44.8880 H   0  0  0  0  0  0  0  0  0  0  0  0
   60.0129   29.2534   44.2133 H   0  0  0  0  0  0  0  0  0  0  0  0
   61.9532   29.8812   45.6501 H   0  0  0  0  0  0  0  0  0  0  0  0
   61.5822   30.6377   47.9999 H   0  0  0  0  0  0  0  0  0  0  0  0
   59.5452   34.4361   49.4070 H   0  0  0  0  0  0  0  0  0  0  0  0
   60.4728   33.0040   48.8150 H   0  0  0  0  0  0  0  0  0  0  0  0
   57.0583   32.7681   47.8391 H   0  0  0  0  0  0  0  0  0  0  0  0
   56.2180   33.1656   45.5227 H   0  0  0  0  0  0  0  0  0  0  0  0
   57.6576   34.3362   43.8527 H   0  0  0  0  0  0  0  0  0  0  0  0
   59.9427   35.1097   44.4951 H   0  0  0  0  0  0  0  0  0  0  0  0
   60.7904   34.7222   46.8104 H   0  0  0  0  0  0  0  0  0  0  0  0
   57.3159   30.1190   47.4898 H   0  0  0  0  0  0  0  0  0  0  0  0
  1  2  2  0
  2  3  1  0
  3  4  1  0
  4  5  1  0
  5  6  1  0
  6  7  1  0
  7  8  1  0
  8  9  2  0
  8 10  1  0
 10 11  1  0
 11 12  1  0
  2 13  1  0
 13 14  2  0
 14 15  1  0
 15 16  2  0
 16 17  1  0
 17 18  1  0
 18 19  2  0
 18 20  2  0
 18 21  1  0
 21 22  1  0
 22 23  1  0
 23 24  2  0
 24 25  1  0
 25 26  2  0
 26 27  1  0
 27 28  2  0
 17 29  2  0
 11  6  2  0
 29 13  1  0
 28 23  1  0
  4 30  1  0
  4 31  1  0
  5 32  1  0
  5 33  1  0
 12 34  1  0
 14 35  1  0
 15 36  1  0
 16 37  1  0
 22 38  1  0
 22 39  1  0
 24 40  1  0
 25 41  1  0
 26 42  1  0
 27 43  1  0
 28 44  1  0
 29 45  1  0
M  CHG  4   3  -1   7  -1  10  -1  21  -1
M  END
>  <UniqueID>  (53) 
48

>  <SMILES>  (53) 
O=C([N-]CCc1[n-]c(=O)[n-]c1O)c1cccc(S(=O)(=O)[N-]Cc2ccccc2)c1

>  <Energy>  (53) 
73.37909845457597

>  <Genealogy>  (53) 
O=C([N-]CCc1[n-]c(=O)[n-]c1O)c1cccc(S(=O)(=O)[N-]Cc2ccccc2)c1 (protonated)
O=C([N-]CCc1[n-]c(=O)[n-]c1O)c1cccc(S(=O)(=O)[N-]Cc2ccccc2)c1 (3D coordinates assigned)
O=C([N-]CCc1[n-]c(=O)[n-]c1O)c1cccc(S(=O)(=O)[N-]Cc2ccccc2)c1 (optimized conformer: 73.37909845457597 kcal/mol)

>  <smiles>  (53) 
O=C(NCCc1[nH]c(=O)[nH]c1O)c1cccc(S(=O)(=O)NCc2ccccc2)c1

>  <score_type>  (53) 
oracle

>  <origin>  (53) 
adg

>  <m_score__min__energy>  (53) 
-17.18

>  <m_primary>  (53) 
energy

$$$$
53:0
     RDKit          3D

 50 52  0  0  0  0  0  0  0  0999 V2000
   56.1010   32.6380   52.3360 O   0  0  0  0  0  0  0  0  0  0  0  0
   56.3940   31.4560   52.0110 C   0  0  0  0  0  0  0  0  0  0  0  0
   57.8230   31.0990   51.7560 C   0  0  0  0  0  0  0  0  0  0  0  0
   57.8830   29.8520   51.0080 N   0  0  0  0  0  0  0  0  0  0  0  0
   59.0860   29.3600   50.4100 C   0  0  0  0  0  0  0  0  0  0  0  0
   60.1110   29.1810   51.1240 O   0  0  0  0  0  0  0  0  0  0  0  0
   59.1310   29.0620   48.9590 C   0  0  0  0  0  0  0  0  0  0  0  0
   59.6680   27.8470   48.4950 C   0  0  0  0  0  0  0  0  0  0  0  0
   59.7000   27.5640   47.1270 C   0  0  0  0  0  0  0  0  0  0  0  0
   59.2020   28.4880   46.2070 C   0  0  0  0  0  0  0  0  0  0  0  0
   58.6740   29.7060   46.6500 C   0  0  0  0  0  0  0  0  0  0  0  0
   58.0220   30.8560   45.4820 S   0  0  0  0  0  0  0  0  0  0  0  0
   58.8990   30.8930   44.2610 O   0  0  0  0  0  0  0  0  0  0  0  0
   56.6500   30.4000   45.0710 O   0  0  0  0  0  0  0  0  0  0  0  0
   57.9240   32.4460   46.1990 N   0  0  0  0  0  0  0  0  0  0  0  0
   59.1870   32.7590   46.9050 C   0  0  0  0  0  0  0  0  0  0  0  0
   59.3370   34.2630   47.1480 C   0  0  0  0  0  0  0  0  0  0  0  0
   59.3960   35.0360   45.8190 C   0  0  0  0  0  0  0  0  0  0  0  0
   58.6870   34.2970   44.6710 C   0  0  0  0  0  0  0  0  0  0  0  0
   57.5120   33.4580   45.1940 C   0  0  0  0  0  0  0  0  0  0  0  0
   58.6340   29.9890   48.0230 C   0  0  0  0  0  0  0  0  0  0  0  0
   55.3630   30.4800   51.7910 N   0  0  0  0  0  0  0  0  0  0  0  0
   53.9860   30.6610   52.1620 C   0  0  0  0  0  0  0  0  0  0  0  0
   53.4660   29.9380   53.2470 C   0  0  0  0  0  0  0  0  0  0  0  0
   52.1350   30.1130   53.6410 C   0  0  0  0  0  0  0  0  0  0  0  0
   51.3180   31.0200   52.9630 C   0  0  0  0  0  0  0  0  0  0  0  0
   51.8310   31.7630   51.8960 C   0  0  0  0  0  0  0  0  0  0  0  0
   51.0220   32.6780   51.2340 O   0  0  0  0  0  0  0  0  0  0  0  0
   53.1630   31.5900   51.4980 C   0  0  0  0  0  0  0  0  0  0  0  0
   58.3032   31.8996   51.1742 H   0  0  0  0  0  0  0  0  0  0  0  0
   58.3486   30.9783   52.7147 H   0  0  0  0  0  0  0  0  0  0  0  0
   60.0652   27.1152   49.2138 H   0  0  0  0  0  0  0  0  0  0  0  0
   60.1189   26.6101   46.7741 H   0  0  0  0  0  0  0  0  0  0  0  0
   59.2246   28.2584   45.1315 H   0  0  0  0  0  0  0  0  0  0  0  0
   59.1933   32.2382   47.8739 H   0  0  0  0  0  0  0  0  0  0  0  0
   60.0255   32.4261   46.2756 H   0  0  0  0  0  0  0  0  0  0  0  0
   58.4767   34.6199   47.7332 H   0  0  0  0  0  0  0  0  0  0  0  0
   60.2755   34.4365   47.6949 H   0  0  0  0  0  0  0  0  0  0  0  0
   58.9132   36.0144   45.9591 H   0  0  0  0  0  0  0  0  0  0  0  0
   60.4554   35.1414   45.5424 H   0  0  0  0  0  0  0  0  0  0  0  0
   58.3077   35.0351   43.9490 H   0  0  0  0  0  0  0  0  0  0  0  0
   59.4110   33.6222   44.1909 H   0  0  0  0  0  0  0  0  0  0  0  0
   56.7778   34.1335   45.6573 H   0  0  0  0  0  0  0  0  0  0  0  0
   57.0872   32.9160   44.3363 H   0  0  0  0  0  0  0  0  0  0  0  0
   58.2110   30.9428   48.3714 H   0  0  0  0  0  0  0  0  0  0  0  0
   55.6170   29.6220   51.2480 H   0  0  0  0  0  0  0  0  0  0  0  0
   54.1086   29.2298   53.7906 H   0  0  0  0  0  0  0  0  0  0  0  0
   51.7317   29.5354   54.4858 H   0  0  0  0  0  0  0  0  0  0  0  0
   50.2694   31.1499   53.2690 H   0  0  0  0  0  0  0  0  0  0  0  0
   53.5671   32.1822   50.6637 H   0  0  0  0  0  0  0  0  0  0  0  0
  1  2  2  0
  2  3  1  0
  3  4  1  0
  4  5  1  0
  5  6  2  0
  5  7  1  0
  7  8  2  0
  8  9  1  0
  9 10  2  0
 10 11  1  0
 11 12  1  0
 12 13  2  0
 12 14  2  0
 12 15  1  0
 15 16  1  0
 16 17  1  0
 17 18  1  0
 18 19  1  0
 19 20  1  0
 11 21  2  0
  2 22  1  0
 22 23  1  0
 23 24  2  0
 24 25  1  0
 25 26  2  0
 26 27  1  0
 27 28  1  0
 27 29  2  0
 21  7  1  0
 29 23  1  0
 20 15  1  0
  3 30  1  0
  3 31  1  0
  8 32  1  0
  9 33  1  0
 10 34  1  0
 16 35  1  0
 16 36  1  0
 17 37  1  0
 17 38  1  0
 18 39  1  0
 18 40  1  0
 19 41  1  0
 19 42  1  0
 20 43  1  0
 20 44  1  0
 21 45  1  0
 22 46  1  0
 24 47  1  0
 25 48  1  0
 26 49  1  0
 29 50  1  0
M  CHG  2   4  -1  28  -1
M  END
>  <UniqueID>  (54) 
49

>  <SMILES>  (54) 
O=C(C[N-]C(=O)c1cccc(S(=O)(=O)N2CCCCC2)c1)Nc1cccc([O-])c1

>  <Energy>  (54) 
56.701255746892

>  <Genealogy>  (54) 
O=C(C[N-]C(=O)c1cccc(S(=O)(=O)N2CCCCC2)c1)Nc1cccc([O-])c1 (protonated)
O=C(C[N-]C(=O)c1cccc(S(=O)(=O)N2CCCCC2)c1)Nc1cccc([O-])c1 (3D coordinates assigned)
O=C(C[N-]C(=O)c1cccc(S(=O)(=O)N2CCCCC2)c1)Nc1cccc([O-])c1 (nonaromatic ring conformer: 56.701255746892 kcal/mol)

>  <smiles>  (54) 
O=C(CNC(=O)c1cccc(S(=O)(=O)N2CCCCC2)c1)Nc1cccc(O)c1

>  <score_type>  (54) 
oracle

>  <origin>  (54) 
adg

>  <m_score__min__energy>  (54) 
-15.18

>  <m_primary>  (54) 
energy

$$$$
54:0
     RDKit          3D

 49 51  0  0  0  0  0  0  0  0999 V2000
   50.2110   30.8620   49.5680 H   0  0  0  0  0  0  0  0  0  0  0  0
   51.1260   30.4560   49.4190 O   0  0  0  0  0  0  0  0  0  0  0  0
   52.1700   30.6330   50.3270 C   0  0  0  0  0  0  0  0  0  0  0  0
   53.1100   29.6110   50.4920 C   0  0  0  0  0  0  0  0  0  0  0  0
   53.0207   28.6852   49.9046 H   0  0  0  0  0  0  0  0  0  0  0  0
   54.1630   29.7600   51.4000 C   0  0  0  0  0  0  0  0  0  0  0  0
   54.9066   28.9571   51.5112 H   0  0  0  0  0  0  0  0  0  0  0  0
   54.2770   30.9270   52.1700 C   0  0  0  0  0  0  0  0  0  0  0  0
   55.4100   31.0570   53.1140 C   0  0  0  0  0  0  0  0  0  0  0  0
   55.2082   31.5330   54.0849 H   0  0  0  0  0  0  0  0  0  0  0  0
   56.6640   30.6400   52.8790 C   0  0  0  0  0  0  0  0  0  0  0  0
   57.0234   29.7669   53.4433 H   0  0  0  0  0  0  0  0  0  0  0  0
   57.6000   31.2660   51.9180 C   0  0  0  0  0  0  0  0  0  0  0  0
   57.9310   32.6240   52.0670 C   0  0  0  0  0  0  0  0  0  0  0  0
   57.4030   33.3690   53.1160 O   0  0  0  0  0  0  0  0  0  0  0  0
   58.8100   33.2350   51.1700 C   0  0  0  0  0  0  0  0  0  0  0  0
   59.0854   34.2911   51.3072 H   0  0  0  0  0  0  0  0  0  0  0  0
   59.3410   32.5120   50.1000 C   0  0  0  0  0  0  0  0  0  0  0  0
   60.0510   32.9945   49.4122 H   0  0  0  0  0  0  0  0  0  0  0  0
   58.9740   31.1750   49.8980 C   0  0  0  0  0  0  0  0  0  0  0  0
   59.4970   30.4670   48.7080 C   0  0  0  0  0  0  0  0  0  0  0  0
   60.4846   30.7677   48.3282 H   0  0  0  0  0  0  0  0  0  0  0  0
   58.8520   29.4830   48.0580 C   0  0  0  0  0  0  0  0  0  0  0  0
   57.7698   29.3849   48.2289 H   0  0  0  0  0  0  0  0  0  0  0  0
   59.4870   28.5230   47.1310 C   0  0  0  0  0  0  0  0  0  0  0  0
   60.2540   28.9660   46.2360 O   0  0  0  0  0  0  0  0  0  0  0  0
   59.2270   27.0750   47.2070 C   0  0  0  0  0  0  0  0  0  0  0  0
   60.1050   26.3110   47.6950 O   0  0  0  0  0  0  0  0  0  0  0  0
   57.9680   26.5210   46.6740 C   0  0  0  0  0  0  0  0  0  0  0  0
   57.5613   26.9271   45.7361 H   0  0  0  0  0  0  0  0  0  0  0  0
   57.3050   25.5380   47.2980 C   0  0  0  0  0  0  0  0  0  0  0  0
   57.5029   25.3615   48.3655 H   0  0  0  0  0  0  0  0  0  0  0  0
   56.3160   24.6800   46.6060 C   0  0  0  0  0  0  0  0  0  0  0  0
   56.4640   23.2760   46.5310 C   0  0  0  0  0  0  0  0  0  0  0  0
   57.5770   22.6420   47.0730 O   0  0  0  0  0  0  0  0  0  0  0  0
   55.4970   22.5020   45.8790 C   0  0  0  0  0  0  0  0  0  0  0  0
   55.6067   21.4082   45.8396 H   0  0  0  0  0  0  0  0  0  0  0  0
   54.3950   23.1110   45.2790 C   0  0  0  0  0  0  0  0  0  0  0  0
   53.6362   22.4968   44.7721 H   0  0  0  0  0  0  0  0  0  0  0  0
   54.2540   24.4980   45.3210 C   0  0  0  0  0  0  0  0  0  0  0  0
   53.3893   24.9757   44.8372 H   0  0  0  0  0  0  0  0  0  0  0  0
   55.2080   25.2840   45.9760 C   0  0  0  0  0  0  0  0  0  0  0  0
   55.0420   26.6650   46.0060 O   0  0  0  0  0  0  0  0  0  0  0  0
   58.1210   30.5410   50.8250 C   0  0  0  0  0  0  0  0  0  0  0  0
   57.7830   29.2010   50.6530 O   0  0  0  0  0  0  0  0  0  0  0  0
   53.3460   31.9670   51.9800 C   0  0  0  0  0  0  0  0  0  0  0  0
   53.4479   32.9027   52.5493 H   0  0  0  0  0  0  0  0  0  0  0  0
   52.2930   31.8170   51.0720 C   0  0  0  0  0  0  0  0  0  0  0  0
   51.3770   32.8500   50.9120 O   0  0  0  0  0  0  0  0  0  0  0  0
  1  2  1  0
  2  3  1  0
  3  4  2  0
  4  5  1  0
  4  6  1  0
  6  7  1  0
  6  8  2  0
  8  9  1  0
  9 10  1  0
  9 11  2  0
 11 12  1  0
 11 13  1  0
 13 14  2  0
 14 15  1  0
 14 16  1  0
 16 17  1  0
 16 18  2  0
 18 19  1  0
 18 20  1  0
 20 21  1  0
 21 22  1  0
 21 23  2  3
 23 24  1  0
 23 25  1  0
 25 26  2  0
 25 27  1  0
 27 28  2  0
 27 29  1  0
 29 30  1  0
 29 31  2  0
 31 32  1  0
 31 33  1  0
 33 34  2  0
 34 35  1  0
 34 36  1  0
 36 37  1  0
 36 38  2  0
 38 39  1  0
 38 40  1  0
 40 41  1  0
 40 42  2  0
 42 43  1  0
 20 44  2  0
 44 45  1  0
  8 46  1  0
 46 47  1  0
 46 48  2  0
 48 49  1  0
 48  3  1  0
 44 13  1  0
 42 33  1  0
M  CHG  5  15  -1  35  -1  43  -1  45  -1  49  -1
M  END
>  <UniqueID>  (55) 
50

>  <SMILES>  (55) 
O=C(C=Cc1ccc([O-])c(/C=C\c2ccc(O)c([O-])c2)c1[O-])C(=O)/C=C/c1c([O-])cccc1[O-]

>  <Energy>  (55) 
77.8135264340582

>  <Genealogy>  (55) 
O=C(C=Cc1ccc([O-])c(C=Cc2ccc(O)c([O-])c2)c1[O-])C(=O)C=Cc1c([O-])cccc1[O-] (protonated)
O=C(C=Cc1ccc([O-])c(/C=C\c2ccc(O)c([O-])c2)c1[O-])C(=O)/C=C/c1c([O-])cccc1[O-] (cis-trans isomerization)
O=C(C=Cc1ccc([O-])c(/C=C\c2ccc(O)c([O-])c2)c1[O-])C(=O)/C=C/c1c([O-])cccc1[O-] (3D coordinates assigned)
O=C(C=Cc1ccc([O-])c(/C=C\c2ccc(O)c([O-])c2)c1[O-])C(=O)/C=C/c1c([O-])cccc1[O-] (optimized conformer: 77.8135264340582 kcal/mol)

>  <smiles>  (55) 
O=C(C=Cc1ccc(O)c(C=Cc2ccc(O)c(O)c2)c1O)C(=O)C=Cc1c(O)cccc1O

>  <score_type>  (55) 
oracle

>  <origin>  (55) 
adg

>  <m_score__min__energy>  (55) 
-18.609999999999999

>  <m_primary>  (55) 
energy

$$$$
55:0
     RDKit          3D

 70 74  0  0  0  0  0  0  0  0999 V2000
   58.1570   31.7200   50.1450 C   0  0  0  0  0  0  0  0  0  0  0  0
   59.2650   32.4430   49.3660 C   0  0  1  0  0  0  0  0  0  0  0  0
   60.6620   31.9010   49.7090 C   0  0  0  0  0  0  0  0  0  0  0  0
   61.7270   32.4950   48.8110 C   0  0  0  0  0  0  0  0  0  0  0  0
   63.0760   32.3690   49.1800 C   0  0  0  0  0  0  0  0  0  0  0  0
   64.0870   32.8650   48.3540 C   0  0  0  0  0  0  0  0  0  0  0  0
   63.7630   33.4850   47.1460 C   0  0  0  0  0  0  0  0  0  0  0  0
   62.4270   33.6060   46.7560 C   0  0  0  0  0  0  0  0  0  0  0  0
   61.4010   33.1000   47.5700 C   0  0  0  0  0  0  0  0  0  0  0  0
   59.9630   33.3090   47.1600 C   0  0  0  0  0  0  0  0  0  0  0  0
   59.0850   32.4000   47.9050 N   0  0  0  0  0  0  0  0  0  0  0  0
   58.5640   31.2410   47.2200 C   0  0  0  0  0  0  0  0  0  0  0  0
   58.5010   30.1340   47.8210 O   0  0  0  0  0  0  0  0  0  0  0  0
   58.1750   31.3010   45.7900 C   0  0  0  0  0  0  0  0  0  0  0  0
   57.9420   32.5600   45.2070 C   0  0  0  0  0  0  0  0  0  0  0  0
   57.5380   32.6650   43.8750 C   0  0  0  0  0  0  0  0  0  0  0  0
   57.3670   31.5170   43.1030 C   0  0  0  0  0  0  0  0  0  0  0  0
   57.6120   30.2590   43.6560 C   0  0  0  0  0  0  0  0  0  0  0  0
   58.0280   30.1370   44.9910 C   0  0  0  0  0  0  0  0  0  0  0  0
   58.3470   28.7870   45.5000 C   0  0  0  0  0  0  0  0  0  0  0  0
   57.3070   27.8560   45.6290 C   0  0  0  0  0  0  0  0  0  0  0  0
   57.5580   26.5650   46.1030 C   0  0  0  0  0  0  0  0  0  0  0  0
   56.2240   25.4270   46.3100 S   0  0  0  0  0  0  0  0  0  0  0  0
   56.1790   24.9650   47.7410 O   0  0  0  0  0  0  0  0  0  0  0  0
   54.9310   26.1320   46.0080 O   0  0  0  0  0  0  0  0  0  0  0  0
   56.3890   24.0400   45.2620 N   0  0  0  0  0  0  0  0  0  0  0  0
   56.4690   24.4620   43.8560 C   0  0  0  0  0  0  0  0  0  0  0  0
   56.4520   23.2290   42.9310 C   0  0  0  0  0  0  0  0  0  0  0  0
   56.7590   21.9860   43.6730 N   0  0  0  0  0  0  0  0  0  0  0  0
   57.0220   20.8840   42.7350 C   0  0  0  0  0  0  0  0  0  0  0  0
   57.9100   22.1860   44.5710 C   0  0  0  0  0  0  0  0  0  0  0  0
   57.5820   23.2550   45.6340 C   0  0  0  0  0  0  0  0  0  0  0  0
   58.8680   26.1870   46.4140 C   0  0  0  0  0  0  0  0  0  0  0  0
   59.9180   27.0940   46.2570 C   0  0  0  0  0  0  0  0  0  0  0  0
   59.6720   28.4030   45.8100 C   0  0  0  0  0  0  0  0  0  0  0  0
   60.8350   29.3490   45.6220 C   0  0  0  0  0  0  0  0  0  0  0  0
   61.1750   29.9500   46.8410 O   0  0  0  0  0  0  0  0  0  0  0  0
   58.3331   31.8349   51.2247 H   0  0  0  0  0  0  0  0  0  0  0  0
   57.1812   32.1557   49.8842 H   0  0  0  0  0  0  0  0  0  0  0  0
   58.1629   30.6514   49.8842 H   0  0  0  0  0  0  0  0  0  0  0  0
   59.1852   33.4919   49.6877 H   0  0  0  0  0  0  0  0  0  0  0  0
   60.8956   32.1523   50.7541 H   0  0  0  0  0  0  0  0  0  0  0  0
   60.6544   30.8113   49.5590 H   0  0  0  0  0  0  0  0  0  0  0  0
   63.3386   31.8756   50.1274 H   0  0  0  0  0  0  0  0  0  0  0  0
   65.1402   32.7670   48.6558 H   0  0  0  0  0  0  0  0  0  0  0  0
   64.5613   33.8791   46.4999 H   0  0  0  0  0  0  0  0  0  0  0  0
   62.1774   34.1006   45.8057 H   0  0  0  0  0  0  0  0  0  0  0  0
   59.6726   34.3487   47.3714 H   0  0  0  0  0  0  0  0  0  0  0  0
   59.8634   33.1018   46.0843 H   0  0  0  0  0  0  0  0  0  0  0  0
   58.0797   33.4714   45.8073 H   0  0  0  0  0  0  0  0  0  0  0  0
   57.3542   33.6557   43.4336 H   0  0  0  0  0  0  0  0  0  0  0  0
   57.0386   31.6026   42.0567 H   0  0  0  0  0  0  0  0  0  0  0  0
   57.4781   29.3568   43.0412 H   0  0  0  0  0  0  0  0  0  0  0  0
   56.2817   28.1445   45.3541 H   0  0  0  0  0  0  0  0  0  0  0  0
   55.6089   25.1058   43.6199 H   0  0  0  0  0  0  0  0  0  0  0  0
   57.4059   25.0167   43.6994 H   0  0  0  0  0  0  0  0  0  0  0  0
   55.4540   23.1367   42.4777 H   0  0  0  0  0  0  0  0  0  0  0  0
   57.2233   23.3678   42.1591 H   0  0  0  0  0  0  0  0  0  0  0  0
   57.2411   19.9660   43.3000 H   0  0  0  0  0  0  0  0  0  0  0  0
   56.1372   20.7224   42.1017 H   0  0  0  0  0  0  0  0  0  0  0  0
   57.8844   21.1394   42.1017 H   0  0  0  0  0  0  0  0  0  0  0  0
   58.1477   21.2365   45.0729 H   0  0  0  0  0  0  0  0  0  0  0  0
   58.7717   22.5251   43.9773 H   0  0  0  0  0  0  0  0  0  0  0  0
   57.3958   22.7564   46.5966 H   0  0  0  0  0  0  0  0  0  0  0  0
   58.4378   23.9421   45.7078 H   0  0  0  0  0  0  0  0  0  0  0  0
   59.0720   25.1713   46.7837 H   0  0  0  0  0  0  0  0  0  0  0  0
   60.9474   26.7807   46.4854 H   0  0  0  0  0  0  0  0  0  0  0  0
   61.7008   28.7882   45.2400 H   0  0  0  0  0  0  0  0  0  0  0  0
   60.5470   30.1320   44.9051 H   0  0  0  0  0  0  0  0  0  0  0  0
   60.4490   29.7210   47.4790 H   0  0  0  0  0  0  0  0  0  0  0  0
  1  2  1  0
  2  3  1  0
  3  4  1  0
  4  5  2  0
  5  6  1  0
  6  7  2  0
  7  8  1  0
  8  9  2  0
  9 10  1  0
 10 11  1  0
 11 12  1  0
 12 13  2  0
 12 14  1  0
 14 15  2  0
 15 16  1  0
 16 17  2  0
 17 18  1  0
 18 19  2  0
 19 20  1  0
 20 21  2  0
 21 22  1  0
 22 23  1  0
 23 24  2  0
 23 25  2  0
 23 26  1  0
 26 27  1  0
 27 28  1  0
 28 29  1  0
 29 30  1  0
 29 31  1  0
 31 32  1  0
 22 33  2  0
 33 34  1  0
 34 35  2  0
 35 36  1  0
 36 37  1  0
 11  2  1  0
 19 14  1  0
 35 20  1  0
  9  4  1  0
 32 26  1  0
  1 38  1  0
  1 39  1  0
  1 40  1  0
  2 41  1  1
  3 42  1  0
  3 43  1  0
  5 44  1  0
  6 45  1  0
  7 46  1  0
  8 47  1  0
 10 48  1  0
 10 49  1  0
 15 50  1  0
 16 51  1  0
 17 52  1  0
 18 53  1  0
 21 54  1  0
 27 55  1  0
 27 56  1  0
 28 57  1  0
 28 58  1  0
 30 59  1  0
 30 60  1  0
 30 61  1  0
 31 62  1  0
 31 63  1  0
 32 64  1  0
 32 65  1  0
 33 66  1  0
 34 67  1  0
 36 68  1  0
 36 69  1  0
 37 70  1  0
M  END
>  <UniqueID>  (56) 
51

>  <SMILES>  (56) 
C[C@H]1Cc2ccccc2CN1C(=O)c1ccccc1-c1cc(S(=O)(=O)N2CCN(C)CC2)ccc1CO

>  <Energy>  (56) 
94.93299648188402

>  <Genealogy>  (56) 
C[C@H]1Cc2ccccc2CN1C(=O)c1ccccc1-c1cc(S(=O)(=O)N2CCN(C)CC2)ccc1CO (chirality)
C[C@H]1Cc2ccccc2CN1C(=O)c1ccccc1-c1cc(S(=O)(=O)N2CCN(C)CC2)ccc1CO (3D coordinates assigned)
C[C@H]1Cc2ccccc2CN1C(=O)c1ccccc1-c1cc(S(=O)(=O)N2CCN(C)CC2)ccc1CO (nonaromatic ring conformer: 94.93299648188402 kcal/mol)

>  <smiles>  (56) 
CC1Cc2ccccc2CN1C(=O)c1ccccc1-c1cc(S(=O)(=O)N2CCN(C)CC2)ccc1CO

>  <score_type>  (56) 
oracle

>  <origin>  (56) 
adg

>  <m_score__min__energy>  (56) 
-11.26

>  <m_primary>  (56) 
energy

$$$$
56:0
     RDKit          3D

 42 43  0  0  0  0  0  0  0  0999 V2000
   60.7153   33.7670   47.1880 H   0  0  0  0  0  0  0  0  0  0  0  0
   60.6440   32.6740   47.2890 C   0  0  0  0  0  0  0  0  0  0  0  0
   61.7970   31.8830   47.3130 C   0  0  0  0  0  0  0  0  0  0  0  0
   63.1500   32.5090   47.1820 C   0  0  0  0  0  0  0  0  0  0  0  0
   63.5639   32.7005   48.1830 H   0  0  0  0  0  0  0  0  0  0  0  0
   63.8174   31.8282   46.6333 H   0  0  0  0  0  0  0  0  0  0  0  0
   63.0632   33.4584   46.6333 H   0  0  0  0  0  0  0  0  0  0  0  0
   61.6830   30.5330   47.4100 N   0  0  0  0  0  0  0  0  0  0  0  0
   60.4680   29.9340   47.4990 C   0  0  0  0  0  0  0  0  0  0  0  0
   60.3670   28.1500   47.6220 S   0  0  0  0  0  0  0  0  0  0  0  0
   59.9710   27.9370   45.8570 C   0  0  0  0  0  0  0  0  0  0  0  0
   60.5868   28.6234   45.2573 H   0  0  0  0  0  0  0  0  0  0  0  0
   60.1804   26.8999   45.5561 H   0  0  0  0  0  0  0  0  0  0  0  0
   58.5220   28.2400   45.6320 C   0  0  0  0  0  0  0  0  0  0  0  0
   57.5910   27.2750   45.8580 N   0  0  0  0  0  0  0  0  0  0  0  0
   56.2690   27.4980   45.6360 C   0  0  0  0  0  0  0  0  0  0  0  0
   55.4210   26.5400   45.8820 N   0  0  0  0  0  0  0  0  0  0  0  0
   55.6540   25.1370   46.1090 C   0  0  0  0  0  0  0  0  0  0  0  0
   56.3720   24.8060   47.0900 O   0  0  0  0  0  0  0  0  0  0  0  0
   55.0750   24.0450   45.2560 C   0  0  0  0  0  0  0  0  0  0  0  0
   54.0696   23.7883   45.6210 H   0  0  0  0  0  0  0  0  0  0  0  0
   55.0089   24.3893   44.2134 H   0  0  0  0  0  0  0  0  0  0  0  0
   55.9350   22.8660   45.3270 N   0  0  0  0  0  0  0  0  0  0  0  0
   56.8030   22.6630   43.8350 S   0  0  0  0  0  0  0  0  0  0  0  0
   57.0160   24.0140   43.2130 O   0  0  0  0  0  0  0  0  0  0  0  0
   56.0030   21.8110   42.8900 O   0  0  0  0  0  0  0  0  0  0  0  0
   58.3890   21.9030   44.1200 C   0  0  0  0  0  0  0  0  0  0  0  0
   58.5658   21.8183   45.2024 H   0  0  0  0  0  0  0  0  0  0  0  0
   58.4021   20.9008   43.6668 H   0  0  0  0  0  0  0  0  0  0  0  0
   59.1783   22.5207   43.6668 H   0  0  0  0  0  0  0  0  0  0  0  0
   55.8650   28.7120   45.1730 N   0  0  0  0  0  0  0  0  0  0  0  0
   56.7590   29.7040   44.9220 C   0  0  0  0  0  0  0  0  0  0  0  0
   56.3590   30.8160   44.4890 O   0  0  0  0  0  0  0  0  0  0  0  0
   58.1190   29.4860   45.1430 C   0  0  0  0  0  0  0  0  0  0  0  0
   58.8566   30.2757   44.9374 H   0  0  0  0  0  0  0  0  0  0  0  0
   59.3330   30.6870   47.4890 N   0  0  0  0  0  0  0  0  0  0  0  0
   58.4060   30.2110   47.5480 H   0  0  0  0  0  0  0  0  0  0  0  0
   59.3980   32.0470   47.3960 C   0  0  0  0  0  0  0  0  0  0  0  0
   58.1410   32.8620   47.3380 C   0  0  0  0  0  0  0  0  0  0  0  0
   57.7999   33.0832   48.3601 H   0  0  0  0  0  0  0  0  0  0  0  0
   58.3390   33.8040   46.8057 H   0  0  0  0  0  0  0  0  0  0  0  0
   57.3618   32.2968   46.8057 H   0  0  0  0  0  0  0  0  0  0  0  0
  1  2  1  0
  2  3  2  0
  3  4  1  0
  4  5  1  0
  4  6  1  0
  4  7  1  0
  3  8  1  0
  8  9  2  0
  9 10  1  0
 10 11  1  0
 11 12  1  0
 11 13  1  0
 11 14  1  0
 14 15  1  0
 15 16  1  0
 16 17  2  0
 17 18  1  0
 18 19  2  0
 18 20  1  0
 20 21  1  0
 20 22  1  0
 20 23  1  0
 23 24  1  0
 24 25  2  0
 24 26  2  0
 24 27  1  0
 27 28  1  0
 27 29  1  0
 27 30  1  0
 16 31  1  0
 31 32  1  0
 32 33  2  0
 32 34  1  0
 34 35  1  0
  9 36  1  0
 36 37  1  0
 36 38  2  0
 38 39  1  0
 39 40  1  0
 39 41  1  0
 39 42  1  0
 38  2  1  0
 34 14  2  0
M  CHG  4  15  -1  23  -1  31  -1  36   1
M  END
>  <UniqueID>  (57) 
52

>  <SMILES>  (57) 
Cc1cc(C)[nH+]c(SCc2cc(=O)[n-]/c(=N\C(=O)C[N-]S(C)(=O)=O)[n-]2)n1

>  <Energy>  (57) 
32.902922525002445

>  <Genealogy>  (57) 
Cc1cc(C)[nH+]c(SCc2cc(=O)[n-]c(=NC(=O)C[N-]S(C)(=O)=O)[n-]2)n1 (protonated)
Cc1cc(C)[nH+]c(SCc2cc(=O)[n-]/c(=N\C(=O)C[N-]S(C)(=O)=O)[n-]2)n1 (cis-trans isomerization)
Cc1cc(C)[nH+]c(SCc2cc(=O)[n-]/c(=N\C(=O)C[N-]S(C)(=O)=O)[n-]2)n1 (3D coordinates assigned)
Cc1cc(C)[nH+]c(SCc2cc(=O)[n-]/c(=N\C(=O)C[N-]S(C)(=O)=O)[n-]2)n1 (optimized conformer: 32.902922525002445 kcal/mol)

>  <smiles>  (57) 
Cc1cc(C)nc(SCc2cc(=O)[nH]c(=NC(=O)CNS(C)(=O)=O)[nH]2)n1

>  <score_type>  (57) 
oracle

>  <origin>  (57) 
adg

>  <m_score__min__energy>  (57) 
-12.27

>  <m_primary>  (57) 
energy

$$$$
57:0
     RDKit          3D

 56 59  0  0  0  0  0  0  0  0999 V2000
   58.8730   29.3790   52.1410 C   0  0  0  0  0  0  0  0  0  0  0  0
   57.3460   29.4490   53.0560 S   0  0  0  0  0  0  0  0  0  0  0  0
   57.5680   30.3230   54.2600 O   0  0  0  0  0  0  0  0  0  0  0  0
   56.9660   28.0670   53.5090 O   0  0  0  0  0  0  0  0  0  0  0  0
   56.0780   30.1270   52.0600 N   0  0  0  0  0  0  0  0  0  0  0  0
   54.8170   29.3850   52.2550 C   0  0  0  0  0  0  0  0  0  0  0  0
   53.6480   30.3320   52.1840 C   0  0  0  0  0  0  0  0  0  0  0  0
   52.9210   30.6290   53.3480 C   0  0  0  0  0  0  0  0  0  0  0  0
   51.7870   31.4440   53.2840 C   0  0  0  0  0  0  0  0  0  0  0  0
   51.3710   31.9690   52.0570 C   0  0  0  0  0  0  0  0  0  0  0  0
   50.2410   32.7750   51.9940 O   0  0  0  0  0  0  0  0  0  0  0  0
   52.0900   31.6800   50.8920 C   0  0  0  0  0  0  0  0  0  0  0  0
   53.2260   30.8650   50.9540 C   0  0  0  0  0  0  0  0  0  0  0  0
   55.9200   31.5770   52.3140 C   0  0  0  0  0  0  0  0  0  0  0  0
   57.1710   32.2790   51.8960 C   0  0  0  0  0  0  0  0  0  0  0  0
   57.8740   33.1580   52.7170 C   0  0  0  0  0  0  0  0  0  0  0  0
   59.2300   33.6740   51.8660 S   0  0  0  0  0  0  0  0  0  0  0  0
   58.8780   32.7430   50.5070 C   0  0  0  0  0  0  0  0  0  0  0  0
   59.6680   32.6750   49.2610 C   0  0  0  0  0  0  0  0  0  0  0  0
   60.0350   33.8870   48.6520 C   0  0  0  0  0  0  0  0  0  0  0  0
   60.7650   33.8960   47.4640 C   0  0  0  0  0  0  0  0  0  0  0  0
   61.1320   32.6960   46.8620 C   0  0  0  0  0  0  0  0  0  0  0  0
   60.7630   31.4800   47.4410 C   0  0  0  0  0  0  0  0  0  0  0  0
   60.0140   31.4480   48.6320 C   0  0  0  0  0  0  0  0  0  0  0  0
   59.6000   30.1020   49.1860 C   0  0  0  0  0  0  0  0  0  0  0  0
   58.5250   29.5330   48.4340 O   0  0  0  0  0  0  0  0  0  0  0  0
   58.5960   29.1130   47.0980 C   0  0  0  0  0  0  0  0  0  0  0  0
   59.2050   27.9030   46.7120 C   0  0  0  0  0  0  0  0  0  0  0  0
   59.2350   27.5300   45.3630 C   0  0  0  0  0  0  0  0  0  0  0  0
   58.6570   28.3550   44.3940 C   0  0  0  0  0  0  0  0  0  0  0  0
   58.0490   29.5530   44.7710 C   0  0  0  0  0  0  0  0  0  0  0  0
   58.0260   29.9350   46.1160 C   0  0  0  0  0  0  0  0  0  0  0  0
   57.7290   32.0590   50.6760 N   0  0  0  0  0  0  0  0  0  0  0  0
   59.7194   29.3402   52.8425 H   0  0  0  0  0  0  0  0  0  0  0  0
   58.8801   28.4796   51.5078 H   0  0  0  0  0  0  0  0  0  0  0  0
   58.9624   30.2740   51.5078 H   0  0  0  0  0  0  0  0  0  0  0  0
   54.7171   28.6228   51.4682 H   0  0  0  0  0  0  0  0  0  0  0  0
   54.8310   28.9008   53.2426 H   0  0  0  0  0  0  0  0  0  0  0  0
   53.2455   30.2182   54.3154 H   0  0  0  0  0  0  0  0  0  0  0  0
   51.2217   31.6723   54.1996 H   0  0  0  0  0  0  0  0  0  0  0  0
   51.7622   32.0936   49.9269 H   0  0  0  0  0  0  0  0  0  0  0  0
   53.7905   30.6408   50.0369 H   0  0  0  0  0  0  0  0  0  0  0  0
   55.0684   31.9630   51.7346 H   0  0  0  0  0  0  0  0  0  0  0  0
   55.7342   31.7506   53.3842 H   0  0  0  0  0  0  0  0  0  0  0  0
   57.5932   33.4598   53.7368 H   0  0  0  0  0  0  0  0  0  0  0  0
   59.7430   34.8397   49.1179 H   0  0  0  0  0  0  0  0  0  0  0  0
   61.0511   34.8525   47.0021 H   0  0  0  0  0  0  0  0  0  0  0  0
   61.7138   32.7055   45.9285 H   0  0  0  0  0  0  0  0  0  0  0  0
   61.0612   30.5364   46.9607 H   0  0  0  0  0  0  0  0  0  0  0  0
   60.4622   29.4199   49.1490 H   0  0  0  0  0  0  0  0  0  0  0  0
   59.2581   30.2458   50.2216 H   0  0  0  0  0  0  0  0  0  0  0  0
   59.6580   27.2497   47.4722 H   0  0  0  0  0  0  0  0  0  0  0  0
   59.7144   26.5858   45.0650 H   0  0  0  0  0  0  0  0  0  0  0  0
   58.6814   28.0599   43.3346 H   0  0  0  0  0  0  0  0  0  0  0  0
   57.5871   30.1979   44.0090 H   0  0  0  0  0  0  0  0  0  0  0  0
   57.5574   30.8872   46.4054 H   0  0  0  0  0  0  0  0  0  0  0  0
  1  2  1  0
  2  3  2  0
  2  4  2  0
  2  5  1  0
  5  6  1  0
  6  7  1  0
  7  8  2  0
  8  9  1  0
  9 10  2  0
 10 11  1  0
 10 12  1  0
 12 13  2  0
  5 14  1  0
 14 15  1  0
 15 16  2  0
 16 17  1  0
 17 18  1  0
 18 19  1  0
 19 20  2  0
 20 21  1  0
 21 22  2  0
 22 23  1  0
 23 24  2  0
 24 25  1  0
 25 26  1  0
 26 27  1  0
 27 28  2  0
 28 29  1  0
 29 30  2  0
 30 31  1  0
 31 32  2  0
 18 33  2  0
 13  7  1  0
 33 15  1  0
 24 19  1  0
 32 27  1  0
  1 34  1  0
  1 35  1  0
  1 36  1  0
  6 37  1  0
  6 38  1  0
  8 39  1  0
  9 40  1  0
 12 41  1  0
 13 42  1  0
 14 43  1  0
 14 44  1  0
 16 45  1  0
 20 46  1  0
 21 47  1  0
 22 48  1  0
 23 49  1  0
 25 50  1  0
 25 51  1  0
 28 52  1  0
 29 53  1  0
 30 54  1  0
 31 55  1  0
 32 56  1  0
M  CHG  1  11  -1
M  END
>  <UniqueID>  (58) 
53

>  <SMILES>  (58) 
CS(=O)(=O)N(Cc1ccc([O-])cc1)Cc1csc(-c2ccccc2COc2ccccc2)n1

>  <Energy>  (58) 
84.7994715877778

>  <Genealogy>  (58) 
CS(=O)(=O)N(Cc1ccc([O-])cc1)Cc1csc(-c2ccccc2COc2ccccc2)n1 (protonated)
CS(=O)(=O)N(Cc1ccc([O-])cc1)Cc1csc(-c2ccccc2COc2ccccc2)n1 (3D coordinates assigned)
CS(=O)(=O)N(Cc1ccc([O-])cc1)Cc1csc(-c2ccccc2COc2ccccc2)n1 (optimized conformer: 84.7994715877778 kcal/mol)

>  <smiles>  (58) 
CS(=O)(=O)N(Cc1ccc(O)cc1)Cc1csc(-c2ccccc2COc2ccccc2)n1

>  <score_type>  (58) 
oracle

>  <origin>  (58) 
adg

>  <m_score__min__energy>  (58) 
-13.76

>  <m_primary>  (58) 
energy

$$$$
58:0
     RDKit          3D

 50 53  0  0  0  0  0  0  0  0999 V2000
   57.1819   25.7109   46.9467 H   0  0  0  0  0  0  0  0  0  0  0  0
   57.2920   26.6800   46.4380 C   0  0  0  0  0  0  0  0  0  0  0  0
   56.2700   27.2790   45.7710 N   0  0  0  0  0  0  0  0  0  0  0  0
   56.6510   28.4640   45.2410 C   0  0  0  0  0  0  0  0  0  0  0  0
   55.8700   29.2460   44.5570 N   0  0  0  0  0  0  0  0  0  0  0  0
   56.1720   30.5840   44.1360 C   0  0  0  0  0  0  0  0  0  0  0  0
   55.9020   31.5770   44.8670 O   0  0  0  0  0  0  0  0  0  0  0  0
   56.8150   30.8050   42.8050 C   0  0  0  0  0  0  0  0  0  0  0  0
   56.9835   29.8318   42.3208 H   0  0  0  0  0  0  0  0  0  0  0  0
   56.1479   31.4294   42.1926 H   0  0  0  0  0  0  0  0  0  0  0  0
   58.4170   31.6680   42.9870 S   0  0  0  0  0  0  0  0  0  0  0  0
   57.8200   33.0540   44.0220 C   0  0  0  0  0  0  0  0  0  0  0  0
   57.9552   33.9967   43.4715 H   0  0  0  0  0  0  0  0  0  0  0  0
   56.7570   32.8855   44.2490 H   0  0  0  0  0  0  0  0  0  0  0  0
   58.5740   33.1310   45.3150 C   0  0  0  0  0  0  0  0  0  0  0  0
   59.9000   33.4540   45.3020 N   0  0  0  0  0  0  0  0  0  0  0  0
   60.5850   33.5070   46.4700 C   0  0  0  0  0  0  0  0  0  0  0  0
   62.2120   33.8880   46.6520 S   0  0  0  0  0  0  0  0  0  0  0  0
   62.0850   33.6740   48.3310 C   0  0  0  0  0  0  0  0  0  0  0  0
   63.1920   33.9170   49.3010 C   0  0  0  0  0  0  0  0  0  0  0  0
   62.8054   33.8321   50.3273 H   0  0  0  0  0  0  0  0  0  0  0  0
   63.9860   33.1718   49.1455 H   0  0  0  0  0  0  0  0  0  0  0  0
   63.6009   34.9263   49.1455 H   0  0  0  0  0  0  0  0  0  0  0  0
   60.8210   33.3430   48.6940 N   0  0  0  0  0  0  0  0  0  0  0  0
   60.5250   33.1870   49.6840 H   0  0  0  0  0  0  0  0  0  0  0  0
   59.9930   33.2450   47.6540 N   0  0  0  0  0  0  0  0  0  0  0  0
   58.6730   32.9230   47.7250 C   0  0  0  0  0  0  0  0  0  0  0  0
   58.1240   32.6820   48.8330 O   0  0  0  0  0  0  0  0  0  0  0  0
   57.9290   32.8620   46.5390 C   0  0  0  0  0  0  0  0  0  0  0  0
   56.8589   32.6083   46.5629 H   0  0  0  0  0  0  0  0  0  0  0  0
   58.2560   28.8250   45.5760 S   0  0  0  0  0  0  0  0  0  0  0  0
   58.4880   27.3900   46.4260 C   0  0  0  0  0  0  0  0  0  0  0  0
   59.7440   27.0010   47.1410 C   0  0  0  0  0  0  0  0  0  0  0  0
   60.5139   26.7298   46.4036 H   0  0  0  0  0  0  0  0  0  0  0  0
   59.5356   26.1420   47.7957 H   0  0  0  0  0  0  0  0  0  0  0  0
   60.2370   28.1500   47.9760 C   0  0  0  0  0  0  0  0  0  0  0  0
   60.7510   29.3030   47.3620 C   0  0  0  0  0  0  0  0  0  0  0  0
   60.8239   29.3527   46.2655 H   0  0  0  0  0  0  0  0  0  0  0  0
   61.1710   30.3890   48.1370 C   0  0  0  0  0  0  0  0  0  0  0  0
   61.5779   31.2864   47.6479 H   0  0  0  0  0  0  0  0  0  0  0  0
   61.0750   30.3380   49.5410 C   0  0  0  0  0  0  0  0  0  0  0  0
   61.4840   31.4000   50.3620 O   0  0  0  0  0  0  0  0  0  0  0  0
   61.7380   31.2860   51.7580 C   0  0  0  0  0  0  0  0  0  0  0  0
   60.8755   31.6731   52.3204 H   0  0  0  0  0  0  0  0  0  0  0  0
   61.8996   30.2290   52.0162 H   0  0  0  0  0  0  0  0  0  0  0  0
   62.6351   31.8678   52.0162 H   0  0  0  0  0  0  0  0  0  0  0  0
   60.5520   29.1910   50.1490 C   0  0  0  0  0  0  0  0  0  0  0  0
   60.4717   29.1433   51.2450 H   0  0  0  0  0  0  0  0  0  0  0  0
   60.1310   28.1060   49.3760 C   0  0  0  0  0  0  0  0  0  0  0  0
   59.7147   27.2134   49.8659 H   0  0  0  0  0  0  0  0  0  0  0  0
  1  2  1  0
  2  3  1  0
  3  4  1  0
  4  5  2  0
  5  6  1  0
  6  7  2  0
  6  8  1  0
  8  9  1  0
  8 10  1  0
  8 11  1  0
 11 12  1  0
 12 13  1  0
 12 14  1  0
 12 15  1  0
 15 16  1  0
 16 17  2  0
 17 18  1  0
 18 19  1  0
 19 20  1  0
 20 21  1  0
 20 22  1  0
 20 23  1  0
 19 24  2  0
 24 25  1  0
 24 26  1  0
 26 27  1  0
 27 28  2  0
 27 29  1  0
 29 30  1  0
  4 31  1  0
 31 32  1  0
 32 33  1  0
 33 34  1  0
 33 35  1  0
 33 36  1  0
 36 37  2  0
 37 38  1  0
 37 39  1  0
 39 40  1  0
 39 41  2  0
 41 42  1  0
 42 43  1  0
 43 44  1  0
 43 45  1  0
 43 46  1  0
 41 47  1  0
 47 48  1  0
 47 49  2  0
 49 50  1  0
 32  2  2  0
 49 36  1  0
 29 15  2  0
 26 17  1  0
M  CHG  2   3  -1  24   1
M  END
>  <UniqueID>  (59) 
54

>  <SMILES>  (59) 
COc1ccc(Cc2c[n-]/c(=N\C(=O)CSCc3cc(=O)n4[nH+]c(C)sc4n3)s2)cc1

>  <Energy>  (59) 
115.27841870744811

>  <Genealogy>  (59) 
COc1ccc(Cc2c[n-]c(=NC(=O)CSCc3cc(=O)n4[nH+]c(C)sc4n3)s2)cc1 (protonated)
COc1ccc(Cc2c[n-]/c(=N\C(=O)CSCc3cc(=O)n4[nH+]c(C)sc4n3)s2)cc1 (cis-trans isomerization)
COc1ccc(Cc2c[n-]/c(=N\C(=O)CSCc3cc(=O)n4[nH+]c(C)sc4n3)s2)cc1 (3D coordinates assigned)
COc1ccc(Cc2c[n-]/c(=N\C(=O)CSCc3cc(=O)n4[nH+]c(C)sc4n3)s2)cc1 (optimized conformer: 115.27841870744811 kcal/mol)

>  <smiles>  (59) 
COc1ccc(Cc2c[nH]c(=NC(=O)CSCc3cc(=O)n4nc(C)sc4n3)s2)cc1

>  <score_type>  (59) 
oracle

>  <origin>  (59) 
adg

>  <m_score__min__energy>  (59) 
-9.75

>  <m_primary>  (59) 
energy

$$$$
59:0
     RDKit          3D

 48 51  0  0  0  0  0  0  0  0999 V2000
   56.7060   30.4800   43.1040 C   0  0  0  0  0  0  0  0  0  0  0  0
   57.4250   31.3640   44.0790 C   0  0  0  0  0  0  0  0  0  0  0  0
   57.7770   30.8910   45.3560 C   0  0  0  0  0  0  0  0  0  0  0  0
   58.4550   31.7240   46.2510 C   0  0  0  0  0  0  0  0  0  0  0  0
   58.7970   33.0330   45.8780 C   0  0  0  0  0  0  0  0  0  0  0  0
   59.6390   34.0620   47.0340 S   0  0  0  0  0  0  0  0  0  0  0  0
   59.5670   35.5080   46.6300 O   0  0  0  0  0  0  0  0  0  0  0  0
   61.0850   33.6560   47.0830 O   0  0  0  0  0  0  0  0  0  0  0  0
   58.9400   33.8610   48.6100 N   0  0  0  0  0  0  0  0  0  0  0  0
   59.1090   32.7120   49.4530 C   0  0  0  0  0  0  0  0  0  0  0  0
   60.3850   32.1630   49.5820 C   0  0  0  0  0  0  0  0  0  0  0  0
   60.5990   31.0520   50.4010 C   0  0  0  0  0  0  0  0  0  0  0  0
   59.5350   30.4810   51.1000 C   0  0  0  0  0  0  0  0  0  0  0  0
   58.2390   31.0180   50.9910 C   0  0  0  0  0  0  0  0  0  0  0  0
   57.1170   30.4260   51.7630 C   0  0  0  0  0  0  0  0  0  0  0  0
   57.1940   29.3670   52.6690 C   0  0  0  0  0  0  0  0  0  0  0  0
   55.9560   28.9940   53.2100 C   0  0  0  0  0  0  0  0  0  0  0  0
   54.8880   29.7420   52.7250 C   0  0  0  0  0  0  0  0  0  0  0  0
   53.4750   29.5780   53.1300 C   0  0  0  0  0  0  0  0  0  0  0  0
   53.1140   28.4860   53.6530 O   0  0  0  0  0  0  0  0  0  0  0  0
   52.4710   30.6500   52.9450 C   0  0  0  0  0  0  0  0  0  0  0  0
   51.7960   31.2120   54.0470 C   0  0  0  0  0  0  0  0  0  0  0  0
   50.8740   32.2460   53.8580 C   0  0  0  0  0  0  0  0  0  0  0  0
   50.6270   32.7410   52.5750 C   0  0  0  0  0  0  0  0  0  0  0  0
   51.3100   32.2080   51.4780 C   0  0  0  0  0  0  0  0  0  0  0  0
   51.0770   32.7130   50.2050 O   0  0  0  0  0  0  0  0  0  0  0  0
   52.2300   31.1700   51.6620 C   0  0  0  0  0  0  0  0  0  0  0  0
   55.4970   30.8840   51.6440 S   0  0  0  0  0  0  0  0  0  0  0  0
   58.0340   32.1310   50.1530 C   0  0  0  0  0  0  0  0  0  0  0  0
   58.4520   33.5070   44.6010 C   0  0  0  0  0  0  0  0  0  0  0  0
   57.7660   32.6770   43.7100 C   0  0  0  0  0  0  0  0  0  0  0  0
   56.1048   29.7408   43.6536 H   0  0  0  0  0  0  0  0  0  0  0  0
   56.0462   31.0921   42.4716 H   0  0  0  0  0  0  0  0  0  0  0  0
   57.4397   29.9587   42.4716 H   0  0  0  0  0  0  0  0  0  0  0  0
   57.5183   29.8634   45.6512 H   0  0  0  0  0  0  0  0  0  0  0  0
   58.7214   31.3520   47.2513 H   0  0  0  0  0  0  0  0  0  0  0  0
   61.2288   32.6084   49.0347 H   0  0  0  0  0  0  0  0  0  0  0  0
   61.6088   30.6262   50.4952 H   0  0  0  0  0  0  0  0  0  0  0  0
   59.7106   29.6045   51.7410 H   0  0  0  0  0  0  0  0  0  0  0  0
   58.1393   28.8708   52.9340 H   0  0  0  0  0  0  0  0  0  0  0  0
   55.8399   28.1866   53.9479 H   0  0  0  0  0  0  0  0  0  0  0  0
   51.9955   30.8353   55.0611 H   0  0  0  0  0  0  0  0  0  0  0  0
   50.3417   32.6709   54.7218 H   0  0  0  0  0  0  0  0  0  0  0  0
   49.8957   33.5495   52.4283 H   0  0  0  0  0  0  0  0  0  0  0  0
   52.7686   30.7580   50.7959 H   0  0  0  0  0  0  0  0  0  0  0  0
   57.0233   32.5511   50.0440 H   0  0  0  0  0  0  0  0  0  0  0  0
   58.7217   34.5309   44.3027 H   0  0  0  0  0  0  0  0  0  0  0  0
   57.4911   33.0535   42.7137 H   0  0  0  0  0  0  0  0  0  0  0  0
  1  2  1  0
  2  3  2  0
  3  4  1  0
  4  5  2  0
  5  6  1  0
  6  7  2  0
  6  8  2  0
  6  9  1  0
  9 10  1  0
 10 11  2  0
 11 12  1  0
 12 13  2  0
 13 14  1  0
 14 15  1  0
 15 16  2  0
 16 17  1  0
 17 18  2  0
 18 19  1  0
 19 20  2  0
 19 21  1  0
 21 22  2  0
 22 23  1  0
 23 24  2  0
 24 25  1  0
 25 26  1  0
 25 27  2  0
 18 28  1  0
 14 29  2  0
  5 30  1  0
 30 31  2  0
 31  2  1  0
 29 10  1  0
 28 15  1  0
 27 21  1  0
  1 32  1  0
  1 33  1  0
  1 34  1  0
  3 35  1  0
  4 36  1  0
 11 37  1  0
 12 38  1  0
 13 39  1  0
 16 40  1  0
 17 41  1  0
 22 42  1  0
 23 43  1  0
 24 44  1  0
 27 45  1  0
 29 46  1  0
 30 47  1  0
 31 48  1  0
M  CHG  2   9  -1  26  -1
M  END
>  <UniqueID>  (60) 
55

>  <SMILES>  (60) 
Cc1ccc(S(=O)(=O)[N-]c2cccc(-c3ccc(C(=O)c4cccc([O-])c4)s3)c2)cc1

>  <Energy>  (60) 
88.16371152786884

>  <Genealogy>  (60) 
Cc1ccc(S(=O)(=O)[N-]c2cccc(-c3ccc(C(=O)c4cccc([O-])c4)s3)c2)cc1 (protonated)
Cc1ccc(S(=O)(=O)[N-]c2cccc(-c3ccc(C(=O)c4cccc([O-])c4)s3)c2)cc1 (3D coordinates assigned)
Cc1ccc(S(=O)(=O)[N-]c2cccc(-c3ccc(C(=O)c4cccc([O-])c4)s3)c2)cc1 (optimized conformer: 88.16371152786884 kcal/mol)

>  <smiles>  (60) 
Cc1ccc(S(=O)(=O)Nc2cccc(-c3ccc(C(=O)c4cccc(O)c4)s3)c2)cc1

>  <score_type>  (60) 
oracle

>  <origin>  (60) 
adg

>  <m_score__min__energy>  (60) 
-14.48

>  <m_primary>  (60) 
energy

$$$$
60:0
     RDKit          3D

 53 56  0  0  0  0  0  0  0  0999 V2000
   57.6412   20.4110   42.8090 H   0  0  0  0  0  0  0  0  0  0  0  0
   57.4090   21.3880   43.2580 C   0  0  0  0  0  0  0  0  0  0  0  0
   56.2540   22.0270   42.9330 N   0  0  0  0  0  0  0  0  0  0  0  0
   55.9360   23.2390   43.4610 C   0  0  0  0  0  0  0  0  0  0  0  0
   54.9884   23.7245   43.1848 H   0  0  0  0  0  0  0  0  0  0  0  0
   56.8080   23.8720   44.3540 C   0  0  0  0  0  0  0  0  0  0  0  0
   56.4480   25.1160   44.8930 O   0  0  0  0  0  0  0  0  0  0  0  0
   57.3340   26.1700   45.1660 C   0  0  0  0  0  0  0  0  0  0  0  0
   58.1200   26.6740   44.1280 C   0  0  0  0  0  0  0  0  0  0  0  0
   58.0323   26.2557   43.1144 H   0  0  0  0  0  0  0  0  0  0  0  0
   59.0180   27.7120   44.3840 C   0  0  0  0  0  0  0  0  0  0  0  0
   59.6328   28.1205   43.5685 H   0  0  0  0  0  0  0  0  0  0  0  0
   59.1330   28.2180   45.6400 N   0  0  0  0  0  0  0  0  0  0  0  0
   58.3970   27.7370   46.6820 C   0  0  0  0  0  0  0  0  0  0  0  0
   58.5200   28.2270   47.8830 N   0  0  0  0  0  0  0  0  0  0  0  0
   59.7200   28.7270   48.4950 C   0  0  0  0  0  0  0  0  0  0  0  0
   60.3780   28.0180   49.3040 O   0  0  0  0  0  0  0  0  0  0  0  0
   60.1530   30.0570   48.1870 N   0  0  0  0  0  0  0  0  0  0  0  0
   59.5930   30.6210   47.5090 H   0  0  0  0  0  0  0  0  0  0  0  0
   61.3030   30.6850   48.8350 C   0  0  0  0  0  0  0  0  0  0  0  0
   60.9943   31.0841   49.8124 H   0  0  0  0  0  0  0  0  0  0  0  0
   62.0932   29.9309   48.9654 H   0  0  0  0  0  0  0  0  0  0  0  0
   61.8390   31.8110   47.9860 C   0  0  0  0  0  0  0  0  0  0  0  0
   63.2190   31.8690   47.7280 C   0  0  0  0  0  0  0  0  0  0  0  0
   63.8849   31.0987   48.1442 H   0  0  0  0  0  0  0  0  0  0  0  0
   63.7510   32.8960   46.9480 C   0  0  0  0  0  0  0  0  0  0  0  0
   64.8325   32.9320   46.7501 H   0  0  0  0  0  0  0  0  0  0  0  0
   62.9130   33.8770   46.4190 C   0  0  0  0  0  0  0  0  0  0  0  0
   63.3348   34.6858   45.8042 H   0  0  0  0  0  0  0  0  0  0  0  0
   61.5390   33.8350   46.6680 C   0  0  0  0  0  0  0  0  0  0  0  0
   60.8839   34.6122   46.2476 H   0  0  0  0  0  0  0  0  0  0  0  0
   60.9860   32.8040   47.4540 C   0  0  0  0  0  0  0  0  0  0  0  0
   59.6080   32.7380   47.7270 O   0  0  0  0  0  0  0  0  0  0  0  0
   58.5840   33.4290   47.0110 C   0  0  0  0  0  0  0  0  0  0  0  0
   57.6836   33.4914   47.6398 H   0  0  0  0  0  0  0  0  0  0  0  0
   58.9472   34.4368   46.7611 H   0  0  0  0  0  0  0  0  0  0  0  0
   58.2450   32.7080   45.7340 C   0  0  0  0  0  0  0  0  0  0  0  0
   57.8350   31.3650   45.7580 C   0  0  0  0  0  0  0  0  0  0  0  0
   57.7463   30.8368   46.7188 H   0  0  0  0  0  0  0  0  0  0  0  0
   57.5390   30.6960   44.5660 C   0  0  0  0  0  0  0  0  0  0  0  0
   57.2118   29.6461   44.5911 H   0  0  0  0  0  0  0  0  0  0  0  0
   57.6590   31.3620   43.3420 C   0  0  0  0  0  0  0  0  0  0  0  0
   57.4245   30.8357   42.4050 H   0  0  0  0  0  0  0  0  0  0  0  0
   58.0760   32.6940   43.3080 C   0  0  0  0  0  0  0  0  0  0  0  0
   58.1703   33.2156   42.3442 H   0  0  0  0  0  0  0  0  0  0  0  0
   58.3740   33.3660   44.4980 C   0  0  0  0  0  0  0  0  0  0  0  0
   58.7104   34.4128   44.4668 H   0  0  0  0  0  0  0  0  0  0  0  0
   57.4870   26.6970   46.4600 C   0  0  0  0  0  0  0  0  0  0  0  0
   56.8943   26.2939   47.2944 H   0  0  0  0  0  0  0  0  0  0  0  0
   57.9960   23.2140   44.7160 C   0  0  0  0  0  0  0  0  0  0  0  0
   58.6851   23.6791   45.4363 H   0  0  0  0  0  0  0  0  0  0  0  0
   58.3010   21.9700   44.1610 C   0  0  0  0  0  0  0  0  0  0  0  0
   59.2338   21.4539   44.4320 H   0  0  0  0  0  0  0  0  0  0  0  0
  1  2  1  0
  2  3  2  0
  3  4  1  0
  4  5  1  0
  4  6  2  0
  6  7  1  0
  7  8  1  0
  8  9  1  0
  9 10  1  0
  9 11  2  0
 11 12  1  0
 11 13  1  0
 13 14  1  0
 14 15  2  0
 15 16  1  0
 16 17  2  0
 16 18  1  0
 18 19  1  0
 18 20  1  0
 20 21  1  0
 20 22  1  0
 20 23  1  0
 23 24  2  0
 24 25  1  0
 24 26  1  0
 26 27  1  0
 26 28  2  0
 28 29  1  0
 28 30  1  0
 30 31  1  0
 30 32  2  0
 32 33  1  0
 33 34  1  0
 34 35  1  0
 34 36  1  0
 34 37  1  0
 37 38  2  0
 38 39  1  0
 38 40  1  0
 40 41  1  0
 40 42  2  0
 42 43  1  0
 42 44  1  0
 44 45  1  0
 44 46  2  0
 46 47  1  0
 14 48  1  0
 48 49  1  0
  6 50  1  0
 50 51  1  0
 50 52  2  0
 52 53  1  0
 52  2  1  0
 48  8  2  0
 32 23  1  0
 46 37  1  0
M  CHG  1  13  -1
M  END
>  <UniqueID>  (61) 
56

>  <SMILES>  (61) 
O=C(/N=c1/cc(Oc2cccnc2)cc[n-]1)NCc1ccccc1OCc1ccccc1

>  <Energy>  (61) 
66.05238671061353

>  <Genealogy>  (61) 
O=C(N=c1cc(Oc2cccnc2)cc[n-]1)NCc1ccccc1OCc1ccccc1 (protonated)
O=C(/N=c1/cc(Oc2cccnc2)cc[n-]1)NCc1ccccc1OCc1ccccc1 (cis-trans isomerization)
O=C(/N=c1/cc(Oc2cccnc2)cc[n-]1)NCc1ccccc1OCc1ccccc1 (3D coordinates assigned)
O=C(/N=c1/cc(Oc2cccnc2)cc[n-]1)NCc1ccccc1OCc1ccccc1 (optimized conformer: 66.05238671061353 kcal/mol)

>  <smiles>  (61) 
O=C(N=c1cc(Oc2cccnc2)cc[nH]1)NCc1ccccc1OCc1ccccc1

>  <score_type>  (61) 
oracle

>  <origin>  (61) 
adg

>  <m_score__min__energy>  (61) 
-10.050000000000001

>  <m_primary>  (61) 
energy

$$$$
61:0
     RDKit          3D

 44 45  0  0  0  0  0  0  0  0999 V2000
   55.1384   22.4921   44.2194 H   0  0  0  0  0  0  0  0  0  0  0  0
   55.6290   23.3290   44.7380 C   0  0  0  0  0  0  0  0  0  0  0  0
   56.9760   23.2370   45.0930 C   0  0  0  0  0  0  0  0  0  0  0  0
   57.5429   22.3231   44.8619 H   0  0  0  0  0  0  0  0  0  0  0  0
   57.6070   24.3040   45.7420 C   0  0  0  0  0  0  0  0  0  0  0  0
   58.6659   24.2217   46.0284 H   0  0  0  0  0  0  0  0  0  0  0  0
   56.8930   25.4820   46.0300 C   0  0  0  0  0  0  0  0  0  0  0  0
   57.5840   26.6220   46.7420 C   0  0  0  0  0  0  0  0  0  0  0  0
   58.5116   26.2440   47.1966 H   0  0  0  0  0  0  0  0  0  0  0  0
   56.8913   27.0110   47.5029 H   0  0  0  0  0  0  0  0  0  0  0  0
   57.9280   27.7550   45.8130 C   0  0  0  0  0  0  0  0  0  0  0  0
   59.0530   28.3250   45.8860 O   0  0  0  0  0  0  0  0  0  0  0  0
   56.9460   28.2180   44.8780 N   0  0  0  0  0  0  0  0  0  0  0  0
   56.0130   27.7430   44.8570 H   0  0  0  0  0  0  0  0  0  0  0  0
   57.2300   29.3120   43.9500 C   0  0  0  0  0  0  0  0  0  0  0  0
   57.0113   28.9817   42.9238 H   0  0  0  0  0  0  0  0  0  0  0  0
   58.2904   29.5894   44.0422 H   0  0  0  0  0  0  0  0  0  0  0  0
   56.3890   30.5060   44.2720 C   0  0  0  0  0  0  0  0  0  0  0  0
   55.1440   30.3640   44.4120 O   0  0  0  0  0  0  0  0  0  0  0  0
   57.0310   31.7750   44.4780 N   0  0  0  0  0  0  0  0  0  0  0  0
   57.7760   32.1340   45.4830 C   0  0  0  0  0  0  0  0  0  0  0  0
   58.0580   31.2890   46.4970 N   0  0  0  0  0  0  0  0  0  0  0  0
   58.8550   31.8640   47.4400 C   0  0  0  0  0  0  0  0  0  0  0  0
   59.2950   31.0960   48.6460 C   0  0  0  0  0  0  0  0  0  0  0  0
   58.9872   31.6332   49.5552 H   0  0  0  0  0  0  0  0  0  0  0  0
   58.8313   30.0986   48.6348 H   0  0  0  0  0  0  0  0  0  0  0  0
   60.3900   30.9915   48.6348 H   0  0  0  0  0  0  0  0  0  0  0  0
   59.2120   33.1960   47.1770 C   0  0  0  0  0  0  0  0  0  0  0  0
   60.1050   34.0580   47.9840 C   0  0  0  0  0  0  0  0  0  0  0  0
   59.6000   34.9450   48.7240 O   0  0  0  0  0  0  0  0  0  0  0  0
   61.5360   33.8890   47.9660 N   0  0  0  0  0  0  0  0  0  0  0  0
   62.3010   34.1380   49.1900 C   0  0  0  0  0  0  0  0  0  0  0  0
   61.6684   33.9321   50.0660 H   0  0  0  0  0  0  0  0  0  0  0  0
   63.1825   33.4804   49.2116 H   0  0  0  0  0  0  0  0  0  0  0  0
   62.6266   35.1885   49.2116 H   0  0  0  0  0  0  0  0  0  0  0  0
   62.2420   33.4800   46.7500 C   0  0  0  0  0  0  0  0  0  0  0  0
   63.1640   32.9459   47.0234 H   0  0  0  0  0  0  0  0  0  0  0  0
   61.5960   32.8163   46.1566 H   0  0  0  0  0  0  0  0  0  0  0  0
   62.4964   34.3706   46.1566 H   0  0  0  0  0  0  0  0  0  0  0  0
   58.5090   33.6360   45.7090 S   0  0  0  0  0  0  0  0  0  0  0  0
   55.5270   25.5600   45.6900 C   0  0  0  0  0  0  0  0  0  0  0  0
   54.7830   26.6970   45.9930 O   0  0  0  0  0  0  0  0  0  0  0  0
   54.9030   24.4860   45.0420 C   0  0  0  0  0  0  0  0  0  0  0  0
   53.8389   24.5525   44.7713 H   0  0  0  0  0  0  0  0  0  0  0  0
  1  2  1  0
  2  3  2  0
  3  4  1  0
  3  5  1  0
  5  6  1  0
  5  7  2  0
  7  8  1  0
  8  9  1  0
  8 10  1  0
  8 11  1  0
 11 12  2  0
 11 13  1  0
 13 14  1  0
 13 15  1  0
 15 16  1  0
 15 17  1  0
 15 18  1  0
 18 19  2  0
 18 20  1  0
 20 21  2  0
 21 22  1  0
 22 23  1  0
 23 24  1  0
 24 25  1  0
 24 26  1  0
 24 27  1  0
 23 28  2  0
 28 29  1  0
 29 30  2  0
 29 31  1  0
 31 32  1  0
 32 33  1  0
 32 34  1  0
 32 35  1  0
 31 36  1  0
 36 37  1  0
 36 38  1  0
 36 39  1  0
 28 40  1  0
  7 41  1  0
 41 42  1  0
 41 43  2  0
 43 44  1  0
 43  2  1  0
 40 21  1  0
M  CHG  2  22  -1  42  -1
M  END
>  <UniqueID>  (62) 
57

>  <SMILES>  (62) 
Cc1[n-]/c(=N/C(=O)CNC(=O)Cc2ccccc2[O-])sc1C(=O)N(C)C

>  <Energy>  (62) 
75.72457826930466

>  <Genealogy>  (62) 
Cc1[n-]c(=NC(=O)CNC(=O)Cc2ccccc2[O-])sc1C(=O)N(C)C (protonated)
Cc1[n-]/c(=N/C(=O)CNC(=O)Cc2ccccc2[O-])sc1C(=O)N(C)C (cis-trans isomerization)
Cc1[n-]/c(=N/C(=O)CNC(=O)Cc2ccccc2[O-])sc1C(=O)N(C)C (3D coordinates assigned)
Cc1[n-]/c(=N/C(=O)CNC(=O)Cc2ccccc2[O-])sc1C(=O)N(C)C (optimized conformer: 75.72457826930466 kcal/mol)

>  <smiles>  (62) 
Cc1[nH]c(=NC(=O)CNC(=O)Cc2ccccc2O)sc1C(=O)N(C)C

>  <score_type>  (62) 
oracle

>  <origin>  (62) 
adg

>  <m_score__min__energy>  (62) 
-13.6

>  <m_primary>  (62) 
energy

$$$$
62:0
     RDKit          3D

 45 46  0  0  0  0  0  0  0  0999 V2000
   52.0940   23.3730   45.1890 C   0  0  0  0  0  0  0  0  0  0  0  0
   53.4600   22.9770   44.8780 N   0  0  0  0  0  0  0  0  0  0  0  0
   54.5600   23.8880   44.9370 C   0  0  0  0  0  0  0  0  0  0  0  0
   54.7050   24.6500   45.9320 O   0  0  0  0  0  0  0  0  0  0  0  0
   55.5630   23.9180   43.8230 C   0  0  0  0  0  0  0  0  0  0  0  0
   56.9040   23.5340   44.3200 N   0  0  0  0  0  0  0  0  0  0  0  0
   57.4370   22.2980   44.0230 C   0  0  0  0  0  0  0  0  0  0  0  0
   56.7090   21.2930   43.1620 C   0  0  0  0  0  0  0  0  0  0  0  0
   58.7070   21.9640   44.5040 C   0  0  0  0  0  0  0  0  0  0  0  0
   59.3880   22.8380   45.2790 N   0  0  0  0  0  0  0  0  0  0  0  0
   58.8840   24.0490   45.6150 C   0  0  0  0  0  0  0  0  0  0  0  0
   59.6170   24.8170   46.3770 N   0  0  0  0  0  0  0  0  0  0  0  0
   60.7960   25.6000   46.0150 C   0  0  0  0  0  0  0  0  0  0  0  0
   60.6840   26.9970   46.6220 C   0  0  0  0  0  0  0  0  0  0  0  0
   59.5950   27.7850   45.9410 C   0  0  0  0  0  0  0  0  0  0  0  0
   59.2080   27.4710   44.6290 C   0  0  0  0  0  0  0  0  0  0  0  0
   58.1740   28.1790   44.0100 C   0  0  0  0  0  0  0  0  0  0  0  0
   57.5120   29.2050   44.6960 C   0  0  0  0  0  0  0  0  0  0  0  0
   56.1980   30.0830   43.9220 S   0  0  0  0  0  0  0  0  0  0  0  0
   56.5210   30.2250   42.2300 N   0  0  0  0  0  0  0  0  0  0  0  0
   56.0730   31.4520   44.5300 O   0  0  0  0  0  0  0  0  0  0  0  0
   54.9040   29.3450   44.1240 O   0  0  0  0  0  0  0  0  0  0  0  0
   57.8830   29.5080   46.0130 C   0  0  0  0  0  0  0  0  0  0  0  0
   58.9170   28.8000   46.6340 C   0  0  0  0  0  0  0  0  0  0  0  0
   57.6020   24.4080   45.1260 C   0  0  0  0  0  0  0  0  0  0  0  0
   57.0920   25.5240   45.4260 O   0  0  0  0  0  0  0  0  0  0  0  0
   51.9628   23.4110   46.2805 H   0  0  0  0  0  0  0  0  0  0  0  0
   51.8936   24.3662   44.7608 H   0  0  0  0  0  0  0  0  0  0  0  0
   51.3935   22.6410   44.7608 H   0  0  0  0  0  0  0  0  0  0  0  0
   55.2527   23.2129   43.0378 H   0  0  0  0  0  0  0  0  0  0  0  0
   55.6135   24.9395   43.4181 H   0  0  0  0  0  0  0  0  0  0  0  0
   56.1855   20.5703   43.8051 H   0  0  0  0  0  0  0  0  0  0  0  0
   55.9783   21.8153   42.5269 H   0  0  0  0  0  0  0  0  0  0  0  0
   57.4330   20.7615   42.5269 H   0  0  0  0  0  0  0  0  0  0  0  0
   59.1520   20.9901   44.2518 H   0  0  0  0  0  0  0  0  0  0  0  0
   61.6987   25.1037   46.4008 H   0  0  0  0  0  0  0  0  0  0  0  0
   60.8617   25.6797   44.9199 H   0  0  0  0  0  0  0  0  0  0  0  0
   60.4501   26.9081   47.6932 H   0  0  0  0  0  0  0  0  0  0  0  0
   61.6409   27.5216   46.4839 H   0  0  0  0  0  0  0  0  0  0  0  0
   59.7208   26.6639   44.0853 H   0  0  0  0  0  0  0  0  0  0  0  0
   57.8790   27.9294   42.9801 H   0  0  0  0  0  0  0  0  0  0  0  0
   55.8720   29.5690   41.7390 H   0  0  0  0  0  0  0  0  0  0  0  0
   57.4890   29.8650   42.0720 H   0  0  0  0  0  0  0  0  0  0  0  0
   57.3591   30.3055   46.5603 H   0  0  0  0  0  0  0  0  0  0  0  0
   59.2000   29.0395   47.6696 H   0  0  0  0  0  0  0  0  0  0  0  0
  1  2  1  0
  2  3  1  0
  3  4  2  0
  3  5  1  0
  5  6  1  0
  6  7  1  0
  7  8  1  0
  7  9  2  0
  9 10  1  0
 10 11  1  0
 11 12  2  3
 12 13  1  0
 13 14  1  0
 14 15  1  0
 15 16  2  0
 16 17  1  0
 17 18  2  0
 18 19  1  0
 19 20  1  0
 19 21  2  0
 19 22  2  0
 18 23  1  0
 23 24  2  0
 11 25  1  0
 25 26  2  0
 25  6  1  0
 24 15  1  0
  1 27  1  0
  1 28  1  0
  1 29  1  0
  5 30  1  0
  5 31  1  0
  8 32  1  0
  8 33  1  0
  8 34  1  0
  9 35  1  0
 13 36  1  0
 13 37  1  0
 14 38  1  0
 14 39  1  0
 16 40  1  0
 17 41  1  0
 20 42  1  0
 20 43  1  0
 23 44  1  0
 24 45  1  0
M  CHG  2   2  -1  10  -1
M  END
>  <UniqueID>  (63) 
58

>  <SMILES>  (63) 
C[N-]C(=O)Cn1c(C)c[n-]c(=NCCc2ccc(S(N)(=O)=O)cc2)c1=O

>  <Energy>  (63) 
47.44249516940369

>  <Genealogy>  (63) 
C[N-]C(=O)Cn1c(C)c[n-]c(=NCCc2ccc(S(N)(=O)=O)cc2)c1=O (protonated)
C[N-]C(=O)Cn1c(C)c[n-]c(=NCCc2ccc(S(N)(=O)=O)cc2)c1=O (3D coordinates assigned)
C[N-]C(=O)Cn1c(C)c[n-]c(=NCCc2ccc(S(N)(=O)=O)cc2)c1=O (optimized conformer: 47.44249516940369 kcal/mol)

>  <smiles>  (63) 
CNC(=O)Cn1c(C)c[nH]c(=NCCc2ccc(S(N)(=O)=O)cc2)c1=O

>  <score_type>  (63) 
oracle

>  <origin>  (63) 
adg

>  <m_score__min__energy>  (63) 
-12.529999999999999

>  <m_primary>  (63) 
energy

$$$$
63:0
     RDKit          3D

 41 43  0  0  0  0  0  0  0  0999 V2000
   54.7710   27.4970   46.3540 H   0  0  0  0  0  0  0  0  0  0  0  0
   55.1480   26.5980   46.0760 O   0  0  0  0  0  0  0  0  0  0  0  0
   56.5200   26.3720   45.9520 C   0  0  0  0  0  0  0  0  0  0  0  0
   56.9810   25.0600   45.8120 C   0  0  0  0  0  0  0  0  0  0  0  0
   56.2654   24.2247   45.8027 H   0  0  0  0  0  0  0  0  0  0  0  0
   58.3470   24.8080   45.6840 C   0  0  0  0  0  0  0  0  0  0  0  0
   58.7144   23.7768   45.5763 H   0  0  0  0  0  0  0  0  0  0  0  0
   59.2420   25.8780   45.6940 C   0  0  0  0  0  0  0  0  0  0  0  0
   60.3214   25.6926   45.5918 H   0  0  0  0  0  0  0  0  0  0  0  0
   58.7810   27.1500   45.8300 N   0  0  0  0  0  0  0  0  0  0  0  0
   57.4520   27.4280   45.9680 C   0  0  0  0  0  0  0  0  0  0  0  0
   57.0360   28.6560   46.0870 N   0  0  0  0  0  0  0  0  0  0  0  0
   56.3530   29.4270   45.0850 C   0  0  0  0  0  0  0  0  0  0  0  0
   55.1580   29.1310   44.8210 O   0  0  0  0  0  0  0  0  0  0  0  0
   56.9740   30.6030   44.4180 C   0  0  0  0  0  0  0  0  0  0  0  0
   57.0210   30.7040   43.0150 C   0  0  0  0  0  0  0  0  0  0  0  0
   56.5781   29.9102   42.3955 H   0  0  0  0  0  0  0  0  0  0  0  0
   57.6260   31.8050   42.4030 C   0  0  0  0  0  0  0  0  0  0  0  0
   57.6361   31.8863   41.3061 H   0  0  0  0  0  0  0  0  0  0  0  0
   58.2170   32.8010   43.1800 C   0  0  0  0  0  0  0  0  0  0  0  0
   58.6866   33.6687   42.6937 H   0  0  0  0  0  0  0  0  0  0  0  0
   58.2150   32.7010   44.5750 C   0  0  0  0  0  0  0  0  0  0  0  0
   59.0070   33.9490   45.5350 S   0  0  0  0  0  0  0  0  0  0  0  0
   58.6630   35.2910   44.9540 O   0  0  0  0  0  0  0  0  0  0  0  0
   60.5010   33.7790   45.4900 O   0  0  0  0  0  0  0  0  0  0  0  0
   58.4340   33.8780   47.1790 N   0  0  0  0  0  0  0  0  0  0  0  0
   59.4580   33.3540   48.0850 C   0  0  0  0  0  0  0  0  0  0  0  0
   60.4246   33.8177   47.8389 H   0  0  0  0  0  0  0  0  0  0  0  0
   59.1617   33.5927   49.1171 H   0  0  0  0  0  0  0  0  0  0  0  0
   59.5870   31.8580   47.9630 C   0  0  0  0  0  0  0  0  0  0  0  0
   58.8800   31.0080   48.8260 C   0  0  0  0  0  0  0  0  0  0  0  0
   58.2136   31.4273   49.5942 H   0  0  0  0  0  0  0  0  0  0  0  0
   59.0290   29.6250   48.7020 C   0  0  0  0  0  0  0  0  0  0  0  0
   58.4823   28.9509   49.3779 H   0  0  0  0  0  0  0  0  0  0  0  0
   59.8480   29.1110   47.7480 N   0  0  0  0  0  0  0  0  0  0  0  0
   60.5420   29.9110   46.8970 C   0  0  0  0  0  0  0  0  0  0  0  0
   61.1985   29.4638   46.1360 H   0  0  0  0  0  0  0  0  0  0  0  0
   60.4240   31.2990   46.9860 C   0  0  0  0  0  0  0  0  0  0  0  0
   60.9825   31.9487   46.2961 H   0  0  0  0  0  0  0  0  0  0  0  0
   57.5900   31.6060   45.1900 C   0  0  0  0  0  0  0  0  0  0  0  0
   57.5812   31.5303   46.2874 H   0  0  0  0  0  0  0  0  0  0  0  0
  1  2  1  0
  2  3  1  0
  3  4  2  0
  4  5  1  0
  4  6  1  0
  6  7  1  0
  6  8  2  0
  8  9  1  0
  8 10  1  0
 10 11  1  0
 11 12  2  0
 12 13  1  0
 13 14  2  0
 13 15  1  0
 15 16  2  0
 16 17  1  0
 16 18  1  0
 18 19  1  0
 18 20  2  0
 20 21  1  0
 20 22  1  0
 22 23  1  0
 23 24  2  0
 23 25  2  0
 23 26  1  0
 26 27  1  0
 27 28  1  0
 27 29  1  0
 27 30  1  0
 30 31  2  0
 31 32  1  0
 31 33  1  0
 33 34  1  0
 33 35  2  0
 35 36  1  0
 36 37  1  0
 36 38  2  0
 38 39  1  0
 22 40  2  0
 40 41  1  0
 11  3  1  0
 40 15  1  0
 38 30  1  0
M  CHG  2  10  -1  26  -1
M  END
>  <UniqueID>  (64) 
59

>  <SMILES>  (64) 
O=C(/N=c1\[n-]cccc1O)c1cccc(S(=O)(=O)[N-]Cc2ccncc2)c1

>  <Energy>  (64) 
49.46123881974485

>  <Genealogy>  (64) 
O=C(N=c1[n-]cccc1O)c1cccc(S(=O)(=O)[N-]Cc2ccncc2)c1 (protonated)
O=C(/N=c1\[n-]cccc1O)c1cccc(S(=O)(=O)[N-]Cc2ccncc2)c1 (cis-trans isomerization)
O=C(/N=c1\[n-]cccc1O)c1cccc(S(=O)(=O)[N-]Cc2ccncc2)c1 (3D coordinates assigned)
O=C(/N=c1\[n-]cccc1O)c1cccc(S(=O)(=O)[N-]Cc2ccncc2)c1 (optimized conformer: 49.46123881974485 kcal/mol)

>  <smiles>  (64) 
O=C(N=c1[nH]cccc1O)c1cccc(S(=O)(=O)NCc2ccncc2)c1

>  <score_type>  (64) 
oracle

>  <origin>  (64) 
adg

>  <m_score__min__energy>  (64) 
-13.140000000000001

>  <m_primary>  (64) 
energy

$$$$
64:0
     RDKit          3D

 52 55  0  0  0  0  0  0  0  0999 V2000
   54.0282   23.6034   43.8364 H   0  0  0  0  0  0  0  0  0  0  0  0
   55.0880   23.3150   43.8960 C   0  0  0  0  0  0  0  0  0  0  0  0
   55.5460   22.2610   43.1700 N   0  0  0  0  0  0  0  0  0  0  0  0
   56.8460   21.8720   43.2230 C   0  0  0  0  0  0  0  0  0  0  0  0
   57.1857   21.0134   42.6251 H   0  0  0  0  0  0  0  0  0  0  0  0
   57.7540   22.5580   44.0340 C   0  0  0  0  0  0  0  0  0  0  0  0
   58.8041   22.2348   44.0868 H   0  0  0  0  0  0  0  0  0  0  0  0
   57.3130   23.6690   44.7850 C   0  0  0  0  0  0  0  0  0  0  0  0
   58.1010   24.3500   45.5700 N   0  0  0  0  0  0  0  0  0  0  0  0
   58.0170   25.7470   45.8930 C   0  0  0  0  0  0  0  0  0  0  0  0
   58.4940   26.1790   47.0890 N   0  0  0  0  0  0  0  0  0  0  0  0
   58.3850   27.4790   47.4670 C   0  0  0  0  0  0  0  0  0  0  0  0
   58.8960   27.8540   48.6040 N   0  0  0  0  0  0  0  0  0  0  0  0
   59.9820   28.7760   48.7950 C   0  0  0  0  0  0  0  0  0  0  0  0
   60.3960   29.6610   47.7830 C   0  0  0  0  0  0  0  0  0  0  0  0
   59.8999   29.6408   46.8014 H   0  0  0  0  0  0  0  0  0  0  0  0
   61.4350   30.5660   48.0190 C   0  0  0  0  0  0  0  0  0  0  0  0
   61.7632   31.2407   47.2145 H   0  0  0  0  0  0  0  0  0  0  0  0
   62.0650   30.6220   49.2760 C   0  0  0  0  0  0  0  0  0  0  0  0
   63.1350   31.5600   49.5240 N   0  0  0  0  0  0  0  0  0  0  0  0
   63.3330   32.7010   48.6210 C   0  0  0  0  0  0  0  0  0  0  0  0
   63.8232   32.3522   47.7001 H   0  0  0  0  0  0  0  0  0  0  0  0
   62.3528   33.1420   48.3872 H   0  0  0  0  0  0  0  0  0  0  0  0
   64.2090   33.7690   49.2840 C   0  0  0  0  0  0  0  0  0  0  0  0
   64.4069   34.5703   48.5568 H   0  0  0  0  0  0  0  0  0  0  0  0
   63.6718   34.1586   50.1613 H   0  0  0  0  0  0  0  0  0  0  0  0
   65.4910   33.2110   49.7400 N   0  0  0  0  0  0  0  0  0  0  0  0
   66.1130   33.0940   48.9020 H   0  0  0  0  0  0  0  0  0  0  0  0
   65.3930   31.9130   50.4410 C   0  0  0  0  0  0  0  0  0  0  0  0
   65.8708   31.1457   49.8141 H   0  0  0  0  0  0  0  0  0  0  0  0
   65.8915   32.0409   51.4132 H   0  0  0  0  0  0  0  0  0  0  0  0
   63.9540   31.4640   50.7390 C   0  0  0  0  0  0  0  0  0  0  0  0
   63.9632   30.4217   51.0904 H   0  0  0  0  0  0  0  0  0  0  0  0
   63.5261   32.1160   51.5147 H   0  0  0  0  0  0  0  0  0  0  0  0
   61.6260   29.7530   50.2920 C   0  0  0  0  0  0  0  0  0  0  0  0
   62.1043   29.7858   51.2820 H   0  0  0  0  0  0  0  0  0  0  0  0
   60.5880   28.8490   50.0540 C   0  0  0  0  0  0  0  0  0  0  0  0
   60.2440   28.1886   50.8636 H   0  0  0  0  0  0  0  0  0  0  0  0
   57.7850   28.3710   46.6330 N   0  0  0  0  0  0  0  0  0  0  0  0
   57.2610   27.9910   45.4380 C   0  0  0  0  0  0  0  0  0  0  0  0
   56.5930   28.9940   44.5790 C   0  0  0  0  0  0  0  0  0  0  0  0
   55.4040   29.3380   44.8260 O   0  0  0  0  0  0  0  0  0  0  0  0
   57.2860   29.5800   43.4670 N   0  0  0  0  0  0  0  0  0  0  0  0
   58.2710   29.2990   43.2570 H   0  0  0  0  0  0  0  0  0  0  0  0
   56.6530   30.5700   42.6050 C   0  0  0  0  0  0  0  0  0  0  0  0
   56.1633   31.3359   43.2243 H   0  0  0  0  0  0  0  0  0  0  0  0
   57.4157   31.0445   41.9700 H   0  0  0  0  0  0  0  0  0  0  0  0
   55.9023   30.0769   41.9700 H   0  0  0  0  0  0  0  0  0  0  0  0
   57.3580   26.6490   45.0470 C   0  0  0  0  0  0  0  0  0  0  0  0
   56.9252   26.3100   44.0942 H   0  0  0  0  0  0  0  0  0  0  0  0
   55.9610   24.0330   44.7180 C   0  0  0  0  0  0  0  0  0  0  0  0
   55.5882   24.8814   45.3107 H   0  0  0  0  0  0  0  0  0  0  0  0
  1  2  1  0
  2  3  1  0
  3  4  1  0
  4  5  1  0
  4  6  2  0
  6  7  1  0
  6  8  1  0
  8  9  2  3
  9 10  1  0
 10 11  2  0
 11 12  1  0
 12 13  2  0
 13 14  1  0
 14 15  2  0
 15 16  1  0
 15 17  1  0
 17 18  1  0
 17 19  2  0
 19 20  1  0
 20 21  1  0
 21 22  1  0
 21 23  1  0
 21 24  1  0
 24 25  1  0
 24 26  1  0
 24 27  1  0
 27 28  1  0
 27 29  1  0
 29 30  1  0
 29 31  1  0
 29 32  1  0
 32 33  1  0
 32 34  1  0
 19 35  1  0
 35 36  1  0
 35 37  2  0
 37 38  1  0
 12 39  1  0
 39 40  1  0
 40 41  1  0
 41 42  2  0
 41 43  1  0
 43 44  1  0
 43 45  1  0
 45 46  1  0
 45 47  1  0
 45 48  1  0
 40 49  2  0
 49 50  1  0
  8 51  1  0
 51 52  1  0
 51  2  2  0
 49 10  1  0
 37 14  1  0
 32 20  1  0
M  CHG  2   3  -1  39  -1
M  END
>  <UniqueID>  (65) 
60

>  <SMILES>  (65) 
CNC(=O)c1cc(N=c2cc[n-]cc2)n/c(=N/c2ccc(N3CCNCC3)cc2)[n-]1

>  <Energy>  (65) 
77.54959983273285

>  <Genealogy>  (65) 
CNC(=O)c1cc(N=c2cc[n-]cc2)nc(=Nc2ccc(N3CCNCC3)cc2)[n-]1 (protonated)
CNC(=O)c1cc(N=c2cc[n-]cc2)n/c(=N/c2ccc(N3CCNCC3)cc2)[n-]1 (cis-trans isomerization)
CNC(=O)c1cc(N=c2cc[n-]cc2)n/c(=N/c2ccc(N3CCNCC3)cc2)[n-]1 (3D coordinates assigned)
CNC(=O)c1cc(N=c2cc[n-]cc2)n/c(=N/c2ccc(N3CCNCC3)cc2)[n-]1 (nonaromatic ring conformer: 77.54959983273285 kcal/mol)

>  <smiles>  (65) 
CNC(=O)c1cc(N=c2cc[nH]cc2)nc(=Nc2ccc(N3CCNCC3)cc2)[nH]1

>  <score_type>  (65) 
oracle

>  <origin>  (65) 
adg

>  <m_score__min__energy>  (65) 
-11.5

>  <m_primary>  (65) 
energy

$$$$
65:0
     RDKit          3D

 43 45  0  0  0  0  0  0  0  0999 V2000
   55.1400   26.6460   45.9860 N   0  0  0  0  0  0  0  0  0  0  0  0
   55.8870   25.4770   46.3290 C   0  0  0  0  0  0  0  0  0  0  0  0
   56.2600   25.3210   47.5240 O   0  0  0  0  0  0  0  0  0  0  0  0
   56.2100   24.4610   45.2920 C   0  0  0  0  0  0  0  0  0  0  0  0
   55.2040   24.0700   44.3830 C   0  0  0  0  0  0  0  0  0  0  0  0
   55.4710   23.1390   43.3780 C   0  0  0  0  0  0  0  0  0  0  0  0
   56.7470   22.5970   43.2480 C   0  0  0  0  0  0  0  0  0  0  0  0
   57.7570   22.9680   44.1360 C   0  0  0  0  0  0  0  0  0  0  0  0
   57.4940   23.8680   45.1840 C   0  0  0  0  0  0  0  0  0  0  0  0
   58.5500   24.2520   46.0810 N   0  0  0  0  0  0  0  0  0  0  0  0
   59.2750   25.4900   46.0740 C   0  0  0  0  0  0  0  0  0  0  0  0
   60.5330   25.4570   46.1080 O   0  0  0  0  0  0  0  0  0  0  0  0
   58.5880   26.8200   45.9260 C   0  0  0  0  0  0  0  0  0  0  0  0
   59.7200   28.0770   45.2390 S   0  0  0  0  0  0  0  0  0  0  0  0
   58.4180   29.2340   44.8210 C   0  0  0  0  0  0  0  0  0  0  0  0
   58.7250   30.5200   44.5090 N   0  0  0  0  0  0  0  0  0  0  0  0
   57.7520   31.4210   44.2140 C   0  0  0  0  0  0  0  0  0  0  0  0
   58.1290   32.8280   43.8550 C   0  0  0  0  0  0  0  0  0  0  0  0
   58.5240   33.5870   45.0930 C   0  0  0  0  0  0  0  0  0  0  0  0
   59.2920   34.7590   44.9920 C   0  0  0  0  0  0  0  0  0  0  0  0
   59.6980   35.4350   46.1470 C   0  0  0  0  0  0  0  0  0  0  0  0
   59.3460   34.9430   47.4070 C   0  0  0  0  0  0  0  0  0  0  0  0
   58.5870   33.7730   47.5140 C   0  0  0  0  0  0  0  0  0  0  0  0
   58.1840   33.0920   46.3620 C   0  0  0  0  0  0  0  0  0  0  0  0
   56.4140   31.0090   44.1890 C   0  0  0  0  0  0  0  0  0  0  0  0
   56.1210   29.6790   44.4940 C   0  0  0  0  0  0  0  0  0  0  0  0
   54.9290   29.2710   44.4750 O   0  0  0  0  0  0  0  0  0  0  0  0
   57.1230   28.8220   44.8150 N   0  0  0  0  0  0  0  0  0  0  0  0
   55.5370   27.3650   45.3410 H   0  0  0  0  0  0  0  0  0  0  0  0
   54.1969   24.5043   44.4675 H   0  0  0  0  0  0  0  0  0  0  0  0
   54.6717   22.8328   42.6871 H   0  0  0  0  0  0  0  0  0  0  0  0
   56.9588   21.8759   42.4447 H   0  0  0  0  0  0  0  0  0  0  0  0
   58.7684   22.5527   44.0153 H   0  0  0  0  0  0  0  0  0  0  0  0
   57.7270   26.7057   45.2510 H   0  0  0  0  0  0  0  0  0  0  0  0
   58.2598   27.1545   46.9212 H   0  0  0  0  0  0  0  0  0  0  0  0
   58.9756   32.8104   43.1529 H   0  0  0  0  0  0  0  0  0  0  0  0
   57.2663   33.3247   43.3869 H   0  0  0  0  0  0  0  0  0  0  0  0
   59.5747   35.1460   44.0019 H   0  0  0  0  0  0  0  0  0  0  0  0
   60.2951   36.3551   46.0637 H   0  0  0  0  0  0  0  0  0  0  0  0
   59.6659   35.4760   48.3145 H   0  0  0  0  0  0  0  0  0  0  0  0
   58.3070   33.3885   48.5058 H   0  0  0  0  0  0  0  0  0  0  0  0
   57.5984   32.1650   46.4499 H   0  0  0  0  0  0  0  0  0  0  0  0
   55.6120   31.7176   43.9347 H   0  0  0  0  0  0  0  0  0  0  0  0
  1  2  1  0
  2  3  2  0
  2  4  1  0
  4  5  2  0
  5  6  1  0
  6  7  2  0
  7  8  1  0
  8  9  2  0
  9 10  1  0
 10 11  1  0
 11 12  2  0
 11 13  1  0
 13 14  1  0
 14 15  1  0
 15 16  2  0
 16 17  1  0
 17 18  1  0
 18 19  1  0
 19 20  2  0
 20 21  1  0
 21 22  2  0
 22 23  1  0
 23 24  2  0
 17 25  2  0
 25 26  1  0
 26 27  2  0
 26 28  1  0
  9  4  1  0
 28 15  1  0
 24 19  1  0
  1 29  1  0
  5 30  1  0
  6 31  1  0
  7 32  1  0
  8 33  1  0
 13 34  1  0
 13 35  1  0
 18 36  1  0
 18 37  1  0
 20 38  1  0
 21 39  1  0
 22 40  1  0
 23 41  1  0
 24 42  1  0
 25 43  1  0
M  CHG  3   1  -1  10  -1  28  -1
M  END
>  <UniqueID>  (66) 
61

>  <SMILES>  (66) 
[NH-]C(=O)c1ccccc1[N-]C(=O)CSc1nc(Cc2ccccc2)cc(=O)[n-]1

>  <Energy>  (66) 
46.17402602077896

>  <Genealogy>  (66) 
[NH-]C(=O)c1ccccc1[N-]C(=O)CSc1nc(Cc2ccccc2)cc(=O)[n-]1 (protonated)
[NH-]C(=O)c1ccccc1[N-]C(=O)CSc1nc(Cc2ccccc2)cc(=O)[n-]1 (3D coordinates assigned)
[NH-]C(=O)c1ccccc1[N-]C(=O)CSc1nc(Cc2ccccc2)cc(=O)[n-]1 (optimized conformer: 46.17402602077896 kcal/mol)

>  <smiles>  (66) 
NC(=O)c1ccccc1NC(=O)CSc1nc(Cc2ccccc2)cc(=O)[nH]1

>  <score_type>  (66) 
oracle

>  <origin>  (66) 
adg

>  <m_score__min__energy>  (66) 
-15.48

>  <m_primary>  (66) 
energy

$$$$
66:0
     RDKit          3D

 58 61  0  0  0  0  0  0  0  0999 V2000
   63.3800   32.4690   47.5140 C   0  0  0  0  0  0  0  0  0  0  0  0
   62.9330   33.6880   48.1720 N   0  0  0  0  0  0  0  0  0  0  0  0
   61.6340   33.8220   48.7560 C   0  0  0  0  0  0  0  0  0  0  0  0
   61.1840   34.9680   49.0310 O   0  0  0  0  0  0  0  0  0  0  0  0
   60.8190   32.6210   49.0360 C   0  0  0  0  0  0  0  0  0  0  0  0
   60.7420   31.9040   50.2390 C   0  0  0  0  0  0  0  0  0  0  0  0
   61.4750   32.2500   51.5050 C   0  0  0  0  0  0  0  0  0  0  0  0
   59.9380   30.8150   50.0880 N   0  0  0  0  0  0  0  0  0  0  0  0
   59.6210   29.7850   51.0870 C   0  0  0  0  0  0  0  0  0  0  0  0
   58.2330   29.9880   51.6370 C   0  0  0  0  0  0  0  0  0  0  0  0
   57.4360   31.0490   51.1790 C   0  0  0  0  0  0  0  0  0  0  0  0
   56.1420   31.2270   51.6750 C   0  0  0  0  0  0  0  0  0  0  0  0
   55.6180   30.3450   52.6390 C   0  0  0  0  0  0  0  0  0  0  0  0
   54.2350   30.5140   53.1460 C   0  0  0  0  0  0  0  0  0  0  0  0
   53.8750   29.8930   54.1840 O   0  0  0  0  0  0  0  0  0  0  0  0
   53.2930   31.3040   52.3980 N   0  0  0  0  0  0  0  0  0  0  0  0
   52.6600   31.0280   51.2880 C   0  0  0  0  0  0  0  0  0  0  0  0
   52.8770   29.8480   50.5410 C   0  0  0  0  0  0  0  0  0  0  0  0
   52.1600   29.6380   49.3610 C   0  0  0  0  0  0  0  0  0  0  0  0
   51.2490   30.5530   48.9410 N   0  0  0  0  0  0  0  0  0  0  0  0
   51.0030   31.6860   49.6490 C   0  0  0  0  0  0  0  0  0  0  0  0
   51.6960   31.9410   50.8340 C   0  0  0  0  0  0  0  0  0  0  0  0
   51.4400   33.0810   51.5290 F   0  0  0  0  0  0  0  0  0  0  0  0
   56.4250   29.2930   53.1060 C   0  0  0  0  0  0  0  0  0  0  0  0
   57.7210   29.1190   52.6130 C   0  0  0  0  0  0  0  0  0  0  0  0
   59.4890   30.8550   48.8140 C   0  0  0  0  0  0  0  0  0  0  0  0
   58.6470   29.9420   48.1750 C   0  0  0  0  0  0  0  0  0  0  0  0
   58.3250   30.1640   46.8280 C   0  0  0  0  0  0  0  0  0  0  0  0
   58.8510   31.2760   46.1260 C   0  0  0  0  0  0  0  0  0  0  0  0
   58.5010   31.4540   44.7410 N   0  0  0  0  0  0  0  0  0  0  0  0
   57.3090   30.5100   43.9010 S   0  0  0  0  0  0  0  0  0  0  0  0
   57.0120   31.1880   42.2810 C   0  0  0  0  0  0  0  0  0  0  0  0
   57.7650   29.0820   43.7970 O   0  0  0  0  0  0  0  0  0  0  0  0
   56.0230   30.5510   44.6780 O   0  0  0  0  0  0  0  0  0  0  0  0
   59.7190   32.1680   46.7970 C   0  0  0  0  0  0  0  0  0  0  0  0
   60.0020   31.9400   48.1470 C   0  0  0  0  0  0  0  0  0  0  0  0
   63.6540   31.7218   48.2733 H   0  0  0  0  0  0  0  0  0  0  0  0
   62.5687   32.0728   46.8857 H   0  0  0  0  0  0  0  0  0  0  0  0
   64.2551   32.6912   46.8857 H   0  0  0  0  0  0  0  0  0  0  0  0
   60.8639   31.9616   52.3730 H   0  0  0  0  0  0  0  0  0  0  0  0
   62.4321   31.7086   51.5342 H   0  0  0  0  0  0  0  0  0  0  0  0
   61.6653   33.3330   51.5342 H   0  0  0  0  0  0  0  0  0  0  0  0
   59.6812   28.7932   50.6151 H   0  0  0  0  0  0  0  0  0  0  0  0
   60.3437   29.8583   51.9131 H   0  0  0  0  0  0  0  0  0  0  0  0
   57.8327   31.7446   50.4249 H   0  0  0  0  0  0  0  0  0  0  0  0
   55.5277   32.0630   51.3093 H   0  0  0  0  0  0  0  0  0  0  0  0
   53.6057   29.1000   50.8867 H   0  0  0  0  0  0  0  0  0  0  0  0
   52.3341   28.7272   48.7692 H   0  0  0  0  0  0  0  0  0  0  0  0
   50.2543   32.4060   49.2870 H   0  0  0  0  0  0  0  0  0  0  0  0
   56.0331   28.6009   53.8659 H   0  0  0  0  0  0  0  0  0  0  0  0
   58.3439   28.2956   52.9924 H   0  0  0  0  0  0  0  0  0  0  0  0
   58.2466   29.0710   48.7144 H   0  0  0  0  0  0  0  0  0  0  0  0
   57.6538   29.4639   46.3090 H   0  0  0  0  0  0  0  0  0  0  0  0
   59.0490   32.1330   44.1660 H   0  0  0  0  0  0  0  0  0  0  0  0
   56.5724   32.1916   42.3785 H   0  0  0  0  0  0  0  0  0  0  0  0
   57.9628   31.2559   41.7320 H   0  0  0  0  0  0  0  0  0  0  0  0
   56.3174   30.5352   41.7320 H   0  0  0  0  0  0  0  0  0  0  0  0
   60.1626   33.0240   46.2675 H   0  0  0  0  0  0  0  0  0  0  0  0
  1  2  1  0
  2  3  1  0
  3  4  2  0
  3  5  1  0
  5  6  2  0
  6  7  1  0
  6  8  1  0
  8  9  1  0
  9 10  1  0
 10 11  2  0
 11 12  1  0
 12 13  2  0
 13 14  1  0
 14 15  2  0
 14 16  1  0
 16 17  2  3
 17 18  1  0
 18 19  2  0
 19 20  1  0
 20 21  1  0
 21 22  2  0
 22 23  1  0
 13 24  1  0
 24 25  2  0
  8 26  1  0
 26 27  2  0
 27 28  1  0
 28 29  2  0
 29 30  1  0
 30 31  1  0
 31 32  1  0
 31 33  2  0
 31 34  2  0
 29 35  1  0
 35 36  2  0
 36  5  1  0
 25 10  1  0
 36 26  1  0
 22 17  1  0
  1 37  1  0
  1 38  1  0
  1 39  1  0
  7 40  1  0
  7 41  1  0
  7 42  1  0
  9 43  1  0
  9 44  1  0
 11 45  1  0
 12 46  1  0
 18 47  1  0
 19 48  1  0
 21 49  1  0
 24 50  1  0
 25 51  1  0
 27 52  1  0
 28 53  1  0
 30 54  1  0
 32 55  1  0
 32 56  1  0
 32 57  1  0
 35 58  1  0
M  CHG  2   2  -1  20  -1
M  END
>  <UniqueID>  (67) 
62

>  <SMILES>  (67) 
C[N-]C(=O)c1c(C)n(Cc2ccc(C(=O)N=c3cc[n-]cc3F)cc2)c2ccc(NS(C)(=O)=O)cc12

>  <Energy>  (67) 
103.29855543884482

>  <Genealogy>  (67) 
C[N-]C(=O)c1c(C)n(Cc2ccc(C(=O)N=c3cc[n-]cc3F)cc2)c2ccc(NS(C)(=O)=O)cc12 (protonated)
C[N-]C(=O)c1c(C)n(Cc2ccc(C(=O)N=c3cc[n-]cc3F)cc2)c2ccc(NS(C)(=O)=O)cc12 (3D coordinates assigned)
C[N-]C(=O)c1c(C)n(Cc2ccc(C(=O)N=c3cc[n-]cc3F)cc2)c2ccc(NS(C)(=O)=O)cc12 (optimized conformer: 103.29855543884482 kcal/mol)

>  <smiles>  (67) 
CNC(=O)c1c(C)n(Cc2ccc(C(=O)N=c3cc[nH]cc3F)cc2)c2ccc(NS(C)(=O)=O)cc12

>  <score_type>  (67) 
oracle

>  <origin>  (67) 
adg

>  <m_score__min__energy>  (67) 
-13.27

>  <m_primary>  (67) 
energy

$$$$
67:0
     RDKit          3D

 46 47  0  0  0  0  0  0  0  0999 V2000
   56.1970   29.7280   43.6060 C   0  0  0  0  0  0  0  0  0  0  0  0
   56.9900   30.8970   43.9780 N   0  0  0  0  0  0  0  0  0  0  0  0
   57.2890   31.0830   45.2670 N   0  0  0  0  0  0  0  0  0  0  0  0
   58.0110   32.1480   45.7050 C   0  0  0  0  0  0  0  0  0  0  0  0
   58.3330   32.2810   47.1400 C   0  0  0  0  0  0  0  0  0  0  0  0
   57.6800   33.0890   47.8560 O   0  0  0  0  0  0  0  0  0  0  0  0
   59.3880   31.5030   47.7410 N   0  0  0  0  0  0  0  0  0  0  0  0
   59.0430   30.4970   48.7620 C   0  0  0  0  0  0  0  0  0  0  0  0
   59.1300   31.0210   50.2220 C   0  0  0  0  0  0  0  0  0  0  0  0
   58.6080   32.3920   50.4550 N   0  0  0  0  0  0  0  0  0  0  0  0
   57.8270   32.5140   51.7000 C   0  0  0  0  0  0  0  0  0  0  0  0
   59.6590   33.4180   50.3860 C   0  0  0  0  0  0  0  0  0  0  0  0
   60.5870   31.2580   46.9210 C   0  0  0  0  0  0  0  0  0  0  0  0
   61.7900   31.9810   47.4690 C   0  0  0  0  0  0  0  0  0  0  0  0
   62.5560   31.3860   48.4840 C   0  0  0  0  0  0  0  0  0  0  0  0
   63.6770   32.0410   49.0010 C   0  0  0  0  0  0  0  0  0  0  0  0
   64.0510   33.2920   48.5000 C   0  0  0  0  0  0  0  0  0  0  0  0
   63.3040   33.8870   47.4800 C   0  0  0  0  0  0  0  0  0  0  0  0
   62.1770   33.2380   46.9610 C   0  0  0  0  0  0  0  0  0  0  0  0
   61.4610   33.8420   45.9790 F   0  0  0  0  0  0  0  0  0  0  0  0
   58.4580   33.0880   44.7700 C   0  0  0  0  0  0  0  0  0  0  0  0
   58.1460   32.9120   43.4250 C   0  0  0  0  0  0  0  0  0  0  0  0
   57.4000   31.7990   43.0350 C   0  0  0  0  0  0  0  0  0  0  0  0
   57.1090   31.6380   41.8180 O   0  0  0  0  0  0  0  0  0  0  0  0
   55.8497   29.2160   44.5155 H   0  0  0  0  0  0  0  0  0  0  0  0
   55.3288   30.0481   43.0112 H   0  0  0  0  0  0  0  0  0  0  0  0
   56.8153   29.0396   43.0112 H   0  0  0  0  0  0  0  0  0  0  0  0
   58.0134   30.1565   48.5777 H   0  0  0  0  0  0  0  0  0  0  0  0
   59.7807   29.6861   48.6710 H   0  0  0  0  0  0  0  0  0  0  0  0
   58.5601   30.3309   50.8615 H   0  0  0  0  0  0  0  0  0  0  0  0
   60.2038   31.0693   50.4558 H   0  0  0  0  0  0  0  0  0  0  0  0
   57.9470   32.5920   49.6660 H   0  0  0  0  0  0  0  0  0  0  0  0
   58.4979   32.4092   52.5654 H   0  0  0  0  0  0  0  0  0  0  0  0
   57.3389   33.4993   51.7316 H   0  0  0  0  0  0  0  0  0  0  0  0
   57.0617   31.7245   51.7316 H   0  0  0  0  0  0  0  0  0  0  0  0
   59.9559   33.7078   51.4047 H   0  0  0  0  0  0  0  0  0  0  0  0
   60.5311   33.0142   49.8508 H   0  0  0  0  0  0  0  0  0  0  0  0
   59.2763   34.2995   49.8508 H   0  0  0  0  0  0  0  0  0  0  0  0
   60.7953   30.1780   46.9067 H   0  0  0  0  0  0  0  0  0  0  0  0
   60.3924   31.6336   45.9056 H   0  0  0  0  0  0  0  0  0  0  0  0
   62.2720   30.3978   48.8749 H   0  0  0  0  0  0  0  0  0  0  0  0
   64.2659   31.5720   49.8030 H   0  0  0  0  0  0  0  0  0  0  0  0
   64.9327   33.8073   48.9087 H   0  0  0  0  0  0  0  0  0  0  0  0
   63.6023   34.8687   47.0834 H   0  0  0  0  0  0  0  0  0  0  0  0
   59.0496   33.9568   45.0944 H   0  0  0  0  0  0  0  0  0  0  0  0
   58.4843   33.6435   42.6764 H   0  0  0  0  0  0  0  0  0  0  0  0
  1  2  1  0
  2  3  1  0
  3  4  2  0
  4  5  1  0
  5  6  2  0
  5  7  1  0
  7  8  1  0
  8  9  1  0
  9 10  1  0
 10 11  1  0
 10 12  1  0
  7 13  1  0
 13 14  1  0
 14 15  2  0
 15 16  1  0
 16 17  2  0
 17 18  1  0
 18 19  2  0
 19 20  1  0
  4 21  1  0
 21 22  2  0
 22 23  1  0
 23 24  2  0
 23  2  1  0
 19 14  1  0
  1 25  1  0
  1 26  1  0
  1 27  1  0
  8 28  1  0
  8 29  1  0
  9 30  1  0
  9 31  1  0
 10 32  1  0
 11 33  1  0
 11 34  1  0
 11 35  1  0
 12 36  1  0
 12 37  1  0
 12 38  1  0
 13 39  1  0
 13 40  1  0
 15 41  1  0
 16 42  1  0
 17 43  1  0
 18 44  1  0
 21 45  1  0
 22 46  1  0
M  CHG  1  10   1
M  END
>  <UniqueID>  (68) 
63

>  <SMILES>  (68) 
Cn1nc(C(=O)N(CC[NH+](C)C)Cc2ccccc2F)ccc1=O

>  <Energy>  (68) 
52.31521283106295

>  <Genealogy>  (68) 
Cn1nc(C(=O)N(CC[NH+](C)C)Cc2ccccc2F)ccc1=O (protonated)
Cn1nc(C(=O)N(CC[NH+](C)C)Cc2ccccc2F)ccc1=O (3D coordinates assigned)
Cn1nc(C(=O)N(CC[NH+](C)C)Cc2ccccc2F)ccc1=O (optimized conformer: 52.31521283106295 kcal/mol)

>  <smiles>  (68) 
CN(C)CCN(Cc1ccccc1F)C(=O)c1ccc(=O)n(C)n1

>  <score_type>  (68) 
oracle

>  <origin>  (68) 
adg

>  <m_score__min__energy>  (68) 
-5.4500000000000002

>  <m_primary>  (68) 
energy

$$$$
68:0
     RDKit          3D

 41 43  0  0  0  0  0  0  0  0999 V2000
   55.6360   29.4770   44.1840 O   0  0  0  0  0  0  0  0  0  0  0  0
   56.7520   29.3510   44.7550 C   0  0  0  0  0  0  0  0  0  0  0  0
   57.6710   28.2430   44.3210 C   0  0  0  0  0  0  0  0  0  0  0  0
   57.8060   27.2240   45.4100 C   0  0  0  0  0  0  0  0  0  0  0  0
   59.2670   26.6080   45.9800 S   0  0  0  0  0  0  0  0  0  0  0  0
   58.6000   25.5510   47.1060 C   0  0  0  0  0  0  0  0  0  0  0  0
   57.2160   25.6670   47.0470 C   0  0  0  0  0  0  0  0  0  0  0  0
   56.7750   26.5970   46.0960 C   0  0  0  0  0  0  0  0  0  0  0  0
   55.4280   26.8700   45.8630 O   0  0  0  0  0  0  0  0  0  0  0  0
   57.0490   30.1870   45.8820 N   0  0  0  0  0  0  0  0  0  0  0  0
   58.3300   30.7380   46.2060 C   0  0  0  0  0  0  0  0  0  0  0  0
   58.5260   32.1210   46.1000 C   0  0  0  0  0  0  0  0  0  0  0  0
   59.7720   32.6800   46.3990 C   0  0  0  0  0  0  0  0  0  0  0  0
   60.8420   31.8600   46.7780 C   0  0  0  0  0  0  0  0  0  0  0  0
   62.4020   32.5790   47.1640 S   0  0  0  0  0  0  0  0  0  0  0  0
   62.6270   33.8010   46.3160 O   0  0  0  0  0  0  0  0  0  0  0  0
   63.4740   31.5700   46.8650 O   0  0  0  0  0  0  0  0  0  0  0  0
   62.4550   33.0140   48.8600 N   0  0  0  0  0  0  0  0  0  0  0  0
   61.7060   34.2540   49.0950 C   0  0  0  0  0  0  0  0  0  0  0  0
   60.2850   33.8810   49.4940 C   0  0  0  0  0  0  0  0  0  0  0  0
   60.3440   32.4150   49.8830 C   0  0  0  0  0  0  0  0  0  0  0  0
   61.7900   31.9910   49.6750 C   0  0  0  0  0  0  0  0  0  0  0  0
   60.6620   30.4710   46.8380 C   0  0  0  0  0  0  0  0  0  0  0  0
   59.4120   29.9130   46.5480 C   0  0  0  0  0  0  0  0  0  0  0  0
   57.2593   27.7611   43.4220 H   0  0  0  0  0  0  0  0  0  0  0  0
   58.6625   28.6656   44.1011 H   0  0  0  0  0  0  0  0  0  0  0  0
   59.1626   24.8826   47.7744 H   0  0  0  0  0  0  0  0  0  0  0  0
   56.5337   25.0856   47.6845 H   0  0  0  0  0  0  0  0  0  0  0  0
   55.1460   27.6320   45.2560 H   0  0  0  0  0  0  0  0  0  0  0  0
   57.6968   32.7693   45.7804 H   0  0  0  0  0  0  0  0  0  0  0  0
   59.9126   33.7692   46.3362 H   0  0  0  0  0  0  0  0  0  0  0  0
   62.1813   34.8290   49.9034 H   0  0  0  0  0  0  0  0  0  0  0  0
   61.6962   34.8712   48.1845 H   0  0  0  0  0  0  0  0  0  0  0  0
   59.9522   34.4917   50.3463 H   0  0  0  0  0  0  0  0  0  0  0  0
   59.5719   34.0574   48.6753 H   0  0  0  0  0  0  0  0  0  0  0  0
   60.0543   32.2859   50.9363 H   0  0  0  0  0  0  0  0  0  0  0  0
   59.6525   31.8074   49.2809 H   0  0  0  0  0  0  0  0  0  0  0  0
   62.2959   31.9031   50.6478 H   0  0  0  0  0  0  0  0  0  0  0  0
   61.8308   31.0156   49.1681 H   0  0  0  0  0  0  0  0  0  0  0  0
   61.5042   29.8192   47.1133 H   0  0  0  0  0  0  0  0  0  0  0  0
   59.2770   28.8221   46.5884 H   0  0  0  0  0  0  0  0  0  0  0  0
  1  2  2  0
  2  3  1  0
  3  4  1  0
  4  5  1  0
  5  6  1  0
  6  7  2  0
  7  8  1  0
  8  9  1  0
  2 10  1  0
 10 11  1  0
 11 12  2  0
 12 13  1  0
 13 14  2  0
 14 15  1  0
 15 16  2  0
 15 17  2  0
 15 18  1  0
 18 19  1  0
 19 20  1  0
 20 21  1  0
 21 22  1  0
 14 23  1  0
 23 24  2  0
  8  4  2  0
 24 11  1  0
 22 18  1  0
  3 25  1  0
  3 26  1  0
  6 27  1  0
  7 28  1  0
  9 29  1  0
 12 30  1  0
 13 31  1  0
 19 32  1  0
 19 33  1  0
 20 34  1  0
 20 35  1  0
 21 36  1  0
 21 37  1  0
 22 38  1  0
 22 39  1  0
 23 40  1  0
 24 41  1  0
M  CHG  1  10  -1
M  END
>  <UniqueID>  (69) 
64

>  <SMILES>  (69) 
O=C(Cc1sccc1O)[N-]c1ccc(S(=O)(=O)N2CCCC2)cc1

>  <Energy>  (69) 
71.15874407519198

>  <Genealogy>  (69) 
O=C(Cc1sccc1O)[N-]c1ccc(S(=O)(=O)N2CCCC2)cc1 (protonated)
O=C(Cc1sccc1O)[N-]c1ccc(S(=O)(=O)N2CCCC2)cc1 (3D coordinates assigned)
O=C(Cc1sccc1O)[N-]c1ccc(S(=O)(=O)N2CCCC2)cc1 (nonaromatic ring conformer: 71.15874407519198 kcal/mol)

>  <smiles>  (69) 
O=C(Cc1sccc1O)Nc1ccc(S(=O)(=O)N2CCCC2)cc1

>  <score_type>  (69) 
oracle

>  <origin>  (69) 
adg

>  <m_score__min__energy>  (69) 
-11.119999999999999

>  <m_primary>  (69) 
energy

$$$$
69:0
     RDKit          3D

 30 31  0  0  0  0  0  0  0  0999 V2000
   59.7465   24.7420   46.3793 H   0  0  0  0  0  0  0  0  0  0  0  0
   59.3280   25.6150   45.8570 C   0  0  0  0  0  0  0  0  0  0  0  0
   60.0610   26.6700   45.6850 N   0  0  0  0  0  0  0  0  0  0  0  0
   59.5360   27.8520   45.0840 C   0  0  0  0  0  0  0  0  0  0  0  0
   60.3850   28.7290   44.5460 C   0  0  0  0  0  0  0  0  0  0  0  0
   60.0029   29.6477   44.0769 H   0  0  0  0  0  0  0  0  0  0  0  0
   61.4672   28.5335   44.5714 H   0  0  0  0  0  0  0  0  0  0  0  0
   58.0570   27.9490   44.9390 C   0  0  0  0  0  0  0  0  0  0  0  0
   57.3760   29.1260   45.0930 C   0  0  0  0  0  0  0  0  0  0  0  0
   57.8740   30.2340   45.9900 C   0  0  0  0  0  0  0  0  0  0  0  0
   57.7424   29.9411   47.0421 H   0  0  0  0  0  0  0  0  0  0  0  0
   58.9404   30.4158   45.7907 H   0  0  0  0  0  0  0  0  0  0  0  0
   57.3020   31.1522   45.7907 H   0  0  0  0  0  0  0  0  0  0  0  0
   56.0590   29.3660   44.3950 C   0  0  0  0  0  0  0  0  0  0  0  0
   55.2674   29.5102   45.1451 H   0  0  0  0  0  0  0  0  0  0  0  0
   56.1360   30.2649   43.7657 H   0  0  0  0  0  0  0  0  0  0  0  0
   55.8140   28.4977   43.7657 H   0  0  0  0  0  0  0  0  0  0  0  0
   57.3660   26.7070   44.6410 N   0  0  0  0  0  0  0  0  0  0  0  0
   57.4530   26.5250   43.6150 H   0  0  0  0  0  0  0  0  0  0  0  0
   56.3520   26.7720   44.8810 H   0  0  0  0  0  0  0  0  0  0  0  0
   57.9230   25.5700   45.3550 C   0  0  0  0  0  0  0  0  0  0  0  0
   57.1650   24.4610   45.4960 C   0  0  0  0  0  0  0  0  0  0  0  0
   57.6863   23.5154   45.7061 H   0  0  0  0  0  0  0  0  0  0  0  0
   55.6960   24.4160   45.3910 C   0  0  0  0  0  0  0  0  0  0  0  0
   55.0020   23.2820   45.1920 N   0  0  0  0  0  0  0  0  0  0  0  0
   53.7160   23.6840   45.2740 C   0  0  0  0  0  0  0  0  0  0  0  0
   52.7470   22.8940   45.1220 O   0  0  0  0  0  0  0  0  0  0  0  0
   53.5460   24.9970   45.5430 N   0  0  0  0  0  0  0  0  0  0  0  0
   54.8100   25.4430   45.6280 C   0  0  0  0  0  0  0  0  0  0  0  0
   55.1440   26.7520   45.9550 O   0  0  0  0  0  0  0  0  0  0  0  0
  1  2  1  0
  2  3  2  0
  3  4  1  0
  4  5  2  0
  5  6  1  0
  5  7  1  0
  4  8  1  0
  8  9  2  3
  9 10  1  0
 10 11  1  0
 10 12  1  0
 10 13  1  0
  9 14  1  0
 14 15  1  0
 14 16  1  0
 14 17  1  0
  8 18  1  0
 18 19  1  0
 18 20  1  0
 18 21  1  0
 21 22  2  0
 22 23  1  0
 22 24  1  0
 24 25  1  0
 25 26  1  0
 26 27  2  0
 26 28  1  0
 28 29  1  0
 29 30  1  0
 21  2  1  0
 29 24  2  0
M  CHG  4  18   1  25  -1  28  -1  30  -1
M  END
>  <UniqueID>  (70) 
65

>  <SMILES>  (70) 
C=C1N=C/C(=C\c2[n-]c(=O)[n-]c2[O-])[NH2+]C1=C(C)C

>  <Energy>  (70) 
80.59824752452026

>  <Genealogy>  (70) 
C=C1N=CC(=Cc2[n-]c(=O)[n-]c2[O-])[NH2+]C1=C(C)C (protonated)
C=C1N=C/C(=C\c2[n-]c(=O)[n-]c2[O-])[NH2+]C1=C(C)C (cis-trans isomerization)
C=C1N=C/C(=C\c2[n-]c(=O)[n-]c2[O-])[NH2+]C1=C(C)C (3D coordinates assigned)
C=C1N=C/C(=C\c2[n-]c(=O)[n-]c2[O-])[NH2+]C1=C(C)C (nonaromatic ring conformer: 80.59824752452026 kcal/mol)

>  <smiles>  (70) 
C=C1N=CC(=Cc2[nH]c(=O)[nH]c2O)NC1=C(C)C

>  <score_type>  (70) 
oracle

>  <origin>  (70) 
adg

>  <m_score__min__energy>  (70) 
-14.43

>  <m_primary>  (70) 
energy

$$$$
70:0
     RDKit          3D

 40 43  0  0  1  0  0  0  0  0999 V2000
   57.3940   25.8210   47.2350 O   0  0  0  0  0  0  0  0  0  0  0  0
   57.5050   26.9330   46.6350 C   0  0  0  0  0  0  0  0  0  0  0  0
   58.6330   27.6260   46.6230 N   0  0  0  0  0  0  0  0  0  0  0  0
   58.7270   28.7980   45.9830 C   0  0  0  0  0  0  0  0  0  0  0  0
   59.8070   29.4650   45.9690 N   0  0  0  0  0  0  0  0  0  0  0  0
   60.5930   29.7660   47.1130 C   0  0  0  0  0  0  0  0  0  0  0  0
   61.1240   31.1660   47.0780 C   0  0  0  0  0  0  0  0  0  0  0  0
   62.4860   31.4320   47.1670 C   0  0  0  0  0  0  0  0  0  0  0  0
   62.9940   32.7160   47.1370 C   0  0  0  0  0  0  0  0  0  0  0  0
   62.1410   33.7930   47.0150 C   0  0  0  0  0  0  0  0  0  0  0  0
   60.7860   33.5660   46.9250 C   0  0  0  0  0  0  0  0  0  0  0  0
   59.6360   35.0780   46.7580 Br  0  0  0  0  0  0  0  0  0  0  0  0
   60.3020   32.2660   46.9580 C   0  0  0  0  0  0  0  0  0  0  0  0
   57.6220   29.2910   45.3230 C   0  0  0  0  0  0  0  0  0  0  0  0
   56.4400   28.5460   45.3460 C   0  0  0  0  0  0  0  0  0  0  0  0
   55.5220   29.2340   44.6390 N   0  0  0  0  0  0  0  0  0  0  0  0
   56.1120   30.3610   44.1940 C   0  0  0  0  0  0  0  0  0  0  0  0
   57.3920   30.3980   44.6100 N   0  0  0  0  0  0  0  0  0  0  0  0
   58.2980   31.4650   44.3060 C   0  0  0  0  0  0  0  0  0  0  0  0
   57.9150   32.7950   44.9710 C   0  0  0  0  0  0  0  0  0  0  0  0
   58.5100   33.4500   43.7210 C   0  0  0  0  0  0  0  0  0  0  0  0
   58.1020   32.1690   42.9820 C   0  0  0  0  0  0  0  0  0  0  0  0
   56.3970   27.3730   46.0050 N   0  0  0  0  0  0  0  0  0  0  0  0
   55.2120   26.6560   46.0100 O   0  0  0  0  0  0  0  0  0  0  0  0
   59.4710   27.2780   47.1080 H   0  0  0  0  0  0  0  0  0  0  0  0
   59.9716   29.6445   48.0125 H   0  0  0  0  0  0  0  0  0  0  0  0
   61.4512   29.0780   47.1255 H   0  0  0  0  0  0  0  0  0  0  0  0
   63.1849   30.5883   47.2650 H   0  0  0  0  0  0  0  0  0  0  0  0
   64.0793   32.8797   47.2104 H   0  0  0  0  0  0  0  0  0  0  0  0
   62.5376   34.8187   46.9900 H   0  0  0  0  0  0  0  0  0  0  0  0
   59.2161   32.1064   46.8853 H   0  0  0  0  0  0  0  0  0  0  0  0
   55.6220   31.1337   43.5834 H   0  0  0  0  0  0  0  0  0  0  0  0
   59.2316   30.9234   44.5184 H   0  0  0  0  0  0  0  0  0  0  0  0
   56.8355   32.9526   45.1115 H   0  0  0  0  0  0  0  0  0  0  0  0
   58.2274   33.0634   45.9910 H   0  0  0  0  0  0  0  0  0  0  0  0
   57.9955   34.3627   43.3860 H   0  0  0  0  0  0  0  0  0  0  0  0
   59.5360   33.8458   43.6937 H   0  0  0  0  0  0  0  0  0  0  0  0
   57.0701   32.1618   42.6010 H   0  0  0  0  0  0  0  0  0  0  0  0
   58.5980   31.8372   42.0579 H   0  0  0  0  0  0  0  0  0  0  0  0
   55.0700   25.9720   46.7490 H   0  0  0  0  0  0  0  0  0  0  0  0
  1  2  2  0
  2  3  1  0
  3  4  1  0
  4  5  2  0
  5  6  1  0
  6  7  1  0
  7  8  2  0
  8  9  1  0
  9 10  2  0
 10 11  1  0
 11 12  1  0
 11 13  2  0
  4 14  1  0
 14 15  2  0
 15 16  1  0
 16 17  2  0
 17 18  1  0
 18 19  1  0
 19 20  1  0
 20 21  1  0
 21 22  1  0
 15 23  1  0
 23 24  1  0
 23  2  1  0
 13  7  1  0
 18 14  1  0
 22 19  1  0
  3 25  1  0
  6 26  1  0
  6 27  1  0
  8 28  1  0
  9 29  1  0
 10 30  1  0
 13 31  1  0
 17 32  1  0
 19 33  1  0
 20 34  1  0
 20 35  1  0
 21 36  1  0
 21 37  1  0
 22 38  1  0
 22 39  1  0
 24 40  1  0
M  END
>  <smiles>  (71) 
O=c1[nH]c(=NCc2cccc(Br)c2)c2c(ncn2C2CCC2)n1O

>  <score_type>  (71) 
oracle

>  <origin>  (71) 
adg

>  <m_score__min__energy>  (71) 
-9.0299999999999994

>  <m_primary>  (71) 
energy

$$$$
71:0
     RDKit          3D

 33 35  0  0  0  0  0  0  0  0999 V2000
   56.9550   30.7230   42.5040 O   0  0  0  0  0  0  0  0  0  0  0  0
   57.1340   30.1860   43.6320 C   0  0  0  0  0  0  0  0  0  0  0  0
   57.6170   28.7710   43.7060 C   0  0  0  0  0  0  0  0  0  0  0  0
   58.6430   28.6210   44.8060 C   0  0  0  0  0  0  0  0  0  0  0  0
   59.8060   29.4120   44.7610 C   0  0  0  0  0  0  0  0  0  0  0  0
   60.7380   29.3660   45.7980 C   0  0  0  0  0  0  0  0  0  0  0  0
   60.5170   28.5440   46.9030 C   0  0  0  0  0  0  0  0  0  0  0  0
   59.3650   27.7600   46.9710 C   0  0  0  0  0  0  0  0  0  0  0  0
   58.4260   27.7800   45.9280 C   0  0  0  0  0  0  0  0  0  0  0  0
   57.2210   26.9400   46.0550 C   0  0  0  0  0  0  0  0  0  0  0  0
   57.1860   25.6220   46.4510 C   0  0  0  0  0  0  0  0  0  0  0  0
   55.8590   25.2520   46.3710 C   0  0  0  0  0  0  0  0  0  0  0  0
   55.3730   23.9930   46.6960 O   0  0  0  0  0  0  0  0  0  0  0  0
   55.0740   26.2560   45.9320 N   0  0  0  0  0  0  0  0  0  0  0  0
   55.9220   27.2820   45.7340 C   0  0  0  0  0  0  0  0  0  0  0  0
   55.5200   28.5180   45.2400 O   0  0  0  0  0  0  0  0  0  0  0  0
   56.8740   30.9040   44.8490 N   0  0  0  0  0  0  0  0  0  0  0  0
   57.4820   31.9730   45.2710 C   0  0  0  0  0  0  0  0  0  0  0  0
   57.7010   33.0370   44.4480 N   0  0  0  0  0  0  0  0  0  0  0  0
   58.3310   34.1540   44.8950 C   0  0  0  0  0  0  0  0  0  0  0  0
   58.7650   34.2240   46.2180 C   0  0  0  0  0  0  0  0  0  0  0  0
   58.5350   33.1300   47.0490 C   0  0  0  0  0  0  0  0  0  0  0  0
   57.9000   32.0310   46.5630 N   0  0  0  0  0  0  0  0  0  0  0  0
   56.7644   28.1074   43.9127 H   0  0  0  0  0  0  0  0  0  0  0  0
   58.0815   28.5019   42.7459 H   0  0  0  0  0  0  0  0  0  0  0  0
   59.9819   30.0731   43.8996 H   0  0  0  0  0  0  0  0  0  0  0  0
   61.6494   29.9795   45.7441 H   0  0  0  0  0  0  0  0  0  0  0  0
   61.2515   28.5139   47.7213 H   0  0  0  0  0  0  0  0  0  0  0  0
   59.1912   27.1209   47.8493 H   0  0  0  0  0  0  0  0  0  0  0  0
   58.0351   24.9969   46.7645 H   0  0  0  0  0  0  0  0  0  0  0  0
   58.4985   35.0018   44.2145 H   0  0  0  0  0  0  0  0  0  0  0  0
   59.2766   35.1213   46.5964 H   0  0  0  0  0  0  0  0  0  0  0  0
   58.8669   33.1555   48.0974 H   0  0  0  0  0  0  0  0  0  0  0  0
  1  2  2  0
  2  3  1  0
  3  4  1  0
  4  5  2  0
  5  6  1  0
  6  7  2  0
  7  8  1  0
  8  9  2  0
  9 10  1  0
 10 11  1  0
 11 12  2  0
 12 13  1  0
 12 14  1  0
 14 15  1  0
 15 16  1  0
  2 17  1  0
 17 18  2  3
 18 19  1  0
 19 20  2  0
 20 21  1  0
 21 22  2  0
 22 23  1  0
  9  4  1  0
 15 10  2  0
 23 18  1  0
  3 24  1  0
  3 25  1  0
  5 26  1  0
  6 27  1  0
  7 28  1  0
  8 29  1  0
 11 30  1  0
 20 31  1  0
 21 32  1  0
 22 33  1  0
M  CHG  4  13  -1  14  -1  16  -1  23  -1
M  END
>  <UniqueID>  (72) 
66

>  <SMILES>  (72) 
O=C(Cc1ccccc1-c1cc([O-])[n-]c1[O-])N=c1nccc[n-]1

>  <Energy>  (72) 
71.95744615199057

>  <Genealogy>  (72) 
O=C(Cc1ccccc1-c1cc([O-])[n-]c1[O-])N=c1nccc[n-]1 (protonated)
O=C(Cc1ccccc1-c1cc([O-])[n-]c1[O-])N=c1nccc[n-]1 (3D coordinates assigned)
O=C(Cc1ccccc1-c1cc([O-])[n-]c1[O-])N=c1nccc[n-]1 (optimized conformer: 71.95744615199057 kcal/mol)

>  <smiles>  (72) 
O=C(Cc1ccccc1-c1cc(O)[nH]c1O)N=c1nccc[nH]1

>  <score_type>  (72) 
oracle

>  <origin>  (72) 
adg

>  <m_score__min__energy>  (72) 
-16.640000000000001

>  <m_primary>  (72) 
energy

$$$$
72:0
     RDKit          3D

 45 47  0  0  0  0  0  0  0  0999 V2000
   60.5220   34.2800   46.6050 C   0  0  0  0  0  0  0  0  0  0  0  0
   59.3020   34.1550   45.7540 C   0  0  0  0  0  0  0  0  0  0  0  0
   58.8650   35.1640   45.1380 O   0  0  0  0  0  0  0  0  0  0  0  0
   58.6200   32.8960   45.6630 N   0  0  0  0  0  0  0  0  0  0  0  0
   57.3510   32.7390   44.9540 C   0  0  0  0  0  0  0  0  0  0  0  0
   57.0210   31.2880   44.8190 C   0  0  0  0  0  0  0  0  0  0  0  0
   57.8330   30.3090   45.2710 N   0  0  0  0  0  0  0  0  0  0  0  0
   57.1230   29.1860   45.0650 C   0  0  0  0  0  0  0  0  0  0  0  0
   57.5440   27.8440   45.5260 C   0  0  0  0  0  0  0  0  0  0  0  0
   56.5600   26.9570   45.9910 C   0  0  0  0  0  0  0  0  0  0  0  0
   56.9100   25.7250   46.5640 C   0  0  0  0  0  0  0  0  0  0  0  0
   55.9310   24.8600   47.1550 N   0  0  0  0  0  0  0  0  0  0  0  0
   55.9310   23.1290   47.0180 S   0  0  0  0  0  0  0  0  0  0  0  0
   54.6070   22.5950   47.4850 O   0  0  0  0  0  0  0  0  0  0  0  0
   57.0220   22.5700   47.8860 O   0  0  0  0  0  0  0  0  0  0  0  0
   56.1700   22.6630   45.3340 C   0  0  0  0  0  0  0  0  0  0  0  0
   55.4930   23.3510   44.3170 C   0  0  0  0  0  0  0  0  0  0  0  0
   55.7290   23.0320   42.9760 C   0  0  0  0  0  0  0  0  0  0  0  0
   56.6390   22.0250   42.6440 C   0  0  0  0  0  0  0  0  0  0  0  0
   57.3130   21.3320   43.6530 C   0  0  0  0  0  0  0  0  0  0  0  0
   57.0790   21.6470   44.9960 C   0  0  0  0  0  0  0  0  0  0  0  0
   58.2530   25.3470   46.6010 C   0  0  0  0  0  0  0  0  0  0  0  0
   59.2430   26.2010   46.1110 C   0  0  0  0  0  0  0  0  0  0  0  0
   58.9060   27.4540   45.5730 C   0  0  0  0  0  0  0  0  0  0  0  0
   60.0060   28.3530   45.0730 C   0  0  0  0  0  0  0  0  0  0  0  0
   55.9020   29.5120   44.5150 C   0  0  0  0  0  0  0  0  0  0  0  0
   55.8320   30.8450   44.3590 N   0  0  0  0  0  0  0  0  0  0  0  0
   60.2335   34.2504   47.6661 H   0  0  0  0  0  0  0  0  0  0  0  0
   61.2073   33.4474   46.3880 H   0  0  0  0  0  0  0  0  0  0  0  0
   61.0242   35.2343   46.3880 H   0  0  0  0  0  0  0  0  0  0  0  0
   59.0300   32.0630   46.1420 H   0  0  0  0  0  0  0  0  0  0  0  0
   56.5529   33.2438   45.5182 H   0  0  0  0  0  0  0  0  0  0  0  0
   57.4376   33.1858   43.9526 H   0  0  0  0  0  0  0  0  0  0  0  0
   55.4985   27.2321   45.9048 H   0  0  0  0  0  0  0  0  0  0  0  0
   54.7747   24.1433   44.5745 H   0  0  0  0  0  0  0  0  0  0  0  0
   55.1971   23.5750   42.1809 H   0  0  0  0  0  0  0  0  0  0  0  0
   56.8248   21.7778   41.5884 H   0  0  0  0  0  0  0  0  0  0  0  0
   58.0281   20.5382   43.3912 H   0  0  0  0  0  0  0  0  0  0  0  0
   57.6080   21.0978   45.7888 H   0  0  0  0  0  0  0  0  0  0  0  0
   58.5336   24.3691   47.0193 H   0  0  0  0  0  0  0  0  0  0  0  0
   60.2974   25.8895   46.1466 H   0  0  0  0  0  0  0  0  0  0  0  0
   60.5404   28.7898   45.9295 H   0  0  0  0  0  0  0  0  0  0  0  0
   60.7089   27.7675   44.4621 H   0  0  0  0  0  0  0  0  0  0  0  0
   59.5722   29.1584   44.4621 H   0  0  0  0  0  0  0  0  0  0  0  0
   55.1114   28.7958   44.2467 H   0  0  0  0  0  0  0  0  0  0  0  0
  1  2  1  0
  2  3  2  0
  2  4  1  0
  4  5  1  0
  5  6  1  0
  6  7  2  0
  7  8  1  0
  8  9  1  0
  9 10  2  0
 10 11  1  0
 11 12  1  0
 12 13  1  0
 13 14  2  0
 13 15  2  0
 13 16  1  0
 16 17  2  0
 17 18  1  0
 18 19  2  0
 19 20  1  0
 20 21  2  0
 11 22  2  0
 22 23  1  0
 23 24  2  0
 24 25  1  0
  8 26  2  0
 26 27  1  0
 27  6  1  0
 24  9  1  0
 21 16  1  0
  1 28  1  0
  1 29  1  0
  1 30  1  0
  4 31  1  0
  5 32  1  0
  5 33  1  0
 10 34  1  0
 17 35  1  0
 18 36  1  0
 19 37  1  0
 20 38  1  0
 21 39  1  0
 22 40  1  0
 23 41  1  0
 25 42  1  0
 25 43  1  0
 25 44  1  0
 26 45  1  0
M  CHG  2  12  -1  27  -1
M  END
>  <UniqueID>  (73) 
67

>  <SMILES>  (73) 
CC(=O)NCc1nc(-c2cc([N-]S(=O)(=O)c3ccccc3)ccc2C)c[n-]1

>  <Energy>  (73) 
76.366402247394

>  <Genealogy>  (73) 
CC(=O)NCc1nc(-c2cc([N-]S(=O)(=O)c3ccccc3)ccc2C)c[n-]1 (protonated)
CC(=O)NCc1nc(-c2cc([N-]S(=O)(=O)c3ccccc3)ccc2C)c[n-]1 (3D coordinates assigned)
CC(=O)NCc1nc(-c2cc([N-]S(=O)(=O)c3ccccc3)ccc2C)c[n-]1 (optimized conformer: 76.366402247394 kcal/mol)

>  <smiles>  (73) 
CC(=O)NCc1nc(-c2cc(NS(=O)(=O)c3ccccc3)ccc2C)c[nH]1

>  <score_type>  (73) 
oracle

>  <origin>  (73) 
adg

>  <m_score__min__energy>  (73) 
-11.6

>  <m_primary>  (73) 
energy

$$$$
73:0
     RDKit          3D

 73 76  0  0  0  0  0  0  0  0999 V2000
   59.0480   29.4520   50.1310 C   0  0  0  0  0  0  0  0  0  0  0  0
   59.2650   30.6260   49.2050 C   0  0  0  0  0  0  0  0  0  0  0  0
   58.7730   31.8760   49.6070 C   0  0  0  0  0  0  0  0  0  0  0  0
   58.9460   32.9880   48.7950 C   0  0  0  0  0  0  0  0  0  0  0  0
   59.6140   32.8630   47.5810 C   0  0  0  0  0  0  0  0  0  0  0  0
   59.8450   34.0670   46.7590 C   0  0  0  0  0  0  0  0  0  0  0  0
   60.5430   35.0040   47.2290 O   0  0  0  0  0  0  0  0  0  0  0  0
   59.3280   34.1810   45.4250 N   0  0  0  0  0  0  0  0  0  0  0  0
   57.9130   34.1370   45.0620 C   0  0  0  0  0  0  0  0  0  0  0  0
   57.5780   32.8470   44.3620 C   0  0  0  0  0  0  0  0  0  0  0  0
   57.7890   32.7090   42.9780 C   0  0  0  0  0  0  0  0  0  0  0  0
   57.4430   31.5210   42.3260 C   0  0  0  0  0  0  0  0  0  0  0  0
   56.8980   30.4570   43.0540 C   0  0  0  0  0  0  0  0  0  0  0  0
   56.5730   29.3000   42.4240 F   0  0  0  0  0  0  0  0  0  0  0  0
   56.6950   30.5830   44.4330 C   0  0  0  0  0  0  0  0  0  0  0  0
   57.0330   31.7730   45.0850 C   0  0  0  0  0  0  0  0  0  0  0  0
   60.0690   31.5990   47.1720 C   0  0  0  0  0  0  0  0  0  0  0  0
   60.6300   31.4880   46.0470 O   0  0  0  0  0  0  0  0  0  0  0  0
   59.8960   30.4930   47.9820 N   0  0  0  0  0  0  0  0  0  0  0  0
   60.3710   29.1710   47.5150 C   0  0  0  0  0  0  0  0  0  0  0  0
   59.4270   28.5800   46.4890 C   0  0  0  0  0  0  0  0  0  0  0  0
   59.7170   28.7210   45.1230 C   0  0  0  0  0  0  0  0  0  0  0  0
   58.8900   28.1460   44.1590 C   0  0  0  0  0  0  0  0  0  0  0  0
   57.7620   27.4220   44.5450 C   0  0  0  0  0  0  0  0  0  0  0  0
   57.4450   27.2620   45.9040 C   0  0  0  0  0  0  0  0  0  0  0  0
   56.2590   26.4580   46.2850 C   0  0  0  0  0  0  0  0  0  0  0  0
   55.1610   26.6430   45.6890 O   0  0  0  0  0  0  0  0  0  0  0  0
   56.3470   25.4810   47.3310 N   0  0  0  0  0  0  0  0  0  0  0  0
   57.2660   24.3460   47.3160 C   0  0  0  0  0  0  0  0  0  0  0  0
   58.6220   24.7710   46.7400 C   0  0  0  0  0  0  0  0  0  0  0  0
   58.8700   24.2300   45.3150 C   0  0  0  0  0  0  0  0  0  0  0  0
   57.8210   23.2560   44.9330 N   0  0  0  0  0  0  0  0  0  0  0  0
   56.7050   23.9200   44.2140 C   0  0  0  0  0  0  0  0  0  0  0  0
   55.8630   22.9340   43.3730 C   0  0  0  0  0  0  0  0  0  0  0  0
   55.9300   21.5550   43.8920 N   0  0  0  0  0  0  0  0  0  0  0  0
   55.2280   21.4210   45.1810 C   0  0  0  0  0  0  0  0  0  0  0  0
   57.3230   21.0440   43.9500 C   0  0  0  0  0  0  0  0  0  0  0  0
   58.3790   22.1520   44.1340 C   0  0  0  0  0  0  0  0  0  0  0  0
   58.2880   27.8420   46.8780 C   0  0  0  0  0  0  0  0  0  0  0  0
   58.0100   27.6690   48.2300 O   0  0  0  0  0  0  0  0  0  0  0  0
   59.1109   29.7921   51.1752 H   0  0  0  0  0  0  0  0  0  0  0  0
   58.0544   29.0178   49.9460 H   0  0  0  0  0  0  0  0  0  0  0  0
   59.8208   28.6913   49.9460 H   0  0  0  0  0  0  0  0  0  0  0  0
   58.2484   31.9754   50.5687 H   0  0  0  0  0  0  0  0  0  0  0  0
   58.5556   33.9667   49.1107 H   0  0  0  0  0  0  0  0  0  0  0  0
   57.3043   34.2203   45.9745 H   0  0  0  0  0  0  0  0  0  0  0  0
   57.6989   34.9730   44.3798 H   0  0  0  0  0  0  0  0  0  0  0  0
   58.2282   33.5395   42.4058 H   0  0  0  0  0  0  0  0  0  0  0  0
   57.5991   31.4229   41.2416 H   0  0  0  0  0  0  0  0  0  0  0  0
   56.2692   29.7451   45.0045 H   0  0  0  0  0  0  0  0  0  0  0  0
   56.8714   31.8685   46.1689 H   0  0  0  0  0  0  0  0  0  0  0  0
   61.3664   29.2873   47.0615 H   0  0  0  0  0  0  0  0  0  0  0  0
   60.4149   28.4919   48.3792 H   0  0  0  0  0  0  0  0  0  0  0  0
   60.6047   29.2903   44.8102 H   0  0  0  0  0  0  0  0  0  0  0  0
   59.1277   28.2636   43.0914 H   0  0  0  0  0  0  0  0  0  0  0  0
   57.1146   26.9721   43.7779 H   0  0  0  0  0  0  0  0  0  0  0  0
   57.4065   23.9785   48.3432 H   0  0  0  0  0  0  0  0  0  0  0  0
   56.8424   23.5491   46.6870 H   0  0  0  0  0  0  0  0  0  0  0  0
   58.6606   25.8699   46.7091 H   0  0  0  0  0  0  0  0  0  0  0  0
   59.4021   24.3502   47.3915 H   0  0  0  0  0  0  0  0  0  0  0  0
   58.8596   25.0690   44.6037 H   0  0  0  0  0  0  0  0  0  0  0  0
   59.8462   23.7235   45.2947 H   0  0  0  0  0  0  0  0  0  0  0  0
   56.0479   24.4014   44.9532 H   0  0  0  0  0  0  0  0  0  0  0  0
   57.1464   24.6522   43.5219 H   0  0  0  0  0  0  0  0  0  0  0  0
   54.8142   23.2656   43.3847 H   0  0  0  0  0  0  0  0  0  0  0  0
   56.2720   22.9290   42.3519 H   0  0  0  0  0  0  0  0  0  0  0  0
   55.9443   21.5577   46.0046 H   0  0  0  0  0  0  0  0  0  0  0  0
   54.4395   22.1848   45.2502 H   0  0  0  0  0  0  0  0  0  0  0  0
   54.7763   20.4204   45.2502 H   0  0  0  0  0  0  0  0  0  0  0  0
   57.4020   20.3444   44.7951 H   0  0  0  0  0  0  0  0  0  0  0  0
   57.5293   20.5585   42.9847 H   0  0  0  0  0  0  0  0  0  0  0  0
   59.2563   21.7361   44.6510 H   0  0  0  0  0  0  0  0  0  0  0  0
   58.6736   22.5359   43.1461 H   0  0  0  0  0  0  0  0  0  0  0  0
  1  2  1  0
  2  3  2  0
  3  4  1  0
  4  5  2  0
  5  6  1  0
  6  7  2  0
  6  8  1  0
  8  9  1  0
  9 10  1  0
 10 11  2  0
 11 12  1  0
 12 13  2  0
 13 14  1  0
 13 15  1  0
 15 16  2  0
  5 17  1  0
 17 18  2  0
 17 19  1  0
 19 20  1  0
 20 21  1  0
 21 22  2  0
 22 23  1  0
 23 24  2  0
 24 25  1  0
 25 26  1  0
 26 27  2  0
 26 28  1  0
 28 29  1  0
 29 30  1  0
 30 31  1  0
 31 32  1  0
 32 33  1  0
 33 34  1  0
 34 35  1  0
 35 36  1  0
 35 37  1  0
 37 38  1  0
 25 39  2  0
 39 40  1  0
 19  2  1  0
 39 21  1  0
 16 10  1  0
 38 32  1  0
  1 41  1  0
  1 42  1  0
  1 43  1  0
  3 44  1  0
  4 45  1  0
  9 46  1  0
  9 47  1  0
 11 48  1  0
 12 49  1  0
 15 50  1  0
 16 51  1  0
 20 52  1  0
 20 53  1  0
 22 54  1  0
 23 55  1  0
 24 56  1  0
 29 57  1  0
 29 58  1  0
 30 59  1  0
 30 60  1  0
 31 61  1  0
 31 62  1  0
 33 63  1  0
 33 64  1  0
 34 65  1  0
 34 66  1  0
 36 67  1  0
 36 68  1  0
 36 69  1  0
 37 70  1  0
 37 71  1  0
 38 72  1  0
 38 73  1  0
M  CHG  3   8  -1  28  -1  40  -1
M  END
>  <UniqueID>  (74) 
68

>  <SMILES>  (74) 
Cc1ccc(C(=O)[N-]Cc2ccc(F)cc2)c(=O)n1Cc1cccc(C(=O)[N-]CCCN2CCN(C)CC2)c1[O-]

>  <Energy>  (74) 
96.9363615595623

>  <Genealogy>  (74) 
Cc1ccc(C(=O)[N-]Cc2ccc(F)cc2)c(=O)n1Cc1cccc(C(=O)[N-]CCCN2CCN(C)CC2)c1[O-] (protonated)
Cc1ccc(C(=O)[N-]Cc2ccc(F)cc2)c(=O)n1Cc1cccc(C(=O)[N-]CCCN2CCN(C)CC2)c1[O-] (3D coordinates assigned)
Cc1ccc(C(=O)[N-]Cc2ccc(F)cc2)c(=O)n1Cc1cccc(C(=O)[N-]CCCN2CCN(C)CC2)c1[O-] (nonaromatic ring conformer: 96.9363615595623 kcal/mol)

>  <smiles>  (74) 
Cc1ccc(C(=O)NCc2ccc(F)cc2)c(=O)n1Cc1cccc(C(=O)NCCCN2CCN(C)CC2)c1O

>  <score_type>  (74) 
oracle

>  <origin>  (74) 
adg

>  <m_score__min__energy>  (74) 
-15.81

>  <m_primary>  (74) 
energy

$$$$
74:0
     RDKit          3D

 37 38  0  0  0  0  0  0  0  0999 V2000
   59.9460   26.7960   48.1510 C   0  0  0  0  0  0  0  0  0  0  0  0
   59.8140   26.8470   46.6190 C   0  0  0  0  0  0  0  0  0  0  0  0
   59.8730   25.4400   46.0110 C   0  0  0  0  0  0  0  0  0  0  0  0
   58.5530   27.5930   46.1590 C   0  0  0  0  0  0  0  0  0  0  0  0
   58.5880   28.9390   45.6850 C   0  0  0  0  0  0  0  0  0  0  0  0
   60.1390   29.8810   45.8100 S   0  0  0  0  0  0  0  0  0  0  0  0
   59.6400   30.8320   47.2530 C   0  0  0  0  0  0  0  0  0  0  0  0
   59.6440   32.2310   47.2070 C   0  0  0  0  0  0  0  0  0  0  0  0
   59.2630   32.9760   48.3270 C   0  0  0  0  0  0  0  0  0  0  0  0
   58.8990   32.3230   49.5090 C   0  0  0  0  0  0  0  0  0  0  0  0
   58.5330   33.0440   50.5970 F   0  0  0  0  0  0  0  0  0  0  0  0
   58.9330   30.9270   49.5730 C   0  0  0  0  0  0  0  0  0  0  0  0
   59.3140   30.1840   48.4520 C   0  0  0  0  0  0  0  0  0  0  0  0
   57.4520   29.5000   45.1250 N   0  0  0  0  0  0  0  0  0  0  0  0
   57.4250   31.0650   44.3200 S   0  0  0  0  0  0  0  0  0  0  0  0
   56.9520   30.8470   42.6170 C   0  0  0  0  0  0  0  0  0  0  0  0
   56.4920   32.0450   44.9720 O   0  0  0  0  0  0  0  0  0  0  0  0
   58.8050   31.6610   44.3640 O   0  0  0  0  0  0  0  0  0  0  0  0
   56.2710   28.8050   45.1480 C   0  0  0  0  0  0  0  0  0  0  0  0
   55.2080   29.3210   44.7070 O   0  0  0  0  0  0  0  0  0  0  0  0
   56.2210   27.5480   45.6360 N   0  0  0  0  0  0  0  0  0  0  0  0
   57.3150   26.9220   46.1130 C   0  0  0  0  0  0  0  0  0  0  0  0
   57.2010   25.7310   46.5060 O   0  0  0  0  0  0  0  0  0  0  0  0
   59.0142   27.1560   48.6115 H   0  0  0  0  0  0  0  0  0  0  0  0
   60.1354   25.7600   48.4684 H   0  0  0  0  0  0  0  0  0  0  0  0
   60.7828   27.4355   48.4684 H   0  0  0  0  0  0  0  0  0  0  0  0
   60.6757   27.4215   46.2483 H   0  0  0  0  0  0  0  0  0  0  0  0
   59.9043   24.6929   46.8178 H   0  0  0  0  0  0  0  0  0  0  0  0
   58.9811   25.2714   45.3896 H   0  0  0  0  0  0  0  0  0  0  0  0
   60.7758   25.3467   45.3896 H   0  0  0  0  0  0  0  0  0  0  0  0
   59.9486   32.7471   46.2846 H   0  0  0  0  0  0  0  0  0  0  0  0
   59.2495   34.0749   48.2786 H   0  0  0  0  0  0  0  0  0  0  0  0
   58.6597   30.4128   50.5062 H   0  0  0  0  0  0  0  0  0  0  0  0
   59.3581   29.0865   48.5112 H   0  0  0  0  0  0  0  0  0  0  0  0
   55.9539   30.3870   42.5697 H   0  0  0  0  0  0  0  0  0  0  0  0
   56.9290   31.8254   42.1147 H   0  0  0  0  0  0  0  0  0  0  0  0
   57.6809   30.1940   42.1147 H   0  0  0  0  0  0  0  0  0  0  0  0
  1  2  1  0
  2  3  1  0
  2  4  1  0
  4  5  2  0
  5  6  1  0
  6  7  1  0
  7  8  2  0
  8  9  1  0
  9 10  2  0
 10 11  1  0
 10 12  1  0
 12 13  2  0
  5 14  1  0
 14 15  1  0
 15 16  1  0
 15 17  2  0
 15 18  2  0
 14 19  1  0
 19 20  2  0
 19 21  1  0
 21 22  1  0
 22 23  2  0
 22  4  1  0
 13  7  1  0
  1 24  1  0
  1 25  1  0
  1 26  1  0
  2 27  1  0
  3 28  1  0
  3 29  1  0
  3 30  1  0
  8 31  1  0
  9 32  1  0
 12 33  1  0
 13 34  1  0
 16 35  1  0
 16 36  1  0
 16 37  1  0
M  CHG  1  21  -1
M  END
>  <UniqueID>  (75) 
69

>  <SMILES>  (75) 
CC(C)c1c(Sc2ccc(F)cc2)n(S(C)(=O)=O)c(=O)[n-]c1=O

>  <Energy>  (75) 
42.9149661872454

>  <Genealogy>  (75) 
CC(C)c1c(Sc2ccc(F)cc2)n(S(C)(=O)=O)c(=O)[n-]c1=O (protonated)
CC(C)c1c(Sc2ccc(F)cc2)n(S(C)(=O)=O)c(=O)[n-]c1=O (3D coordinates assigned)
CC(C)c1c(Sc2ccc(F)cc2)n(S(C)(=O)=O)c(=O)[n-]c1=O (optimized conformer: 42.9149661872454 kcal/mol)

>  <smiles>  (75) 
CC(C)c1c(Sc2ccc(F)cc2)n(S(C)(=O)=O)c(=O)[nH]c1=O

>  <score_type>  (75) 
oracle

>  <origin>  (75) 
adg

>  <m_score__min__energy>  (75) 
-8.9800000000000004

>  <m_primary>  (75) 
energy

$$$$
75:0
     RDKit          3D

 47 49  0  0  0  0  0  0  0  0999 V2000
   54.7620   28.9630   45.4610 H   0  0  0  0  0  0  0  0  0  0  0  0
   55.6340   28.6010   45.0950 O   0  0  0  0  0  0  0  0  0  0  0  0
   56.2410   27.4470   45.5920 C   0  0  0  0  0  0  0  0  0  0  0  0
   55.4530   26.4060   45.9680 N   0  0  0  0  0  0  0  0  0  0  0  0
   55.9860   25.2580   46.4570 C   0  0  0  0  0  0  0  0  0  0  0  0
   55.2320   24.3120   46.8010 O   0  0  0  0  0  0  0  0  0  0  0  0
   57.3320   25.1260   46.5700 N   0  0  0  0  0  0  0  0  0  0  0  0
   58.1670   26.1330   46.2080 C   0  0  0  0  0  0  0  0  0  0  0  0
   59.4130   25.9690   46.3120 O   0  0  0  0  0  0  0  0  0  0  0  0
   57.6390   27.3420   45.7210 C   0  0  0  0  0  0  0  0  0  0  0  0
   58.5290   28.4320   45.2770 C   0  0  0  0  0  0  0  0  0  0  0  0
   59.2094   28.2168   44.4399 H   0  0  0  0  0  0  0  0  0  0  0  0
   58.5790   29.6690   45.8100 C   0  0  0  0  0  0  0  0  0  0  0  0
   58.0910   30.7860   45.1500 C   0  0  0  0  0  0  0  0  0  0  0  0
   57.5883   30.8011   44.1717 H   0  0  0  0  0  0  0  0  0  0  0  0
   58.3560   31.8750   45.9540 C   0  0  0  0  0  0  0  0  0  0  0  0
   58.0400   33.2970   45.6020 C   0  0  0  0  0  0  0  0  0  0  0  0
   57.9098   33.8827   46.5240 H   0  0  0  0  0  0  0  0  0  0  0  0
   58.8659   33.7209   45.0118 H   0  0  0  0  0  0  0  0  0  0  0  0
   57.1123   33.3312   45.0118 H   0  0  0  0  0  0  0  0  0  0  0  0
   58.9790   31.4810   47.0830 N   0  0  0  0  0  0  0  0  0  0  0  0
   59.3970   32.3510   48.1500 C   0  0  0  0  0  0  0  0  0  0  0  0
   58.7650   32.2710   49.3990 C   0  0  0  0  0  0  0  0  0  0  0  0
   57.9557   31.5433   49.5587 H   0  0  0  0  0  0  0  0  0  0  0  0
   59.1600   33.1120   50.4400 C   0  0  0  0  0  0  0  0  0  0  0  0
   58.6642   33.0444   51.4196 H   0  0  0  0  0  0  0  0  0  0  0  0
   60.1840   34.0390   50.2390 C   0  0  0  0  0  0  0  0  0  0  0  0
   60.4915   34.7031   51.0602 H   0  0  0  0  0  0  0  0  0  0  0  0
   60.8200   34.1260   48.9970 C   0  0  0  0  0  0  0  0  0  0  0  0
   61.6249   34.8600   48.8440 H   0  0  0  0  0  0  0  0  0  0  0  0
   60.4340   33.2770   47.9400 C   0  0  0  0  0  0  0  0  0  0  0  0
   61.0450   33.3180   46.6750 O   0  0  0  0  0  0  0  0  0  0  0  0
   62.3280   33.8710   46.3860 C   0  0  0  0  0  0  0  0  0  0  0  0
   62.5055   33.8250   45.3014 H   0  0  0  0  0  0  0  0  0  0  0  0
   62.3500   34.9152   46.7313 H   0  0  0  0  0  0  0  0  0  0  0  0
   63.4270   33.0890   47.1090 C   0  0  0  0  0  0  0  0  0  0  0  0
   64.3792   33.2212   46.5743 H   0  0  0  0  0  0  0  0  0  0  0  0
   63.5193   33.4666   48.1380 H   0  0  0  0  0  0  0  0  0  0  0  0
   63.1000   31.7120   47.1490 O   0  0  0  0  0  0  0  0  0  0  0  0
   62.7800   31.3200   48.4660 C   0  0  0  0  0  0  0  0  0  0  0  0
   63.3090   31.9681   49.1802 H   0  0  0  0  0  0  0  0  0  0  0  0
   61.6950   31.4111   48.6223 H   0  0  0  0  0  0  0  0  0  0  0  0
   63.0865   30.2752   48.6223 H   0  0  0  0  0  0  0  0  0  0  0  0
   59.1040   30.1310   47.0300 C   0  0  0  0  0  0  0  0  0  0  0  0
   59.6020   29.4010   48.0410 C   0  0  0  0  0  0  0  0  0  0  0  0
   59.9820   29.9000   48.9446 H   0  0  0  0  0  0  0  0  0  0  0  0
   59.6300   28.3039   47.9656 H   0  0  0  0  0  0  0  0  0  0  0  0
  1  2  1  0
  2  3  1  0
  3  4  1  0
  4  5  1  0
  5  6  2  0
  5  7  1  0
  7  8  1  0
  8  9  2  0
  8 10  1  0
 10 11  1  0
 11 12  1  0
 11 13  2  0
 13 14  1  0
 14 15  1  0
 14 16  2  0
 16 17  1  0
 17 18  1  0
 17 19  1  0
 17 20  1  0
 16 21  1  0
 21 22  1  0
 22 23  2  0
 23 24  1  0
 23 25  1  0
 25 26  1  0
 25 27  2  0
 27 28  1  0
 27 29  1  0
 29 30  1  0
 29 31  2  0
 31 32  1  0
 32 33  1  0
 33 34  1  0
 33 35  1  0
 33 36  1  0
 36 37  1  0
 36 38  1  0
 36 39  1  0
 39 40  1  0
 40 41  1  0
 40 42  1  0
 40 43  1  0
 21 44  1  0
 44 45  2  0
 45 46  1  0
 45 47  1  0
 10  3  2  0
 44 13  1  0
 31 22  1  0
M  CHG  2   4  -1   7  -1
M  END
>  <UniqueID>  (76) 
70

>  <SMILES>  (76) 
C=c1/c(=C\c2c(O)[n-]c(=O)[n-]c2=O)cc(C)n1-c1ccccc1OCCOC

>  <Energy>  (76) 
99.21630965456406

>  <Genealogy>  (76) 
C=c1c(=Cc2c(O)[n-]c(=O)[n-]c2=O)cc(C)n1-c1ccccc1OCCOC (protonated)
C=c1/c(=C\c2c(O)[n-]c(=O)[n-]c2=O)cc(C)n1-c1ccccc1OCCOC (cis-trans isomerization)
C=c1/c(=C\c2c(O)[n-]c(=O)[n-]c2=O)cc(C)n1-c1ccccc1OCCOC (3D coordinates assigned)
C=c1/c(=C\c2c(O)[n-]c(=O)[n-]c2=O)cc(C)n1-c1ccccc1OCCOC (optimized conformer: 99.21630965456406 kcal/mol)

>  <smiles>  (76) 
C=c1c(=Cc2c(O)[nH]c(=O)[nH]c2=O)cc(C)n1-c1ccccc1OCCOC

>  <score_type>  (76) 
oracle

>  <origin>  (76) 
adg

>  <m_score__min__energy>  (76) 
-12.44

>  <m_primary>  (76) 
energy

$$$$
76:0
     RDKit          3D

 40 42  0  0  0  0  0  0  0  0999 V2000
   53.5680   28.8860   52.1520 O   0  0  0  0  0  0  0  0  0  0  0  0
   54.0600   30.0080   51.8500 C   0  0  0  0  0  0  0  0  0  0  0  0
   53.2550   30.9140   50.9520 C   0  0  0  0  0  0  0  0  0  0  0  0
   52.1150   31.5660   51.6850 C   0  0  0  0  0  0  0  0  0  0  0  0
   51.8570   31.4270   53.0000 N   0  0  0  0  0  0  0  0  0  0  0  0
   50.7230   32.1440   53.1720 C   0  0  0  0  0  0  0  0  0  0  0  0
   50.1610   32.2660   54.2920 O   0  0  0  0  0  0  0  0  0  0  0  0
   50.2380   32.7210   52.0490 N   0  0  0  0  0  0  0  0  0  0  0  0
   51.1300   32.3410   51.1180 C   0  0  0  0  0  0  0  0  0  0  0  0
   51.0390   32.6870   49.7740 O   0  0  0  0  0  0  0  0  0  0  0  0
   55.3560   30.3820   52.3750 N   0  0  0  0  0  0  0  0  0  0  0  0
   55.8530   31.7650   52.3440 C   0  0  0  0  0  0  0  0  0  0  0  0
   57.3500   31.8180   51.9730 C   0  0  0  0  0  0  0  0  0  0  0  0
   58.1230   30.6110   52.3700 N   0  0  0  0  0  0  0  0  0  0  0  0
   58.3940   29.7110   51.2250 C   0  0  0  0  0  0  0  0  0  0  0  0
   59.6030   30.1910   50.4650 C   0  0  0  0  0  0  0  0  0  0  0  0
   60.8780   30.0830   51.0380 C   0  0  0  0  0  0  0  0  0  0  0  0
   61.9890   30.5550   50.3340 C   0  0  0  0  0  0  0  0  0  0  0  0
   61.8320   31.1190   49.1040 N   0  0  0  0  0  0  0  0  0  0  0  0
   60.6050   31.2350   48.5260 C   0  0  0  0  0  0  0  0  0  0  0  0
   59.4680   30.7740   49.1950 C   0  0  0  0  0  0  0  0  0  0  0  0
   57.5100   29.8980   53.5060 C   0  0  0  0  0  0  0  0  0  0  0  0
   56.1080   29.3860   53.1520 C   0  0  0  0  0  0  0  0  0  0  0  0
   53.9160   31.6980   50.5540 H   0  0  0  0  0  0  0  0  0  0  0  0
   52.8320   30.3012   50.1423 H   0  0  0  0  0  0  0  0  0  0  0  0
   55.2792   32.3347   51.5982 H   0  0  0  0  0  0  0  0  0  0  0  0
   55.7297   32.1994   53.3470 H   0  0  0  0  0  0  0  0  0  0  0  0
   57.4305   31.9350   50.8822 H   0  0  0  0  0  0  0  0  0  0  0  0
   57.7817   32.6644   52.5273 H   0  0  0  0  0  0  0  0  0  0  0  0
   58.5792   28.6930   51.5982 H   0  0  0  0  0  0  0  0  0  0  0  0
   57.5230   29.7103   50.5532 H   0  0  0  0  0  0  0  0  0  0  0  0
   61.0027   29.6307   52.0329 H   0  0  0  0  0  0  0  0  0  0  0  0
   62.9935   30.4709   50.7744 H   0  0  0  0  0  0  0  0  0  0  0  0
   62.6720   31.4700   48.5930 H   0  0  0  0  0  0  0  0  0  0  0  0
   60.5083   31.6925   47.5304 H   0  0  0  0  0  0  0  0  0  0  0  0
   58.4753   30.8672   48.7303 H   0  0  0  0  0  0  0  0  0  0  0  0
   58.1459   29.0424   53.7773 H   0  0  0  0  0  0  0  0  0  0  0  0
   57.4208   30.5994   54.3487 H   0  0  0  0  0  0  0  0  0  0  0  0
   56.2023   28.4650   52.5580 H   0  0  0  0  0  0  0  0  0  0  0  0
   55.5629   29.1917   54.0875 H   0  0  0  0  0  0  0  0  0  0  0  0
  1  2  2  0
  2  3  1  0
  3  4  1  0
  4  5  1  0
  5  6  1  0
  6  7  2  0
  6  8  1  0
  8  9  1  0
  9 10  1  0
  2 11  1  0
 11 12  1  0
 12 13  1  0
 13 14  1  0
 14 15  1  0
 15 16  1  0
 16 17  2  0
 17 18  1  0
 18 19  2  0
 19 20  1  0
 20 21  2  0
 14 22  1  0
 22 23  1  0
  9  4  2  0
 23 11  1  0
 21 16  1  0
  3 24  1  0
  3 25  1  0
 12 26  1  0
 12 27  1  0
 13 28  1  0
 13 29  1  0
 15 30  1  0
 15 31  1  0
 17 32  1  0
 18 33  1  0
 19 34  1  0
 20 35  1  0
 21 36  1  0
 22 37  1  0
 22 38  1  0
 23 39  1  0
 23 40  1  0
M  CHG  4   5  -1   8  -1  10  -1  19   1
M  END
>  <UniqueID>  (77) 
71

>  <SMILES>  (77) 
O=C(Cc1[n-]c(=O)[n-]c1[O-])N1CCN(Cc2cc[nH+]cc2)CC1

>  <Energy>  (77) 
78.63260327078365

>  <Genealogy>  (77) 
O=C(Cc1[n-]c(=O)[n-]c1[O-])N1CCN(Cc2cc[nH+]cc2)CC1 (protonated)
O=C(Cc1[n-]c(=O)[n-]c1[O-])N1CCN(Cc2cc[nH+]cc2)CC1 (3D coordinates assigned)
O=C(Cc1[n-]c(=O)[n-]c1[O-])N1CCN(Cc2cc[nH+]cc2)CC1 (nonaromatic ring conformer: 78.63260327078365 kcal/mol)

>  <smiles>  (77) 
O=C(Cc1[nH]c(=O)[nH]c1O)N1CCN(Cc2ccncc2)CC1

>  <score_type>  (77) 
oracle

>  <origin>  (77) 
adg

>  <m_score__min__energy>  (77) 
-14.029999999999999

>  <m_primary>  (77) 
energy

$$$$
77:0
     RDKit          3D

 60 64  0  0  0  0  0  0  0  0999 V2000
   51.1170   22.0020   45.9380 C   0  0  0  0  0  0  0  0  0  0  0  0
   52.4550   21.6100   45.6250 O   0  0  0  0  0  0  0  0  0  0  0  0
   53.6030   22.1730   46.2140 C   0  0  0  0  0  0  0  0  0  0  0  0
   54.3840   21.4670   47.1520 C   0  0  0  0  0  0  0  0  0  0  0  0
   55.5170   22.0570   47.7090 C   0  0  0  0  0  0  0  0  0  0  0  0
   55.8930   23.3460   47.3340 C   0  0  0  0  0  0  0  0  0  0  0  0
   55.1300   24.0690   46.4060 C   0  0  0  0  0  0  0  0  0  0  0  0
   55.6100   25.3980   45.9750 C   0  0  0  0  0  0  0  0  0  0  0  0
   54.7750   26.3130   45.7550 O   0  0  0  0  0  0  0  0  0  0  0  0
   57.0140   25.6430   45.7800 N   0  0  0  0  0  0  0  0  0  0  0  0
   58.0480   24.6090   45.8890 C   0  0  0  0  0  0  0  0  0  0  0  0
   59.3980   25.3600   45.9630 C   0  0  0  0  0  0  0  0  0  0  0  0
   59.0050   26.7920   45.8500 C   0  0  0  0  0  0  0  0  0  0  0  0
   59.8410   27.9090   45.8150 C   0  0  0  0  0  0  0  0  0  0  0  0
   59.2680   29.1830   45.6680 C   0  0  0  0  0  0  0  0  0  0  0  0
   60.1220   30.2970   45.6430 O   0  0  0  0  0  0  0  0  0  0  0  0
   60.7850   30.8440   46.7520 C   0  0  0  0  0  0  0  0  0  0  0  0
   61.5110   30.1190   47.4840 O   0  0  0  0  0  0  0  0  0  0  0  0
   60.6720   32.2550   47.0200 N   0  0  0  0  0  0  0  0  0  0  0  0
   61.5510   32.9100   47.9590 C   0  0  0  0  0  0  0  0  0  0  0  0
   62.9450   32.8970   47.7510 C   0  0  0  0  0  0  0  0  0  0  0  0
   63.8010   33.5440   48.6480 C   0  0  0  0  0  0  0  0  0  0  0  0
   63.2760   34.2040   49.7620 C   0  0  0  0  0  0  0  0  0  0  0  0
   61.8950   34.2080   49.9860 C   0  0  0  0  0  0  0  0  0  0  0  0
   61.0340   33.5620   49.0930 C   0  0  0  0  0  0  0  0  0  0  0  0
   59.6540   33.0200   46.3550 C   0  0  0  0  0  0  0  0  0  0  0  0
   58.3050   32.6330   46.4420 C   0  0  0  0  0  0  0  0  0  0  0  0
   57.3160   33.3950   45.8120 C   0  0  0  0  0  0  0  0  0  0  0  0
   57.6670   34.5390   45.0870 C   0  0  0  0  0  0  0  0  0  0  0  0
   59.0110   34.9290   44.9960 C   0  0  0  0  0  0  0  0  0  0  0  0
   60.0020   34.1770   45.6340 C   0  0  0  0  0  0  0  0  0  0  0  0
   57.8670   29.2990   45.5080 C   0  0  0  0  0  0  0  0  0  0  0  0
   57.0490   28.1600   45.5480 C   0  0  0  0  0  0  0  0  0  0  0  0
   57.6490   26.9130   45.7480 C   0  0  0  0  0  0  0  0  0  0  0  0
   53.9670   23.4780   45.8530 C   0  0  0  0  0  0  0  0  0  0  0  0
   53.1390   24.1730   44.9620 O   0  0  0  0  0  0  0  0  0  0  0  0
   50.9917   22.0387   47.0302 H   0  0  0  0  0  0  0  0  0  0  0  0
   50.9172   22.9964   45.5124 H   0  0  0  0  0  0  0  0  0  0  0  0
   50.4121   21.2726   45.5124 H   0  0  0  0  0  0  0  0  0  0  0  0
   54.0977   20.4462   47.4453 H   0  0  0  0  0  0  0  0  0  0  0  0
   56.1166   21.5039   48.4469 H   0  0  0  0  0  0  0  0  0  0  0  0
   56.7955   23.7995   47.7696 H   0  0  0  0  0  0  0  0  0  0  0  0
   57.8942   24.0094   46.7983 H   0  0  0  0  0  0  0  0  0  0  0  0
   58.0182   23.9185   45.0332 H   0  0  0  0  0  0  0  0  0  0  0  0
   59.9044   25.1655   46.9200 H   0  0  0  0  0  0  0  0  0  0  0  0
   60.1062   25.0468   45.1817 H   0  0  0  0  0  0  0  0  0  0  0  0
   60.9315   27.7935   45.9012 H   0  0  0  0  0  0  0  0  0  0  0  0
   63.3623   32.3746   46.8775 H   0  0  0  0  0  0  0  0  0  0  0  0
   64.8875   33.5333   48.4765 H   0  0  0  0  0  0  0  0  0  0  0  0
   63.9484   34.7204   50.4628 H   0  0  0  0  0  0  0  0  0  0  0  0
   61.4847   34.7213   50.8681 H   0  0  0  0  0  0  0  0  0  0  0  0
   59.9497   33.5638   49.2780 H   0  0  0  0  0  0  0  0  0  0  0  0
   58.0274   31.7303   47.0060 H   0  0  0  0  0  0  0  0  0  0  0  0
   56.2605   33.0945   45.8866 H   0  0  0  0  0  0  0  0  0  0  0  0
   56.8876   35.1334   44.5877 H   0  0  0  0  0  0  0  0  0  0  0  0
   59.2855   35.8267   44.4226 H   0  0  0  0  0  0  0  0  0  0  0  0
   61.0547   34.4902   45.5722 H   0  0  0  0  0  0  0  0  0  0  0  0
   57.4157   30.2898   45.3510 H   0  0  0  0  0  0  0  0  0  0  0  0
   55.9593   28.2461   45.4247 H   0  0  0  0  0  0  0  0  0  0  0  0
   53.2300   25.1640   44.7770 H   0  0  0  0  0  0  0  0  0  0  0  0
  1  2  1  0
  2  3  1  0
  3  4  2  0
  4  5  1  0
  5  6  2  0
  6  7  1  0
  7  8  1  0
  8  9  2  0
  8 10  1  0
 10 11  1  0
 11 12  1  0
 12 13  1  0
 13 14  2  0
 14 15  1  0
 15 16  1  0
 16 17  1  0
 17 18  2  0
 17 19  1  0
 19 20  1  0
 20 21  2  0
 21 22  1  0
 22 23  2  0
 23 24  1  0
 24 25  2  0
 19 26  1  0
 26 27  2  0
 27 28  1  0
 28 29  2  0
 29 30  1  0
 30 31  2  0
 15 32  2  0
 32 33  1  0
 33 34  2  0
  7 35  2  0
 35 36  1  0
 35  3  1  0
 34 10  1  0
 34 13  1  0
 25 20  1  0
 31 26  1  0
  1 37  1  0
  1 38  1  0
  1 39  1  0
  4 40  1  0
  5 41  1  0
  6 42  1  0
 11 43  1  0
 11 44  1  0
 12 45  1  0
 12 46  1  0
 14 47  1  0
 21 48  1  0
 22 49  1  0
 23 50  1  0
 24 51  1  0
 25 52  1  0
 27 53  1  0
 28 54  1  0
 29 55  1  0
 30 56  1  0
 31 57  1  0
 32 58  1  0
 33 59  1  0
 36 60  1  0
M  END
>  <UniqueID>  (78) 
72

>  <SMILES>  (78) 
COc1cccc(C(=O)N2CCc3cc(OC(=O)N(c4ccccc4)c4ccccc4)ccc32)c1O

>  <Energy>  (78) 
103.95643314211183

>  <Genealogy>  (78) 
COc1cccc(C(=O)N2CCc3cc(OC(=O)N(c4ccccc4)c4ccccc4)ccc32)c1O (3D coordinates assigned)
COc1cccc(C(=O)N2CCc3cc(OC(=O)N(c4ccccc4)c4ccccc4)ccc32)c1O (nonaromatic ring conformer: 103.95643314211183 kcal/mol)

>  <smiles>  (78) 
COc1cccc(C(=O)N2CCc3cc(OC(=O)N(c4ccccc4)c4ccccc4)ccc32)c1O

>  <score_type>  (78) 
oracle

>  <origin>  (78) 
adg

>  <m_score__min__energy>  (78) 
-10.69

>  <m_primary>  (78) 
energy

$$$$
78:0
     RDKit          3D

 46 48  0  0  0  0  0  0  0  0999 V2000
   55.0850   26.3200   45.9600 N   0  0  0  0  0  0  0  0  0  0  0  0
   56.3980   25.7860   46.1150 C   0  0  0  0  0  0  0  0  0  0  0  0
   56.7260   25.2320   47.1980 O   0  0  0  0  0  0  0  0  0  0  0  0
   57.4010   25.9250   45.0080 C   0  0  0  0  0  0  0  0  0  0  0  0
   58.1340   27.2810   45.0750 C   0  0  1  0  0  0  0  0  0  0  0  0
   57.1410   28.4450   44.8710 C   0  0  0  0  0  0  0  0  0  0  0  0
   57.8540   29.7630   44.8310 C   0  0  0  0  0  0  0  0  0  0  0  0
   58.8700   29.9060   44.0980 O   0  0  0  0  0  0  0  0  0  0  0  0
   57.3890   30.8390   45.6510 N   0  0  0  0  0  0  0  0  0  0  0  0
   57.8940   32.1820   45.6410 C   0  0  0  0  0  0  0  0  0  0  0  0
   57.6960   33.0270   44.5320 C   0  0  0  0  0  0  0  0  0  0  0  0
   58.2450   34.3120   44.5160 C   0  0  0  0  0  0  0  0  0  0  0  0
   58.9980   34.7640   45.6020 C   0  0  0  0  0  0  0  0  0  0  0  0
   59.2100   33.9310   46.7010 C   0  0  0  0  0  0  0  0  0  0  0  0
   58.6730   32.6360   46.7210 C   0  0  0  0  0  0  0  0  0  0  0  0
   58.9530   31.5990   48.1630 S   0  0  0  0  0  0  0  0  0  0  0  0
   60.6900   32.0370   48.2900 C   0  0  0  0  0  0  0  0  0  0  0  0
   61.0940   33.0640   49.1470 C   0  0  0  0  0  0  0  0  0  0  0  0
   62.4060   33.4070   49.2240 N   0  0  0  0  0  0  0  0  0  0  0  0
   63.3420   32.7630   48.4800 C   0  0  0  0  0  0  0  0  0  0  0  0
   64.5520   33.0900   48.5740 O   0  0  0  0  0  0  0  0  0  0  0  0
   62.9700   31.7680   47.6340 N   0  0  0  0  0  0  0  0  0  0  0  0
   61.6690   31.3970   47.5180 C   0  0  0  0  0  0  0  0  0  0  0  0
   61.3530   30.4800   46.7150 O   0  0  0  0  0  0  0  0  0  0  0  0
   58.9130   27.4420   46.3730 C   0  0  0  0  0  0  0  0  0  0  0  0
   58.4290   28.3020   47.3770 C   0  0  0  0  0  0  0  0  0  0  0  0
   59.1050   28.4200   48.5950 C   0  0  0  0  0  0  0  0  0  0  0  0
   60.2750   27.6910   48.8210 C   0  0  0  0  0  0  0  0  0  0  0  0
   61.1170   27.8330   50.3540 Cl  0  0  0  0  0  0  0  0  0  0  0  0
   60.7710   26.8440   47.8280 C   0  0  0  0  0  0  0  0  0  0  0  0
   60.0910   26.7090   46.6140 C   0  0  0  0  0  0  0  0  0  0  0  0
   54.7480   27.1000   46.5660 H   0  0  0  0  0  0  0  0  0  0  0  0
   58.1402   25.1147   45.0918 H   0  0  0  0  0  0  0  0  0  0  0  0
   56.8656   25.8695   44.0487 H   0  0  0  0  0  0  0  0  0  0  0  0
   58.8679   27.3040   44.2560 H   0  0  0  0  0  0  0  0  0  0  0  0
   56.6051   28.2977   43.9217 H   0  0  0  0  0  0  0  0  0  0  0  0
   56.4365   28.4548   45.7157 H   0  0  0  0  0  0  0  0  0  0  0  0
   57.1059   32.6736   43.6736 H   0  0  0  0  0  0  0  0  0  0  0  0
   58.0840   34.9678   43.6477 H   0  0  0  0  0  0  0  0  0  0  0  0
   59.4244   35.7779   45.5908 H   0  0  0  0  0  0  0  0  0  0  0  0
   59.8011   34.2919   47.5556 H   0  0  0  0  0  0  0  0  0  0  0  0
   60.3498   33.5945   49.7591 H   0  0  0  0  0  0  0  0  0  0  0  0
   57.5128   28.8850   47.2020 H   0  0  0  0  0  0  0  0  0  0  0  0
   58.7149   29.0882   49.3769 H   0  0  0  0  0  0  0  0  0  0  0  0
   61.7000   26.2810   48.0015 H   0  0  0  0  0  0  0  0  0  0  0  0
   60.4782   26.0266   45.8430 H   0  0  0  0  0  0  0  0  0  0  0  0
  1  2  1  0
  2  3  2  0
  2  4  1  0
  4  5  1  0
  5  6  1  0
  6  7  1  0
  7  8  2  0
  7  9  1  0
  9 10  1  0
 10 11  2  0
 11 12  1  0
 12 13  2  0
 13 14  1  0
 14 15  2  0
 15 16  1  0
 16 17  1  0
 17 18  2  0
 18 19  1  0
 19 20  1  0
 20 21  2  0
 20 22  1  0
 22 23  1  0
 23 24  2  0
  5 25  1  0
 25 26  2  0
 26 27  1  0
 27 28  2  0
 28 29  1  0
 28 30  1  0
 30 31  2  0
 15 10  1  0
 23 17  1  0
 31 25  1  0
  1 32  1  0
  4 33  1  0
  4 34  1  0
  5 35  1  6
  6 36  1  0
  6 37  1  0
 11 38  1  0
 12 39  1  0
 13 40  1  0
 14 41  1  0
 18 42  1  0
 26 43  1  0
 27 44  1  0
 30 45  1  0
 31 46  1  0
M  CHG  4   1  -1   9  -1  19  -1  22  -1
M  END
>  <UniqueID>  (79) 
73

>  <SMILES>  (79) 
[NH-]C(=O)C[C@@H](CC(=O)[N-]c1ccccc1Sc1c[n-]c(=O)[n-]c1=O)c1ccc(Cl)cc1

>  <Energy>  (79) 
40.895773174737364

>  <Genealogy>  (79) 
[NH-]C(=O)CC(CC(=O)[N-]c1ccccc1Sc1c[n-]c(=O)[n-]c1=O)c1ccc(Cl)cc1 (protonated)
[NH-]C(=O)C[C@@H](CC(=O)[N-]c1ccccc1Sc1c[n-]c(=O)[n-]c1=O)c1ccc(Cl)cc1 (chirality)
[NH-]C(=O)C[C@@H](CC(=O)[N-]c1ccccc1Sc1c[n-]c(=O)[n-]c1=O)c1ccc(Cl)cc1 (3D coordinates assigned)
[NH-]C(=O)C[C@@H](CC(=O)[N-]c1ccccc1Sc1c[n-]c(=O)[n-]c1=O)c1ccc(Cl)cc1 (optimized conformer: 40.895773174737364 kcal/mol)

>  <smiles>  (79) 
NC(=O)CC(CC(=O)Nc1ccccc1Sc1c[nH]c(=O)[nH]c1=O)c1ccc(Cl)cc1

>  <score_type>  (79) 
oracle

>  <origin>  (79) 
adg

>  <m_score__min__energy>  (79) 
-15.539999999999999

>  <m_primary>  (79) 
energy

$$$$
79:0
     RDKit          3D

 46 49  0  0  0  0  0  0  0  0999 V2000
   63.7280   32.9400   48.1780 C   0  0  0  0  0  0  0  0  0  0  0  0
   62.8410   33.5950   47.1610 C   0  0  0  0  0  0  0  0  0  0  0  0
   63.3810   34.2380   46.2190 O   0  0  0  0  0  0  0  0  0  0  0  0
   61.3560   33.5150   47.2470 C   0  0  0  0  0  0  0  0  0  0  0  0
   60.6930   33.5100   48.4880 C   0  0  0  0  0  0  0  0  0  0  0  0
   59.2970   33.4690   48.5470 C   0  0  0  0  0  0  0  0  0  0  0  0
   58.5380   33.4220   47.3760 C   0  0  0  0  0  0  0  0  0  0  0  0
   57.1480   33.4570   47.4830 O   0  0  0  0  0  0  0  0  0  0  0  0
   59.1890   33.3690   46.1260 C   0  0  0  0  0  0  0  0  0  0  0  0
   58.4580   33.2770   44.8980 N   0  0  0  0  0  0  0  0  0  0  0  0
   57.3950   32.3500   44.6320 C   0  0  0  0  0  0  0  0  0  0  0  0
   56.2990   32.4960   45.2340 O   0  0  0  0  0  0  0  0  0  0  0  0
   57.5310   31.2450   43.6190 C   0  0  0  0  0  0  0  0  0  0  0  0
   57.6050   29.9510   44.2940 N   0  0  0  0  0  0  0  0  0  0  0  0
   56.5480   29.3040   44.9840 C   0  0  0  0  0  0  0  0  0  0  0  0
   55.3360   29.6160   44.8470 O   0  0  0  0  0  0  0  0  0  0  0  0
   56.9850   28.2710   45.8630 N   0  0  0  0  0  0  0  0  0  0  0  0
   58.4480   28.2350   45.7810 C   0  0  2  0  0  0  0  0  0  0  0  0
   58.9640   26.8420   45.3420 C   0  0  0  0  0  0  0  0  0  0  0  0
   59.9580   26.3730   46.4220 C   0  0  0  0  0  0  0  0  0  0  0  0
   59.8930   27.4270   47.4650 C   0  0  0  0  0  0  0  0  0  0  0  0
   60.5870   27.4410   48.6790 C   0  0  0  0  0  0  0  0  0  0  0  0
   60.4230   28.5370   49.5390 C   0  0  0  0  0  0  0  0  0  0  0  0
   59.5730   29.5970   49.1790 C   0  0  0  0  0  0  0  0  0  0  0  0
   58.8870   29.5660   47.9560 C   0  0  0  0  0  0  0  0  0  0  0  0
   59.0650   28.4620   47.1120 C   0  0  0  0  0  0  0  0  0  0  0  0
   58.7770   29.3280   44.8010 C   0  0  0  0  0  0  0  0  0  0  0  0
   59.9440   29.6690   44.4710 O   0  0  0  0  0  0  0  0  0  0  0  0
   60.5860   33.4450   46.0700 C   0  0  0  0  0  0  0  0  0  0  0  0
   63.3792   33.1976   49.1889 H   0  0  0  0  0  0  0  0  0  0  0  0
   63.6941   31.8485   48.0454 H   0  0  0  0  0  0  0  0  0  0  0  0
   64.7612   33.2935   48.0454 H   0  0  0  0  0  0  0  0  0  0  0  0
   61.2779   33.5386   49.4192 H   0  0  0  0  0  0  0  0  0  0  0  0
   58.7921   33.4738   49.5243 H   0  0  0  0  0  0  0  0  0  0  0  0
   56.5390   33.5410   46.6800 H   0  0  0  0  0  0  0  0  0  0  0  0
   56.6587   31.2564   42.9489 H   0  0  0  0  0  0  0  0  0  0  0  0
   58.4517   31.4009   43.0377 H   0  0  0  0  0  0  0  0  0  0  0  0
   58.1253   26.1343   45.2667 H   0  0  0  0  0  0  0  0  0  0  0  0
   59.4490   26.8942   44.3561 H   0  0  0  0  0  0  0  0  0  0  0  0
   59.6550   25.3989   46.8334 H   0  0  0  0  0  0  0  0  0  0  0  0
   60.9751   26.2370   46.0256 H   0  0  0  0  0  0  0  0  0  0  0  0
   61.2497   26.6074   48.9546 H   0  0  0  0  0  0  0  0  0  0  0  0
   60.9612   28.5670   50.4979 H   0  0  0  0  0  0  0  0  0  0  0  0
   59.4455   30.4529   49.8581 H   0  0  0  0  0  0  0  0  0  0  0  0
   58.2220   30.3926   47.6651 H   0  0  0  0  0  0  0  0  0  0  0  0
   61.0895   33.4501   45.0920 H   0  0  0  0  0  0  0  0  0  0  0  0
  1  2  1  0
  2  3  2  0
  2  4  1  0
  4  5  2  0
  5  6  1  0
  6  7  2  0
  7  8  1  0
  7  9  1  0
  9 10  1  0
 10 11  1  0
 11 12  2  0
 11 13  1  0
 13 14  1  0
 14 15  1  0
 15 16  2  0
 15 17  1  0
 18 17  1  1
 18 19  1  0
 19 20  1  0
 20 21  1  0
 21 22  2  0
 22 23  1  0
 23 24  2  0
 24 25  1  0
 25 26  2  0
 18 27  1  0
 27 28  2  0
  9 29  2  0
 29  4  1  0
 27 14  1  0
 26 18  1  0
 26 21  1  0
  1 30  1  0
  1 31  1  0
  1 32  1  0
  5 33  1  0
  6 34  1  0
  8 35  1  0
 13 36  1  0
 13 37  1  0
 19 38  1  0
 19 39  1  0
 20 40  1  0
 20 41  1  0
 22 42  1  0
 23 43  1  0
 24 44  1  0
 25 45  1  0
 29 46  1  0
M  CHG  2  10  -1  17  -1
M  END
>  <UniqueID>  (80) 
74

>  <SMILES>  (80) 
CC(=O)c1ccc(O)c([N-]C(=O)CN2C(=O)[N-][C@@]3(CCc4ccccc43)C2=O)c1

>  <Energy>  (80) 
84.23252456642388

>  <Genealogy>  (80) 
CC(=O)c1ccc(O)c([N-]C(=O)CN2C(=O)[N-]C3(CCc4ccccc43)C2=O)c1 (protonated)
CC(=O)c1ccc(O)c([N-]C(=O)CN2C(=O)[N-][C@@]3(CCc4ccccc43)C2=O)c1 (chirality)
CC(=O)c1ccc(O)c([N-]C(=O)CN2C(=O)[N-][C@@]3(CCc4ccccc43)C2=O)c1 (3D coordinates assigned)
CC(=O)c1ccc(O)c([N-]C(=O)CN2C(=O)[N-][C@@]3(CCc4ccccc43)C2=O)c1 (nonaromatic ring conformer: 84.23252456642388 kcal/mol)

>  <smiles>  (80) 
CC(=O)c1ccc(O)c(NC(=O)CN2C(=O)NC3(CCc4ccccc43)C2=O)c1

>  <score_type>  (80) 
oracle

>  <origin>  (80) 
adg

>  <m_score__min__energy>  (80) 
-13.630000000000001

>  <m_primary>  (80) 
energy

$$$$
80:0
     RDKit          3D

 51 53  0  0  0  0  0  0  0  0999 V2000
   56.2910   23.2940   43.0240 C   0  0  0  0  0  0  0  0  0  0  0  0
   57.0780   23.8350   44.2140 C   0  0  0  0  0  0  0  0  0  0  0  0
   56.7570   25.2420   44.4450 N   0  0  0  0  0  0  0  0  0  0  0  0
   56.1130   25.7000   45.6450 C   0  0  0  0  0  0  0  0  0  0  0  0
   55.9440   24.9130   46.6130 O   0  0  0  0  0  0  0  0  0  0  0  0
   55.7400   27.0780   45.7960 N   0  0  0  0  0  0  0  0  0  0  0  0
   56.3110   28.1160   45.2530 C   0  0  0  0  0  0  0  0  0  0  0  0
   57.6990   28.1800   45.0050 C   0  0  0  0  0  0  0  0  0  0  0  0
   58.2390   29.3210   44.4090 C   0  0  0  0  0  0  0  0  0  0  0  0
   57.4050   30.3800   44.0490 C   0  0  0  0  0  0  0  0  0  0  0  0
   58.0820   31.8470   43.2710 S   0  0  0  0  0  0  0  0  0  0  0  0
   58.3760   32.6540   44.8450 C   0  0  0  0  0  0  0  0  0  0  0  0
   58.6600   34.0240   44.8860 C   0  0  0  0  0  0  0  0  0  0  0  0
   58.9000   34.6510   46.1120 C   0  0  0  0  0  0  0  0  0  0  0  0
   58.8480   33.9140   47.2980 C   0  0  0  0  0  0  0  0  0  0  0  0
   58.5400   32.5470   47.2710 C   0  0  0  0  0  0  0  0  0  0  0  0
   58.5030   31.8240   48.5100 N   0  0  0  0  0  0  0  0  0  0  0  0
   58.9800   32.2920   49.7800 C   0  0  0  0  0  0  0  0  0  0  0  0
   58.1730   32.7100   50.6500 O   0  0  0  0  0  0  0  0  0  0  0  0
   60.3850   32.3960   50.0320 N   0  0  0  0  0  0  0  0  0  0  0  0
   61.4160   32.5160   49.0420 C   0  0  0  0  0  0  0  0  0  0  0  0
   62.0210   33.7660   48.8070 C   0  0  0  0  0  0  0  0  0  0  0  0
   63.0140   33.9070   47.8380 C   0  0  0  0  0  0  0  0  0  0  0  0
   63.4050   32.8090   47.0770 C   0  0  0  0  0  0  0  0  0  0  0  0
   62.7980   31.5700   47.2760 C   0  0  0  0  0  0  0  0  0  0  0  0
   61.7970   31.4010   48.2440 C   0  0  0  0  0  0  0  0  0  0  0  0
   61.2510   30.1080   48.3560 O   0  0  0  0  0  0  0  0  0  0  0  0
   60.2520   29.5180   47.5290 C   0  0  0  0  0  0  0  0  0  0  0  0
   60.1250   28.1850   47.8660 F   0  0  0  0  0  0  0  0  0  0  0  0
   60.6250   29.6040   46.1990 F   0  0  0  0  0  0  0  0  0  0  0  0
   58.3280   31.9140   46.0330 C   0  0  0  0  0  0  0  0  0  0  0  0
   56.0330   30.2800   44.2910 C   0  0  0  0  0  0  0  0  0  0  0  0
   55.5260   29.1620   44.8750 N   0  0  0  0  0  0  0  0  0  0  0  0
   55.4353   22.7058   43.3871 H   0  0  0  0  0  0  0  0  0  0  0  0
   55.9264   24.1332   42.4135 H   0  0  0  0  0  0  0  0  0  0  0  0
   56.9439   22.6530   42.4135 H   0  0  0  0  0  0  0  0  0  0  0  0
   56.8216   23.2534   45.1118 H   0  0  0  0  0  0  0  0  0  0  0  0
   58.1530   23.7469   43.9983 H   0  0  0  0  0  0  0  0  0  0  0  0
   56.9970   25.9320   43.7000 H   0  0  0  0  0  0  0  0  0  0  0  0
   58.3504   27.3371   45.2793 H   0  0  0  0  0  0  0  0  0  0  0  0
   59.3213   29.3851   44.2233 H   0  0  0  0  0  0  0  0  0  0  0  0
   58.6943   34.6070   43.9538 H   0  0  0  0  0  0  0  0  0  0  0  0
   59.1302   35.7262   46.1432 H   0  0  0  0  0  0  0  0  0  0  0  0
   59.0501   34.4098   48.2589 H   0  0  0  0  0  0  0  0  0  0  0  0
   61.7066   34.6412   49.3946 H   0  0  0  0  0  0  0  0  0  0  0  0
   63.4883   34.8860   47.6750 H   0  0  0  0  0  0  0  0  0  0  0  0
   64.1936   32.9191   46.3180 H   0  0  0  0  0  0  0  0  0  0  0  0
   63.1091   30.7107   46.6638 H   0  0  0  0  0  0  0  0  0  0  0  0
   59.2996   30.0482   47.6769 H   0  0  0  0  0  0  0  0  0  0  0  0
   58.1237   30.8337   45.9978 H   0  0  0  0  0  0  0  0  0  0  0  0
   55.3630   31.1056   44.0091 H   0  0  0  0  0  0  0  0  0  0  0  0
  1  2  1  0
  2  3  1  0
  3  4  1  0
  4  5  2  0
  4  6  1  0
  6  7  2  3
  7  8  1  0
  8  9  2  0
  9 10  1  0
 10 11  1  0
 11 12  1  0
 12 13  2  0
 13 14  1  0
 14 15  2  0
 15 16  1  0
 16 17  1  0
 17 18  1  0
 18 19  2  0
 18 20  1  0
 20 21  1  0
 21 22  2  0
 22 23  1  0
 23 24  2  0
 24 25  1  0
 25 26  2  0
 26 27  1  0
 27 28  1  0
 28 29  1  0
 28 30  1  0
 16 31  2  0
 10 32  2  0
 32 33  1  0
 33  7  1  0
 31 12  1  0
 26 21  1  0
  1 34  1  0
  1 35  1  0
  1 36  1  0
  2 37  1  0
  2 38  1  0
  3 39  1  0
  8 40  1  0
  9 41  1  0
 13 42  1  0
 14 43  1  0
 15 44  1  0
 22 45  1  0
 23 46  1  0
 24 47  1  0
 25 48  1  0
 28 49  1  0
 31 50  1  0
 32 51  1  0
M  CHG  3  17  -1  20  -1  33  -1
M  END
>  <UniqueID>  (81) 
75

>  <SMILES>  (81) 
CCNC(=O)N=c1ccc(Sc2cccc([N-]C(=O)[N-]c3ccccc3OC(F)F)c2)c[n-]1

>  <Energy>  (81) 
63.15257458295209

>  <Genealogy>  (81) 
CCNC(=O)N=c1ccc(Sc2cccc([N-]C(=O)[N-]c3ccccc3OC(F)F)c2)c[n-]1 (protonated)
CCNC(=O)N=c1ccc(Sc2cccc([N-]C(=O)[N-]c3ccccc3OC(F)F)c2)c[n-]1 (3D coordinates assigned)
CCNC(=O)N=c1ccc(Sc2cccc([N-]C(=O)[N-]c3ccccc3OC(F)F)c2)c[n-]1 (optimized conformer: 63.15257458295209 kcal/mol)

>  <smiles>  (81) 
CCNC(=O)N=c1ccc(Sc2cccc(NC(=O)Nc3ccccc3OC(F)F)c2)c[nH]1

>  <score_type>  (81) 
oracle

>  <origin>  (81) 
adg

>  <m_score__min__energy>  (81) 
-14.02

>  <m_primary>  (81) 
energy

$$$$
81:0
     RDKit          3D

 47 50  0  0  0  0  0  0  0  0999 V2000
   55.1020   26.6120   45.8680 O   0  0  0  0  0  0  0  0  0  0  0  0
   56.3100   26.7150   46.2190 C   0  0  0  0  0  0  0  0  0  0  0  0
   56.9680   25.5920   46.8170 N   0  0  0  0  0  0  0  0  0  0  0  0
   56.4150   24.2420   46.8330 C   0  0  0  0  0  0  0  0  0  0  0  0
   57.1190   23.3790   45.8220 C   0  0  0  0  0  0  0  0  0  0  0  0
   56.4510   22.9390   44.6670 C   0  0  0  0  0  0  0  0  0  0  0  0
   57.1060   22.1180   43.7440 C   0  0  0  0  0  0  0  0  0  0  0  0
   58.4290   21.7280   43.9690 C   0  0  0  0  0  0  0  0  0  0  0  0
   59.1000   22.1570   45.1180 C   0  0  0  0  0  0  0  0  0  0  0  0
   60.4140   21.7650   45.3430 O   0  0  0  0  0  0  0  0  0  0  0  0
   58.4470   22.9780   46.0450 C   0  0  0  0  0  0  0  0  0  0  0  0
   57.0380   27.9990   46.0190 C   0  0  0  0  0  0  0  0  0  0  0  0
   56.4430   29.0760   45.3300 C   0  0  0  0  0  0  0  0  0  0  0  0
   55.1440   28.9740   44.8380 O   0  0  0  0  0  0  0  0  0  0  0  0
   57.1620   30.2680   45.1530 C   0  0  0  0  0  0  0  0  0  0  0  0
   56.6210   31.3700   44.4700 C   0  0  0  0  0  0  0  0  0  0  0  0
   57.3710   32.5390   44.3190 C   0  0  0  0  0  0  0  0  0  0  0  0
   58.6630   32.6340   44.8470 C   0  0  0  0  0  0  0  0  0  0  0  0
   59.3640   33.8380   44.6710 O   0  0  0  0  0  0  0  0  0  0  0  0
   59.6780   34.7700   45.7070 C   0  0  0  0  0  0  0  0  0  0  0  0
   59.9420   34.0560   47.0060 C   0  0  0  0  0  0  0  0  0  0  0  0
   58.8700   33.6550   47.8200 C   0  0  0  0  0  0  0  0  0  0  0  0
   59.1110   32.9960   49.0290 C   0  0  0  0  0  0  0  0  0  0  0  0
   60.4210   32.7390   49.4380 C   0  0  0  0  0  0  0  0  0  0  0  0
   61.4960   33.1450   48.6400 C   0  0  0  0  0  0  0  0  0  0  0  0
   63.2870   32.7960   49.2010 Br  0  0  0  0  0  0  0  0  0  0  0  0
   61.2590   33.8060   47.4300 C   0  0  0  0  0  0  0  0  0  0  0  0
   59.2090   31.5290   45.5280 C   0  0  0  0  0  0  0  0  0  0  0  0
   58.4650   30.3540   45.6830 C   0  0  0  0  0  0  0  0  0  0  0  0
   58.9940   29.3230   46.3310 O   0  0  0  0  0  0  0  0  0  0  0  0
   58.3490   28.1760   46.5160 C   0  0  0  0  0  0  0  0  0  0  0  0
   58.9390   27.2470   47.1300 O   0  0  0  0  0  0  0  0  0  0  0  0
   56.5460   23.8078   47.8351 H   0  0  0  0  0  0  0  0  0  0  0  0
   55.3454   24.2898   46.5807 H   0  0  0  0  0  0  0  0  0  0  0  0
   55.4087   23.2416   44.4881 H   0  0  0  0  0  0  0  0  0  0  0  0
   56.5794   21.7787   42.8398 H   0  0  0  0  0  0  0  0  0  0  0  0
   58.9429   21.0828   43.2413 H   0  0  0  0  0  0  0  0  0  0  0  0
   58.9753   23.3102   46.9509 H   0  0  0  0  0  0  0  0  0  0  0  0
   55.6047   31.3123   44.0532 H   0  0  0  0  0  0  0  0  0  0  0  0
   56.9405   33.3949   43.7785 H   0  0  0  0  0  0  0  0  0  0  0  0
   60.5740   35.3399   45.4201 H   0  0  0  0  0  0  0  0  0  0  0  0
   58.8217   35.4467   45.8441 H   0  0  0  0  0  0  0  0  0  0  0  0
   57.8363   33.8604   47.5048 H   0  0  0  0  0  0  0  0  0  0  0  0
   58.2670   32.6793   49.6593 H   0  0  0  0  0  0  0  0  0  0  0  0
   60.6079   32.2171   50.3881 H   0  0  0  0  0  0  0  0  0  0  0  0
   62.1060   34.1313   46.8081 H   0  0  0  0  0  0  0  0  0  0  0  0
   60.2268   31.5898   45.9407 H   0  0  0  0  0  0  0  0  0  0  0  0
  1  2  2  0
  2  3  1  0
  3  4  1  0
  4  5  1  0
  5  6  2  0
  6  7  1  0
  7  8  2  0
  8  9  1  0
  9 10  1  0
  9 11  2  0
  2 12  1  0
 12 13  2  0
 13 14  1  0
 13 15  1  0
 15 16  2  0
 16 17  1  0
 17 18  2  0
 18 19  1  0
 19 20  1  0
 20 21  1  0
 21 22  2  0
 22 23  1  0
 23 24  2  0
 24 25  1  0
 25 26  1  0
 25 27  2  0
 18 28  1  0
 28 29  2  0
 29 30  1  0
 30 31  1  0
 31 32  2  0
 11  5  1  0
 31 12  1  0
 29 15  1  0
 27 21  1  0
  4 33  1  0
  4 34  1  0
  6 35  1  0
  7 36  1  0
  8 37  1  0
 11 38  1  0
 16 39  1  0
 17 40  1  0
 20 41  1  0
 20 42  1  0
 22 43  1  0
 23 44  1  0
 24 45  1  0
 27 46  1  0
 28 47  1  0
M  CHG  3   3  -1  10  -1  14  -1
M  END
>  <UniqueID>  (82) 
76

>  <SMILES>  (82) 
O=C([N-]Cc1cccc([O-])c1)c1c([O-])c2ccc(OCc3cccc(Br)c3)cc2oc1=O

>  <Energy>  (82) 
58.83030969265968

>  <Genealogy>  (82) 
O=C([N-]Cc1cccc([O-])c1)c1c([O-])c2ccc(OCc3cccc(Br)c3)cc2oc1=O (protonated)
O=C([N-]Cc1cccc([O-])c1)c1c([O-])c2ccc(OCc3cccc(Br)c3)cc2oc1=O (3D coordinates assigned)
O=C([N-]Cc1cccc([O-])c1)c1c([O-])c2ccc(OCc3cccc(Br)c3)cc2oc1=O (optimized conformer: 58.83030969265968 kcal/mol)

>  <smiles>  (82) 
O=C(NCc1cccc(O)c1)c1c(O)c2ccc(OCc3cccc(Br)c3)cc2oc1=O

>  <score_type>  (82) 
oracle

>  <origin>  (82) 
adg

>  <m_score__min__energy>  (82) 
-16.41

>  <m_primary>  (82) 
energy

$$$$
82:0
     RDKit          3D

 79 82  0  0  0  0  0  0  0  0999 V2000
   57.0410   24.7940   44.1820 C   0  0  0  0  0  0  0  0  0  0  0  0
   57.6460   24.4870   45.5300 C   0  0  0  0  0  0  0  0  0  0  0  0
   58.9030   23.6580   45.6040 C   0  0  0  0  0  0  0  0  0  0  0  0
   57.0980   24.9260   46.6830 C   0  0  0  0  0  0  0  0  0  0  0  0
   57.5840   26.1140   47.4750 C   0  0  0  0  0  0  0  0  0  0  0  0
   57.7970   27.2850   46.5620 C   0  0  0  0  0  0  0  0  0  0  0  0
   58.9910   27.9560   46.3130 C   0  0  0  0  0  0  0  0  0  0  0  0
   60.3130   27.7500   46.9920 C   0  0  0  0  0  0  0  0  0  0  0  0
   60.2770   28.3440   48.3680 C   0  0  0  0  0  0  0  0  0  0  0  0
   60.1850   29.6310   48.6720 C   0  0  0  0  0  0  0  0  0  0  0  0
   60.1850   30.6920   47.7630 O   0  0  0  0  0  0  0  0  0  0  0  0
   61.2330   30.8990   46.8200 C   0  0  0  0  0  0  0  0  0  0  0  0
   62.2850   31.7700   47.4370 C   0  0  0  0  0  0  0  0  0  0  0  0
   62.8860   31.3970   48.6510 C   0  0  0  0  0  0  0  0  0  0  0  0
   63.8360   32.2280   49.2530 C   0  0  0  0  0  0  0  0  0  0  0  0
   64.1860   33.4410   48.6510 C   0  0  0  0  0  0  0  0  0  0  0  0
   63.5810   33.8270   47.4510 C   0  0  0  0  0  0  0  0  0  0  0  0
   62.6280   32.9990   46.8480 C   0  0  0  0  0  0  0  0  0  0  0  0
   60.0260   29.8180   50.1440 C   0  0  2  0  0  0  0  0  0  0  0  0
   61.0300   30.6630   50.6430 O   0  0  0  0  0  0  0  0  0  0  0  0
   60.1420   28.3640   50.6790 C   0  0  2  0  0  0  0  0  0  0  0  0
   61.3440   28.1060   51.6010 C   0  0  0  0  0  0  0  0  0  0  0  0
   62.5170   28.6320   51.0370 O   0  0  0  0  0  0  0  0  0  0  0  0
   60.2480   27.5630   49.5080 O   0  0  0  0  0  0  0  0  0  0  0  0
   58.7000   28.9150   45.3590 C   0  0  0  0  0  0  0  0  0  0  0  0
   59.6110   29.8140   44.8190 O   0  0  0  0  0  0  0  0  0  0  0  0
   57.3990   28.8610   45.0060 N   0  0  0  0  0  0  0  0  0  0  0  0
   56.7400   29.6600   43.9760 C   0  0  0  0  0  0  0  0  0  0  0  0
   56.5570   31.1010   44.4680 C   0  0  0  0  0  0  0  0  0  0  0  0
   57.7340   32.0200   44.0950 C   0  0  0  0  0  0  0  0  0  0  0  0
   57.5550   33.4990   44.4910 C   0  0  0  0  0  0  0  0  0  0  0  0
   58.8290   34.1740   45.0280 C   0  0  0  0  0  0  0  0  0  0  0  0
   59.0180   33.9420   46.5060 C   0  0  0  0  0  0  0  0  0  0  0  0
   58.2790   32.9520   47.1750 C   0  0  0  0  0  0  0  0  0  0  0  0
   58.4780   32.7240   48.5400 C   0  0  0  0  0  0  0  0  0  0  0  0
   59.4160   33.4820   49.2460 C   0  0  0  0  0  0  0  0  0  0  0  0
   60.1560   34.4690   48.5890 C   0  0  0  0  0  0  0  0  0  0  0  0
   59.9600   34.6990   47.2240 C   0  0  0  0  0  0  0  0  0  0  0  0
   56.8550   27.8590   45.7250 C   0  0  0  0  0  0  0  0  0  0  0  0
   55.5260   27.4670   45.6240 O   0  0  0  0  0  0  0  0  0  0  0  0
   56.0679   25.2878   44.3207 H   0  0  0  0  0  0  0  0  0  0  0  0
   57.7135   25.4599   43.6214 H   0  0  0  0  0  0  0  0  0  0  0  0
   56.9006   23.8581   43.6214 H   0  0  0  0  0  0  0  0  0  0  0  0
   59.1662   23.4844   46.6578 H   0  0  0  0  0  0  0  0  0  0  0  0
   58.7355   22.6926   45.1041 H   0  0  0  0  0  0  0  0  0  0  0  0
   59.7245   24.1921   45.1041 H   0  0  0  0  0  0  0  0  0  0  0  0
   56.2304   24.3750   47.0750 H   0  0  0  0  0  0  0  0  0  0  0  0
   56.8340   26.3765   48.2357 H   0  0  0  0  0  0  0  0  0  0  0  0
   58.5359   25.8582   47.9633 H   0  0  0  0  0  0  0  0  0  0  0  0
   60.5217   26.6724   47.0651 H   0  0  0  0  0  0  0  0  0  0  0  0
   61.1025   28.2423   46.4052 H   0  0  0  0  0  0  0  0  0  0  0  0
   61.6739   29.9306   46.5413 H   0  0  0  0  0  0  0  0  0  0  0  0
   60.8300   31.3867   45.9202 H   0  0  0  0  0  0  0  0  0  0  0  0
   62.6079   30.4467   49.1302 H   0  0  0  0  0  0  0  0  0  0  0  0
   64.3081   31.9277   50.2001 H   0  0  0  0  0  0  0  0  0  0  0  0
   64.9376   34.0917   49.1219 H   0  0  0  0  0  0  0  0  0  0  0  0
   63.8547   34.7829   46.9805 H   0  0  0  0  0  0  0  0  0  0  0  0
   62.1457   33.3110   45.9099 H   0  0  0  0  0  0  0  0  0  0  0  0
   59.0844   30.3005   50.4451 H   0  0  0  0  0  0  0  0  0  0  0  0
   61.8580   30.1170   50.7010 H   0  0  0  0  0  0  0  0  0  0  0  0
   59.2711   28.1357   51.3110 H   0  0  0  0  0  0  0  0  0  0  0  0
   61.1634   28.5857   52.5743 H   0  0  0  0  0  0  0  0  0  0  0  0
   61.4669   27.0206   51.7307 H   0  0  0  0  0  0  0  0  0  0  0  0
   62.2940   28.9290   50.1140 H   0  0  0  0  0  0  0  0  0  0  0  0
   57.3572   29.6614   43.0655 H   0  0  0  0  0  0  0  0  0  0  0  0
   55.7537   29.2249   43.7571 H   0  0  0  0  0  0  0  0  0  0  0  0
   55.6385   31.5095   44.0213 H   0  0  0  0  0  0  0  0  0  0  0  0
   56.5014   31.0683   45.5661 H   0  0  0  0  0  0  0  0  0  0  0  0
   58.6365   31.6393   44.5956 H   0  0  0  0  0  0  0  0  0  0  0  0
   57.8035   32.0013   42.9974 H   0  0  0  0  0  0  0  0  0  0  0  0
   57.2202   34.0545   43.6026 H   0  0  0  0  0  0  0  0  0  0  0  0
   56.8219   33.5170   45.3109 H   0  0  0  0  0  0  0  0  0  0  0  0
   59.6986   33.7665   44.4916 H   0  0  0  0  0  0  0  0  0  0  0  0
   58.7302   35.2576   44.8666 H   0  0  0  0  0  0  0  0  0  0  0  0
   57.5402   32.3533   46.6221 H   0  0  0  0  0  0  0  0  0  0  0  0
   57.8960   31.9477   49.0584 H   0  0  0  0  0  0  0  0  0  0  0  0
   59.5721   33.3017   50.3198 H   0  0  0  0  0  0  0  0  0  0  0  0
   60.8933   35.0654   49.1464 H   0  0  0  0  0  0  0  0  0  0  0  0
   60.5453   35.4755   46.7098 H   0  0  0  0  0  0  0  0  0  0  0  0
  1  2  1  0
  2  3  1  0
  2  4  2  3
  4  5  1  0
  5  6  1  0
  6  7  1  0
  7  8  1  0
  8  9  1  0
  9 10  2  0
 10 11  1  0
 11 12  1  0
 12 13  1  0
 13 14  2  0
 14 15  1  0
 15 16  2  0
 16 17  1  0
 17 18  2  0
 10 19  1  0
 19 20  1  0
 19 21  1  0
 21 22  1  0
 22 23  1  0
 21 24  1  0
  7 25  2  0
 25 26  1  0
 25 27  1  0
 27 28  1  0
 28 29  1  0
 29 30  1  0
 30 31  1  0
 31 32  1  0
 32 33  1  0
 33 34  2  0
 34 35  1  0
 35 36  2  0
 36 37  1  0
 37 38  2  0
 27 39  1  0
 39 40  1  0
 39  6  2  0
 24  9  1  0
 38 33  1  0
 18 13  1  0
  1 41  1  0
  1 42  1  0
  1 43  1  0
  3 44  1  0
  3 45  1  0
  3 46  1  0
  4 47  1  0
  5 48  1  0
  5 49  1  0
  8 50  1  0
  8 51  1  0
 12 52  1  0
 12 53  1  0
 14 54  1  0
 15 55  1  0
 16 56  1  0
 17 57  1  0
 18 58  1  0
 19 59  1  6
 20 60  1  0
 21 61  1  1
 22 62  1  0
 22 63  1  0
 23 64  1  0
 28 65  1  0
 28 66  1  0
 29 67  1  0
 29 68  1  0
 30 69  1  0
 30 70  1  0
 31 71  1  0
 31 72  1  0
 32 73  1  0
 32 74  1  0
 34 75  1  0
 35 76  1  0
 36 77  1  0
 37 78  1  0
 38 79  1  0
M  CHG  2  26  -1  40  -1
M  END
>  <UniqueID>  (83) 
77

>  <SMILES>  (83) 
CC(C)=CCc1c(CC2=C(OCc3ccccc3)[C@H](O)[C@H](CO)O2)c([O-])n(CCCCCc2ccccc2)c1[O-]

>  <Energy>  (83) 
114.16349637054337

>  <Genealogy>  (83) 
CC(C)=CCc1c(CC2=C(OCc3ccccc3)C(O)C(CO)O2)c([O-])n(CCCCCc2ccccc2)c1[O-] (protonated)
CC(C)=CCc1c(CC2=C(OCc3ccccc3)[C@H](O)[C@H](CO)O2)c([O-])n(CCCCCc2ccccc2)c1[O-] (chirality)
CC(C)=CCc1c(CC2=C(OCc3ccccc3)[C@H](O)[C@H](CO)O2)c([O-])n(CCCCCc2ccccc2)c1[O-] (3D coordinates assigned)
CC(C)=CCc1c(CC2=C(OCc3ccccc3)[C@H](O)[C@H](CO)O2)c([O-])n(CCCCCc2ccccc2)c1[O-] (nonaromatic ring conformer: 114.16349637054337 kcal/mol)

>  <smiles>  (83) 
CC(C)=CCc1c(CC2=C(OCc3ccccc3)C(O)C(CO)O2)c(O)n(CCCCCc2ccccc2)c1O

>  <score_type>  (83) 
oracle

>  <origin>  (83) 
adg

>  <m_score__min__energy>  (83) 
-13.880000000000001

>  <m_primary>  (83) 
energy

$$$$
83:0
     RDKit          3D

 53 55  0  0  0  0  0  0  0  0999 V2000
   59.1300   35.6920   48.6190 H   0  0  0  0  0  0  0  0  0  0  0  0
   59.5420   34.8510   48.9480 O   0  0  0  0  0  0  0  0  0  0  0  0
   60.2330   34.2930   47.8640 C   0  0  0  0  0  0  0  0  0  0  0  0
   60.3156   33.2055   48.0069 H   0  0  0  0  0  0  0  0  0  0  0  0
   61.2357   34.7420   47.8083 H   0  0  0  0  0  0  0  0  0  0  0  0
   59.4860   34.5760   46.5580 C   0  0  0  0  0  0  0  0  0  0  0  0
   60.0444   34.1310   45.7213 H   0  0  0  0  0  0  0  0  0  0  0  0
   59.4034   35.6657   46.4324 H   0  0  0  0  0  0  0  0  0  0  0  0
   58.0740   33.9820   46.5890 C   0  0  0  0  0  0  0  0  0  0  0  0
   57.4300   34.5442   45.8968 H   0  0  0  0  0  0  0  0  0  0  0  0
   57.6824   34.0516   47.6146 H   0  0  0  0  0  0  0  0  0  0  0  0
   58.0990   32.5300   46.1750 C   0  0  0  0  0  0  0  0  0  0  0  0
   58.3830   31.5540   47.1270 C   0  0  0  0  0  0  0  0  0  0  0  0
   58.5542   31.8537   48.1714 H   0  0  0  0  0  0  0  0  0  0  0  0
   58.4550   30.2000   46.7820 C   0  0  0  0  0  0  0  0  0  0  0  0
   58.9310   29.2820   47.8430 C   0  0  0  0  0  0  0  0  0  0  0  0
   58.1870   28.3410   48.2350 O   0  0  0  0  0  0  0  0  0  0  0  0
   60.2030   29.5020   48.4670 N   0  0  0  0  0  0  0  0  0  0  0  0
   60.4310   30.5000   49.5060 C   0  0  0  0  0  0  0  0  0  0  0  0
   60.0228   31.4666   49.1757 H   0  0  0  0  0  0  0  0  0  0  0  0
   59.9307   30.1734   50.4296 H   0  0  0  0  0  0  0  0  0  0  0  0
   61.9280   30.6530   49.7810 C   0  0  0  0  0  0  0  0  0  0  0  0
   62.0809   30.8414   50.8539 H   0  0  0  0  0  0  0  0  0  0  0  0
   62.4400   29.7271   49.4802 H   0  0  0  0  0  0  0  0  0  0  0  0
   62.4980   31.8010   48.9910 C   0  0  0  0  0  0  0  0  0  0  0  0
   62.8200   33.0100   49.6300 C   0  0  0  0  0  0  0  0  0  0  0  0
   62.6331   33.1277   50.7076 H   0  0  0  0  0  0  0  0  0  0  0  0
   63.3780   34.0650   48.8990 C   0  0  0  0  0  0  0  0  0  0  0  0
   63.6225   35.0124   49.4017 H   0  0  0  0  0  0  0  0  0  0  0  0
   63.6250   33.9170   47.5320 C   0  0  0  0  0  0  0  0  0  0  0  0
   64.0603   34.7487   46.9585 H   0  0  0  0  0  0  0  0  0  0  0  0
   63.3190   32.7120   46.8930 C   0  0  0  0  0  0  0  0  0  0  0  0
   63.5159   32.5958   45.8170 H   0  0  0  0  0  0  0  0  0  0  0  0
   62.7630   31.6540   47.6190 C   0  0  0  0  0  0  0  0  0  0  0  0
   62.5325   30.7041   47.1146 H   0  0  0  0  0  0  0  0  0  0  0  0
   58.1850   29.7840   45.4410 C   0  0  0  0  0  0  0  0  0  0  0  0
   58.3630   28.4710   45.1120 C   0  0  0  0  0  0  0  0  0  0  0  0
   59.2151   28.2323   44.4586 H   0  0  0  0  0  0  0  0  0  0  0  0
   57.5150   27.3350   45.5530 C   0  0  0  0  0  0  0  0  0  0  0  0
   56.1210   27.4850   45.6130 C   0  0  0  0  0  0  0  0  0  0  0  0
   55.5180   28.6750   45.2220 O   0  0  0  0  0  0  0  0  0  0  0  0
   55.3440   26.4570   46.0440 N   0  0  0  0  0  0  0  0  0  0  0  0
   55.8940   25.2800   46.4370 C   0  0  0  0  0  0  0  0  0  0  0  0
   55.1540   24.3400   46.8270 O   0  0  0  0  0  0  0  0  0  0  0  0
   57.2410   25.1190   46.4180 N   0  0  0  0  0  0  0  0  0  0  0  0
   58.0630   26.1160   45.9980 C   0  0  0  0  0  0  0  0  0  0  0  0
   59.3100   25.9390   46.0280 O   0  0  0  0  0  0  0  0  0  0  0  0
   57.7190   30.7770   44.5070 C   0  0  0  0  0  0  0  0  0  0  0  0
   57.1230   30.4570   43.3380 C   0  0  0  0  0  0  0  0  0  0  0  0
   57.0726   29.4065   43.0158 H   0  0  0  0  0  0  0  0  0  0  0  0
   56.6880   31.2469   42.7081 H   0  0  0  0  0  0  0  0  0  0  0  0
   57.7550   32.1450   44.8720 C   0  0  0  0  0  0  0  0  0  0  0  0
   57.4060   33.1320   43.9500 O   0  0  0  0  0  0  0  0  0  0  0  0
  1  2  1  0
  2  3  1  0
  3  4  1  0
  3  5  1  0
  3  6  1  0
  6  7  1  0
  6  8  1  0
  6  9  1  0
  9 10  1  0
  9 11  1  0
  9 12  1  0
 12 13  1  0
 13 14  1  0
 13 15  2  0
 15 16  1  0
 16 17  2  0
 16 18  1  0
 18 19  1  0
 19 20  1  0
 19 21  1  0
 19 22  1  0
 22 23  1  0
 22 24  1  0
 22 25  1  0
 25 26  2  0
 26 27  1  0
 26 28  1  0
 28 29  1  0
 28 30  2  0
 30 31  1  0
 30 32  1  0
 32 33  1  0
 32 34  2  0
 34 35  1  0
 15 36  1  0
 36 37  2  0
 37 38  1  0
 37 39  1  0
 39 40  2  0
 40 41  1  0
 40 42  1  0
 42 43  1  0
 43 44  2  0
 43 45  1  0
 45 46  1  0
 46 47  2  0
 36 48  1  0
 48 49  2  0
 49 50  1  0
 49 51  1  0
 48 52  1  0
 52 53  1  0
 52 12  2  0
 34 25  1  0
 46 39  1  0
M  CHG  5  18  -1  41  -1  42  -1  45  -1  53  -1
M  END
>  <UniqueID>  (84) 
78

>  <SMILES>  (84) 
C=c1c([O-])c(CCCO)cc(C(=O)[N-]CCc2ccccc2)/c1=C/c1c([O-])[n-]c(=O)[n-]c1=O

>  <Energy>  (84) 
83.1142201081817

>  <Genealogy>  (84) 
C=c1c([O-])c(CCCO)cc(C(=O)[N-]CCc2ccccc2)c1=Cc1c([O-])[n-]c(=O)[n-]c1=O (protonated)
C=c1c([O-])c(CCCO)cc(C(=O)[N-]CCc2ccccc2)/c1=C/c1c([O-])[n-]c(=O)[n-]c1=O (cis-trans isomerization)
C=c1c([O-])c(CCCO)cc(C(=O)[N-]CCc2ccccc2)/c1=C/c1c([O-])[n-]c(=O)[n-]c1=O (3D coordinates assigned)
C=c1c([O-])c(CCCO)cc(C(=O)[N-]CCc2ccccc2)/c1=C/c1c([O-])[n-]c(=O)[n-]c1=O (optimized conformer: 83.1142201081817 kcal/mol)

>  <smiles>  (84) 
C=c1c(O)c(CCCO)cc(C(=O)NCCc2ccccc2)c1=Cc1c(O)[nH]c(=O)[nH]c1=O

>  <score_type>  (84) 
oracle

>  <origin>  (84) 
adg

>  <m_score__min__energy>  (84) 
-18.469999999999999

>  <m_primary>  (84) 
energy

$$$$
84:0
     RDKit          3D

 45 48  0  0  0  0  0  0  0  0999 V2000
   56.4770   31.3290   44.3090 O   0  0  0  0  0  0  0  0  0  0  0  0
   57.1410   30.3050   44.9740 C   0  0  0  0  0  0  0  0  0  0  0  0
   58.4720   30.4780   45.3420 C   0  0  0  0  0  0  0  0  0  0  0  0
   59.1730   29.4670   46.0140 C   0  0  0  0  0  0  0  0  0  0  0  0
   60.6120   29.7330   46.4090 C   0  0  0  0  0  0  0  0  0  0  0  0
   60.6720   30.6680   47.5490 N   0  0  0  0  0  0  0  0  0  0  0  0
   61.1190   32.0110   47.1310 C   0  0  0  0  0  0  0  0  0  0  0  0
   60.8450   33.0030   48.2660 C   0  0  0  0  0  0  0  0  0  0  0  0
   61.0550   32.3630   49.5710 N   0  0  0  0  0  0  0  0  0  0  0  0
   60.3290   32.8200   50.7280 C   0  0  0  0  0  0  0  0  0  0  0  0
   61.0180   33.4060   51.8040 C   0  0  0  0  0  0  0  0  0  0  0  0
   60.3220   33.8350   52.9380 C   0  0  0  0  0  0  0  0  0  0  0  0
   58.9350   33.6810   53.0110 C   0  0  0  0  0  0  0  0  0  0  0  0
   58.2630   34.0970   54.1110 F   0  0  0  0  0  0  0  0  0  0  0  0
   58.2420   33.0960   51.9470 C   0  0  0  0  0  0  0  0  0  0  0  0
   58.9320   32.6640   50.8090 C   0  0  0  0  0  0  0  0  0  0  0  0
   58.2350   32.1210   49.7800 F   0  0  0  0  0  0  0  0  0  0  0  0
   61.9470   31.2010   49.6540 C   0  0  0  0  0  0  0  0  0  0  0  0
   61.5440   30.1300   48.6190 C   0  0  0  0  0  0  0  0  0  0  0  0
   58.5100   28.2470   46.3220 C   0  0  0  0  0  0  0  0  0  0  0  0
   59.1740   27.1980   46.9950 C   0  0  0  0  0  0  0  0  0  0  0  0
   58.5100   26.0120   47.2970 C   0  0  0  0  0  0  0  0  0  0  0  0
   57.1780   25.8410   46.9360 C   0  0  0  0  0  0  0  0  0  0  0  0
   56.4920   26.8540   46.2660 C   0  0  0  0  0  0  0  0  0  0  0  0
   55.1610   26.6310   45.9250 O   0  0  0  0  0  0  0  0  0  0  0  0
   57.1430   28.0710   45.9480 C   0  0  0  0  0  0  0  0  0  0  0  0
   56.4740   29.1160   45.2700 C   0  0  0  0  0  0  0  0  0  0  0  0
   55.1420   28.9910   44.8820 O   0  0  0  0  0  0  0  0  0  0  0  0
   58.9818   31.4227   45.1018 H   0  0  0  0  0  0  0  0  0  0  0  0
   61.0903   28.7842   46.6938 H   0  0  0  0  0  0  0  0  0  0  0  0
   61.1380   30.1818   45.5535 H   0  0  0  0  0  0  0  0  0  0  0  0
   62.1968   31.9895   46.9120 H   0  0  0  0  0  0  0  0  0  0  0  0
   60.5733   32.3200   46.2272 H   0  0  0  0  0  0  0  0  0  0  0  0
   61.5270   33.8606   48.1696 H   0  0  0  0  0  0  0  0  0  0  0  0
   59.8000   33.3398   48.1993 H   0  0  0  0  0  0  0  0  0  0  0  0
   62.1101   33.5276   51.7535 H   0  0  0  0  0  0  0  0  0  0  0  0
   60.8676   34.2950   53.7751 H   0  0  0  0  0  0  0  0  0  0  0  0
   57.1502   32.9749   52.0047 H   0  0  0  0  0  0  0  0  0  0  0  0
   62.9799   31.5237   49.4564 H   0  0  0  0  0  0  0  0  0  0  0  0
   61.8694   30.7665   50.6615 H   0  0  0  0  0  0  0  0  0  0  0  0
   62.4570   29.7247   48.1583 H   0  0  0  0  0  0  0  0  0  0  0  0
   60.9763   29.3518   49.1502 H   0  0  0  0  0  0  0  0  0  0  0  0
   60.2284   27.3193   47.2841 H   0  0  0  0  0  0  0  0  0  0  0  0
   59.0419   25.2061   47.8239 H   0  0  0  0  0  0  0  0  0  0  0  0
   56.6620   24.9008   47.1804 H   0  0  0  0  0  0  0  0  0  0  0  0
  1  2  1  0
  2  3  2  0
  3  4  1  0
  4  5  1  0
  5  6  1  0
  6  7  1  0
  7  8  1  0
  8  9  1  0
  9 10  1  0
 10 11  2  0
 11 12  1  0
 12 13  2  0
 13 14  1  0
 13 15  1  0
 15 16  2  0
 16 17  1  0
  9 18  1  0
 18 19  1  0
  4 20  2  0
 20 21  1  0
 21 22  2  0
 22 23  1  0
 23 24  2  0
 24 25  1  0
 24 26  1  0
 26 27  2  0
 27 28  1  0
 27  2  1  0
 19  6  1  0
 26 20  1  0
 16 10  1  0
  3 29  1  0
  5 30  1  0
  5 31  1  0
  7 32  1  0
  7 33  1  0
  8 34  1  0
  8 35  1  0
 11 36  1  0
 12 37  1  0
 15 38  1  0
 18 39  1  0
 18 40  1  0
 19 41  1  0
 19 42  1  0
 21 43  1  0
 22 44  1  0
 23 45  1  0
M  CHG  3   1  -1  25  -1  28  -1
M  END
>  <UniqueID>  (85) 
79

>  <SMILES>  (85) 
[O-]c1cc(CN2CCN(c3ccc(F)cc3F)CC2)c2cccc([O-])c2c1[O-]

>  <Energy>  (85) 
67.99657323299499

>  <Genealogy>  (85) 
[O-]c1cc(CN2CCN(c3ccc(F)cc3F)CC2)c2cccc([O-])c2c1[O-] (protonated)
[O-]c1cc(CN2CCN(c3ccc(F)cc3F)CC2)c2cccc([O-])c2c1[O-] (3D coordinates assigned)
[O-]c1cc(CN2CCN(c3ccc(F)cc3F)CC2)c2cccc([O-])c2c1[O-] (nonaromatic ring conformer: 67.99657323299499 kcal/mol)

>  <smiles>  (85) 
Oc1cc(CN2CCN(c3ccc(F)cc3F)CC2)c2cccc(O)c2c1O

>  <score_type>  (85) 
oracle

>  <origin>  (85) 
adg

>  <m_score__min__energy>  (85) 
-16.34

>  <m_primary>  (85) 
energy

$$$$
85:0
     RDKit          3D

 58 61  0  0  0  0  0  0  0  0999 V2000
   55.9660   32.2616   45.0293 H   0  0  0  0  0  0  0  0  0  0  0  0
   56.9730   32.0930   44.6200 C   0  0  0  0  0  0  0  0  0  0  0  0
   57.2690   30.7440   44.0840 C   0  0  0  0  0  0  0  0  0  0  0  0
   57.3760   30.6120   42.8350 O   0  0  0  0  0  0  0  0  0  0  0  0
   57.4900   29.5610   44.9540 C   0  0  0  0  0  0  0  0  0  0  0  0
   56.4360   28.6990   45.2830 C   0  0  0  0  0  0  0  0  0  0  0  0
   55.1400   28.9660   44.8550 O   0  0  0  0  0  0  0  0  0  0  0  0
   56.6730   27.5970   46.0360 N   0  0  0  0  0  0  0  0  0  0  0  0
   55.8760   26.9610   46.2700 H   0  0  0  0  0  0  0  0  0  0  0  0
   57.9190   27.3040   46.4920 C   0  0  0  0  0  0  0  0  0  0  0  0
   58.0880   26.2610   47.1830 O   0  0  0  0  0  0  0  0  0  0  0  0
   58.9780   28.1290   46.2020 N   0  0  0  0  0  0  0  0  0  0  0  0
   60.3290   27.8120   46.7090 C   0  0  0  0  0  0  0  0  0  0  0  0
   60.4194   26.7235   46.8396 H   0  0  0  0  0  0  0  0  0  0  0  0
   61.0726   28.1726   45.9830 H   0  0  0  0  0  0  0  0  0  0  0  0
   60.5750   28.4910   48.0320 C   0  0  0  0  0  0  0  0  0  0  0  0
   60.7080   29.8890   48.1000 C   0  0  0  0  0  0  0  0  0  0  0  0
   60.6459   30.4909   47.1814 H   0  0  0  0  0  0  0  0  0  0  0  0
   60.9190   30.5170   49.3320 C   0  0  0  0  0  0  0  0  0  0  0  0
   61.0261   31.6108   49.3794 H   0  0  0  0  0  0  0  0  0  0  0  0
   60.9940   29.7580   50.5020 C   0  0  0  0  0  0  0  0  0  0  0  0
   61.1608   30.2538   51.4697 H   0  0  0  0  0  0  0  0  0  0  0  0
   60.8570   28.3680   50.4430 C   0  0  0  0  0  0  0  0  0  0  0  0
   60.9154   27.7709   51.3650 H   0  0  0  0  0  0  0  0  0  0  0  0
   60.6460   27.7360   49.2150 C   0  0  0  0  0  0  0  0  0  0  0  0
   60.5349   26.6424   49.1740 H   0  0  0  0  0  0  0  0  0  0  0  0
   58.7700   29.2620   45.4540 C   0  0  0  0  0  0  0  0  0  0  0  0
   59.7340   30.0310   45.1840 O   0  0  0  0  0  0  0  0  0  0  0  0
   57.8290   33.1280   44.6490 C   0  0  0  0  0  0  0  0  0  0  0  0
   57.9215   33.7374   43.7379 H   0  0  0  0  0  0  0  0  0  0  0  0
   58.6550   33.5090   45.8120 C   0  0  0  0  0  0  0  0  0  0  0  0
   59.9910   33.8830   45.6150 C   0  0  0  0  0  0  0  0  0  0  0  0
   60.4063   33.9146   44.5969 H   0  0  0  0  0  0  0  0  0  0  0  0
   60.7980   34.2160   46.7060 C   0  0  0  0  0  0  0  0  0  0  0  0
   61.8512   34.4890   46.5442 H   0  0  0  0  0  0  0  0  0  0  0  0
   60.2700   34.2040   48.0120 C   0  0  0  0  0  0  0  0  0  0  0  0
   61.0380   34.5220   49.1440 O   0  0  0  0  0  0  0  0  0  0  0  0
   61.3600   33.6200   50.2020 C   0  0  0  0  0  0  0  0  0  0  0  0
   60.8698   32.6534   50.0138 H   0  0  0  0  0  0  0  0  0  0  0  0
   61.0073   34.0492   51.1514 H   0  0  0  0  0  0  0  0  0  0  0  0
   62.8490   33.4100   50.2900 C   0  0  0  0  0  0  0  0  0  0  0  0
   63.5370   32.7280   49.2730 C   0  0  0  0  0  0  0  0  0  0  0  0
   62.9849   32.3376   48.4054 H   0  0  0  0  0  0  0  0  0  0  0  0
   64.9200   32.5430   49.3580 C   0  0  0  0  0  0  0  0  0  0  0  0
   65.4540   32.0238   48.5485 H   0  0  0  0  0  0  0  0  0  0  0  0
   65.6300   33.0170   50.4720 C   0  0  0  0  0  0  0  0  0  0  0  0
   67.1200   32.8570   50.5460 C   0  0  0  0  0  0  0  0  0  0  0  0
   67.4333   32.8234   51.5999 H   0  0  0  0  0  0  0  0  0  0  0  0
   67.4137   31.9222   50.0462 H   0  0  0  0  0  0  0  0  0  0  0  0
   67.6055   33.7082   50.0462 H   0  0  0  0  0  0  0  0  0  0  0  0
   64.9430   33.7000   51.4880 C   0  0  0  0  0  0  0  0  0  0  0  0
   65.4952   34.0897   52.3559 H   0  0  0  0  0  0  0  0  0  0  0  0
   63.5620   33.8870   51.4020 C   0  0  0  0  0  0  0  0  0  0  0  0
   63.0296   34.4108   52.2096 H   0  0  0  0  0  0  0  0  0  0  0  0
   58.9260   33.8630   48.1990 C   0  0  0  0  0  0  0  0  0  0  0  0
   58.5016   33.8554   49.2138 H   0  0  0  0  0  0  0  0  0  0  0  0
   58.1180   33.5320   47.1080 C   0  0  0  0  0  0  0  0  0  0  0  0
   57.0570   33.2886   47.2659 H   0  0  0  0  0  0  0  0  0  0  0  0
  1  2  1  0
  2  3  1  0
  3  4  2  0
  3  5  1  0
  5  6  2  0
  6  7  1  0
  6  8  1  0
  8  9  1  0
  8 10  1  0
 10 11  2  0
 10 12  1  0
 12 13  1  0
 13 14  1  0
 13 15  1  0
 13 16  1  0
 16 17  2  0
 17 18  1  0
 17 19  1  0
 19 20  1  0
 19 21  2  0
 21 22  1  0
 21 23  1  0
 23 24  1  0
 23 25  2  0
 25 26  1  0
 12 27  1  0
 27 28  2  0
  2 29  2  0
 29 30  1  0
 29 31  1  0
 31 32  2  0
 32 33  1  0
 32 34  1  0
 34 35  1  0
 34 36  2  0
 36 37  1  0
 37 38  1  0
 38 39  1  0
 38 40  1  0
 38 41  1  0
 41 42  2  0
 42 43  1  0
 42 44  1  0
 44 45  1  0
 44 46  2  0
 46 47  1  0
 47 48  1  0
 47 49  1  0
 47 50  1  0
 46 51  1  0
 51 52  1  0
 51 53  2  0
 53 54  1  0
 36 55  1  0
 55 56  1  0
 55 57  2  0
 57 58  1  0
 27  5  1  0
 57 31  1  0
 25 16  1  0
 53 41  1  0
M  CHG  1   7  -1
M  END
>  <UniqueID>  (86) 
80

>  <SMILES>  (86) 
Cc1ccc(COc2ccc(/C=C\C(=O)c3c([O-])[nH]c(=O)n(Cc4ccccc4)c3=O)cc2)cc1

>  <Energy>  (86) 
77.43984312433997

>  <Genealogy>  (86) 
Cc1ccc(COc2ccc(C=CC(=O)c3c([O-])[nH]c(=O)n(Cc4ccccc4)c3=O)cc2)cc1 (protonated)
Cc1ccc(COc2ccc(/C=C\C(=O)c3c([O-])[nH]c(=O)n(Cc4ccccc4)c3=O)cc2)cc1 (cis-trans isomerization)
Cc1ccc(COc2ccc(/C=C\C(=O)c3c([O-])[nH]c(=O)n(Cc4ccccc4)c3=O)cc2)cc1 (3D coordinates assigned)
Cc1ccc(COc2ccc(/C=C\C(=O)c3c([O-])[nH]c(=O)n(Cc4ccccc4)c3=O)cc2)cc1 (optimized conformer: 77.43984312433997 kcal/mol)

>  <smiles>  (86) 
Cc1ccc(COc2ccc(C=CC(=O)c3c(O)[nH]c(=O)n(Cc4ccccc4)c3=O)cc2)cc1

>  <score_type>  (86) 
oracle

>  <origin>  (86) 
adg

>  <m_score__min__energy>  (86) 
-13.51

>  <m_primary>  (86) 
energy

$$$$
86:0
     RDKit          3D

 64 67  0  0  0  0  0  0  0  0999 V2000
   58.1580   21.4600   43.4690 C   0  0  0  0  0  0  0  0  0  0  0  0
   57.8990   22.5520   44.4220 N   0  0  0  0  0  0  0  0  0  0  0  0
   58.9010   23.0230   45.2240 C   0  0  0  0  0  0  0  0  0  0  0  0
   60.0580   22.5230   45.1780 O   0  0  0  0  0  0  0  0  0  0  0  0
   58.6600   24.0350   46.0870 N   0  0  0  0  0  0  0  0  0  0  0  0
   57.4390   24.6220   46.1560 C   0  0  0  0  0  0  0  0  0  0  0  0
   57.2270   25.5790   47.0150 N   0  0  0  0  0  0  0  0  0  0  0  0
   58.2660   26.4530   47.5500 C   0  0  0  0  0  0  0  0  0  0  0  0
   58.6560   27.4560   46.5020 C   0  0  0  0  0  0  0  0  0  0  0  0
   60.0060   27.6310   46.1620 C   0  0  0  0  0  0  0  0  0  0  0  0
   60.3690   28.5420   45.1670 C   0  0  0  0  0  0  0  0  0  0  0  0
   59.3890   29.2800   44.4990 C   0  0  0  0  0  0  0  0  0  0  0  0
   58.0350   29.1040   44.8200 C   0  0  0  0  0  0  0  0  0  0  0  0
   56.7990   30.0660   44.0140 S   0  0  0  0  0  0  0  0  0  0  0  0
   55.5300   30.0330   44.8180 O   0  0  0  0  0  0  0  0  0  0  0  0
   56.5220   29.4730   42.6620 O   0  0  0  0  0  0  0  0  0  0  0  0
   57.3050   31.7130   43.8140 N   0  0  0  0  0  0  0  0  0  0  0  0
   57.9020   32.4740   44.8670 C   0  0  0  0  0  0  0  0  0  0  0  0
   58.2140   33.8290   44.6910 C   0  0  0  0  0  0  0  0  0  0  0  0
   58.7880   34.5580   45.7360 C   0  0  0  0  0  0  0  0  0  0  0  0
   59.0480   33.9400   46.9630 C   0  0  0  0  0  0  0  0  0  0  0  0
   58.7410   32.5850   47.1500 C   0  0  0  0  0  0  0  0  0  0  0  0
   58.9730   31.9650   48.4700 C   0  0  0  0  0  0  0  0  0  0  0  0
   59.5710   30.7810   48.6800 C   0  0  0  0  0  0  0  0  0  0  0  0
   61.0120   30.5850   48.9770 C   0  0  0  0  0  0  0  0  0  0  0  0
   61.3960   29.5750   49.6280 O   0  0  0  0  0  0  0  0  0  0  0  0
   61.9900   31.5410   48.5310 N   0  0  0  0  0  0  0  0  0  0  0  0
   63.0880   31.8850   49.4410 C   0  0  0  0  0  0  0  0  0  0  0  0
   63.9830   32.9610   48.8260 C   0  0  0  0  0  0  0  0  0  0  0  0
   63.1780   33.9000   48.1470 O   0  0  0  0  0  0  0  0  0  0  0  0
   62.6920   33.3370   46.9410 C   0  0  0  0  0  0  0  0  0  0  0  0
   62.0640   31.9330   47.1150 C   0  0  0  0  0  0  0  0  0  0  0  0
   58.1310   31.8660   46.1060 C   0  0  0  0  0  0  0  0  0  0  0  0
   57.6710   28.1880   45.8170 C   0  0  0  0  0  0  0  0  0  0  0  0
   56.4360   24.2050   45.3210 N   0  0  0  0  0  0  0  0  0  0  0  0
   55.0990   24.8250   45.3930 C   0  0  0  0  0  0  0  0  0  0  0  0
   56.6680   23.1570   44.4660 C   0  0  0  0  0  0  0  0  0  0  0  0
   55.7430   22.7440   43.7110 O   0  0  0  0  0  0  0  0  0  0  0  0
   58.3774   20.5349   44.0222 H   0  0  0  0  0  0  0  0  0  0  0  0
   57.2711   21.3074   42.8364 H   0  0  0  0  0  0  0  0  0  0  0  0
   59.0189   21.7219   42.8364 H   0  0  0  0  0  0  0  0  0  0  0  0
   57.8838   26.9782   48.4377 H   0  0  0  0  0  0  0  0  0  0  0  0
   59.1439   25.8534   47.8324 H   0  0  0  0  0  0  0  0  0  0  0  0
   60.7816   27.0486   46.6809 H   0  0  0  0  0  0  0  0  0  0  0  0
   61.4295   28.6785   44.9089 H   0  0  0  0  0  0  0  0  0  0  0  0
   59.6796   30.0003   43.7200 H   0  0  0  0  0  0  0  0  0  0  0  0
   58.0067   34.3196   43.7285 H   0  0  0  0  0  0  0  0  0  0  0  0
   59.0358   35.6201   45.5930 H   0  0  0  0  0  0  0  0  0  0  0  0
   59.4950   34.5191   47.7845 H   0  0  0  0  0  0  0  0  0  0  0  0
   58.6272   32.5191   49.3551 H   0  0  0  0  0  0  0  0  0  0  0  0
   58.9402   29.8813   48.6275 H   0  0  0  0  0  0  0  0  0  0  0  0
   62.6692   32.2607   50.3863 H   0  0  0  0  0  0  0  0  0  0  0  0
   63.6922   30.9839   49.6225 H   0  0  0  0  0  0  0  0  0  0  0  0
   64.5488   33.4681   49.6215 H   0  0  0  0  0  0  0  0  0  0  0  0
   64.6869   32.4973   48.1193 H   0  0  0  0  0  0  0  0  0  0  0  0
   61.9266   34.0104   46.5277 H   0  0  0  0  0  0  0  0  0  0  0  0
   63.5565   33.2202   46.2710 H   0  0  0  0  0  0  0  0  0  0  0  0
   61.0477   31.9426   46.6943 H   0  0  0  0  0  0  0  0  0  0  0  0
   62.7011   31.2054   46.5909 H   0  0  0  0  0  0  0  0  0  0  0  0
   57.8322   30.8193   46.2648 H   0  0  0  0  0  0  0  0  0  0  0  0
   56.6092   28.0415   46.0643 H   0  0  0  0  0  0  0  0  0  0  0  0
   54.8127   24.9578   46.4467 H   0  0  0  0  0  0  0  0  0  0  0  0
   55.1216   25.8045   44.8930 H   0  0  0  0  0  0  0  0  0  0  0  0
   54.3660   24.1749   44.8930 H   0  0  0  0  0  0  0  0  0  0  0  0
  1  2  1  0
  2  3  1  0
  3  4  2  0
  3  5  1  0
  5  6  1  0
  6  7  2  3
  7  8  1  0
  8  9  1  0
  9 10  2  0
 10 11  1  0
 11 12  2  0
 12 13  1  0
 13 14  1  0
 14 15  2  0
 14 16  2  0
 14 17  1  0
 17 18  1  0
 18 19  2  0
 19 20  1  0
 20 21  2  0
 21 22  1  0
 22 23  1  0
 23 24  2  3
 24 25  1  0
 25 26  2  0
 25 27  1  0
 27 28  1  0
 28 29  1  0
 29 30  1  0
 30 31  1  0
 31 32  1  0
 22 33  2  0
 13 34  2  0
  6 35  1  0
 35 36  1  0
 35 37  1  0
 37 38  2  0
 37  2  1  0
 34  9  1  0
 33 18  1  0
 32 27  1  0
  1 39  1  0
  1 40  1  0
  1 41  1  0
  8 42  1  0
  8 43  1  0
 10 44  1  0
 11 45  1  0
 12 46  1  0
 19 47  1  0
 20 48  1  0
 21 49  1  0
 23 50  1  0
 24 51  1  0
 28 52  1  0
 28 53  1  0
 29 54  1  0
 29 55  1  0
 31 56  1  0
 31 57  1  0
 32 58  1  0
 32 59  1  0
 33 60  1  0
 34 61  1  0
 36 62  1  0
 36 63  1  0
 36 64  1  0
M  CHG  2   5  -1  17  -1
M  END
>  <UniqueID>  (87) 
81

>  <SMILES>  (87) 
Cn1c(=O)[n-]c(=NCc2cccc(S(=O)(=O)[N-]c3cccc(C=CC(=O)N4CCOCC4)c3)c2)n(C)c1=O

>  <Energy>  (87) 
98.8508416075346

>  <Genealogy>  (87) 
Cn1c(=O)[n-]c(=NCc2cccc(S(=O)(=O)[N-]c3cccc(C=CC(=O)N4CCOCC4)c3)c2)n(C)c1=O (protonated)
Cn1c(=O)[n-]c(=NCc2cccc(S(=O)(=O)[N-]c3cccc(C=CC(=O)N4CCOCC4)c3)c2)n(C)c1=O (3D coordinates assigned)
Cn1c(=O)[n-]c(=NCc2cccc(S(=O)(=O)[N-]c3cccc(C=CC(=O)N4CCOCC4)c3)c2)n(C)c1=O (nonaromatic ring conformer: 98.8508416075346 kcal/mol)

>  <smiles>  (87) 
Cn1c(=O)[nH]c(=NCc2cccc(S(=O)(=O)Nc3cccc(C=CC(=O)N4CCOCC4)c3)c2)n(C)c1=O

>  <score_type>  (87) 
oracle

>  <origin>  (87) 
adg

>  <m_score__min__energy>  (87) 
-14.390000000000001

>  <m_primary>  (87) 
energy

$$$$
87:0
     RDKit          3D

 52 54  0  0  0  0  0  0  0  0999 V2000
   59.0150   32.9450   48.4300 C   0  0  0  0  0  0  0  0  0  0  0  0
   59.9670   32.1550   47.8830 C   0  0  0  0  0  0  0  0  0  0  0  0
   59.5970   30.8710   47.4090 C   0  0  0  0  0  0  0  0  0  0  0  0
   58.3890   30.5020   47.4580 O   0  0  0  0  0  0  0  0  0  0  0  0
   60.5840   30.0340   46.8460 C   0  0  0  0  0  0  0  0  0  0  0  0
   60.3620   28.7830   46.3880 C   0  0  0  0  0  0  0  0  0  0  0  0
   59.0490   28.1210   46.2560 C   0  0  0  0  0  0  0  0  0  0  0  0
   58.7220   27.0570   47.1060 C   0  0  0  0  0  0  0  0  0  0  0  0
   57.4620   26.4530   47.0290 C   0  0  0  0  0  0  0  0  0  0  0  0
   56.5000   26.9330   46.1230 C   0  0  0  0  0  0  0  0  0  0  0  0
   55.2040   26.3320   45.9950 N   0  0  0  0  0  0  0  0  0  0  0  0
   54.9110   24.9290   45.9910 C   0  0  0  0  0  0  0  0  0  0  0  0
   53.8170   24.4110   45.1190 C   0  0  0  0  0  0  0  0  0  0  0  0
   55.4970   24.1430   46.7830 O   0  0  0  0  0  0  0  0  0  0  0  0
   56.8290   28.0020   45.2780 C   0  0  0  0  0  0  0  0  0  0  0  0
   58.0870   28.6060   45.3560 C   0  0  0  0  0  0  0  0  0  0  0  0
   61.8410   30.5200   46.7230 N   0  0  0  0  0  0  0  0  0  0  0  0
   62.2000   31.7490   47.1580 C   0  0  0  0  0  0  0  0  0  0  0  0
   63.3960   32.1160   46.9940 O   0  0  0  0  0  0  0  0  0  0  0  0
   61.2830   32.5760   47.7630 N   0  0  0  0  0  0  0  0  0  0  0  0
   61.7280   33.9080   48.2410 C   0  0  0  0  0  0  0  0  0  0  0  0
   62.7930   33.7710   49.2900 C   0  0  0  0  0  0  0  0  0  0  0  0
   63.0460   34.7490   50.0450 O   0  0  0  0  0  0  0  0  0  0  0  0
   63.4680   32.5180   49.4750 N   0  0  0  0  0  0  0  0  0  0  0  0
   64.7020   32.3770   50.2010 C   0  0  0  0  0  0  0  0  0  0  0  0
   65.6700   33.3970   50.1750 C   0  0  0  0  0  0  0  0  0  0  0  0
   66.8790   33.2430   50.8580 C   0  0  0  0  0  0  0  0  0  0  0  0
   67.1390   32.0680   51.5630 C   0  0  0  0  0  0  0  0  0  0  0  0
   66.1950   31.0380   51.5810 C   0  0  0  0  0  0  0  0  0  0  0  0
   64.9710   31.1810   50.8970 C   0  0  0  0  0  0  0  0  0  0  0  0
   64.0010   30.1650   50.8960 O   0  0  0  0  0  0  0  0  0  0  0  0
   62.6920   30.2970   51.4390 C   0  0  0  0  0  0  0  0  0  0  0  0
   59.2787   33.9451   48.8045 H   0  0  0  0  0  0  0  0  0  0  0  0
   57.9771   32.5873   48.5003 H   0  0  0  0  0  0  0  0  0  0  0  0
   61.2447   28.2012   46.0840 H   0  0  0  0  0  0  0  0  0  0  0  0
   59.4591   26.6944   47.8376 H   0  0  0  0  0  0  0  0  0  0  0  0
   57.2232   25.5991   47.6800 H   0  0  0  0  0  0  0  0  0  0  0  0
   53.0002   24.0243   45.7462 H   0  0  0  0  0  0  0  0  0  0  0  0
   53.4377   25.2251   44.4839 H   0  0  0  0  0  0  0  0  0  0  0  0
   54.2064   23.6016   44.4839 H   0  0  0  0  0  0  0  0  0  0  0  0
   56.0918   28.3681   44.5483 H   0  0  0  0  0  0  0  0  0  0  0  0
   58.3241   29.4642   44.7100 H   0  0  0  0  0  0  0  0  0  0  0  0
   62.1302   34.4798   47.3917 H   0  0  0  0  0  0  0  0  0  0  0  0
   60.8656   34.4302   48.6810 H   0  0  0  0  0  0  0  0  0  0  0  0
   63.0140   31.6580   49.0930 H   0  0  0  0  0  0  0  0  0  0  0  0
   65.4739   34.3221   49.6132 H   0  0  0  0  0  0  0  0  0  0  0  0
   67.6268   34.0495   50.8397 H   0  0  0  0  0  0  0  0  0  0  0  0
   68.0887   31.9520   52.1057 H   0  0  0  0  0  0  0  0  0  0  0  0
   66.4083   30.1102   52.1321 H   0  0  0  0  0  0  0  0  0  0  0  0
   62.7484   30.2913   52.5375 H   0  0  0  0  0  0  0  0  0  0  0  0
   62.2481   31.2445   51.0996 H   0  0  0  0  0  0  0  0  0  0  0  0
   62.0678   29.4572   51.0996 H   0  0  0  0  0  0  0  0  0  0  0  0
  1  2  2  0
  2  3  1  0
  3  4  2  0
  3  5  1  0
  5  6  2  3
  6  7  1  0
  7  8  2  0
  8  9  1  0
  9 10  2  0
 10 11  1  0
 11 12  1  0
 12 13  1  0
 12 14  2  0
 10 15  1  0
 15 16  2  0
  5 17  1  0
 17 18  1  0
 18 19  2  0
 18 20  1  0
 20 21  1  0
 21 22  1  0
 22 23  2  0
 22 24  1  0
 24 25  1  0
 25 26  2  0
 26 27  1  0
 27 28  2  0
 28 29  1  0
 29 30  2  0
 30 31  1  0
 31 32  1  0
 20  2  1  0
 30 25  1  0
 16  7  1  0
  1 33  1  0
  1 34  1  0
  6 35  1  0
  8 36  1  0
  9 37  1  0
 13 38  1  0
 13 39  1  0
 13 40  1  0
 15 41  1  0
 16 42  1  0
 21 43  1  0
 21 44  1  0
 24 45  1  0
 26 46  1  0
 27 47  1  0
 28 48  1  0
 29 49  1  0
 32 50  1  0
 32 51  1  0
 32 52  1  0
M  CHG  2  11  -1  17  -1
M  END
>  <UniqueID>  (88) 
82

>  <SMILES>  (88) 
C=c1c(=O)c(=Cc2ccc([N-]C(C)=O)cc2)[n-]c(=O)n1CC(=O)Nc1ccccc1OC

>  <Energy>  (88) 
81.39678343365668

>  <Genealogy>  (88) 
C=c1c(=O)c(=Cc2ccc([N-]C(C)=O)cc2)[n-]c(=O)n1CC(=O)Nc1ccccc1OC (protonated)
C=c1c(=O)c(=Cc2ccc([N-]C(C)=O)cc2)[n-]c(=O)n1CC(=O)Nc1ccccc1OC (3D coordinates assigned)
C=c1c(=O)c(=Cc2ccc([N-]C(C)=O)cc2)[n-]c(=O)n1CC(=O)Nc1ccccc1OC (optimized conformer: 81.39678343365668 kcal/mol)

>  <smiles>  (88) 
C=c1c(=O)c(=Cc2ccc(NC(C)=O)cc2)[nH]c(=O)n1CC(=O)Nc1ccccc1OC

>  <score_type>  (88) 
oracle

>  <origin>  (88) 
adg

>  <m_score__min__energy>  (88) 
-11.5

>  <m_primary>  (88) 
energy

$$$$
88:0
     RDKit          3D

 24 25  0  0  0  0  0  0  0  0999 V2000
   55.7050   24.2190   45.1930 C   0  0  0  0  0  0  0  0  0  0  0  0
   54.8230   25.3520   45.6200 C   0  0  0  0  0  0  0  0  0  0  0  0
   53.5770   25.1800   45.6310 O   0  0  0  0  0  0  0  0  0  0  0  0
   55.3460   26.6330   45.9970 N   0  0  0  0  0  0  0  0  0  0  0  0
   56.6940   27.1030   45.8630 C   0  0  0  0  0  0  0  0  0  0  0  0
   58.0890   26.2870   46.4050 S   0  0  0  0  0  0  0  0  0  0  0  0
   59.1150   27.5390   45.9750 C   0  0  0  0  0  0  0  0  0  0  0  0
   58.4280   28.5720   45.4550 C   0  0  0  0  0  0  0  0  0  0  0  0
   57.0420   28.3750   45.3800 C   0  0  0  0  0  0  0  0  0  0  0  0
   56.0830   29.3770   44.8680 C   0  0  0  0  0  0  0  0  0  0  0  0
   54.9370   29.0250   44.4840 O   0  0  0  0  0  0  0  0  0  0  0  0
   56.4320   30.7200   44.8070 O   0  0  0  0  0  0  0  0  0  0  0  0
   59.3100   29.7110   45.1240 C   0  0  0  0  0  0  0  0  0  0  0  0
   60.7200   29.1950   45.5190 C   0  0  0  0  0  0  0  0  0  0  0  0
   60.5610   27.7710   46.1060 C   0  0  0  0  0  0  0  0  0  0  0  0
   56.1025   23.7084   46.0825 H   0  0  0  0  0  0  0  0  0  0  0  0
   55.1214   23.5066   44.5914 H   0  0  0  0  0  0  0  0  0  0  0  0
   56.5388   24.6100   44.5914 H   0  0  0  0  0  0  0  0  0  0  0  0
   59.2629   29.9473   44.0507 H   0  0  0  0  0  0  0  0  0  0  0  0
   59.0293   30.6390   45.6437 H   0  0  0  0  0  0  0  0  0  0  0  0
   61.3680   29.1624   44.6307 H   0  0  0  0  0  0  0  0  0  0  0  0
   61.1783   29.8653   46.2610 H   0  0  0  0  0  0  0  0  0  0  0  0
   61.1369   27.0344   45.5265 H   0  0  0  0  0  0  0  0  0  0  0  0
   60.9313   27.6754   47.1374 H   0  0  0  0  0  0  0  0  0  0  0  0
  1  2  1  0
  2  3  2  0
  2  4  1  0
  4  5  1  0
  5  6  1  0
  6  7  1  0
  7  8  2  0
  8  9  1  0
  9 10  1  0
 10 11  2  0
 10 12  1  0
  8 13  1  0
 13 14  1  0
 14 15  1  0
  9  5  2  0
 15  7  1  0
  1 16  1  0
  1 17  1  0
  1 18  1  0
 13 19  1  0
 13 20  1  0
 14 21  1  0
 14 22  1  0
 15 23  1  0
 15 24  1  0
M  CHG  2   4  -1  12  -1
M  END
>  <UniqueID>  (89) 
83

>  <SMILES>  (89) 
CC(=O)[N-]c1sc2c(c1C(=O)[O-])CCC2

>  <Energy>  (89) 
68.42046684864063

>  <Genealogy>  (89) 
CC(=O)[N-]c1sc2c(c1C(=O)[O-])CCC2 (protonated)
CC(=O)[N-]c1sc2c(c1C(=O)[O-])CCC2 (3D coordinates assigned)
CC(=O)[N-]c1sc2c(c1C(=O)[O-])CCC2 (nonaromatic ring conformer: 68.42046684864063 kcal/mol)

>  <smiles>  (89) 
CC(=O)Nc1sc2c(c1C(=O)O)CCC2

>  <score_type>  (89) 
oracle

>  <origin>  (89) 
adg

>  <m_score__min__energy>  (89) 
-11.039999999999999

>  <m_primary>  (89) 
energy

$$$$
89:0
     RDKit          3D

 46 48  0  0  1  0  0  0  0  0999 V2000
   60.0120   28.3860   48.5290 C   0  0  0  0  0  0  0  0  0  0  0  0
   60.5620   30.0420   48.7020 S   0  0  0  0  0  0  0  0  0  0  0  0
   61.0180   30.4910   47.3180 O   0  0  0  0  0  0  0  0  0  0  0  0
   61.7620   30.1720   49.5800 O   0  0  0  0  0  0  0  0  0  0  0  0
   59.2830   31.1800   49.1660 C   0  0  0  0  0  0  0  0  0  0  0  0
   59.9150   32.3730   49.9750 C   0  0  0  0  0  0  0  0  0  0  0  0
   60.1740   33.2060   48.8530 N   0  0  0  0  0  0  0  0  0  0  0  0
   61.3480   33.2750   48.3550 C   0  0  0  0  0  0  0  0  0  0  0  0
   62.3210   32.6730   49.0990 N   0  0  0  0  0  0  0  0  0  0  0  0
   63.5910   32.6060   48.6730 C   0  0  0  0  0  0  0  0  0  0  0  0
   64.4850   32.0310   49.4030 N   0  0  0  0  0  0  0  0  0  0  0  0
   63.9090   33.1420   47.4880 N   0  0  0  0  0  0  0  0  0  0  0  0
   62.9800   33.7420   46.7350 C   0  0  0  0  0  0  0  0  0  0  0  0
   61.6320   33.8480   47.1270 C   0  0  0  0  0  0  0  0  0  0  0  0
   60.6580   34.6360   46.3970 C   0  0  0  0  0  0  0  0  0  0  0  0
   59.5030   33.8120   45.8660 C   0  0  0  0  0  0  0  0  0  0  0  0
   58.6950   34.4190   44.8680 C   0  0  0  0  0  0  0  0  0  0  0  0
   57.4090   33.1160   44.5170 S   0  0  0  0  0  0  0  0  0  0  0  0
   58.1710   31.9580   45.7760 C   0  0  0  0  0  0  0  0  0  0  0  0
   57.6700   30.7870   46.0010 N   0  0  0  0  0  0  0  0  0  0  0  0
   57.0680   30.0490   44.9120 C   0  0  0  0  0  0  0  0  0  0  0  0
   55.8580   30.1760   44.6100 O   0  0  0  0  0  0  0  0  0  0  0  0
   57.8660   29.0950   44.0900 C   0  0  0  0  0  0  0  0  0  0  0  0
   58.1100   27.7050   44.5290 C   0  0  0  0  0  0  0  0  0  0  0  0
   59.2540   28.7370   44.5680 C   0  0  0  0  0  0  0  0  0  0  0  0
   59.1940   32.6230   46.2570 N   0  0  0  0  0  0  0  0  0  0  0  0
   59.8647   27.9426   49.5249 H   0  0  0  0  0  0  0  0  0  0  0  0
   59.0608   28.3714   47.9768 H   0  0  0  0  0  0  0  0  0  0  0  0
   60.7655   27.8052   47.9768 H   0  0  0  0  0  0  0  0  0  0  0  0
   58.7917   31.5689   48.2619 H   0  0  0  0  0  0  0  0  0  0  0  0
   58.5402   30.6636   49.7918 H   0  0  0  0  0  0  0  0  0  0  0  0
   59.2064   32.8261   50.6839 H   0  0  0  0  0  0  0  0  0  0  0  0
   60.7689   32.1357   50.6266 H   0  0  0  0  0  0  0  0  0  0  0  0
   62.1180   32.2410   50.0280 H   0  0  0  0  0  0  0  0  0  0  0  0
   64.3340   31.1410   49.9260 H   0  0  0  0  0  0  0  0  0  0  0  0
   64.9090   33.0780   47.1710 H   0  0  0  0  0  0  0  0  0  0  0  0
   63.2824   34.1708   45.7682 H   0  0  0  0  0  0  0  0  0  0  0  0
   60.2568   35.4077   47.0704 H   0  0  0  0  0  0  0  0  0  0  0  0
   61.1743   35.0733   45.5297 H   0  0  0  0  0  0  0  0  0  0  0  0
   58.8020   35.4149   44.4132 H   0  0  0  0  0  0  0  0  0  0  0  0
   57.4336   29.5188   43.1716 H   0  0  0  0  0  0  0  0  0  0  0  0
   57.6674   27.3389   45.4671 H   0  0  0  0  0  0  0  0  0  0  0  0
   57.9740   26.7114   44.0770 H   0  0  0  0  0  0  0  0  0  0  0  0
   59.6258   29.1183   45.5305 H   0  0  0  0  0  0  0  0  0  0  0  0
   60.2724   28.8032   44.1574 H   0  0  0  0  0  0  0  0  0  0  0  0
   59.7980   32.1230   47.0280 H   0  0  0  0  0  0  0  0  0  0  0  0
  1  2  1  0
  2  3  2  0
  2  4  2  0
  2  5  1  0
  5  6  1  0
  6  7  1  0
  7  8  2  0
  8  9  1  0
  9 10  1  0
 10 11  2  3
 10 12  1  0
 12 13  1  0
 13 14  2  0
 14 15  1  0
 15 16  1  0
 16 17  2  0
 17 18  1  0
 18 19  1  0
 19 20  2  0
 20 21  1  0
 21 22  2  0
 21 23  1  0
 23 24  1  0
 24 25  1  0
 19 26  1  0
 14  8  1  0
 26 16  1  0
 25 23  1  0
  1 27  1  0
  1 28  1  0
  1 29  1  0
  5 30  1  0
  5 31  1  0
  6 32  1  0
  6 33  1  0
  9 34  1  0
 11 35  1  0
 12 36  1  0
 13 37  1  0
 15 38  1  0
 15 39  1  0
 17 40  1  0
 23 41  1  0
 24 42  1  0
 24 43  1  0
 25 44  1  0
 25 45  1  0
 26 46  1  0
M  END
>  <smiles>  (90) 
CS(=O)(=O)CCN=c1[nH]c(=N)[nH]cc1Cc1csc(=NC(=O)C2CC2)[nH]1

>  <score_type>  (90) 
oracle

>  <origin>  (90) 
adg

>  <m_score__min__energy>  (90) 
-8.0399999999999991

>  <m_primary>  (90) 
energy

$$$$
90:0
     RDKit          3D

 43 45  0  0  0  0  0  0  0  0999 V2000
   55.1280   26.3720   46.7520 H   0  0  0  0  0  0  0  0  0  0  0  0
   54.5200   26.2380   45.9540 O   0  0  0  0  0  0  0  0  0  0  0  0
   54.0330   24.9730   45.6400 C   0  0  0  0  0  0  0  0  0  0  0  0
   52.7960   24.7390   45.1740 N   0  0  0  0  0  0  0  0  0  0  0  0
   52.7810   23.3960   45.0340 C   0  0  0  0  0  0  0  0  0  0  0  0
   51.7740   22.7700   44.6130 O   0  0  0  0  0  0  0  0  0  0  0  0
   53.9290   22.7760   45.3850 N   0  0  0  0  0  0  0  0  0  0  0  0
   54.7270   23.7920   45.7610 C   0  0  0  0  0  0  0  0  0  0  0  0
   56.1240   23.6210   46.2760 C   0  0  0  0  0  0  0  0  0  0  0  0
   56.5918   22.7601   45.7760 H   0  0  0  0  0  0  0  0  0  0  0  0
   56.0857   23.4522   47.3623 H   0  0  0  0  0  0  0  0  0  0  0  0
   56.9340   24.8490   46.0040 C   0  0  0  0  0  0  0  0  0  0  0  0
   57.6430   24.9190   44.9630 O   0  0  0  0  0  0  0  0  0  0  0  0
   56.8870   25.9450   46.9220 N   0  0  0  0  0  0  0  0  0  0  0  0
   58.0220   26.8250   47.1640 C   0  0  0  0  0  0  0  0  0  0  0  0
   57.6867   27.7002   47.7398 H   0  0  0  0  0  0  0  0  0  0  0  0
   58.7885   26.2743   47.7290 H   0  0  0  0  0  0  0  0  0  0  0  0
   58.6210   27.2930   45.8370 C   0  0  0  0  0  0  0  0  0  0  0  0
   59.6981   27.4699   45.9733 H   0  0  0  0  0  0  0  0  0  0  0  0
   58.4456   26.5110   45.0836 H   0  0  0  0  0  0  0  0  0  0  0  0
   57.9690   28.5720   45.3560 C   0  0  0  0  0  0  0  0  0  0  0  0
   56.6440   28.5100   44.8870 C   0  0  0  0  0  0  0  0  0  0  0  0
   56.0926   27.5596   44.9393 H   0  0  0  0  0  0  0  0  0  0  0  0
   56.0210   29.6410   44.3560 C   0  0  0  0  0  0  0  0  0  0  0  0
   54.9802   29.5810   44.0050 H   0  0  0  0  0  0  0  0  0  0  0  0
   56.7160   30.8460   44.2700 C   0  0  0  0  0  0  0  0  0  0  0  0
   56.2247   31.7341   43.8458 H   0  0  0  0  0  0  0  0  0  0  0  0
   58.0340   30.9280   44.7210 C   0  0  0  0  0  0  0  0  0  0  0  0
   58.5798   31.8796   44.6397 H   0  0  0  0  0  0  0  0  0  0  0  0
   58.6700   29.8060   45.2780 C   0  0  0  0  0  0  0  0  0  0  0  0
   60.0630   29.9610   45.7500 C   0  0  0  0  0  0  0  0  0  0  0  0
   60.9530   29.2280   45.2460 O   0  0  0  0  0  0  0  0  0  0  0  0
   60.4470   30.9120   46.7590 N   0  0  0  0  0  0  0  0  0  0  0  0
   60.1260   32.1740   46.8270 C   0  0  0  0  0  0  0  0  0  0  0  0
   60.9720   33.1480   46.3840 N   0  0  0  0  0  0  0  0  0  0  0  0
   60.6510   34.4680   46.4550 C   0  0  0  0  0  0  0  0  0  0  0  0
   61.3562   35.2260   46.0832 H   0  0  0  0  0  0  0  0  0  0  0  0
   59.4280   34.8610   46.9990 C   0  0  0  0  0  0  0  0  0  0  0  0
   59.1618   35.9267   47.0577 H   0  0  0  0  0  0  0  0  0  0  0  0
   58.5460   33.8860   47.4680 C   0  0  0  0  0  0  0  0  0  0  0  0
   57.5788   34.1804   47.9013 H   0  0  0  0  0  0  0  0  0  0  0  0
   58.8940   32.5360   47.3860 C   0  0  0  0  0  0  0  0  0  0  0  0
   58.2056   31.7628   47.7577 H   0  0  0  0  0  0  0  0  0  0  0  0
  1  2  1  0
  2  3  1  0
  3  4  1  0
  4  5  1  0
  5  6  2  0
  5  7  1  0
  7  8  1  0
  8  9  1  0
  9 10  1  0
  9 11  1  0
  9 12  1  0
 12 13  2  0
 12 14  1  0
 14 15  1  0
 15 16  1  0
 15 17  1  0
 15 18  1  0
 18 19  1  0
 18 20  1  0
 18 21  1  0
 21 22  2  0
 22 23  1  0
 22 24  1  0
 24 25  1  0
 24 26  2  0
 26 27  1  0
 26 28  1  0
 28 29  1  0
 28 30  2  0
 30 31  1  0
 31 32  2  0
 31 33  1  0
 33 34  2  0
 34 35  1  0
 35 36  1  0
 36 37  1  0
 36 38  2  0
 38 39  1  0
 38 40  1  0
 40 41  1  0
 40 42  2  0
 42 43  1  0
  8  3  2  0
 30 21  1  0
 42 34  1  0
M  CHG  4   4  -1   7  -1  14  -1  35  -1
M  END
>  <UniqueID>  (91) 
84

>  <SMILES>  (91) 
O=C(Cc1[n-]c(=O)[n-]c1O)[N-]CCc1ccccc1C(=O)/N=c1/cccc[n-]1

>  <Energy>  (91) 
78.22760080894562

>  <Genealogy>  (91) 
O=C(Cc1[n-]c(=O)[n-]c1O)[N-]CCc1ccccc1C(=O)N=c1cccc[n-]1 (protonated)
O=C(Cc1[n-]c(=O)[n-]c1O)[N-]CCc1ccccc1C(=O)/N=c1/cccc[n-]1 (cis-trans isomerization)
O=C(Cc1[n-]c(=O)[n-]c1O)[N-]CCc1ccccc1C(=O)/N=c1/cccc[n-]1 (3D coordinates assigned)
O=C(Cc1[n-]c(=O)[n-]c1O)[N-]CCc1ccccc1C(=O)/N=c1/cccc[n-]1 (optimized conformer: 78.22760080894562 kcal/mol)

>  <smiles>  (91) 
O=C(Cc1[nH]c(=O)[nH]c1O)NCCc1ccccc1C(=O)N=c1cccc[nH]1

>  <score_type>  (91) 
oracle

>  <origin>  (91) 
adg

>  <m_score__min__energy>  (91) 
-15.06

>  <m_primary>  (91) 
energy

$$$$
91:0
     RDKit          3D

 48 50  0  0  0  0  0  0  0  0999 V2000
   63.7680   32.1590   47.1190 N   0  0  0  0  0  0  0  0  0  0  0  0
   63.0000   33.3600   47.0380 C   0  0  0  0  0  0  0  0  0  0  0  0
   63.3010   34.2300   46.1790 O   0  0  0  0  0  0  0  0  0  0  0  0
   61.8660   33.6050   47.9600 C   0  0  0  0  0  0  0  0  0  0  0  0
   60.5820   33.8760   47.4290 C   0  0  0  0  0  0  0  0  0  0  0  0
   60.2940   34.0430   45.6550 S   0  0  0  0  0  0  0  0  0  0  0  0
   58.5500   34.5750   45.8090 C   0  0  0  0  0  0  0  0  0  0  0  0
   57.6200   33.4060   45.9030 C   0  0  0  0  0  0  0  0  0  0  0  0
   56.6620   33.4380   46.7200 O   0  0  0  0  0  0  0  0  0  0  0  0
   57.8030   32.2850   45.0290 N   0  0  0  0  0  0  0  0  0  0  0  0
   58.3070   30.9900   45.3960 C   0  0  0  0  0  0  0  0  0  0  0  0
   59.5520   30.8640   46.0440 C   0  0  0  0  0  0  0  0  0  0  0  0
   60.0640   29.6060   46.3620 C   0  0  0  0  0  0  0  0  0  0  0  0
   59.3500   28.4570   46.0310 C   0  0  0  0  0  0  0  0  0  0  0  0
   58.1250   28.5600   45.3690 C   0  0  0  0  0  0  0  0  0  0  0  0
   57.5870   29.8190   45.0360 C   0  0  0  0  0  0  0  0  0  0  0  0
   56.2810   29.8720   44.3270 C   0  0  0  0  0  0  0  0  0  0  0  0
   56.1750   30.4090   43.1920 O   0  0  0  0  0  0  0  0  0  0  0  0
   55.1430   29.3280   44.9130 O   0  0  0  0  0  0  0  0  0  0  0  0
   59.4940   34.0680   48.2850 C   0  0  0  0  0  0  0  0  0  0  0  0
   59.6620   34.0130   49.6650 C   0  0  0  0  0  0  0  0  0  0  0  0
   60.9220   33.7730   50.2040 C   0  0  0  0  0  0  0  0  0  0  0  0
   62.0400   33.5850   49.3720 C   0  0  0  0  0  0  0  0  0  0  0  0
   63.3590   33.3250   50.0050 C   0  0  0  0  0  0  0  0  0  0  0  0
   63.9500   34.2580   50.6130 O   0  0  0  0  0  0  0  0  0  0  0  0
   64.0350   32.0650   49.8720 N   0  0  0  0  0  0  0  0  0  0  0  0
   65.1840   31.6060   50.6030 C   0  0  0  0  0  0  0  0  0  0  0  0
   65.0760   30.4180   51.3380 C   0  0  0  0  0  0  0  0  0  0  0  0
   66.1640   29.9370   52.0720 C   0  0  0  0  0  0  0  0  0  0  0  0
   67.3750   30.6350   52.0670 C   0  0  0  0  0  0  0  0  0  0  0  0
   67.5030   31.8030   51.3140 C   0  0  0  0  0  0  0  0  0  0  0  0
   66.4200   32.2860   50.5720 C   0  0  0  0  0  0  0  0  0  0  0  0
   66.5980   33.3820   49.7970 F   0  0  0  0  0  0  0  0  0  0  0  0
   64.5560   31.9950   46.4540 H   0  0  0  0  0  0  0  0  0  0  0  0
   63.5800   31.4490   47.8570 H   0  0  0  0  0  0  0  0  0  0  0  0
   58.4435   35.1889   46.7155 H   0  0  0  0  0  0  0  0  0  0  0  0
   58.2868   35.1507   44.9094 H   0  0  0  0  0  0  0  0  0  0  0  0
   60.1257   31.7665   46.3016 H   0  0  0  0  0  0  0  0  0  0  0  0
   61.0333   29.5214   46.8751 H   0  0  0  0  0  0  0  0  0  0  0  0
   59.7518   27.4667   46.2915 H   0  0  0  0  0  0  0  0  0  0  0  0
   57.5727   27.6464   45.1040 H   0  0  0  0  0  0  0  0  0  0  0  0
   58.4968   34.2642   47.8642 H   0  0  0  0  0  0  0  0  0  0  0  0
   58.7983   34.1593   50.3302 H   0  0  0  0  0  0  0  0  0  0  0  0
   61.0454   33.7297   51.2962 H   0  0  0  0  0  0  0  0  0  0  0  0
   64.1281   29.8598   51.3374 H   0  0  0  0  0  0  0  0  0  0  0  0
   66.0671   29.0086   52.6539 H   0  0  0  0  0  0  0  0  0  0  0  0
   68.2266   30.2639   52.6562 H   0  0  0  0  0  0  0  0  0  0  0  0
   68.4595   32.3461   51.3039 H   0  0  0  0  0  0  0  0  0  0  0  0
  1  2  1  0
  2  3  2  0
  2  4  1  0
  4  5  2  0
  5  6  1  0
  6  7  1  0
  7  8  1  0
  8  9  2  0
  8 10  1  0
 10 11  1  0
 11 12  2  0
 12 13  1  0
 13 14  2  0
 14 15  1  0
 15 16  2  0
 16 17  1  0
 17 18  2  0
 17 19  1  0
  5 20  1  0
 20 21  2  0
 21 22  1  0
 22 23  2  0
 23 24  1  0
 24 25  2  0
 24 26  1  0
 26 27  1  0
 27 28  2  0
 28 29  1  0
 29 30  2  0
 30 31  1  0
 31 32  2  0
 32 33  1  0
 23  4  1  0
 32 27  1  0
 16 11  1  0
  1 34  1  0
  1 35  1  0
  7 36  1  0
  7 37  1  0
 12 38  1  0
 13 39  1  0
 14 40  1  0
 15 41  1  0
 20 42  1  0
 21 43  1  0
 22 44  1  0
 28 45  1  0
 29 46  1  0
 30 47  1  0
 31 48  1  0
M  CHG  3  10  -1  19  -1  26  -1
M  END
>  <UniqueID>  (92) 
85

>  <SMILES>  (92) 
NC(=O)c1c(SCC(=O)[N-]c2ccccc2C(=O)[O-])cccc1C(=O)[N-]c1ccccc1F

>  <Energy>  (92) 
67.25259430767967

>  <Genealogy>  (92) 
NC(=O)c1c(SCC(=O)[N-]c2ccccc2C(=O)[O-])cccc1C(=O)[N-]c1ccccc1F (protonated)
NC(=O)c1c(SCC(=O)[N-]c2ccccc2C(=O)[O-])cccc1C(=O)[N-]c1ccccc1F (3D coordinates assigned)
NC(=O)c1c(SCC(=O)[N-]c2ccccc2C(=O)[O-])cccc1C(=O)[N-]c1ccccc1F (optimized conformer: 67.25259430767967 kcal/mol)

>  <smiles>  (92) 
NC(=O)c1c(SCC(=O)Nc2ccccc2C(=O)O)cccc1C(=O)Nc1ccccc1F

>  <score_type>  (92) 
oracle

>  <origin>  (92) 
adg

>  <m_score__min__energy>  (92) 
-15.16

>  <m_primary>  (92) 
energy

$$$$
92:0
     RDKit          3D

 76 81  0  0  0  0  0  0  0  0999 V2000
   55.8900   34.6510   45.9380 H   0  0  0  0  0  0  0  0  0  0  0  0
   56.3860   34.9100   45.1170 O   0  0  0  0  0  0  0  0  0  0  0  0
   57.4750   34.0320   45.0100 C   0  0  1  0  0  0  0  0  0  0  0  0
   57.9489   34.1320   44.0224 H   0  0  0  0  0  0  0  0  0  0  0  0
   58.5540   34.3870   46.0710 C   0  0  0  0  0  0  0  0  0  0  0  0
   58.0765   34.9802   46.8648 H   0  0  0  0  0  0  0  0  0  0  0  0
   59.3461   34.9411   45.5460 H   0  0  0  0  0  0  0  0  0  0  0  0
   59.2240   33.1590   46.7200 C   0  0  0  0  0  0  0  0  0  0  0  0
   58.5935   32.8039   47.5485 H   0  0  0  0  0  0  0  0  0  0  0  0
   60.2170   33.4601   47.0851 H   0  0  0  0  0  0  0  0  0  0  0  0
   59.4080   32.0170   45.7070 C   0  0  1  0  0  0  0  0  0  0  0  0
   60.0278   32.4689   44.9185 H   0  0  0  0  0  0  0  0  0  0  0  0
   60.1850   30.8880   46.2320 N   0  0  0  0  0  0  0  0  0  0  0  0
   60.0470   29.8940   47.0740 C   0  0  0  0  0  0  0  0  0  0  0  0
   60.8250   29.9670   48.1910 N   0  0  0  0  0  0  0  0  0  0  0  0
   60.7980   29.0590   49.2000 C   0  0  0  0  0  0  0  0  0  0  0  0
   61.6720   29.2180   50.3320 N   0  0  0  0  0  0  0  0  0  0  0  0
   62.3990   30.4730   50.5230 C   0  0  0  0  0  0  0  0  0  0  0  0
   62.5426   30.9640   49.5492 H   0  0  0  0  0  0  0  0  0  0  0  0
   61.8201   31.1314   51.1874 H   0  0  0  0  0  0  0  0  0  0  0  0
   63.7670   30.1880   51.1570 C   0  0  0  0  0  0  0  0  0  0  0  0
   64.3889   29.6384   50.4351 H   0  0  0  0  0  0  0  0  0  0  0  0
   64.2338   31.1483   51.4214 H   0  0  0  0  0  0  0  0  0  0  0  0
   63.6310   29.3790   52.3910 N   0  0  0  0  0  0  0  0  0  0  0  0
   63.0460   29.9190   53.0720 H   0  0  0  0  0  0  0  0  0  0  0  0
   64.9720   29.1490   52.9830 C   0  0  0  0  0  0  0  0  0  0  0  0
   65.4090   30.1201   53.2586 H   0  0  0  0  0  0  0  0  0  0  0  0
   64.8461   28.5025   53.8640 H   0  0  0  0  0  0  0  0  0  0  0  0
   65.9110   28.4460   52.0190 C   0  0  0  0  0  0  0  0  0  0  0  0
   65.7800   27.0580   51.8350 C   0  0  0  0  0  0  0  0  0  0  0  0
   64.9712   26.5153   52.3462 H   0  0  0  0  0  0  0  0  0  0  0  0
   66.6660   26.3610   51.0100 C   0  0  0  0  0  0  0  0  0  0  0  0
   66.5491   25.2760   50.8715 H   0  0  0  0  0  0  0  0  0  0  0  0
   67.6980   27.0380   50.3620 C   0  0  0  0  0  0  0  0  0  0  0  0
   68.3997   26.4858   49.7197 H   0  0  0  0  0  0  0  0  0  0  0  0
   67.8410   28.4160   50.5280 C   0  0  0  0  0  0  0  0  0  0  0  0
   68.6575   28.9447   50.0144 H   0  0  0  0  0  0  0  0  0  0  0  0
   66.9530   29.1340   51.3440 C   0  0  0  0  0  0  0  0  0  0  0  0
   67.1300   30.5960   51.4580 C   0  0  0  0  0  0  0  0  0  0  0  0
   66.5680   31.4540   50.4990 C   0  0  0  0  0  0  0  0  0  0  0  0
   65.9770   31.0382   49.6697 H   0  0  0  0  0  0  0  0  0  0  0  0
   66.7580   32.8350   50.5960 C   0  0  0  0  0  0  0  0  0  0  0  0
   66.3086   33.5052   49.8484 H   0  0  0  0  0  0  0  0  0  0  0  0
   67.5200   33.3670   51.6440 C   0  0  0  0  0  0  0  0  0  0  0  0
   67.7570   35.1030   51.7620 Cl  0  0  0  0  0  0  0  0  0  0  0  0
   68.0940   32.5150   52.5930 C   0  0  0  0  0  0  0  0  0  0  0  0
   68.6936   32.9325   53.4153 H   0  0  0  0  0  0  0  0  0  0  0  0
   67.9060   31.1320   52.4970 C   0  0  0  0  0  0  0  0  0  0  0  0
   68.3678   30.4629   53.2380 H   0  0  0  0  0  0  0  0  0  0  0  0
   62.9570   28.0930   52.0920 C   0  0  0  0  0  0  0  0  0  0  0  0
   63.5708   27.5240   51.3782 H   0  0  0  0  0  0  0  0  0  0  0  0
   62.8382   27.5358   53.0330 H   0  0  0  0  0  0  0  0  0  0  0  0
   61.5690   28.3210   51.4860 C   0  0  0  0  0  0  0  0  0  0  0  0
   61.1489   27.3571   51.1628 H   0  0  0  0  0  0  0  0  0  0  0  0
   60.9130   28.7765   52.2424 H   0  0  0  0  0  0  0  0  0  0  0  0
   59.9440   27.9620   49.1050 C   0  0  0  0  0  0  0  0  0  0  0  0
   59.9110   27.2118   49.9088 H   0  0  0  0  0  0  0  0  0  0  0  0
   59.1340   27.8260   47.9830 C   0  0  0  0  0  0  0  0  0  0  0  0
   58.4598   26.9603   47.9054 H   0  0  0  0  0  0  0  0  0  0  0  0
   59.1610   28.7740   46.9470 C   0  0  0  0  0  0  0  0  0  0  0  0
   58.2890   28.4520   45.8020 C   0  0  0  0  0  0  0  0  0  0  0  0
   58.8040   28.3730   44.6580 O   0  0  0  0  0  0  0  0  0  0  0  0
   56.9500   27.9530   45.9770 N   0  0  0  0  0  0  0  0  0  0  0  0
   56.5470   26.7210   45.8660 C   0  0  0  0  0  0  0  0  0  0  0  0
   55.2670   26.3140   46.0200 N   0  0  0  0  0  0  0  0  0  0  0  0
   55.1420   24.9770   45.8120 C   0  0  0  0  0  0  0  0  0  0  0  0
   54.1779   24.4541   45.8960 H   0  0  0  0  0  0  0  0  0  0  0  0
   56.3230   24.3180   45.4850 C   0  0  0  0  0  0  0  0  0  0  0  0
   56.4263   23.2421   45.2808 H   0  0  0  0  0  0  0  0  0  0  0  0
   57.5660   25.4520   45.4560 S   0  0  0  0  0  0  0  0  0  0  0  0
   58.1250   31.5840   44.9640 C   0  0  0  0  0  0  0  0  0  0  0  0
   57.8072   30.6038   45.3490 H   0  0  0  0  0  0  0  0  0  0  0  0
   58.3578   31.5379   43.8899 H   0  0  0  0  0  0  0  0  0  0  0  0
   56.9730   32.5870   45.1530 C   0  0  0  0  0  0  0  0  0  0  0  0
   56.5402   32.4537   46.1555 H   0  0  0  0  0  0  0  0  0  0  0  0
   56.2141   32.4004   44.3789 H   0  0  0  0  0  0  0  0  0  0  0  0
  1  2  1  0
  2  3  1  0
  3  4  1  6
  3  5  1  0
  5  6  1  0
  5  7  1  0
  5  8  1  0
  8  9  1  0
  8 10  1  0
  8 11  1  0
 11 12  1  6
 11 13  1  0
 13 14  2  0
 14 15  1  0
 15 16  1  0
 16 17  1  0
 17 18  1  0
 18 19  1  0
 18 20  1  0
 18 21  1  0
 21 22  1  0
 21 23  1  0
 21 24  1  0
 24 25  1  0
 24 26  1  0
 26 27  1  0
 26 28  1  0
 26 29  1  0
 29 30  2  0
 30 31  1  0
 30 32  1  0
 32 33  1  0
 32 34  2  0
 34 35  1  0
 34 36  1  0
 36 37  1  0
 36 38  2  0
 38 39  1  0
 39 40  2  0
 40 41  1  0
 40 42  1  0
 42 43  1  0
 42 44  2  0
 44 45  1  0
 44 46  1  0
 46 47  1  0
 46 48  2  0
 48 49  1  0
 24 50  1  0
 50 51  1  0
 50 52  1  0
 50 53  1  0
 53 54  1  0
 53 55  1  0
 16 56  2  0
 56 57  1  0
 56 58  1  0
 58 59  1  0
 58 60  2  0
 60 61  1  0
 61 62  2  0
 61 63  1  0
 63 64  2  0
 64 65  1  0
 65 66  1  0
 66 67  1  0
 66 68  2  0
 68 69  1  0
 68 70  1  0
 11 71  1  0
 71 72  1  0
 71 73  1  0
 71 74  1  0
 74 75  1  0
 74 76  1  0
 74  3  1  0
 60 14  1  0
 70 64  1  0
 53 17  1  0
 38 29  1  0
 48 39  1  0
M  CHG  3  15  -1  24   1  65  -1
M  END
>  <UniqueID>  (93) 
86

>  <SMILES>  (93) 
O=C(/N=c1\[n-]ccs1)c1ccc(N2CC[NH+](Cc3ccccc3-c3ccc(Cl)cc3)CC2)[n-]/c1=N/C1CCC(O)CC1

>  <Energy>  (93) 
159.15716955013977

>  <Genealogy>  (93) 
O=C(N=c1[n-]ccs1)c1ccc(N2CC[NH+](Cc3ccccc3-c3ccc(Cl)cc3)CC2)[n-]c1=NC1CCC(O)CC1 (protonated)
O=C(/N=c1\[n-]ccs1)c1ccc(N2CC[NH+](Cc3ccccc3-c3ccc(Cl)cc3)CC2)[n-]/c1=N/C1CCC(O)CC1 (cis-trans isomerization)
O=C(/N=c1\[n-]ccs1)c1ccc(N2CC[NH+](Cc3ccccc3-c3ccc(Cl)cc3)CC2)[n-]/c1=N/C1CCC(O)CC1 (3D coordinates assigned)
O=C(/N=c1\[n-]ccs1)c1ccc(N2CC[NH+](Cc3ccccc3-c3ccc(Cl)cc3)CC2)[n-]/c1=N/C1CCC(O)CC1 (nonaromatic ring conformer: 159.15716955013977 kcal/mol)

>  <smiles>  (93) 
O=C(N=c1[nH]ccs1)c1ccc(N2CCN(Cc3ccccc3-c3ccc(Cl)cc3)CC2)[nH]c1=NC1CCC(O)CC1

>  <score_type>  (93) 
oracle

>  <origin>  (93) 
adg

>  <m_score__min__energy>  (93) 
-12.789999999999999

>  <m_primary>  (93) 
energy

$$$$
93:0
     RDKit          3D

 33 35  0  0  0  0  0  0  0  0999 V2000
   57.8890   31.1110   43.2290 O   0  0  0  0  0  0  0  0  0  0  0  0
   57.4950   30.8400   44.3960 C   0  0  0  0  0  0  0  0  0  0  0  0
   57.0410   31.8910   45.2600 N   0  0  0  0  0  0  0  0  0  0  0  0
   57.9030   32.8950   45.8950 C   0  0  2  0  0  0  0  0  0  0  0  0
   58.8550   33.5410   44.8400 C   0  0  0  0  0  0  0  0  0  0  0  0
   59.4930   34.8780   45.2550 C   0  0  0  0  0  0  0  0  0  0  0  0
   59.2500   35.2340   46.7330 C   0  0  0  0  0  0  0  0  0  0  0  0
   60.0080   34.3450   47.7250 C   0  0  0  0  0  0  0  0  0  0  0  0
   59.2230   33.1730   48.0890 N   0  0  0  0  0  0  0  0  0  0  0  0
   58.5760   32.3260   47.1340 C   0  0  0  0  0  0  0  0  0  0  0  0
   58.5140   31.0900   47.3710 O   0  0  0  0  0  0  0  0  0  0  0  0
   57.5010   29.4370   44.8710 C   0  0  0  0  0  0  0  0  0  0  0  0
   58.7270   28.7290   45.0070 C   0  0  0  0  0  0  0  0  0  0  0  0
   58.7430   27.3970   45.4580 C   0  0  0  0  0  0  0  0  0  0  0  0
   57.5250   26.8010   45.7650 C   0  0  0  0  0  0  0  0  0  0  0  0
   57.3110   25.5530   46.2060 N   0  0  0  0  0  0  0  0  0  0  0  0
   55.9600   25.5250   46.3310 C   0  0  0  0  0  0  0  0  0  0  0  0
   55.3410   24.5040   46.7300 O   0  0  0  0  0  0  0  0  0  0  0  0
   55.3230   26.6750   45.9940 N   0  0  0  0  0  0  0  0  0  0  0  0
   56.3450   27.4680   45.6380 C   0  0  0  0  0  0  0  0  0  0  0  0
   56.2860   28.7860   45.1960 C   0  0  0  0  0  0  0  0  0  0  0  0
   57.2990   33.7316   46.2762 H   0  0  0  0  0  0  0  0  0  0  0  0
   59.6666   32.8276   44.6340 H   0  0  0  0  0  0  0  0  0  0  0  0
   58.2282   33.7643   43.9641 H   0  0  0  0  0  0  0  0  0  0  0  0
   60.5779   34.8153   45.0845 H   0  0  0  0  0  0  0  0  0  0  0  0
   59.0237   35.6661   44.6479 H   0  0  0  0  0  0  0  0  0  0  0  0
   59.5643   36.2759   46.8933 H   0  0  0  0  0  0  0  0  0  0  0  0
   58.1779   35.0787   46.9239 H   0  0  0  0  0  0  0  0  0  0  0  0
   60.9510   34.0161   47.2639 H   0  0  0  0  0  0  0  0  0  0  0  0
   60.2046   34.9291   48.6361 H   0  0  0  0  0  0  0  0  0  0  0  0
   59.6741   29.2293   44.7564 H   0  0  0  0  0  0  0  0  0  0  0  0
   59.6883   26.8447   45.5644 H   0  0  0  0  0  0  0  0  0  0  0  0
   55.3223   29.3079   45.1016 H   0  0  0  0  0  0  0  0  0  0  0  0
  1  2  2  0
  2  3  1  0
  3  4  1  0
  4  5  1  0
  5  6  1  0
  6  7  1  0
  7  8  1  0
  8  9  1  0
  9 10  1  0
 10 11  2  0
  2 12  1  0
 12 13  2  0
 13 14  1  0
 14 15  2  0
 15 16  1  0
 16 17  1  0
 17 18  2  0
 17 19  1  0
 19 20  1  0
 20 21  2  0
 10  4  1  0
 21 12  1  0
 20 15  1  0
  4 22  1  1
  5 23  1  0
  5 24  1  0
  6 25  1  0
  6 26  1  0
  7 27  1  0
  7 28  1  0
  8 29  1  0
  8 30  1  0
 13 31  1  0
 14 32  1  0
 21 33  1  0
M  CHG  4   3  -1   9  -1  16  -1  19  -1
M  END
>  <UniqueID>  (94) 
87

>  <SMILES>  (94) 
O=C([N-][C@@H]1CCCC[N-]C1=O)c1ccc2[n-]c(=O)[n-]c2c1

>  <Energy>  (94) 
75.08340369650864

>  <Genealogy>  (94) 
O=C([N-]C1CCCC[N-]C1=O)c1ccc2[n-]c(=O)[n-]c2c1 (protonated)
O=C([N-][C@@H]1CCCC[N-]C1=O)c1ccc2[n-]c(=O)[n-]c2c1 (chirality)
O=C([N-][C@@H]1CCCC[N-]C1=O)c1ccc2[n-]c(=O)[n-]c2c1 (3D coordinates assigned)
O=C([N-][C@@H]1CCCC[N-]C1=O)c1ccc2[n-]c(=O)[n-]c2c1 (nonaromatic ring conformer: 75.08340369650864 kcal/mol)

>  <smiles>  (94) 
O=C(NC1CCCCNC1=O)c1ccc2[nH]c(=O)[nH]c2c1

>  <score_type>  (94) 
oracle

>  <origin>  (94) 
adg

>  <m_score__min__energy>  (94) 
-11.06

>  <m_primary>  (94) 
energy

$$$$
