0:0
     RDKit          3D

 41 43  0  0  1  0  0  0  0  0999 V2000
   55.9890   29.7030   43.0720 C   0  0  0  0  0  0  0  0  0  0  0  0
   56.9460   30.2800   44.0830 C   0  0  0  0  0  0  0  0  0  0  0  0
   58.1640   29.6520   44.3350 C   0  0  0  0  0  0  0  0  0  0  0  0
   58.9330   30.6950   45.5910 S   0  0  0  0  0  0  0  0  0  0  0  0
   57.4640   31.8790   45.6120 C   0  0  0  0  0  0  0  0  0  0  0  0
   57.4580   33.0500   46.4990 C   0  0  0  0  0  0  0  0  0  0  0  0
   58.6710   33.8300   46.3280 N   0  0  0  0  0  0  0  0  0  0  0  0
   59.3810   33.8240   47.5940 C   0  0  1  0  0  0  0  0  0  0  0  0
   58.5830   33.0100   48.5670 C   0  0  0  0  0  0  0  0  0  0  0  0
   59.4430   32.1560   49.4680 C   0  0  0  0  0  0  0  0  0  0  0  0
   58.5280   31.2630   50.2670 C   0  0  0  0  0  0  0  0  0  0  0  0
   60.2970   33.0490   50.3090 C   0  0  0  0  0  0  0  0  0  0  0  0
   60.3180   31.2310   48.6230 C   0  0  0  0  0  0  0  0  0  0  0  0
   61.2480   32.1570   47.9040 C   0  0  0  0  0  0  0  0  0  0  0  0
   62.5450   31.8140   47.7140 N   0  0  0  0  0  0  0  0  0  0  0  0
   63.3760   32.6200   47.0830 N   0  0  0  0  0  0  0  0  0  0  0  0
   62.9790   33.8220   46.5960 C   0  0  0  0  0  0  0  0  0  0  0  0
   63.7710   34.5940   45.9920 O   0  0  0  0  0  0  0  0  0  0  0  0
   61.6470   34.2130   46.7710 C   0  0  0  0  0  0  0  0  0  0  0  0
   60.7740   33.3500   47.4430 C   0  0  0  0  0  0  0  0  0  0  0  0
   56.7210   31.3590   44.7710 N   0  0  0  0  0  0  0  0  0  0  0  0
   55.1603   29.2034   43.5951 H   0  0  0  0  0  0  0  0  0  0  0  0
   55.5903   30.5114   42.4415 H   0  0  0  0  0  0  0  0  0  0  0  0
   56.5178   28.9731   42.4415 H   0  0  0  0  0  0  0  0  0  0  0  0
   58.5632   28.7355   43.8760 H   0  0  0  0  0  0  0  0  0  0  0  0
   56.5877   33.6790   46.2606 H   0  0  0  0  0  0  0  0  0  0  0  0
   57.4045   32.7035   47.5416 H   0  0  0  0  0  0  0  0  0  0  0  0
   59.2740   33.3480   45.6120 H   0  0  0  0  0  0  0  0  0  0  0  0
   59.4762   34.8490   47.9817 H   0  0  0  0  0  0  0  0  0  0  0  0
   57.9908   33.6937   49.1930 H   0  0  0  0  0  0  0  0  0  0  0  0
   57.9447   32.3314   47.9821 H   0  0  0  0  0  0  0  0  0  0  0  0
   58.6988   31.4297   51.3408 H   0  0  0  0  0  0  0  0  0  0  0  0
   57.4815   31.4966   50.0216 H   0  0  0  0  0  0  0  0  0  0  0  0
   58.7361   30.2111   50.0216 H   0  0  0  0  0  0  0  0  0  0  0  0
   60.1032   32.8463   51.3727 H   0  0  0  0  0  0  0  0  0  0  0  0
   61.3573   32.8582   50.0866 H   0  0  0  0  0  0  0  0  0  0  0  0
   60.0591   34.0997   50.0866 H   0  0  0  0  0  0  0  0  0  0  0  0
   60.8794   30.5340   49.2626 H   0  0  0  0  0  0  0  0  0  0  0  0
   59.7285   30.6086   47.9337 H   0  0  0  0  0  0  0  0  0  0  0  0
   64.3780   32.3130   46.9570 H   0  0  0  0  0  0  0  0  0  0  0  0
   61.2925   35.1811   46.3874 H   0  0  0  0  0  0  0  0  0  0  0  0
  1  2  1  0
  2  3  2  0
  3  4  1  0
  4  5  1  0
  5  6  1  0
  6  7  1  0
  7  8  1  0
  8  9  1  0
  9 10  1  0
 10 11  1  0
 10 12  1  0
 10 13  1  0
 13 14  1  0
 14 15  2  0
 15 16  1  0
 16 17  1  0
 17 18  2  0
 17 19  1  0
 19 20  2  0
  5 21  2  0
 21  2  1  0
 20  8  1  0
 20 14  1  0
  1 22  1  0
  1 23  1  0
  1 24  1  0
  3 25  1  0
  6 26  1  0
  6 27  1  0
  7 28  1  0
  8 29  1  1
  9 30  1  0
  9 31  1  0
 11 32  1  0
 11 33  1  0
 11 34  1  0
 12 35  1  0
 12 36  1  0
 12 37  1  0
 13 38  1  0
 13 39  1  0
 16 40  1  0
 19 41  1  0
M  END
>  <smiles>  (1) 
Cc1csc(CNC2CC(C)(C)Cc3n[nH]c(=O)cc32)n1

>  <score_type>  (1) 
oracle

>  <origin>  (1) 
adg

>  <m_score__min__energy>  (1) 
-7.8899999999999997

>  <m_primary>  (1) 
energy

$$$$
1:0
     RDKit          3D

 36 38  0  0  0  0  0  0  0  0999 V2000
   55.6210   29.7260   43.3670 C   0  0  0  0  0  0  0  0  0  0  0  0
   55.6750   29.2410   44.6750 O   0  0  0  0  0  0  0  0  0  0  0  0
   56.8190   29.0650   45.4270 C   0  0  0  0  0  0  0  0  0  0  0  0
   57.7620   30.0840   45.6090 C   0  0  0  0  0  0  0  0  0  0  0  0
   58.8910   29.8720   46.3660 C   0  0  0  0  0  0  0  0  0  0  0  0
   59.8280   30.8140   46.5730 N   0  0  0  0  0  0  0  0  0  0  0  0
   60.9350   30.5980   47.3180 C   0  0  0  0  0  0  0  0  0  0  0  0
   61.8990   31.6670   47.4940 C   0  0  0  0  0  0  0  0  0  0  0  0
   62.9450   31.5790   48.3880 C   0  0  0  0  0  0  0  0  0  0  0  0
   63.8730   32.6020   48.5600 C   0  0  0  0  0  0  0  0  0  0  0  0
   63.7650   33.7520   47.8230 C   0  0  0  0  0  0  0  0  0  0  0  0
   62.7120   33.8330   46.9280 C   0  0  0  0  0  0  0  0  0  0  0  0
   61.7940   32.8190   46.7590 C   0  0  0  0  0  0  0  0  0  0  0  0
   61.0600   29.3740   47.8550 N   0  0  0  0  0  0  0  0  0  0  0  0
   60.1550   28.3920   47.6830 C   0  0  0  0  0  0  0  0  0  0  0  0
   60.3460   27.2290   48.2370 N   0  0  0  0  0  0  0  0  0  0  0  0
   59.0400   28.6180   46.9290 C   0  0  0  0  0  0  0  0  0  0  0  0
   58.1350   27.6170   46.7630 C   0  0  0  0  0  0  0  0  0  0  0  0
   57.0200   27.8320   46.0140 C   0  0  0  0  0  0  0  0  0  0  0  0
   56.1010   26.8320   45.8390 O   0  0  0  0  0  0  0  0  0  0  0  0
   56.4740   25.4810   45.6960 C   0  0  0  0  0  0  0  0  0  0  0  0
   55.4993   30.8191   43.3860 H   0  0  0  0  0  0  0  0  0  0  0  0
   56.5532   29.4699   42.8422 H   0  0  0  0  0  0  0  0  0  0  0  0
   54.7679   29.2711   42.8422 H   0  0  0  0  0  0  0  0  0  0  0  0
   57.5981   31.0659   45.1410 H   0  0  0  0  0  0  0  0  0  0  0  0
   63.0503   30.6639   48.9892 H   0  0  0  0  0  0  0  0  0  0  0  0
   64.6914   32.4875   49.2861 H   0  0  0  0  0  0  0  0  0  0  0  0
   64.4846   34.5760   47.9376 H   0  0  0  0  0  0  0  0  0  0  0  0
   62.6032   34.7467   46.3253 H   0  0  0  0  0  0  0  0  0  0  0  0
   60.9757   32.9345   46.0330 H   0  0  0  0  0  0  0  0  0  0  0  0
   61.8880   29.1440   48.4380 H   0  0  0  0  0  0  0  0  0  0  0  0
   59.6330   26.8630   48.8930 H   0  0  0  0  0  0  0  0  0  0  0  0
   58.3038   26.6368   47.2327 H   0  0  0  0  0  0  0  0  0  0  0  0
   56.5991   25.0279   46.6905 H   0  0  0  0  0  0  0  0  0  0  0  0
   55.6913   24.9411   45.1429 H   0  0  0  0  0  0  0  0  0  0  0  0
   57.4228   25.4191   45.1429 H   0  0  0  0  0  0  0  0  0  0  0  0
  1  2  1  0
  2  3  1  0
  3  4  2  0
  4  5  1  0
  5  6  1  0
  6  7  2  0
  7  8  1  0
  8  9  2  0
  9 10  1  0
 10 11  2  0
 11 12  1  0
 12 13  2  0
  7 14  1  0
 14 15  1  0
 15 16  2  3
 15 17  1  0
 17 18  1  0
 18 19  2  0
 19 20  1  0
 20 21  1  0
 19  3  1  0
 17  5  2  0
 13  8  1  0
  1 22  1  0
  1 23  1  0
  1 24  1  0
  4 25  1  0
  9 26  1  0
 10 27  1  0
 11 28  1  0
 12 29  1  0
 13 30  1  0
 14 31  1  0
 16 32  1  0
 18 33  1  0
 21 34  1  0
 21 35  1  0
 21 36  1  0
M  END
>  <smiles>  (2) 
COc1cc2nc(-c3ccccc3)[nH]c(=N)c2cc1OC

>  <score_type>  (2) 
oracle

>  <origin>  (2) 
adg

>  <m_score__min__energy>  (2) 
-6.1399999999999997

>  <m_primary>  (2) 
energy

$$$$
2:0
     RDKit          3D

 35 38  0  0  0  0  0  0  0  0999 V2000
   56.6560   30.8020   45.0310 N   0  0  0  0  0  0  0  0  0  0  0  0
   57.4990   31.6540   45.4780 C   0  0  0  0  0  0  0  0  0  0  0  0
   57.1630   32.9550   45.4290 N   0  0  0  0  0  0  0  0  0  0  0  0
   58.0460   33.8630   45.8820 C   0  0  0  0  0  0  0  0  0  0  0  0
   59.2520   33.5380   46.3810 N   0  0  0  0  0  0  0  0  0  0  0  0
   59.5700   32.2370   46.4220 C   0  0  0  0  0  0  0  0  0  0  0  0
   58.7050   31.2600   45.9740 C   0  0  0  0  0  0  0  0  0  0  0  0
   59.2770   30.0230   46.1220 C   0  0  0  0  0  0  0  0  0  0  0  0
   58.8040   28.6950   45.8010 C   0  0  0  0  0  0  0  0  0  0  0  0
   58.4210   27.7460   46.7150 C   0  0  0  0  0  0  0  0  0  0  0  0
   57.9530   26.4880   46.3550 C   0  0  0  0  0  0  0  0  0  0  0  0
   57.8830   26.2090   44.9940 C   0  0  0  0  0  0  0  0  0  0  0  0
   57.2590   24.5190   44.3490 Br  0  0  0  0  0  0  0  0  0  0  0  0
   58.2640   27.1510   44.0390 C   0  0  0  0  0  0  0  0  0  0  0  0
   58.7190   28.3780   44.4400 C   0  0  0  0  0  0  0  0  0  0  0  0
   60.4940   30.2570   46.6630 N   0  0  0  0  0  0  0  0  0  0  0  0
   60.6660   31.5560   46.8380 N   0  0  0  0  0  0  0  0  0  0  0  0
   61.8520   32.1160   47.3920 C   0  0  0  0  0  0  0  0  0  0  0  0
   62.3840   33.2330   46.7510 C   0  0  0  0  0  0  0  0  0  0  0  0
   63.5340   33.8530   47.2080 C   0  0  0  0  0  0  0  0  0  0  0  0
   64.1380   33.3290   48.3210 C   0  0  0  0  0  0  0  0  0  0  0  0
   63.6110   32.2200   48.9590 C   0  0  0  0  0  0  0  0  0  0  0  0
   62.4670   31.5960   48.5110 C   0  0  0  0  0  0  0  0  0  0  0  0
   56.1650   30.0990   45.6140 H   0  0  0  0  0  0  0  0  0  0  0  0
   57.7674   34.9264   45.8423 H   0  0  0  0  0  0  0  0  0  0  0  0
   59.9390   34.2460   46.7320 H   0  0  0  0  0  0  0  0  0  0  0  0
   58.4877   27.9930   47.7848 H   0  0  0  0  0  0  0  0  0  0  0  0
   57.6520   25.7476   47.1108 H   0  0  0  0  0  0  0  0  0  0  0  0
   58.1991   26.9090   42.9679 H   0  0  0  0  0  0  0  0  0  0  0  0
   59.0203   29.1210   43.6869 H   0  0  0  0  0  0  0  0  0  0  0  0
   61.8775   33.6319   45.8597 H   0  0  0  0  0  0  0  0  0  0  0  0
   63.9481   34.7343   46.6964 H   0  0  0  0  0  0  0  0  0  0  0  0
   65.0538   33.7962   48.7123 H   0  0  0  0  0  0  0  0  0  0  0  0
   64.1204   31.8248   49.8503 H   0  0  0  0  0  0  0  0  0  0  0  0
   62.0591   30.7147   49.0276 H   0  0  0  0  0  0  0  0  0  0  0  0
  1  2  2  3
  2  3  1  0
  3  4  2  0
  4  5  1  0
  5  6  1  0
  6  7  2  0
  7  8  1  0
  8  9  1  0
  9 10  2  0
 10 11  1  0
 11 12  2  0
 12 13  1  0
 12 14  1  0
 14 15  2  0
  8 16  2  0
 16 17  1  0
 17 18  1  0
 18 19  2  0
 19 20  1  0
 20 21  2  0
 21 22  1  0
 22 23  2  0
  7  2  1  0
 15  9  1  0
 23 18  1  0
 17  6  1  0
  1 24  1  0
  4 25  1  0
  5 26  1  0
 10 27  1  0
 11 28  1  0
 14 29  1  0
 15 30  1  0
 19 31  1  0
 20 32  1  0
 21 33  1  0
 22 34  1  0
 23 35  1  0
M  END
>  <smiles>  (3) 
N=c1nc[nH]c2c1c(-c1ccc(Br)cc1)nn2-c1ccccc1

>  <score_type>  (3) 
oracle

>  <origin>  (3) 
adg

>  <m_score__min__energy>  (3) 
-7.96

>  <m_primary>  (3) 
energy

$$$$
3:0
     RDKit          3D

 45 48  0  0  0  0  0  0  0  0999 V2000
   58.5050   23.4590   45.2340 C   0  0  0  0  0  0  0  0  0  0  0  0
   57.4040   24.4510   44.8400 C   0  0  0  0  0  0  0  0  0  0  0  0
   56.9990   24.2720   43.3710 C   0  0  0  0  0  0  0  0  0  0  0  0
   57.8300   25.8800   45.1180 C   0  0  0  0  0  0  0  0  0  0  0  0
   57.9120   26.3450   46.4420 C   0  0  0  0  0  0  0  0  0  0  0  0
   58.3020   27.6590   46.7110 C   0  0  0  0  0  0  0  0  0  0  0  0
   58.6160   28.5390   45.6620 C   0  0  0  0  0  0  0  0  0  0  0  0
   59.0240   29.8940   45.9330 N   0  0  0  0  0  0  0  0  0  0  0  0
   60.1810   30.2600   46.4790 N   0  0  0  0  0  0  0  0  0  0  0  0
   60.2880   31.5840   46.5880 N   0  0  0  0  0  0  0  0  0  0  0  0
   59.1380   32.0700   46.0830 C   0  0  0  0  0  0  0  0  0  0  0  0
   58.7140   33.3830   45.8900 C   0  0  0  0  0  0  0  0  0  0  0  0
   59.5180   34.5490   46.3180 C   0  0  0  0  0  0  0  0  0  0  0  0
   59.6610   35.5280   45.5390 O   0  0  0  0  0  0  0  0  0  0  0  0
   60.2060   34.5670   47.5760 N   0  0  0  0  0  0  0  0  0  0  0  0
   61.5210   34.0510   47.8270 C   0  0  0  0  0  0  0  0  0  0  0  0
   62.3860   33.8410   46.7450 C   0  0  0  0  0  0  0  0  0  0  0  0
   63.6830   33.3620   46.9600 C   0  0  0  0  0  0  0  0  0  0  0  0
   64.1280   33.1060   48.2590 C   0  0  0  0  0  0  0  0  0  0  0  0
   63.2800   33.3370   49.3460 C   0  0  0  0  0  0  0  0  0  0  0  0
   61.9830   33.8150   49.1350 C   0  0  0  0  0  0  0  0  0  0  0  0
   57.4960   33.5550   45.2910 N   0  0  0  0  0  0  0  0  0  0  0  0
   56.7330   32.4910   44.8800 C   0  0  0  0  0  0  0  0  0  0  0  0
   57.1710   31.2090   45.0670 N   0  0  0  0  0  0  0  0  0  0  0  0
   58.3640   31.0360   45.6830 C   0  0  0  0  0  0  0  0  0  0  0  0
   58.5420   28.0750   44.3390 C   0  0  0  0  0  0  0  0  0  0  0  0
   58.1510   26.7610   44.0690 C   0  0  0  0  0  0  0  0  0  0  0  0
   58.5703   23.4002   46.3305 H   0  0  0  0  0  0  0  0  0  0  0  0
   58.2661   22.4654   44.8271 H   0  0  0  0  0  0  0  0  0  0  0  0
   59.4684   23.7999   44.8271 H   0  0  0  0  0  0  0  0  0  0  0  0
   56.5217   24.2367   45.4610 H   0  0  0  0  0  0  0  0  0  0  0  0
   55.9940   23.8278   43.3192 H   0  0  0  0  0  0  0  0  0  0  0  0
   56.9932   25.2514   42.8703 H   0  0  0  0  0  0  0  0  0  0  0  0
   57.7194   23.6084   42.8703 H   0  0  0  0  0  0  0  0  0  0  0  0
   57.6669   25.6681   47.2737 H   0  0  0  0  0  0  0  0  0  0  0  0
   58.3637   28.0075   47.7525 H   0  0  0  0  0  0  0  0  0  0  0  0
   60.9210   29.5970   46.8030 H   0  0  0  0  0  0  0  0  0  0  0  0
   62.0438   34.0537   45.7215 H   0  0  0  0  0  0  0  0  0  0  0  0
   64.3528   33.1869   46.1052 H   0  0  0  0  0  0  0  0  0  0  0  0
   65.1454   32.7228   48.4266 H   0  0  0  0  0  0  0  0  0  0  0  0
   63.6337   33.1424   50.3693 H   0  0  0  0  0  0  0  0  0  0  0  0
   61.3224   34.0070   49.9934 H   0  0  0  0  0  0  0  0  0  0  0  0
   55.7615   32.6707   44.3964 H   0  0  0  0  0  0  0  0  0  0  0  0
   58.7938   28.7511   43.5086 H   0  0  0  0  0  0  0  0  0  0  0  0
   58.0937   26.4123   43.0273 H   0  0  0  0  0  0  0  0  0  0  0  0
  1  2  1  0
  2  3  1  0
  2  4  1  0
  4  5  2  0
  5  6  1  0
  6  7  2  0
  7  8  1  0
  8  9  1  0
  9 10  2  0
 10 11  1  0
 11 12  2  0
 12 13  1  0
 13 14  2  0
 13 15  1  0
 15 16  1  0
 16 17  2  0
 17 18  1  0
 18 19  2  0
 19 20  1  0
 20 21  2  0
 12 22  1  0
 22 23  2  0
 23 24  1  0
 24 25  2  0
  7 26  1  0
 26 27  2  0
 27  4  1  0
 25  8  1  0
 25 11  1  0
 21 16  1  0
  1 28  1  0
  1 29  1  0
  1 30  1  0
  2 31  1  0
  3 32  1  0
  3 33  1  0
  3 34  1  0
  5 35  1  0
  6 36  1  0
  9 37  1  0
 17 38  1  0
 18 39  1  0
 19 40  1  0
 20 41  1  0
 21 42  1  0
 23 43  1  0
 26 44  1  0
 27 45  1  0
M  CHG  2   9   1  15  -1
M  END
>  <UniqueID>  (4) 
1

>  <SMILES>  (4) 
CC(C)c1ccc(-n2[nH+]nc3c(C(=O)[N-]c4ccccc4)ncnc32)cc1

>  <Energy>  (4) 
104.66939437656595

>  <Genealogy>  (4) 
CC(C)c1ccc(-n2[nH+]nc3c(C(=O)[N-]c4ccccc4)ncnc32)cc1 (protonated)
CC(C)c1ccc(-n2[nH+]nc3c(C(=O)[N-]c4ccccc4)ncnc32)cc1 (3D coordinates assigned)
CC(C)c1ccc(-n2[nH+]nc3c(C(=O)[N-]c4ccccc4)ncnc32)cc1 (optimized conformer: 104.66939437656595 kcal/mol)

>  <smiles>  (4) 
CC(C)c1ccc(-n2nnc3c(C(=O)Nc4ccccc4)ncnc32)cc1

>  <score_type>  (4) 
oracle

>  <origin>  (4) 
adg

>  <m_score__min__energy>  (4) 
-8.4700000000000006

>  <m_primary>  (4) 
energy

$$$$
4:0
     RDKit          3D

 46 48  0  0  1  0  0  0  0  0999 V2000
   63.7620   33.4330   48.4350 Br  0  0  0  0  0  0  0  0  0  0  0  0
   61.9220   33.6010   47.9040 C   0  0  0  0  0  0  0  0  0  0  0  0
   60.9590   33.4890   48.8800 C   0  0  0  0  0  0  0  0  0  0  0  0
   59.6260   33.6060   48.5280 C   0  0  0  0  0  0  0  0  0  0  0  0
   59.3040   33.8340   47.1900 C   0  0  0  0  0  0  0  0  0  0  0  0
   57.8450   33.9550   46.8430 C   0  0  0  0  0  0  0  0  0  0  0  0
   57.7470   34.0670   45.3960 N   0  0  0  0  0  0  0  0  0  0  0  0
   57.6560   33.0450   44.6280 C   0  0  0  0  0  0  0  0  0  0  0  0
   58.1890   33.0610   43.3560 C   0  0  0  0  0  0  0  0  0  0  0  0
   58.0420   31.9130   42.6060 C   0  0  0  0  0  0  0  0  0  0  0  0
   57.4120   30.8260   43.0850 N   0  0  0  0  0  0  0  0  0  0  0  0
   56.9010   30.8470   44.3390 C   0  0  0  0  0  0  0  0  0  0  0  0
   56.2900   29.8410   44.8500 N   0  0  0  0  0  0  0  0  0  0  0  0
   57.0470   28.7130   45.4140 C   0  0  0  0  0  0  0  0  0  0  0  0
   57.7920   27.9790   44.3180 C   0  0  0  0  0  0  0  0  0  0  0  0
   59.2770   28.3120   44.3830 C   0  0  0  0  0  0  0  0  0  0  0  0
   59.6750   28.7360   45.7500 C   0  0  0  0  0  0  0  0  0  0  0  0
   59.7930   27.8440   46.7960 C   0  0  0  0  0  0  0  0  0  0  0  0
   60.1660   28.2660   48.0640 C   0  0  0  0  0  0  0  0  0  0  0  0
   60.4240   29.6120   48.2740 C   0  0  0  0  0  0  0  0  0  0  0  0
   60.3150   30.5340   47.2510 C   0  0  0  0  0  0  0  0  0  0  0  0
   59.9410   30.0630   46.0070 C   0  0  0  0  0  0  0  0  0  0  0  0
   57.0210   31.9570   45.1190 N   0  0  0  0  0  0  0  0  0  0  0  0
   60.2740   33.9450   46.2200 C   0  0  0  0  0  0  0  0  0  0  0  0
   61.6150   33.8260   46.5870 C   0  0  0  0  0  0  0  0  0  0  0  0
   61.2450   33.3087   49.9268 H   0  0  0  0  0  0  0  0  0  0  0  0
   58.8357   33.5209   49.2883 H   0  0  0  0  0  0  0  0  0  0  0  0
   57.3017   33.0630   47.1882 H   0  0  0  0  0  0  0  0  0  0  0  0
   57.4029   34.8365   47.3304 H   0  0  0  0  0  0  0  0  0  0  0  0
   58.7064   33.9468   42.9589 H   0  0  0  0  0  0  0  0  0  0  0  0
   58.4523   31.8858   41.5857 H   0  0  0  0  0  0  0  0  0  0  0  0
   57.3060   29.9620   42.5090 H   0  0  0  0  0  0  0  0  0  0  0  0
   57.7690   29.0932   46.1516 H   0  0  0  0  0  0  0  0  0  0  0  0
   56.3453   28.0173   45.8973 H   0  0  0  0  0  0  0  0  0  0  0  0
   57.6559   26.8952   44.4480 H   0  0  0  0  0  0  0  0  0  0  0  0
   57.3949   28.2908   43.3407 H   0  0  0  0  0  0  0  0  0  0  0  0
   59.8569   27.4208   44.1010 H   0  0  0  0  0  0  0  0  0  0  0  0
   59.4777   29.1419   43.6895 H   0  0  0  0  0  0  0  0  0  0  0  0
   59.5874   26.7776   46.6212 H   0  0  0  0  0  0  0  0  0  0  0  0
   60.2556   27.5444   48.8894 H   0  0  0  0  0  0  0  0  0  0  0  0
   60.7218   29.9530   49.2765 H   0  0  0  0  0  0  0  0  0  0  0  0
   60.5181   31.6018   47.4202 H   0  0  0  0  0  0  0  0  0  0  0  0
   59.8512   30.7835   45.1807 H   0  0  0  0  0  0  0  0  0  0  0  0
   56.6330   31.9750   46.0770 H   0  0  0  0  0  0  0  0  0  0  0  0
   59.9963   34.1249   45.1709 H   0  0  0  0  0  0  0  0  0  0  0  0
   62.4115   33.9112   45.8331 H   0  0  0  0  0  0  0  0  0  0  0  0
  1  2  1  0
  2  3  2  0
  3  4  1  0
  4  5  2  0
  5  6  1  0
  6  7  1  0
  7  8  2  0
  8  9  1  0
  9 10  2  0
 10 11  1  0
 11 12  1  0
 12 13  2  0
 13 14  1  0
 14 15  1  0
 15 16  1  0
 16 17  1  0
 17 18  2  0
 18 19  1  0
 19 20  2  0
 20 21  1  0
 21 22  2  0
 12 23  1  0
  5 24  1  0
 24 25  2  0
 25  2  1  0
 23  8  1  0
 22 17  1  0
  3 26  1  0
  4 27  1  0
  6 28  1  0
  6 29  1  0
  9 30  1  0
 10 31  1  0
 11 32  1  0
 14 33  1  0
 14 34  1  0
 15 35  1  0
 15 36  1  0
 16 37  1  0
 16 38  1  0
 18 39  1  0
 19 40  1  0
 20 41  1  0
 21 42  1  0
 22 43  1  0
 23 44  1  0
 24 45  1  0
 25 46  1  0
M  END
>  <smiles>  (5) 
Brc1ccc(CN=c2cc[nH]c(=NCCCc3ccccc3)[nH]2)cc1

>  <score_type>  (5) 
oracle

>  <origin>  (5) 
adg

>  <m_score__min__energy>  (5) 
-8.4299999999999997

>  <m_primary>  (5) 
energy

$$$$
5:0
     RDKit          3D

 50 53  0  0  0  0  0  0  0  0999 V2000
   58.5010   32.0630   49.8600 C   0  0  0  0  0  0  0  0  0  0  0  0
   58.9200   31.0800   48.7990 C   0  0  0  0  0  0  0  0  0  0  0  0
   59.4320   29.8720   49.1840 N   0  0  0  0  0  0  0  0  0  0  0  0
   59.8200   28.9290   48.2780 C   0  0  0  0  0  0  0  0  0  0  0  0
   60.3250   27.6910   48.7070 C   0  0  0  0  0  0  0  0  0  0  0  0
   60.7160   26.7280   47.7700 C   0  0  0  0  0  0  0  0  0  0  0  0
   60.6060   26.9940   46.4030 C   0  0  0  0  0  0  0  0  0  0  0  0
   60.1050   28.2220   45.9640 C   0  0  0  0  0  0  0  0  0  0  0  0
   59.7120   29.1940   46.8970 C   0  0  0  0  0  0  0  0  0  0  0  0
   59.2020   30.4230   46.4810 C   0  0  0  0  0  0  0  0  0  0  0  0
   58.7790   31.3750   47.4180 C   0  0  0  0  0  0  0  0  0  0  0  0
   58.1640   32.6610   46.9040 C   0  0  0  0  0  0  0  0  0  0  0  0
   58.9200   33.2010   45.7470 N   0  0  0  0  0  0  0  0  0  0  0  0
   59.3870   34.5810   46.0310 C   0  0  0  0  0  0  0  0  0  0  0  0
   59.9600   34.6790   47.4520 C   0  0  0  0  0  0  0  0  0  0  0  0
   61.2190   33.8590   47.6050 C   0  0  0  0  0  0  0  0  0  0  0  0
   62.1810   33.8350   46.5810 C   0  0  0  0  0  0  0  0  0  0  0  0
   63.3690   33.1140   46.7440 C   0  0  0  0  0  0  0  0  0  0  0  0
   63.6000   32.4040   47.9260 C   0  0  0  0  0  0  0  0  0  0  0  0
   62.6410   32.4080   48.9420 C   0  0  0  0  0  0  0  0  0  0  0  0
   61.4530   33.1300   48.7840 C   0  0  0  0  0  0  0  0  0  0  0  0
   58.1300   33.1400   44.4920 C   0  0  0  0  0  0  0  0  0  0  0  0
   57.4700   31.8050   44.3560 C   0  0  0  0  0  0  0  0  0  0  0  0
   58.0150   30.7610   43.7040 N   0  0  0  0  0  0  0  0  0  0  0  0
   57.0590   29.8210   43.8380 C   0  0  0  0  0  0  0  0  0  0  0  0
   55.9990   30.2660   44.5360 N   0  0  0  0  0  0  0  0  0  0  0  0
   56.2580   31.5200   44.8660 N   0  0  0  0  0  0  0  0  0  0  0  0
   58.6855   31.6301   50.8543 H   0  0  0  0  0  0  0  0  0  0  0  0
   59.0819   32.9906   49.7504 H   0  0  0  0  0  0  0  0  0  0  0  0
   57.4295   32.2863   49.7504 H   0  0  0  0  0  0  0  0  0  0  0  0
   59.5230   29.6580   50.2040 H   0  0  0  0  0  0  0  0  0  0  0  0
   60.4135   27.4776   49.7825 H   0  0  0  0  0  0  0  0  0  0  0  0
   61.1108   25.7594   48.1106 H   0  0  0  0  0  0  0  0  0  0  0  0
   60.9148   26.2342   45.6700 H   0  0  0  0  0  0  0  0  0  0  0  0
   60.0185   28.4271   44.8868 H   0  0  0  0  0  0  0  0  0  0  0  0
   59.1310   30.6475   45.4065 H   0  0  0  0  0  0  0  0  0  0  0  0
   57.1279   32.4622   46.5926 H   0  0  0  0  0  0  0  0  0  0  0  0
   58.1937   33.4053   47.7134 H   0  0  0  0  0  0  0  0  0  0  0  0
   60.1689   34.8537   45.3069 H   0  0  0  0  0  0  0  0  0  0  0  0
   58.5319   35.2678   45.9466 H   0  0  0  0  0  0  0  0  0  0  0  0
   60.1916   35.7318   47.6711 H   0  0  0  0  0  0  0  0  0  0  0  0
   59.2082   34.2865   48.1525 H   0  0  0  0  0  0  0  0  0  0  0  0
   61.9992   34.3859   45.6464 H   0  0  0  0  0  0  0  0  0  0  0  0
   64.1216   33.1058   45.9418 H   0  0  0  0  0  0  0  0  0  0  0  0
   64.5368   31.8422   48.0561 H   0  0  0  0  0  0  0  0  0  0  0  0
   62.8203   31.8423   49.8682 H   0  0  0  0  0  0  0  0  0  0  0  0
   60.6993   33.1272   49.5852 H   0  0  0  0  0  0  0  0  0  0  0  0
   57.3597   33.9250   44.5101 H   0  0  0  0  0  0  0  0  0  0  0  0
   58.8054   33.2929   43.6374 H   0  0  0  0  0  0  0  0  0  0  0  0
   57.1367   28.8050   43.4236 H   0  0  0  0  0  0  0  0  0  0  0  0
  1  2  1  0
  2  3  2  0
  3  4  1  0
  4  5  2  0
  5  6  1  0
  6  7  2  0
  7  8  1  0
  8  9  2  0
  9 10  1  0
 10 11  2  0
 11 12  1  0
 12 13  1  0
 13 14  1  0
 14 15  1  0
 15 16  1  0
 16 17  2  0
 17 18  1  0
 18 19  2  0
 19 20  1  0
 20 21  2  0
 13 22  1  0
 22 23  1  0
 23 24  1  0
 24 25  2  0
 25 26  1  0
 26 27  1  0
 11  2  1  0
 21 16  1  0
 27 23  2  0
  9  4  1  0
  1 28  1  0
  1 29  1  0
  1 30  1  0
  3 31  1  0
  5 32  1  0
  6 33  1  0
  7 34  1  0
  8 35  1  0
 10 36  1  0
 12 37  1  0
 12 38  1  0
 14 39  1  0
 14 40  1  0
 15 41  1  0
 15 42  1  0
 17 43  1  0
 18 44  1  0
 19 45  1  0
 20 46  1  0
 21 47  1  0
 22 48  1  0
 22 49  1  0
 25 50  1  0
M  CHG  2   3   1  26  -1
M  END
>  <UniqueID>  (6) 
2

>  <SMILES>  (6) 
Cc1[nH+]c2ccccc2cc1CN(CCc1ccccc1)Cc1nc[n-]n1

>  <Energy>  (6) 
87.55510733098943

>  <Genealogy>  (6) 
Cc1[nH+]c2ccccc2cc1CN(CCc1ccccc1)Cc1nc[n-]n1 (protonated)
Cc1[nH+]c2ccccc2cc1CN(CCc1ccccc1)Cc1nc[n-]n1 (3D coordinates assigned)
Cc1[nH+]c2ccccc2cc1CN(CCc1ccccc1)Cc1nc[n-]n1 (optimized conformer: 87.55510733098943 kcal/mol)

>  <smiles>  (6) 
Cc1nc2ccccc2cc1CN(CCc1ccccc1)Cc1nc[nH]n1

>  <score_type>  (6) 
oracle

>  <origin>  (6) 
adg

>  <m_score__min__energy>  (6) 
-8.75

>  <m_primary>  (6) 
energy

$$$$
6:0
     RDKit          3D

 31 33  0  0  0  0  0  0  0  0999 V2000
   57.8570   27.3130   43.7330 S   0  0  0  0  0  0  0  0  0  0  0  0
   57.4390   28.8340   44.1710 C   0  0  0  0  0  0  0  0  0  0  0  0
   56.2000   29.3430   44.0390 N   0  0  0  0  0  0  0  0  0  0  0  0
   56.2550   30.5800   44.4960 N   0  0  0  0  0  0  0  0  0  0  0  0
   57.5210   30.8470   44.9110 C   0  0  0  0  0  0  0  0  0  0  0  0
   57.8930   32.1370   45.4660 C   0  0  0  0  0  0  0  0  0  0  0  0
   57.9830   33.1950   44.5650 C   0  0  0  0  0  0  0  0  0  0  0  0
   58.3370   34.4270   45.0830 C   0  0  0  0  0  0  0  0  0  0  0  0
   58.5870   34.6230   46.3920 N   0  0  0  0  0  0  0  0  0  0  0  0
   58.4990   33.6010   47.2640 C   0  0  0  0  0  0  0  0  0  0  0  0
   58.1510   32.3470   46.8050 C   0  0  0  0  0  0  0  0  0  0  0  0
   58.2650   29.7470   44.7070 N   0  0  0  0  0  0  0  0  0  0  0  0
   59.6660   29.6170   45.0160 C   0  0  0  0  0  0  0  0  0  0  0  0
   59.9290   28.7560   46.1960 C   0  0  0  0  0  0  0  0  0  0  0  0
   59.7260   29.2980   47.4490 C   0  0  0  0  0  0  0  0  0  0  0  0
   59.9540   28.5460   48.5820 C   0  0  0  0  0  0  0  0  0  0  0  0
   60.3890   27.2350   48.5210 C   0  0  0  0  0  0  0  0  0  0  0  0
   60.5820   26.7170   47.2470 C   0  0  0  0  0  0  0  0  0  0  0  0
   60.3620   27.4500   46.1030 C   0  0  0  0  0  0  0  0  0  0  0  0
   55.3690   28.8430   43.6490 H   0  0  0  0  0  0  0  0  0  0  0  0
   57.7820   33.0571   43.4923 H   0  0  0  0  0  0  0  0  0  0  0  0
   58.4179   35.2833   44.3972 H   0  0  0  0  0  0  0  0  0  0  0  0
   58.7026   33.7641   48.3326 H   0  0  0  0  0  0  0  0  0  0  0  0
   58.0787   31.5079   47.5125 H   0  0  0  0  0  0  0  0  0  0  0  0
   60.1768   29.1810   44.1448 H   0  0  0  0  0  0  0  0  0  0  0  0
   60.0416   30.6226   45.2560 H   0  0  0  0  0  0  0  0  0  0  0  0
   59.3797   30.3377   47.5445 H   0  0  0  0  0  0  0  0  0  0  0  0
   59.7841   29.0044   49.5674 H   0  0  0  0  0  0  0  0  0  0  0  0
   60.5712   26.6383   49.4269 H   0  0  0  0  0  0  0  0  0  0  0  0
   60.9253   25.6766   47.1480 H   0  0  0  0  0  0  0  0  0  0  0  0
   60.5313   26.9948   45.1160 H   0  0  0  0  0  0  0  0  0  0  0  0
  1  2  2  0
  2  3  1  0
  3  4  1  0
  4  5  2  0
  5  6  1  0
  6  7  2  0
  7  8  1  0
  8  9  2  0
  9 10  1  0
 10 11  2  0
  5 12  1  0
 12 13  1  0
 13 14  1  0
 14 15  2  0
 15 16  1  0
 16 17  2  0
 17 18  1  0
 18 19  2  0
 12  2  1  0
 19 14  1  0
 11  6  1  0
  3 20  1  0
  7 21  1  0
  8 22  1  0
 10 23  1  0
 11 24  1  0
 13 25  1  0
 13 26  1  0
 15 27  1  0
 16 28  1  0
 17 29  1  0
 18 30  1  0
 19 31  1  0
M  END
>  <smiles>  (7) 
S=c1[nH]nc(-c2ccncc2)n1Cc1ccccc1

>  <score_type>  (7) 
oracle

>  <origin>  (7) 
adg

>  <m_score__min__energy>  (7) 
-6.9699999999999998

>  <m_primary>  (7) 
energy

$$$$
7:0
     RDKit          3D

 37 39  0  0  0  0  0  0  0  0999 V2000
   55.1440   30.4860   44.4790 O   0  0  0  0  0  0  0  0  0  0  0  0
   56.5750   30.0320   44.4410 S   0  0  0  0  0  0  0  0  0  0  0  0
   56.9460   29.7520   43.0100 O   0  0  0  0  0  0  0  0  0  0  0  0
   56.7330   28.5770   45.3740 N   0  0  0  0  0  0  0  0  0  0  0  0
   57.9700   28.0340   45.8630 C   0  0  0  0  0  0  0  0  0  0  0  0
   59.1490   28.3150   45.1590 C   0  0  0  0  0  0  0  0  0  0  0  0
   60.3780   27.8040   45.6000 C   0  0  0  0  0  0  0  0  0  0  0  0
   60.4350   27.0090   46.7500 C   0  0  0  0  0  0  0  0  0  0  0  0
   59.2640   26.7140   47.4540 C   0  0  0  0  0  0  0  0  0  0  0  0
   58.0350   27.2250   47.0170 C   0  0  0  0  0  0  0  0  0  0  0  0
   57.5930   31.2960   45.1220 C   0  0  0  0  0  0  0  0  0  0  0  0
   58.1450   31.1270   46.3990 C   0  0  0  0  0  0  0  0  0  0  0  0
   58.9670   32.1170   46.9480 C   0  0  0  0  0  0  0  0  0  0  0  0
   59.2380   33.2910   46.2330 C   0  0  0  0  0  0  0  0  0  0  0  0
   60.0870   34.2510   46.8070 O   0  0  0  0  0  0  0  0  0  0  0  0
   61.3230   33.9880   47.4120 C   0  0  0  0  0  0  0  0  0  0  0  0
   61.5230   34.1630   48.7940 C   0  0  0  0  0  0  0  0  0  0  0  0
   62.7680   33.8790   49.3640 C   0  0  0  0  0  0  0  0  0  0  0  0
   63.8140   33.4110   48.5630 C   0  0  0  0  0  0  0  0  0  0  0  0
   63.6140   33.2170   47.1910 C   0  0  0  0  0  0  0  0  0  0  0  0
   62.3690   33.4950   46.6190 C   0  0  0  0  0  0  0  0  0  0  0  0
   58.6980   33.4500   44.9440 C   0  0  0  0  0  0  0  0  0  0  0  0
   57.8720   32.4640   44.3980 C   0  0  0  0  0  0  0  0  0  0  0  0
   59.1099   28.9403   44.2549 H   0  0  0  0  0  0  0  0  0  0  0  0
   61.2985   28.0284   45.0412 H   0  0  0  0  0  0  0  0  0  0  0  0
   61.4011   26.6163   47.1000 H   0  0  0  0  0  0  0  0  0  0  0  0
   59.3075   26.0801   48.3519 H   0  0  0  0  0  0  0  0  0  0  0  0
   57.1163   26.9944   47.5763 H   0  0  0  0  0  0  0  0  0  0  0  0
   57.9312   30.2126   46.9718 H   0  0  0  0  0  0  0  0  0  0  0  0
   59.4033   31.9728   47.9474 H   0  0  0  0  0  0  0  0  0  0  0  0
   60.6987   34.5237   49.4268 H   0  0  0  0  0  0  0  0  0  0  0  0
   62.9244   34.0239   50.4431 H   0  0  0  0  0  0  0  0  0  0  0  0
   64.7950   33.1950   49.0112 H   0  0  0  0  0  0  0  0  0  0  0  0
   64.4370   32.8456   46.5627 H   0  0  0  0  0  0  0  0  0  0  0  0
   62.2096   33.3265   45.5437 H   0  0  0  0  0  0  0  0  0  0  0  0
   58.9271   34.3553   44.3627 H   0  0  0  0  0  0  0  0  0  0  0  0
   57.4391   32.6046   43.3966 H   0  0  0  0  0  0  0  0  0  0  0  0
  1  2  2  0
  2  3  2  0
  2  4  1  0
  4  5  1  0
  5  6  2  0
  6  7  1  0
  7  8  2  0
  8  9  1  0
  9 10  2  0
  2 11  1  0
 11 12  2  0
 12 13  1  0
 13 14  2  0
 14 15  1  0
 15 16  1  0
 16 17  2  0
 17 18  1  0
 18 19  2  0
 19 20  1  0
 20 21  2  0
 14 22  1  0
 22 23  2  0
 10  5  1  0
 23 11  1  0
 21 16  1  0
  6 24  1  0
  7 25  1  0
  8 26  1  0
  9 27  1  0
 10 28  1  0
 12 29  1  0
 13 30  1  0
 17 31  1  0
 18 32  1  0
 19 33  1  0
 20 34  1  0
 21 35  1  0
 22 36  1  0
 23 37  1  0
M  CHG  1   4  -1
M  END
>  <UniqueID>  (8) 
3

>  <SMILES>  (8) 
O=S(=O)([N-]c1ccccc1)c1ccc(Oc2ccccc2)cc1

>  <Energy>  (8) 
49.937584964445705

>  <Genealogy>  (8) 
O=S(=O)([N-]c1ccccc1)c1ccc(Oc2ccccc2)cc1 (protonated)
O=S(=O)([N-]c1ccccc1)c1ccc(Oc2ccccc2)cc1 (3D coordinates assigned)
O=S(=O)([N-]c1ccccc1)c1ccc(Oc2ccccc2)cc1 (optimized conformer: 49.937584964445705 kcal/mol)

>  <smiles>  (8) 
O=S(=O)(Nc1ccccc1)c1ccc(Oc2ccccc2)cc1

>  <score_type>  (8) 
oracle

>  <origin>  (8) 
adg

>  <m_score__min__energy>  (8) 
-9.4700000000000006

>  <m_primary>  (8) 
energy

$$$$
8:0
     RDKit          3D

 34 36  0  0  0  0  0  0  0  0999 V2000
   65.8000   32.4090   50.1120 C   0  0  0  0  0  0  0  0  0  0  0  0
   65.0270   33.4640   49.5500 O   0  0  0  0  0  0  0  0  0  0  0  0
   63.8610   33.2760   48.7940 C   0  0  0  0  0  0  0  0  0  0  0  0
   62.7600   32.6690   49.4080 C   0  0  0  0  0  0  0  0  0  0  0  0
   61.5740   32.4610   48.6980 C   0  0  0  0  0  0  0  0  0  0  0  0
   61.4670   32.8760   47.3610 C   0  0  0  0  0  0  0  0  0  0  0  0
   60.2340   32.6360   46.5850 C   0  0  0  0  0  0  0  0  0  0  0  0
   59.9750   31.3820   46.2230 O   0  0  0  0  0  0  0  0  0  0  0  0
   58.8870   31.0270   45.5510 C   0  0  0  0  0  0  0  0  0  0  0  0
   58.6910   29.6830   45.2120 C   0  0  0  0  0  0  0  0  0  0  0  0
   57.5440   29.2940   44.5150 C   0  0  0  0  0  0  0  0  0  0  0  0
   56.5870   30.2460   44.1530 C   0  0  0  0  0  0  0  0  0  0  0  0
   56.7740   31.5910   44.4850 C   0  0  0  0  0  0  0  0  0  0  0  0
   57.9260   31.9940   45.1850 C   0  0  0  0  0  0  0  0  0  0  0  0
   58.1630   33.3330   45.5320 C   0  0  0  0  0  0  0  0  0  0  0  0
   57.3230   34.2250   45.2260 O   0  0  0  0  0  0  0  0  0  0  0  0
   59.3440   33.6780   46.2160 C   0  0  0  0  0  0  0  0  0  0  0  0
   59.6320   35.1240   46.5460 C   0  0  0  0  0  0  0  0  0  0  0  0
   62.5770   33.4640   46.7350 C   0  0  0  0  0  0  0  0  0  0  0  0
   63.7620   33.6710   47.4460 C   0  0  0  0  0  0  0  0  0  0  0  0
   65.7571   32.4675   51.2096 H   0  0  0  0  0  0  0  0  0  0  0  0
   65.3956   31.4413   49.7803 H   0  0  0  0  0  0  0  0  0  0  0  0
   66.8446   32.5030   49.7803 H   0  0  0  0  0  0  0  0  0  0  0  0
   62.8283   32.3525   50.4593 H   0  0  0  0  0  0  0  0  0  0  0  0
   60.7208   31.9700   49.1889 H   0  0  0  0  0  0  0  0  0  0  0  0
   59.4421   28.9309   45.4951 H   0  0  0  0  0  0  0  0  0  0  0  0
   57.3941   28.2368   44.2508 H   0  0  0  0  0  0  0  0  0  0  0  0
   55.6846   29.9362   43.6056 H   0  0  0  0  0  0  0  0  0  0  0  0
   56.0180   32.3367   44.1980 H   0  0  0  0  0  0  0  0  0  0  0  0
   59.6576   35.2528   47.6381 H   0  0  0  0  0  0  0  0  0  0  0  0
   60.6049   35.4106   46.1201 H   0  0  0  0  0  0  0  0  0  0  0  0
   58.8432   35.7614   46.1201 H   0  0  0  0  0  0  0  0  0  0  0  0
   62.5138   33.7637   45.6785 H   0  0  0  0  0  0  0  0  0  0  0  0
   64.6219   34.1450   46.9501 H   0  0  0  0  0  0  0  0  0  0  0  0
  1  2  1  0
  2  3  1  0
  3  4  2  0
  4  5  1  0
  5  6  2  0
  6  7  1  0
  7  8  1  0
  8  9  1  0
  9 10  2  0
 10 11  1  0
 11 12  2  0
 12 13  1  0
 13 14  2  0
 14 15  1  0
 15 16  2  0
 15 17  1  0
 17 18  1  0
  6 19  1  0
 19 20  2  0
 20  3  1  0
 17  7  2  0
 14  9  1  0
  1 21  1  0
  1 22  1  0
  1 23  1  0
  4 24  1  0
  5 25  1  0
 10 26  1  0
 11 27  1  0
 12 28  1  0
 13 29  1  0
 18 30  1  0
 18 31  1  0
 18 32  1  0
 19 33  1  0
 20 34  1  0
M  END
>  <UniqueID>  (9) 
4

>  <SMILES>  (9) 
COc1ccc(-c2oc3ccccc3c(=O)c2C)cc1

>  <Energy>  (9) 
48.890167586806164

>  <Genealogy>  (9) 
COc1ccc(-c2oc3ccccc3c(=O)c2C)cc1 (3D coordinates assigned)
COc1ccc(-c2oc3ccccc3c(=O)c2C)cc1 (optimized conformer: 48.890167586806164 kcal/mol)

>  <smiles>  (9) 
COc1ccc(-c2oc3ccccc3c(=O)c2C)cc1

>  <score_type>  (9) 
oracle

>  <origin>  (9) 
adg

>  <m_score__min__energy>  (9) 
-6.7699999999999996

>  <m_primary>  (9) 
energy

$$$$
9:0
     RDKit          3D

 54 58  0  0  0  0  0  0  0  0999 V2000
   55.5540   30.1970   52.4400 C   0  0  0  0  0  0  0  0  0  0  0  0
   56.7850   30.0510   51.7390 O   0  0  0  0  0  0  0  0  0  0  0  0
   57.6450   31.1130   51.4150 C   0  0  0  0  0  0  0  0  0  0  0  0
   57.9910   32.1130   52.3440 C   0  0  0  0  0  0  0  0  0  0  0  0
   58.8480   33.1520   51.9710 C   0  0  0  0  0  0  0  0  0  0  0  0
   59.3710   33.2030   50.6770 C   0  0  0  0  0  0  0  0  0  0  0  0
   59.0210   32.2210   49.7390 C   0  0  0  0  0  0  0  0  0  0  0  0
   58.1660   31.1730   50.1170 C   0  0  0  0  0  0  0  0  0  0  0  0
   59.5460   32.3340   48.3660 C   0  0  0  0  0  0  0  0  0  0  0  0
   59.3110   31.4320   47.5160 O   0  0  0  0  0  0  0  0  0  0  0  0
   60.3210   33.5530   47.9470 C   0  0  1  0  0  0  0  0  0  0  0  0
   59.3970   34.4750   47.3690 O   0  0  0  0  0  0  0  0  0  0  0  0
   58.7190   34.2410   46.1660 C   0  0  0  0  0  0  0  0  0  0  0  0
   58.9400   34.9620   45.1530 O   0  0  0  0  0  0  0  0  0  0  0  0
   57.7730   33.1690   46.0950 N   0  0  0  0  0  0  0  0  0  0  0  0
   57.0400   32.8410   44.8740 C   0  0  0  0  0  0  0  0  0  0  0  0
   57.2780   31.4060   44.4890 C   0  0  0  0  0  0  0  0  0  0  0  0
   56.3240   30.6990   43.7350 C   0  0  0  0  0  0  0  0  0  0  0  0
   56.5550   29.3670   43.3780 C   0  0  0  0  0  0  0  0  0  0  0  0
   57.7400   28.7350   43.7640 C   0  0  0  0  0  0  0  0  0  0  0  0
   58.6980   29.4340   44.5040 C   0  0  0  0  0  0  0  0  0  0  0  0
   58.4720   30.7680   44.8630 C   0  0  0  0  0  0  0  0  0  0  0  0
   61.0500   34.2190   49.1470 C   0  0  2  0  0  0  0  0  0  0  0  0
   62.3990   33.6010   49.4760 C   0  0  0  0  0  0  0  0  0  0  0  0
   62.8770   32.5260   48.6750 C   0  0  0  0  0  0  0  0  0  0  0  0
   64.1450   31.9610   48.9050 C   0  0  0  0  0  0  0  0  0  0  0  0
   64.9180   32.4980   49.9270 C   0  0  0  0  0  0  0  0  0  0  0  0
   64.4850   33.5350   50.6860 C   0  0  0  0  0  0  0  0  0  0  0  0
   63.2390   34.1250   50.4920 C   0  0  0  0  0  0  0  0  0  0  0  0
   65.4570   33.8670   51.6080 O   0  0  0  0  0  0  0  0  0  0  0  0
   66.5680   32.9770   51.4240 C   0  0  0  0  0  0  0  0  0  0  0  0
   66.1840   32.1230   50.3370 O   0  0  0  0  0  0  0  0  0  0  0  0
   60.2330   34.2450   50.3220 O   0  0  0  0  0  0  0  0  0  0  0  0
   55.7440   30.1745   53.5232 H   0  0  0  0  0  0  0  0  0  0  0  0
   55.0894   31.1565   52.1691 H   0  0  0  0  0  0  0  0  0  0  0  0
   54.8778   29.3728   52.1691 H   0  0  0  0  0  0  0  0  0  0  0  0
   57.5857   32.0763   53.3660 H   0  0  0  0  0  0  0  0  0  0  0  0
   59.1117   33.9328   52.6996 H   0  0  0  0  0  0  0  0  0  0  0  0
   57.9035   30.3929   49.3872 H   0  0  0  0  0  0  0  0  0  0  0  0
   61.0964   33.2579   47.2248 H   0  0  0  0  0  0  0  0  0  0  0  0
   57.5810   32.6160   46.9610 H   0  0  0  0  0  0  0  0  0  0  0  0
   55.9645   32.9971   45.0439 H   0  0  0  0  0  0  0  0  0  0  0  0
   57.3925   33.4920   44.0604 H   0  0  0  0  0  0  0  0  0  0  0  0
   55.3928   31.1958   43.4251 H   0  0  0  0  0  0  0  0  0  0  0  0
   55.8036   28.8164   42.7930 H   0  0  0  0  0  0  0  0  0  0  0  0
   57.9192   27.6861   43.4852 H   0  0  0  0  0  0  0  0  0  0  0  0
   59.6310   28.9350   44.8047 H   0  0  0  0  0  0  0  0  0  0  0  0
   59.2310   31.3176   45.4391 H   0  0  0  0  0  0  0  0  0  0  0  0
   61.2420   35.2492   48.8126 H   0  0  0  0  0  0  0  0  0  0  0  0
   62.2463   32.1313   47.8648 H   0  0  0  0  0  0  0  0  0  0  0  0
   64.5121   31.1219   48.2958 H   0  0  0  0  0  0  0  0  0  0  0  0
   62.9144   34.9750   51.1102 H   0  0  0  0  0  0  0  0  0  0  0  0
   67.4773   33.5413   51.1696 H   0  0  0  0  0  0  0  0  0  0  0  0
   66.7960   32.4068   52.3366 H   0  0  0  0  0  0  0  0  0  0  0  0
  1  2  1  0
  2  3  1  0
  3  4  2  0
  4  5  1  0
  5  6  2  0
  6  7  1  0
  7  8  2  0
  7  9  1  0
  9 10  2  0
  9 11  1  0
 11 12  1  0
 12 13  1  0
 13 14  2  0
 13 15  1  0
 15 16  1  0
 16 17  1  0
 17 18  2  0
 18 19  1  0
 19 20  2  0
 20 21  1  0
 21 22  2  0
 11 23  1  0
 23 24  1  0
 24 25  2  0
 25 26  1  0
 26 27  2  0
 27 28  1  0
 28 29  2  0
 28 30  1  0
 30 31  1  0
 31 32  1  0
 23 33  1  0
  8  3  1  0
 22 17  1  0
 29 24  1  0
 33  6  1  0
 32 27  1  0
  1 34  1  0
  1 35  1  0
  1 36  1  0
  4 37  1  0
  5 38  1  0
  8 39  1  0
 11 40  1  6
 15 41  1  0
 16 42  1  0
 16 43  1  0
 18 44  1  0
 19 45  1  0
 20 46  1  0
 21 47  1  0
 22 48  1  0
 23 49  1  6
 25 50  1  0
 26 51  1  0
 29 52  1  0
 31 53  1  0
 31 54  1  0
M  END
>  <UniqueID>  (10) 
5

>  <SMILES>  (10) 
COc1ccc2c(c1)C(=O)[C@@H](OC(=O)NCc1ccccc1)[C@H](c1ccc3c(c1)OCO3)O2

>  <Energy>  (10) 
87.85004462821757

>  <Genealogy>  (10) 
COc1ccc2c(c1)C(=O)[C@@H](OC(=O)NCc1ccccc1)[C@H](c1ccc3c(c1)OCO3)O2 (chirality)
COc1ccc2c(c1)C(=O)[C@@H](OC(=O)NCc1ccccc1)[C@H](c1ccc3c(c1)OCO3)O2 (3D coordinates assigned)
COc1ccc2c(c1)C(=O)[C@@H](OC(=O)NCc1ccccc1)[C@H](c1ccc3c(c1)OCO3)O2 (nonaromatic ring conformer: 87.85004462821757 kcal/mol)

>  <smiles>  (10) 
COc1ccc2c(c1)C(=O)C(OC(=O)NCc1ccccc1)C(c1ccc3c(c1)OCO3)O2

>  <score_type>  (10) 
oracle

>  <origin>  (10) 
adg

>  <m_score__min__energy>  (10) 
-8.5500000000000007

>  <m_primary>  (10) 
energy

$$$$
10:0
     RDKit          3D

 43 45  0  0  0  0  0  0  0  0999 V2000
   57.7080   22.4300   45.5270 C   0  0  0  0  0  0  0  0  0  0  0  0
   57.5480   23.9490   45.3090 C   0  0  0  0  0  0  0  0  0  0  0  0
   57.2780   24.1910   43.8040 C   0  0  0  0  0  0  0  0  0  0  0  0
   58.8760   24.6840   45.7290 C   0  0  0  0  0  0  0  0  0  0  0  0
   58.6790   25.9550   46.5800 C   0  0  0  0  0  0  0  0  0  0  0  0
   57.4710   26.6820   46.1800 N   0  0  0  0  0  0  0  0  0  0  0  0
   57.5140   28.1140   45.8630 C   0  0  0  0  0  0  0  0  0  0  0  0
   57.4320   28.3220   44.3430 C   0  0  0  0  0  0  0  0  0  0  0  0
   58.1230   29.5560   43.9170 N   0  0  0  0  0  0  0  0  0  0  0  0
   57.2330   30.6970   43.9050 C   0  0  0  0  0  0  0  0  0  0  0  0
   56.2870   30.8330   43.0840 O   0  0  0  0  0  0  0  0  0  0  0  0
   57.6000   31.6980   44.8940 C   0  0  0  0  0  0  0  0  0  0  0  0
   57.0150   32.9220   45.2190 C   0  0  0  0  0  0  0  0  0  0  0  0
   57.6220   33.6960   46.2250 C   0  0  0  0  0  0  0  0  0  0  0  0
   58.7890   33.2360   46.8710 C   0  0  0  0  0  0  0  0  0  0  0  0
   59.3580   31.9990   46.5150 C   0  0  0  0  0  0  0  0  0  0  0  0
   58.7290   31.2550   45.5180 C   0  0  0  0  0  0  0  0  0  0  0  0
   59.0710   29.9720   44.9240 C   0  0  0  0  0  0  0  0  0  0  0  0
   60.1010   29.3090   45.2210 O   0  0  0  0  0  0  0  0  0  0  0  0
   56.2500   25.9340   46.0970 C   0  0  0  0  0  0  0  0  0  0  0  0
   55.1360   26.5160   46.0010 O   0  0  0  0  0  0  0  0  0  0  0  0
   56.3250   24.4400   46.1320 C   0  0  0  0  0  0  0  0  0  0  0  0
   57.7307   22.2147   46.6055 H   0  0  0  0  0  0  0  0  0  0  0  0
   56.8605   21.9021   45.0655 H   0  0  0  0  0  0  0  0  0  0  0  0
   58.6469   22.0902   45.0655 H   0  0  0  0  0  0  0  0  0  0  0  0
   56.4632   24.9213   43.6904 H   0  0  0  0  0  0  0  0  0  0  0  0
   58.1889   24.5807   43.3261 H   0  0  0  0  0  0  0  0  0  0  0  0
   56.9900   23.2430   43.3261 H   0  0  0  0  0  0  0  0  0  0  0  0
   59.4880   23.9772   46.3086 H   0  0  0  0  0  0  0  0  0  0  0  0
   59.3534   25.0123   44.7940 H   0  0  0  0  0  0  0  0  0  0  0  0
   58.5903   25.6675   47.6381 H   0  0  0  0  0  0  0  0  0  0  0  0
   59.5469   26.6132   46.4268 H   0  0  0  0  0  0  0  0  0  0  0  0
   56.6641   28.6189   46.3455 H   0  0  0  0  0  0  0  0  0  0  0  0
   58.4600   28.5360   46.2332 H   0  0  0  0  0  0  0  0  0  0  0  0
   57.8988   27.4618   43.8408 H   0  0  0  0  0  0  0  0  0  0  0  0
   56.3707   28.4140   44.0687 H   0  0  0  0  0  0  0  0  0  0  0  0
   58.6070   29.4520   42.9940 H   0  0  0  0  0  0  0  0  0  0  0  0
   56.1074   33.2711   44.7048 H   0  0  0  0  0  0  0  0  0  0  0  0
   57.1846   34.6645   46.5093 H   0  0  0  0  0  0  0  0  0  0  0  0
   59.2565   33.8474   47.6569 H   0  0  0  0  0  0  0  0  0  0  0  0
   60.2700   31.6310   47.0078 H   0  0  0  0  0  0  0  0  0  0  0  0
   56.4295   24.1050   47.1745 H   0  0  0  0  0  0  0  0  0  0  0  0
   55.4056   24.0224   45.6958 H   0  0  0  0  0  0  0  0  0  0  0  0
  1  2  1  0
  2  3  1  0
  2  4  1  0
  4  5  1  0
  5  6  1  0
  6  7  1  0
  7  8  1  0
  8  9  1  0
  9 10  1  0
 10 11  2  0
 10 12  1  0
 12 13  2  0
 13 14  1  0
 14 15  2  0
 15 16  1  0
 16 17  2  0
 17 18  1  0
 18 19  2  0
  6 20  1  0
 20 21  2  0
 20 22  1  0
 22  2  1  0
 18  9  1  0
 17 12  1  0
  1 23  1  0
  1 24  1  0
  1 25  1  0
  3 26  1  0
  3 27  1  0
  3 28  1  0
  4 29  1  0
  4 30  1  0
  5 31  1  0
  5 32  1  0
  7 33  1  0
  7 34  1  0
  8 35  1  0
  8 36  1  0
  9 37  1  0
 13 38  1  0
 14 39  1  0
 15 40  1  0
 16 41  1  0
 22 42  1  0
 22 43  1  0
M  CHG  1   9   1
M  END
>  <UniqueID>  (11) 
6

>  <SMILES>  (11) 
CC1(C)CCN(CC[NH+]2C(=O)c3ccccc3C2=O)C(=O)C1

>  <Energy>  (11) 
68.82519792966887

>  <Genealogy>  (11) 
CC1(C)CCN(CC[NH+]2C(=O)c3ccccc3C2=O)C(=O)C1 (protonated)
CC1(C)CCN(CC[NH+]2C(=O)c3ccccc3C2=O)C(=O)C1 (3D coordinates assigned)
CC1(C)CCN(CC[NH+]2C(=O)c3ccccc3C2=O)C(=O)C1 (nonaromatic ring conformer: 68.82519792966887 kcal/mol)

>  <smiles>  (11) 
CC1(C)CCN(CCN2C(=O)c3ccccc3C2=O)C(=O)C1

>  <score_type>  (11) 
oracle

>  <origin>  (11) 
adg

>  <m_score__min__energy>  (11) 
-6.8700000000000001

>  <m_primary>  (11) 
energy

$$$$
11:0
     RDKit          3D

 33 34  0  0  0  0  0  0  0  0999 V2000
   59.7580   34.1910   49.3310 C   0  0  0  0  0  0  0  0  0  0  0  0
   60.8100   34.0130   48.2820 C   0  0  0  0  0  0  0  0  0  0  0  0
   62.1230   33.8890   48.5730 N   0  0  0  0  0  0  0  0  0  0  0  0
   62.7200   33.7730   47.3690 C   0  0  0  0  0  0  0  0  0  0  0  0
   61.7700   33.8290   46.3740 C   0  0  0  0  0  0  0  0  0  0  0  0
   60.5660   33.9720   46.9530 N   0  0  0  0  0  0  0  0  0  0  0  0
   59.2890   34.1440   46.2620 C   0  0  0  0  0  0  0  0  0  0  0  0
   58.5330   32.8510   46.2480 C   0  0  0  0  0  0  0  0  0  0  0  0
   57.2790   32.8650   46.3720 O   0  0  0  0  0  0  0  0  0  0  0  0
   59.2320   31.6170   46.0210 N   0  0  0  0  0  0  0  0  0  0  0  0
   58.5970   30.3270   46.0530 C   0  0  0  0  0  0  0  0  0  0  0  0
   58.8870   29.4140   47.0820 C   0  0  0  0  0  0  0  0  0  0  0  0
   58.2910   28.1520   47.0980 C   0  0  0  0  0  0  0  0  0  0  0  0
   57.3990   27.7800   46.0840 C   0  0  0  0  0  0  0  0  0  0  0  0
   56.6610   26.1820   46.0980 S   0  0  0  0  0  0  0  0  0  0  0  0
   54.9440   26.3380   45.9930 N   0  0  0  0  0  0  0  0  0  0  0  0
   57.1640   25.3780   44.9320 O   0  0  0  0  0  0  0  0  0  0  0  0
   57.0210   25.4640   47.3690 O   0  0  0  0  0  0  0  0  0  0  0  0
   57.1230   28.6750   45.0430 C   0  0  0  0  0  0  0  0  0  0  0  0
   57.7180   29.9420   45.0210 C   0  0  0  0  0  0  0  0  0  0  0  0
   57.3160   31.0400   43.7070 Cl  0  0  0  0  0  0  0  0  0  0  0  0
   60.2171   34.1133   50.3276 H   0  0  0  0  0  0  0  0  0  0  0  0
   59.2916   35.1808   49.2183 H   0  0  0  0  0  0  0  0  0  0  0  0
   58.9919   33.4097   49.2183 H   0  0  0  0  0  0  0  0  0  0  0  0
   63.8012   33.6521   47.2068 H   0  0  0  0  0  0  0  0  0  0  0  0
   61.9632   33.7674   45.2928 H   0  0  0  0  0  0  0  0  0  0  0  0
   58.6934   34.9080   46.7831 H   0  0  0  0  0  0  0  0  0  0  0  0
   59.4800   34.4606   45.2260 H   0  0  0  0  0  0  0  0  0  0  0  0
   60.2370   31.6710   45.7450 H   0  0  0  0  0  0  0  0  0  0  0  0
   59.5889   29.6964   47.8805 H   0  0  0  0  0  0  0  0  0  0  0  0
   58.5226   27.4469   47.9099 H   0  0  0  0  0  0  0  0  0  0  0  0
   54.6610   27.0640   46.6900 H   0  0  0  0  0  0  0  0  0  0  0  0
   56.4343   28.3806   44.2374 H   0  0  0  0  0  0  0  0  0  0  0  0
  1  2  1  0
  2  3  2  0
  3  4  1  0
  4  5  2  0
  5  6  1  0
  6  7  1  0
  7  8  1  0
  8  9  2  0
  8 10  1  0
 10 11  1  0
 11 12  2  0
 12 13  1  0
 13 14  2  0
 14 15  1  0
 15 16  1  0
 15 17  2  0
 15 18  2  0
 14 19  1  0
 19 20  2  0
 20 21  1  0
  6  2  1  0
 20 11  1  0
  1 22  1  0
  1 23  1  0
  1 24  1  0
  4 25  1  0
  5 26  1  0
  7 27  1  0
  7 28  1  0
 10 29  1  0
 12 30  1  0
 13 31  1  0
 16 32  1  0
 19 33  1  0
M  CHG  1  16  -1
M  END
>  <UniqueID>  (12) 
7

>  <SMILES>  (12) 
Cc1nccn1CC(=O)Nc1ccc(S([NH-])(=O)=O)cc1Cl

>  <Energy>  (12) 
62.75431453447726

>  <Genealogy>  (12) 
Cc1nccn1CC(=O)Nc1ccc(S([NH-])(=O)=O)cc1Cl (protonated)
Cc1nccn1CC(=O)Nc1ccc(S([NH-])(=O)=O)cc1Cl (3D coordinates assigned)
Cc1nccn1CC(=O)Nc1ccc(S([NH-])(=O)=O)cc1Cl (optimized conformer: 62.75431453447726 kcal/mol)

>  <smiles>  (12) 
Cc1nccn1CC(=O)Nc1ccc(S(N)(=O)=O)cc1Cl

>  <score_type>  (12) 
oracle

>  <origin>  (12) 
adg

>  <m_score__min__energy>  (12) 
-10.02

>  <m_primary>  (12) 
energy

$$$$
12:0
     RDKit          3D

 41 42  0  0  0  0  0  0  0  0999 V2000
   58.1430   27.4930   43.3610 C   0  0  0  0  0  0  0  0  0  0  0  0
   57.8770   28.5260   44.3810 N   0  0  0  0  0  0  0  0  0  0  0  0
   56.6870   29.3280   44.0110 C   0  0  0  0  0  0  0  0  0  0  0  0
   57.0880   30.7840   43.7550 C   0  0  0  0  0  0  0  0  0  0  0  0
   56.8660   31.5810   44.9230 O   0  0  0  0  0  0  0  0  0  0  0  0
   57.6730   32.6420   45.3580 C   0  0  0  0  0  0  0  0  0  0  0  0
   57.6840   33.1000   46.6900 C   0  0  0  0  0  0  0  0  0  0  0  0
   58.5130   34.1590   47.0680 C   0  0  0  0  0  0  0  0  0  0  0  0
   59.3270   34.7870   46.1190 C   0  0  0  0  0  0  0  0  0  0  0  0
   59.3110   34.3500   44.7910 C   0  0  0  0  0  0  0  0  0  0  0  0
   58.4890   33.2830   44.4120 C   0  0  0  0  0  0  0  0  0  0  0  0
   57.7160   27.9180   45.7200 C   0  0  0  0  0  0  0  0  0  0  0  0
   58.4000   28.7420   46.7720 C   0  0  0  0  0  0  0  0  0  0  0  0
   58.4410   28.3250   47.9610 O   0  0  0  0  0  0  0  0  0  0  0  0
   58.9870   30.0040   46.4260 N   0  0  0  0  0  0  0  0  0  0  0  0
   59.9460   30.6930   47.2460 C   0  0  0  0  0  0  0  0  0  0  0  0
   59.5840   31.0970   48.5420 C   0  0  0  0  0  0  0  0  0  0  0  0
   60.5030   31.7670   49.3590 C   0  0  0  0  0  0  0  0  0  0  0  0
   61.7810   32.0600   48.8780 C   0  0  0  0  0  0  0  0  0  0  0  0
   62.1400   31.6920   47.5780 C   0  0  0  0  0  0  0  0  0  0  0  0
   61.2240   31.0180   46.7590 C   0  0  0  0  0  0  0  0  0  0  0  0
   58.3878   26.5423   43.8572 H   0  0  0  0  0  0  0  0  0  0  0  0
   57.2499   27.3594   42.7328 H   0  0  0  0  0  0  0  0  0  0  0  0
   58.9895   27.8074   42.7328 H   0  0  0  0  0  0  0  0  0  0  0  0
   56.2364   28.9097   43.0989 H   0  0  0  0  0  0  0  0  0  0  0  0
   55.9618   29.2958   44.8375 H   0  0  0  0  0  0  0  0  0  0  0  0
   58.1543   30.8236   43.4878 H   0  0  0  0  0  0  0  0  0  0  0  0
   56.4745   31.1813   42.9330 H   0  0  0  0  0  0  0  0  0  0  0  0
   57.0353   32.6204   47.4378 H   0  0  0  0  0  0  0  0  0  0  0  0
   58.5258   34.4998   48.1138 H   0  0  0  0  0  0  0  0  0  0  0  0
   59.9778   35.6223   46.4169 H   0  0  0  0  0  0  0  0  0  0  0  0
   59.9461   34.8462   44.0424 H   0  0  0  0  0  0  0  0  0  0  0  0
   58.4820   32.9439   43.3656 H   0  0  0  0  0  0  0  0  0  0  0  0
   56.6441   27.8498   45.9574 H   0  0  0  0  0  0  0  0  0  0  0  0
   58.1729   26.9174   45.7073 H   0  0  0  0  0  0  0  0  0  0  0  0
   58.6080   30.5000   45.5860 H   0  0  0  0  0  0  0  0  0  0  0  0
   58.5719   30.8856   48.9174 H   0  0  0  0  0  0  0  0  0  0  0  0
   60.2183   32.0625   50.3796 H   0  0  0  0  0  0  0  0  0  0  0  0
   62.5051   32.5804   49.5221 H   0  0  0  0  0  0  0  0  0  0  0  0
   63.1436   31.9320   47.1971 H   0  0  0  0  0  0  0  0  0  0  0  0
   61.5059   30.7425   45.7321 H   0  0  0  0  0  0  0  0  0  0  0  0
  1  2  1  0
  2  3  1  0
  3  4  1  0
  4  5  1  0
  5  6  1  0
  6  7  2  0
  7  8  1  0
  8  9  2  0
  9 10  1  0
 10 11  2  0
  2 12  1  0
 12 13  1  0
 13 14  2  0
 13 15  1  0
 15 16  1  0
 16 17  2  0
 17 18  1  0
 18 19  2  0
 19 20  1  0
 20 21  2  0
 11  6  1  0
 21 16  1  0
  1 22  1  0
  1 23  1  0
  1 24  1  0
  3 25  1  0
  3 26  1  0
  4 27  1  0
  4 28  1  0
  7 29  1  0
  8 30  1  0
  9 31  1  0
 10 32  1  0
 11 33  1  0
 12 34  1  0
 12 35  1  0
 15 36  1  0
 17 37  1  0
 18 38  1  0
 19 39  1  0
 20 40  1  0
 21 41  1  0
M  END
>  <UniqueID>  (13) 
8

>  <SMILES>  (13) 
CN(CCOc1ccccc1)CC(=O)Nc1ccccc1

>  <Energy>  (13) 
43.64902618332083

>  <Genealogy>  (13) 
CN(CCOc1ccccc1)CC(=O)Nc1ccccc1 (3D coordinates assigned)
CN(CCOc1ccccc1)CC(=O)Nc1ccccc1 (optimized conformer: 43.64902618332083 kcal/mol)

>  <smiles>  (13) 
CN(CCOc1ccccc1)CC(=O)Nc1ccccc1

>  <score_type>  (13) 
oracle

>  <origin>  (13) 
adg

>  <m_score__min__energy>  (13) 
-6.1900000000000004

>  <m_primary>  (13) 
energy

$$$$
13:0
     RDKit          3D

 43 46  0  0  0  0  0  0  0  0999 V2000
   58.2428   24.0181   47.5262 H   0  0  0  0  0  0  0  0  0  0  0  0
   57.7720   24.8930   47.0540 C   0  0  0  0  0  0  0  0  0  0  0  0
   56.4590   24.8110   46.5830 C   0  0  0  0  0  0  0  0  0  0  0  0
   55.8999   23.8682   46.6754 H   0  0  0  0  0  0  0  0  0  0  0  0
   55.8550   25.9270   45.9940 C   0  0  0  0  0  0  0  0  0  0  0  0
   54.8266   25.8531   45.6108 H   0  0  0  0  0  0  0  0  0  0  0  0
   56.5520   27.1390   45.8890 C   0  0  0  0  0  0  0  0  0  0  0  0
   55.9070   28.2510   45.2470 N   0  0  0  0  0  0  0  0  0  0  0  0
   56.4740   29.3410   44.8150 C   0  0  0  0  0  0  0  0  0  0  0  0
   57.0750   30.2150   45.6690 N   0  0  0  0  0  0  0  0  0  0  0  0
   57.6460   31.3640   45.2230 C   0  0  0  0  0  0  0  0  0  0  0  0
   58.2650   32.2420   46.1180 C   0  0  0  0  0  0  0  0  0  0  0  0
   58.3000   31.9968   47.1897 H   0  0  0  0  0  0  0  0  0  0  0  0
   58.8420   33.4350   45.6550 C   0  0  0  0  0  0  0  0  0  0  0  0
   59.4930   34.3130   46.5900 N   0  0  0  0  0  0  0  0  0  0  0  0
   59.0280   35.2220   46.8130 H   0  0  0  0  0  0  0  0  0  0  0  0
   60.7610   34.0300   47.2110 C   0  0  0  0  0  0  0  0  0  0  0  0
   61.9080   33.8410   46.4190 C   0  0  0  0  0  0  0  0  0  0  0  0
   61.8258   33.8780   45.3227 H   0  0  0  0  0  0  0  0  0  0  0  0
   63.1490   33.6070   47.0120 C   0  0  0  0  0  0  0  0  0  0  0  0
   64.0372   33.4483   46.3828 H   0  0  0  0  0  0  0  0  0  0  0  0
   63.2650   33.5740   48.4020 C   0  0  0  0  0  0  0  0  0  0  0  0
   64.2446   33.3902   48.8673 H   0  0  0  0  0  0  0  0  0  0  0  0
   62.1390   33.7740   49.2030 C   0  0  0  0  0  0  0  0  0  0  0  0
   62.2381   33.7552   50.2984 H   0  0  0  0  0  0  0  0  0  0  0  0
   60.8810   33.9990   48.6210 C   0  0  0  0  0  0  0  0  0  0  0  0
   59.6830   34.2180   49.5050 C   0  0  0  0  0  0  0  0  0  0  0  0
   59.9904   34.1618   50.5597 H   0  0  0  0  0  0  0  0  0  0  0  0
   59.2530   35.2096   49.3007 H   0  0  0  0  0  0  0  0  0  0  0  0
   58.9299   33.4426   49.3007 H   0  0  0  0  0  0  0  0  0  0  0  0
   58.8220   33.7200   44.2760 C   0  0  0  0  0  0  0  0  0  0  0  0
   59.2960   34.6394   43.9019 H   0  0  0  0  0  0  0  0  0  0  0  0
   58.2040   32.8430   43.3780 C   0  0  0  0  0  0  0  0  0  0  0  0
   58.1842   33.0794   42.3039 H   0  0  0  0  0  0  0  0  0  0  0  0
   57.6100   31.6630   43.8470 C   0  0  0  0  0  0  0  0  0  0  0  0
   57.0000   30.7940   42.9910 N   0  0  0  0  0  0  0  0  0  0  0  0
   56.9600   31.0010   41.9680 H   0  0  0  0  0  0  0  0  0  0  0  0
   56.4300   29.6460   43.4500 C   0  0  0  0  0  0  0  0  0  0  0  0
   55.9351   28.9585   42.7482 H   0  0  0  0  0  0  0  0  0  0  0  0
   57.8860   27.2040   46.3370 C   0  0  0  0  0  0  0  0  0  0  0  0
   58.4571   28.1373   46.2237 H   0  0  0  0  0  0  0  0  0  0  0  0
   58.4870   26.0870   46.9250 C   0  0  0  0  0  0  0  0  0  0  0  0
   59.5241   26.1479   47.2866 H   0  0  0  0  0  0  0  0  0  0  0  0
  1  2  1  0
  2  3  2  0
  3  4  1  0
  3  5  1  0
  5  6  1  0
  5  7  2  0
  7  8  1  0
  8  9  2  0
  9 10  1  0
 10 11  1  0
 11 12  2  0
 12 13  1  0
 12 14  1  0
 14 15  1  0
 15 16  1  0
 15 17  1  0
 17 18  2  0
 18 19  1  0
 18 20  1  0
 20 21  1  0
 20 22  2  0
 22 23  1  0
 22 24  1  0
 24 25  1  0
 24 26  2  0
 26 27  1  0
 27 28  1  0
 27 29  1  0
 27 30  1  0
 14 31  2  0
 31 32  1  0
 31 33  1  0
 33 34  1  0
 33 35  2  0
 35 36  1  0
 36 37  1  0
 36 38  2  0
 38 39  1  0
  7 40  1  0
 40 41  1  0
 40 42  2  0
 42 43  1  0
 42  2  1  0
 38  9  1  0
 35 11  1  0
 26 17  1  0
M  CHG  2  10  -1  36   1
M  END
>  <UniqueID>  (14) 
9

>  <SMILES>  (14) 
Cc1ccccc1Nc1ccc2[nH+]c/c(=N/c3ccccc3)[n-]c2c1

>  <Energy>  (14) 
63.35811004724782

>  <Genealogy>  (14) 
Cc1ccccc1Nc1ccc2[nH+]cc(=Nc3ccccc3)[n-]c2c1 (protonated)
Cc1ccccc1Nc1ccc2[nH+]c/c(=N/c3ccccc3)[n-]c2c1 (cis-trans isomerization)
Cc1ccccc1Nc1ccc2[nH+]c/c(=N/c3ccccc3)[n-]c2c1 (3D coordinates assigned)
Cc1ccccc1Nc1ccc2[nH+]c/c(=N/c3ccccc3)[n-]c2c1 (optimized conformer: 63.35811004724782 kcal/mol)

>  <smiles>  (14) 
Cc1ccccc1Nc1ccc2ncc(=Nc3ccccc3)[nH]c2c1

>  <score_type>  (14) 
oracle

>  <origin>  (14) 
adg

>  <m_score__min__energy>  (14) 
-8.9100000000000001

>  <m_primary>  (14) 
energy

$$$$
14:0
     RDKit          3D

 32 33  0  0  0  0  0  0  0  0999 V2000
   58.1370   32.1840   47.2870 C   0  0  0  0  0  0  0  0  0  0  0  0
   57.8270   32.1570   45.8260 C   0  0  0  0  0  0  0  0  0  0  0  0
   57.2230   31.1260   45.2060 N   0  0  0  0  0  0  0  0  0  0  0  0
   57.1690   31.4200   43.9150 N   0  0  0  0  0  0  0  0  0  0  0  0
   56.6580   30.5120   42.8980 C   0  0  0  0  0  0  0  0  0  0  0  0
   57.7570   32.6090   43.6830 C   0  0  0  0  0  0  0  0  0  0  0  0
   58.1750   33.1200   44.8940 C   0  0  0  0  0  0  0  0  0  0  0  0
   58.9710   34.3720   45.1160 C   0  0  0  0  0  0  0  0  0  0  0  0
   60.3070   34.0530   45.6170 N   0  0  0  0  0  0  0  0  0  0  0  0
   60.6420   34.2220   47.0020 C   0  0  0  0  0  0  0  0  0  0  0  0
   59.7820   34.6760   47.8050 O   0  0  0  0  0  0  0  0  0  0  0  0
   61.9820   33.8720   47.5090 C   0  0  0  0  0  0  0  0  0  0  0  0
   63.1260   33.6790   46.7540 C   0  0  0  0  0  0  0  0  0  0  0  0
   64.1570   33.3910   47.5740 N   0  0  0  0  0  0  0  0  0  0  0  0
   63.6920   33.3840   48.8120 N   0  0  0  0  0  0  0  0  0  0  0  0
   64.5220   33.1770   49.9900 C   0  0  0  0  0  0  0  0  0  0  0  0
   62.3800   33.6840   48.8180 C   0  0  0  0  0  0  0  0  0  0  0  0
   57.2026   32.1026   47.8617 H   0  0  0  0  0  0  0  0  0  0  0  0
   58.7963   31.3399   47.5376 H   0  0  0  0  0  0  0  0  0  0  0  0
   58.6404   33.1294   47.5376 H   0  0  0  0  0  0  0  0  0  0  0  0
   56.1740   29.6520   43.3840 H   0  0  0  0  0  0  0  0  0  0  0  0
   55.9242   31.0395   42.2708 H   0  0  0  0  0  0  0  0  0  0  0  0
   57.4897   30.1585   42.2708 H   0  0  0  0  0  0  0  0  0  0  0  0
   57.8819   33.0883   42.7008 H   0  0  0  0  0  0  0  0  0  0  0  0
   59.0626   34.9152   44.1639 H   0  0  0  0  0  0  0  0  0  0  0  0
   58.4527   34.9931   45.8614 H   0  0  0  0  0  0  0  0  0  0  0  0
   61.0310   33.6960   44.9530 H   0  0  0  0  0  0  0  0  0  0  0  0
   63.1848   33.7495   45.6578 H   0  0  0  0  0  0  0  0  0  0  0  0
   63.9168   33.3279   50.8961 H   0  0  0  0  0  0  0  0  0  0  0  0
   64.9208   32.1519   49.9820 H   0  0  0  0  0  0  0  0  0  0  0  0
   65.3555   33.8948   49.9820 H   0  0  0  0  0  0  0  0  0  0  0  0
   61.7384   33.7651   49.7078 H   0  0  0  0  0  0  0  0  0  0  0  0
  1  2  1  0
  2  3  2  0
  3  4  1  0
  4  5  1  0
  4  6  1  0
  6  7  2  0
  7  8  1  0
  8  9  1  0
  9 10  1  0
 10 11  2  0
 10 12  1  0
 12 13  1  0
 13 14  2  0
 14 15  1  0
 15 16  1  0
 15 17  1  0
  7  2  1  0
 17 12  2  0
  1 18  1  0
  1 19  1  0
  1 20  1  0
  5 21  1  0
  5 22  1  0
  5 23  1  0
  6 24  1  0
  8 25  1  0
  8 26  1  0
  9 27  1  0
 13 28  1  0
 16 29  1  0
 16 30  1  0
 16 31  1  0
 17 32  1  0
M  END
>  <UniqueID>  (15) 
10

>  <SMILES>  (15) 
Cc1nn(C)cc1CNC(=O)c1cnn(C)c1

>  <Energy>  (15) 
84.99119717960502

>  <Genealogy>  (15) 
Cc1nn(C)cc1CNC(=O)c1cnn(C)c1 (3D coordinates assigned)
Cc1nn(C)cc1CNC(=O)c1cnn(C)c1 (optimized conformer: 84.99119717960502 kcal/mol)

>  <smiles>  (15) 
Cc1nn(C)cc1CNC(=O)c1cnn(C)c1

>  <score_type>  (15) 
oracle

>  <origin>  (15) 
adg

>  <m_score__min__energy>  (15) 
-5.8399999999999999

>  <m_primary>  (15) 
energy

$$$$
15:0
     RDKit          3D

 42 43  0  0  0  0  0  0  0  0999 V2000
   59.1380   34.2330   44.4980 C   0  0  0  0  0  0  0  0  0  0  0  0
   57.8730   34.4330   44.8750 C   0  0  0  0  0  0  0  0  0  0  0  0
   57.0850   33.3790   45.6030 C   0  0  0  0  0  0  0  0  0  0  0  0
   57.4840   33.3260   47.0070 N   0  0  0  0  0  0  0  0  0  0  0  0
   58.7130   33.2980   47.4310 C   0  0  0  0  0  0  0  0  0  0  0  0
   59.4880   32.1960   47.3420 N   0  0  0  0  0  0  0  0  0  0  0  0
   60.7350   32.4000   47.8530 C   0  0  0  0  0  0  0  0  0  0  0  0
   61.7640   31.3480   47.8680 C   0  0  0  0  0  0  0  0  0  0  0  0
   62.9850   31.6640   47.8700 O   0  0  0  0  0  0  0  0  0  0  0  0
   61.3800   30.0020   47.8790 O   0  0  0  0  0  0  0  0  0  0  0  0
   60.1640   29.5330   48.4660 C   0  0  2  0  0  0  0  0  0  0  0  0
   60.4920   28.4190   49.4540 C   0  0  0  0  0  0  0  0  0  0  0  0
   59.2270   29.0100   47.4030 C   0  0  0  0  0  0  0  0  0  0  0  0
   58.2060   28.3560   47.7490 O   0  0  0  0  0  0  0  0  0  0  0  0
   59.3730   29.3710   46.0230 N   0  0  0  0  0  0  0  0  0  0  0  0
   58.3100   29.6970   45.1200 C   0  0  0  0  0  0  0  0  0  0  0  0
   57.0310   29.1360   45.2680 C   0  0  0  0  0  0  0  0  0  0  0  0
   55.9970   29.5060   44.4040 C   0  0  0  0  0  0  0  0  0  0  0  0
   56.2270   30.4490   43.3980 C   0  0  0  0  0  0  0  0  0  0  0  0
   57.4970   31.0270   43.2490 C   0  0  0  0  0  0  0  0  0  0  0  0
   57.7300   32.0790   42.2060 C   0  0  0  0  0  0  0  0  0  0  0  0
   58.5270   30.6660   44.1320 C   0  0  0  0  0  0  0  0  0  0  0  0
   60.9550   33.6820   48.3580 C   0  0  0  0  0  0  0  0  0  0  0  0
   59.5420   34.5760   48.1530 S   0  0  0  0  0  0  0  0  0  0  0  0
   59.6855   35.0256   43.9670 H   0  0  0  0  0  0  0  0  0  0  0  0
   59.6328   33.2756   44.7184 H   0  0  0  0  0  0  0  0  0  0  0  0
   57.3934   35.3962   44.6466 H   0  0  0  0  0  0  0  0  0  0  0  0
   56.0133   33.6187   45.5393 H   0  0  0  0  0  0  0  0  0  0  0  0
   57.2812   32.4014   45.1385 H   0  0  0  0  0  0  0  0  0  0  0  0
   59.1630   31.2940   46.9260 H   0  0  0  0  0  0  0  0  0  0  0  0
   59.6682   30.3664   48.9852 H   0  0  0  0  0  0  0  0  0  0  0  0
   60.3811   28.7958   50.4815 H   0  0  0  0  0  0  0  0  0  0  0  0
   59.8042   27.5751   49.2966 H   0  0  0  0  0  0  0  0  0  0  0  0
   61.5274   28.0824   49.2966 H   0  0  0  0  0  0  0  0  0  0  0  0
   56.8427   28.4032   46.0664 H   0  0  0  0  0  0  0  0  0  0  0  0
   55.0002   29.0544   44.5157 H   0  0  0  0  0  0  0  0  0  0  0  0
   55.4099   30.7389   42.7210 H   0  0  0  0  0  0  0  0  0  0  0  0
   57.9429   33.0405   42.6961 H   0  0  0  0  0  0  0  0  0  0  0  0
   58.5859   31.7899   41.5784 H   0  0  0  0  0  0  0  0  0  0  0  0
   56.8321   32.1783   41.5784 H   0  0  0  0  0  0  0  0  0  0  0  0
   59.5122   31.1479   44.0473 H   0  0  0  0  0  0  0  0  0  0  0  0
   61.8889   34.0457   48.8113 H   0  0  0  0  0  0  0  0  0  0  0  0
  1  2  2  0
  2  3  1  0
  3  4  1  0
  4  5  2  3
  5  6  1  0
  6  7  1  0
  7  8  1  0
  8  9  2  0
  8 10  1  0
 10 11  1  0
 11 12  1  0
 11 13  1  0
 13 14  2  0
 13 15  1  0
 15 16  1  0
 16 17  2  0
 17 18  1  0
 18 19  2  0
 19 20  1  0
 20 21  1  0
 20 22  2  0
  7 23  2  0
 23 24  1  0
 24  5  1  0
 22 16  1  0
  1 25  1  0
  1 26  1  0
  2 27  1  0
  3 28  1  0
  3 29  1  0
  6 30  1  0
 11 31  1  1
 12 32  1  0
 12 33  1  0
 12 34  1  0
 17 35  1  0
 18 36  1  0
 19 37  1  0
 21 38  1  0
 21 39  1  0
 21 40  1  0
 22 41  1  0
 23 42  1  0
M  CHG  1  15  -1
M  END
>  <UniqueID>  (16) 
11

>  <SMILES>  (16) 
C=CCN=c1[nH]c(C(=O)O[C@H](C)C(=O)[N-]c2cccc(C)c2)cs1

>  <Energy>  (16) 
69.25090835046919

>  <Genealogy>  (16) 
C=CCN=c1[nH]c(C(=O)OC(C)C(=O)[N-]c2cccc(C)c2)cs1 (protonated)
C=CCN=c1[nH]c(C(=O)O[C@H](C)C(=O)[N-]c2cccc(C)c2)cs1 (chirality)
C=CCN=c1[nH]c(C(=O)O[C@H](C)C(=O)[N-]c2cccc(C)c2)cs1 (3D coordinates assigned)
C=CCN=c1[nH]c(C(=O)O[C@H](C)C(=O)[N-]c2cccc(C)c2)cs1 (optimized conformer: 69.25090835046919 kcal/mol)

>  <smiles>  (16) 
C=CCN=c1[nH]c(C(=O)OC(C)C(=O)Nc2cccc(C)c2)cs1

>  <score_type>  (16) 
oracle

>  <origin>  (16) 
adg

>  <m_score__min__energy>  (16) 
-9.0099999999999998

>  <m_primary>  (16) 
energy

$$$$
16:0
     RDKit          3D

 64 67  0  0  0  0  0  0  0  0999 V2000
   61.8230   33.8140   50.3250 C   0  0  0  0  0  0  0  0  0  0  0  0
   62.9010   34.2290   49.3350 C   0  0  0  0  0  0  0  0  0  0  0  0
   63.7250   33.0490   48.9800 N   0  0  0  0  0  0  0  0  0  0  0  0
   65.0730   33.0660   49.5850 C   0  0  0  0  0  0  0  0  0  0  0  0
   65.2820   31.8400   50.4710 C   0  0  0  0  0  0  0  0  0  0  0  0
   63.7470   32.7780   47.5250 C   0  0  0  0  0  0  0  0  0  0  0  0
   62.8350   31.6100   47.1010 C   0  0  0  0  0  0  0  0  0  0  0  0
   61.8410   31.3490   48.1410 N   0  0  0  0  0  0  0  0  0  0  0  0
   60.6350   30.6000   47.9130 C   0  0  0  0  0  0  0  0  0  0  0  0
   60.5660   29.2830   48.4130 C   0  0  0  0  0  0  0  0  0  0  0  0
   59.5570   28.4450   47.9720 C   0  0  0  0  0  0  0  0  0  0  0  0
   58.6510   28.8370   47.0140 C   0  0  0  0  0  0  0  0  0  0  0  0
   58.6700   30.1400   46.4860 C   0  0  0  0  0  0  0  0  0  0  0  0
   57.8100   30.5160   45.4450 C   0  0  0  0  0  0  0  0  0  0  0  0
   57.8340   31.8090   44.9400 C   0  0  0  0  0  0  0  0  0  0  0  0
   58.6380   32.7860   45.5280 C   0  0  0  0  0  0  0  0  0  0  0  0
   58.5590   34.1110   45.0680 C   0  0  0  0  0  0  0  0  0  0  0  0
   59.2550   35.1250   45.7190 C   0  0  0  0  0  0  0  0  0  0  0  0
   60.0050   34.8360   46.8550 C   0  0  0  0  0  0  0  0  0  0  0  0
   60.1070   33.5210   47.3150 C   0  0  0  0  0  0  0  0  0  0  0  0
   59.4920   32.4520   46.6180 C   0  0  0  0  0  0  0  0  0  0  0  0
   59.6120   31.0810   47.0190 C   0  0  0  0  0  0  0  0  0  0  0  0
   57.8140   27.6600   46.7240 C   0  0  0  0  0  0  0  0  0  0  0  0
   56.8820   27.5990   45.8800 O   0  0  0  0  0  0  0  0  0  0  0  0
   58.2130   26.5530   47.5350 N   0  0  0  0  0  0  0  0  0  0  0  0
   57.8700   25.1500   47.3120 C   0  0  0  0  0  0  0  0  0  0  0  0
   58.4600   24.6620   45.9930 C   0  0  0  0  0  0  0  0  0  0  0  0
   57.5180   23.7680   45.3340 N   0  0  0  0  0  0  0  0  0  0  0  0
   56.2080   24.1820   44.9380 C   0  0  0  0  0  0  0  0  0  0  0  0
   55.9210   24.3130   43.7170 O   0  0  0  0  0  0  0  0  0  0  0  0
   55.1880   24.5110   45.9820 C   0  0  0  0  0  0  0  0  0  0  0  0
   54.8200   25.9190   45.8870 N   0  0  0  0  0  0  0  0  0  0  0  0
   59.3220   27.0410   48.2830 C   0  0  0  0  0  0  0  0  0  0  0  0
   60.0100   26.3390   49.0720 O   0  0  0  0  0  0  0  0  0  0  0  0
   62.1930   33.9564   51.3511 H   0  0  0  0  0  0  0  0  0  0  0  0
   60.9256   34.4309   50.1699 H   0  0  0  0  0  0  0  0  0  0  0  0
   61.5709   32.7546   50.1699 H   0  0  0  0  0  0  0  0  0  0  0  0
   62.4294   34.6336   48.4273 H   0  0  0  0  0  0  0  0  0  0  0  0
   63.5404   34.9998   49.7901 H   0  0  0  0  0  0  0  0  0  0  0  0
   65.8280   33.0664   48.7850 H   0  0  0  0  0  0  0  0  0  0  0  0
   65.1720   33.9704   50.2033 H   0  0  0  0  0  0  0  0  0  0  0  0
   65.2311   32.1388   51.5284 H   0  0  0  0  0  0  0  0  0  0  0  0
   64.4974   31.0981   50.2614 H   0  0  0  0  0  0  0  0  0  0  0  0
   66.2681   31.4000   50.2614 H   0  0  0  0  0  0  0  0  0  0  0  0
   63.4180   33.6853   46.9973 H   0  0  0  0  0  0  0  0  0  0  0  0
   64.7774   32.4934   47.2654 H   0  0  0  0  0  0  0  0  0  0  0  0
   62.3217   31.8703   46.1636 H   0  0  0  0  0  0  0  0  0  0  0  0
   63.4479   30.7086   46.9528 H   0  0  0  0  0  0  0  0  0  0  0  0
   61.9970   31.7780   49.0820 H   0  0  0  0  0  0  0  0  0  0  0  0
   61.3056   28.9262   49.1449 H   0  0  0  0  0  0  0  0  0  0  0  0
   57.1095   29.7797   45.0242 H   0  0  0  0  0  0  0  0  0  0  0  0
   57.2136   32.0655   44.0686 H   0  0  0  0  0  0  0  0  0  0  0  0
   57.9433   34.3484   44.1879 H   0  0  0  0  0  0  0  0  0  0  0  0
   59.2123   36.1551   45.3356 H   0  0  0  0  0  0  0  0  0  0  0  0
   60.5194   35.6461   47.3927 H   0  0  0  0  0  0  0  0  0  0  0  0
   60.6744   33.3120   48.2339 H   0  0  0  0  0  0  0  0  0  0  0  0
   58.2730   24.5429   48.1360 H   0  0  0  0  0  0  0  0  0  0  0  0
   56.7751   25.0523   47.2711 H   0  0  0  0  0  0  0  0  0  0  0  0
   58.6619   25.5249   45.3414 H   0  0  0  0  0  0  0  0  0  0  0  0
   59.3971   24.1212   46.1914 H   0  0  0  0  0  0  0  0  0  0  0  0
   54.2941   23.8888   45.8280 H   0  0  0  0  0  0  0  0  0  0  0  0
   55.6108   24.3126   46.9779 H   0  0  0  0  0  0  0  0  0  0  0  0
   55.3300   26.3380   45.0750 H   0  0  0  0  0  0  0  0  0  0  0  0
   55.1800   26.4000   46.7430 H   0  0  0  0  0  0  0  0  0  0  0  0
  1  2  1  0
  2  3  1  0
  3  4  1  0
  4  5  1  0
  3  6  1  0
  6  7  1  0
  7  8  1  0
  8  9  1  0
  9 10  2  0
 10 11  1  0
 11 12  2  0
 12 13  1  0
 13 14  2  0
 14 15  1  0
 15 16  2  0
 16 17  1  0
 17 18  2  0
 18 19  1  0
 19 20  2  0
 20 21  1  0
 21 22  2  0
 12 23  1  0
 23 24  2  0
 23 25  1  0
 25 26  1  0
 26 27  1  0
 27 28  1  0
 28 29  1  0
 29 30  2  0
 29 31  1  0
 31 32  1  0
 25 33  1  0
 33 34  2  0
 22  9  1  0
 33 11  1  0
 22 13  1  0
 21 16  1  0
  1 35  1  0
  1 36  1  0
  1 37  1  0
  2 38  1  0
  2 39  1  0
  4 40  1  0
  4 41  1  0
  5 42  1  0
  5 43  1  0
  5 44  1  0
  6 45  1  0
  6 46  1  0
  7 47  1  0
  7 48  1  0
  8 49  1  0
 10 50  1  0
 14 51  1  0
 15 52  1  0
 17 53  1  0
 18 54  1  0
 19 55  1  0
 20 56  1  0
 26 57  1  0
 26 58  1  0
 27 59  1  0
 27 60  1  0
 31 61  1  0
 31 62  1  0
 32 63  1  0
 32 64  1  0
M  CHG  1  28  -1
M  END
>  <UniqueID>  (17) 
12

>  <SMILES>  (17) 
CCN(CC)CCNc1cc2c(c3ccc4ccccc4c13)C(=O)N(CC[N-]C(=O)CN)C2=O

>  <Energy>  (17) 
113.04665657068438

>  <Genealogy>  (17) 
CCN(CC)CCNc1cc2c(c3ccc4ccccc4c13)C(=O)N(CC[N-]C(=O)CN)C2=O (protonated)
CCN(CC)CCNc1cc2c(c3ccc4ccccc4c13)C(=O)N(CC[N-]C(=O)CN)C2=O (3D coordinates assigned)
CCN(CC)CCNc1cc2c(c3ccc4ccccc4c13)C(=O)N(CC[N-]C(=O)CN)C2=O (nonaromatic ring conformer: 113.04665657068438 kcal/mol)

>  <smiles>  (17) 
CCN(CC)CCNc1cc2c(c3ccc4ccccc4c13)C(=O)N(CCNC(=O)CN)C2=O

>  <score_type>  (17) 
oracle

>  <origin>  (17) 
adg

>  <m_score__min__energy>  (17) 
-10.91

>  <m_primary>  (17) 
energy

$$$$
17:0
     RDKit          3D

 34 35  0  0  0  0  0  0  0  0999 V2000
   56.6120   30.2590   42.9470 C   0  0  0  0  0  0  0  0  0  0  0  0
   55.9670   29.7670   44.2060 C   0  0  0  0  0  0  0  0  0  0  0  0
   54.7860   29.3320   44.1570 O   0  0  0  0  0  0  0  0  0  0  0  0
   56.6370   29.8110   45.4730 N   0  0  0  0  0  0  0  0  0  0  0  0
   57.7890   29.0450   45.8590 C   0  0  0  0  0  0  0  0  0  0  0  0
   57.7270   27.6400   45.9020 C   0  0  0  0  0  0  0  0  0  0  0  0
   58.8220   26.8960   46.3420 C   0  0  0  0  0  0  0  0  0  0  0  0
   59.9830   27.5420   46.7610 C   0  0  0  0  0  0  0  0  0  0  0  0
   60.0510   28.9370   46.7500 C   0  0  0  0  0  0  0  0  0  0  0  0
   58.9580   29.7050   46.3080 C   0  0  0  0  0  0  0  0  0  0  0  0
   59.0420   31.1920   46.2990 C   0  0  0  0  0  0  0  0  0  0  0  0
   60.1870   31.7240   46.3590 O   0  0  0  0  0  0  0  0  0  0  0  0
   57.8440   32.0200   46.2320 N   0  0  0  0  0  0  0  0  0  0  0  0
   57.7220   32.6840   44.9150 C   0  0  0  0  0  0  0  0  0  0  0  0
   58.6960   33.8640   44.7940 C   0  0  0  0  0  0  0  0  0  0  0  0
   58.4510   34.8120   45.8130 O   0  0  0  0  0  0  0  0  0  0  0  0
   58.6960   34.2230   47.0750 C   0  0  0  0  0  0  0  0  0  0  0  0
   57.7570   33.0240   47.3190 C   0  0  0  0  0  0  0  0  0  0  0  0
   57.4631   30.9082   43.2005 H   0  0  0  0  0  0  0  0  0  0  0  0
   56.9680   29.4010   42.3579 H   0  0  0  0  0  0  0  0  0  0  0  0
   55.8786   30.8292   42.3579 H   0  0  0  0  0  0  0  0  0  0  0  0
   56.8081   27.1243   45.5863 H   0  0  0  0  0  0  0  0  0  0  0  0
   58.7686   25.7974   46.3581 H   0  0  0  0  0  0  0  0  0  0  0  0
   60.8473   26.9526   47.1010 H   0  0  0  0  0  0  0  0  0  0  0  0
   60.9681   29.4402   47.0902 H   0  0  0  0  0  0  0  0  0  0  0  0
   57.0180   31.3890   46.3510 H   0  0  0  0  0  0  0  0  0  0  0  0
   57.9439   31.9533   44.1232 H   0  0  0  0  0  0  0  0  0  0  0  0
   56.6963   33.0681   44.8131 H   0  0  0  0  0  0  0  0  0  0  0  0
   59.7276   33.4931   44.8845 H   0  0  0  0  0  0  0  0  0  0  0  0
   58.5520   34.3464   43.8160 H   0  0  0  0  0  0  0  0  0  0  0  0
   59.7392   33.8761   47.1133 H   0  0  0  0  0  0  0  0  0  0  0  0
   58.5107   34.9766   47.8546 H   0  0  0  0  0  0  0  0  0  0  0  0
   58.0340   32.5437   48.2690 H   0  0  0  0  0  0  0  0  0  0  0  0
   56.7245   33.4021   47.3503 H   0  0  0  0  0  0  0  0  0  0  0  0
  1  2  1  0
  2  3  2  0
  2  4  1  0
  4  5  1  0
  5  6  2  0
  6  7  1  0
  7  8  2  0
  8  9  1  0
  9 10  2  0
 10 11  1  0
 11 12  2  0
 11 13  1  0
 13 14  1  0
 14 15  1  0
 15 16  1  0
 16 17  1  0
 17 18  1  0
 10  5  1  0
 18 13  1  0
  1 19  1  0
  1 20  1  0
  1 21  1  0
  6 22  1  0
  7 23  1  0
  8 24  1  0
  9 25  1  0
 13 26  1  0
 14 27  1  0
 14 28  1  0
 15 29  1  0
 15 30  1  0
 17 31  1  0
 17 32  1  0
 18 33  1  0
 18 34  1  0
M  CHG  2   4  -1  13   1
M  END
>  <UniqueID>  (18) 
13

>  <SMILES>  (18) 
CC(=O)[N-]c1ccccc1C(=O)[NH+]1CCOCC1

>  <Energy>  (18) 
49.69155418724068

>  <Genealogy>  (18) 
CC(=O)[N-]c1ccccc1C(=O)[NH+]1CCOCC1 (protonated)
CC(=O)[N-]c1ccccc1C(=O)[NH+]1CCOCC1 (3D coordinates assigned)
CC(=O)[N-]c1ccccc1C(=O)[NH+]1CCOCC1 (nonaromatic ring conformer: 49.69155418724068 kcal/mol)

>  <smiles>  (18) 
CC(=O)Nc1ccccc1C(=O)N1CCOCC1

>  <score_type>  (18) 
oracle

>  <origin>  (18) 
adg

>  <m_score__min__energy>  (18) 
-6.5999999999999996

>  <m_primary>  (18) 
energy

$$$$
18:0
     RDKit          3D

 28 30  0  0  1  0  0  0  0  0999 V2000
   56.3010   29.5790   42.2480 N   0  0  0  0  0  0  0  0  0  0  0  0
   56.7250   29.7570   43.4620 C   0  0  0  0  0  0  0  0  0  0  0  0
   56.6750   28.7890   44.3950 N   0  0  0  0  0  0  0  0  0  0  0  0
   57.1210   29.0040   45.6410 C   0  0  0  0  0  0  0  0  0  0  0  0
   57.6290   30.1840   45.9970 N   0  0  0  0  0  0  0  0  0  0  0  0
   57.7200   31.2080   45.1370 C   0  0  0  0  0  0  0  0  0  0  0  0
   57.2550   30.9730   43.8490 C   0  0  0  0  0  0  0  0  0  0  0  0
   57.4290   32.1200   43.1250 C   0  0  0  0  0  0  0  0  0  0  0  0
   58.0040   33.0510   43.9860 C   0  0  0  0  0  0  0  0  0  0  0  0
   58.1780   32.4880   45.2090 N   0  0  0  0  0  0  0  0  0  0  0  0
   58.7420   33.1200   46.3720 C   0  0  1  0  0  0  0  0  0  0  0  0
   60.2330   33.0480   46.3480 C   0  0  0  0  0  0  0  0  0  0  0  0
   60.7330   34.4490   46.5980 C   0  0  0  0  0  0  0  0  0  0  0  0
   59.6320   35.3380   46.4360 N   0  0  0  0  0  0  0  0  0  0  0  0
   58.4050   34.5780   46.4960 C   0  0  0  0  0  0  0  0  0  0  0  0
   55.5200   28.9070   42.0590 H   0  0  0  0  0  0  0  0  0  0  0  0
   56.2840   27.8580   44.1490 H   0  0  0  0  0  0  0  0  0  0  0  0
   57.0668   28.1929   46.3821 H   0  0  0  0  0  0  0  0  0  0  0  0
   57.1660   32.2766   42.0684 H   0  0  0  0  0  0  0  0  0  0  0  0
   58.2752   34.0826   43.7170 H   0  0  0  0  0  0  0  0  0  0  0  0
   58.3060   32.5686   47.2181 H   0  0  0  0  0  0  0  0  0  0  0  0
   60.5935   32.3696   47.1353 H   0  0  0  0  0  0  0  0  0  0  0  0
   60.5973   32.6613   45.3848 H   0  0  0  0  0  0  0  0  0  0  0  0
   61.1306   34.5278   47.6206 H   0  0  0  0  0  0  0  0  0  0  0  0
   61.5387   34.7017   45.8930 H   0  0  0  0  0  0  0  0  0  0  0  0
   59.6040   36.1030   47.1450 H   0  0  0  0  0  0  0  0  0  0  0  0
   57.9009   34.7621   47.4562 H   0  0  0  0  0  0  0  0  0  0  0  0
   57.7334   34.8807   45.6791 H   0  0  0  0  0  0  0  0  0  0  0  0
  1  2  2  3
  2  3  1  0
  3  4  1  0
  4  5  2  0
  5  6  1  0
  6  7  2  0
  7  8  1  0
  8  9  2  0
  9 10  1  0
 10 11  1  0
 11 12  1  0
 12 13  1  0
 13 14  1  0
 14 15  1  0
  7  2  1  0
 15 11  1  0
 10  6  1  0
  1 16  1  0
  3 17  1  0
  4 18  1  0
  8 19  1  0
  9 20  1  0
 11 21  1  1
 12 22  1  0
 12 23  1  0
 13 24  1  0
 13 25  1  0
 14 26  1  0
 15 27  1  0
 15 28  1  0
M  END
>  <smiles>  (19) 
N=c1[nH]cnc2c1ccn2C1CCNC1

>  <score_type>  (19) 
oracle

>  <origin>  (19) 
adg

>  <m_score__min__energy>  (19) 
-6.1500000000000004

>  <m_primary>  (19) 
energy

$$$$
19:0
     RDKit          3D

 26 27  0  0  0  0  0  0  0  0999 V2000
   56.9890   21.0220   43.0260 C   0  0  0  0  0  0  0  0  0  0  0  0
   55.9070   21.4980   43.8190 O   0  0  0  0  0  0  0  0  0  0  0  0
   55.8240   22.7930   44.3500 C   0  0  0  0  0  0  0  0  0  0  0  0
   56.9060   23.6940   44.3190 C   0  0  0  0  0  0  0  0  0  0  0  0
   56.7720   24.9740   44.8640 C   0  0  0  0  0  0  0  0  0  0  0  0
   55.5700   25.3720   45.4600 C   0  0  0  0  0  0  0  0  0  0  0  0
   55.4720   26.7040   45.9870 N   0  0  0  0  0  0  0  0  0  0  0  0
   56.2710   27.8350   45.6190 C   0  0  0  0  0  0  0  0  0  0  0  0
   57.5040   27.8550   45.8720 O   0  0  0  0  0  0  0  0  0  0  0  0
   55.6850   28.9600   44.9560 N   0  0  0  0  0  0  0  0  0  0  0  0
   56.3790   29.9780   44.2230 C   0  0  0  0  0  0  0  0  0  0  0  0
   56.2880   30.0640   42.8170 C   0  0  0  0  0  0  0  0  0  0  0  0
   56.9530   31.0950   42.2380 N   0  0  0  0  0  0  0  0  0  0  0  0
   57.6460   31.9120   43.5050 S   0  0  0  0  0  0  0  0  0  0  0  0
   57.1360   30.9970   44.8010 C   0  0  0  0  0  0  0  0  0  0  0  0
   54.4820   24.4820   45.4700 C   0  0  0  0  0  0  0  0  0  0  0  0
   54.6140   23.2020   44.9250 C   0  0  0  0  0  0  0  0  0  0  0  0
   57.7966   20.6667   43.6830 H   0  0  0  0  0  0  0  0  0  0  0  0
   56.6416   20.1936   42.3911 H   0  0  0  0  0  0  0  0  0  0  0  0
   57.3650   21.8378   42.3911 H   0  0  0  0  0  0  0  0  0  0  0  0
   57.8601   23.3892   43.8642 H   0  0  0  0  0  0  0  0  0  0  0  0
   57.6189   25.6748   44.8241 H   0  0  0  0  0  0  0  0  0  0  0  0
   55.7116   29.3375   42.2254 H   0  0  0  0  0  0  0  0  0  0  0  0
   57.3479   31.1595   45.8681 H   0  0  0  0  0  0  0  0  0  0  0  0
   53.5228   24.7944   45.9086 H   0  0  0  0  0  0  0  0  0  0  0  0
   53.7598   22.5093   44.9478 H   0  0  0  0  0  0  0  0  0  0  0  0
  1  2  1  0
  2  3  1  0
  3  4  2  0
  4  5  1  0
  5  6  2  0
  6  7  1  0
  7  8  1  0
  8  9  2  0
  8 10  1  0
 10 11  1  0
 11 12  1  0
 12 13  2  0
 13 14  1  0
 14 15  1  0
  6 16  1  0
 16 17  2  0
 17  3  1  0
 15 11  2  0
  1 18  1  0
  1 19  1  0
  1 20  1  0
  4 21  1  0
  5 22  1  0
 12 23  1  0
 15 24  1  0
 16 25  1  0
 17 26  1  0
M  CHG  2   7  -1  10  -1
M  END
>  <UniqueID>  (20) 
14

>  <SMILES>  (20) 
COc1ccc([N-]C(=O)[N-]c2cnsc2)cc1

>  <Energy>  (20) 
63.01313740201934

>  <Genealogy>  (20) 
COc1ccc([N-]C(=O)[N-]c2cnsc2)cc1 (protonated)
COc1ccc([N-]C(=O)[N-]c2cnsc2)cc1 (3D coordinates assigned)
COc1ccc([N-]C(=O)[N-]c2cnsc2)cc1 (optimized conformer: 63.01313740201934 kcal/mol)

>  <smiles>  (20) 
COc1ccc(NC(=O)Nc2cnsc2)cc1

>  <score_type>  (20) 
oracle

>  <origin>  (20) 
adg

>  <m_score__min__energy>  (20) 
-9.8699999999999992

>  <m_primary>  (20) 
energy

$$$$
20:0
     RDKit          3D

 41 42  0  0  0  0  0  0  0  0999 V2000
   52.1100   21.7740   45.3900 H   0  0  0  0  0  0  0  0  0  0  0  0
   52.2700   22.8010   45.2780 N   0  0  0  0  0  0  0  0  0  0  0  0
   53.4610   23.3030   45.2910 C   0  0  0  0  0  0  0  0  0  0  0  0
   54.5200   22.5350   44.9280 N   0  0  0  0  0  0  0  0  0  0  0  0
   55.7820   23.0360   44.9340 C   0  0  0  0  0  0  0  0  0  0  0  0
   56.6258   22.3998   44.6286 H   0  0  0  0  0  0  0  0  0  0  0  0
   56.0130   24.3610   45.3280 C   0  0  0  0  0  0  0  0  0  0  0  0
   57.4080   24.9270   45.2890 C   0  0  0  0  0  0  0  0  0  0  0  0
   57.7315   25.1776   46.3100 H   0  0  0  0  0  0  0  0  0  0  0  0
   58.0957   24.1828   44.8609 H   0  0  0  0  0  0  0  0  0  0  0  0
   57.4170   26.1380   44.4610 N   0  0  0  0  0  0  0  0  0  0  0  0
   56.5740   26.7040   44.7190 H   0  0  0  0  0  0  0  0  0  0  0  0
   58.6070   26.9650   44.7120 C   0  0  0  0  0  0  0  0  0  0  0  0
   59.4409   26.3123   45.0096 H   0  0  0  0  0  0  0  0  0  0  0  0
   58.8516   27.5116   43.7893 H   0  0  0  0  0  0  0  0  0  0  0  0
   58.3470   27.9950   45.8360 C   0  0  2  0  0  0  0  0  0  0  0  0
   59.2499   28.0164   46.4639 H   0  0  0  0  0  0  0  0  0  0  0  0
   57.2560   27.6070   46.6330 O   0  0  0  0  0  0  0  0  0  0  0  0
   56.5270   27.3020   46.0340 H   0  0  0  0  0  0  0  0  0  0  0  0
   58.1420   29.3990   45.2940 C   0  0  0  0  0  0  0  0  0  0  0  0
   57.1550   29.6410   44.3260 C   0  0  0  0  0  0  0  0  0  0  0  0
   56.5445   28.8076   43.9481 H   0  0  0  0  0  0  0  0  0  0  0  0
   56.9430   30.9310   43.8400 C   0  0  0  0  0  0  0  0  0  0  0  0
   56.1680   31.1072   43.0795 H   0  0  0  0  0  0  0  0  0  0  0  0
   57.7080   32.0020   44.3120 C   0  0  0  0  0  0  0  0  0  0  0  0
   57.4610   33.2770   43.8010 O   0  0  0  0  0  0  0  0  0  0  0  0
   57.9020   34.1070   44.1770 H   0  0  0  0  0  0  0  0  0  0  0  0
   58.7000   31.7810   45.2860 C   0  0  0  0  0  0  0  0  0  0  0  0
   59.4650   32.8960   45.7700 N   0  0  0  0  0  0  0  0  0  0  0  0
   58.8340   34.4530   46.2040 S   0  0  0  0  0  0  0  0  0  0  0  0
   57.3350   34.3680   46.2510 O   0  0  0  0  0  0  0  0  0  0  0  0
   59.2290   35.4740   45.1750 O   0  0  0  0  0  0  0  0  0  0  0  0
   59.4290   34.9280   47.8140 C   0  0  0  0  0  0  0  0  0  0  0  0
   58.8188   34.4409   48.5888 H   0  0  0  0  0  0  0  0  0  0  0  0
   60.4782   34.6164   47.9238 H   0  0  0  0  0  0  0  0  0  0  0  0
   59.3575   36.0202   47.9238 H   0  0  0  0  0  0  0  0  0  0  0  0
   58.9160   30.4750   45.7640 C   0  0  0  0  0  0  0  0  0  0  0  0
   59.6997   30.2937   46.5143 H   0  0  0  0  0  0  0  0  0  0  0  0
   54.9000   25.1440   45.6800 C   0  0  0  0  0  0  0  0  0  0  0  0
   55.0400   26.3500   46.0130 O   0  0  0  0  0  0  0  0  0  0  0  0
   53.6560   24.5970   45.6590 N   0  0  0  0  0  0  0  0  0  0  0  0
  1  2  1  0
  2  3  2  0
  3  4  1  0
  4  5  1  0
  5  6  1  0
  5  7  2  0
  7  8  1  0
  8  9  1  0
  8 10  1  0
  8 11  1  0
 11 12  1  0
 11 13  1  0
 13 14  1  0
 13 15  1  0
 13 16  1  0
 16 17  1  1
 16 18  1  0
 18 19  1  0
 16 20  1  0
 20 21  2  0
 21 22  1  0
 21 23  1  0
 23 24  1  0
 23 25  2  0
 25 26  1  0
 26 27  1  0
 25 28  1  0
 28 29  1  0
 29 30  1  0
 30 31  2  0
 30 32  2  0
 30 33  1  0
 33 34  1  0
 33 35  1  0
 33 36  1  0
 28 37  2  0
 37 38  1  0
  7 39  1  0
 39 40  2  0
 39 41  1  0
 41  3  1  0
 37 20  1  0
M  CHG  3   4  -1  29  -1  41  -1
M  END
>  <UniqueID>  (21) 
15

>  <SMILES>  (21) 
[H]/N=c1/[n-]cc(CNC[C@H](O)c2ccc(O)c([N-]S(C)(=O)=O)c2)c(=O)[n-]1

>  <Energy>  (21) 
40.64319681006275

>  <Genealogy>  (21) 
CS(=O)(=O)[N-]c1cc(C(O)CNCc2c[n-]c(=N)[n-]c2=O)ccc1O (protonated)
CS(=O)(=O)[N-]c1cc([C@@H](O)CNCc2c[n-]c(=N)[n-]c2=O)ccc1O (chirality)
[H]/N=c1/[n-]cc(CNC[C@H](O)c2ccc(O)c([N-]S(C)(=O)=O)c2)c(=O)[n-]1 (cis-trans isomerization)
[H]/N=c1/[n-]cc(CNC[C@H](O)c2ccc(O)c([N-]S(C)(=O)=O)c2)c(=O)[n-]1 (3D coordinates assigned)
[H]/N=c1/[n-]cc(CNC[C@H](O)c2ccc(O)c([N-]S(C)(=O)=O)c2)c(=O)[n-]1 (optimized conformer: 40.64319681006275 kcal/mol)

>  <smiles>  (21) 
CS(=O)(=O)Nc1cc(C(O)CNCc2c[nH]c(=N)[nH]c2=O)ccc1O

>  <score_type>  (21) 
oracle

>  <origin>  (21) 
adg

>  <m_score__min__energy>  (21) 
-11.710000000000001

>  <m_primary>  (21) 
energy

$$$$
21:0
     RDKit          3D

 29 30  0  0  0  0  0  0  0  0999 V2000
   56.4880   25.1620   46.8940 O   0  0  0  0  0  0  0  0  0  0  0  0
   56.0960   26.2410   46.3790 C   0  0  0  0  0  0  0  0  0  0  0  0
   54.7760   26.3640   45.9590 O   0  0  0  0  0  0  0  0  0  0  0  0
   57.0240   27.4030   46.2700 C   0  0  0  0  0  0  0  0  0  0  0  0
   56.8700   28.0210   44.9590 N   0  0  0  0  0  0  0  0  0  0  0  0
   56.2250   29.2780   44.7160 C   0  0  0  0  0  0  0  0  0  0  0  0
   54.9720   29.3450   44.8140 O   0  0  0  0  0  0  0  0  0  0  0  0
   56.9790   30.4850   44.3200 C   0  0  0  0  0  0  0  0  0  0  0  0
   57.0330   30.8880   42.9790 C   0  0  0  0  0  0  0  0  0  0  0  0
   57.7640   32.0200   42.6150 C   0  0  0  0  0  0  0  0  0  0  0  0
   58.4540   32.7540   43.5830 C   0  0  0  0  0  0  0  0  0  0  0  0
   58.4220   32.3600   44.9340 C   0  0  0  0  0  0  0  0  0  0  0  0
   59.1630   33.1150   45.9780 C   0  0  0  0  0  0  0  0  0  0  0  0
   58.6230   34.2670   46.5810 C   0  0  0  0  0  0  0  0  0  0  0  0
   59.3560   34.9390   47.5610 C   0  0  0  0  0  0  0  0  0  0  0  0
   60.6120   34.4640   47.9380 C   0  0  0  0  0  0  0  0  0  0  0  0
   61.1170   33.3140   47.3310 C   0  0  0  0  0  0  0  0  0  0  0  0
   60.3890   32.6730   46.3780 N   0  0  0  0  0  0  0  0  0  0  0  0
   57.6910   31.2100   45.2880 C   0  0  0  0  0  0  0  0  0  0  0  0
   56.7860   28.1380   47.0530 H   0  0  0  0  0  0  0  0  0  0  0  0
   58.0613   27.0593   46.3958 H   0  0  0  0  0  0  0  0  0  0  0  0
   56.4977   30.3105   42.2109 H   0  0  0  0  0  0  0  0  0  0  0  0
   57.7969   32.3355   41.5617 H   0  0  0  0  0  0  0  0  0  0  0  0
   59.0261   33.6458   43.2874 H   0  0  0  0  0  0  0  0  0  0  0  0
   57.6304   34.6350   46.2821 H   0  0  0  0  0  0  0  0  0  0  0  0
   58.9435   35.8418   48.0351 H   0  0  0  0  0  0  0  0  0  0  0  0
   61.1980   34.9905   48.7057 H   0  0  0  0  0  0  0  0  0  0  0  0
   62.1039   32.9258   47.6232 H   0  0  0  0  0  0  0  0  0  0  0  0
   57.6778   30.8757   46.3359 H   0  0  0  0  0  0  0  0  0  0  0  0
  1  2  2  0
  2  3  1  0
  2  4  1  0
  4  5  1  0
  5  6  1  0
  6  7  2  0
  6  8  1  0
  8  9  2  0
  9 10  1  0
 10 11  2  0
 11 12  1  0
 12 13  1  0
 13 14  2  0
 14 15  1  0
 15 16  2  0
 16 17  1  0
 17 18  2  0
 12 19  2  0
 19  8  1  0
 18 13  1  0
  4 20  1  0
  4 21  1  0
  9 22  1  0
 10 23  1  0
 11 24  1  0
 14 25  1  0
 15 26  1  0
 16 27  1  0
 17 28  1  0
 19 29  1  0
M  CHG  2   3  -1   5  -1
M  END
>  <UniqueID>  (22) 
16

>  <SMILES>  (22) 
O=C([O-])C[N-]C(=O)c1cccc(-c2ccccn2)c1

>  <Energy>  (22) 
36.96422578740354

>  <Genealogy>  (22) 
O=C([O-])C[N-]C(=O)c1cccc(-c2ccccn2)c1 (protonated)
O=C([O-])C[N-]C(=O)c1cccc(-c2ccccn2)c1 (3D coordinates assigned)
O=C([O-])C[N-]C(=O)c1cccc(-c2ccccn2)c1 (optimized conformer: 36.96422578740354 kcal/mol)

>  <smiles>  (22) 
O=C(O)CNC(=O)c1cccc(-c2ccccn2)c1

>  <score_type>  (22) 
oracle

>  <origin>  (22) 
adg

>  <m_score__min__energy>  (22) 
-12.49

>  <m_primary>  (22) 
energy

$$$$
22:0
     RDKit          3D

 34 35  0  0  0  0  0  0  0  0999 V2000
   59.4950   32.0380   49.7250 C   0  0  0  0  0  0  0  0  0  0  0  0
   59.3030   33.4590   49.4330 N   0  0  0  0  0  0  0  0  0  0  0  0
   60.5260   34.2110   49.7360 C   0  0  0  0  0  0  0  0  0  0  0  0
   61.6260   33.7970   48.7920 C   0  0  0  0  0  0  0  0  0  0  0  0
   62.8530   33.3430   49.3050 C   0  0  0  0  0  0  0  0  0  0  0  0
   63.8710   33.0200   48.4640 N   0  0  0  0  0  0  0  0  0  0  0  0
   63.7480   33.1320   47.1160 C   0  0  0  0  0  0  0  0  0  0  0  0
   62.5560   33.5960   46.5590 C   0  0  0  0  0  0  0  0  0  0  0  0
   61.4870   33.9280   47.3950 C   0  0  0  0  0  0  0  0  0  0  0  0
   60.3020   34.4040   46.8260 O   0  0  0  0  0  0  0  0  0  0  0  0
   59.3620   33.5900   46.1800 C   0  0  0  0  0  0  0  0  0  0  0  0
   58.3120   34.1220   45.4060 C   0  0  0  0  0  0  0  0  0  0  0  0
   57.3990   33.2700   44.7760 C   0  0  0  0  0  0  0  0  0  0  0  0
   57.5210   31.8830   44.9170 C   0  0  0  0  0  0  0  0  0  0  0  0
   56.3520   30.7900   44.1050 S   0  0  0  0  0  0  0  0  0  0  0  0
   57.4670   29.3540   44.1650 C   0  0  0  0  0  0  0  0  0  0  0  0
   58.5620   31.3500   45.6850 C   0  0  0  0  0  0  0  0  0  0  0  0
   59.4760   32.2000   46.3140 C   0  0  0  0  0  0  0  0  0  0  0  0
   59.5154   31.8870   50.8144 H   0  0  0  0  0  0  0  0  0  0  0  0
   58.6669   31.4591   49.2900 H   0  0  0  0  0  0  0  0  0  0  0  0
   60.4470   31.6997   49.2900 H   0  0  0  0  0  0  0  0  0  0  0  0
   59.1140   33.5420   48.4060 H   0  0  0  0  0  0  0  0  0  0  0  0
   60.3311   35.2874   49.6203 H   0  0  0  0  0  0  0  0  0  0  0  0
   60.8358   33.9999   50.7702 H   0  0  0  0  0  0  0  0  0  0  0  0
   62.9904   33.2485   50.3923 H   0  0  0  0  0  0  0  0  0  0  0  0
   64.5891   32.8566   46.4628 H   0  0  0  0  0  0  0  0  0  0  0  0
   62.4584   33.6998   45.4683 H   0  0  0  0  0  0  0  0  0  0  0  0
   58.2097   35.2118   45.2967 H   0  0  0  0  0  0  0  0  0  0  0  0
   56.5839   33.6907   44.1689 H   0  0  0  0  0  0  0  0  0  0  0  0
   57.6708   29.0916   45.2136 H   0  0  0  0  0  0  0  0  0  0  0  0
   56.9928   28.5002   43.6588 H   0  0  0  0  0  0  0  0  0  0  0  0
   58.4116   29.6019   43.6588 H   0  0  0  0  0  0  0  0  0  0  0  0
   58.6613   30.2599   45.7940 H   0  0  0  0  0  0  0  0  0  0  0  0
   60.2906   31.7746   46.9185 H   0  0  0  0  0  0  0  0  0  0  0  0
  1  2  1  0
  2  3  1  0
  3  4  1  0
  4  5  2  0
  5  6  1  0
  6  7  2  0
  7  8  1  0
  8  9  2  0
  9 10  1  0
 10 11  1  0
 11 12  2  0
 12 13  1  0
 13 14  2  0
 14 15  1  0
 15 16  1  0
 14 17  1  0
 17 18  2  0
  9  4  1  0
 18 11  1  0
  1 19  1  0
  1 20  1  0
  1 21  1  0
  2 22  1  0
  3 23  1  0
  3 24  1  0
  5 25  1  0
  7 26  1  0
  8 27  1  0
 12 28  1  0
 13 29  1  0
 16 30  1  0
 16 31  1  0
 16 32  1  0
 17 33  1  0
 18 34  1  0
M  END
>  <UniqueID>  (23) 
17

>  <SMILES>  (23) 
CNCc1cnccc1Oc1ccc(SC)cc1

>  <Energy>  (23) 
37.435958955799144

>  <Genealogy>  (23) 
CNCc1cnccc1Oc1ccc(SC)cc1 (3D coordinates assigned)
CNCc1cnccc1Oc1ccc(SC)cc1 (optimized conformer: 37.435958955799144 kcal/mol)

>  <smiles>  (23) 
CNCc1cnccc1Oc1ccc(SC)cc1

>  <score_type>  (23) 
oracle

>  <origin>  (23) 
adg

>  <m_score__min__energy>  (23) 
-6.1799999999999997

>  <m_primary>  (23) 
energy

$$$$
23:0
     RDKit          3D

 45 48  0  0  0  0  0  0  0  0999 V2000
   66.8500   32.9640   50.2730 C   0  0  0  0  0  0  0  0  0  0  0  0
   65.4620   32.3810   49.9900 C   0  0  0  0  0  0  0  0  0  0  0  0
   64.7700   33.0860   48.8980 N   0  0  0  0  0  0  0  0  0  0  0  0
   63.4690   32.5180   48.6380 C   0  0  0  0  0  0  0  0  0  0  0  0
   62.5130   32.4330   49.6660 C   0  0  0  0  0  0  0  0  0  0  0  0
   61.2590   31.8680   49.4230 C   0  0  0  0  0  0  0  0  0  0  0  0
   60.9370   31.3700   48.1500 C   0  0  0  0  0  0  0  0  0  0  0  0
   59.5680   30.7690   47.8880 C   0  0  1  0  0  0  0  0  0  0  0  0
   58.4970   31.8720   47.9800 C   0  0  0  0  0  0  0  0  0  0  0  0
   58.8500   33.0400   47.1000 C   0  0  0  0  0  0  0  0  0  0  0  0
   59.2280   34.2630   47.6830 C   0  0  0  0  0  0  0  0  0  0  0  0
   59.5780   35.3500   46.8800 C   0  0  0  0  0  0  0  0  0  0  0  0
   59.5490   35.2310   45.4910 C   0  0  0  0  0  0  0  0  0  0  0  0
   59.1650   34.0260   44.9000 C   0  0  0  0  0  0  0  0  0  0  0  0
   58.8020   32.9210   45.6950 C   0  0  0  0  0  0  0  0  0  0  0  0
   58.3840   31.6930   45.0680 N   0  0  0  0  0  0  0  0  0  0  0  0
   57.5040   31.5940   44.0480 C   0  0  0  0  0  0  0  0  0  0  0  0
   57.2470   30.2690   43.7670 C   0  0  0  0  0  0  0  0  0  0  0  0
   57.9930   29.5240   44.6570 C   0  0  0  0  0  0  0  0  0  0  0  0
   58.6900   30.4270   45.4390 C   0  0  0  0  0  0  0  0  0  0  0  0
   59.5690   30.0400   46.5630 C   0  0  0  0  0  0  0  0  0  0  0  0
   60.3670   29.0770   46.3930 O   0  0  0  0  0  0  0  0  0  0  0  0
   61.8910   31.4590   47.1200 C   0  0  0  0  0  0  0  0  0  0  0  0
   63.1450   32.0240   47.3640 C   0  0  0  0  0  0  0  0  0  0  0  0
   67.0056   33.0294   51.3600 H   0  0  0  0  0  0  0  0  0  0  0  0
   67.6184   32.3126   49.8311 H   0  0  0  0  0  0  0  0  0  0  0  0
   66.9227   33.9687   49.8311 H   0  0  0  0  0  0  0  0  0  0  0  0
   65.5731   31.3223   49.7127 H   0  0  0  0  0  0  0  0  0  0  0  0
   64.8569   32.4971   50.9012 H   0  0  0  0  0  0  0  0  0  0  0  0
   64.6530   34.0890   49.1700 H   0  0  0  0  0  0  0  0  0  0  0  0
   65.3610   33.0710   48.0320 H   0  0  0  0  0  0  0  0  0  0  0  0
   62.7547   32.8144   50.6691 H   0  0  0  0  0  0  0  0  0  0  0  0
   60.5184   31.8127   50.2344 H   0  0  0  0  0  0  0  0  0  0  0  0
   59.3214   30.0192   48.6542 H   0  0  0  0  0  0  0  0  0  0  0  0
   57.5282   31.4605   47.6604 H   0  0  0  0  0  0  0  0  0  0  0  0
   58.4421   32.2215   49.0215 H   0  0  0  0  0  0  0  0  0  0  0  0
   59.2479   34.3635   48.7782 H   0  0  0  0  0  0  0  0  0  0  0  0
   59.8771   36.3016   47.3436 H   0  0  0  0  0  0  0  0  0  0  0  0
   59.8290   36.0876   44.8602 H   0  0  0  0  0  0  0  0  0  0  0  0
   59.1457   33.9385   43.8037 H   0  0  0  0  0  0  0  0  0  0  0  0
   57.0568   32.4478   43.5178 H   0  0  0  0  0  0  0  0  0  0  0  0
   56.5774   29.8812   42.9852 H   0  0  0  0  0  0  0  0  0  0  0  0
   58.0268   28.4270   44.7302 H   0  0  0  0  0  0  0  0  0  0  0  0
   61.6479   31.0812   46.1159 H   0  0  0  0  0  0  0  0  0  0  0  0
   63.8845   32.0824   46.5518 H   0  0  0  0  0  0  0  0  0  0  0  0
  1  2  1  0
  2  3  1  0
  3  4  1  0
  4  5  2  0
  5  6  1  0
  6  7  2  0
  7  8  1  0
  8  9  1  0
  9 10  1  0
 10 11  2  0
 11 12  1  0
 12 13  2  0
 13 14  1  0
 14 15  2  0
 15 16  1  0
 16 17  1  0
 17 18  2  0
 18 19  1  0
 19 20  2  0
 20 21  1  0
 21 22  2  0
  7 23  1  0
 23 24  2  0
 24  4  1  0
 21  8  1  0
 15 10  1  0
 20 16  1  0
  1 25  1  0
  1 26  1  0
  1 27  1  0
  2 28  1  0
  2 29  1  0
  3 30  1  0
  3 31  1  0
  5 32  1  0
  6 33  1  0
  8 34  1  1
  9 35  1  0
  9 36  1  0
 11 37  1  0
 12 38  1  0
 13 39  1  0
 14 40  1  0
 17 41  1  0
 18 42  1  0
 19 43  1  0
 23 44  1  0
 24 45  1  0
M  CHG  1   3   1
M  END
>  <UniqueID>  (24) 
18

>  <SMILES>  (24) 
CC[NH2+]c1ccc([C@H]2Cc3ccccc3-n3cccc3C2=O)cc1

>  <Energy>  (24) 
84.72690227177942

>  <Genealogy>  (24) 
CC[NH2+]c1ccc(C2Cc3ccccc3-n3cccc3C2=O)cc1 (protonated)
CC[NH2+]c1ccc([C@H]2Cc3ccccc3-n3cccc3C2=O)cc1 (chirality)
CC[NH2+]c1ccc([C@H]2Cc3ccccc3-n3cccc3C2=O)cc1 (3D coordinates assigned)
CC[NH2+]c1ccc([C@H]2Cc3ccccc3-n3cccc3C2=O)cc1 (nonaromatic ring conformer: 84.72690227177942 kcal/mol)

>  <smiles>  (24) 
CCNc1ccc(C2Cc3ccccc3-n3cccc3C2=O)cc1

>  <score_type>  (24) 
oracle

>  <origin>  (24) 
adg

>  <m_score__min__energy>  (24) 
-5.1600000000000001

>  <m_primary>  (24) 
energy

$$$$
24:0
     RDKit          3D

 26 27  0  0  0  0  0  0  0  0999 V2000
   57.3790   31.5890   42.3360 C   0  0  0  0  0  0  0  0  0  0  0  0
   57.4460   31.3830   43.7860 N   0  0  0  0  0  0  0  0  0  0  0  0
   56.8240   30.2150   44.3470 C   0  0  0  0  0  0  0  0  0  0  0  0
   55.5720   30.1880   44.4950 O   0  0  0  0  0  0  0  0  0  0  0  0
   57.6280   29.0600   44.7810 C   0  0  0  0  0  0  0  0  0  0  0  0
   59.0040   28.9150   44.6460 C   0  0  0  0  0  0  0  0  0  0  0  0
   59.4900   27.7200   45.1900 C   0  0  0  0  0  0  0  0  0  0  0  0
   58.5040   26.9250   45.7590 C   0  0  0  0  0  0  0  0  0  0  0  0
   57.0290   27.7110   45.5890 S   0  0  0  0  0  0  0  0  0  0  0  0
   57.9210   32.4330   44.6620 C   0  0  0  0  0  0  0  0  0  0  0  0
   58.5240   33.5860   44.1220 C   0  0  0  0  0  0  0  0  0  0  0  0
   58.9800   34.6090   44.9590 C   0  0  0  0  0  0  0  0  0  0  0  0
   58.8370   34.4970   46.3440 C   0  0  0  0  0  0  0  0  0  0  0  0
   59.2800   35.4900   47.1540 F   0  0  0  0  0  0  0  0  0  0  0  0
   58.2380   33.3610   46.8930 C   0  0  0  0  0  0  0  0  0  0  0  0
   57.7800   32.3350   46.0620 C   0  0  0  0  0  0  0  0  0  0  0  0
   57.0450   32.6159   42.1266 H   0  0  0  0  0  0  0  0  0  0  0  0
   58.3750   31.4306   41.8967 H   0  0  0  0  0  0  0  0  0  0  0  0
   56.6668   30.8750   41.8967 H   0  0  0  0  0  0  0  0  0  0  0  0
   59.6466   29.6642   44.1604 H   0  0  0  0  0  0  0  0  0  0  0  0
   60.5529   27.4375   45.1687 H   0  0  0  0  0  0  0  0  0  0  0  0
   58.6617   25.9478   46.2389 H   0  0  0  0  0  0  0  0  0  0  0  0
   58.6371   33.6824   43.0321 H   0  0  0  0  0  0  0  0  0  0  0  0
   59.4520   35.5033   44.5262 H   0  0  0  0  0  0  0  0  0  0  0  0
   58.1263   33.2735   47.9838 H   0  0  0  0  0  0  0  0  0  0  0  0
   57.3065   31.4452   46.5026 H   0  0  0  0  0  0  0  0  0  0  0  0
  1  2  1  0
  2  3  1  0
  3  4  2  0
  3  5  1  0
  5  6  2  0
  6  7  1  0
  7  8  2  0
  8  9  1  0
  2 10  1  0
 10 11  2  0
 11 12  1  0
 12 13  2  0
 13 14  1  0
 13 15  1  0
 15 16  2  0
  9  5  1  0
 16 10  1  0
  1 17  1  0
  1 18  1  0
  1 19  1  0
  6 20  1  0
  7 21  1  0
  8 22  1  0
 11 23  1  0
 12 24  1  0
 15 25  1  0
 16 26  1  0
M  END
>  <UniqueID>  (25) 
19

>  <SMILES>  (25) 
CN(C(=O)c1cccs1)c1ccc(F)cc1

>  <Energy>  (25) 
60.20187124189948

>  <Genealogy>  (25) 
CN(C(=O)c1cccs1)c1ccc(F)cc1 (3D coordinates assigned)
CN(C(=O)c1cccs1)c1ccc(F)cc1 (optimized conformer: 60.20187124189948 kcal/mol)

>  <smiles>  (25) 
CN(C(=O)c1cccs1)c1ccc(F)cc1

>  <score_type>  (25) 
oracle

>  <origin>  (25) 
adg

>  <m_score__min__energy>  (25) 
-6.3200000000000003

>  <m_primary>  (25) 
energy

$$$$
25:0
     RDKit          3D

 45 47  0  0  0  0  0  0  0  0999 V2000
   63.4020   33.7650   47.4930 C   0  0  0  0  0  0  0  0  0  0  0  0
   62.3420   33.7470   48.6020 C   0  0  0  0  0  0  0  0  0  0  0  0
   61.1820   32.8860   48.2690 N   0  0  2  0  0  0  0  0  0  0  0  0
   61.4870   31.9800   47.1330 C   0  0  0  0  0  0  0  0  0  0  0  0
   60.8320   30.6260   47.2870 C   0  0  0  0  0  0  0  0  0  0  0  0
   60.7920   29.7330   46.2030 C   0  0  0  0  0  0  0  0  0  0  0  0
   60.1550   28.4950   46.3340 C   0  0  0  0  0  0  0  0  0  0  0  0
   59.5590   28.1390   47.5460 C   0  0  0  0  0  0  0  0  0  0  0  0
   59.6060   29.0150   48.6330 C   0  0  0  0  0  0  0  0  0  0  0  0
   60.2430   30.2530   48.5070 C   0  0  0  0  0  0  0  0  0  0  0  0
   60.0450   33.7400   47.9640 C   0  0  0  0  0  0  0  0  0  0  0  0
   60.1590   34.9590   48.0040 O   0  0  0  0  0  0  0  0  0  0  0  0
   58.7000   33.1420   47.6500 C   0  0  0  0  0  0  0  0  0  0  0  0
   58.4590   33.1110   46.1740 C   0  0  0  0  0  0  0  0  0  0  0  0
   58.5680   34.1760   45.2860 C   0  0  0  0  0  0  0  0  0  0  0  0
   58.2620   33.7780   44.0640 O   0  0  0  0  0  0  0  0  0  0  0  0
   57.9530   32.5040   44.1220 C   0  0  0  0  0  0  0  0  0  0  0  0
   57.5570   31.6740   43.0760 C   0  0  0  0  0  0  0  0  0  0  0  0
   57.4110   32.3360   41.2910 Br  0  0  0  0  0  0  0  0  0  0  0  0
   57.2490   30.3350   43.3780 C   0  0  0  0  0  0  0  0  0  0  0  0
   57.3320   29.8570   44.7120 C   0  0  0  0  0  0  0  0  0  0  0  0
   57.0200   28.4240   45.0170 C   0  0  0  0  0  0  0  0  0  0  0  0
   57.7580   30.7220   45.7430 C   0  0  0  0  0  0  0  0  0  0  0  0
   58.0540   32.0410   45.4070 C   0  0  0  0  0  0  0  0  0  0  0  0
   64.4049   33.7820   47.9446 H   0  0  0  0  0  0  0  0  0  0  0  0
   63.2958   32.8649   46.8696 H   0  0  0  0  0  0  0  0  0  0  0  0
   63.2653   34.6610   46.8696 H   0  0  0  0  0  0  0  0  0  0  0  0
   62.8055   33.3714   49.5262 H   0  0  0  0  0  0  0  0  0  0  0  0
   61.9696   34.7749   48.7232 H   0  0  0  0  0  0  0  0  0  0  0  0
   60.9480   32.3050   49.1090 H   0  0  0  0  0  0  0  0  0  0  0  0
   61.1256   32.4441   46.2035 H   0  0  0  0  0  0  0  0  0  0  0  0
   62.5759   31.8262   47.1082 H   0  0  0  0  0  0  0  0  0  0  0  0
   61.2633   30.0086   45.2481 H   0  0  0  0  0  0  0  0  0  0  0  0
   60.1233   27.8007   45.4814 H   0  0  0  0  0  0  0  0  0  0  0  0
   59.0521   27.1678   47.6446 H   0  0  0  0  0  0  0  0  0  0  0  0
   59.1415   28.7305   49.5887 H   0  0  0  0  0  0  0  0  0  0  0  0
   60.2833   30.9381   49.3666 H   0  0  0  0  0  0  0  0  0  0  0  0
   58.6624   32.1150   48.0424 H   0  0  0  0  0  0  0  0  0  0  0  0
   57.9222   33.7623   48.1193 H   0  0  0  0  0  0  0  0  0  0  0  0
   58.8652   35.1988   45.5607 H   0  0  0  0  0  0  0  0  0  0  0  0
   56.9409   29.6519   42.5727 H   0  0  0  0  0  0  0  0  0  0  0  0
   56.9886   28.2796   46.1070 H   0  0  0  0  0  0  0  0  0  0  0  0
   56.0436   28.1611   44.5840 H   0  0  0  0  0  0  0  0  0  0  0  0
   57.7988   27.7790   44.5840 H   0  0  0  0  0  0  0  0  0  0  0  0
   57.8532   30.3656   46.7793 H   0  0  0  0  0  0  0  0  0  0  0  0
  1  2  1  0
  2  3  1  0
  3  4  1  0
  4  5  1  0
  5  6  2  0
  6  7  1  0
  7  8  2  0
  8  9  1  0
  9 10  2  0
  3 11  1  0
 11 12  2  0
 11 13  1  0
 13 14  1  0
 14 15  2  0
 15 16  1  0
 16 17  1  0
 17 18  2  0
 18 19  1  0
 18 20  1  0
 20 21  2  0
 21 22  1  0
 21 23  1  0
 23 24  2  0
 10  5  1  0
 24 14  1  0
 24 17  1  0
  1 25  1  0
  1 26  1  0
  1 27  1  0
  2 28  1  0
  2 29  1  0
  3 30  1  1
  4 31  1  0
  4 32  1  0
  6 33  1  0
  7 34  1  0
  8 35  1  0
  9 36  1  0
 10 37  1  0
 13 38  1  0
 13 39  1  0
 15 40  1  0
 20 41  1  0
 22 42  1  0
 22 43  1  0
 22 44  1  0
 23 45  1  0
M  CHG  1   3   1
M  END
>  <UniqueID>  (26) 
20

>  <SMILES>  (26) 
CC[N@H+](Cc1ccccc1)C(=O)Cc1coc2c(Br)cc(C)cc12

>  <Energy>  (26) 
72.25845393050369

>  <Genealogy>  (26) 
CC[NH+](Cc1ccccc1)C(=O)Cc1coc2c(Br)cc(C)cc12 (protonated)
CC[N@H+](Cc1ccccc1)C(=O)Cc1coc2c(Br)cc(C)cc12 (chirality)
CC[N@H+](Cc1ccccc1)C(=O)Cc1coc2c(Br)cc(C)cc12 (3D coordinates assigned)
CC[N@H+](Cc1ccccc1)C(=O)Cc1coc2c(Br)cc(C)cc12 (optimized conformer: 72.25845393050369 kcal/mol)

>  <smiles>  (26) 
CCN(Cc1ccccc1)C(=O)Cc1coc2c(Br)cc(C)cc12

>  <score_type>  (26) 
oracle

>  <origin>  (26) 
adg

>  <m_score__min__energy>  (26) 
-7.1299999999999999

>  <m_primary>  (26) 
energy

$$$$
26:0
     RDKit          3D

 44 46  0  0  0  0  0  0  0  0999 V2000
   57.7640   28.7370   44.1460 C   0  0  0  0  0  0  0  0  0  0  0  0
   56.9960   30.3400   44.0930 S   0  0  0  0  0  0  0  0  0  0  0  0
   56.6950   30.7060   42.6670 O   0  0  0  0  0  0  0  0  0  0  0  0
   55.7080   30.3070   44.8650 O   0  0  0  0  0  0  0  0  0  0  0  0
   58.0830   31.5320   44.7970 C   0  0  0  0  0  0  0  0  0  0  0  0
   58.9580   31.1680   45.8290 C   0  0  0  0  0  0  0  0  0  0  0  0
   59.8120   32.1170   46.3960 C   0  0  0  0  0  0  0  0  0  0  0  0
   59.7960   33.4470   45.9430 C   0  0  0  0  0  0  0  0  0  0  0  0
   60.7400   34.4580   46.5380 C   0  0  0  0  0  0  0  0  0  0  0  0
   61.4380   33.8820   47.7360 C   0  0  0  0  0  0  0  0  0  0  0  0
   60.7400   33.7400   49.2650 S   0  0  0  0  0  0  0  0  0  0  0  0
   62.0680   32.9430   49.9110 C   0  0  0  0  0  0  0  0  0  0  0  0
   62.1300   32.5390   51.1460 N   0  0  0  0  0  0  0  0  0  0  0  0
   61.6260   31.2610   51.6480 C   0  0  0  0  0  0  0  0  0  0  0  0
   60.7340   30.6010   50.6280 C   0  0  0  0  0  0  0  0  0  0  0  0
   59.3510   30.8570   50.6150 C   0  0  0  0  0  0  0  0  0  0  0  0
   58.5310   30.2430   49.6640 C   0  0  0  0  0  0  0  0  0  0  0  0
   59.0830   29.3770   48.7160 C   0  0  0  0  0  0  0  0  0  0  0  0
   58.2850   28.7820   47.7940 F   0  0  0  0  0  0  0  0  0  0  0  0
   60.4580   29.1260   48.7160 C   0  0  0  0  0  0  0  0  0  0  0  0
   61.2810   29.7380   49.6650 C   0  0  0  0  0  0  0  0  0  0  0  0
   63.0450   32.7680   48.9900 N   0  0  0  0  0  0  0  0  0  0  0  0
   62.7010   33.2790   47.7780 C   0  0  0  0  0  0  0  0  0  0  0  0
   63.5800   33.1930   46.6530 N   0  0  0  0  0  0  0  0  0  0  0  0
   58.9120   33.8110   44.9150 C   0  0  0  0  0  0  0  0  0  0  0  0
   58.0590   32.8590   44.3490 C   0  0  0  0  0  0  0  0  0  0  0  0
   57.9090   28.4344   45.1936 H   0  0  0  0  0  0  0  0  0  0  0  0
   57.1191   28.0045   43.6386 H   0  0  0  0  0  0  0  0  0  0  0  0
   58.7390   28.7806   43.6386 H   0  0  0  0  0  0  0  0  0  0  0  0
   58.9725   30.1305   46.1943 H   0  0  0  0  0  0  0  0  0  0  0  0
   60.5006   31.8215   47.2013 H   0  0  0  0  0  0  0  0  0  0  0  0
   61.4890   34.7419   45.7841 H   0  0  0  0  0  0  0  0  0  0  0  0
   60.1647   35.3416   46.8513 H   0  0  0  0  0  0  0  0  0  0  0  0
   62.4764   30.5984   51.8663 H   0  0  0  0  0  0  0  0  0  0  0  0
   61.0414   31.4461   52.5612 H   0  0  0  0  0  0  0  0  0  0  0  0
   58.9133   31.5426   51.3556 H   0  0  0  0  0  0  0  0  0  0  0  0
   57.4491   30.4418   49.6617 H   0  0  0  0  0  0  0  0  0  0  0  0
   60.8926   28.4462   47.9684 H   0  0  0  0  0  0  0  0  0  0  0  0
   62.3635   29.5426   49.6576 H   0  0  0  0  0  0  0  0  0  0  0  0
   63.9610   32.3010   49.1690 H   0  0  0  0  0  0  0  0  0  0  0  0
   64.5070   32.7240   46.7520 H   0  0  0  0  0  0  0  0  0  0  0  0
   63.3290   33.6050   45.7300 H   0  0  0  0  0  0  0  0  0  0  0  0
   58.8904   34.8496   44.5534 H   0  0  0  0  0  0  0  0  0  0  0  0
   57.3654   33.1535   43.5477 H   0  0  0  0  0  0  0  0  0  0  0  0
  1  2  1  0
  2  3  2  0
  2  4  2  0
  2  5  1  0
  5  6  2  0
  6  7  1  0
  7  8  2  0
  8  9  1  0
  9 10  1  0
 10 11  1  0
 11 12  1  0
 12 13  2  3
 13 14  1  0
 14 15  1  0
 15 16  2  0
 16 17  1  0
 17 18  2  0
 18 19  1  0
 18 20  1  0
 20 21  2  0
 12 22  1  0
 22 23  1  0
 23 24  1  0
  8 25  1  0
 25 26  2  0
 26  5  1  0
 23 10  2  0
 21 15  1  0
  1 27  1  0
  1 28  1  0
  1 29  1  0
  6 30  1  0
  7 31  1  0
  9 32  1  0
  9 33  1  0
 14 34  1  0
 14 35  1  0
 16 36  1  0
 17 37  1  0
 20 38  1  0
 21 39  1  0
 22 40  1  0
 24 41  1  0
 24 42  1  0
 25 43  1  0
 26 44  1  0
M  END
>  <UniqueID>  (27) 
21

>  <SMILES>  (27) 
CS(=O)(=O)c1ccc(Cc2sc(=NCc3ccc(F)cc3)[nH]c2N)cc1

>  <Energy>  (27) 
70.5519585321539

>  <Genealogy>  (27) 
CS(=O)(=O)c1ccc(Cc2sc(=NCc3ccc(F)cc3)[nH]c2N)cc1 (3D coordinates assigned)
CS(=O)(=O)c1ccc(Cc2sc(=NCc3ccc(F)cc3)[nH]c2N)cc1 (optimized conformer: 70.5519585321539 kcal/mol)

>  <smiles>  (27) 
CS(=O)(=O)c1ccc(Cc2sc(=NCc3ccc(F)cc3)[nH]c2N)cc1

>  <score_type>  (27) 
oracle

>  <origin>  (27) 
adg

>  <m_score__min__energy>  (27) 
-8.8300000000000001

>  <m_primary>  (27) 
energy

$$$$
27:0
     RDKit          3D

 35 36  0  0  0  0  0  0  0  0999 V2000
   58.1310   22.6830   45.4510 C   0  0  0  0  0  0  0  0  0  0  0  0
   57.9610   23.6870   46.4470 O   0  0  0  0  0  0  0  0  0  0  0  0
   57.9130   25.0650   46.1850 C   0  0  0  0  0  0  0  0  0  0  0  0
   59.0720   25.8160   45.9160 C   0  0  0  0  0  0  0  0  0  0  0  0
   58.9840   27.1860   45.6650 C   0  0  0  0  0  0  0  0  0  0  0  0
   57.7440   27.8360   45.6900 C   0  0  0  0  0  0  0  0  0  0  0  0
   57.6830   29.2440   45.4070 N   0  0  0  0  0  0  0  0  0  0  0  0
   56.5240   29.9110   44.8850 C   0  0  0  0  0  0  0  0  0  0  0  0
   55.4030   29.3340   44.8800 O   0  0  0  0  0  0  0  0  0  0  0  0
   56.6400   31.2740   44.4580 N   0  0  0  0  0  0  0  0  0  0  0  0
   57.4150   32.3030   45.0910 C   0  0  0  0  0  0  0  0  0  0  0  0
   57.7650   33.4370   44.3440 C   0  0  0  0  0  0  0  0  0  0  0  0
   58.5020   34.4710   44.9300 C   0  0  0  0  0  0  0  0  0  0  0  0
   58.8820   34.3850   46.2720 C   0  0  0  0  0  0  0  0  0  0  0  0
   59.5950   35.3900   46.8400 F   0  0  0  0  0  0  0  0  0  0  0  0
   58.5170   33.2710   47.0310 C   0  0  0  0  0  0  0  0  0  0  0  0
   57.7810   32.2340   46.4490 C   0  0  0  0  0  0  0  0  0  0  0  0
   56.5820   27.0850   45.9330 C   0  0  0  0  0  0  0  0  0  0  0  0
   56.6610   25.7010   46.1890 C   0  0  0  0  0  0  0  0  0  0  0  0
   55.5210   24.9240   46.4460 O   0  0  0  0  0  0  0  0  0  0  0  0
   54.8400   24.1390   45.4710 C   0  0  0  0  0  0  0  0  0  0  0  0
   58.2958   21.7096   45.9360 H   0  0  0  0  0  0  0  0  0  0  0  0
   57.2287   22.6321   44.8239 H   0  0  0  0  0  0  0  0  0  0  0  0
   58.9998   22.9320   44.8239 H   0  0  0  0  0  0  0  0  0  0  0  0
   60.0538   25.3201   45.9035 H   0  0  0  0  0  0  0  0  0  0  0  0
   59.8964   27.7600   45.4457 H   0  0  0  0  0  0  0  0  0  0  0  0
   58.5020   29.8380   45.6670 H   0  0  0  0  0  0  0  0  0  0  0  0
   57.4579   33.5137   43.2905 H   0  0  0  0  0  0  0  0  0  0  0  0
   58.7826   35.3522   44.3344 H   0  0  0  0  0  0  0  0  0  0  0  0
   58.8092   33.2090   48.0897 H   0  0  0  0  0  0  0  0  0  0  0  0
   57.4875   31.3629   47.0531 H   0  0  0  0  0  0  0  0  0  0  0  0
   55.6006   27.5818   45.9234 H   0  0  0  0  0  0  0  0  0  0  0  0
   54.1998   23.4010   45.9765 H   0  0  0  0  0  0  0  0  0  0  0  0
   54.2188   24.7936   44.8420 H   0  0  0  0  0  0  0  0  0  0  0  0
   55.5757   23.6165   44.8420 H   0  0  0  0  0  0  0  0  0  0  0  0
  1  2  1  0
  2  3  1  0
  3  4  2  0
  4  5  1  0
  5  6  2  0
  6  7  1  0
  7  8  1  0
  8  9  2  0
  8 10  1  0
 10 11  1  0
 11 12  2  0
 12 13  1  0
 13 14  2  0
 14 15  1  0
 14 16  1  0
 16 17  2  0
  6 18  1  0
 18 19  2  0
 19 20  1  0
 20 21  1  0
 19  3  1  0
 17 11  1  0
  1 22  1  0
  1 23  1  0
  1 24  1  0
  4 25  1  0
  5 26  1  0
  7 27  1  0
 12 28  1  0
 13 29  1  0
 16 30  1  0
 17 31  1  0
 18 32  1  0
 21 33  1  0
 21 34  1  0
 21 35  1  0
M  CHG  1  10  -1
M  END
>  <UniqueID>  (28) 
22

>  <SMILES>  (28) 
COc1ccc(NC(=O)[N-]c2ccc(F)cc2)cc1OC

>  <Energy>  (28) 
40.94874826363223

>  <Genealogy>  (28) 
COc1ccc(NC(=O)[N-]c2ccc(F)cc2)cc1OC (protonated)
COc1ccc(NC(=O)[N-]c2ccc(F)cc2)cc1OC (3D coordinates assigned)
COc1ccc(NC(=O)[N-]c2ccc(F)cc2)cc1OC (optimized conformer: 40.94874826363223 kcal/mol)

>  <smiles>  (28) 
COc1ccc(NC(=O)Nc2ccc(F)cc2)cc1OC

>  <score_type>  (28) 
oracle

>  <origin>  (28) 
adg

>  <m_score__min__energy>  (28) 
-8.3499999999999996

>  <m_primary>  (28) 
energy

$$$$
28:0
     RDKit          3D

 53 56  0  0  0  0  0  0  0  0999 V2000
   56.5710   28.1450   55.0030 O   0  0  0  0  0  0  0  0  0  0  0  0
   55.9030   29.4250   54.5780 S   0  0  0  0  0  0  0  0  0  0  0  0
   55.7710   30.3170   55.7870 O   0  0  0  0  0  0  0  0  0  0  0  0
   54.3120   29.0580   53.9850 N   0  0  0  0  0  0  0  0  0  0  0  0
   53.4540   29.9840   53.3070 C   0  0  0  0  0  0  0  0  0  0  0  0
   52.3170   30.5380   53.9280 C   0  0  0  0  0  0  0  0  0  0  0  0
   51.5130   31.4510   53.2380 C   0  0  0  0  0  0  0  0  0  0  0  0
   51.8300   31.8070   51.9200 C   0  0  0  0  0  0  0  0  0  0  0  0
   51.0190   32.7030   51.2390 O   0  0  0  0  0  0  0  0  0  0  0  0
   52.9610   31.2630   51.3000 C   0  0  0  0  0  0  0  0  0  0  0  0
   53.7790   30.3660   51.9930 C   0  0  0  0  0  0  0  0  0  0  0  0
   56.9030   30.1950   53.3460 C   0  0  0  0  0  0  0  0  0  0  0  0
   57.4100   29.4520   52.2800 C   0  0  0  0  0  0  0  0  0  0  0  0
   58.1990   30.0630   51.3010 C   0  0  0  0  0  0  0  0  0  0  0  0
   58.5000   31.4450   51.3580 C   0  0  0  0  0  0  0  0  0  0  0  0
   59.2980   32.0890   50.3130 N   0  0  0  0  0  0  0  0  0  0  0  0
   59.8930   31.2400   49.2540 C   0  0  0  0  0  0  0  0  0  0  0  0
   60.8840   31.9710   48.3590 C   0  0  0  0  0  0  0  0  0  0  0  0
   60.3350   33.2730   48.0320 N   0  0  0  0  0  0  0  0  0  0  0  0
   59.6330   33.4880   46.7950 C   0  0  0  0  0  0  0  0  0  0  0  0
   59.6190   34.7630   46.2140 C   0  0  0  0  0  0  0  0  0  0  0  0
   58.9470   34.9790   45.0090 C   0  0  0  0  0  0  0  0  0  0  0  0
   58.2950   33.9210   44.3680 C   0  0  0  0  0  0  0  0  0  0  0  0
   58.3200   32.6290   44.9260 C   0  0  0  0  0  0  0  0  0  0  0  0
   57.6180   31.4710   44.2600 C   0  0  0  0  0  0  0  0  0  0  0  0
   57.6820   31.5670   42.8750 F   0  0  0  0  0  0  0  0  0  0  0  0
   56.2850   31.4560   44.6490 F   0  0  0  0  0  0  0  0  0  0  0  0
   58.2140   30.2810   44.6460 F   0  0  0  0  0  0  0  0  0  0  0  0
   58.9760   32.4260   46.1520 C   0  0  0  0  0  0  0  0  0  0  0  0
   60.2030   34.1900   49.1530 C   0  0  0  0  0  0  0  0  0  0  0  0
   59.3570   33.5720   50.2800 C   0  0  0  0  0  0  0  0  0  0  0  0
   57.9940   32.1780   52.4590 C   0  0  0  0  0  0  0  0  0  0  0  0
   57.2010   31.5620   53.4360 C   0  0  0  0  0  0  0  0  0  0  0  0
   52.0609   30.2515   54.9587 H   0  0  0  0  0  0  0  0  0  0  0  0
   50.6321   31.8896   53.7296 H   0  0  0  0  0  0  0  0  0  0  0  0
   53.2067   31.5421   50.2648 H   0  0  0  0  0  0  0  0  0  0  0  0
   54.6789   29.9580   51.5096 H   0  0  0  0  0  0  0  0  0  0  0  0
   57.1873   28.3771   52.2091 H   0  0  0  0  0  0  0  0  0  0  0  0
   58.5933   29.4585   50.4708 H   0  0  0  0  0  0  0  0  0  0  0  0
   60.4159   30.4010   49.7363 H   0  0  0  0  0  0  0  0  0  0  0  0
   59.0657   30.9087   48.6091 H   0  0  0  0  0  0  0  0  0  0  0  0
   61.8408   32.0939   48.8876 H   0  0  0  0  0  0  0  0  0  0  0  0
   61.0582   31.3935   47.4391 H   0  0  0  0  0  0  0  0  0  0  0  0
   60.1391   35.5966   46.7087 H   0  0  0  0  0  0  0  0  0  0  0  0
   58.9305   35.9843   44.5628 H   0  0  0  0  0  0  0  0  0  0  0  0
   57.7602   34.0992   43.4234 H   0  0  0  0  0  0  0  0  0  0  0  0
   58.9750   31.4268   46.6121 H   0  0  0  0  0  0  0  0  0  0  0  0
   61.2039   34.4258   49.5436 H   0  0  0  0  0  0  0  0  0  0  0  0
   59.7000   35.1023   48.7997 H   0  0  0  0  0  0  0  0  0  0  0  0
   59.7737   33.9134   51.2391 H   0  0  0  0  0  0  0  0  0  0  0  0
   58.3256   33.9050   50.0923 H   0  0  0  0  0  0  0  0  0  0  0  0
   58.2275   33.2492   52.5486 H   0  0  0  0  0  0  0  0  0  0  0  0
   56.8105   32.1534   54.2773 H   0  0  0  0  0  0  0  0  0  0  0  0
  1  2  2  0
  2  3  2  0
  2  4  1  0
  4  5  1  0
  5  6  2  0
  6  7  1  0
  7  8  2  0
  8  9  1  0
  8 10  1  0
 10 11  2  0
  2 12  1  0
 12 13  2  0
 13 14  1  0
 14 15  2  0
 15 16  1  0
 16 17  1  0
 17 18  1  0
 18 19  1  0
 19 20  1  0
 20 21  2  0
 21 22  1  0
 22 23  2  0
 23 24  1  0
 24 25  1  0
 25 26  1  0
 25 27  1  0
 25 28  1  0
 24 29  2  0
 19 30  1  0
 30 31  1  0
 15 32  1  0
 32 33  2  0
 11  5  1  0
 33 12  1  0
 31 16  1  0
 29 20  1  0
  6 34  1  0
  7 35  1  0
 10 36  1  0
 11 37  1  0
 13 38  1  0
 14 39  1  0
 17 40  1  0
 17 41  1  0
 18 42  1  0
 18 43  1  0
 21 44  1  0
 22 45  1  0
 23 46  1  0
 29 47  1  0
 30 48  1  0
 30 49  1  0
 31 50  1  0
 31 51  1  0
 32 52  1  0
 33 53  1  0
M  CHG  2   4  -1   9  -1
M  END
>  <UniqueID>  (29) 
23

>  <SMILES>  (29) 
O=S(=O)([N-]c1ccc([O-])cc1)c1ccc(N2CCN(c3cccc(C(F)(F)F)c3)CC2)cc1

>  <Energy>  (29) 
76.50213258843368

>  <Genealogy>  (29) 
O=S(=O)([N-]c1ccc([O-])cc1)c1ccc(N2CCN(c3cccc(C(F)(F)F)c3)CC2)cc1 (protonated)
O=S(=O)([N-]c1ccc([O-])cc1)c1ccc(N2CCN(c3cccc(C(F)(F)F)c3)CC2)cc1 (3D coordinates assigned)
O=S(=O)([N-]c1ccc([O-])cc1)c1ccc(N2CCN(c3cccc(C(F)(F)F)c3)CC2)cc1 (nonaromatic ring conformer: 76.50213258843368 kcal/mol)

>  <smiles>  (29) 
O=S(=O)(Nc1ccc(O)cc1)c1ccc(N2CCN(c3cccc(C(F)(F)F)c3)CC2)cc1

>  <score_type>  (29) 
oracle

>  <origin>  (29) 
adg

>  <m_score__min__energy>  (29) 
-13.69

>  <m_primary>  (29) 
energy

$$$$
29:0
     RDKit          3D

 39 41  0  0  0  0  0  0  0  0999 V2000
   65.0520   33.0980   49.6380 C   0  0  0  0  0  0  0  0  0  0  0  0
   63.7690   33.1870   48.8650 C   0  0  0  0  0  0  0  0  0  0  0  0
   62.5450   32.9330   49.4970 C   0  0  0  0  0  0  0  0  0  0  0  0
   61.3520   32.9780   48.7690 C   0  0  0  0  0  0  0  0  0  0  0  0
   61.3650   33.2670   47.3930 C   0  0  0  0  0  0  0  0  0  0  0  0
   60.0980   33.3180   46.6190 C   0  0  0  0  0  0  0  0  0  0  0  0
   59.3980   34.5290   46.4720 C   0  0  0  0  0  0  0  0  0  0  0  0
   58.2060   34.5740   45.7450 C   0  0  0  0  0  0  0  0  0  0  0  0
   57.6980   33.4140   45.1570 C   0  0  0  0  0  0  0  0  0  0  0  0
   58.3810   32.1980   45.2910 C   0  0  0  0  0  0  0  0  0  0  0  0
   57.8620   31.0050   44.6800 N   0  0  0  0  0  0  0  0  0  0  0  0
   57.7240   29.7930   45.2620 C   0  0  0  0  0  0  0  0  0  0  0  0
   58.0820   29.4730   46.6810 C   0  0  0  0  0  0  0  0  0  0  0  0
   57.1860   28.8910   44.3630 C   0  0  0  0  0  0  0  0  0  0  0  0
   57.0020   29.5770   43.1790 C   0  0  0  0  0  0  0  0  0  0  0  0
   57.4180   30.8750   43.4080 C   0  0  0  0  0  0  0  0  0  0  0  0
   57.3990   31.9700   42.3850 C   0  0  0  0  0  0  0  0  0  0  0  0
   59.5790   32.1540   46.0230 C   0  0  0  0  0  0  0  0  0  0  0  0
   62.5990   33.5040   46.7610 C   0  0  0  0  0  0  0  0  0  0  0  0
   63.7910   33.4570   47.4890 C   0  0  0  0  0  0  0  0  0  0  0  0
   64.8325   33.1132   50.7158 H   0  0  0  0  0  0  0  0  0  0  0  0
   65.5699   32.1618   49.3824 H   0  0  0  0  0  0  0  0  0  0  0  0
   65.6942   33.9538   49.3824 H   0  0  0  0  0  0  0  0  0  0  0  0
   62.5222   32.6970   50.5711 H   0  0  0  0  0  0  0  0  0  0  0  0
   60.3954   32.7857   49.2770 H   0  0  0  0  0  0  0  0  0  0  0  0
   59.7918   35.4470   46.9327 H   0  0  0  0  0  0  0  0  0  0  0  0
   57.6660   35.5261   45.6355 H   0  0  0  0  0  0  0  0  0  0  0  0
   56.7583   33.4549   44.5866 H   0  0  0  0  0  0  0  0  0  0  0  0
   57.4372   30.0494   47.3607 H   0  0  0  0  0  0  0  0  0  0  0  0
   57.9373   28.3977   46.8621 H   0  0  0  0  0  0  0  0  0  0  0  0
   59.1344   29.7370   46.8621 H   0  0  0  0  0  0  0  0  0  0  0  0
   56.9506   27.8335   44.5537 H   0  0  0  0  0  0  0  0  0  0  0  0
   56.6027   29.1703   42.2382 H   0  0  0  0  0  0  0  0  0  0  0  0
   57.3821   32.9457   42.8926 H   0  0  0  0  0  0  0  0  0  0  0  0
   58.2985   31.8996   41.7558 H   0  0  0  0  0  0  0  0  0  0  0  0
   56.5025   31.8684   41.7558 H   0  0  0  0  0  0  0  0  0  0  0  0
   60.1165   31.2004   46.1313 H   0  0  0  0  0  0  0  0  0  0  0  0
   62.6261   33.7283   45.6844 H   0  0  0  0  0  0  0  0  0  0  0  0
   64.7505   33.6325   46.9806 H   0  0  0  0  0  0  0  0  0  0  0  0
  1  2  1  0
  2  3  2  0
  3  4  1  0
  4  5  2  0
  5  6  1  0
  6  7  2  0
  7  8  1  0
  8  9  2  0
  9 10  1  0
 10 11  1  0
 11 12  1  0
 12 13  1  0
 12 14  2  0
 14 15  1  0
 15 16  2  0
 16 17  1  0
 10 18  2  0
  5 19  1  0
 19 20  2  0
 20  2  1  0
 18  6  1  0
 16 11  1  0
  1 21  1  0
  1 22  1  0
  1 23  1  0
  3 24  1  0
  4 25  1  0
  7 26  1  0
  8 27  1  0
  9 28  1  0
 13 29  1  0
 13 30  1  0
 13 31  1  0
 14 32  1  0
 15 33  1  0
 17 34  1  0
 17 35  1  0
 17 36  1  0
 18 37  1  0
 19 38  1  0
 20 39  1  0
M  END
>  <UniqueID>  (30) 
24

>  <SMILES>  (30) 
Cc1ccc(-c2cccc(-n3c(C)ccc3C)c2)cc1

>  <Energy>  (30) 
75.59975400481915

>  <Genealogy>  (30) 
Cc1ccc(-c2cccc(-n3c(C)ccc3C)c2)cc1 (3D coordinates assigned)
Cc1ccc(-c2cccc(-n3c(C)ccc3C)c2)cc1 (optimized conformer: 75.59975400481915 kcal/mol)

>  <smiles>  (30) 
Cc1ccc(-c2cccc(-n3c(C)ccc3C)c2)cc1

>  <score_type>  (30) 
oracle

>  <origin>  (30) 
adg

>  <m_score__min__energy>  (30) 
-7.8700000000000001

>  <m_primary>  (30) 
energy

$$$$
30:0
     RDKit          3D

 42 44  0  0  0  0  0  0  0  0999 V2000
   60.8540   33.8470   46.2300 C   0  0  0  0  0  0  0  0  0  0  0  0
   59.4240   34.5210   45.3320 S   0  0  0  0  0  0  0  0  0  0  0  0
   58.5750   32.9390   45.2620 C   0  0  0  0  0  0  0  0  0  0  0  0
   58.2120   32.1080   46.3220 C   0  0  0  0  0  0  0  0  0  0  0  0
   58.5100   32.3210   47.7440 C   0  0  0  0  0  0  0  0  0  0  0  0
   58.4260   33.4860   48.2140 O   0  0  0  0  0  0  0  0  0  0  0  0
   58.8590   31.2440   48.6190 N   0  0  0  0  0  0  0  0  0  0  0  0
   60.2280   30.8210   48.8960 C   0  0  0  0  0  0  0  0  0  0  0  0
   60.7760   29.9660   47.7340 C   0  0  0  0  0  0  0  0  0  0  0  0
   59.7490   29.3150   46.8780 N   0  0  0  0  0  0  0  0  0  0  0  0
   59.2950   28.0070   47.3920 C   0  0  0  0  0  0  0  0  0  0  0  0
   58.1290   27.4630   46.5320 C   0  0  0  0  0  0  0  0  0  0  0  0
   57.9970   28.1350   45.2900 O   0  0  0  0  0  0  0  0  0  0  0  0
   59.2600   28.2540   44.6680 C   0  0  0  0  0  0  0  0  0  0  0  0
   60.1670   29.2190   45.4580 C   0  0  0  0  0  0  0  0  0  0  0  0
   57.4990   31.0890   45.8780 O   0  0  0  0  0  0  0  0  0  0  0  0
   57.3950   31.2140   44.5760 C   0  0  0  0  0  0  0  0  0  0  0  0
   56.7260   30.3700   43.6910 C   0  0  0  0  0  0  0  0  0  0  0  0
   56.7300   30.7150   42.3260 C   0  0  0  0  0  0  0  0  0  0  0  0
   57.3910   31.8820   41.8840 C   0  0  0  0  0  0  0  0  0  0  0  0
   58.0580   32.7150   42.8000 C   0  0  0  0  0  0  0  0  0  0  0  0
   58.0420   32.3410   44.1430 C   0  0  0  0  0  0  0  0  0  0  0  0
   60.6790   33.9295   47.3129 H   0  0  0  0  0  0  0  0  0  0  0  0
   60.9911   32.7895   45.9602 H   0  0  0  0  0  0  0  0  0  0  0  0
   61.7570   34.4143   45.9602 H   0  0  0  0  0  0  0  0  0  0  0  0
   60.8631   31.7103   49.0217 H   0  0  0  0  0  0  0  0  0  0  0  0
   60.2342   30.2170   49.8153 H   0  0  0  0  0  0  0  0  0  0  0  0
   61.3878   30.6178   47.0930 H   0  0  0  0  0  0  0  0  0  0  0  0
   61.3417   29.1471   48.2025 H   0  0  0  0  0  0  0  0  0  0  0  0
   58.9180   29.9550   46.9040 H   0  0  0  0  0  0  0  0  0  0  0  0
   60.1324   27.2945   47.3591 H   0  0  0  0  0  0  0  0  0  0  0  0
   58.9454   28.1330   48.4273 H   0  0  0  0  0  0  0  0  0  0  0  0
   58.3064   26.3952   46.3359 H   0  0  0  0  0  0  0  0  0  0  0  0
   57.1990   27.6275   47.0960 H   0  0  0  0  0  0  0  0  0  0  0  0
   59.7366   27.2635   44.6256 H   0  0  0  0  0  0  0  0  0  0  0  0
   59.1184   28.6527   43.6526 H   0  0  0  0  0  0  0  0  0  0  0  0
   61.2033   28.8527   45.4140 H   0  0  0  0  0  0  0  0  0  0  0  0
   60.0864   30.2183   45.0053 H   0  0  0  0  0  0  0  0  0  0  0  0
   56.2122   29.4649   44.0471 H   0  0  0  0  0  0  0  0  0  0  0  0
   56.2145   30.0708   41.5985 H   0  0  0  0  0  0  0  0  0  0  0  0
   57.3841   32.1415   40.8151 H   0  0  0  0  0  0  0  0  0  0  0  0
   58.5736   33.6285   42.4689 H   0  0  0  0  0  0  0  0  0  0  0  0
  1  2  1  0
  2  3  1  0
  3  4  2  0
  4  5  1  0
  5  6  2  0
  5  7  1  0
  7  8  1  0
  8  9  1  0
  9 10  1  0
 10 11  1  0
 11 12  1  0
 12 13  1  0
 13 14  1  0
 14 15  1  0
  4 16  1  0
 16 17  1  0
 17 18  2  0
 18 19  1  0
 19 20  2  0
 20 21  1  0
 21 22  2  0
 22  3  1  0
 15 10  1  0
 22 17  1  0
  1 23  1  0
  1 24  1  0
  1 25  1  0
  8 26  1  0
  8 27  1  0
  9 28  1  0
  9 29  1  0
 10 30  1  0
 11 31  1  0
 11 32  1  0
 12 33  1  0
 12 34  1  0
 14 35  1  0
 14 36  1  0
 15 37  1  0
 15 38  1  0
 18 39  1  0
 19 40  1  0
 20 41  1  0
 21 42  1  0
M  CHG  2   7  -1  10   1
M  END
>  <UniqueID>  (31) 
25

>  <SMILES>  (31) 
CSc1c(C(=O)[N-]CC[NH+]2CCOCC2)oc2ccccc12

>  <Energy>  (31) 
89.52067645241158

>  <Genealogy>  (31) 
CSc1c(C(=O)[N-]CC[NH+]2CCOCC2)oc2ccccc12 (protonated)
CSc1c(C(=O)[N-]CC[NH+]2CCOCC2)oc2ccccc12 (3D coordinates assigned)
CSc1c(C(=O)[N-]CC[NH+]2CCOCC2)oc2ccccc12 (nonaromatic ring conformer: 89.52067645241158 kcal/mol)

>  <smiles>  (31) 
CSc1c(C(=O)NCCN2CCOCC2)oc2ccccc12

>  <score_type>  (31) 
oracle

>  <origin>  (31) 
adg

>  <m_score__min__energy>  (31) 
-6.7400000000000002

>  <m_primary>  (31) 
energy

$$$$
31:0
     RDKit          3D

 34 36  0  0  0  0  0  0  0  0999 V2000
   50.6350   32.3400   51.2260 O   0  0  0  0  0  0  0  0  0  0  0  0
   51.7370   31.7130   51.7950 C   0  0  0  0  0  0  0  0  0  0  0  0
   51.6780   31.2550   53.1140 C   0  0  0  0  0  0  0  0  0  0  0  0
   52.7870   30.6240   53.6880 C   0  0  0  0  0  0  0  0  0  0  0  0
   53.9670   30.4500   52.9450 C   0  0  0  0  0  0  0  0  0  0  0  0
   55.1060   29.7900   53.5300 N   0  0  0  0  0  0  0  0  0  0  0  0
   56.1520   30.5630   54.2080 C   0  0  0  0  0  0  0  0  0  0  0  0
   57.5170   30.2080   53.6130 C   0  0  0  0  0  0  0  0  0  0  0  0
   57.6960   28.7510   53.4990 N   0  0  0  0  0  0  0  0  0  0  0  0
   58.9800   28.2320   53.0940 C   0  0  0  0  0  0  0  0  0  0  0  0
   59.6050   28.7170   51.9850 N   0  0  0  0  0  0  0  0  0  0  0  0
   60.8130   28.2370   51.5900 C   0  0  0  0  0  0  0  0  0  0  0  0
   61.4340   27.2290   52.3240 C   0  0  0  0  0  0  0  0  0  0  0  0
   60.7870   26.7390   53.4560 C   0  0  0  0  0  0  0  0  0  0  0  0
   59.5790   27.2450   53.8180 N   0  0  0  0  0  0  0  0  0  0  0  0
   56.6130   27.8440   53.9130 C   0  0  0  0  0  0  0  0  0  0  0  0
   55.2610   28.3360   53.3750 C   0  0  0  0  0  0  0  0  0  0  0  0
   54.0150   30.9080   51.6170 C   0  0  0  0  0  0  0  0  0  0  0  0
   52.9050   31.5380   51.0470 C   0  0  0  0  0  0  0  0  0  0  0  0
   50.7582   31.3908   53.7018 H   0  0  0  0  0  0  0  0  0  0  0  0
   52.7350   30.2625   54.7256 H   0  0  0  0  0  0  0  0  0  0  0  0
   55.9607   31.6375   54.0709 H   0  0  0  0  0  0  0  0  0  0  0  0
   56.1469   30.3232   55.2815 H   0  0  0  0  0  0  0  0  0  0  0  0
   57.5978   30.6570   52.6121 H   0  0  0  0  0  0  0  0  0  0  0  0
   58.2967   30.5991   54.2831 H   0  0  0  0  0  0  0  0  0  0  0  0
   61.3002   28.6439   50.6916 H   0  0  0  0  0  0  0  0  0  0  0  0
   62.4119   26.8296   52.0170 H   0  0  0  0  0  0  0  0  0  0  0  0
   61.2532   25.9436   54.0560 H   0  0  0  0  0  0  0  0  0  0  0  0
   56.8142   26.8370   53.5188 H   0  0  0  0  0  0  0  0  0  0  0  0
   56.5703   27.8207   55.0119 H   0  0  0  0  0  0  0  0  0  0  0  0
   55.1896   28.0825   52.3070 H   0  0  0  0  0  0  0  0  0  0  0  0
   54.4646   27.8445   53.9531 H   0  0  0  0  0  0  0  0  0  0  0  0
   54.9307   30.7700   51.0233 H   0  0  0  0  0  0  0  0  0  0  0  0
   52.9506   31.8967   50.0081 H   0  0  0  0  0  0  0  0  0  0  0  0
  1  2  1  0
  2  3  2  0
  3  4  1  0
  4  5  2  0
  5  6  1  0
  6  7  1  0
  7  8  1  0
  8  9  1  0
  9 10  1  0
 10 11  2  0
 11 12  1  0
 12 13  2  0
 13 14  1  0
 14 15  2  0
  9 16  1  0
 16 17  1  0
  5 18  1  0
 18 19  2  0
 19  2  1  0
 17  6  1  0
 15 10  1  0
  3 20  1  0
  4 21  1  0
  7 22  1  0
  7 23  1  0
  8 24  1  0
  8 25  1  0
 12 26  1  0
 13 27  1  0
 14 28  1  0
 16 29  1  0
 16 30  1  0
 17 31  1  0
 17 32  1  0
 18 33  1  0
 19 34  1  0
M  CHG  1   1  -1
M  END
>  <UniqueID>  (32) 
26

>  <SMILES>  (32) 
[O-]c1ccc(N2CCN(c3ncccn3)CC2)cc1

>  <Energy>  (32) 
41.82302754459114

>  <Genealogy>  (32) 
[O-]c1ccc(N2CCN(c3ncccn3)CC2)cc1 (protonated)
[O-]c1ccc(N2CCN(c3ncccn3)CC2)cc1 (3D coordinates assigned)
[O-]c1ccc(N2CCN(c3ncccn3)CC2)cc1 (nonaromatic ring conformer: 41.82302754459114 kcal/mol)

>  <smiles>  (32) 
Oc1ccc(N2CCN(c3ncccn3)CC2)cc1

>  <score_type>  (32) 
oracle

>  <origin>  (32) 
adg

>  <m_score__min__energy>  (32) 
-8.5700000000000003

>  <m_primary>  (32) 
energy

$$$$
32:0
     RDKit          3D

 32 33  0  0  0  0  0  0  0  0999 V2000
   61.5620   33.8690   48.7460 C   0  0  0  0  0  0  0  0  0  0  0  0
   60.2450   34.3690   49.3170 C   0  0  0  0  0  0  0  0  0  0  0  0
   59.4880   34.9980   48.2870 O   0  0  0  0  0  0  0  0  0  0  0  0
   59.0750   34.3630   47.1060 C   0  0  0  0  0  0  0  0  0  0  0  0
   59.6120   34.8040   45.8900 C   0  0  0  0  0  0  0  0  0  0  0  0
   59.2330   34.2020   44.6870 C   0  0  0  0  0  0  0  0  0  0  0  0
   58.3130   33.1490   44.6890 C   0  0  0  0  0  0  0  0  0  0  0  0
   57.8320   32.3720   43.1460 S   0  0  0  0  0  0  0  0  0  0  0  0
   57.4280   30.8190   43.9460 C   0  0  0  0  0  0  0  0  0  0  0  0
   56.0970   30.5080   44.2390 C   0  0  0  0  0  0  0  0  0  0  0  0
   55.7790   29.2950   44.8590 C   0  0  0  0  0  0  0  0  0  0  0  0
   56.7930   28.3790   45.1940 C   0  0  0  0  0  0  0  0  0  0  0  0
   56.4530   27.0960   45.8470 C   0  0  0  0  0  0  0  0  0  0  0  0
   57.3620   26.3360   46.2770 O   0  0  0  0  0  0  0  0  0  0  0  0
   55.1260   26.7100   45.9960 O   0  0  0  0  0  0  0  0  0  0  0  0
   58.1300   28.7040   44.8990 C   0  0  0  0  0  0  0  0  0  0  0  0
   58.4440   29.9170   44.2800 C   0  0  0  0  0  0  0  0  0  0  0  0
   57.7670   32.7040   45.8980 C   0  0  0  0  0  0  0  0  0  0  0  0
   58.1440   33.3050   47.1030 C   0  0  0  0  0  0  0  0  0  0  0  0
   62.2439   33.6101   49.5694 H   0  0  0  0  0  0  0  0  0  0  0  0
   61.3788   32.9779   48.1277 H   0  0  0  0  0  0  0  0  0  0  0  0
   62.0164   34.6572   48.1277 H   0  0  0  0  0  0  0  0  0  0  0  0
   59.6760   33.5200   49.7236 H   0  0  0  0  0  0  0  0  0  0  0  0
   60.4455   35.0945   50.1192 H   0  0  0  0  0  0  0  0  0  0  0  0
   60.3377   35.6306   45.8817 H   0  0  0  0  0  0  0  0  0  0  0  0
   59.6591   34.5571   43.7371 H   0  0  0  0  0  0  0  0  0  0  0  0
   55.2979   31.2187   43.9814 H   0  0  0  0  0  0  0  0  0  0  0  0
   54.7296   29.0558   45.0860 H   0  0  0  0  0  0  0  0  0  0  0  0
   58.9334   27.9985   45.1574 H   0  0  0  0  0  0  0  0  0  0  0  0
   59.4922   30.1631   44.0549 H   0  0  0  0  0  0  0  0  0  0  0  0
   57.0392   31.8792   45.9006 H   0  0  0  0  0  0  0  0  0  0  0  0
   57.7128   32.9511   48.0510 H   0  0  0  0  0  0  0  0  0  0  0  0
  1  2  1  0
  2  3  1  0
  3  4  1  0
  4  5  2  0
  5  6  1  0
  6  7  2  0
  7  8  1  0
  8  9  1  0
  9 10  2  0
 10 11  1  0
 11 12  2  0
 12 13  1  0
 13 14  2  0
 13 15  1  0
 12 16  1  0
 16 17  2  0
  7 18  1  0
 18 19  2  0
 19  4  1  0
 17  9  1  0
  1 20  1  0
  1 21  1  0
  1 22  1  0
  2 23  1  0
  2 24  1  0
  5 25  1  0
  6 26  1  0
 10 27  1  0
 11 28  1  0
 16 29  1  0
 17 30  1  0
 18 31  1  0
 19 32  1  0
M  CHG  1  15  -1
M  END
>  <UniqueID>  (33) 
27

>  <SMILES>  (33) 
CCOc1ccc(Sc2ccc(C(=O)[O-])cc2)cc1

>  <Energy>  (33) 
24.940042037959635

>  <Genealogy>  (33) 
CCOc1ccc(Sc2ccc(C(=O)[O-])cc2)cc1 (protonated)
CCOc1ccc(Sc2ccc(C(=O)[O-])cc2)cc1 (3D coordinates assigned)
CCOc1ccc(Sc2ccc(C(=O)[O-])cc2)cc1 (optimized conformer: 24.940042037959635 kcal/mol)

>  <smiles>  (33) 
CCOc1ccc(Sc2ccc(C(=O)O)cc2)cc1

>  <score_type>  (33) 
oracle

>  <origin>  (33) 
adg

>  <m_score__min__energy>  (33) 
-9.6199999999999992

>  <m_primary>  (33) 
energy

$$$$
33:0
     RDKit          3D

 26 27  0  0  0  0  0  0  0  0999 V2000
   54.7670   27.4340   46.3380 H   0  0  0  0  0  0  0  0  0  0  0  0
   55.4670   26.7120   46.0540 N   0  0  0  0  0  0  0  0  0  0  0  0
   56.6740   27.0310   45.7150 C   0  0  0  0  0  0  0  0  0  0  0  0
   57.7180   26.1820   45.7970 N   0  0  0  0  0  0  0  0  0  0  0  0
   58.7950   26.8450   45.3970 N   0  0  0  0  0  0  0  0  0  0  0  0
   59.7600   26.4470   45.3890 H   0  0  0  0  0  0  0  0  0  0  0  0
   58.4490   28.1040   45.0650 C   0  0  0  0  0  0  0  0  0  0  0  0
   59.3910   29.1280   44.7430 N   0  0  0  0  0  0  0  0  0  0  0  0
   59.0760   30.0460   44.3590 H   0  0  0  0  0  0  0  0  0  0  0  0
   60.4050   28.9900   44.9480 H   0  0  0  0  0  0  0  0  0  0  0  0
   57.0870   28.2540   45.2310 C   0  0  0  0  0  0  0  0  0  0  0  0
   56.2960   29.4460   45.1150 N   0  0  0  0  0  0  0  0  0  0  0  0
   56.6600   30.5200   44.5240 N   0  0  0  0  0  0  0  0  0  0  0  0
   57.3720   31.6120   45.1300 C   0  0  0  0  0  0  0  0  0  0  0  0
   58.1310   31.4380   46.2980 C   0  0  0  0  0  0  0  0  0  0  0  0
   58.1699   30.4516   46.7833 H   0  0  0  0  0  0  0  0  0  0  0  0
   58.8380   32.5120   46.8480 C   0  0  0  0  0  0  0  0  0  0  0  0
   59.4136   32.3700   47.7746 H   0  0  0  0  0  0  0  0  0  0  0  0
   58.8180   33.7730   46.2240 C   0  0  0  0  0  0  0  0  0  0  0  0
   59.5430   34.8820   46.7870 N   0  0  0  0  0  0  0  0  0  0  0  0
   59.9820   35.7930   46.0560 O   0  0  0  0  0  0  0  0  0  0  0  0
   59.7700   34.9530   48.1430 O   0  0  0  0  0  0  0  0  0  0  0  0
   58.0860   33.9300   45.0340 C   0  0  0  0  0  0  0  0  0  0  0  0
   58.0682   34.9073   44.5295 H   0  0  0  0  0  0  0  0  0  0  0  0
   57.3810   32.8550   44.4870 C   0  0  0  0  0  0  0  0  0  0  0  0
   56.8292   32.9865   43.5445 H   0  0  0  0  0  0  0  0  0  0  0  0
  1  2  1  0
  2  3  2  0
  3  4  1  0
  4  5  1  0
  5  6  1  0
  5  7  1  0
  7  8  1  0
  8  9  1  0
  8 10  1  0
  7 11  2  0
 11 12  1  0
 12 13  2  0
 13 14  1  0
 14 15  2  0
 15 16  1  0
 15 17  1  0
 17 18  1  0
 17 19  2  0
 19 20  1  0
 20 21  2  0
 20 22  1  0
 19 23  1  0
 23 24  1  0
 23 25  2  0
 25 26  1  0
 11  3  1  0
 25 14  1  0
M  CHG  3   4  -1  20   1  22  -1
M  END
>  <UniqueID>  (34) 
28

>  <SMILES>  (34) 
[H]/N=c1/[n-][nH]c(N)c1/N=N\c1ccc([N+](=O)[O-])cc1

>  <Energy>  (34) 
73.83709441290782

>  <Genealogy>  (34) 
N=c1[n-][nH]c(N)c1N=Nc1ccc([N+](=O)[O-])cc1 (protonated)
[H]/N=c1/[n-][nH]c(N)c1/N=N\c1ccc([N+](=O)[O-])cc1 (cis-trans isomerization)
[H]/N=c1/[n-][nH]c(N)c1/N=N\c1ccc([N+](=O)[O-])cc1 (3D coordinates assigned)
[H]/N=c1/[n-][nH]c(N)c1/N=N\c1ccc([N+](=O)[O-])cc1 (optimized conformer: 73.83709441290782 kcal/mol)

>  <smiles>  (34) 
N=c1[nH][nH]c(N)c1N=Nc1ccc([N+](=O)[O-])cc1

>  <score_type>  (34) 
oracle

>  <origin>  (34) 
adg

>  <m_score__min__energy>  (34) 
-8.1799999999999997

>  <m_primary>  (34) 
energy

$$$$
34:0
     RDKit          3D

 31 33  0  0  0  0  0  0  0  0999 V2000
   55.1840   30.4450   44.4320 O   0  0  0  0  0  0  0  0  0  0  0  0
   56.1810   29.7180   44.6840 C   0  0  0  0  0  0  0  0  0  0  0  0
   55.9830   28.5260   45.2410 O   0  0  0  0  0  0  0  0  0  0  0  0
   56.9790   27.6930   45.5310 C   0  0  0  0  0  0  0  0  0  0  0  0
   56.7050   26.4540   46.1200 C   0  0  0  0  0  0  0  0  0  0  0  0
   57.7500   25.5740   46.4230 C   0  0  0  0  0  0  0  0  0  0  0  0
   59.0720   25.9300   46.1370 C   0  0  0  0  0  0  0  0  0  0  0  0
   59.3560   27.1660   45.5470 C   0  0  0  0  0  0  0  0  0  0  0  0
   58.3120   28.0530   45.2440 C   0  0  0  0  0  0  0  0  0  0  0  0
   58.5560   29.2960   44.6560 C   0  0  0  0  0  0  0  0  0  0  0  0
   57.4860   30.1580   44.3830 C   0  0  0  0  0  0  0  0  0  0  0  0
   57.7470   31.4970   43.7330 C   0  0  0  0  0  0  0  0  0  0  0  0
   57.2600   32.5640   44.5480 O   0  0  0  0  0  0  0  0  0  0  0  0
   58.0370   33.3240   45.4370 C   0  0  0  0  0  0  0  0  0  0  0  0
   58.0650   33.0790   46.8250 C   0  0  0  0  0  0  0  0  0  0  0  0
   58.8630   33.8660   47.6620 C   0  0  0  0  0  0  0  0  0  0  0  0
   59.6360   34.9000   47.1270 C   0  0  0  0  0  0  0  0  0  0  0  0
   59.6110   35.1500   45.7530 C   0  0  0  0  0  0  0  0  0  0  0  0
   58.8140   34.3650   44.9130 C   0  0  0  0  0  0  0  0  0  0  0  0
   55.6662   26.1710   46.3454 H   0  0  0  0  0  0  0  0  0  0  0  0
   57.5314   24.6008   46.8868 H   0  0  0  0  0  0  0  0  0  0  0  0
   59.8909   25.2358   46.3768 H   0  0  0  0  0  0  0  0  0  0  0  0
   60.3965   27.4422   45.3209 H   0  0  0  0  0  0  0  0  0  0  0  0
   59.5845   29.5971   44.4081 H   0  0  0  0  0  0  0  0  0  0  0  0
   58.8302   31.6212   43.5869 H   0  0  0  0  0  0  0  0  0  0  0  0
   57.2226   31.5261   42.7665 H   0  0  0  0  0  0  0  0  0  0  0  0
   57.4577   32.2668   47.2510 H   0  0  0  0  0  0  0  0  0  0  0  0
   58.8821   33.6704   48.7443 H   0  0  0  0  0  0  0  0  0  0  0  0
   60.2636   35.5165   47.7874 H   0  0  0  0  0  0  0  0  0  0  0  0
   60.2183   35.9645   45.3313 H   0  0  0  0  0  0  0  0  0  0  0  0
   58.7974   34.5670   43.8318 H   0  0  0  0  0  0  0  0  0  0  0  0
  1  2  2  0
  2  3  1  0
  3  4  1  0
  4  5  2  0
  5  6  1  0
  6  7  2  0
  7  8  1  0
  8  9  2  0
  9 10  1  0
 10 11  2  0
 11 12  1  0
 12 13  1  0
 13 14  1  0
 14 15  2  0
 15 16  1  0
 16 17  2  0
 17 18  1  0
 18 19  2  0
 11  2  1  0
 19 14  1  0
  9  4  1  0
  5 20  1  0
  6 21  1  0
  7 22  1  0
  8 23  1  0
 10 24  1  0
 12 25  1  0
 12 26  1  0
 15 27  1  0
 16 28  1  0
 17 29  1  0
 18 30  1  0
 19 31  1  0
M  END
>  <UniqueID>  (35) 
29

>  <SMILES>  (35) 
O=c1oc2ccccc2cc1COc1ccccc1

>  <Energy>  (35) 
38.61992421441295

>  <Genealogy>  (35) 
O=c1oc2ccccc2cc1COc1ccccc1 (3D coordinates assigned)
O=c1oc2ccccc2cc1COc1ccccc1 (optimized conformer: 38.61992421441295 kcal/mol)

>  <smiles>  (35) 
O=c1oc2ccccc2cc1COc1ccccc1

>  <score_type>  (35) 
oracle

>  <origin>  (35) 
adg

>  <m_score__min__energy>  (35) 
-7.6600000000000001

>  <m_primary>  (35) 
energy

$$$$
35:0
     RDKit          3D

 55 57  0  0  0  0  0  0  0  0999 V2000
   60.0740   33.4000   48.1230 C   0  0  0  0  0  0  0  0  0  0  0  0
   60.8420   32.6460   47.0430 C   0  0  0  0  0  0  0  0  0  0  0  0
   60.6010   31.1650   47.1580 C   0  0  0  0  0  0  0  0  0  0  0  0
   60.6210   30.3510   46.0130 C   0  0  0  0  0  0  0  0  0  0  0  0
   60.3400   28.9860   46.1130 C   0  0  0  0  0  0  0  0  0  0  0  0
   60.0230   28.4200   47.3540 C   0  0  0  0  0  0  0  0  0  0  0  0
   59.5980   26.7100   47.4740 S   0  0  0  0  0  0  0  0  0  0  0  0
   60.4360   25.9340   46.4950 O   0  0  0  0  0  0  0  0  0  0  0  0
   59.9410   26.2180   48.8530 O   0  0  0  0  0  0  0  0  0  0  0  0
   57.8880   26.4330   47.1680 N   0  0  0  0  0  0  0  0  0  0  0  0
   57.5580   26.7190   45.7560 C   0  0  0  0  0  0  0  0  0  0  0  0
   56.1880   27.3270   45.6150 C   0  0  0  0  0  0  0  0  0  0  0  0
   55.1800   26.6720   45.9960 O   0  0  0  0  0  0  0  0  0  0  0  0
   55.9820   28.5960   44.9780 N   0  0  0  0  0  0  0  0  0  0  0  0
   56.7390   29.1170   43.8410 C   0  0  0  0  0  0  0  0  0  0  0  0
   57.2490   30.5060   44.1230 C   0  0  0  0  0  0  0  0  0  0  0  0
   57.4170   30.9500   45.4450 C   0  0  0  0  0  0  0  0  0  0  0  0
   57.8990   32.2380   45.7000 C   0  0  0  0  0  0  0  0  0  0  0  0
   58.2040   33.0950   44.6390 C   0  0  0  0  0  0  0  0  0  0  0  0
   58.8060   34.7100   44.9610 Cl  0  0  0  0  0  0  0  0  0  0  0  0
   58.0270   32.6640   43.3200 C   0  0  0  0  0  0  0  0  0  0  0  0
   57.5480   31.3760   43.0620 C   0  0  0  0  0  0  0  0  0  0  0  0
   57.5180   25.0430   47.5080 C   0  0  0  0  0  0  0  0  0  0  0  0
   57.4080   24.1950   46.2650 C   0  0  0  0  0  0  0  0  0  0  0  0
   58.5750   23.7420   45.6270 C   0  0  0  0  0  0  0  0  0  0  0  0
   58.4920   22.9390   44.4850 C   0  0  0  0  0  0  0  0  0  0  0  0
   57.2440   22.5750   43.9770 C   0  0  0  0  0  0  0  0  0  0  0  0
   56.0770   23.0080   44.6110 C   0  0  0  0  0  0  0  0  0  0  0  0
   56.1520   23.8100   45.7550 C   0  0  0  0  0  0  0  0  0  0  0  0
   55.0040   24.2070   46.3580 F   0  0  0  0  0  0  0  0  0  0  0  0
   60.0150   29.2270   48.5000 C   0  0  0  0  0  0  0  0  0  0  0  0
   60.2930   30.5930   48.4020 C   0  0  0  0  0  0  0  0  0  0  0  0
   60.4135   33.0667   49.1148 H   0  0  0  0  0  0  0  0  0  0  0  0
   60.2564   34.4795   48.0167 H   0  0  0  0  0  0  0  0  0  0  0  0
   58.9980   33.1978   48.0167 H   0  0  0  0  0  0  0  0  0  0  0  0
   60.5072   32.9910   46.0536 H   0  0  0  0  0  0  0  0  0  0  0  0
   61.9170   32.8414   47.1703 H   0  0  0  0  0  0  0  0  0  0  0  0
   60.8590   30.7905   45.0331 H   0  0  0  0  0  0  0  0  0  0  0  0
   60.3679   28.3535   45.2134 H   0  0  0  0  0  0  0  0  0  0  0  0
   58.3024   27.4205   45.3512 H   0  0  0  0  0  0  0  0  0  0  0  0
   57.5692   25.7684   45.2026 H   0  0  0  0  0  0  0  0  0  0  0  0
   57.5936   28.4532   43.6433 H   0  0  0  0  0  0  0  0  0  0  0  0
   56.0732   29.1590   42.9663 H   0  0  0  0  0  0  0  0  0  0  0  0
   57.1685   30.2821   46.2830 H   0  0  0  0  0  0  0  0  0  0  0  0
   58.0382   32.5769   46.7372 H   0  0  0  0  0  0  0  0  0  0  0  0
   58.2649   33.3392   42.4848 H   0  0  0  0  0  0  0  0  0  0  0  0
   57.4048   31.0428   42.0235 H   0  0  0  0  0  0  0  0  0  0  0  0
   58.2880   24.6166   48.1677 H   0  0  0  0  0  0  0  0  0  0  0  0
   56.5411   25.0533   48.0136 H   0  0  0  0  0  0  0  0  0  0  0  0
   59.5605   24.0208   46.0284 H   0  0  0  0  0  0  0  0  0  0  0  0
   59.4103   22.5943   43.9871 H   0  0  0  0  0  0  0  0  0  0  0  0
   57.1793   21.9466   43.0765 H   0  0  0  0  0  0  0  0  0  0  0  0
   55.0951   22.7173   44.2092 H   0  0  0  0  0  0  0  0  0  0  0  0
   59.7889   28.7831   49.4808 H   0  0  0  0  0  0  0  0  0  0  0  0
   60.2703   31.2226   49.3037 H   0  0  0  0  0  0  0  0  0  0  0  0
  1  2  1  0
  2  3  1  0
  3  4  2  0
  4  5  1  0
  5  6  2  0
  6  7  1  0
  7  8  2  0
  7  9  2  0
  7 10  1  0
 10 11  1  0
 11 12  1  0
 12 13  2  0
 12 14  1  0
 14 15  1  0
 15 16  1  0
 16 17  2  0
 17 18  1  0
 18 19  2  0
 19 20  1  0
 19 21  1  0
 21 22  2  0
 10 23  1  0
 23 24  1  0
 24 25  2  0
 25 26  1  0
 26 27  2  0
 27 28  1  0
 28 29  2  0
 29 30  1  0
  6 31  1  0
 31 32  2  0
 32  3  1  0
 22 16  1  0
 29 24  1  0
  1 33  1  0
  1 34  1  0
  1 35  1  0
  2 36  1  0
  2 37  1  0
  4 38  1  0
  5 39  1  0
 11 40  1  0
 11 41  1  0
 15 42  1  0
 15 43  1  0
 17 44  1  0
 18 45  1  0
 21 46  1  0
 22 47  1  0
 23 48  1  0
 23 49  1  0
 25 50  1  0
 26 51  1  0
 27 52  1  0
 28 53  1  0
 31 54  1  0
 32 55  1  0
M  CHG  1  14  -1
M  END
>  <UniqueID>  (36) 
30

>  <SMILES>  (36) 
CCc1ccc(S(=O)(=O)N(CC(=O)[N-]Cc2ccc(Cl)cc2)Cc2ccccc2F)cc1

>  <Energy>  (36) 
50.962428597136025

>  <Genealogy>  (36) 
CCc1ccc(S(=O)(=O)N(CC(=O)[N-]Cc2ccc(Cl)cc2)Cc2ccccc2F)cc1 (protonated)
CCc1ccc(S(=O)(=O)N(CC(=O)[N-]Cc2ccc(Cl)cc2)Cc2ccccc2F)cc1 (3D coordinates assigned)
CCc1ccc(S(=O)(=O)N(CC(=O)[N-]Cc2ccc(Cl)cc2)Cc2ccccc2F)cc1 (optimized conformer: 50.962428597136025 kcal/mol)

>  <smiles>  (36) 
CCc1ccc(S(=O)(=O)N(CC(=O)NCc2ccc(Cl)cc2)Cc2ccccc2F)cc1

>  <score_type>  (36) 
oracle

>  <origin>  (36) 
adg

>  <m_score__min__energy>  (36) 
-11.69

>  <m_primary>  (36) 
energy

$$$$
36:0
     RDKit          3D

 38 40  0  0  0  0  0  0  0  0999 V2000
   57.7280   33.3300   45.3500 C   0  0  0  0  0  0  0  0  0  0  0  0
   58.2010   31.9250   45.7240 C   0  0  0  0  0  0  0  0  0  0  0  0
   57.7390   30.8560   44.7570 C   0  0  0  0  0  0  0  0  0  0  0  0
   57.0960   31.2150   43.6120 N   0  0  0  0  0  0  0  0  0  0  0  0
   56.6740   30.2930   42.7080 C   0  0  0  0  0  0  0  0  0  0  0  0
   56.8920   28.9730   42.9300 N   0  0  0  0  0  0  0  0  0  0  0  0
   57.5110   28.5520   44.0670 C   0  0  0  0  0  0  0  0  0  0  0  0
   57.9410   29.4840   45.0240 C   0  0  0  0  0  0  0  0  0  0  0  0
   58.6690   28.9650   46.2440 C   0  0  0  0  0  0  0  0  0  0  0  0
   58.0070   27.6870   46.7890 C   0  0  0  0  0  0  0  0  0  0  0  0
   57.5670   26.7710   45.7210 N   0  0  0  0  0  0  0  0  0  0  0  0
   57.0240   25.4930   46.0930 C   0  0  0  0  0  0  0  0  0  0  0  0
   56.2370   25.4200   47.0760 O   0  0  0  0  0  0  0  0  0  0  0  0
   57.3450   24.2670   45.3240 C   0  0  0  0  0  0  0  0  0  0  0  0
   58.5310   23.5510   45.5790 C   0  0  0  0  0  0  0  0  0  0  0  0
   58.8330   22.4020   44.8440 C   0  0  0  0  0  0  0  0  0  0  0  0
   57.9640   21.9600   43.8430 C   0  0  0  0  0  0  0  0  0  0  0  0
   56.7920   22.6710   43.5730 C   0  0  0  0  0  0  0  0  0  0  0  0
   55.9510   22.2420   42.5990 F   0  0  0  0  0  0  0  0  0  0  0  0
   56.4840   23.8200   44.3060 C   0  0  0  0  0  0  0  0  0  0  0  0
   57.7820   27.0940   44.3030 C   0  0  0  0  0  0  0  0  0  0  0  0
   57.5336   33.9074   46.2659 H   0  0  0  0  0  0  0  0  0  0  0  0
   58.5062   33.8333   44.7575 H   0  0  0  0  0  0  0  0  0  0  0  0
   56.8038   33.2602   44.7575 H   0  0  0  0  0  0  0  0  0  0  0  0
   59.3008   31.9223   45.7469 H   0  0  0  0  0  0  0  0  0  0  0  0
   57.7632   31.6861   46.7044 H   0  0  0  0  0  0  0  0  0  0  0  0
   56.1546   30.6176   41.7943 H   0  0  0  0  0  0  0  0  0  0  0  0
   56.5750   28.2810   42.2150 H   0  0  0  0  0  0  0  0  0  0  0  0
   59.7107   28.7405   45.9711 H   0  0  0  0  0  0  0  0  0  0  0  0
   58.6293   29.7372   47.0264 H   0  0  0  0  0  0  0  0  0  0  0  0
   58.7320   27.1604   47.4270 H   0  0  0  0  0  0  0  0  0  0  0  0
   57.1130   27.9919   47.3527 H   0  0  0  0  0  0  0  0  0  0  0  0
   59.2227   23.8983   46.3606 H   0  0  0  0  0  0  0  0  0  0  0  0
   59.7573   21.8438   45.0538 H   0  0  0  0  0  0  0  0  0  0  0  0
   58.2024   21.0530   43.2681 H   0  0  0  0  0  0  0  0  0  0  0  0
   55.5623   24.3784   44.0854 H   0  0  0  0  0  0  0  0  0  0  0  0
   58.8233   26.8673   44.0306 H   0  0  0  0  0  0  0  0  0  0  0  0
   57.0983   26.4928   43.6857 H   0  0  0  0  0  0  0  0  0  0  0  0
  1  2  1  0
  2  3  1  0
  3  4  2  0
  4  5  1  0
  5  6  2  0
  6  7  1  0
  7  8  2  0
  8  9  1  0
  9 10  1  0
 10 11  1  0
 11 12  1  0
 12 13  2  0
 12 14  1  0
 14 15  2  0
 15 16  1  0
 16 17  2  0
 17 18  1  0
 18 19  1  0
 18 20  2  0
 11 21  1  0
  8  3  1  0
 20 14  1  0
 21  7  1  0
  1 22  1  0
  1 23  1  0
  1 24  1  0
  2 25  1  0
  2 26  1  0
  5 27  1  0
  6 28  1  0
  9 29  1  0
  9 30  1  0
 10 31  1  0
 10 32  1  0
 15 33  1  0
 16 34  1  0
 17 35  1  0
 20 36  1  0
 21 37  1  0
 21 38  1  0
M  CHG  1   6   1
M  END
>  <UniqueID>  (37) 
31

>  <SMILES>  (37) 
CCc1nc[nH+]c2c1CCN(C(=O)c1cccc(F)c1)C2

>  <Energy>  (37) 
47.67005020937531

>  <Genealogy>  (37) 
CCc1nc[nH+]c2c1CCN(C(=O)c1cccc(F)c1)C2 (protonated)
CCc1nc[nH+]c2c1CCN(C(=O)c1cccc(F)c1)C2 (3D coordinates assigned)
CCc1nc[nH+]c2c1CCN(C(=O)c1cccc(F)c1)C2 (nonaromatic ring conformer: 47.67005020937531 kcal/mol)

>  <smiles>  (37) 
CCc1ncnc2c1CCN(C(=O)c1cccc(F)c1)C2

>  <score_type>  (37) 
oracle

>  <origin>  (37) 
adg

>  <m_score__min__energy>  (37) 
-5.8899999999999997

>  <m_primary>  (37) 
energy

$$$$
37:0
     RDKit          3D

 26 27  0  0  0  0  0  0  0  0999 V2000
   56.6460   29.9740   42.9090 O   0  0  0  0  0  0  0  0  0  0  0  0
   56.5680   30.0640   44.4070 S   0  0  0  0  0  0  0  0  0  0  0  0
   55.3410   29.3360   44.8790 O   0  0  0  0  0  0  0  0  0  0  0  0
   56.4490   31.7320   44.8680 N   0  0  0  0  0  0  0  0  0  0  0  0
   57.5180   32.5170   45.4140 C   0  0  0  0  0  0  0  0  0  0  0  0
   58.1490   32.0680   46.5820 C   0  0  0  0  0  0  0  0  0  0  0  0
   59.1900   32.8050   47.1530 C   0  0  0  0  0  0  0  0  0  0  0  0
   59.6110   33.9980   46.5580 C   0  0  0  0  0  0  0  0  0  0  0  0
   58.9900   34.4530   45.3920 C   0  0  0  0  0  0  0  0  0  0  0  0
   59.3990   35.6100   44.8150 F   0  0  0  0  0  0  0  0  0  0  0  0
   57.9470   33.7180   44.8190 C   0  0  0  0  0  0  0  0  0  0  0  0
   58.0200   29.3470   45.0970 C   0  0  0  0  0  0  0  0  0  0  0  0
   57.9480   28.5640   46.2550 C   0  0  0  0  0  0  0  0  0  0  0  0
   59.1100   28.0090   46.7920 C   0  0  0  0  0  0  0  0  0  0  0  0
   60.3350   28.2450   46.1630 C   0  0  0  0  0  0  0  0  0  0  0  0
   60.3890   29.0050   45.0350 N   0  0  0  0  0  0  0  0  0  0  0  0
   59.2670   29.5540   44.4940 C   0  0  0  0  0  0  0  0  0  0  0  0
   57.8226   31.1289   47.0526 H   0  0  0  0  0  0  0  0  0  0  0  0
   59.6784   32.4463   48.0710 H   0  0  0  0  0  0  0  0  0  0  0  0
   60.4305   34.5780   47.0075 H   0  0  0  0  0  0  0  0  0  0  0  0
   57.4608   34.0797   43.9009 H   0  0  0  0  0  0  0  0  0  0  0  0
   56.9771   28.3866   46.7407 H   0  0  0  0  0  0  0  0  0  0  0  0
   59.0621   27.3919   47.7013 H   0  0  0  0  0  0  0  0  0  0  0  0
   61.2578   27.8157   46.5802 H   0  0  0  0  0  0  0  0  0  0  0  0
   61.3110   29.1700   44.5750 H   0  0  0  0  0  0  0  0  0  0  0  0
   59.3400   30.1622   43.5803 H   0  0  0  0  0  0  0  0  0  0  0  0
  1  2  2  0
  2  3  2  0
  2  4  1  0
  4  5  1  0
  5  6  2  0
  6  7  1  0
  7  8  2  0
  8  9  1  0
  9 10  1  0
  9 11  2  0
  2 12  1  0
 12 13  2  0
 13 14  1  0
 14 15  2  0
 15 16  1  0
 16 17  2  0
 11  5  1  0
 17 12  1  0
  6 18  1  0
  7 19  1  0
  8 20  1  0
 11 21  1  0
 13 22  1  0
 14 23  1  0
 15 24  1  0
 16 25  1  0
 17 26  1  0
M  CHG  2   4  -1  16   1
M  END
>  <UniqueID>  (38) 
32

>  <SMILES>  (38) 
O=S(=O)([N-]c1cccc(F)c1)c1ccc[nH+]c1

>  <Energy>  (38) 
29.819192526143432

>  <Genealogy>  (38) 
O=S(=O)([N-]c1cccc(F)c1)c1ccc[nH+]c1 (protonated)
O=S(=O)([N-]c1cccc(F)c1)c1ccc[nH+]c1 (3D coordinates assigned)
O=S(=O)([N-]c1cccc(F)c1)c1ccc[nH+]c1 (optimized conformer: 29.819192526143432 kcal/mol)

>  <smiles>  (38) 
O=S(=O)(Nc1cccc(F)c1)c1cccnc1

>  <score_type>  (38) 
oracle

>  <origin>  (38) 
adg

>  <m_score__min__energy>  (38) 
-6.5499999999999998

>  <m_primary>  (38) 
energy

$$$$
38:0
     RDKit          3D

 34 35  0  0  1  0  0  0  0  0999 V2000
   57.7940   32.1040   43.6750 C   0  0  0  0  0  0  0  0  0  0  0  0
   57.0710   30.8050   43.6540 C   0  0  0  0  0  0  0  0  0  0  0  0
   56.4490   30.4720   42.6040 O   0  0  0  0  0  0  0  0  0  0  0  0
   57.1160   30.0080   44.8140 N   0  0  0  0  0  0  0  0  0  0  0  0
   57.3110   28.7400   44.6880 C   0  0  0  0  0  0  0  0  0  0  0  0
   57.1720   27.9330   45.7830 C   0  0  0  0  0  0  0  0  0  0  0  0
   57.3760   26.5790   45.6690 C   0  0  0  0  0  0  0  0  0  0  0  0
   57.7200   25.9890   44.4840 N   0  0  0  0  0  0  0  0  0  0  0  0
   57.9080   24.5990   44.4610 C   0  0  2  0  0  0  0  0  0  0  0  0
   57.0350   23.8570   43.6720 O   0  0  0  0  0  0  0  0  0  0  0  0
   57.6540   22.6010   43.7650 C   0  0  2  0  0  0  0  0  0  0  0  0
   56.7400   21.5060   43.2880 C   0  0  0  0  0  0  0  0  0  0  0  0
   55.9070   22.0570   42.3130 O   0  0  0  0  0  0  0  0  0  0  0  0
   58.0890   22.4200   45.1950 C   0  0  1  0  0  0  0  0  0  0  0  0
   59.4560   22.1960   45.3180 O   0  0  0  0  0  0  0  0  0  0  0  0
   57.8670   23.8450   45.7380 C   0  0  1  0  0  0  0  0  0  0  0  0
   58.8440   24.2160   46.6220 F   0  0  0  0  0  0  0  0  0  0  0  0
   57.8430   26.8380   43.4420 C   0  0  0  0  0  0  0  0  0  0  0  0
   58.1550   26.3580   42.3340 O   0  0  0  0  0  0  0  0  0  0  0  0
   57.6500   28.1550   43.5240 N   0  0  0  0  0  0  0  0  0  0  0  0
   57.9652   32.4116   44.7172 H   0  0  0  0  0  0  0  0  0  0  0  0
   58.7606   31.9940   43.1617 H   0  0  0  0  0  0  0  0  0  0  0  0
   57.1911   32.8675   43.1617 H   0  0  0  0  0  0  0  0  0  0  0  0
   56.8968   28.3678   46.7552 H   0  0  0  0  0  0  0  0  0  0  0  0
   57.2585   25.9475   46.5620 H   0  0  0  0  0  0  0  0  0  0  0  0
   58.9300   24.6648   44.0595 H   0  0  0  0  0  0  0  0  0  0  0  0
   58.5349   22.5468   43.1085 H   0  0  0  0  0  0  0  0  0  0  0  0
   57.3303   20.6834   42.8579 H   0  0  0  0  0  0  0  0  0  0  0  0
   56.1486   21.1009   44.1223 H   0  0  0  0  0  0  0  0  0  0  0  0
   56.2850   22.8760   41.9030 H   0  0  0  0  0  0  0  0  0  0  0  0
   57.5669   21.5810   45.6782 H   0  0  0  0  0  0  0  0  0  0  0  0
   59.6700   21.2420   45.1590 H   0  0  0  0  0  0  0  0  0  0  0  0
   56.9495   23.9957   46.3258 H   0  0  0  0  0  0  0  0  0  0  0  0
   57.7650   28.7620   42.6600 H   0  0  0  0  0  0  0  0  0  0  0  0
  1  2  1  0
  2  3  2  0
  2  4  1  0
  4  5  2  0
  5  6  1  0
  6  7  2  0
  7  8  1  0
  8  9  1  0
  9 10  1  0
 10 11  1  0
 11 12  1  0
 12 13  1  0
 11 14  1  0
 14 15  1  0
 14 16  1  0
 16 17  1  0
  8 18  1  0
 18 19  2  0
 18 20  1  0
 20  5  1  0
 16  9  1  0
  1 21  1  0
  1 22  1  0
  1 23  1  0
  6 24  1  0
  7 25  1  0
  9 26  1  6
 11 27  1  6
 12 28  1  0
 12 29  1  0
 13 30  1  0
 14 31  1  1
 15 32  1  0
 16 33  1  1
 20 34  1  0
M  END
>  <smiles>  (39) 
CC(=O)N=c1ccn(C2OC(CO)C(O)C2F)c(=O)[nH]1

>  <score_type>  (39) 
oracle

>  <origin>  (39) 
adg

>  <m_score__min__energy>  (39) 
-7.6299999999999999

>  <m_primary>  (39) 
energy

$$$$
39:0
     RDKit          3D

 51 53  0  0  0  0  0  0  0  0999 V2000
   56.7800   30.7690   43.6060 C   0  0  0  0  0  0  0  0  0  0  0  0
   57.5880   31.6950   44.4680 C   0  0  0  0  0  0  0  0  0  0  0  0
   57.7710   33.0330   44.0990 C   0  0  0  0  0  0  0  0  0  0  0  0
   58.5050   33.8950   44.9190 C   0  0  0  0  0  0  0  0  0  0  0  0
   59.0350   33.4370   46.1340 C   0  0  0  0  0  0  0  0  0  0  0  0
   59.8640   34.3150   46.9790 C   0  0  0  0  0  0  0  0  0  0  0  0
   61.0290   33.9490   47.5430 C   0  0  0  0  0  0  0  0  0  0  0  0
   61.1990   34.0620   49.0390 C   0  0  0  0  0  0  0  0  0  0  0  0
   62.6550   34.4260   49.3570 C   0  0  0  0  0  0  0  0  0  0  0  0
   63.6380   33.4400   48.8250 N   0  0  0  0  0  0  0  0  0  0  0  0
   64.2200   32.5630   49.8790 C   0  0  0  0  0  0  0  0  0  0  0  0
   65.4590   33.1170   50.5840 C   0  0  0  0  0  0  0  0  0  0  0  0
   66.7160   32.6940   50.1170 C   0  0  0  0  0  0  0  0  0  0  0  0
   67.8840   33.1270   50.7360 C   0  0  0  0  0  0  0  0  0  0  0  0
   67.8290   33.9780   51.7990 N   0  0  0  0  0  0  0  0  0  0  0  0
   69.0730   34.4380   52.4220 C   0  0  0  0  0  0  0  0  0  0  0  0
   66.6340   34.4740   52.2290 C   0  0  0  0  0  0  0  0  0  0  0  0
   65.4260   34.0860   51.6270 C   0  0  0  0  0  0  0  0  0  0  0  0
   64.1650   34.7340   52.1420 C   0  0  0  0  0  0  0  0  0  0  0  0
   63.1730   32.6840   47.6290 C   0  0  0  0  0  0  0  0  0  0  0  0
   62.2330   33.5090   46.7390 C   0  0  0  0  0  0  0  0  0  0  0  0
   58.8630   32.0980   46.4960 C   0  0  0  0  0  0  0  0  0  0  0  0
   58.1310   31.2340   45.6760 C   0  0  0  0  0  0  0  0  0  0  0  0
   56.1911   30.0941   44.2445 H   0  0  0  0  0  0  0  0  0  0  0  0
   56.1017   31.3577   42.9709 H   0  0  0  0  0  0  0  0  0  0  0  0
   57.4551   30.1767   42.9709 H   0  0  0  0  0  0  0  0  0  0  0  0
   57.3358   33.4073   43.1607 H   0  0  0  0  0  0  0  0  0  0  0  0
   58.6677   34.9380   44.6096 H   0  0  0  0  0  0  0  0  0  0  0  0
   59.5057   35.3390   47.1608 H   0  0  0  0  0  0  0  0  0  0  0  0
   60.5312   34.8454   49.4267 H   0  0  0  0  0  0  0  0  0  0  0  0
   60.9471   33.1016   49.5124 H   0  0  0  0  0  0  0  0  0  0  0  0
   62.8734   35.4098   48.9160 H   0  0  0  0  0  0  0  0  0  0  0  0
   62.7582   34.4311   50.4521 H   0  0  0  0  0  0  0  0  0  0  0  0
   64.4480   34.0140   48.4870 H   0  0  0  0  0  0  0  0  0  0  0  0
   63.4458   32.3886   50.6407 H   0  0  0  0  0  0  0  0  0  0  0  0
   64.5484   31.6480   49.3642 H   0  0  0  0  0  0  0  0  0  0  0  0
   66.7763   32.0144   49.2542 H   0  0  0  0  0  0  0  0  0  0  0  0
   68.8595   32.7799   50.3647 H   0  0  0  0  0  0  0  0  0  0  0  0
   68.9707   34.4002   53.5166 H   0  0  0  0  0  0  0  0  0  0  0  0
   69.9026   33.7872   52.1085 H   0  0  0  0  0  0  0  0  0  0  0  0
   69.2796   35.4720   52.1085 H   0  0  0  0  0  0  0  0  0  0  0  0
   66.6158   35.1913   53.0628 H   0  0  0  0  0  0  0  0  0  0  0  0
   64.1734   34.7297   53.2420 H   0  0  0  0  0  0  0  0  0  0  0  0
   64.1115   35.7713   51.7798 H   0  0  0  0  0  0  0  0  0  0  0  0
   63.2905   34.1736   51.7798 H   0  0  0  0  0  0  0  0  0  0  0  0
   64.0508   32.3883   47.0357 H   0  0  0  0  0  0  0  0  0  0  0  0
   62.6112   31.8081   47.9857 H   0  0  0  0  0  0  0  0  0  0  0  0
   62.7670   34.3949   46.3648 H   0  0  0  0  0  0  0  0  0  0  0  0
   61.9003   32.8937   45.8900 H   0  0  0  0  0  0  0  0  0  0  0  0
   59.3056   31.7223   47.4303 H   0  0  0  0  0  0  0  0  0  0  0  0
   57.9803   30.1876   45.9798 H   0  0  0  0  0  0  0  0  0  0  0  0
  1  2  1  0
  2  3  2  0
  3  4  1  0
  4  5  2  0
  5  6  1  0
  6  7  2  3
  7  8  1  0
  8  9  1  0
  9 10  1  0
 10 11  1  0
 11 12  1  0
 12 13  2  0
 13 14  1  0
 14 15  2  0
 15 16  1  0
 15 17  1  0
 17 18  2  0
 18 19  1  0
 10 20  1  0
 20 21  1  0
  5 22  1  0
 22 23  2  0
 23  2  1  0
 21  7  1  0
 18 12  1  0
  1 24  1  0
  1 25  1  0
  1 26  1  0
  3 27  1  0
  4 28  1  0
  6 29  1  0
  8 30  1  0
  8 31  1  0
  9 32  1  0
  9 33  1  0
 10 34  1  0
 11 35  1  0
 11 36  1  0
 13 37  1  0
 14 38  1  0
 16 39  1  0
 16 40  1  0
 16 41  1  0
 17 42  1  0
 19 43  1  0
 19 44  1  0
 19 45  1  0
 20 46  1  0
 20 47  1  0
 21 48  1  0
 21 49  1  0
 22 50  1  0
 23 51  1  0
M  CHG  2  10   1  15   1
M  END
>  <UniqueID>  (40) 
33

>  <SMILES>  (40) 
Cc1ccc(C=C2CC[NH+](Cc3cc[n+](C)cc3C)CC2)cc1

>  <Energy>  (40) 
74.83746751931811

>  <Genealogy>  (40) 
Cc1ccc(C=C2CC[NH+](Cc3cc[n+](C)cc3C)CC2)cc1 (protonated)
Cc1ccc(C=C2CC[NH+](Cc3cc[n+](C)cc3C)CC2)cc1 (3D coordinates assigned)
Cc1ccc(C=C2CC[NH+](Cc3cc[n+](C)cc3C)CC2)cc1 (nonaromatic ring conformer: 74.83746751931811 kcal/mol)

>  <smiles>  (40) 
Cc1ccc(C=C2CCN(Cc3cc[n+](C)cc3C)CC2)cc1

>  <score_type>  (40) 
oracle

>  <origin>  (40) 
adg

>  <m_score__min__energy>  (40) 
-5.1399999999999997

>  <m_primary>  (40) 
energy

$$$$
40:0
     RDKit          3D

 46 48  0  0  0  0  0  0  0  0999 V2000
   58.8940   34.9920   47.9620 O   0  0  0  0  0  0  0  0  0  0  0  0
   59.7470   34.6700   46.7660 S   0  0  0  0  0  0  0  0  0  0  0  0
   59.9970   35.9490   46.0150 O   0  0  0  0  0  0  0  0  0  0  0  0
   61.2740   33.9720   47.2880 C   0  0  0  0  0  0  0  0  0  0  0  0
   62.3390   33.8490   46.3850 C   0  0  0  0  0  0  0  0  0  0  0  0
   63.5600   33.3120   46.8060 C   0  0  0  0  0  0  0  0  0  0  0  0
   63.7230   32.9020   48.1330 C   0  0  0  0  0  0  0  0  0  0  0  0
   62.6670   33.0310   49.0400 C   0  0  0  0  0  0  0  0  0  0  0  0
   61.4450   33.5680   48.6200 C   0  0  0  0  0  0  0  0  0  0  0  0
   58.9140   33.5190   45.7270 C   0  0  0  0  0  0  0  0  0  0  0  0
   58.7870   33.7720   44.3570 C   0  0  0  0  0  0  0  0  0  0  0  0
   58.1450   32.8500   43.5260 C   0  0  0  0  0  0  0  0  0  0  0  0
   57.6250   31.6530   44.0570 C   0  0  0  0  0  0  0  0  0  0  0  0
   56.9600   30.6800   43.2290 N   0  0  0  0  0  0  0  0  0  0  0  0
   56.5810   29.3480   43.7050 C   0  0  0  0  0  0  0  0  0  0  0  0
   57.6770   28.3200   43.3920 C   0  0  0  0  0  0  0  0  0  0  0  0
   58.0760   27.4980   44.6260 C   0  0  0  0  0  0  0  0  0  0  0  0
   58.9030   28.3010   45.5970 C   0  0  0  0  0  0  0  0  0  0  0  0
   60.0350   29.0080   45.1530 C   0  0  0  0  0  0  0  0  0  0  0  0
   60.7840   29.7730   46.0520 C   0  0  0  0  0  0  0  0  0  0  0  0
   60.4090   29.8410   47.3970 C   0  0  0  0  0  0  0  0  0  0  0  0
   59.2820   29.1450   47.8440 C   0  0  0  0  0  0  0  0  0  0  0  0
   58.5290   28.3800   46.9480 C   0  0  0  0  0  0  0  0  0  0  0  0
   57.7660   31.4040   45.4320 C   0  0  0  0  0  0  0  0  0  0  0  0
   58.4070   32.3280   46.2610 C   0  0  0  0  0  0  0  0  0  0  0  0
   62.2142   34.1758   45.3421 H   0  0  0  0  0  0  0  0  0  0  0  0
   64.3919   33.2122   46.0933 H   0  0  0  0  0  0  0  0  0  0  0  0
   64.6826   32.4778   48.4633 H   0  0  0  0  0  0  0  0  0  0  0  0
   62.7968   32.7103   50.0842 H   0  0  0  0  0  0  0  0  0  0  0  0
   60.6167   33.6735   49.3362 H   0  0  0  0  0  0  0  0  0  0  0  0
   59.1944   34.7011   43.9319 H   0  0  0  0  0  0  0  0  0  0  0  0
   58.0450   33.0600   42.4509 H   0  0  0  0  0  0  0  0  0  0  0  0
   56.7370   30.9460   42.2430 H   0  0  0  0  0  0  0  0  0  0  0  0
   56.4235   29.3861   44.7930 H   0  0  0  0  0  0  0  0  0  0  0  0
   55.6569   29.0423   43.1925 H   0  0  0  0  0  0  0  0  0  0  0  0
   57.3074   27.6346   42.6151 H   0  0  0  0  0  0  0  0  0  0  0  0
   58.5669   28.8703   43.0527 H   0  0  0  0  0  0  0  0  0  0  0  0
   57.1629   27.1563   45.1353 H   0  0  0  0  0  0  0  0  0  0  0  0
   58.6840   26.6471   44.2850 H   0  0  0  0  0  0  0  0  0  0  0  0
   60.3319   28.9588   44.0950 H   0  0  0  0  0  0  0  0  0  0  0  0
   61.6698   30.3223   45.7005 H   0  0  0  0  0  0  0  0  0  0  0  0
   61.0005   30.4420   48.1034 H   0  0  0  0  0  0  0  0  0  0  0  0
   58.9871   29.1993   48.9024 H   0  0  0  0  0  0  0  0  0  0  0  0
   57.6401   27.8379   47.3030 H   0  0  0  0  0  0  0  0  0  0  0  0
   57.3679   30.4724   45.8604 H   0  0  0  0  0  0  0  0  0  0  0  0
   58.5137   32.1194   47.3358 H   0  0  0  0  0  0  0  0  0  0  0  0
  1  2  2  0
  2  3  2  0
  2  4  1  0
  4  5  2  0
  5  6  1  0
  6  7  2  0
  7  8  1  0
  8  9  2  0
  2 10  1  0
 10 11  2  0
 11 12  1  0
 12 13  2  0
 13 14  1  0
 14 15  1  0
 15 16  1  0
 16 17  1  0
 17 18  1  0
 18 19  2  0
 19 20  1  0
 20 21  2  0
 21 22  1  0
 22 23  2  0
 13 24  1  0
 24 25  2  0
  9  4  1  0
 25 10  1  0
 23 18  1  0
  5 26  1  0
  6 27  1  0
  7 28  1  0
  8 29  1  0
  9 30  1  0
 11 31  1  0
 12 32  1  0
 14 33  1  0
 15 34  1  0
 15 35  1  0
 16 36  1  0
 16 37  1  0
 17 38  1  0
 17 39  1  0
 19 40  1  0
 20 41  1  0
 21 42  1  0
 22 43  1  0
 23 44  1  0
 24 45  1  0
 25 46  1  0
M  END
>  <UniqueID>  (41) 
34

>  <SMILES>  (41) 
O=S(=O)(c1ccccc1)c1ccc(NCCCc2ccccc2)cc1

>  <Energy>  (41) 
45.379574567522155

>  <Genealogy>  (41) 
O=S(=O)(c1ccccc1)c1ccc(NCCCc2ccccc2)cc1 (3D coordinates assigned)
O=S(=O)(c1ccccc1)c1ccc(NCCCc2ccccc2)cc1 (optimized conformer: 45.379574567522155 kcal/mol)

>  <smiles>  (41) 
O=S(=O)(c1ccccc1)c1ccc(NCCCc2ccccc2)cc1

>  <score_type>  (41) 
oracle

>  <origin>  (41) 
adg

>  <m_score__min__energy>  (41) 
-8.8499999999999996

>  <m_primary>  (41) 
energy

$$$$
41:0
     RDKit          3D

 32 35  0  0  0  0  0  0  0  0999 V2000
   55.5920   28.9120   45.1060 N   0  0  0  0  0  0  0  0  0  0  0  0
   56.6870   28.0390   45.4120 C   0  0  0  0  0  0  0  0  0  0  0  0
   56.4780   26.6910   45.3900 N   0  0  0  0  0  0  0  0  0  0  0  0
   57.4860   25.7970   45.5860 C   0  0  0  0  0  0  0  0  0  0  0  0
   57.2270   24.4160   45.5440 C   0  0  0  0  0  0  0  0  0  0  0  0
   58.2610   23.4980   45.7360 C   0  0  0  0  0  0  0  0  0  0  0  0
   59.5620   23.9470   45.9720 C   0  0  0  0  0  0  0  0  0  0  0  0
   59.8350   25.3170   46.0150 C   0  0  0  0  0  0  0  0  0  0  0  0
   58.8010   26.2540   45.8230 C   0  0  0  0  0  0  0  0  0  0  0  0
   59.0420   27.6390   45.8690 C   0  0  0  0  0  0  0  0  0  0  0  0
   60.2060   28.0710   46.1010 O   0  0  0  0  0  0  0  0  0  0  0  0
   57.9810   28.5450   45.6770 C   0  0  0  0  0  0  0  0  0  0  0  0
   58.2350   29.9980   45.7900 C   0  0  0  0  0  0  0  0  0  0  0  0
   57.4210   30.9370   45.2450 N   0  0  0  0  0  0  0  0  0  0  0  0
   57.9210   32.1850   45.4310 C   0  0  0  0  0  0  0  0  0  0  0  0
   57.3030   33.3550   44.9880 C   0  0  0  0  0  0  0  0  0  0  0  0
   57.9310   34.5880   45.2410 C   0  0  0  0  0  0  0  0  0  0  0  0
   59.1610   34.6350   45.9280 C   0  0  0  0  0  0  0  0  0  0  0  0
   59.7740   33.4500   46.3660 C   0  0  0  0  0  0  0  0  0  0  0  0
   59.1300   32.2430   46.1040 C   0  0  0  0  0  0  0  0  0  0  0  0
   59.6190   30.6870   46.4920 S   0  0  0  0  0  0  0  0  0  0  0  0
   54.7710   28.5960   44.5460 H   0  0  0  0  0  0  0  0  0  0  0  0
   55.5380   29.8610   45.5400 H   0  0  0  0  0  0  0  0  0  0  0  0
   55.5120   26.3370   45.1960 H   0  0  0  0  0  0  0  0  0  0  0  0
   56.2039   24.0567   45.3588 H   0  0  0  0  0  0  0  0  0  0  0  0
   58.0505   22.4189   45.7013 H   0  0  0  0  0  0  0  0  0  0  0  0
   60.3739   23.2207   46.1244 H   0  0  0  0  0  0  0  0  0  0  0  0
   60.8620   25.6651   46.1996 H   0  0  0  0  0  0  0  0  0  0  0  0
   56.3436   33.3139   44.4515 H   0  0  0  0  0  0  0  0  0  0  0  0
   57.4592   35.5216   44.9006 H   0  0  0  0  0  0  0  0  0  0  0  0
   59.6429   35.6046   46.1219 H   0  0  0  0  0  0  0  0  0  0  0  0
   60.7350   33.4742   46.9006 H   0  0  0  0  0  0  0  0  0  0  0  0
  1  2  1  0
  2  3  1  0
  3  4  1  0
  4  5  2  0
  5  6  1  0
  6  7  2  0
  7  8  1  0
  8  9  2  0
  9 10  1  0
 10 11  2  0
 10 12  1  0
 12 13  1  0
 13 14  2  0
 14 15  1  0
 15 16  2  0
 16 17  1  0
 17 18  2  0
 18 19  1  0
 19 20  2  0
 20 21  1  0
 12  2  2  0
 21 13  1  0
  9  4  1  0
 20 15  1  0
  1 22  1  0
  1 23  1  0
  3 24  1  0
  5 25  1  0
  6 26  1  0
  7 27  1  0
  8 28  1  0
 16 29  1  0
 17 30  1  0
 18 31  1  0
 19 32  1  0
M  END
>  <UniqueID>  (42) 
35

>  <SMILES>  (42) 
Nc1[nH]c2ccccc2c(=O)c1-c1nc2ccccc2s1

>  <Energy>  (42) 
83.47919729047182

>  <Genealogy>  (42) 
Nc1[nH]c2ccccc2c(=O)c1-c1nc2ccccc2s1 (3D coordinates assigned)
Nc1[nH]c2ccccc2c(=O)c1-c1nc2ccccc2s1 (optimized conformer: 83.47919729047182 kcal/mol)

>  <smiles>  (42) 
Nc1[nH]c2ccccc2c(=O)c1-c1nc2ccccc2s1

>  <score_type>  (42) 
oracle

>  <origin>  (42) 
adg

>  <m_score__min__energy>  (42) 
-7.5099999999999998

>  <m_primary>  (42) 
energy

$$$$
42:0
     RDKit          3D

 42 44  0  0  1  0  0  0  0  0999 V2000
   54.5290   24.8740   45.5870 C   0  0  0  0  0  0  0  0  0  0  0  0
   54.8300   26.2720   45.7070 O   0  0  0  0  0  0  0  0  0  0  0  0
   56.1370   26.6340   46.0090 C   0  0  0  0  0  0  0  0  0  0  0  0
   56.9400   25.7320   46.7010 C   0  0  0  0  0  0  0  0  0  0  0  0
   58.2400   26.0940   47.0010 C   0  0  0  0  0  0  0  0  0  0  0  0
   58.7180   27.3330   46.6160 C   0  0  0  0  0  0  0  0  0  0  0  0
   60.0650   27.6380   46.9580 N   0  0  0  0  0  0  0  0  0  0  0  0
   60.4220   28.3350   47.9610 C   0  0  0  0  0  0  0  0  0  0  0  0
   60.6750   27.7260   49.1420 N   0  0  0  0  0  0  0  0  0  0  0  0
   61.0440   28.5000   50.1600 C   0  0  0  0  0  0  0  0  0  0  0  0
   61.1730   29.8560   50.0490 C   0  0  0  0  0  0  0  0  0  0  0  0
   60.9100   30.4430   48.8390 C   0  0  0  0  0  0  0  0  0  0  0  0
   61.0000   31.7160   48.6220 N   0  0  0  0  0  0  0  0  0  0  0  0
   60.1080   32.3510   47.7160 C   0  0  0  0  0  0  0  0  0  0  0  0
   58.7420   32.1390   47.8350 C   0  0  0  0  0  0  0  0  0  0  0  0
   57.8400   32.7420   46.9680 C   0  0  0  0  0  0  0  0  0  0  0  0
   58.2890   33.5710   45.9640 C   0  0  0  0  0  0  0  0  0  0  0  0
   57.1440   34.3290   44.8730 Cl  0  0  0  0  0  0  0  0  0  0  0  0
   59.6580   33.7740   45.8560 C   0  0  0  0  0  0  0  0  0  0  0  0
   60.5700   33.1880   46.7030 C   0  0  0  0  0  0  0  0  0  0  0  0
   60.5360   29.6660   47.8080 N   0  0  0  0  0  0  0  0  0  0  0  0
   57.9050   28.2300   45.9240 C   0  0  0  0  0  0  0  0  0  0  0  0
   56.6030   27.8740   45.6190 C   0  0  0  0  0  0  0  0  0  0  0  0
   55.7390   28.7060   44.9380 O   0  0  0  0  0  0  0  0  0  0  0  0
   56.2320   29.7290   44.1120 C   0  0  0  0  0  0  0  0  0  0  0  0
   54.4338   24.4320   46.5898 H   0  0  0  0  0  0  0  0  0  0  0  0
   53.5832   24.7482   45.0396 H   0  0  0  0  0  0  0  0  0  0  0  0
   55.3392   24.3701   45.0396 H   0  0  0  0  0  0  0  0  0  0  0  0
   56.5477   24.7498   47.0034 H   0  0  0  0  0  0  0  0  0  0  0  0
   58.8937   25.3968   47.5456 H   0  0  0  0  0  0  0  0  0  0  0  0
   60.5660   26.6850   49.1930 H   0  0  0  0  0  0  0  0  0  0  0  0
   61.2539   28.0285   51.1314 H   0  0  0  0  0  0  0  0  0  0  0  0
   61.4814   30.4634   50.9127 H   0  0  0  0  0  0  0  0  0  0  0  0
   58.3660   31.4803   48.6317 H   0  0  0  0  0  0  0  0  0  0  0  0
   56.7619   32.5566   47.0837 H   0  0  0  0  0  0  0  0  0  0  0  0
   60.0302   34.4328   45.0576 H   0  0  0  0  0  0  0  0  0  0  0  0
   61.6468   33.3774   46.5822 H   0  0  0  0  0  0  0  0  0  0  0  0
   60.3330   30.1050   46.8780 H   0  0  0  0  0  0  0  0  0  0  0  0
   58.2957   29.2132   45.6228 H   0  0  0  0  0  0  0  0  0  0  0  0
   56.6256   30.5457   44.7350 H   0  0  0  0  0  0  0  0  0  0  0  0
   57.0374   29.3314   43.4770 H   0  0  0  0  0  0  0  0  0  0  0  0
   55.4192   30.1113   43.4770 H   0  0  0  0  0  0  0  0  0  0  0  0
  1  2  1  0
  2  3  1  0
  3  4  2  0
  4  5  1  0
  5  6  2  0
  6  7  1  0
  7  8  2  0
  8  9  1  0
  9 10  1  0
 10 11  2  0
 11 12  1  0
 12 13  2  0
 13 14  1  0
 14 15  2  0
 15 16  1  0
 16 17  2  0
 17 18  1  0
 17 19  1  0
 19 20  2  0
 12 21  1  0
  6 22  1  0
 22 23  2  0
 23 24  1  0
 24 25  1  0
 23  3  1  0
 21  8  1  0
 20 14  1  0
  1 26  1  0
  1 27  1  0
  1 28  1  0
  4 29  1  0
  5 30  1  0
  9 31  1  0
 10 32  1  0
 11 33  1  0
 15 34  1  0
 16 35  1  0
 19 36  1  0
 20 37  1  0
 21 38  1  0
 22 39  1  0
 25 40  1  0
 25 41  1  0
 25 42  1  0
M  END
>  <smiles>  (43) 
COc1ccc(N=c2[nH]ccc(=Nc3ccc(Cl)cc3)[nH]2)cc1OC

>  <score_type>  (43) 
oracle

>  <origin>  (43) 
adg

>  <m_score__min__energy>  (43) 
-8.1899999999999995

>  <m_primary>  (43) 
energy

$$$$
43:0
     RDKit          3D

 21 22  0  0  0  0  0  0  0  0999 V2000
   54.1160   24.8470   45.6180 C   0  0  0  0  0  0  0  0  0  0  0  0
   54.7810   26.0520   45.9780 O   0  0  0  0  0  0  0  0  0  0  0  0
   56.1760   26.2130   46.0010 C   0  0  0  0  0  0  0  0  0  0  0  0
   57.0450   25.1770   46.4000 C   0  0  0  0  0  0  0  0  0  0  0  0
   58.4290   25.3790   46.4090 C   0  0  0  0  0  0  0  0  0  0  0  0
   58.9660   26.6080   46.0240 C   0  0  0  0  0  0  0  0  0  0  0  0
   58.1150   27.6470   45.6250 C   0  0  0  0  0  0  0  0  0  0  0  0
   58.6170   28.8920   45.2330 C   0  0  0  0  0  0  0  0  0  0  0  0
   57.7310   29.8950   44.8450 C   0  0  0  0  0  0  0  0  0  0  0  0
   56.3590   29.6300   44.8580 C   0  0  0  0  0  0  0  0  0  0  0  0
   55.5430   30.5240   44.5110 O   0  0  0  0  0  0  0  0  0  0  0  0
   55.9070   28.4380   45.2360 O   0  0  0  0  0  0  0  0  0  0  0  0
   56.7150   27.4500   45.6140 C   0  0  0  0  0  0  0  0  0  0  0  0
   53.8178   24.3067   46.5286 H   0  0  0  0  0  0  0  0  0  0  0  0
   53.2217   25.0853   45.0235 H   0  0  0  0  0  0  0  0  0  0  0  0
   54.7944   24.2173   45.0235 H   0  0  0  0  0  0  0  0  0  0  0  0
   56.6323   24.2044   46.7060 H   0  0  0  0  0  0  0  0  0  0  0  0
   59.0983   24.5639   46.7215 H   0  0  0  0  0  0  0  0  0  0  0  0
   60.0553   26.7608   46.0337 H   0  0  0  0  0  0  0  0  0  0  0  0
   59.7012   29.0778   45.2310 H   0  0  0  0  0  0  0  0  0  0  0  0
   58.1060   30.8809   44.5330 H   0  0  0  0  0  0  0  0  0  0  0  0
  1  2  1  0
  2  3  1  0
  3  4  2  0
  4  5  1  0
  5  6  2  0
  6  7  1  0
  7  8  1  0
  8  9  2  0
  9 10  1  0
 10 11  2  0
 10 12  1  0
 12 13  1  0
 13  3  1  0
 13  7  2  0
  1 14  1  0
  1 15  1  0
  1 16  1  0
  4 17  1  0
  5 18  1  0
  6 19  1  0
  8 20  1  0
  9 21  1  0
M  END
>  <UniqueID>  (44) 
36

>  <SMILES>  (44) 
COc1cccc2ccc(=O)oc12

>  <Energy>  (44) 
25.198347146205364

>  <Genealogy>  (44) 
COc1cccc2ccc(=O)oc12 (3D coordinates assigned)
COc1cccc2ccc(=O)oc12 (optimized conformer: 25.198347146205364 kcal/mol)

>  <smiles>  (44) 
COc1cccc2ccc(=O)oc12

>  <score_type>  (44) 
oracle

>  <origin>  (44) 
adg

>  <m_score__min__energy>  (44) 
-6.1799999999999997

>  <m_primary>  (44) 
energy

$$$$
44:0
     RDKit          3D

 47 51  0  0  0  0  0  0  0  0999 V2000
   61.9190   30.4350   50.4280 C   0  0  0  0  0  0  0  0  0  0  0  0
   60.9340   29.4470   50.5020 C   0  0  0  0  0  0  0  0  0  0  0  0
   60.2010   29.0990   49.3630 C   0  0  0  0  0  0  0  0  0  0  0  0
   60.4480   29.7370   48.1330 C   0  0  0  0  0  0  0  0  0  0  0  0
   59.6940   29.3500   46.9130 C   0  0  0  0  0  0  0  0  0  0  0  0
   58.4050   28.7950   47.0100 C   0  0  0  0  0  0  0  0  0  0  0  0
   57.6740   28.4870   45.8590 C   0  0  0  0  0  0  0  0  0  0  0  0
   58.2200   28.7210   44.5900 C   0  0  0  0  0  0  0  0  0  0  0  0
   57.3820   28.5260   43.3530 C   0  0  0  0  0  0  0  0  0  0  0  0
   56.0030   29.7330   43.2750 S   0  0  0  0  0  0  0  0  0  0  0  0
   56.9560   31.1060   43.9200 C   0  0  0  0  0  0  0  0  0  0  0  0
   57.4960   32.0810   43.1670 N   0  0  0  0  0  0  0  0  0  0  0  0
   58.1730   32.8560   44.0010 N   0  0  0  0  0  0  0  0  0  0  0  0
   58.0190   32.3190   45.2280 C   0  0  0  0  0  0  0  0  0  0  0  0
   58.6530   32.8340   46.4570 C   0  0  0  0  0  0  0  0  0  0  0  0
   59.6860   33.7840   46.3860 C   0  0  0  0  0  0  0  0  0  0  0  0
   60.3080   34.2430   47.5500 C   0  0  0  0  0  0  0  0  0  0  0  0
   59.9070   33.7590   48.8030 C   0  0  0  0  0  0  0  0  0  0  0  0
   60.5310   34.2090   49.9780 C   0  0  0  0  0  0  0  0  0  0  0  0
   60.1240   33.7160   51.2220 C   0  0  0  0  0  0  0  0  0  0  0  0
   59.0910   32.7780   51.3030 C   0  0  0  0  0  0  0  0  0  0  0  0
   58.4560   32.3290   50.1410 C   0  0  0  0  0  0  0  0  0  0  0  0
   58.8630   32.8060   48.8860 C   0  0  0  0  0  0  0  0  0  0  0  0
   58.2460   32.3480   47.7120 C   0  0  0  0  0  0  0  0  0  0  0  0
   57.2610   31.2510   45.1850 O   0  0  0  0  0  0  0  0  0  0  0  0
   59.5180   29.2460   44.4870 C   0  0  0  0  0  0  0  0  0  0  0  0
   60.2460   29.5620   45.6360 C   0  0  0  0  0  0  0  0  0  0  0  0
   61.4400   30.7360   48.0740 C   0  0  0  0  0  0  0  0  0  0  0  0
   62.1700   31.0790   49.2150 C   0  0  0  0  0  0  0  0  0  0  0  0
   62.4962   30.7052   51.3246 H   0  0  0  0  0  0  0  0  0  0  0  0
   60.7345   28.9416   51.4585 H   0  0  0  0  0  0  0  0  0  0  0  0
   59.4260   28.3212   49.4289 H   0  0  0  0  0  0  0  0  0  0  0  0
   57.9682   28.6016   48.0009 H   0  0  0  0  0  0  0  0  0  0  0  0
   56.6649   28.0587   45.9500 H   0  0  0  0  0  0  0  0  0  0  0  0
   58.0196   28.6545   42.4659 H   0  0  0  0  0  0  0  0  0  0  0  0
   56.9522   27.5139   43.3844 H   0  0  0  0  0  0  0  0  0  0  0  0
   60.0073   34.1691   45.4070 H   0  0  0  0  0  0  0  0  0  0  0  0
   61.1154   34.9870   47.4828 H   0  0  0  0  0  0  0  0  0  0  0  0
   61.3413   34.9506   49.9198 H   0  0  0  0  0  0  0  0  0  0  0  0
   60.6185   34.0676   52.1395 H   0  0  0  0  0  0  0  0  0  0  0  0
   58.7766   32.3918   52.2838 H   0  0  0  0  0  0  0  0  0  0  0  0
   57.6353   31.5999   50.2110 H   0  0  0  0  0  0  0  0  0  0  0  0
   57.4384   31.6037   47.7739 H   0  0  0  0  0  0  0  0  0  0  0  0
   59.9643   29.4094   43.4950 H   0  0  0  0  0  0  0  0  0  0  0  0
   61.2591   29.9800   45.5421 H   0  0  0  0  0  0  0  0  0  0  0  0
   61.6413   31.2498   47.1224 H   0  0  0  0  0  0  0  0  0  0  0  0
   62.9442   31.8582   49.1574 H   0  0  0  0  0  0  0  0  0  0  0  0
  1  2  2  0
  2  3  1  0
  3  4  2  0
  4  5  1  0
  5  6  2  0
  6  7  1  0
  7  8  2  0
  8  9  1  0
  9 10  1  0
 10 11  1  0
 11 12  2  0
 12 13  1  0
 13 14  2  0
 14 15  1  0
 15 16  2  0
 16 17  1  0
 17 18  2  0
 18 19  1  0
 19 20  2  0
 20 21  1  0
 21 22  2  0
 22 23  1  0
 23 24  2  0
 14 25  1  0
  8 26  1  0
 26 27  2  0
  4 28  1  0
 28 29  2  0
 29  1  1  0
 27  5  1  0
 25 11  1  0
 24 15  1  0
 23 18  1  0
  1 30  1  0
  2 31  1  0
  3 32  1  0
  6 33  1  0
  7 34  1  0
  9 35  1  0
  9 36  1  0
 16 37  1  0
 17 38  1  0
 19 39  1  0
 20 40  1  0
 21 41  1  0
 22 42  1  0
 24 43  1  0
 26 44  1  0
 27 45  1  0
 28 46  1  0
 29 47  1  0
M  END
>  <UniqueID>  (45) 
37

>  <SMILES>  (45) 
c1ccc(-c2ccc(CSc3nnc(-c4ccc5ccccc5c4)o3)cc2)cc1

>  <Energy>  (45) 
89.03205123007017

>  <Genealogy>  (45) 
c1ccc(-c2ccc(CSc3nnc(-c4ccc5ccccc5c4)o3)cc2)cc1 (3D coordinates assigned)
c1ccc(-c2ccc(CSc3nnc(-c4ccc5ccccc5c4)o3)cc2)cc1 (optimized conformer: 89.03205123007017 kcal/mol)

>  <smiles>  (45) 
c1ccc(-c2ccc(CSc3nnc(-c4ccc5ccccc5c4)o3)cc2)cc1

>  <score_type>  (45) 
oracle

>  <origin>  (45) 
adg

>  <m_score__min__energy>  (45) 
-9

>  <m_primary>  (45) 
energy

$$$$
45:0
     RDKit          3D

 23 25  0  0  0  0  0  0  0  0999 V2000
   56.2660   29.7360   42.6180 S   0  0  0  0  0  0  0  0  0  0  0  0
   56.9880   29.8200   44.0960 C   0  0  0  0  0  0  0  0  0  0  0  0
   57.0480   28.6890   44.8490 N   0  0  0  0  0  0  0  0  0  0  0  0
   57.6160   28.6810   46.0520 N   0  0  0  0  0  0  0  0  0  0  0  0
   58.1660   29.7930   46.5960 C   0  0  0  0  0  0  0  0  0  0  0  0
   58.1530   31.0140   45.8890 C   0  0  0  0  0  0  0  0  0  0  0  0
   57.5450   31.0210   44.6030 C   0  0  0  0  0  0  0  0  0  0  0  0
   57.5090   32.2200   43.8640 C   0  0  0  0  0  0  0  0  0  0  0  0
   58.0580   33.3900   44.3730 C   0  0  0  0  0  0  0  0  0  0  0  0
   58.6590   33.4050   45.6340 C   0  0  0  0  0  0  0  0  0  0  0  0
   59.2060   34.6050   46.1200 C   0  0  0  0  0  0  0  0  0  0  0  0
   59.8110   34.6470   47.3730 C   0  0  0  0  0  0  0  0  0  0  0  0
   59.8780   33.4950   48.1520 C   0  0  0  0  0  0  0  0  0  0  0  0
   59.3400   32.2920   47.6860 C   0  0  0  0  0  0  0  0  0  0  0  0
   58.7180   32.2180   46.4140 C   0  0  0  0  0  0  0  0  0  0  0  0
   56.6420   27.7970   44.4880 H   0  0  0  0  0  0  0  0  0  0  0  0
   58.6252   29.7438   47.5943 H   0  0  0  0  0  0  0  0  0  0  0  0
   57.0393   32.2297   42.8694 H   0  0  0  0  0  0  0  0  0  0  0  0
   58.0191   34.3139   43.7773 H   0  0  0  0  0  0  0  0  0  0  0  0
   59.1557   35.5166   45.5065 H   0  0  0  0  0  0  0  0  0  0  0  0
   60.2360   35.5900   47.7475 H   0  0  0  0  0  0  0  0  0  0  0  0
   60.3577   33.5318   49.1412 H   0  0  0  0  0  0  0  0  0  0  0  0
   59.4000   31.3910   48.3142 H   0  0  0  0  0  0  0  0  0  0  0  0
  1  2  2  0
  2  3  1  0
  3  4  1  0
  4  5  2  0
  5  6  1  0
  6  7  2  0
  7  8  1  0
  8  9  2  0
  9 10  1  0
 10 11  2  0
 11 12  1  0
 12 13  2  0
 13 14  1  0
 14 15  2  0
  7  2  1  0
 15 10  1  0
 15  6  1  0
  3 16  1  0
  5 17  1  0
  8 18  1  0
  9 19  1  0
 11 20  1  0
 12 21  1  0
 13 22  1  0
 14 23  1  0
M  END
>  <UniqueID>  (46) 
38

>  <SMILES>  (46) 
S=c1[nH]ncc2c1ccc1ccccc12

>  <Energy>  (46) 
41.415822666675176

>  <Genealogy>  (46) 
S=c1[nH]ncc2c1ccc1ccccc12 (3D coordinates assigned)
S=c1[nH]ncc2c1ccc1ccccc12 (optimized conformer: 41.415822666675176 kcal/mol)

>  <smiles>  (46) 
S=c1[nH]ncc2c1ccc1ccccc12

>  <score_type>  (46) 
oracle

>  <origin>  (46) 
adg

>  <m_score__min__energy>  (46) 
-6.9100000000000001

>  <m_primary>  (46) 
energy

$$$$
46:0
     RDKit          3D

 29 31  0  0  0  0  0  0  0  0999 V2000
   57.3880   31.9680   41.4990 C   0  0  0  0  0  0  0  0  0  0  0  0
   57.0680   31.3310   42.7770 N   0  0  0  0  0  0  0  0  0  0  0  0
   56.2950   30.0900   42.7560 C   0  0  0  0  0  0  0  0  0  0  0  0
   57.8450   31.6450   43.9440 C   0  0  0  0  0  0  0  0  0  0  0  0
   57.8180   32.9060   44.4690 N   0  0  0  0  0  0  0  0  0  0  0  0
   58.5380   33.2410   45.5800 C   0  0  0  0  0  0  0  0  0  0  0  0
   58.4830   34.5400   46.0940 C   0  0  0  0  0  0  0  0  0  0  0  0
   59.2240   34.8740   47.2310 C   0  0  0  0  0  0  0  0  0  0  0  0
   60.0250   33.9130   47.8590 C   0  0  0  0  0  0  0  0  0  0  0  0
   60.0910   32.6090   47.3540 C   0  0  0  0  0  0  0  0  0  0  0  0
   59.3470   32.2650   46.2120 C   0  0  0  0  0  0  0  0  0  0  0  0
   59.3710   31.0180   45.6630 N   0  0  0  0  0  0  0  0  0  0  0  0
   60.0590   29.9080   46.0000 C   0  0  0  0  0  0  0  0  0  0  0  0
   59.7470   28.9240   45.0760 C   0  0  0  0  0  0  0  0  0  0  0  0
   58.8720   29.4230   44.1760 N   0  0  0  0  0  0  0  0  0  0  0  0
   58.6600   30.6940   44.5690 C   0  0  0  0  0  0  0  0  0  0  0  0
   57.8748   32.9369   41.6840 H   0  0  0  0  0  0  0  0  0  0  0  0
   58.0675   31.3198   40.9262 H   0  0  0  0  0  0  0  0  0  0  0  0
   56.4623   32.1261   40.9262 H   0  0  0  0  0  0  0  0  0  0  0  0
   56.0933   29.7662   43.7877 H   0  0  0  0  0  0  0  0  0  0  0  0
   55.3427   30.2600   42.2322 H   0  0  0  0  0  0  0  0  0  0  0  0
   56.8674   29.3103   42.2322 H   0  0  0  0  0  0  0  0  0  0  0  0
   57.8564   35.2994   45.6034 H   0  0  0  0  0  0  0  0  0  0  0  0
   59.1776   35.8964   47.6341 H   0  0  0  0  0  0  0  0  0  0  0  0
   60.6053   34.1837   48.7534 H   0  0  0  0  0  0  0  0  0  0  0  0
   60.7226   31.8565   47.8489 H   0  0  0  0  0  0  0  0  0  0  0  0
   60.7441   29.8030   46.8542 H   0  0  0  0  0  0  0  0  0  0  0  0
   60.1479   27.8997   45.0754 H   0  0  0  0  0  0  0  0  0  0  0  0
   58.4750   28.9270   43.3460 H   0  0  0  0  0  0  0  0  0  0  0  0
  1  2  1  0
  2  3  1  0
  2  4  1  0
  4  5  2  0
  5  6  1  0
  6  7  2  0
  7  8  1  0
  8  9  2  0
  9 10  1  0
 10 11  2  0
 11 12  1  0
 12 13  1  0
 13 14  2  0
 14 15  1  0
 15 16  2  0
 16  4  1  0
 11  6  1  0
 16 12  1  0
  1 17  1  0
  1 18  1  0
  1 19  1  0
  3 20  1  0
  3 21  1  0
  3 22  1  0
  7 23  1  0
  8 24  1  0
  9 25  1  0
 10 26  1  0
 13 27  1  0
 14 28  1  0
 15 29  1  0
M  CHG  1  15   1
M  END
>  <UniqueID>  (47) 
39

>  <SMILES>  (47) 
CN(C)c1nc2ccccc2n2cc[nH+]c12

>  <Energy>  (47) 
74.9454947623401

>  <Genealogy>  (47) 
CN(C)c1nc2ccccc2n2cc[nH+]c12 (protonated)
CN(C)c1nc2ccccc2n2cc[nH+]c12 (3D coordinates assigned)
CN(C)c1nc2ccccc2n2cc[nH+]c12 (optimized conformer: 74.9454947623401 kcal/mol)

>  <smiles>  (47) 
CN(C)c1nc2ccccc2n2ccnc12

>  <score_type>  (47) 
oracle

>  <origin>  (47) 
adg

>  <m_score__min__energy>  (47) 
-4.3700000000000001

>  <m_primary>  (47) 
energy

$$$$
47:0
     RDKit          3D

 26 27  0  0  0  0  0  0  0  0999 V2000
   55.1570   29.3270   44.8810 O   0  0  0  0  0  0  0  0  0  0  0  0
   56.4040   29.9530   44.3270 S   0  0  0  0  0  0  0  0  0  0  0  0
   56.3420   29.9230   42.8250 O   0  0  0  0  0  0  0  0  0  0  0  0
   56.5120   31.6000   44.8720 N   0  0  0  0  0  0  0  0  0  0  0  0
   57.6800   32.2440   44.2790 C   0  0  0  0  0  0  0  0  0  0  0  0
   58.3070   33.1550   45.2940 C   0  0  0  0  0  0  0  0  0  0  0  0
   58.2240   32.8560   46.6640 C   0  0  0  0  0  0  0  0  0  0  0  0
   58.8390   33.6880   47.6040 C   0  0  0  0  0  0  0  0  0  0  0  0
   59.5490   34.8160   47.1830 C   0  0  0  0  0  0  0  0  0  0  0  0
   59.6490   35.1120   45.8200 C   0  0  0  0  0  0  0  0  0  0  0  0
   59.0350   34.2810   44.8770 C   0  0  0  0  0  0  0  0  0  0  0  0
   57.7990   29.0460   44.8830 C   0  0  0  0  0  0  0  0  0  0  0  0
   59.1150   29.2640   44.5070 C   0  0  0  0  0  0  0  0  0  0  0  0
   60.0100   28.3850   45.1280 C   0  0  0  0  0  0  0  0  0  0  0  0
   59.3990   27.4820   45.9900 C   0  0  0  0  0  0  0  0  0  0  0  0
   57.7410   27.7760   45.9800 S   0  0  0  0  0  0  0  0  0  0  0  0
   58.4073   31.4777   43.9728 H   0  0  0  0  0  0  0  0  0  0  0  0
   57.3743   32.8263   43.3972 H   0  0  0  0  0  0  0  0  0  0  0  0
   57.6733   31.9643   46.9982 H   0  0  0  0  0  0  0  0  0  0  0  0
   58.7641   33.4547   48.6764 H   0  0  0  0  0  0  0  0  0  0  0  0
   60.0294   35.4713   47.9244 H   0  0  0  0  0  0  0  0  0  0  0  0
   60.2105   35.9983   45.4894 H   0  0  0  0  0  0  0  0  0  0  0  0
   59.1228   34.5105   43.8048 H   0  0  0  0  0  0  0  0  0  0  0  0
   59.4234   30.0448   43.7961 H   0  0  0  0  0  0  0  0  0  0  0  0
   61.0953   28.4069   44.9504 H   0  0  0  0  0  0  0  0  0  0  0  0
   59.9115   26.7069   46.5788 H   0  0  0  0  0  0  0  0  0  0  0  0
  1  2  2  0
  2  3  2  0
  2  4  1  0
  4  5  1  0
  5  6  1  0
  6  7  2  0
  7  8  1  0
  8  9  2  0
  9 10  1  0
 10 11  2  0
  2 12  1  0
 12 13  2  0
 13 14  1  0
 14 15  2  0
 15 16  1  0
 11  6  1  0
 16 12  1  0
  5 17  1  0
  5 18  1  0
  7 19  1  0
  8 20  1  0
  9 21  1  0
 10 22  1  0
 11 23  1  0
 13 24  1  0
 14 25  1  0
 15 26  1  0
M  CHG  1   4  -1
M  END
>  <UniqueID>  (48) 
40

>  <SMILES>  (48) 
O=S(=O)([N-]Cc1ccccc1)c1cccs1

>  <Energy>  (48) 
49.96429945164115

>  <Genealogy>  (48) 
O=S(=O)([N-]Cc1ccccc1)c1cccs1 (protonated)
O=S(=O)([N-]Cc1ccccc1)c1cccs1 (3D coordinates assigned)
O=S(=O)([N-]Cc1ccccc1)c1cccs1 (optimized conformer: 49.96429945164115 kcal/mol)

>  <smiles>  (48) 
O=S(=O)(NCc1ccccc1)c1cccs1

>  <score_type>  (48) 
oracle

>  <origin>  (48) 
adg

>  <m_score__min__energy>  (48) 
-8.5899999999999999

>  <m_primary>  (48) 
energy

$$$$
48:0
     RDKit          3D

 43 45  0  0  0  0  0  0  0  0999 V2000
   59.6170   27.7250   45.6540 C   0  0  0  0  0  0  0  0  0  0  0  0
   59.5140   28.6830   44.4750 C   0  0  0  0  0  0  0  0  0  0  0  0
   58.1620   29.2380   44.3840 N   0  0  0  0  0  0  0  0  0  0  0  0
   57.2850   29.0080   43.3920 C   0  0  0  0  0  0  0  0  0  0  0  0
   56.1540   29.7540   43.6370 C   0  0  0  0  0  0  0  0  0  0  0  0
   56.3160   30.4620   44.7720 N   0  0  0  0  0  0  0  0  0  0  0  0
   57.5550   30.1330   45.1980 C   0  0  0  0  0  0  0  0  0  0  0  0
   58.1450   30.6970   46.4610 C   0  0  0  0  0  0  0  0  0  0  0  0
   58.7000   32.0420   46.2110 N   0  0  0  0  0  0  0  0  0  0  0  0
   57.6810   32.9480   45.6460 C   0  0  0  0  0  0  0  0  0  0  0  0
   58.3400   34.2460   45.1440 C   0  0  0  0  0  0  0  0  0  0  0  0
   59.6230   34.5900   45.9200 C   0  0  0  0  0  0  0  0  0  0  0  0
   59.5170   34.1350   47.3830 C   0  0  2  0  0  0  0  0  0  0  0  0
   60.7630   34.5610   48.1800 C   0  0  0  0  0  0  0  0  0  0  0  0
   61.9080   33.7190   47.8400 N   0  0  0  0  0  0  0  0  0  0  0  0
   62.6910   33.8430   46.7520 C   0  0  0  0  0  0  0  0  0  0  0  0
   63.6260   32.8320   46.7760 C   0  0  0  0  0  0  0  0  0  0  0  0
   63.3430   32.1170   47.9240 C   0  0  0  0  0  0  0  0  0  0  0  0
   62.2900   32.6720   48.5540 N   0  0  0  0  0  0  0  0  0  0  0  0
   59.2730   32.6000   47.4590 C   0  0  0  0  0  0  0  0  0  0  0  0
   59.5560   28.2927   46.5942 H   0  0  0  0  0  0  0  0  0  0  0  0
   58.7917   26.9991   45.6098 H   0  0  0  0  0  0  0  0  0  0  0  0
   60.5777   27.1911   45.6098 H   0  0  0  0  0  0  0  0  0  0  0  0
   60.2341   29.5034   44.6108 H   0  0  0  0  0  0  0  0  0  0  0  0
   59.7369   28.1335   43.5485 H   0  0  0  0  0  0  0  0  0  0  0  0
   57.4434   28.3394   42.5330 H   0  0  0  0  0  0  0  0  0  0  0  0
   55.2553   29.7696   43.0029 H   0  0  0  0  0  0  0  0  0  0  0  0
   57.3605   30.7651   47.2291 H   0  0  0  0  0  0  0  0  0  0  0  0
   58.9530   30.0348   46.8054 H   0  0  0  0  0  0  0  0  0  0  0  0
   57.1770   32.4483   44.8056 H   0  0  0  0  0  0  0  0  0  0  0  0
   56.9499   33.1974   46.4292 H   0  0  0  0  0  0  0  0  0  0  0  0
   58.5921   34.1257   44.0801 H   0  0  0  0  0  0  0  0  0  0  0  0
   57.6243   35.0670   45.2981 H   0  0  0  0  0  0  0  0  0  0  0  0
   60.4771   34.0838   45.4464 H   0  0  0  0  0  0  0  0  0  0  0  0
   59.7639   35.6808   45.9004 H   0  0  0  0  0  0  0  0  0  0  0  0
   58.6512   34.6309   47.8460 H   0  0  0  0  0  0  0  0  0  0  0  0
   61.0022   35.6082   47.9432 H   0  0  0  0  0  0  0  0  0  0  0  0
   60.5501   34.4509   49.2536 H   0  0  0  0  0  0  0  0  0  0  0  0
   62.5998   34.6184   45.9771 H   0  0  0  0  0  0  0  0  0  0  0  0
   64.4225   32.6368   46.0429 H   0  0  0  0  0  0  0  0  0  0  0  0
   63.8936   31.2300   48.2704 H   0  0  0  0  0  0  0  0  0  0  0  0
   60.2335   32.1018   47.6571 H   0  0  0  0  0  0  0  0  0  0  0  0
   58.5445   32.4222   48.2637 H   0  0  0  0  0  0  0  0  0  0  0  0
  1  2  1  0
  2  3  1  0
  3  4  1  0
  4  5  2  0
  5  6  1  0
  6  7  2  0
  7  8  1  0
  8  9  1  0
  9 10  1  0
 10 11  1  0
 11 12  1  0
 12 13  1  0
 13 14  1  0
 14 15  1  0
 15 16  1  0
 16 17  2  0
 17 18  1  0
 18 19  2  0
 13 20  1  0
  7  3  1  0
 20  9  1  0
 19 15  1  0
  1 21  1  0
  1 22  1  0
  1 23  1  0
  2 24  1  0
  2 25  1  0
  4 26  1  0
  5 27  1  0
  8 28  1  0
  8 29  1  0
 10 30  1  0
 10 31  1  0
 11 32  1  0
 11 33  1  0
 12 34  1  0
 12 35  1  0
 13 36  1  1
 14 37  1  0
 14 38  1  0
 16 39  1  0
 17 40  1  0
 18 41  1  0
 20 42  1  0
 20 43  1  0
M  END
>  <UniqueID>  (49) 
41

>  <SMILES>  (49) 
CCn1ccnc1CN1CCC[C@H](Cn2cccn2)C1

>  <Energy>  (49) 
100.98786018485015

>  <Genealogy>  (49) 
CCn1ccnc1CN1CCC[C@H](Cn2cccn2)C1 (chirality)
CCn1ccnc1CN1CCC[C@H](Cn2cccn2)C1 (3D coordinates assigned)
CCn1ccnc1CN1CCC[C@H](Cn2cccn2)C1 (nonaromatic ring conformer: 100.98786018485015 kcal/mol)

>  <smiles>  (49) 
CCn1ccnc1CN1CCCC(Cn2cccn2)C1

>  <score_type>  (49) 
oracle

>  <origin>  (49) 
adg

>  <m_score__min__energy>  (49) 
-7.0999999999999996

>  <m_primary>  (49) 
energy

$$$$
49:0
     RDKit          3D

 37 38  0  0  0  0  0  0  0  0999 V2000
   60.5870   30.6230   47.2650 C   0  0  0  0  0  0  0  0  0  0  0  0
   59.6780   31.6740   47.5760 O   0  0  0  0  0  0  0  0  0  0  0  0
   59.3050   32.6920   46.6830 C   0  0  0  0  0  0  0  0  0  0  0  0
   60.0460   33.8840   46.5570 C   0  0  0  0  0  0  0  0  0  0  0  0
   59.6420   34.8740   45.6590 C   0  0  0  0  0  0  0  0  0  0  0  0
   58.5020   34.6870   44.8780 C   0  0  0  0  0  0  0  0  0  0  0  0
   57.7600   33.5100   44.9920 C   0  0  0  0  0  0  0  0  0  0  0  0
   58.1540   32.5060   45.8970 C   0  0  0  0  0  0  0  0  0  0  0  0
   57.4100   31.2870   46.0430 N   0  0  0  0  0  0  0  0  0  0  0  0
   57.0970   30.1420   44.7780 S   0  0  0  0  0  0  0  0  0  0  0  0
   55.6160   30.0740   44.5340 O   0  0  0  0  0  0  0  0  0  0  0  0
   57.7810   30.6000   43.5220 O   0  0  0  0  0  0  0  0  0  0  0  0
   57.7280   28.5610   45.2270 C   0  0  0  0  0  0  0  0  0  0  0  0
   56.8500   27.5370   45.5990 C   0  0  0  0  0  0  0  0  0  0  0  0
   57.3460   26.2770   45.9450 C   0  0  0  0  0  0  0  0  0  0  0  0
   58.7240   26.0250   45.9250 C   0  0  0  0  0  0  0  0  0  0  0  0
   59.1840   24.7140   46.2840 N   0  0  0  0  0  0  0  0  0  0  0  0
   58.6040   23.2190   45.6230 S   0  0  0  0  0  0  0  0  0  0  0  0
   57.6270   23.5310   44.1680 C   0  0  0  0  0  0  0  0  0  0  0  0
   59.7610   22.3170   45.2970 O   0  0  0  0  0  0  0  0  0  0  0  0
   57.7380   22.5430   46.6480 O   0  0  0  0  0  0  0  0  0  0  0  0
   59.6050   27.0590   45.5590 C   0  0  0  0  0  0  0  0  0  0  0  0
   59.1080   28.3180   45.2130 C   0  0  0  0  0  0  0  0  0  0  0  0
   60.9692   30.1810   48.1970 H   0  0  0  0  0  0  0  0  0  0  0  0
   60.0677   29.8505   46.6789 H   0  0  0  0  0  0  0  0  0  0  0  0
   61.4263   31.0256   46.6789 H   0  0  0  0  0  0  0  0  0  0  0  0
   60.9473   34.0353   47.1692 H   0  0  0  0  0  0  0  0  0  0  0  0
   60.2240   35.8030   45.5675 H   0  0  0  0  0  0  0  0  0  0  0  0
   58.1868   35.4683   44.1708 H   0  0  0  0  0  0  0  0  0  0  0  0
   56.8630   33.3663   44.3717 H   0  0  0  0  0  0  0  0  0  0  0  0
   55.7662   27.7242   45.6192 H   0  0  0  0  0  0  0  0  0  0  0  0
   56.6491   25.4770   46.2353 H   0  0  0  0  0  0  0  0  0  0  0  0
   56.6183   23.8531   44.4658 H   0  0  0  0  0  0  0  0  0  0  0  0
   58.1027   24.3219   43.5695 H   0  0  0  0  0  0  0  0  0  0  0  0
   57.5563   22.6108   43.5695 H   0  0  0  0  0  0  0  0  0  0  0  0
   60.6895   26.8754   45.5452 H   0  0  0  0  0  0  0  0  0  0  0  0
   59.8028   29.1219   44.9284 H   0  0  0  0  0  0  0  0  0  0  0  0
  1  2  1  0
  2  3  1  0
  3  4  2  0
  4  5  1  0
  5  6  2  0
  6  7  1  0
  7  8  2  0
  8  9  1  0
  9 10  1  0
 10 11  2  0
 10 12  2  0
 10 13  1  0
 13 14  2  0
 14 15  1  0
 15 16  2  0
 16 17  1  0
 17 18  1  0
 18 19  1  0
 18 20  2  0
 18 21  2  0
 16 22  1  0
 22 23  2  0
  8  3  1  0
 23 13  1  0
  1 24  1  0
  1 25  1  0
  1 26  1  0
  4 27  1  0
  5 28  1  0
  6 29  1  0
  7 30  1  0
 14 31  1  0
 15 32  1  0
 19 33  1  0
 19 34  1  0
 19 35  1  0
 22 36  1  0
 23 37  1  0
M  CHG  2   9  -1  17  -1
M  END
>  <UniqueID>  (50) 
42

>  <SMILES>  (50) 
COc1ccccc1[N-]S(=O)(=O)c1ccc([N-]S(C)(=O)=O)cc1

>  <Energy>  (50) 
38.96440244004376

>  <Genealogy>  (50) 
COc1ccccc1[N-]S(=O)(=O)c1ccc([N-]S(C)(=O)=O)cc1 (protonated)
COc1ccccc1[N-]S(=O)(=O)c1ccc([N-]S(C)(=O)=O)cc1 (3D coordinates assigned)
COc1ccccc1[N-]S(=O)(=O)c1ccc([N-]S(C)(=O)=O)cc1 (optimized conformer: 38.96440244004376 kcal/mol)

>  <smiles>  (50) 
COc1ccccc1NS(=O)(=O)c1ccc(NS(C)(=O)=O)cc1

>  <score_type>  (50) 
oracle

>  <origin>  (50) 
adg

>  <m_score__min__energy>  (50) 
-10.56

>  <m_primary>  (50) 
energy

$$$$
50:0
     RDKit          3D

 54 58  0  0  0  0  0  0  0  0999 V2000
   55.5020   25.8150   47.1890 H   0  0  0  0  0  0  0  0  0  0  0  0
   56.1400   25.1600   46.8030 O   0  0  0  0  0  0  0  0  0  0  0  0
   57.2130   25.8780   46.2450 C   0  0  2  0  0  0  0  0  0  0  0  0
   58.0904   25.5468   46.8198 H   0  0  0  0  0  0  0  0  0  0  0  0
   57.0250   27.3910   46.3590 C   0  0  0  0  0  0  0  0  0  0  0  0
   55.9607   27.6373   46.4876 H   0  0  0  0  0  0  0  0  0  0  0  0
   57.5574   27.8035   47.2287 H   0  0  0  0  0  0  0  0  0  0  0  0
   57.5270   27.9420   45.1080 N   0  0  0  0  0  0  0  0  0  0  0  0
   57.6820   29.3600   44.8550 C   0  0  0  0  0  0  0  0  0  0  0  0
   57.0540   29.9660   43.7470 C   0  0  0  0  0  0  0  0  0  0  0  0
   56.4418   29.3543   43.0680 H   0  0  0  0  0  0  0  0  0  0  0  0
   57.2000   31.3350   43.5010 C   0  0  0  0  0  0  0  0  0  0  0  0
   56.7040   31.7941   42.6331 H   0  0  0  0  0  0  0  0  0  0  0  0
   57.9770   32.1200   44.3590 C   0  0  0  0  0  0  0  0  0  0  0  0
   58.1490   33.4920   44.1500 C   0  0  0  0  0  0  0  0  0  0  0  0
   57.6711   33.9836   43.2898 H   0  0  0  0  0  0  0  0  0  0  0  0
   58.9090   34.2160   45.0140 N   0  0  0  0  0  0  0  0  0  0  0  0
   59.5090   33.6360   46.0860 C   0  0  0  0  0  0  0  0  0  0  0  0
   60.2390   34.3640   46.8780 N   0  0  0  0  0  0  0  0  0  0  0  0
   61.3470   33.8920   47.6640 C   0  0  0  0  0  0  0  0  0  0  0  0
   62.5380   33.5690   47.0090 C   0  0  0  0  0  0  0  0  0  0  0  0
   62.6061   33.6783   45.9166 H   0  0  0  0  0  0  0  0  0  0  0  0
   63.6420   33.1090   47.7280 C   0  0  0  0  0  0  0  0  0  0  0  0
   64.5677   32.8451   47.1956 H   0  0  0  0  0  0  0  0  0  0  0  0
   63.5820   32.9800   49.1250 C   0  0  0  0  0  0  0  0  0  0  0  0
   64.7560   32.4830   49.8880 C   0  0  0  0  0  0  0  0  0  0  0  0
   64.8560   31.3090   50.6220 C   0  0  0  0  0  0  0  0  0  0  0  0
   64.0580   30.5602   50.7334 H   0  0  0  0  0  0  0  0  0  0  0  0
   66.0810   31.2280   51.1770 N   0  0  0  0  0  0  0  0  0  0  0  0
   66.7590   32.3020   50.8060 N   0  0  0  0  0  0  0  0  0  0  0  0
   68.1090   32.6050   51.2580 C   0  0  0  0  0  0  0  0  0  0  0  0
   68.1348   32.6108   52.3577 H   0  0  0  0  0  0  0  0  0  0  0  0
   68.8029   31.8403   50.8790 H   0  0  0  0  0  0  0  0  0  0  0  0
   68.4095   33.5929   50.8790 H   0  0  0  0  0  0  0  0  0  0  0  0
   65.9900   33.0940   50.0380 C   0  0  0  0  0  0  0  0  0  0  0  0
   66.2891   34.0596   49.6042 H   0  0  0  0  0  0  0  0  0  0  0  0
   62.3940   33.3400   49.7890 C   0  0  0  0  0  0  0  0  0  0  0  0
   62.3356   33.2495   50.8837 H   0  0  0  0  0  0  0  0  0  0  0  0
   61.2780   33.8150   49.0700 C   0  0  0  0  0  0  0  0  0  0  0  0
   60.1040   34.2340   49.7180 O   0  0  0  0  0  0  0  0  0  0  0  0
   59.4080   33.4790   50.7030 C   0  0  0  0  0  0  0  0  0  0  0  0
   59.7153   33.8123   51.7052 H   0  0  0  0  0  0  0  0  0  0  0  0
   58.3250   33.6293   50.5826 H   0  0  0  0  0  0  0  0  0  0  0  0
   59.6457   32.4118   50.5826 H   0  0  0  0  0  0  0  0  0  0  0  0
   59.3640   32.2970   46.2970 N   0  0  0  0  0  0  0  0  0  0  0  0
   58.6120   31.5300   45.4660 C   0  0  0  0  0  0  0  0  0  0  0  0
   58.4650   30.1610   45.7110 C   0  0  0  0  0  0  0  0  0  0  0  0
   58.9644   29.7054   46.5788 H   0  0  0  0  0  0  0  0  0  0  0  0
   57.8630   26.9040   44.1430 C   0  0  0  0  0  0  0  0  0  0  0  0
   57.3471   27.0885   43.1892 H   0  0  0  0  0  0  0  0  0  0  0  0
   58.9427   26.8852   43.9336 H   0  0  0  0  0  0  0  0  0  0  0  0
   57.3920   25.5890   44.7530 C   0  0  0  0  0  0  0  0  0  0  0  0
   56.4380   25.2757   44.3039 H   0  0  0  0  0  0  0  0  0  0  0  0
   58.1095   24.7742   44.5760 H   0  0  0  0  0  0  0  0  0  0  0  0
  1  2  1  0
  2  3  1  0
  3  4  1  1
  3  5  1  0
  5  6  1  0
  5  7  1  0
  5  8  1  0
  8  9  1  0
  9 10  1  0
 10 11  1  0
 10 12  2  0
 12 13  1  0
 12 14  1  0
 14 15  2  0
 15 16  1  0
 15 17  1  0
 17 18  1  0
 18 19  2  0
 19 20  1  0
 20 21  2  0
 21 22  1  0
 21 23  1  0
 23 24  1  0
 23 25  2  0
 25 26  1  0
 26 27  1  0
 27 28  1  0
 27 29  2  0
 29 30  1  0
 30 31  1  0
 31 32  1  0
 31 33  1  0
 31 34  1  0
 30 35  1  0
 35 36  1  0
 25 37  1  0
 37 38  1  0
 37 39  2  0
 39 40  1  0
 40 41  1  0
 41 42  1  0
 41 43  1  0
 41 44  1  0
 18 45  1  0
 45 46  2  0
 46 47  1  0
 47 48  1  0
  8 49  1  0
 49 50  1  0
 49 51  1  0
 49 52  1  0
 52 53  1  0
 52 54  1  0
 52  3  1  0
 47  9  2  0
 46 14  1  0
 39 20  1  0
 35 26  2  0
M  CHG  1  17  -1
M  END
>  <UniqueID>  (51) 
43

>  <SMILES>  (51) 
COc1cc(-c2cnn(C)c2)ccc1/N=c1\nc2cc(N3CC[C@H](O)C3)ccc2c[n-]1

>  <Energy>  (51) 
103.80709628627504

>  <Genealogy>  (51) 
COc1cc(-c2cnn(C)c2)ccc1N=c1nc2cc(N3CCC(O)C3)ccc2c[n-]1 (protonated)
COc1cc(-c2cnn(C)c2)ccc1N=c1nc2cc(N3CC[C@H](O)C3)ccc2c[n-]1 (chirality)
COc1cc(-c2cnn(C)c2)ccc1/N=c1\nc2cc(N3CC[C@H](O)C3)ccc2c[n-]1 (cis-trans isomerization)
COc1cc(-c2cnn(C)c2)ccc1/N=c1\nc2cc(N3CC[C@H](O)C3)ccc2c[n-]1 (3D coordinates assigned)
COc1cc(-c2cnn(C)c2)ccc1/N=c1\nc2cc(N3CC[C@H](O)C3)ccc2c[n-]1 (nonaromatic ring conformer: 103.80709628627504 kcal/mol)

>  <smiles>  (51) 
COc1cc(-c2cnn(C)c2)ccc1N=c1nc2cc(N3CCC(O)C3)ccc2c[nH]1

>  <score_type>  (51) 
oracle

>  <origin>  (51) 
adg

>  <m_score__min__energy>  (51) 
-9.8900000000000006

>  <m_primary>  (51) 
energy

$$$$
51:0
     RDKit          3D

 34 36  0  0  0  0  0  0  0  0999 V2000
   60.8700   29.9960   46.9250 C   0  0  0  0  0  0  0  0  0  0  0  0
   59.7730   29.6620   45.9660 C   0  0  0  0  0  0  0  0  0  0  0  0
   59.3590   28.3140   45.7990 C   0  0  0  0  0  0  0  0  0  0  0  0
   58.3340   27.9970   44.8800 C   0  0  0  0  0  0  0  0  0  0  0  0
   57.8880   26.5830   44.6550 C   0  0  0  0  0  0  0  0  0  0  0  0
   57.7810   29.0600   44.1650 C   0  0  0  0  0  0  0  0  0  0  0  0
   56.8380   29.0470   43.2050 N   0  0  0  0  0  0  0  0  0  0  0  0
   56.7200   30.3460   42.8300 C   0  0  0  0  0  0  0  0  0  0  0  0
   57.5450   31.1640   43.5330 N   0  0  0  0  0  0  0  0  0  0  0  0
   57.7590   32.5950   43.3310 C   0  0  0  0  0  0  0  0  0  0  0  0
   58.1320   33.2450   44.6340 C   0  0  0  0  0  0  0  0  0  0  0  0
   59.2750   34.0580   44.7160 C   0  0  0  0  0  0  0  0  0  0  0  0
   59.6460   34.6290   45.9370 C   0  0  0  0  0  0  0  0  0  0  0  0
   58.8880   34.3840   47.0850 C   0  0  0  0  0  0  0  0  0  0  0  0
   59.2510   34.9370   48.2680 F   0  0  0  0  0  0  0  0  0  0  0  0
   57.7570   33.5650   47.0140 C   0  0  0  0  0  0  0  0  0  0  0  0
   57.3820   32.9920   45.7940 C   0  0  0  0  0  0  0  0  0  0  0  0
   58.2070   30.3360   44.3550 C   0  0  0  0  0  0  0  0  0  0  0  0
   59.1900   30.6580   45.2300 N   0  0  0  0  0  0  0  0  0  0  0  0
   60.5026   29.8841   47.9558 H   0  0  0  0  0  0  0  0  0  0  0  0
   61.7189   29.3156   46.7624 H   0  0  0  0  0  0  0  0  0  0  0  0
   61.1957   31.0340   46.7624 H   0  0  0  0  0  0  0  0  0  0  0  0
   59.8369   27.5158   46.3858 H   0  0  0  0  0  0  0  0  0  0  0  0
   57.7321   26.0889   45.6253 H   0  0  0  0  0  0  0  0  0  0  0  0
   56.9458   26.5816   44.0873 H   0  0  0  0  0  0  0  0  0  0  0  0
   58.6589   26.0413   44.0873 H   0  0  0  0  0  0  0  0  0  0  0  0
   56.3280   28.2250   42.8120 H   0  0  0  0  0  0  0  0  0  0  0  0
   56.0336   30.6966   42.0452 H   0  0  0  0  0  0  0  0  0  0  0  0
   58.5708   32.7434   42.6037 H   0  0  0  0  0  0  0  0  0  0  0  0
   56.8322   33.0499   42.9514 H   0  0  0  0  0  0  0  0  0  0  0  0
   59.8799   34.2458   43.8166 H   0  0  0  0  0  0  0  0  0  0  0  0
   60.5364   35.2724   45.9941 H   0  0  0  0  0  0  0  0  0  0  0  0
   57.1615   33.3710   47.9183 H   0  0  0  0  0  0  0  0  0  0  0  0
   56.4967   32.3411   45.7432 H   0  0  0  0  0  0  0  0  0  0  0  0
  1  2  1  0
  2  3  2  0
  3  4  1  0
  4  5  1  0
  4  6  2  0
  6  7  1  0
  7  8  2  0
  8  9  1  0
  9 10  1  0
 10 11  1  0
 11 12  2  0
 12 13  1  0
 13 14  2  0
 14 15  1  0
 14 16  1  0
 16 17  2  0
  9 18  1  0
 18 19  2  0
 19  2  1  0
 18  6  1  0
 17 11  1  0
  1 20  1  0
  1 21  1  0
  1 22  1  0
  3 23  1  0
  5 24  1  0
  5 25  1  0
  5 26  1  0
  7 27  1  0
  8 28  1  0
 10 29  1  0
 10 30  1  0
 12 31  1  0
 13 32  1  0
 16 33  1  0
 17 34  1  0
M  CHG  1   7   1
M  END
>  <UniqueID>  (52) 
44

>  <SMILES>  (52) 
Cc1cc(C)c2[nH+]cn(Cc3ccc(F)cc3)c2n1

>  <Energy>  (52) 
73.02131765024515

>  <Genealogy>  (52) 
Cc1cc(C)c2[nH+]cn(Cc3ccc(F)cc3)c2n1 (protonated)
Cc1cc(C)c2[nH+]cn(Cc3ccc(F)cc3)c2n1 (3D coordinates assigned)
Cc1cc(C)c2[nH+]cn(Cc3ccc(F)cc3)c2n1 (optimized conformer: 73.02131765024515 kcal/mol)

>  <smiles>  (52) 
Cc1cc(C)c2ncn(Cc3ccc(F)cc3)c2n1

>  <score_type>  (52) 
oracle

>  <origin>  (52) 
adg

>  <m_score__min__energy>  (52) 
-5.5899999999999999

>  <m_primary>  (52) 
energy

$$$$
52:0
     RDKit          3D

 42 44  0  0  0  0  0  0  0  0999 V2000
   58.5830   24.3780   45.7570 C   0  0  0  0  0  0  0  0  0  0  0  0
   58.0120   25.4790   46.4560 O   0  0  0  0  0  0  0  0  0  0  0  0
   57.9060   26.7800   45.9370 C   0  0  0  0  0  0  0  0  0  0  0  0
   59.0380   27.5490   45.6120 C   0  0  0  0  0  0  0  0  0  0  0  0
   58.8930   28.8390   45.0970 C   0  0  0  0  0  0  0  0  0  0  0  0
   57.6160   29.3820   44.8850 C   0  0  0  0  0  0  0  0  0  0  0  0
   57.4520   30.7570   44.3540 C   0  0  0  0  0  0  0  0  0  0  0  0
   56.8450   30.9190   43.2610 O   0  0  0  0  0  0  0  0  0  0  0  0
   57.9770   31.9490   45.0640 C   0  0  0  0  0  0  0  0  0  0  0  0
   57.1950   33.1010   45.2240 C   0  0  0  0  0  0  0  0  0  0  0  0
   57.7040   34.2000   45.9100 C   0  0  0  0  0  0  0  0  0  0  0  0
   58.9930   34.1460   46.4470 C   0  0  0  0  0  0  0  0  0  0  0  0
   59.4500   35.1590   47.0450 O   0  0  0  0  0  0  0  0  0  0  0  0
   59.7510   33.0090   46.3120 N   0  0  0  0  0  0  0  0  0  0  0  0
   61.0760   32.9320   46.8770 C   0  0  0  0  0  0  0  0  0  0  0  0
   62.0720   33.8380   46.4730 C   0  0  0  0  0  0  0  0  0  0  0  0
   63.3590   33.7590   47.0130 C   0  0  0  0  0  0  0  0  0  0  0  0
   63.6620   32.7730   47.9580 C   0  0  0  0  0  0  0  0  0  0  0  0
   62.6790   31.8660   48.3630 C   0  0  0  0  0  0  0  0  0  0  0  0
   61.3900   31.9420   47.8240 C   0  0  0  0  0  0  0  0  0  0  0  0
   59.2600   31.9250   45.6350 C   0  0  0  0  0  0  0  0  0  0  0  0
   56.4860   28.6210   45.2240 C   0  0  0  0  0  0  0  0  0  0  0  0
   56.6240   27.3180   45.7450 C   0  0  0  0  0  0  0  0  0  0  0  0
   55.5130   26.5290   46.0820 O   0  0  0  0  0  0  0  0  0  0  0  0
   55.3060   25.1930   45.6360 C   0  0  0  0  0  0  0  0  0  0  0  0
   58.9645   23.6424   46.4805 H   0  0  0  0  0  0  0  0  0  0  0  0
   57.8155   23.9070   45.1252 H   0  0  0  0  0  0  0  0  0  0  0  0
   59.4101   24.7339   45.1252 H   0  0  0  0  0  0  0  0  0  0  0  0
   60.0442   27.1315   45.7645 H   0  0  0  0  0  0  0  0  0  0  0  0
   59.7861   29.4340   44.8557 H   0  0  0  0  0  0  0  0  0  0  0  0
   56.1778   33.1367   44.8069 H   0  0  0  0  0  0  0  0  0  0  0  0
   57.0939   35.1076   46.0290 H   0  0  0  0  0  0  0  0  0  0  0  0
   61.8375   34.6129   45.7283 H   0  0  0  0  0  0  0  0  0  0  0  0
   64.1336   34.4723   46.6948 H   0  0  0  0  0  0  0  0  0  0  0  0
   64.6749   32.7116   48.3826 H   0  0  0  0  0  0  0  0  0  0  0  0
   62.9189   31.0915   49.1063 H   0  0  0  0  0  0  0  0  0  0  0  0
   60.6196   31.2244   48.1426 H   0  0  0  0  0  0  0  0  0  0  0  0
   59.8798   31.0215   45.5368 H   0  0  0  0  0  0  0  0  0  0  0  0
   55.4815   29.0461   45.0816 H   0  0  0  0  0  0  0  0  0  0  0  0
   55.2029   24.5278   46.5060 H   0  0  0  0  0  0  0  0  0  0  0  0
   54.3900   25.1470   45.0287 H   0  0  0  0  0  0  0  0  0  0  0  0
   56.1651   24.8719   45.0287 H   0  0  0  0  0  0  0  0  0  0  0  0
  1  2  1  0
  2  3  1  0
  3  4  2  0
  4  5  1  0
  5  6  2  0
  6  7  1  0
  7  8  2  0
  7  9  1  0
  9 10  1  0
 10 11  2  0
 11 12  1  0
 12 13  2  0
 12 14  1  0
 14 15  1  0
 15 16  2  0
 16 17  1  0
 17 18  2  0
 18 19  1  0
 19 20  2  0
 14 21  1  0
  6 22  1  0
 22 23  2  0
 23 24  1  0
 24 25  1  0
 23  3  1  0
 21  9  2  0
 20 15  1  0
  1 26  1  0
  1 27  1  0
  1 28  1  0
  4 29  1  0
  5 30  1  0
 10 31  1  0
 11 32  1  0
 16 33  1  0
 17 34  1  0
 18 35  1  0
 19 36  1  0
 20 37  1  0
 21 38  1  0
 22 39  1  0
 25 40  1  0
 25 41  1  0
 25 42  1  0
M  END
>  <UniqueID>  (53) 
45

>  <SMILES>  (53) 
COc1ccc(C(=O)c2ccc(=O)n(-c3ccccc3)c2)cc1OC

>  <Energy>  (53) 
58.790642714021494

>  <Genealogy>  (53) 
COc1ccc(C(=O)c2ccc(=O)n(-c3ccccc3)c2)cc1OC (3D coordinates assigned)
COc1ccc(C(=O)c2ccc(=O)n(-c3ccccc3)c2)cc1OC (optimized conformer: 58.790642714021494 kcal/mol)

>  <smiles>  (53) 
COc1ccc(C(=O)c2ccc(=O)n(-c3ccccc3)c2)cc1OC

>  <score_type>  (53) 
oracle

>  <origin>  (53) 
adg

>  <m_score__min__energy>  (53) 
-7.9900000000000002

>  <m_primary>  (53) 
energy

$$$$
53:0
     RDKit          3D

 21 21  0  0  0  0  0  0  0  0999 V2000
   55.1470   29.3010   44.8720 F   0  0  0  0  0  0  0  0  0  0  0  0
   55.7380   30.0120   43.8440 C   0  0  0  0  0  0  0  0  0  0  0  0
   57.2440   30.1090   44.0900 C   0  0  0  0  0  0  0  0  0  0  0  0
   57.7720   31.5520   43.9740 C   0  0  0  0  0  0  0  0  0  0  0  0
   57.0640   32.5400   44.9130 C   0  0  0  0  0  0  0  0  0  0  0  0
   58.0060   33.4770   45.5210 N   0  0  0  0  0  0  0  0  0  0  0  0
   58.9340   34.2140   44.8920 C   0  0  0  0  0  0  0  0  0  0  0  0
   59.5960   34.9580   45.8430 C   0  0  0  0  0  0  0  0  0  0  0  0
   59.0850   34.6920   47.0630 N   0  0  0  0  0  0  0  0  0  0  0  0
   58.1140   33.7840   46.8280 C   0  0  0  0  0  0  0  0  0  0  0  0
   55.5550   29.4967   42.8895 H   0  0  0  0  0  0  0  0  0  0  0  0
   55.3076   31.0235   43.8036 H   0  0  0  0  0  0  0  0  0  0  0  0
   57.4605   29.7350   45.1015 H   0  0  0  0  0  0  0  0  0  0  0  0
   57.7469   29.5074   43.3185 H   0  0  0  0  0  0  0  0  0  0  0  0
   58.8453   31.5506   44.2150 H   0  0  0  0  0  0  0  0  0  0  0  0
   57.5764   31.8867   42.9446 H   0  0  0  0  0  0  0  0  0  0  0  0
   56.3184   33.1075   44.3368 H   0  0  0  0  0  0  0  0  0  0  0  0
   56.5848   31.9643   45.7185 H   0  0  0  0  0  0  0  0  0  0  0  0
   59.1309   34.2224   43.8098 H   0  0  0  0  0  0  0  0  0  0  0  0
   60.4164   35.6619   45.6391 H   0  0  0  0  0  0  0  0  0  0  0  0
   57.4828   33.3448   47.6145 H   0  0  0  0  0  0  0  0  0  0  0  0
  1  2  1  0
  2  3  1  0
  3  4  1  0
  4  5  1  0
  5  6  1  0
  6  7  1  0
  7  8  2  0
  8  9  1  0
  9 10  2  0
 10  6  1  0
  2 11  1  0
  2 12  1  0
  3 13  1  0
  3 14  1  0
  4 15  1  0
  4 16  1  0
  5 17  1  0
  5 18  1  0
  7 19  1  0
  8 20  1  0
 10 21  1  0
M  END
>  <UniqueID>  (54) 
46

>  <SMILES>  (54) 
FCCCCn1ccnc1

>  <Energy>  (54) 
42.42740310811053

>  <Genealogy>  (54) 
FCCCCn1ccnc1 (3D coordinates assigned)
FCCCCn1ccnc1 (optimized conformer: 42.42740310811053 kcal/mol)

>  <smiles>  (54) 
FCCCCn1ccnc1

>  <score_type>  (54) 
oracle

>  <origin>  (54) 
adg

>  <m_score__min__energy>  (54) 
-3.7400000000000002

>  <m_primary>  (54) 
energy

$$$$
54:0
     RDKit          3D

 32 33  0  0  0  0  0  0  0  0999 V2000
   59.2750   34.5640   47.8210 C   0  0  0  0  0  0  0  0  0  0  0  0
   58.7790   33.8070   46.6270 C   0  0  0  0  0  0  0  0  0  0  0  0
   58.9440   34.3250   45.3350 C   0  0  0  0  0  0  0  0  0  0  0  0
   58.5120   33.5920   44.2280 C   0  0  0  0  0  0  0  0  0  0  0  0
   57.9330   32.3340   44.4230 C   0  0  0  0  0  0  0  0  0  0  0  0
   57.3610   31.3750   43.0210 S   0  0  0  0  0  0  0  0  0  0  0  0
   56.7510   29.9570   44.0140 C   0  0  1  0  0  0  0  0  0  0  0  0
   55.2620   29.7130   43.7470 C   0  0  0  0  0  0  0  0  0  0  0  0
   57.5980   28.7020   43.7330 C   0  0  0  0  0  0  0  0  0  0  0  0
   58.7340   28.5810   44.6470 N   0  0  0  0  0  0  0  0  0  0  0  0
   59.2040   27.4420   45.1920 C   0  0  0  0  0  0  0  0  0  0  0  0
   60.2780   27.7550   46.0040 C   0  0  0  0  0  0  0  0  0  0  0  0
   60.4130   29.1280   45.9040 C   0  0  0  0  0  0  0  0  0  0  0  0
   59.4640   29.5980   45.0750 N   0  0  0  0  0  0  0  0  0  0  0  0
   57.7900   31.8410   45.6820 N   0  0  0  0  0  0  0  0  0  0  0  0
   58.2020   32.5370   46.7750 C   0  0  0  0  0  0  0  0  0  0  0  0
   58.9434   34.0579   48.7397 H   0  0  0  0  0  0  0  0  0  0  0  0
   60.3741   34.6027   47.8000 H   0  0  0  0  0  0  0  0  0  0  0  0
   58.8716   35.5872   47.8000 H   0  0  0  0  0  0  0  0  0  0  0  0
   59.4140   35.3094   45.1932 H   0  0  0  0  0  0  0  0  0  0  0  0
   58.6259   33.9998   43.2128 H   0  0  0  0  0  0  0  0  0  0  0  0
   56.8573   30.1969   45.0822 H   0  0  0  0  0  0  0  0  0  0  0  0
   54.7274   29.6254   44.7043 H   0  0  0  0  0  0  0  0  0  0  0  0
   54.8496   30.5555   43.1725 H   0  0  0  0  0  0  0  0  0  0  0  0
   55.1401   28.7829   43.1725 H   0  0  0  0  0  0  0  0  0  0  0  0
   56.9597   27.8129   43.8428 H   0  0  0  0  0  0  0  0  0  0  0  0
   57.9966   28.7876   42.7113 H   0  0  0  0  0  0  0  0  0  0  0  0
   58.8010   26.4331   45.0198 H   0  0  0  0  0  0  0  0  0  0  0  0
   60.8915   27.0631   46.5998 H   0  0  0  0  0  0  0  0  0  0  0  0
   61.1721   29.7358   46.4182 H   0  0  0  0  0  0  0  0  0  0  0  0
   59.3190   30.5960   44.8060 H   0  0  0  0  0  0  0  0  0  0  0  0
   58.0825   32.1028   47.7786 H   0  0  0  0  0  0  0  0  0  0  0  0
  1  2  1  0
  2  3  2  0
  3  4  1  0
  4  5  2  0
  5  6  1  0
  6  7  1  0
  7  8  1  0
  7  9  1  0
  9 10  1  0
 10 11  1  0
 11 12  2  0
 12 13  1  0
 13 14  2  0
  5 15  1  0
 15 16  2  0
 16  2  1  0
 14 10  1  0
  1 17  1  0
  1 18  1  0
  1 19  1  0
  3 20  1  0
  4 21  1  0
  7 22  1  1
  8 23  1  0
  8 24  1  0
  8 25  1  0
  9 26  1  0
  9 27  1  0
 11 28  1  0
 12 29  1  0
 13 30  1  0
 14 31  1  0
 16 32  1  0
M  CHG  1  14   1
M  END
>  <UniqueID>  (55) 
47

>  <SMILES>  (55) 
Cc1ccc(S[C@@H](C)Cn2ccc[nH+]2)nc1

>  <Energy>  (55) 
54.26645471151728

>  <Genealogy>  (55) 
Cc1ccc(SC(C)Cn2ccc[nH+]2)nc1 (protonated)
Cc1ccc(S[C@@H](C)Cn2ccc[nH+]2)nc1 (chirality)
Cc1ccc(S[C@@H](C)Cn2ccc[nH+]2)nc1 (3D coordinates assigned)
Cc1ccc(S[C@@H](C)Cn2ccc[nH+]2)nc1 (optimized conformer: 54.26645471151728 kcal/mol)

>  <smiles>  (55) 
Cc1ccc(SC(C)Cn2cccn2)nc1

>  <score_type>  (55) 
oracle

>  <origin>  (55) 
adg

>  <m_score__min__energy>  (55) 
-4.5

>  <m_primary>  (55) 
energy

$$$$
55:0
     RDKit          3D

 50 52  0  0  0  0  0  0  0  0999 V2000
   60.7620   27.4660   45.7250 C   0  0  0  0  0  0  0  0  0  0  0  0
   59.3250   27.8800   45.5990 C   0  0  0  0  0  0  0  0  0  0  0  0
   58.3030   26.9560   45.8440 C   0  0  0  0  0  0  0  0  0  0  0  0
   56.9570   27.3200   45.6900 C   0  0  0  0  0  0  0  0  0  0  0  0
   55.8840   26.3040   46.0010 C   0  0  0  0  0  0  0  0  0  0  0  0
   56.4470   24.9350   45.9420 N   0  0  0  0  0  0  0  0  0  0  0  0
   55.9090   24.1660   44.8040 C   0  0  0  0  0  0  0  0  0  0  0  0
   54.4290   23.7680   45.0260 C   0  0  0  0  0  0  0  0  0  0  0  0
   54.0150   23.8860   46.3760 O   0  0  0  0  0  0  0  0  0  0  0  0
   54.9920   23.3360   47.2330 C   0  0  0  0  0  0  0  0  0  0  0  0
   56.2740   24.1930   47.2150 C   0  0  0  0  0  0  0  0  0  0  0  0
   56.6350   28.6290   45.2780 C   0  0  0  0  0  0  0  0  0  0  0  0
   55.3010   29.0000   45.1230 O   0  0  0  0  0  0  0  0  0  0  0  0
   57.6590   29.5640   45.0240 C   0  0  0  0  0  0  0  0  0  0  0  0
   57.3460   30.9850   44.5970 C   0  0  0  0  0  0  0  0  0  0  0  0
   57.5310   31.9590   45.7020 N   0  0  0  0  0  0  0  0  0  0  0  0
   56.9390   33.2920   45.3740 C   0  0  0  0  0  0  0  0  0  0  0  0
   57.9790   34.2930   44.8530 C   0  0  0  0  0  0  0  0  0  0  0  0
   59.0740   34.5470   45.9040 C   0  0  0  0  0  0  0  0  0  0  0  0
   59.3180   33.3250   46.8070 C   0  0  0  0  0  0  0  0  0  0  0  0
   58.9710   32.0250   46.0730 C   0  0  0  0  0  0  0  0  0  0  0  0
   59.0000   29.1730   45.1750 C   0  0  0  0  0  0  0  0  0  0  0  0
   61.0294   27.3890   46.7892 H   0  0  0  0  0  0  0  0  0  0  0  0
   60.9063   26.4898   45.2391 H   0  0  0  0  0  0  0  0  0  0  0  0
   61.4036   28.2158   45.2391 H   0  0  0  0  0  0  0  0  0  0  0  0
   58.5577   25.9338   46.1606 H   0  0  0  0  0  0  0  0  0  0  0  0
   55.4872   26.4911   47.0097 H   0  0  0  0  0  0  0  0  0  0  0  0
   55.0771   26.3938   45.2589 H   0  0  0  0  0  0  0  0  0  0  0  0
   55.9797   24.7802   43.8942 H   0  0  0  0  0  0  0  0  0  0  0  0
   56.4997   23.2433   44.7056 H   0  0  0  0  0  0  0  0  0  0  0  0
   53.7951   24.4206   44.4078 H   0  0  0  0  0  0  0  0  0  0  0  0
   54.3300   22.7090   44.7454 H   0  0  0  0  0  0  0  0  0  0  0  0
   54.5950   23.3008   48.2583 H   0  0  0  0  0  0  0  0  0  0  0  0
   55.2384   22.3219   46.8854 H   0  0  0  0  0  0  0  0  0  0  0  0
   56.2249   24.9176   48.0412 H   0  0  0  0  0  0  0  0  0  0  0  0
   57.1312   23.5121   47.3226 H   0  0  0  0  0  0  0  0  0  0  0  0
   58.0137   31.2603   43.7673 H   0  0  0  0  0  0  0  0  0  0  0  0
   56.2899   31.0196   44.2912 H   0  0  0  0  0  0  0  0  0  0  0  0
   57.0230   31.5940   46.5440 H   0  0  0  0  0  0  0  0  0  0  0  0
   56.1673   33.1535   44.6025 H   0  0  0  0  0  0  0  0  0  0  0  0
   56.5183   33.7049   46.3027 H   0  0  0  0  0  0  0  0  0  0  0  0
   58.4424   33.8885   43.9411 H   0  0  0  0  0  0  0  0  0  0  0  0
   57.4721   35.2452   44.6376 H   0  0  0  0  0  0  0  0  0  0  0  0
   60.0114   34.7945   45.3843 H   0  0  0  0  0  0  0  0  0  0  0  0
   58.7367   35.3747   46.5452 H   0  0  0  0  0  0  0  0  0  0  0  0
   60.3776   33.3006   47.1015 H   0  0  0  0  0  0  0  0  0  0  0  0
   58.6744   33.4099   47.6950 H   0  0  0  0  0  0  0  0  0  0  0  0
   59.5766   31.9624   45.1568 H   0  0  0  0  0  0  0  0  0  0  0  0
   59.1851   31.1856   46.7509 H   0  0  0  0  0  0  0  0  0  0  0  0
   59.8037   29.8918   44.9573 H   0  0  0  0  0  0  0  0  0  0  0  0
  1  2  1  0
  2  3  2  0
  3  4  1  0
  4  5  1  0
  5  6  1  0
  6  7  1  0
  7  8  1  0
  8  9  1  0
  9 10  1  0
 10 11  1  0
  4 12  2  0
 12 13  1  0
 12 14  1  0
 14 15  1  0
 15 16  1  0
 16 17  1  0
 17 18  1  0
 18 19  1  0
 19 20  1  0
 20 21  1  0
 14 22  2  0
 22  2  1  0
 11  6  1  0
 21 16  1  0
  1 23  1  0
  1 24  1  0
  1 25  1  0
  3 26  1  0
  5 27  1  0
  5 28  1  0
  7 29  1  0
  7 30  1  0
  8 31  1  0
  8 32  1  0
 10 33  1  0
 10 34  1  0
 11 35  1  0
 11 36  1  0
 15 37  1  0
 15 38  1  0
 16 39  1  0
 17 40  1  0
 17 41  1  0
 18 42  1  0
 18 43  1  0
 19 44  1  0
 19 45  1  0
 20 46  1  0
 20 47  1  0
 21 48  1  0
 21 49  1  0
 22 50  1  0
M  CHG  2  13  -1  16   1
M  END
>  <UniqueID>  (56) 
48

>  <SMILES>  (56) 
Cc1cc(CN2CCOCC2)c([O-])c(C[NH+]2CCCCC2)c1

>  <Energy>  (56) 
70.24352891503514

>  <Genealogy>  (56) 
Cc1cc(CN2CCOCC2)c([O-])c(C[NH+]2CCCCC2)c1 (protonated)
Cc1cc(CN2CCOCC2)c([O-])c(C[NH+]2CCCCC2)c1 (3D coordinates assigned)
Cc1cc(CN2CCOCC2)c([O-])c(C[NH+]2CCCCC2)c1 (nonaromatic ring conformer: 70.24352891503514 kcal/mol)

>  <smiles>  (56) 
Cc1cc(CN2CCCCC2)c(O)c(CN2CCOCC2)c1

>  <score_type>  (56) 
oracle

>  <origin>  (56) 
adg

>  <m_score__min__energy>  (56) 
-9.5199999999999996

>  <m_primary>  (56) 
energy

$$$$
56:0
     RDKit          3D

 31 33  0  0  0  0  0  0  0  0999 V2000
   59.6430   35.6470   45.6640 C   0  0  0  0  0  0  0  0  0  0  0  0
   59.2300   34.5730   46.6370 C   0  0  0  0  0  0  0  0  0  0  0  0
   59.9980   34.3820   47.8000 C   0  0  0  0  0  0  0  0  0  0  0  0
   59.6670   33.3830   48.7160 C   0  0  0  0  0  0  0  0  0  0  0  0
   58.5700   32.5560   48.4840 C   0  0  0  0  0  0  0  0  0  0  0  0
   57.7960   32.7290   47.3350 C   0  0  0  0  0  0  0  0  0  0  0  0
   58.1060   33.7360   46.4030 C   0  0  0  0  0  0  0  0  0  0  0  0
   57.2150   33.8820   45.1880 C   0  0  0  0  0  0  0  0  0  0  0  0
   57.9290   33.0270   43.7390 S   0  0  0  0  0  0  0  0  0  0  0  0
   57.4680   31.3880   44.2880 C   0  0  0  0  0  0  0  0  0  0  0  0
   56.1980   30.9920   44.4970 N   0  0  0  0  0  0  0  0  0  0  0  0
   56.2660   29.7290   44.8860 N   0  0  0  0  0  0  0  0  0  0  0  0
   57.5750   29.4100   44.9040 C   0  0  0  0  0  0  0  0  0  0  0  0
   58.1030   28.0590   45.2650 C   0  0  0  0  0  0  0  0  0  0  0  0
   58.7840   27.9910   46.6220 C   0  0  0  0  0  0  0  0  0  0  0  0
   59.6190   27.9770   45.3530 C   0  0  0  0  0  0  0  0  0  0  0  0
   58.3200   30.4240   44.5360 O   0  0  0  0  0  0  0  0  0  0  0  0
   59.9838   36.5333   46.2192 H   0  0  0  0  0  0  0  0  0  0  0  0
   60.4616   35.2735   45.0313 H   0  0  0  0  0  0  0  0  0  0  0  0
   58.7850   35.9182   45.0313 H   0  0  0  0  0  0  0  0  0  0  0  0
   60.8687   35.0271   47.9892 H   0  0  0  0  0  0  0  0  0  0  0  0
   60.2736   33.2480   49.6236 H   0  0  0  0  0  0  0  0  0  0  0  0
   58.3137   31.7668   49.2061 H   0  0  0  0  0  0  0  0  0  0  0  0
   56.9335   32.0700   47.1564 H   0  0  0  0  0  0  0  0  0  0  0  0
   56.2294   33.4476   45.4114 H   0  0  0  0  0  0  0  0  0  0  0  0
   57.1221   34.9520   44.9505 H   0  0  0  0  0  0  0  0  0  0  0  0
   57.3185   27.4804   44.7553 H   0  0  0  0  0  0  0  0  0  0  0  0
   58.7940   28.8746   47.2771 H   0  0  0  0  0  0  0  0  0  0  0  0
   58.6979   27.3384   47.5033 H   0  0  0  0  0  0  0  0  0  0  0  0
   60.2333   28.8505   45.0891 H   0  0  0  0  0  0  0  0  0  0  0  0
   60.3875   27.3103   44.9349 H   0  0  0  0  0  0  0  0  0  0  0  0
  1  2  1  0
  2  3  2  0
  3  4  1  0
  4  5  2  0
  5  6  1  0
  6  7  2  0
  7  8  1  0
  8  9  1  0
  9 10  1  0
 10 11  2  0
 11 12  1  0
 12 13  2  0
 13 14  1  0
 14 15  1  0
 15 16  1  0
 13 17  1  0
  7  2  1  0
 17 10  1  0
 16 14  1  0
  1 18  1  0
  1 19  1  0
  1 20  1  0
  3 21  1  0
  4 22  1  0
  5 23  1  0
  6 24  1  0
  8 25  1  0
  8 26  1  0
 14 27  1  0
 15 28  1  0
 15 29  1  0
 16 30  1  0
 16 31  1  0
M  END
>  <UniqueID>  (57) 
49

>  <SMILES>  (57) 
Cc1ccccc1CSc1nnc(C2CC2)o1

>  <Energy>  (57) 
326.48783465929233

>  <Genealogy>  (57) 
Cc1ccccc1CSc1nnc(C2CC2)o1 (3D coordinates assigned)
Cc1ccccc1CSc1nnc(C2CC2)o1 (nonaromatic ring conformer: 326.48783465929233 kcal/mol)

>  <smiles>  (57) 
Cc1ccccc1CSc1nnc(C2CC2)o1

>  <score_type>  (57) 
oracle

>  <origin>  (57) 
adg

>  <m_score__min__energy>  (57) 
-7.2300000000000004

>  <m_primary>  (57) 
energy

$$$$
57:0
     RDKit          3D

 39 40  0  0  0  0  0  0  0  0999 V2000
   58.9520   22.0970   44.4790 C   0  0  0  0  0  0  0  0  0  0  0  0
   59.2230   22.9100   45.6170 O   0  0  0  0  0  0  0  0  0  0  0  0
   58.8280   24.2500   45.7430 C   0  0  0  0  0  0  0  0  0  0  0  0
   57.4750   24.5650   45.5720 C   0  0  0  0  0  0  0  0  0  0  0  0
   57.0300   25.8840   45.6920 C   0  0  0  0  0  0  0  0  0  0  0  0
   57.9410   26.9150   45.9820 C   0  0  0  0  0  0  0  0  0  0  0  0
   57.5340   28.2850   46.0940 N   0  0  0  0  0  0  0  0  0  0  0  0
   56.9720   29.2680   44.7800 S   0  0  0  0  0  0  0  0  0  0  0  0
   55.4790   29.4010   44.8730 O   0  0  0  0  0  0  0  0  0  0  0  0
   57.3080   28.5450   43.5070 O   0  0  0  0  0  0  0  0  0  0  0  0
   57.6950   30.9040   44.8690 C   0  0  0  0  0  0  0  0  0  0  0  0
   57.6360   31.7670   43.7390 C   0  0  0  0  0  0  0  0  0  0  0  0
   57.0380   31.3430   42.4220 C   0  0  0  0  0  0  0  0  0  0  0  0
   58.1120   33.0840   43.8420 C   0  0  0  0  0  0  0  0  0  0  0  0
   58.7060   33.5440   45.0160 C   0  0  0  0  0  0  0  0  0  0  0  0
   59.1780   34.9670   45.1090 C   0  0  0  0  0  0  0  0  0  0  0  0
   58.8140   32.6880   46.1130 C   0  0  0  0  0  0  0  0  0  0  0  0
   58.3420   31.3680   46.0510 C   0  0  0  0  0  0  0  0  0  0  0  0
   58.5340   30.4990   47.2680 C   0  0  0  0  0  0  0  0  0  0  0  0
   59.2940   26.6020   46.1540 C   0  0  0  0  0  0  0  0  0  0  0  0
   59.7390   25.2820   46.0360 C   0  0  0  0  0  0  0  0  0  0  0  0
   58.6203   21.1018   44.8100 H   0  0  0  0  0  0  0  0  0  0  0  0
   58.1612   22.5647   43.8742 H   0  0  0  0  0  0  0  0  0  0  0  0
   59.8653   21.9967   43.8742 H   0  0  0  0  0  0  0  0  0  0  0  0
   56.7549   23.7662   45.3408 H   0  0  0  0  0  0  0  0  0  0  0  0
   55.9631   26.1167   45.5591 H   0  0  0  0  0  0  0  0  0  0  0  0
   56.1533   30.7157   42.6060 H   0  0  0  0  0  0  0  0  0  0  0  0
   56.7427   32.2346   41.8494 H   0  0  0  0  0  0  0  0  0  0  0  0
   57.7816   30.7692   41.8494 H   0  0  0  0  0  0  0  0  0  0  0  0
   58.0146   33.7635   42.9825 H   0  0  0  0  0  0  0  0  0  0  0  0
   59.2730   35.2534   46.1668 H   0  0  0  0  0  0  0  0  0  0  0  0
   60.1558   35.0621   44.6142 H   0  0  0  0  0  0  0  0  0  0  0  0
   58.4509   35.6276   44.6142 H   0  0  0  0  0  0  0  0  0  0  0  0
   59.2767   33.0541   47.0414 H   0  0  0  0  0  0  0  0  0  0  0  0
   58.4001   31.1051   48.1761 H   0  0  0  0  0  0  0  0  0  0  0  0
   57.7940   29.6852   47.2579 H   0  0  0  0  0  0  0  0  0  0  0  0
   59.5480   30.0727   47.2579 H   0  0  0  0  0  0  0  0  0  0  0  0
   60.0136   27.4015   46.3840 H   0  0  0  0  0  0  0  0  0  0  0  0
   60.8053   25.0490   46.1727 H   0  0  0  0  0  0  0  0  0  0  0  0
  1  2  1  0
  2  3  1  0
  3  4  2  0
  4  5  1  0
  5  6  2  0
  6  7  1  0
  7  8  1  0
  8  9  2  0
  8 10  2  0
  8 11  1  0
 11 12  2  0
 12 13  1  0
 12 14  1  0
 14 15  2  0
 15 16  1  0
 15 17  1  0
 17 18  2  0
 18 19  1  0
  6 20  1  0
 20 21  2  0
 21  3  1  0
 18 11  1  0
  1 22  1  0
  1 23  1  0
  1 24  1  0
  4 25  1  0
  5 26  1  0
 13 27  1  0
 13 28  1  0
 13 29  1  0
 14 30  1  0
 16 31  1  0
 16 32  1  0
 16 33  1  0
 17 34  1  0
 19 35  1  0
 19 36  1  0
 19 37  1  0
 20 38  1  0
 21 39  1  0
M  CHG  1   7  -1
M  END
>  <UniqueID>  (58) 
50

>  <SMILES>  (58) 
COc1ccc([N-]S(=O)(=O)c2c(C)cc(C)cc2C)cc1

>  <Energy>  (58) 
46.12774923070816

>  <Genealogy>  (58) 
COc1ccc([N-]S(=O)(=O)c2c(C)cc(C)cc2C)cc1 (protonated)
COc1ccc([N-]S(=O)(=O)c2c(C)cc(C)cc2C)cc1 (3D coordinates assigned)
COc1ccc([N-]S(=O)(=O)c2c(C)cc(C)cc2C)cc1 (optimized conformer: 46.12774923070816 kcal/mol)

>  <smiles>  (58) 
COc1ccc(NS(=O)(=O)c2c(C)cc(C)cc2C)cc1

>  <score_type>  (58) 
oracle

>  <origin>  (58) 
adg

>  <m_score__min__energy>  (58) 
-8.7400000000000002

>  <m_primary>  (58) 
energy

$$$$
58:0
     RDKit          3D

 57 59  0  0  0  0  0  0  0  0999 V2000
   59.4150   30.6690   50.6870 C   0  0  0  0  0  0  0  0  0  0  0  0
   58.8500   31.8160   49.8550 C   0  0  0  0  0  0  0  0  0  0  0  0
   59.8510   32.2800   48.8650 N   0  0  0  0  0  0  0  0  0  0  0  0
   61.2280   31.9590   49.3080 C   0  0  0  0  0  0  0  0  0  0  0  0
   62.1260   31.6040   48.1100 C   0  0  0  0  0  0  0  0  0  0  0  0
   63.1750   32.6270   47.9010 N   0  0  0  0  0  0  0  0  0  0  0  0
   63.3340   33.4760   49.0940 C   0  0  0  0  0  0  0  0  0  0  0  0
   62.8350   33.4750   46.7460 C   0  0  0  0  0  0  0  0  0  0  0  0
   59.6980   33.7280   48.5920 C   0  0  0  0  0  0  0  0  0  0  0  0
   59.1790   33.9300   47.1940 C   0  0  0  0  0  0  0  0  0  0  0  0
   59.6680   34.9860   46.4100 C   0  0  0  0  0  0  0  0  0  0  0  0
   59.2560   35.1270   45.0820 C   0  0  0  0  0  0  0  0  0  0  0  0
   58.3820   34.1960   44.5160 C   0  0  0  0  0  0  0  0  0  0  0  0
   57.9030   33.1220   45.2820 C   0  0  0  0  0  0  0  0  0  0  0  0
   57.0300   32.0640   44.6570 C   0  0  0  0  0  0  0  0  0  0  0  0
   57.0410   30.8720   45.4440 O   0  0  0  0  0  0  0  0  0  0  0  0
   57.5700   29.6350   45.0310 C   0  0  0  0  0  0  0  0  0  0  0  0
   57.2170   29.0580   43.7960 C   0  0  0  0  0  0  0  0  0  0  0  0
   57.7720   27.8420   43.3940 C   0  0  0  0  0  0  0  0  0  0  0  0
   58.6810   27.1770   44.2160 C   0  0  0  0  0  0  0  0  0  0  0  0
   59.0460   27.7260   45.4520 C   0  0  0  0  0  0  0  0  0  0  0  0
   59.9710   27.0670   46.2750 C   0  0  0  0  0  0  0  0  0  0  0  0
   60.3460   27.6260   47.4990 C   0  0  0  0  0  0  0  0  0  0  0  0
   59.8040   28.8440   47.9100 C   0  0  0  0  0  0  0  0  0  0  0  0
   58.8780   29.5110   47.1030 C   0  0  0  0  0  0  0  0  0  0  0  0
   58.4860   28.9630   45.8670 C   0  0  0  0  0  0  0  0  0  0  0  0
   58.2750   33.0180   46.6320 C   0  0  0  0  0  0  0  0  0  0  0  0
   59.3009   30.9007   51.7562 H   0  0  0  0  0  0  0  0  0  0  0  0
   58.8701   29.7427   50.4524 H   0  0  0  0  0  0  0  0  0  0  0  0
   60.4815   30.5365   50.4524 H   0  0  0  0  0  0  0  0  0  0  0  0
   57.9501   31.4702   49.3253 H   0  0  0  0  0  0  0  0  0  0  0  0
   58.5977   32.6513   50.5248 H   0  0  0  0  0  0  0  0  0  0  0  0
   61.6508   32.8313   49.8280 H   0  0  0  0  0  0  0  0  0  0  0  0
   61.1850   31.0908   49.9821 H   0  0  0  0  0  0  0  0  0  0  0  0
   62.6059   30.6322   48.2977 H   0  0  0  0  0  0  0  0  0  0  0  0
   61.4988   31.5611   47.2073 H   0  0  0  0  0  0  0  0  0  0  0  0
   63.2190   32.8617   49.9992 H   0  0  0  0  0  0  0  0  0  0  0  0
   64.3337   33.9349   49.0869 H   0  0  0  0  0  0  0  0  0  0  0  0
   62.5681   34.2655   49.0869 H   0  0  0  0  0  0  0  0  0  0  0  0
   62.4476   34.4411   47.1018 H   0  0  0  0  0  0  0  0  0  0  0  0
   63.7353   33.6429   46.1367 H   0  0  0  0  0  0  0  0  0  0  0  0
   62.0681   32.9744   46.1367 H   0  0  0  0  0  0  0  0  0  0  0  0
   58.9884   34.1625   49.3115 H   0  0  0  0  0  0  0  0  0  0  0  0
   60.6757   34.2222   48.6919 H   0  0  0  0  0  0  0  0  0  0  0  0
   60.3785   35.7058   46.8424 H   0  0  0  0  0  0  0  0  0  0  0  0
   59.6208   35.9731   44.4811 H   0  0  0  0  0  0  0  0  0  0  0  0
   58.0684   34.3049   43.4673 H   0  0  0  0  0  0  0  0  0  0  0  0
   55.9991   32.4412   44.5871 H   0  0  0  0  0  0  0  0  0  0  0  0
   57.4192   31.8303   43.6550 H   0  0  0  0  0  0  0  0  0  0  0  0
   56.4967   29.5707   43.1415 H   0  0  0  0  0  0  0  0  0  0  0  0
   57.4909   27.4062   42.4239 H   0  0  0  0  0  0  0  0  0  0  0  0
   59.1128   26.2183   43.8929 H   0  0  0  0  0  0  0  0  0  0  0  0
   60.4025   26.1069   45.9556 H   0  0  0  0  0  0  0  0  0  0  0  0
   61.0710   27.1041   48.1409 H   0  0  0  0  0  0  0  0  0  0  0  0
   60.1066   29.2812   48.8730 H   0  0  0  0  0  0  0  0  0  0  0  0
   58.4531   30.4696   47.4356 H   0  0  0  0  0  0  0  0  0  0  0  0
   57.8536   32.2143   47.2536 H   0  0  0  0  0  0  0  0  0  0  0  0
  1  2  1  0
  2  3  1  0
  3  4  1  0
  4  5  1  0
  5  6  1  0
  6  7  1  0
  6  8  1  0
  3  9  1  0
  9 10  1  0
 10 11  2  0
 11 12  1  0
 12 13  2  0
 13 14  1  0
 14 15  1  0
 15 16  1  0
 16 17  1  0
 17 18  2  0
 18 19  1  0
 19 20  2  0
 20 21  1  0
 21 22  2  0
 22 23  1  0
 23 24  2  0
 24 25  1  0
 25 26  2  0
 14 27  2  0
 27 10  1  0
 26 17  1  0
 26 21  1  0
  1 28  1  0
  1 29  1  0
  1 30  1  0
  2 31  1  0
  2 32  1  0
  4 33  1  0
  4 34  1  0
  5 35  1  0
  5 36  1  0
  7 37  1  0
  7 38  1  0
  7 39  1  0
  8 40  1  0
  8 41  1  0
  8 42  1  0
  9 43  1  0
  9 44  1  0
 11 45  1  0
 12 46  1  0
 13 47  1  0
 15 48  1  0
 15 49  1  0
 18 50  1  0
 19 51  1  0
 20 52  1  0
 22 53  1  0
 23 54  1  0
 24 55  1  0
 25 56  1  0
 27 57  1  0
M  END
>  <UniqueID>  (59) 
51

>  <SMILES>  (59) 
CCN(CCN(C)C)Cc1cccc(COc2cccc3ccccc23)c1

>  <Energy>  (59) 
58.101318513102854

>  <Genealogy>  (59) 
CCN(CCN(C)C)Cc1cccc(COc2cccc3ccccc23)c1 (3D coordinates assigned)
CCN(CCN(C)C)Cc1cccc(COc2cccc3ccccc23)c1 (optimized conformer: 58.101318513102854 kcal/mol)

>  <smiles>  (59) 
CCN(CCN(C)C)Cc1cccc(COc2cccc3ccccc23)c1

>  <score_type>  (59) 
oracle

>  <origin>  (59) 
adg

>  <m_score__min__energy>  (59) 
-7.9900000000000002

>  <m_primary>  (59) 
energy

$$$$
59:0
     RDKit          3D

 44 46  0  0  0  0  0  0  0  0999 V2000
   65.2400   33.0690   49.6730 C   0  0  0  0  0  0  0  0  0  0  0  0
   63.9430   33.1300   48.9310 C   0  0  0  0  0  0  0  0  0  0  0  0
   62.8930   33.9230   49.3970 C   0  0  0  0  0  0  0  0  0  0  0  0
   61.6910   33.9440   48.6920 C   0  0  0  0  0  0  0  0  0  0  0  0
   61.5590   33.1700   47.5290 C   0  0  0  0  0  0  0  0  0  0  0  0
   60.3350   33.1570   46.7640 N   0  0  0  0  0  0  0  0  0  0  0  0
   59.5970   31.9070   46.5280 C   0  0  0  0  0  0  0  0  0  0  0  0
   58.1210   32.1990   46.2290 C   0  0  0  0  0  0  0  0  0  0  0  0
   57.9320   33.1460   45.1010 N   0  0  0  0  0  0  0  0  0  0  0  0
   57.6890   32.4300   43.8300 C   0  0  0  0  0  0  0  0  0  0  0  0
   57.2220   31.0270   44.0880 C   0  0  0  0  0  0  0  0  0  0  0  0
   56.0510   30.8320   44.5110 O   0  0  0  0  0  0  0  0  0  0  0  0
   58.0950   29.9210   43.8120 N   0  0  0  0  0  0  0  0  0  0  0  0
   57.8710   28.5820   44.2830 C   0  0  0  0  0  0  0  0  0  0  0  0
   58.0760   27.4660   43.4490 C   0  0  0  0  0  0  0  0  0  0  0  0
   57.8250   26.1750   43.9260 C   0  0  0  0  0  0  0  0  0  0  0  0
   57.3580   25.9870   45.2290 C   0  0  0  0  0  0  0  0  0  0  0  0
   57.1300   27.0900   46.0550 C   0  0  0  0  0  0  0  0  0  0  0  0
   57.3780   28.3830   45.5830 C   0  0  0  0  0  0  0  0  0  0  0  0
   59.0130   34.1590   44.9600 C   0  0  0  0  0  0  0  0  0  0  0  0
   59.7640   34.4160   46.2710 C   0  0  0  0  0  0  0  0  0  0  0  0
   62.6160   32.4070   47.1310 N   0  0  0  0  0  0  0  0  0  0  0  0
   63.7660   32.3870   47.8070 N   0  0  0  0  0  0  0  0  0  0  0  0
   65.0440   33.0782   50.7554 H   0  0  0  0  0  0  0  0  0  0  0  0
   65.7728   32.1448   49.4047 H   0  0  0  0  0  0  0  0  0  0  0  0
   65.8572   33.9391   49.4047 H   0  0  0  0  0  0  0  0  0  0  0  0
   63.0129   34.5244   50.3102 H   0  0  0  0  0  0  0  0  0  0  0  0
   60.8524   34.5624   49.0445 H   0  0  0  0  0  0  0  0  0  0  0  0
   60.0422   31.3808   45.6707 H   0  0  0  0  0  0  0  0  0  0  0  0
   59.6588   31.2829   47.4317 H   0  0  0  0  0  0  0  0  0  0  0  0
   57.6204   31.2520   45.9788 H   0  0  0  0  0  0  0  0  0  0  0  0
   57.6907   32.6675   47.1265 H   0  0  0  0  0  0  0  0  0  0  0  0
   56.9191   32.9662   43.2558 H   0  0  0  0  0  0  0  0  0  0  0  0
   58.6310   32.3889   43.2634 H   0  0  0  0  0  0  0  0  0  0  0  0
   58.9120   30.0930   43.1830 H   0  0  0  0  0  0  0  0  0  0  0  0
   58.4347   27.6098   42.4191 H   0  0  0  0  0  0  0  0  0  0  0  0
   57.9958   25.3060   43.2735 H   0  0  0  0  0  0  0  0  0  0  0  0
   57.1698   24.9704   45.6045 H   0  0  0  0  0  0  0  0  0  0  0  0
   56.7548   26.9415   47.0783 H   0  0  0  0  0  0  0  0  0  0  0  0
   57.1859   29.2489   46.2336 H   0  0  0  0  0  0  0  0  0  0  0  0
   59.7320   33.8027   44.2076 H   0  0  0  0  0  0  0  0  0  0  0  0
   58.5410   35.1058   44.6588 H   0  0  0  0  0  0  0  0  0  0  0  0
   60.5725   35.1406   46.0942 H   0  0  0  0  0  0  0  0  0  0  0  0
   59.0663   34.8196   47.0196 H   0  0  0  0  0  0  0  0  0  0  0  0
  1  2  1  0
  2  3  2  0
  3  4  1  0
  4  5  2  0
  5  6  1  0
  6  7  1  0
  7  8  1  0
  8  9  1  0
  9 10  1  0
 10 11  1  0
 11 12  2  0
 11 13  1  0
 13 14  1  0
 14 15  2  0
 15 16  1  0
 16 17  2  0
 17 18  1  0
 18 19  2  0
  9 20  1  0
 20 21  1  0
  5 22  1  0
 22 23  2  0
 23  2  1  0
 21  6  1  0
 19 14  1  0
  1 24  1  0
  1 25  1  0
  1 26  1  0
  3 27  1  0
  4 28  1  0
  7 29  1  0
  7 30  1  0
  8 31  1  0
  8 32  1  0
 10 33  1  0
 10 34  1  0
 13 35  1  0
 15 36  1  0
 16 37  1  0
 17 38  1  0
 18 39  1  0
 19 40  1  0
 20 41  1  0
 20 42  1  0
 21 43  1  0
 21 44  1  0
M  END
>  <UniqueID>  (60) 
52

>  <SMILES>  (60) 
Cc1ccc(N2CCN(CC(=O)Nc3ccccc3)CC2)nn1

>  <Energy>  (60) 
56.9784480000105

>  <Genealogy>  (60) 
Cc1ccc(N2CCN(CC(=O)Nc3ccccc3)CC2)nn1 (3D coordinates assigned)
Cc1ccc(N2CCN(CC(=O)Nc3ccccc3)CC2)nn1 (nonaromatic ring conformer: 56.9784480000105 kcal/mol)

>  <smiles>  (60) 
Cc1ccc(N2CCN(CC(=O)Nc3ccccc3)CC2)nn1

>  <score_type>  (60) 
oracle

>  <origin>  (60) 
adg

>  <m_score__min__energy>  (60) 
-8.3100000000000005

>  <m_primary>  (60) 
energy

$$$$
60:0
     RDKit          3D

 35 37  0  0  0  0  0  0  0  0999 V2000
   55.3508   29.0407   44.3065 H   0  0  0  0  0  0  0  0  0  0  0  0
   56.1930   29.5880   44.7550 C   0  0  0  0  0  0  0  0  0  0  0  0
   56.3670   30.9060   44.4720 N   0  0  0  0  0  0  0  0  0  0  0  0
   57.3920   31.6240   45.0000 C   0  0  0  0  0  0  0  0  0  0  0  0
   57.5370   32.9800   44.6850 C   0  0  0  0  0  0  0  0  0  0  0  0
   56.8195   33.4668   44.0081 H   0  0  0  0  0  0  0  0  0  0  0  0
   58.5930   33.7160   45.2300 C   0  0  0  0  0  0  0  0  0  0  0  0
   58.7054   34.7813   44.9801 H   0  0  0  0  0  0  0  0  0  0  0  0
   59.5070   33.1020   46.0920 C   0  0  0  0  0  0  0  0  0  0  0  0
   60.3362   33.6854   46.5186 H   0  0  0  0  0  0  0  0  0  0  0  0
   59.3690   31.7470   46.4130 C   0  0  0  0  0  0  0  0  0  0  0  0
   60.0895   31.2665   47.0913 H   0  0  0  0  0  0  0  0  0  0  0  0
   58.3120   31.0010   45.8700 C   0  0  0  0  0  0  0  0  0  0  0  0
   58.1480   29.6430   46.1730 C   0  0  0  0  0  0  0  0  0  0  0  0
   58.8571   29.1425   46.8488 H   0  0  0  0  0  0  0  0  0  0  0  0
   57.0800   28.9180   45.6160 C   0  0  0  0  0  0  0  0  0  0  0  0
   56.8780   27.4780   45.9150 C   0  0  0  0  0  0  0  0  0  0  0  0
   55.6680   26.8850   45.9430 N   0  0  0  0  0  0  0  0  0  0  0  0
   55.9490   25.6040   46.2490 C   0  0  0  0  0  0  0  0  0  0  0  0
   55.0200   24.7030   46.3710 N   0  0  0  0  0  0  0  0  0  0  0  0
   54.9900   23.4400   45.6330 C   0  0  0  0  0  0  0  0  0  0  0  0
   54.1007   22.8668   45.9337 H   0  0  0  0  0  0  0  0  0  0  0  0
   55.9042   22.8733   45.8632 H   0  0  0  0  0  0  0  0  0  0  0  0
   54.9360   23.6980   44.1220 C   0  0  0  0  0  0  0  0  0  0  0  0
   54.5094   24.6967   43.9469 H   0  0  0  0  0  0  0  0  0  0  0  0
   54.3135   22.9148   43.6647 H   0  0  0  0  0  0  0  0  0  0  0  0
   56.3260   23.6340   43.4810 C   0  0  0  0  0  0  0  0  0  0  0  0
   56.2160   23.5499   42.3897 H   0  0  0  0  0  0  0  0  0  0  0  0
   56.8582   22.7587   43.8817 H   0  0  0  0  0  0  0  0  0  0  0  0
   57.0990   24.8340   43.7930 N   0  0  0  0  0  0  0  0  0  0  0  0
   57.8520   24.5610   44.4650 H   0  0  0  0  0  0  0  0  0  0  0  0
   56.4750   25.5020   44.3010 H   0  0  0  0  0  0  0  0  0  0  0  0
   57.2630   25.3480   46.4200 N   0  0  0  0  0  0  0  0  0  0  0  0
   57.8500   26.5400   46.2080 C   0  0  0  0  0  0  0  0  0  0  0  0
   58.9310   26.7367   46.2596 H   0  0  0  0  0  0  0  0  0  0  0  0
  1  2  1  0
  2  3  2  0
  3  4  1  0
  4  5  2  0
  5  6  1  0
  5  7  1  0
  7  8  1  0
  7  9  2  0
  9 10  1  0
  9 11  1  0
 11 12  1  0
 11 13  2  0
 13 14  1  0
 14 15  1  0
 14 16  2  0
 16 17  1  0
 17 18  1  0
 18 19  1  0
 19 20  2  0
 20 21  1  0
 21 22  1  0
 21 23  1  0
 21 24  1  0
 24 25  1  0
 24 26  1  0
 24 27  1  0
 27 28  1  0
 27 29  1  0
 27 30  1  0
 30 31  1  0
 30 32  1  0
 19 33  1  0
 33 34  1  0
 34 35  1  0
 16  2  1  0
 34 17  2  0
 13  4  1  0
M  CHG  2  18  -1  33  -1
M  END
>  <UniqueID>  (61) 
53

>  <SMILES>  (61) 
NCCC/N=c1\[n-]cc(-c2cnc3ccccc3c2)[n-]1

>  <Energy>  (61) 
64.20786131621728

>  <Genealogy>  (61) 
NCCCN=c1[n-]cc(-c2cnc3ccccc3c2)[n-]1 (protonated)
NCCC/N=c1\[n-]cc(-c2cnc3ccccc3c2)[n-]1 (cis-trans isomerization)
NCCC/N=c1\[n-]cc(-c2cnc3ccccc3c2)[n-]1 (3D coordinates assigned)
NCCC/N=c1\[n-]cc(-c2cnc3ccccc3c2)[n-]1 (optimized conformer: 64.20786131621728 kcal/mol)

>  <smiles>  (61) 
NCCCN=c1[nH]cc(-c2cnc3ccccc3c2)[nH]1

>  <score_type>  (61) 
oracle

>  <origin>  (61) 
adg

>  <m_score__min__energy>  (61) 
-10.6

>  <m_primary>  (61) 
energy

$$$$
61:0
     RDKit          3D

 19 19  0  0  0  0  0  0  0  0999 V2000
   57.6040   21.3510   46.0130 C   0  0  0  0  0  0  0  0  0  0  0  0
   57.6390   22.4820   46.8770 O   0  0  0  0  0  0  0  0  0  0  0  0
   57.5030   23.8110   46.4480 C   0  0  0  0  0  0  0  0  0  0  0  0
   58.6060   24.6080   46.0980 C   0  0  0  0  0  0  0  0  0  0  0  0
   58.4180   25.9290   45.6890 C   0  0  0  0  0  0  0  0  0  0  0  0
   57.1310   26.4870   45.6220 C   0  0  0  0  0  0  0  0  0  0  0  0
   57.0220   27.9150   45.2580 C   0  0  0  0  0  0  0  0  0  0  0  0
   55.9080   28.4950   45.1740 O   0  0  0  0  0  0  0  0  0  0  0  0
   56.0130   25.6690   45.9300 C   0  0  0  0  0  0  0  0  0  0  0  0
   54.6940   26.1060   45.7940 O   0  0  0  0  0  0  0  0  0  0  0  0
   56.2170   24.3520   46.3620 C   0  0  0  0  0  0  0  0  0  0  0  0
   57.5755   20.4306   46.6148 H   0  0  0  0  0  0  0  0  0  0  0  0
   56.7070   21.4020   45.3783 H   0  0  0  0  0  0  0  0  0  0  0  0
   58.5024   21.3465   45.3783 H   0  0  0  0  0  0  0  0  0  0  0  0
   59.6219   24.1890   46.1466 H   0  0  0  0  0  0  0  0  0  0  0  0
   59.2898   26.5415   45.4154 H   0  0  0  0  0  0  0  0  0  0  0  0
   57.9395   28.4868   45.0549 H   0  0  0  0  0  0  0  0  0  0  0  0
   54.3760   26.7100   45.0480 H   0  0  0  0  0  0  0  0  0  0  0  0
   55.3505   23.7332   46.6382 H   0  0  0  0  0  0  0  0  0  0  0  0
  1  2  1  0
  2  3  1  0
  3  4  2  0
  4  5  1  0
  5  6  2  0
  6  7  1  0
  7  8  2  0
  6  9  1  0
  9 10  1  0
  9 11  2  0
 11  3  1  0
  1 12  1  0
  1 13  1  0
  1 14  1  0
  4 15  1  0
  5 16  1  0
  7 17  1  0
 10 18  1  0
 11 19  1  0
M  END
>  <UniqueID>  (62) 
54

>  <SMILES>  (62) 
COc1ccc(C=O)c(O)c1

>  <Energy>  (62) 
21.713291825272655

>  <Genealogy>  (62) 
COc1ccc(C=O)c(O)c1 (3D coordinates assigned)
COc1ccc(C=O)c(O)c1 (optimized conformer: 21.713291825272655 kcal/mol)

>  <smiles>  (62) 
COc1ccc(C=O)c(O)c1

>  <score_type>  (62) 
oracle

>  <origin>  (62) 
adg

>  <m_score__min__energy>  (62) 
-5.1299999999999999

>  <m_primary>  (62) 
energy

$$$$
62:0
     RDKit          3D

 39 41  0  0  0  0  0  0  0  0999 V2000
   57.6370   31.9960   41.7880 C   0  0  0  0  0  0  0  0  0  0  0  0
   57.9710   32.2350   43.2340 C   0  0  0  0  0  0  0  0  0  0  0  0
   58.4740   33.4690   43.5630 N   0  0  0  0  0  0  0  0  0  0  0  0
   58.8140   33.7990   44.8360 C   0  0  0  0  0  0  0  0  0  0  0  0
   59.2660   34.9440   45.0950 O   0  0  0  0  0  0  0  0  0  0  0  0
   58.6360   32.8370   45.8180 C   0  0  0  0  0  0  0  0  0  0  0  0
   58.1360   31.6150   45.4950 C   0  0  0  0  0  0  0  0  0  0  0  0
   58.0590   30.8390   46.5950 N   0  0  0  0  0  0  0  0  0  0  0  0
   58.5290   31.6460   47.5800 C   0  0  0  0  0  0  0  0  0  0  0  0
   58.8860   32.8760   47.1400 N   0  0  0  0  0  0  0  0  0  0  0  0
   59.4890   33.9440   47.9400 C   0  0  0  0  0  0  0  0  0  0  0  0
   60.9900   33.8130   47.9520 C   0  0  0  0  0  0  0  0  0  0  0  0
   61.6990   33.5980   46.7570 C   0  0  0  0  0  0  0  0  0  0  0  0
   63.0920   33.4750   46.7780 C   0  0  0  0  0  0  0  0  0  0  0  0
   63.7870   33.5720   47.9860 C   0  0  0  0  0  0  0  0  0  0  0  0
   63.0900   33.7960   49.1770 C   0  0  0  0  0  0  0  0  0  0  0  0
   61.6980   33.9190   49.1610 C   0  0  0  0  0  0  0  0  0  0  0  0
   57.7880   31.2670   44.2130 N   0  0  0  0  0  0  0  0  0  0  0  0
   57.2500   29.9160   43.9060 C   0  0  0  0  0  0  0  0  0  0  0  0
   55.8440   29.7220   44.4920 C   0  0  0  0  0  0  0  0  0  0  0  0
   58.2150   28.8100   44.3580 C   0  0  0  0  0  0  0  0  0  0  0  0
   56.7442   31.3572   41.7186 H   0  0  0  0  0  0  0  0  0  0  0  0
   57.4385   32.9584   41.2936 H   0  0  0  0  0  0  0  0  0  0  0  0
   58.4838   31.4976   41.2936 H   0  0  0  0  0  0  0  0  0  0  0  0
   58.6117   31.3322   48.6310 H   0  0  0  0  0  0  0  0  0  0  0  0
   59.2143   34.9180   47.5089 H   0  0  0  0  0  0  0  0  0  0  0  0
   59.1175   33.8672   48.9725 H   0  0  0  0  0  0  0  0  0  0  0  0
   61.1565   33.5263   45.8028 H   0  0  0  0  0  0  0  0  0  0  0  0
   63.6417   33.3015   45.8411 H   0  0  0  0  0  0  0  0  0  0  0  0
   64.8824   33.4721   48.0000 H   0  0  0  0  0  0  0  0  0  0  0  0
   63.6378   33.8755   50.1276 H   0  0  0  0  0  0  0  0  0  0  0  0
   61.1538   34.0997   50.0997 H   0  0  0  0  0  0  0  0  0  0  0  0
   57.1575   29.8385   42.8126 H   0  0  0  0  0  0  0  0  0  0  0  0
   55.9003   29.7298   45.5905 H   0  0  0  0  0  0  0  0  0  0  0  0
   55.1895   30.5383   44.1526 H   0  0  0  0  0  0  0  0  0  0  0  0
   55.4350   28.7589   44.1526 H   0  0  0  0  0  0  0  0  0  0  0  0
   58.2447   28.7759   45.4571 H   0  0  0  0  0  0  0  0  0  0  0  0
   57.8690   27.8405   43.9703 H   0  0  0  0  0  0  0  0  0  0  0  0
   59.2225   29.0214   43.9703 H   0  0  0  0  0  0  0  0  0  0  0  0
  1  2  1  0
  2  3  2  0
  3  4  1  0
  4  5  2  0
  4  6  1  0
  6  7  2  0
  7  8  1  0
  8  9  2  0
  9 10  1  0
 10 11  1  0
 11 12  1  0
 12 13  2  0
 13 14  1  0
 14 15  2  0
 15 16  1  0
 16 17  2  0
  7 18  1  0
 18 19  1  0
 19 20  1  0
 19 21  1  0
 18  2  1  0
 10  6  1  0
 17 12  1  0
  1 22  1  0
  1 23  1  0
  1 24  1  0
  9 25  1  0
 11 26  1  0
 11 27  1  0
 13 28  1  0
 14 29  1  0
 15 30  1  0
 16 31  1  0
 17 32  1  0
 19 33  1  0
 20 34  1  0
 20 35  1  0
 20 36  1  0
 21 37  1  0
 21 38  1  0
 21 39  1  0
M  END
>  <UniqueID>  (63) 
55

>  <SMILES>  (63) 
Cc1nc(=O)c2c(ncn2Cc2ccccc2)n1C(C)C

>  <Energy>  (63) 
82.02227525393111

>  <Genealogy>  (63) 
Cc1nc(=O)c2c(ncn2Cc2ccccc2)n1C(C)C (3D coordinates assigned)
Cc1nc(=O)c2c(ncn2Cc2ccccc2)n1C(C)C (optimized conformer: 82.02227525393111 kcal/mol)

>  <smiles>  (63) 
Cc1nc(=O)c2c(ncn2Cc2ccccc2)n1C(C)C

>  <score_type>  (63) 
oracle

>  <origin>  (63) 
adg

>  <m_score__min__energy>  (63) 
-7.21

>  <m_primary>  (63) 
energy

$$$$
63:0
     RDKit          3D

 50 51  0  0  0  0  0  0  0  0999 V2000
   56.2730   29.3880   43.0820 C   0  0  0  0  0  0  0  0  0  0  0  0
   56.4500   30.5320   43.8880 O   0  0  0  0  0  0  0  0  0  0  0  0
   57.3730   31.4250   43.2900 C   0  0  0  0  0  0  0  0  0  0  0  0
   58.1340   32.1890   44.3690 C   0  0  0  0  0  0  0  0  0  0  0  0
   57.5850   31.8910   45.6470 O   0  0  0  0  0  0  0  0  0  0  0  0
   57.7060   32.7510   46.7400 C   0  0  0  0  0  0  0  0  0  0  0  0
   56.7070   33.4100   47.1470 O   0  0  0  0  0  0  0  0  0  0  0  0
   59.0620   32.9440   47.3740 C   0  0  2  0  0  0  0  0  0  0  0  0
   60.0760   33.6120   46.4660 C   0  0  0  0  0  0  0  0  0  0  0  0
   59.6610   34.5800   45.3970 C   0  0  0  0  0  0  0  0  0  0  0  0
   61.3450   33.4590   46.7030 N   0  0  0  0  0  0  0  0  0  0  0  0
   61.8750   32.6120   47.7360 C   0  0  0  0  0  0  0  0  0  0  0  0
   63.3510   32.7040   48.0010 C   0  0  0  0  0  0  0  0  0  0  0  0
   61.0580   31.7550   48.4010 C   0  0  0  0  0  0  0  0  0  0  0  0
   61.5280   30.8760   49.5050 C   0  0  0  0  0  0  0  0  0  0  0  0
   62.1540   31.3830   50.4770 O   0  0  0  0  0  0  0  0  0  0  0  0
   61.3260   29.4930   49.4550 O   0  0  0  0  0  0  0  0  0  0  0  0
   60.2500   28.8480   50.1260 C   0  0  0  0  0  0  0  0  0  0  0  0
   59.6140   31.6090   47.9440 C   0  0  2  0  0  0  0  0  0  0  0  0
   59.4690   30.4330   46.9830 C   0  0  0  0  0  0  0  0  0  0  0  0
   60.3920   30.2130   45.9430 C   0  0  0  0  0  0  0  0  0  0  0  0
   60.2190   29.1510   45.0530 C   0  0  0  0  0  0  0  0  0  0  0  0
   59.1240   28.2960   45.1830 C   0  0  0  0  0  0  0  0  0  0  0  0
   58.1810   28.4970   46.2070 C   0  0  0  0  0  0  0  0  0  0  0  0
   57.0440   27.6220   46.3370 N   0  0  0  0  0  0  0  0  0  0  0  0
   57.0760   26.6480   47.1180 O   0  0  0  0  0  0  0  0  0  0  0  0
   55.9000   27.8480   45.6030 O   0  0  0  0  0  0  0  0  0  0  0  0
   58.3620   29.5690   47.1000 C   0  0  0  0  0  0  0  0  0  0  0  0
   56.1364   28.5050   43.7236 H   0  0  0  0  0  0  0  0  0  0  0  0
   55.3847   29.5208   42.4469 H   0  0  0  0  0  0  0  0  0  0  0  0
   57.1599   29.2461   42.4469 H   0  0  0  0  0  0  0  0  0  0  0  0
   58.0858   30.8549   42.6760 H   0  0  0  0  0  0  0  0  0  0  0  0
   56.8258   32.1407   42.6589 H   0  0  0  0  0  0  0  0  0  0  0  0
   59.1932   31.8928   44.3483 H   0  0  0  0  0  0  0  0  0  0  0  0
   58.0479   33.2691   44.1791 H   0  0  0  0  0  0  0  0  0  0  0  0
   58.9012   33.6434   48.2076 H   0  0  0  0  0  0  0  0  0  0  0  0
   59.2685   35.4955   45.8637 H   0  0  0  0  0  0  0  0  0  0  0  0
   60.5306   34.8309   44.7719 H   0  0  0  0  0  0  0  0  0  0  0  0
   58.8797   34.1231   44.7719 H   0  0  0  0  0  0  0  0  0  0  0  0
   63.5286   32.7151   49.0865 H   0  0  0  0  0  0  0  0  0  0  0  0
   63.8584   31.8357   47.5553 H   0  0  0  0  0  0  0  0  0  0  0  0
   63.7466   33.6285   47.5553 H   0  0  0  0  0  0  0  0  0  0  0  0
   60.3922   28.9333   51.2134 H   0  0  0  0  0  0  0  0  0  0  0  0
   59.3011   29.3264   49.8417 H   0  0  0  0  0  0  0  0  0  0  0  0
   60.2247   27.7857   49.8417 H   0  0  0  0  0  0  0  0  0  0  0  0
   58.9882   31.3771   48.8184 H   0  0  0  0  0  0  0  0  0  0  0  0
   61.2568   30.8834   45.8305 H   0  0  0  0  0  0  0  0  0  0  0  0
   60.9488   28.9878   44.2463 H   0  0  0  0  0  0  0  0  0  0  0  0
   58.9975   27.4594   44.4801 H   0  0  0  0  0  0  0  0  0  0  0  0
   57.6279   29.7353   47.9021 H   0  0  0  0  0  0  0  0  0  0  0  0
  1  2  1  0
  2  3  1  0
  3  4  1  0
  4  5  1  0
  5  6  1  0
  6  7  2  0
  6  8  1  0
  8  9  1  0
  9 10  1  0
  9 11  2  0
 11 12  1  0
 12 13  1  0
 12 14  2  0
 14 15  1  0
 15 16  2  0
 15 17  1  0
 17 18  1  0
 14 19  1  0
 19 20  1  0
 20 21  2  0
 21 22  1  0
 22 23  2  0
 23 24  1  0
 24 25  1  0
 25 26  2  0
 25 27  1  0
 24 28  2  0
 19  8  1  0
 28 20  1  0
  1 29  1  0
  1 30  1  0
  1 31  1  0
  3 32  1  0
  3 33  1  0
  4 34  1  0
  4 35  1  0
  8 36  1  1
 10 37  1  0
 10 38  1  0
 10 39  1  0
 13 40  1  0
 13 41  1  0
 13 42  1  0
 18 43  1  0
 18 44  1  0
 18 45  1  0
 19 46  1  1
 21 47  1  0
 22 48  1  0
 23 49  1  0
 28 50  1  0
M  CHG  2  25   1  27  -1
M  END
>  <UniqueID>  (64) 
56

>  <SMILES>  (64) 
COCCOC(=O)[C@@H]1C(C)=NC(C)=C(C(=O)OC)[C@@H]1c1cccc([N+](=O)[O-])c1

>  <Energy>  (64) 
53.17823522039494

>  <Genealogy>  (64) 
COCCOC(=O)[C@@H]1C(C)=NC(C)=C(C(=O)OC)[C@@H]1c1cccc([N+](=O)[O-])c1 (chirality)
COCCOC(=O)[C@@H]1C(C)=NC(C)=C(C(=O)OC)[C@@H]1c1cccc([N+](=O)[O-])c1 (3D coordinates assigned)
COCCOC(=O)[C@@H]1C(C)=NC(C)=C(C(=O)OC)[C@@H]1c1cccc([N+](=O)[O-])c1 (nonaromatic ring conformer: 53.17823522039494 kcal/mol)

>  <smiles>  (64) 
COCCOC(=O)C1C(C)=NC(C)=C(C(=O)OC)C1c1cccc([N+](=O)[O-])c1

>  <score_type>  (64) 
oracle

>  <origin>  (64) 
adg

>  <m_score__min__energy>  (64) 
-7.4199999999999999

>  <m_primary>  (64) 
energy

$$$$
64:0
     RDKit          3D

 39 41  0  0  0  0  0  0  0  0999 V2000
   59.3270   34.6440   45.9470 C   0  0  0  0  0  0  0  0  0  0  0  0
   59.7530   33.7120   46.9360 O   0  0  0  0  0  0  0  0  0  0  0  0
   61.0500   33.6530   47.4690 C   0  0  0  0  0  0  0  0  0  0  0  0
   62.1960   33.6900   46.6540 C   0  0  0  0  0  0  0  0  0  0  0  0
   63.4350   33.6130   47.2070 N   0  0  0  0  0  0  0  0  0  0  0  0
   63.6140   33.4980   48.5480 C   0  0  0  0  0  0  0  0  0  0  0  0
   64.8680   33.4210   49.0570 F   0  0  0  0  0  0  0  0  0  0  0  0
   62.5100   33.4590   49.4000 C   0  0  0  0  0  0  0  0  0  0  0  0
   61.2170   33.5490   48.8640 C   0  0  0  0  0  0  0  0  0  0  0  0
   60.0240   33.4670   49.7790 C   0  0  0  0  0  0  0  0  0  0  0  0
   58.9520   32.7230   49.1240 N   0  0  0  0  0  0  0  0  0  0  0  0
   58.9930   31.3040   48.9460 C   0  0  0  0  0  0  0  0  0  0  0  0
   59.4240   30.4740   47.9260 C   0  0  0  0  0  0  0  0  0  0  0  0
   60.0330   30.6770   46.6480 N   0  0  0  0  0  0  0  0  0  0  0  0
   59.0840   30.3450   45.6170 C   0  0  0  0  0  0  0  0  0  0  0  0
   58.1160   31.2820   45.2140 C   0  0  0  0  0  0  0  0  0  0  0  0
   57.1730   30.9470   44.2390 C   0  0  0  0  0  0  0  0  0  0  0  0
   57.1810   29.6740   43.6620 C   0  0  0  0  0  0  0  0  0  0  0  0
   56.2590   29.3590   42.7180 F   0  0  0  0  0  0  0  0  0  0  0  0
   58.1350   28.7300   44.0620 C   0  0  0  0  0  0  0  0  0  0  0  0
   58.1460   27.1240   43.3530 Cl  0  0  0  0  0  0  0  0  0  0  0  0
   59.0800   29.0630   45.0380 C   0  0  0  0  0  0  0  0  0  0  0  0
   59.0820   29.3690   48.6820 C   0  0  0  0  0  0  0  0  0  0  0  0
   59.1530   28.1230   48.5170 O   0  0  0  0  0  0  0  0  0  0  0  0
   58.6380   30.1950   49.6940 C   0  0  0  0  0  0  0  0  0  0  0  0
   58.1320   30.0060   50.8310 O   0  0  0  0  0  0  0  0  0  0  0  0
   58.9179   35.5390   46.4386 H   0  0  0  0  0  0  0  0  0  0  0  0
   60.1839   34.9298   45.3193 H   0  0  0  0  0  0  0  0  0  0  0  0
   58.5502   34.1831   45.3193 H   0  0  0  0  0  0  0  0  0  0  0  0
   62.0886   33.7818   45.5631 H   0  0  0  0  0  0  0  0  0  0  0  0
   62.6528   33.3582   50.4860 H   0  0  0  0  0  0  0  0  0  0  0  0
   60.3107   32.9533   50.7085 H   0  0  0  0  0  0  0  0  0  0  0  0
   59.6728   34.4831   50.0118 H   0  0  0  0  0  0  0  0  0  0  0  0
   58.0910   33.2370   48.8330 H   0  0  0  0  0  0  0  0  0  0  0  0
   60.3290   31.6780   46.5630 H   0  0  0  0  0  0  0  0  0  0  0  0
   60.8850   30.0750   46.5750 H   0  0  0  0  0  0  0  0  0  0  0  0
   58.1011   32.2836   45.6686 H   0  0  0  0  0  0  0  0  0  0  0  0
   56.4223   31.6871   43.9247 H   0  0  0  0  0  0  0  0  0  0  0  0
   59.8246   28.3178   45.3547 H   0  0  0  0  0  0  0  0  0  0  0  0
  1  2  1  0
  2  3  1  0
  3  4  2  0
  4  5  1  0
  5  6  2  0
  6  7  1  0
  6  8  1  0
  8  9  2  0
  9 10  1  0
 10 11  1  0
 11 12  1  0
 12 13  2  0
 13 14  1  0
 14 15  1  0
 15 16  2  0
 16 17  1  0
 17 18  2  0
 18 19  1  0
 18 20  1  0
 20 21  1  0
 20 22  2  0
 13 23  1  0
 23 24  2  0
 23 25  1  0
 25 26  2  0
  9  3  1  0
 25 12  1  0
 22 15  1  0
  1 27  1  0
  1 28  1  0
  1 29  1  0
  4 30  1  0
  8 31  1  0
 10 32  1  0
 10 33  1  0
 11 34  1  0
 14 35  1  0
 14 36  1  0
 16 37  1  0
 17 38  1  0
 22 39  1  0
M  CHG  1  14   1
M  END
>  <UniqueID>  (65) 
57

>  <SMILES>  (65) 
COc1cnc(F)cc1CNc1c([NH2+]c2ccc(F)c(Cl)c2)c(=O)c1=O

>  <Energy>  (65) 
30.508167160130792

>  <Genealogy>  (65) 
COc1cnc(F)cc1CNc1c([NH2+]c2ccc(F)c(Cl)c2)c(=O)c1=O (protonated)
COc1cnc(F)cc1CNc1c([NH2+]c2ccc(F)c(Cl)c2)c(=O)c1=O (3D coordinates assigned)
COc1cnc(F)cc1CNc1c([NH2+]c2ccc(F)c(Cl)c2)c(=O)c1=O (optimized conformer: 30.508167160130792 kcal/mol)

>  <smiles>  (65) 
COc1cnc(F)cc1CNc1c(Nc2ccc(F)c(Cl)c2)c(=O)c1=O

>  <score_type>  (65) 
oracle

>  <origin>  (65) 
adg

>  <m_score__min__energy>  (65) 
-5.2000000000000002

>  <m_primary>  (65) 
energy

$$$$
65:0
     RDKit          3D

 36 38  0  0  1  0  0  0  0  0999 V2000
   57.1800   31.6100   41.9770 C   0  0  0  0  0  0  0  0  0  0  0  0
   56.6460   30.5970   42.6310 C   0  0  0  0  0  0  0  0  0  0  0  0
   57.1200   30.1070   43.9190 C   0  0  0  0  0  0  0  0  0  0  0  0
   56.3460   30.2010   44.8890 O   0  0  0  0  0  0  0  0  0  0  0  0
   58.3910   29.5390   44.1250 N   0  0  0  0  0  0  0  0  0  0  0  0
   58.9190   29.0440   45.3330 C   0  0  0  0  0  0  0  0  0  0  0  0
   59.5220   27.8410   45.5370 C   0  0  0  0  0  0  0  0  0  0  0  0
   60.0260   27.3920   46.7340 C   0  0  0  0  0  0  0  0  0  0  0  0
   59.9290   28.1940   47.8240 C   0  0  0  0  0  0  0  0  0  0  0  0
   60.4300   27.7310   48.9870 N   0  0  0  0  0  0  0  0  0  0  0  0
   60.3340   28.5230   50.0620 C   0  0  0  0  0  0  0  0  0  0  0  0
   59.7660   29.7260   50.0020 N   0  0  0  0  0  0  0  0  0  0  0  0
   59.2570   30.1930   48.8180 C   0  0  0  0  0  0  0  0  0  0  0  0
   58.7460   31.3120   48.8290 N   0  0  0  0  0  0  0  0  0  0  0  0
   58.9460   32.4330   48.1040 C   0  0  0  0  0  0  0  0  0  0  0  0
   60.0910   33.2390   48.3350 C   0  0  0  0  0  0  0  0  0  0  0  0
   60.3070   34.3040   47.4940 C   0  0  0  0  0  0  0  0  0  0  0  0
   59.4870   34.6370   46.4470 C   0  0  0  0  0  0  0  0  0  0  0  0
   59.7400   35.6880   45.6520 F   0  0  0  0  0  0  0  0  0  0  0  0
   58.3590   33.8450   46.2200 C   0  0  0  0  0  0  0  0  0  0  0  0
   57.2640   34.2180   44.8910 Cl  0  0  0  0  0  0  0  0  0  0  0  0
   58.0920   32.7730   47.0220 C   0  0  0  0  0  0  0  0  0  0  0  0
   59.3280   29.4330   47.6970 C   0  0  0  0  0  0  0  0  0  0  0  0
   58.8340   29.8570   46.4920 C   0  0  0  0  0  0  0  0  0  0  0  0
   56.7631   31.9197   41.0073 H   0  0  0  0  0  0  0  0  0  0  0  0
   58.0423   32.1453   42.4012 H   0  0  0  0  0  0  0  0  0  0  0  0
   55.7850   30.0877   42.1736 H   0  0  0  0  0  0  0  0  0  0  0  0
   58.9960   29.4940   43.2440 H   0  0  0  0  0  0  0  0  0  0  0  0
   59.6138   27.1708   44.6695 H   0  0  0  0  0  0  0  0  0  0  0  0
   60.4989   26.4015   46.8070 H   0  0  0  0  0  0  0  0  0  0  0  0
   60.8810   26.7990   49.0770 H   0  0  0  0  0  0  0  0  0  0  0  0
   60.7361   28.1698   51.0230 H   0  0  0  0  0  0  0  0  0  0  0  0
   60.7834   33.0183   49.1608 H   0  0  0  0  0  0  0  0  0  0  0  0
   61.1944   34.9292   47.6722 H   0  0  0  0  0  0  0  0  0  0  0  0
   57.1988   32.1615   46.8263 H   0  0  0  0  0  0  0  0  0  0  0  0
   58.3618   30.8480   46.4217 H   0  0  0  0  0  0  0  0  0  0  0  0
  1  2  2  0
  2  3  1  0
  3  4  2  0
  3  5  1  0
  5  6  1  0
  6  7  2  0
  7  8  1  0
  8  9  2  0
  9 10  1  0
 10 11  1  0
 11 12  2  0
 12 13  1  0
 13 14  2  0
 14 15  1  0
 15 16  2  0
 16 17  1  0
 17 18  2  0
 18 19  1  0
 18 20  1  0
 20 21  1  0
 20 22  2  0
 13 23  1  0
 23 24  2  0
 24  6  1  0
 23  9  1  0
 22 15  1  0
  1 25  1  0
  1 26  1  0
  2 27  1  0
  5 28  1  0
  7 29  1  0
  8 30  1  0
 10 31  1  0
 11 32  1  0
 16 33  1  0
 17 34  1  0
 22 35  1  0
 24 36  1  0
M  END
>  <smiles>  (66) 
C=CC(=O)Nc1ccc2[nH]cnc(=Nc3ccc(F)c(Cl)c3)c2c1

>  <score_type>  (66) 
oracle

>  <origin>  (66) 
adg

>  <m_score__min__energy>  (66) 
-7.9900000000000002

>  <m_primary>  (66) 
energy

$$$$
66:0
     RDKit          3D

 33 35  0  0  0  0  0  0  0  0999 V2000
   56.6510   30.6300   44.8830 O   0  0  0  0  0  0  0  0  0  0  0  0
   57.8230   30.9600   45.2130 C   0  0  0  0  0  0  0  0  0  0  0  0
   58.8070   29.9550   45.5070 N   0  0  0  0  0  0  0  0  0  0  0  0
   58.5010   28.5650   45.7160 C   0  0  0  0  0  0  0  0  0  0  0  0
   59.5110   27.5880   45.7470 C   0  0  0  0  0  0  0  0  0  0  0  0
   59.1850   26.2430   45.9380 C   0  0  0  0  0  0  0  0  0  0  0  0
   57.8500   25.8570   46.0760 C   0  0  0  0  0  0  0  0  0  0  0  0
   56.8290   26.8110   46.0010 C   0  0  0  0  0  0  0  0  0  0  0  0
   55.4670   26.3850   46.1540 N   0  0  0  0  0  0  0  0  0  0  0  0
   54.8890   25.2010   45.5940 C   0  0  0  0  0  0  0  0  0  0  0  0
   53.6370   25.0620   45.6290 O   0  0  0  0  0  0  0  0  0  0  0  0
   55.7180   24.1130   45.0410 C   0  0  0  0  0  0  0  0  0  0  0  0
   56.0180   23.9290   43.6960 C   0  0  0  0  0  0  0  0  0  0  0  0
   56.7860   22.7840   43.4490 C   0  0  0  0  0  0  0  0  0  0  0  0
   57.0840   22.0540   44.5930 C   0  0  0  0  0  0  0  0  0  0  0  0
   56.3880   22.8340   45.9090 S   0  0  0  0  0  0  0  0  0  0  0  0
   57.1610   28.1670   45.8360 C   0  0  0  0  0  0  0  0  0  0  0  0
   58.1890   32.3830   45.2540 C   0  0  0  0  0  0  0  0  0  0  0  0
   57.3890   33.4390   44.8590 C   0  0  0  0  0  0  0  0  0  0  0  0
   58.1400   34.5730   45.0760 C   0  0  0  0  0  0  0  0  0  0  0  0
   59.3470   34.1430   45.5870 C   0  0  0  0  0  0  0  0  0  0  0  0
   59.3460   32.8330   45.6810 O   0  0  0  0  0  0  0  0  0  0  0  0
   59.8130   30.2350   45.4850 H   0  0  0  0  0  0  0  0  0  0  0  0
   60.5629   27.8837   45.6203 H   0  0  0  0  0  0  0  0  0  0  0  0
   59.9820   25.4860   45.9798 H   0  0  0  0  0  0  0  0  0  0  0  0
   57.6001   24.7991   46.2443 H   0  0  0  0  0  0  0  0  0  0  0  0
   55.6849   24.6153   42.9035 H   0  0  0  0  0  0  0  0  0  0  0  0
   57.1218   22.4903   42.4435 H   0  0  0  0  0  0  0  0  0  0  0  0
   57.6735   21.1261   44.6308 H   0  0  0  0  0  0  0  0  0  0  0  0
   56.3628   28.9230   45.8006 H   0  0  0  0  0  0  0  0  0  0  0  0
   56.3669   33.3849   44.4559 H   0  0  0  0  0  0  0  0  0  0  0  0
   57.8380   35.6126   44.8810 H   0  0  0  0  0  0  0  0  0  0  0  0
   60.1834   34.7979   45.8724 H   0  0  0  0  0  0  0  0  0  0  0  0
  1  2  2  0
  2  3  1  0
  3  4  1  0
  4  5  2  0
  5  6  1  0
  6  7  2  0
  7  8  1  0
  8  9  1  0
  9 10  1  0
 10 11  2  0
 10 12  1  0
 12 13  2  0
 13 14  1  0
 14 15  2  0
 15 16  1  0
  8 17  2  0
  2 18  1  0
 18 19  2  0
 19 20  1  0
 20 21  2  0
 21 22  1  0
 17  4  1  0
 22 18  1  0
 16 12  1  0
  3 23  1  0
  5 24  1  0
  6 25  1  0
  7 26  1  0
 13 27  1  0
 14 28  1  0
 15 29  1  0
 17 30  1  0
 19 31  1  0
 20 32  1  0
 21 33  1  0
M  CHG  1   9  -1
M  END
>  <UniqueID>  (67) 
58

>  <SMILES>  (67) 
O=C(Nc1cccc([N-]C(=O)c2cccs2)c1)c1ccco1

>  <Energy>  (67) 
95.15777476021593

>  <Genealogy>  (67) 
O=C(Nc1cccc([N-]C(=O)c2cccs2)c1)c1ccco1 (protonated)
O=C(Nc1cccc([N-]C(=O)c2cccs2)c1)c1ccco1 (3D coordinates assigned)
O=C(Nc1cccc([N-]C(=O)c2cccs2)c1)c1ccco1 (optimized conformer: 95.15777476021593 kcal/mol)

>  <smiles>  (67) 
O=C(Nc1cccc(NC(=O)c2cccs2)c1)c1ccco1

>  <score_type>  (67) 
oracle

>  <origin>  (67) 
adg

>  <m_score__min__energy>  (67) 
-9.3900000000000006

>  <m_primary>  (67) 
energy

$$$$
67:0
     RDKit          3D

 33 34  0  0  1  0  0  0  0  0999 V2000
   57.0430   33.5920   45.9890 C   0  0  0  0  0  0  0  0  0  0  0  0
   57.7920   33.8440   44.7270 C   0  0  0  0  0  0  0  0  0  0  0  0
   58.8040   34.9400   44.8710 C   0  0  0  0  0  0  0  0  0  0  0  0
   59.5990   34.9370   46.4750 S   0  0  0  0  0  0  0  0  0  0  0  0
   60.5600   33.5140   46.8450 C   0  0  0  0  0  0  0  0  0  0  0  0
   61.8620   33.5110   47.1700 N   0  0  0  0  0  0  0  0  0  0  0  0
   62.5420   32.3950   47.4630 C   0  0  0  0  0  0  0  0  0  0  0  0
   63.8010   32.4720   47.7710 N   0  0  0  0  0  0  0  0  0  0  0  0
   61.9220   31.1720   47.4450 C   0  0  0  0  0  0  0  0  0  0  0  0
   60.5780   31.1580   47.1100 C   0  0  0  0  0  0  0  0  0  0  0  0
   59.8200   29.9400   47.0560 N   0  0  0  0  0  0  0  0  0  0  0  0
   58.9450   29.7200   46.1520 C   0  0  0  0  0  0  0  0  0  0  0  0
   58.4960   30.4230   45.0790 C   0  0  0  0  0  0  0  0  0  0  0  0
   57.5470   29.9210   44.2980 C   0  0  0  0  0  0  0  0  0  0  0  0
   56.9980   30.6610   43.0810 C   0  0  0  0  0  0  0  0  0  0  0  0
   57.0370   28.7060   44.5800 N   0  0  0  0  0  0  0  0  0  0  0  0
   57.9440   28.1620   46.0910 S   0  0  0  0  0  0  0  0  0  0  0  0
   59.9320   32.3030   46.8220 N   0  0  0  0  0  0  0  0  0  0  0  0
   57.6917   33.8102   46.8502 H   0  0  0  0  0  0  0  0  0  0  0  0
   56.1556   34.2411   46.0246 H   0  0  0  0  0  0  0  0  0  0  0  0
   56.7284   32.5385   46.0246 H   0  0  0  0  0  0  0  0  0  0  0  0
   58.3118   32.9198   44.4344 H   0  0  0  0  0  0  0  0  0  0  0  0
   57.0652   34.1576   43.9632 H   0  0  0  0  0  0  0  0  0  0  0  0
   59.5741   34.8124   44.0959 H   0  0  0  0  0  0  0  0  0  0  0  0
   58.2747   35.8983   44.7634 H   0  0  0  0  0  0  0  0  0  0  0  0
   64.5440   32.2970   47.0520 H   0  0  0  0  0  0  0  0  0  0  0  0
   62.4659   30.2465   47.6851 H   0  0  0  0  0  0  0  0  0  0  0  0
   58.9210   31.4129   44.8565 H   0  0  0  0  0  0  0  0  0  0  0  0
   56.3735   31.5028   43.4147 H   0  0  0  0  0  0  0  0  0  0  0  0
   57.8338   31.0419   42.4757 H   0  0  0  0  0  0  0  0  0  0  0  0
   56.3911   29.9716   42.4757 H   0  0  0  0  0  0  0  0  0  0  0  0
   56.3110   28.1070   44.1390 H   0  0  0  0  0  0  0  0  0  0  0  0
   58.9200   32.2580   46.5740 H   0  0  0  0  0  0  0  0  0  0  0  0
  1  2  1  0
  2  3  1  0
  3  4  1  0
  4  5  1  0
  5  6  2  0
  6  7  1  0
  7  8  2  3
  7  9  1  0
  9 10  2  0
 10 11  1  0
 11 12  2  0
 12 13  1  0
 13 14  2  0
 14 15  1  0
 14 16  1  0
 16 17  1  0
 10 18  1  0
 18  5  1  0
 17 12  1  0
  1 19  1  0
  1 20  1  0
  1 21  1  0
  2 22  1  0
  2 23  1  0
  3 24  1  0
  3 25  1  0
  8 26  1  0
  9 27  1  0
 13 28  1  0
 15 29  1  0
 15 30  1  0
 15 31  1  0
 16 32  1  0
 18 33  1  0
M  END
>  <smiles>  (68) 
CCCSc1nc(=N)cc(N=c2cc(C)[nH]s2)[nH]1

>  <score_type>  (68) 
oracle

>  <origin>  (68) 
adg

>  <m_score__min__energy>  (68) 
-6.3899999999999997

>  <m_primary>  (68) 
energy

$$$$
68:0
     RDKit          3D

 34 37  0  0  0  0  0  0  0  0999 V2000
   54.9510   26.2000   45.9770 O   0  0  0  0  0  0  0  0  0  0  0  0
   56.0030   27.0870   45.7790 C   0  0  0  0  0  0  0  0  0  0  0  0
   55.8860   28.2720   45.2430 O   0  0  0  0  0  0  0  0  0  0  0  0
   57.0910   28.8040   45.2480 C   0  0  0  0  0  0  0  0  0  0  0  0
   57.3910   30.1520   44.7270 C   0  0  0  0  0  0  0  0  0  0  0  0
   57.1710   30.4520   43.3710 C   0  0  0  0  0  0  0  0  0  0  0  0
   57.4540   31.7280   42.8740 C   0  0  0  0  0  0  0  0  0  0  0  0
   57.9560   32.7160   43.7260 C   0  0  0  0  0  0  0  0  0  0  0  0
   58.1780   32.4290   45.0750 C   0  0  0  0  0  0  0  0  0  0  0  0
   57.8970   31.1530   45.5760 C   0  0  0  0  0  0  0  0  0  0  0  0
   58.0240   27.9820   45.7880 N   0  0  0  0  0  0  0  0  0  0  0  0
   57.3190   26.8810   46.1130 C   0  0  0  0  0  0  0  0  0  0  0  0
   57.8910   25.6930   46.8170 C   0  0  0  0  0  0  0  0  0  0  0  0
   57.6110   24.4540   46.0300 C   0  0  0  0  0  0  0  0  0  0  0  0
   57.4690   24.3930   44.6470 C   0  0  0  0  0  0  0  0  0  0  0  0
   57.1880   23.0700   44.3950 C   0  0  0  0  0  0  0  0  0  0  0  0
   56.9420   22.4000   43.1990 C   0  0  0  0  0  0  0  0  0  0  0  0
   56.6750   21.0200   43.2650 C   0  0  0  0  0  0  0  0  0  0  0  0
   56.6600   20.3520   44.5110 C   0  0  0  0  0  0  0  0  0  0  0  0
   56.9110   21.0610   45.7020 C   0  0  0  0  0  0  0  0  0  0  0  0
   57.1720   22.4250   45.6030 C   0  0  0  0  0  0  0  0  0  0  0  0
   57.4240   23.2660   46.5760 O   0  0  0  0  0  0  0  0  0  0  0  0
   56.7740   29.6784   42.6973 H   0  0  0  0  0  0  0  0  0  0  0  0
   57.2814   31.9545   41.8115 H   0  0  0  0  0  0  0  0  0  0  0  0
   58.1763   33.7199   43.3340 H   0  0  0  0  0  0  0  0  0  0  0  0
   58.5742   33.2070   45.7442 H   0  0  0  0  0  0  0  0  0  0  0  0
   58.0727   30.9316   46.6391 H   0  0  0  0  0  0  0  0  0  0  0  0
   58.9785   25.8201   46.9230 H   0  0  0  0  0  0  0  0  0  0  0  0
   57.4292   25.6034   47.8114 H   0  0  0  0  0  0  0  0  0  0  0  0
   57.5605   25.2146   43.9213 H   0  0  0  0  0  0  0  0  0  0  0  0
   56.9560   22.9313   42.2359 H   0  0  0  0  0  0  0  0  0  0  0  0
   56.4766   20.4571   42.3410 H   0  0  0  0  0  0  0  0  0  0  0  0
   56.4512   19.2727   44.5506 H   0  0  0  0  0  0  0  0  0  0  0  0
   56.9011   20.5538   46.6780 H   0  0  0  0  0  0  0  0  0  0  0  0
  1  2  1  0
  2  3  1  0
  3  4  1  0
  4  5  1  0
  5  6  2  0
  6  7  1  0
  7  8  2  0
  8  9  1  0
  9 10  2  0
  4 11  2  0
 11 12  1  0
 12 13  1  0
 13 14  1  0
 14 15  2  0
 15 16  1  0
 16 17  2  0
 17 18  1  0
 18 19  2  0
 19 20  1  0
 20 21  2  0
 21 22  1  0
 12  2  2  0
 22 14  1  0
 10  5  1  0
 21 16  1  0
  6 23  1  0
  7 24  1  0
  8 25  1  0
  9 26  1  0
 10 27  1  0
 13 28  1  0
 13 29  1  0
 15 30  1  0
 17 31  1  0
 18 32  1  0
 19 33  1  0
 20 34  1  0
M  CHG  1   1  -1
M  END
>  <UniqueID>  (69) 
59

>  <SMILES>  (69) 
[O-]c1oc(-c2ccccc2)nc1Cc1cc2ccccc2o1

>  <Energy>  (69) 
101.22591391469207

>  <Genealogy>  (69) 
[O-]c1oc(-c2ccccc2)nc1Cc1cc2ccccc2o1 (protonated)
[O-]c1oc(-c2ccccc2)nc1Cc1cc2ccccc2o1 (3D coordinates assigned)
[O-]c1oc(-c2ccccc2)nc1Cc1cc2ccccc2o1 (optimized conformer: 101.22591391469207 kcal/mol)

>  <smiles>  (69) 
Oc1oc(-c2ccccc2)nc1Cc1cc2ccccc2o1

>  <score_type>  (69) 
oracle

>  <origin>  (69) 
adg

>  <m_score__min__energy>  (69) 
-10.279999999999999

>  <m_primary>  (69) 
energy

$$$$
69:0
     RDKit          3D

 29 29  0  0  0  0  0  0  0  0999 V2000
   62.5230   33.8060   47.1470 C   0  0  0  0  0  0  0  0  0  0  0  0
   61.1130   34.1910   47.5820 C   0  0  0  0  0  0  0  0  0  0  0  0
   60.0850   33.5430   46.6960 C   0  0  0  0  0  0  0  0  0  0  0  0
   59.2960   34.3240   45.8370 C   0  0  0  0  0  0  0  0  0  0  0  0
   58.3190   33.7260   45.0360 C   0  0  0  0  0  0  0  0  0  0  0  0
   58.1170   32.3380   45.0810 C   0  0  0  0  0  0  0  0  0  0  0  0
   57.0510   31.6910   44.2340 C   0  0  0  0  0  0  0  0  0  0  0  0
   57.6000   30.5730   43.4600 N   0  0  0  0  0  0  0  0  0  0  0  0
   57.0130   29.4160   43.2930 C   0  0  0  0  0  0  0  0  0  0  0  0
   55.9090   29.3100   42.3900 N   0  0  0  0  0  0  0  0  0  0  0  0
   57.4470   28.2400   43.9910 N   0  0  0  0  0  0  0  0  0  0  0  0
   58.8860   31.5600   45.9620 C   0  0  0  0  0  0  0  0  0  0  0  0
   59.8640   32.1580   46.7630 C   0  0  0  0  0  0  0  0  0  0  0  0
   63.1474   33.6355   48.0364 H   0  0  0  0  0  0  0  0  0  0  0  0
   62.4828   32.8860   46.5454 H   0  0  0  0  0  0  0  0  0  0  0  0
   62.9559   34.6188   46.5454 H   0  0  0  0  0  0  0  0  0  0  0  0
   60.9534   33.8625   48.6196 H   0  0  0  0  0  0  0  0  0  0  0  0
   61.0063   35.2831   47.5054 H   0  0  0  0  0  0  0  0  0  0  0  0
   59.4474   35.4127   45.7940 H   0  0  0  0  0  0  0  0  0  0  0  0
   57.7051   34.3467   44.3667 H   0  0  0  0  0  0  0  0  0  0  0  0
   56.2501   31.3163   44.8883 H   0  0  0  0  0  0  0  0  0  0  0  0
   56.6571   32.4418   43.5332 H   0  0  0  0  0  0  0  0  0  0  0  0
   58.5310   30.7310   43.0110 H   0  0  0  0  0  0  0  0  0  0  0  0
   55.4300   28.3940   42.2450 H   0  0  0  0  0  0  0  0  0  0  0  0
   55.5610   30.1420   41.8640 H   0  0  0  0  0  0  0  0  0  0  0  0
   58.2670   28.2310   44.6350 H   0  0  0  0  0  0  0  0  0  0  0  0
   56.9430   27.3380   43.8490 H   0  0  0  0  0  0  0  0  0  0  0  0
   58.7181   30.4746   46.0222 H   0  0  0  0  0  0  0  0  0  0  0  0
   60.4629   31.5406   47.4487 H   0  0  0  0  0  0  0  0  0  0  0  0
  1  2  1  0
  2  3  1  0
  3  4  2  0
  4  5  1  0
  5  6  2  0
  6  7  1  0
  7  8  1  0
  8  9  2  3
  9 10  1  0
  9 11  1  0
  6 12  1  0
 12 13  2  0
 13  3  1  0
  1 14  1  0
  1 15  1  0
  1 16  1  0
  2 17  1  0
  2 18  1  0
  4 19  1  0
  5 20  1  0
  7 21  1  0
  7 22  1  0
  8 23  1  0
 10 24  1  0
 10 25  1  0
 11 26  1  0
 11 27  1  0
 12 28  1  0
 13 29  1  0
M  CHG  1   8   1
M  END
>  <UniqueID>  (70) 
60

>  <SMILES>  (70) 
CCc1ccc(C[NH+]=C(N)N)cc1

>  <Energy>  (70) 
21.42486973918135

>  <Genealogy>  (70) 
CCc1ccc(C[NH+]=C(N)N)cc1 (protonated)
CCc1ccc(C[NH+]=C(N)N)cc1 (3D coordinates assigned)
CCc1ccc(C[NH+]=C(N)N)cc1 (optimized conformer: 21.42486973918135 kcal/mol)

>  <smiles>  (70) 
CCc1ccc(CN=C(N)N)cc1

>  <score_type>  (70) 
oracle

>  <origin>  (70) 
adg

>  <m_score__min__energy>  (70) 
-4.6699999999999999

>  <m_primary>  (70) 
energy

$$$$
70:0
     RDKit          3D

 30 33  0  0  0  0  0  0  0  0999 V2000
   64.5250   33.8390   50.4160 N   0  0  0  0  0  0  0  0  0  0  0  0
   63.7130   33.3990   49.7180 C   0  0  0  0  0  0  0  0  0  0  0  0
   62.7020   32.8530   48.8510 C   0  0  0  0  0  0  0  0  0  0  0  0
   62.5050   31.4660   48.7920 C   0  0  0  0  0  0  0  0  0  0  0  0
   61.5260   30.9250   47.9520 C   0  0  0  0  0  0  0  0  0  0  0  0
   60.7330   31.7670   47.1660 C   0  0  0  0  0  0  0  0  0  0  0  0
   59.7760   31.2380   46.3410 N   0  0  0  0  0  0  0  0  0  0  0  0
   58.9690   32.0150   45.5540 C   0  0  0  0  0  0  0  0  0  0  0  0
   57.9590   31.3700   44.6790 C   0  0  0  0  0  0  0  0  0  0  0  0
   57.9640   31.6350   43.2970 C   0  0  0  0  0  0  0  0  0  0  0  0
   57.0270   31.0280   42.4560 C   0  0  0  0  0  0  0  0  0  0  0  0
   56.0840   30.1420   42.9810 C   0  0  0  0  0  0  0  0  0  0  0  0
   56.0800   29.8550   44.3490 C   0  0  0  0  0  0  0  0  0  0  0  0
   55.1510   28.9620   44.8680 O   0  0  0  0  0  0  0  0  0  0  0  0
   57.0150   30.4620   45.1950 C   0  0  0  0  0  0  0  0  0  0  0  0
   59.1620   33.4010   45.6010 C   0  0  0  0  0  0  0  0  0  0  0  0
   58.5450   34.3630   44.8910 N   0  0  0  0  0  0  0  0  0  0  0  0
   59.0790   35.5260   45.2490 N   0  0  0  0  0  0  0  0  0  0  0  0
   60.0390   35.3090   46.1780 C   0  0  0  0  0  0  0  0  0  0  0  0
   60.1100   33.9540   46.4110 C   0  0  0  0  0  0  0  0  0  0  0  0
   60.9290   33.1720   47.2270 C   0  0  0  0  0  0  0  0  0  0  0  0
   61.9150   33.7090   48.0680 C   0  0  0  0  0  0  0  0  0  0  0  0
   63.1241   30.7992   49.4101 H   0  0  0  0  0  0  0  0  0  0  0  0
   61.3797   29.8356   47.9096 H   0  0  0  0  0  0  0  0  0  0  0  0
   58.7104   32.3245   42.8757 H   0  0  0  0  0  0  0  0  0  0  0  0
   57.0325   31.2487   41.3784 H   0  0  0  0  0  0  0  0  0  0  0  0
   55.3442   29.6698   42.3179 H   0  0  0  0  0  0  0  0  0  0  0  0
   57.0123   30.2282   46.2699 H   0  0  0  0  0  0  0  0  0  0  0  0
   60.6552   36.0808   46.6625 H   0  0  0  0  0  0  0  0  0  0  0  0
   62.0700   34.7971   48.1129 H   0  0  0  0  0  0  0  0  0  0  0  0
  1  2  3  0
  2  3  1  0
  3  4  2  0
  4  5  1  0
  5  6  2  0
  6  7  1  0
  7  8  2  0
  8  9  1  0
  9 10  2  0
 10 11  1  0
 11 12  2  0
 12 13  1  0
 13 14  1  0
 13 15  2  0
  8 16  1  0
 16 17  1  0
 17 18  1  0
 18 19  2  0
 19 20  1  0
 20 21  1  0
 21 22  2  0
 22  3  1  0
 21  6  1  0
 15  9  1  0
 20 16  2  0
  4 23  1  0
  5 24  1  0
 10 25  1  0
 11 26  1  0
 12 27  1  0
 15 28  1  0
 19 29  1  0
 22 30  1  0
M  CHG  2  14  -1  17  -1
M  END
>  <UniqueID>  (71) 
61

>  <SMILES>  (71) 
N#Cc1ccc2nc(-c3cccc([O-])c3)c3[n-]ncc3c2c1

>  <Energy>  (71) 
80.88577947959719

>  <Genealogy>  (71) 
N#Cc1ccc2nc(-c3cccc([O-])c3)c3[n-]ncc3c2c1 (protonated)
N#Cc1ccc2nc(-c3cccc([O-])c3)c3[n-]ncc3c2c1 (3D coordinates assigned)
N#Cc1ccc2nc(-c3cccc([O-])c3)c3[n-]ncc3c2c1 (optimized conformer: 80.88577947959719 kcal/mol)

>  <smiles>  (71) 
N#Cc1ccc2nc(-c3cccc(O)c3)c3[nH]ncc3c2c1

>  <score_type>  (71) 
oracle

>  <origin>  (71) 
adg

>  <m_score__min__energy>  (71) 
-11.710000000000001

>  <m_primary>  (71) 
energy

$$$$
71:0
     RDKit          3D

 35 37  0  0  0  0  0  0  0  0999 V2000
   55.9930   30.0600   44.5070 O   0  0  0  0  0  0  0  0  0  0  0  0
   56.6620   30.9900   43.9860 C   0  0  0  0  0  0  0  0  0  0  0  0
   57.3800   31.9700   44.8150 C   0  0  0  0  0  0  0  0  0  0  0  0
   57.4160   33.3300   44.4770 C   0  0  0  0  0  0  0  0  0  0  0  0
   58.1140   34.2200   45.2930 C   0  0  0  0  0  0  0  0  0  0  0  0
   58.7570   33.7600   46.4490 C   0  0  0  0  0  0  0  0  0  0  0  0
   58.7100   32.3860   46.7550 C   0  0  0  0  0  0  0  0  0  0  0  0
   58.0250   31.5400   45.9330 N   0  0  0  0  0  0  0  0  0  0  0  0
   59.3850   31.8750   47.9270 N   0  0  0  0  0  0  0  0  0  0  0  0
   59.2300   30.4990   48.3260 C   0  0  0  0  0  0  0  0  0  0  0  0
   58.8480   30.2230   49.4940 O   0  0  0  0  0  0  0  0  0  0  0  0
   59.6010   29.4250   47.4480 N   0  0  0  0  0  0  0  0  0  0  0  0
   58.8620   28.4100   47.0930 C   0  0  0  0  0  0  0  0  0  0  0  0
   59.1070   27.0990   47.5580 C   0  0  0  0  0  0  0  0  0  0  0  0
   58.2850   26.0550   47.1350 C   0  0  0  0  0  0  0  0  0  0  0  0
   57.2380   26.3070   46.2510 C   0  0  0  0  0  0  0  0  0  0  0  0
   56.4350   25.2980   45.8320 F   0  0  0  0  0  0  0  0  0  0  0  0
   57.0320   27.6090   45.7910 C   0  0  0  0  0  0  0  0  0  0  0  0
   57.8410   28.6200   46.2110 N   0  0  0  0  0  0  0  0  0  0  0  0
   60.2800   32.7530   48.6940 C   0  0  0  0  0  0  0  0  0  0  0  0
   59.7380   34.1840   48.7200 C   0  0  0  0  0  0  0  0  0  0  0  0
   59.5580   34.7140   47.2960 C   0  0  0  0  0  0  0  0  0  0  0  0
   56.7106   31.0714   42.8901 H   0  0  0  0  0  0  0  0  0  0  0  0
   56.8984   33.6919   43.5764 H   0  0  0  0  0  0  0  0  0  0  0  0
   58.1596   35.2866   45.0278 H   0  0  0  0  0  0  0  0  0  0  0  0
   59.9402   26.9029   48.2489 H   0  0  0  0  0  0  0  0  0  0  0  0
   58.4632   25.0325   47.4993 H   0  0  0  0  0  0  0  0  0  0  0  0
   56.2133   27.8185   45.0869 H   0  0  0  0  0  0  0  0  0  0  0  0
   57.6600   29.5840   45.8490 H   0  0  0  0  0  0  0  0  0  0  0  0
   60.3587   32.3774   49.7249 H   0  0  0  0  0  0  0  0  0  0  0  0
   61.2698   32.7572   48.2140 H   0  0  0  0  0  0  0  0  0  0  0  0
   58.7664   34.1939   49.2356 H   0  0  0  0  0  0  0  0  0  0  0  0
   60.4553   34.8269   49.2512 H   0  0  0  0  0  0  0  0  0  0  0  0
   59.0347   35.6806   47.3379 H   0  0  0  0  0  0  0  0  0  0  0  0
   60.5533   34.8269   46.8414 H   0  0  0  0  0  0  0  0  0  0  0  0
  1  2  2  0
  2  3  1  0
  3  4  2  0
  4  5  1  0
  5  6  2  0
  6  7  1  0
  7  8  2  0
  7  9  1  0
  9 10  1  0
 10 11  2  0
 10 12  1  0
 12 13  2  3
 13 14  1  0
 14 15  2  0
 15 16  1  0
 16 17  1  0
 16 18  2  0
 18 19  1  0
  9 20  1  0
 20 21  1  0
 21 22  1  0
  8  3  1  0
 19 13  1  0
 22  6  1  0
  2 23  1  0
  4 24  1  0
  5 25  1  0
 14 26  1  0
 15 27  1  0
 18 28  1  0
 19 29  1  0
 20 30  1  0
 20 31  1  0
 21 32  1  0
 21 33  1  0
 22 34  1  0
 22 35  1  0
M  END
>  <UniqueID>  (72) 
62

>  <SMILES>  (72) 
O=Cc1ccc2c(n1)N(C(=O)N=c1ccc(F)c[nH]1)CCC2

>  <Energy>  (72) 
47.673669211070475

>  <Genealogy>  (72) 
O=Cc1ccc2c(n1)N(C(=O)N=c1ccc(F)c[nH]1)CCC2 (3D coordinates assigned)
O=Cc1ccc2c(n1)N(C(=O)N=c1ccc(F)c[nH]1)CCC2 (nonaromatic ring conformer: 47.673669211070475 kcal/mol)

>  <smiles>  (72) 
O=Cc1ccc2c(n1)N(C(=O)N=c1ccc(F)c[nH]1)CCC2

>  <score_type>  (72) 
oracle

>  <origin>  (72) 
adg

>  <m_score__min__energy>  (72) 
-6.4000000000000004

>  <m_primary>  (72) 
energy

$$$$
72:0
     RDKit          3D

 42 44  0  0  0  0  0  0  0  0999 V2000
   62.8029   30.7130   47.7516 H   0  0  0  0  0  0  0  0  0  0  0  0
   62.1620   31.5490   47.4350 C   0  0  0  0  0  0  0  0  0  0  0  0
   60.7780   31.3700   47.3360 C   0  0  0  0  0  0  0  0  0  0  0  0
   60.2280   30.1650   47.6220 F   0  0  0  0  0  0  0  0  0  0  0  0
   59.9630   32.4340   46.9380 C   0  0  0  0  0  0  0  0  0  0  0  0
   58.8755   32.2900   46.8569 H   0  0  0  0  0  0  0  0  0  0  0  0
   60.5270   33.6870   46.6410 C   0  0  0  0  0  0  0  0  0  0  0  0
   59.6540   34.8230   46.1760 C   0  0  0  0  0  0  0  0  0  0  0  0
   59.3705   35.4347   47.0451 H   0  0  0  0  0  0  0  0  0  0  0  0
   60.2223   35.4186   45.4464 H   0  0  0  0  0  0  0  0  0  0  0  0
   58.3810   34.3100   45.4910 C   0  0  0  0  0  0  0  0  0  0  0  0
   57.8042   33.7107   46.2108 H   0  0  0  0  0  0  0  0  0  0  0  0
   57.7984   35.1783   45.1495 H   0  0  0  0  0  0  0  0  0  0  0  0
   58.6970   33.4800   44.3250 N   0  0  0  0  0  0  0  0  0  0  0  0
   57.9890   32.5030   43.8290 C   0  0  0  0  0  0  0  0  0  0  0  0
   57.7730   32.4720   42.4480 C   0  0  0  0  0  0  0  0  0  0  0  0
   58.1911   33.2620   41.8068 H   0  0  0  0  0  0  0  0  0  0  0  0
   57.0260   31.4370   41.8850 C   0  0  0  0  0  0  0  0  0  0  0  0
   56.8557   31.4142   40.7985 H   0  0  0  0  0  0  0  0  0  0  0  0
   56.5070   30.4560   42.6710 N   0  0  0  0  0  0  0  0  0  0  0  0
   55.9490   29.7090   42.2060 H   0  0  0  0  0  0  0  0  0  0  0  0
   56.6970   30.4530   44.0260 C   0  0  0  0  0  0  0  0  0  0  0  0
   56.1680   29.4480   44.8510 O   0  0  0  0  0  0  0  0  0  0  0  0
   56.8700   28.2810   45.2790 C   0  0  2  0  0  0  0  0  0  0  0  0
   56.0925   27.5562   45.5622 H   0  0  0  0  0  0  0  0  0  0  0  0
   57.8230   28.6220   46.4120 C   0  0  0  0  0  0  0  0  0  0  0  0
   57.3307   28.4477   47.3801 H   0  0  0  0  0  0  0  0  0  0  0  0
   58.1197   29.6799   46.3588 H   0  0  0  0  0  0  0  0  0  0  0  0
   58.9970   27.7550   46.2870 N   0  0  0  0  0  0  0  0  0  0  0  0
   59.8600   28.3460   46.3530 H   0  0  0  0  0  0  0  0  0  0  0  0
   58.9450   27.1380   44.9600 C   0  0  0  0  0  0  0  0  0  0  0  0
   58.7970   26.0526   45.0598 H   0  0  0  0  0  0  0  0  0  0  0  0
   59.8871   27.3168   44.4211 H   0  0  0  0  0  0  0  0  0  0  0  0
   57.7820   27.7470   44.1980 C   0  0  0  0  0  0  0  0  0  0  0  0
   57.2678   26.9837   43.5955 H   0  0  0  0  0  0  0  0  0  0  0  0
   58.1027   28.5282   43.4932 H   0  0  0  0  0  0  0  0  0  0  0  0
   57.4350   31.4800   44.6240 C   0  0  0  0  0  0  0  0  0  0  0  0
   57.5827   31.4889   45.7140 H   0  0  0  0  0  0  0  0  0  0  0  0
   61.9180   33.8540   46.7330 C   0  0  0  0  0  0  0  0  0  0  0  0
   62.3700   34.8270   46.4901 H   0  0  0  0  0  0  0  0  0  0  0  0
   62.7310   32.7890   47.1320 C   0  0  0  0  0  0  0  0  0  0  0  0
   64.0740   32.9580   47.2240 F   0  0  0  0  0  0  0  0  0  0  0  0
  1  2  1  0
  2  3  2  0
  3  4  1  0
  3  5  1  0
  5  6  1  0
  5  7  2  0
  7  8  1  0
  8  9  1  0
  8 10  1  0
  8 11  1  0
 11 12  1  0
 11 13  1  0
 11 14  1  0
 14 15  2  0
 15 16  1  0
 16 17  1  0
 16 18  2  0
 18 19  1  0
 18 20  1  0
 20 21  1  0
 20 22  1  0
 22 23  1  0
 23 24  1  0
 24 25  1  1
 24 26  1  0
 26 27  1  0
 26 28  1  0
 26 29  1  0
 29 30  1  0
 29 31  1  0
 31 32  1  0
 31 33  1  0
 31 34  1  0
 34 35  1  0
 34 36  1  0
 22 37  2  0
 37 38  1  0
  7 39  1  0
 39 40  1  0
 39 41  2  0
 41 42  1  0
 41  2  1  0
 37 15  1  0
 34 24  1  0
M  END
>  <UniqueID>  (73) 
63

>  <SMILES>  (73) 
Fc1cc(F)cc(CC/N=c2/cc[nH]c(O[C@H]3CCNC3)c2)c1

>  <Energy>  (73) 
42.70471841153243

>  <Genealogy>  (73) 
Fc1cc(F)cc(CCN=c2cc[nH]c(O[C@H]3CCNC3)c2)c1 (chirality)
Fc1cc(F)cc(CC/N=c2/cc[nH]c(O[C@H]3CCNC3)c2)c1 (cis-trans isomerization)
Fc1cc(F)cc(CC/N=c2/cc[nH]c(O[C@H]3CCNC3)c2)c1 (3D coordinates assigned)
Fc1cc(F)cc(CC/N=c2/cc[nH]c(O[C@H]3CCNC3)c2)c1 (nonaromatic ring conformer: 42.70471841153243 kcal/mol)

>  <smiles>  (73) 
Fc1cc(F)cc(CCN=c2cc[nH]c(OC3CCNC3)c2)c1

>  <score_type>  (73) 
oracle

>  <origin>  (73) 
adg

>  <m_score__min__energy>  (73) 
-7.21

>  <m_primary>  (73) 
energy

$$$$
73:0
     RDKit          3D

 30 31  0  0  0  0  0  0  0  0999 V2000
   57.1580   30.8560   43.3460 C   0  0  0  0  0  0  0  0  0  0  0  0
   58.0490   31.2810   44.4910 C   0  0  0  0  0  0  0  0  0  0  0  0
   58.8430   30.3980   45.1460 C   0  0  0  0  0  0  0  0  0  0  0  0
   58.9320   28.6550   44.6670 S   0  0  0  0  0  0  0  0  0  0  0  0
   57.3740   28.1520   45.4930 C   0  0  0  0  0  0  0  0  0  0  0  0
   57.5090   26.8200   46.2340 C   0  0  0  0  0  0  0  0  0  0  0  0
   56.1800   26.1520   46.4090 C   0  0  0  0  0  0  0  0  0  0  0  0
   55.1300   26.7030   45.9840 O   0  0  0  0  0  0  0  0  0  0  0  0
   56.0970   24.9340   47.0700 O   0  0  0  0  0  0  0  0  0  0  0  0
   59.6380   30.8300   46.3220 C   0  0  0  0  0  0  0  0  0  0  0  0
   60.3050   29.9790   46.9700 O   0  0  0  0  0  0  0  0  0  0  0  0
   59.6520   32.2500   46.7340 C   0  0  0  0  0  0  0  0  0  0  0  0
   60.4220   32.6810   47.8290 C   0  0  0  0  0  0  0  0  0  0  0  0
   60.4260   34.0270   48.2010 C   0  0  0  0  0  0  0  0  0  0  0  0
   59.6640   34.9530   47.4870 C   0  0  0  0  0  0  0  0  0  0  0  0
   58.8930   34.5350   46.3980 C   0  0  0  0  0  0  0  0  0  0  0  0
   58.8820   33.1820   46.0160 C   0  0  0  0  0  0  0  0  0  0  0  0
   58.0680   32.7190   44.8690 C   0  0  0  0  0  0  0  0  0  0  0  0
   57.3910   33.5510   44.2050 O   0  0  0  0  0  0  0  0  0  0  0  0
   56.2330   30.4148   43.7455 H   0  0  0  0  0  0  0  0  0  0  0  0
   56.9097   31.7327   42.7297 H   0  0  0  0  0  0  0  0  0  0  0  0
   57.6830   30.1114   42.7297 H   0  0  0  0  0  0  0  0  0  0  0  0
   57.0902   28.9310   46.2159 H   0  0  0  0  0  0  0  0  0  0  0  0
   56.6076   28.0257   44.7141 H   0  0  0  0  0  0  0  0  0  0  0  0
   58.1698   26.1558   45.6577 H   0  0  0  0  0  0  0  0  0  0  0  0
   57.9283   27.0207   47.2310 H   0  0  0  0  0  0  0  0  0  0  0  0
   61.0238   31.9547   48.3950 H   0  0  0  0  0  0  0  0  0  0  0  0
   61.0307   34.3580   49.0582 H   0  0  0  0  0  0  0  0  0  0  0  0
   59.6700   36.0129   47.7813 H   0  0  0  0  0  0  0  0  0  0  0  0
   58.2929   35.2674   45.8381 H   0  0  0  0  0  0  0  0  0  0  0  0
  1  2  1  0
  2  3  2  0
  3  4  1  0
  4  5  1  0
  5  6  1  0
  6  7  1  0
  7  8  2  0
  7  9  1  0
  3 10  1  0
 10 11  2  0
 10 12  1  0
 12 13  2  0
 13 14  1  0
 14 15  2  0
 15 16  1  0
 16 17  2  0
 17 18  1  0
 18 19  2  0
 18  2  1  0
 17 12  1  0
  1 20  1  0
  1 21  1  0
  1 22  1  0
  5 23  1  0
  5 24  1  0
  6 25  1  0
  6 26  1  0
 13 27  1  0
 14 28  1  0
 15 29  1  0
 16 30  1  0
M  CHG  1   9  -1
M  END
>  <UniqueID>  (74) 
64

>  <SMILES>  (74) 
CC1=C(SCCC(=O)[O-])C(=O)c2ccccc2C1=O

>  <Energy>  (74) 
28.67936642103141

>  <Genealogy>  (74) 
CC1=C(SCCC(=O)[O-])C(=O)c2ccccc2C1=O (protonated)
CC1=C(SCCC(=O)[O-])C(=O)c2ccccc2C1=O (3D coordinates assigned)
CC1=C(SCCC(=O)[O-])C(=O)c2ccccc2C1=O (nonaromatic ring conformer: 28.67936642103141 kcal/mol)

>  <smiles>  (74) 
CC1=C(SCCC(=O)O)C(=O)c2ccccc2C1=O

>  <score_type>  (74) 
oracle

>  <origin>  (74) 
adg

>  <m_score__min__energy>  (74) 
-10.529999999999999

>  <m_primary>  (74) 
energy

$$$$
74:0
     RDKit          3D

 43 45  0  0  0  0  0  0  0  0999 V2000
   56.0140   25.3840   46.4600 O   0  0  0  0  0  0  0  0  0  0  0  0
   56.6300   26.4600   46.2340 C   0  0  0  0  0  0  0  0  0  0  0  0
   55.9140   27.5450   45.6290 N   0  0  0  0  0  0  0  0  0  0  0  0
   56.4900   28.7450   45.0920 C   0  0  0  0  0  0  0  0  0  0  0  0
   57.8730   28.9900   45.1530 C   0  0  0  0  0  0  0  0  0  0  0  0
   58.4010   30.1770   44.6380 C   0  0  0  0  0  0  0  0  0  0  0  0
   57.5560   31.1320   44.0550 C   0  0  0  0  0  0  0  0  0  0  0  0
   58.1350   32.3920   43.5390 C   0  0  0  0  0  0  0  0  0  0  0  0
   58.4470   32.4460   42.3180 O   0  0  0  0  0  0  0  0  0  0  0  0
   58.3720   33.5500   44.3840 N   0  0  0  0  0  0  0  0  0  0  0  0
   57.1640   33.9540   45.1250 C   0  0  0  0  0  0  0  0  0  0  0  0
   57.3640   33.5990   46.5970 C   0  0  0  0  0  0  0  0  0  0  0  0
   58.7480   32.9860   46.7000 C   0  0  0  0  0  0  0  0  0  0  0  0
   59.4280   33.3240   45.3850 C   0  0  0  0  0  0  0  0  0  0  0  0
   56.1850   30.8600   43.9430 C   0  0  0  0  0  0  0  0  0  0  0  0
   55.6570   29.6730   44.4590 C   0  0  0  0  0  0  0  0  0  0  0  0
   58.0500   26.5830   46.6450 C   0  0  0  0  0  0  0  0  0  0  0  0
   59.0340   25.8060   46.0120 C   0  0  0  0  0  0  0  0  0  0  0  0
   60.3720   25.9100   46.3950 C   0  0  0  0  0  0  0  0  0  0  0  0
   60.7450   26.7930   47.4120 C   0  0  0  0  0  0  0  0  0  0  0  0
   59.7790   27.5880   48.0510 C   0  0  0  0  0  0  0  0  0  0  0  0
   60.1660   28.5070   49.1830 C   0  0  0  0  0  0  0  0  0  0  0  0
   61.1760   29.3510   48.7590 F   0  0  0  0  0  0  0  0  0  0  0  0
   60.6160   27.7750   50.2670 F   0  0  0  0  0  0  0  0  0  0  0  0
   59.0850   29.2680   49.5950 F   0  0  0  0  0  0  0  0  0  0  0  0
   58.4290   27.4520   47.6830 C   0  0  0  0  0  0  0  0  0  0  0  0
   58.5420   28.2446   45.6078 H   0  0  0  0  0  0  0  0  0  0  0  0
   59.4839   30.3629   44.6902 H   0  0  0  0  0  0  0  0  0  0  0  0
   58.6710   34.3440   43.7670 H   0  0  0  0  0  0  0  0  0  0  0  0
   57.0092   35.0381   45.0214 H   0  0  0  0  0  0  0  0  0  0  0  0
   56.2818   33.4323   44.7255 H   0  0  0  0  0  0  0  0  0  0  0  0
   57.3003   34.5036   47.2195 H   0  0  0  0  0  0  0  0  0  0  0  0
   56.5896   32.9022   46.9502 H   0  0  0  0  0  0  0  0  0  0  0  0
   59.3018   33.4219   47.5446 H   0  0  0  0  0  0  0  0  0  0  0  0
   58.7066   31.9010   46.8762 H   0  0  0  0  0  0  0  0  0  0  0  0
   60.0367   34.2330   45.5001 H   0  0  0  0  0  0  0  0  0  0  0  0
   60.0902   32.5041   45.0701 H   0  0  0  0  0  0  0  0  0  0  0  0
   55.5219   31.5840   43.4468 H   0  0  0  0  0  0  0  0  0  0  0  0
   54.5803   29.4677   44.3666 H   0  0  0  0  0  0  0  0  0  0  0  0
   58.7481   25.1108   45.2089 H   0  0  0  0  0  0  0  0  0  0  0  0
   61.1350   25.2953   45.8951 H   0  0  0  0  0  0  0  0  0  0  0  0
   61.8003   26.8659   47.7137 H   0  0  0  0  0  0  0  0  0  0  0  0
   57.6600   28.0326   48.2137 H   0  0  0  0  0  0  0  0  0  0  0  0
  1  2  2  0
  2  3  1  0
  3  4  1  0
  4  5  2  0
  5  6  1  0
  6  7  2  0
  7  8  1  0
  8  9  2  0
  8 10  1  0
 10 11  1  0
 11 12  1  0
 12 13  1  0
 13 14  1  0
  7 15  1  0
 15 16  2  0
  2 17  1  0
 17 18  2  0
 18 19  1  0
 19 20  2  0
 20 21  1  0
 21 22  1  0
 22 23  1  0
 22 24  1  0
 22 25  1  0
 21 26  2  0
 16  4  1  0
 26 17  1  0
 14 10  1  0
  5 27  1  0
  6 28  1  0
 10 29  1  0
 11 30  1  0
 11 31  1  0
 12 32  1  0
 12 33  1  0
 13 34  1  0
 13 35  1  0
 14 36  1  0
 14 37  1  0
 15 38  1  0
 16 39  1  0
 18 40  1  0
 19 41  1  0
 20 42  1  0
 26 43  1  0
M  CHG  2   3  -1  10   1
M  END
>  <UniqueID>  (75) 
65

>  <SMILES>  (75) 
O=C([N-]c1ccc(C(=O)[NH+]2CCCC2)cc1)c1cccc(C(F)(F)F)c1

>  <Energy>  (75) 
63.06226172434815

>  <Genealogy>  (75) 
O=C([N-]c1ccc(C(=O)[NH+]2CCCC2)cc1)c1cccc(C(F)(F)F)c1 (protonated)
O=C([N-]c1ccc(C(=O)[NH+]2CCCC2)cc1)c1cccc(C(F)(F)F)c1 (3D coordinates assigned)
O=C([N-]c1ccc(C(=O)[NH+]2CCCC2)cc1)c1cccc(C(F)(F)F)c1 (nonaromatic ring conformer: 63.06226172434815 kcal/mol)

>  <smiles>  (75) 
O=C(Nc1ccc(C(=O)N2CCCC2)cc1)c1cccc(C(F)(F)F)c1

>  <score_type>  (75) 
oracle

>  <origin>  (75) 
adg

>  <m_score__min__energy>  (75) 
-8.3699999999999992

>  <m_primary>  (75) 
energy

$$$$
75:0
     RDKit          3D

 38 41  0  0  0  0  0  0  0  0999 V2000
   60.7240   30.2010   46.5760 C   0  0  0  0  0  0  0  0  0  0  0  0
   59.5180   30.6350   45.8660 N   0  0  0  0  0  0  0  0  0  0  0  0
   58.9300   31.8610   45.8840 C   0  0  0  0  0  0  0  0  0  0  0  0
   59.3240   33.0060   46.5890 C   0  0  0  0  0  0  0  0  0  0  0  0
   58.5500   34.1720   46.4440 C   0  0  0  0  0  0  0  0  0  0  0  0
   57.4110   34.1820   45.6110 C   0  0  0  0  0  0  0  0  0  0  0  0
   57.0310   33.0260   44.9100 C   0  0  0  0  0  0  0  0  0  0  0  0
   57.8130   31.8840   45.0710 C   0  0  0  0  0  0  0  0  0  0  0  0
   57.7100   30.6260   44.5260 C   0  0  0  0  0  0  0  0  0  0  0  0
   56.8040   30.0740   43.6360 C   0  0  0  0  0  0  0  0  0  0  0  0
   56.9830   28.7720   43.2690 N   0  0  0  0  0  0  0  0  0  0  0  0
   57.9990   28.0250   43.7470 N   0  0  0  0  0  0  0  0  0  0  0  0
   58.1430   26.6400   43.2720 C   0  0  0  0  0  0  0  0  0  0  0  0
   57.4050   25.6990   44.1860 C   0  0  0  0  0  0  0  0  0  0  0  0
   57.0190   24.4280   43.7280 C   0  0  0  0  0  0  0  0  0  0  0  0
   56.3650   23.5400   44.5860 C   0  0  0  0  0  0  0  0  0  0  0  0
   56.0980   23.9090   45.9070 C   0  0  0  0  0  0  0  0  0  0  0  0
   56.4870   25.1680   46.3730 C   0  0  0  0  0  0  0  0  0  0  0  0
   57.1420   26.0600   45.5180 C   0  0  0  0  0  0  0  0  0  0  0  0
   58.9150   28.5610   44.6260 C   0  0  0  0  0  0  0  0  0  0  0  0
   59.8780   27.8710   45.0620 O   0  0  0  0  0  0  0  0  0  0  0  0
   58.7550   29.8910   45.0220 C   0  0  0  0  0  0  0  0  0  0  0  0
   60.5529   30.2626   47.6609 H   0  0  0  0  0  0  0  0  0  0  0  0
   60.9581   29.1622   46.3001 H   0  0  0  0  0  0  0  0  0  0  0  0
   61.5663   30.8524   46.3001 H   0  0  0  0  0  0  0  0  0  0  0  0
   60.2127   32.9937   47.2371 H   0  0  0  0  0  0  0  0  0  0  0  0
   58.8358   35.0856   46.9858 H   0  0  0  0  0  0  0  0  0  0  0  0
   56.8165   35.1020   45.5100 H   0  0  0  0  0  0  0  0  0  0  0  0
   56.1464   33.0222   44.2562 H   0  0  0  0  0  0  0  0  0  0  0  0
   55.9669   30.6661   43.2377 H   0  0  0  0  0  0  0  0  0  0  0  0
   56.3020   28.3620   42.5920 H   0  0  0  0  0  0  0  0  0  0  0  0
   57.7293   26.5592   42.2560 H   0  0  0  0  0  0  0  0  0  0  0  0
   59.2097   26.3715   43.2649 H   0  0  0  0  0  0  0  0  0  0  0  0
   57.2324   24.1310   42.6906 H   0  0  0  0  0  0  0  0  0  0  0  0
   56.0597   22.5483   44.2208 H   0  0  0  0  0  0  0  0  0  0  0  0
   55.5817   23.2087   46.5801 H   0  0  0  0  0  0  0  0  0  0  0  0
   56.2777   25.4575   47.4134 H   0  0  0  0  0  0  0  0  0  0  0  0
   57.4524   27.0477   45.8897 H   0  0  0  0  0  0  0  0  0  0  0  0
  1  2  1  0
  2  3  1  0
  3  4  2  0
  4  5  1  0
  5  6  2  0
  6  7  1  0
  7  8  2  0
  8  9  1  0
  9 10  1  0
 10 11  2  0
 11 12  1  0
 12 13  1  0
 13 14  1  0
 14 15  2  0
 15 16  1  0
 16 17  2  0
 17 18  1  0
 18 19  2  0
 12 20  1  0
 20 21  2  0
 20 22  1  0
 22  2  1  0
  8  3  1  0
 22  9  2  0
 19 14  1  0
  1 23  1  0
  1 24  1  0
  1 25  1  0
  4 26  1  0
  5 27  1  0
  6 28  1  0
  7 29  1  0
 10 30  1  0
 11 31  1  0
 13 32  1  0
 13 33  1  0
 15 34  1  0
 16 35  1  0
 17 36  1  0
 18 37  1  0
 19 38  1  0
M  CHG  1  11   1
M  END
>  <UniqueID>  (76) 
66

>  <SMILES>  (76) 
Cn1c2ccccc2c2c[nH+]n(Cc3ccccc3)c(=O)c21

>  <Energy>  (76) 
87.85787379171973

>  <Genealogy>  (76) 
Cn1c2ccccc2c2c[nH+]n(Cc3ccccc3)c(=O)c21 (protonated)
Cn1c2ccccc2c2c[nH+]n(Cc3ccccc3)c(=O)c21 (3D coordinates assigned)
Cn1c2ccccc2c2c[nH+]n(Cc3ccccc3)c(=O)c21 (optimized conformer: 87.85787379171973 kcal/mol)

>  <smiles>  (76) 
Cn1c2ccccc2c2cnn(Cc3ccccc3)c(=O)c21

>  <score_type>  (76) 
oracle

>  <origin>  (76) 
adg

>  <m_score__min__energy>  (76) 
-6.2300000000000004

>  <m_primary>  (76) 
energy

$$$$
76:0
     RDKit          3D

 39 41  0  0  0  0  0  0  0  0999 V2000
   56.2120   29.9020   45.2030 O   0  0  0  0  0  0  0  0  0  0  0  0
   57.3880   30.1740   44.8350 C   0  0  0  0  0  0  0  0  0  0  0  0
   58.1480   29.1970   44.1020 N   0  0  0  0  0  0  0  0  0  0  0  0
   57.8780   27.7850   44.1360 C   0  0  0  0  0  0  0  0  0  0  0  0
   58.0060   27.0310   42.9600 C   0  0  0  0  0  0  0  0  0  0  0  0
   57.7710   25.6530   42.9720 C   0  0  0  0  0  0  0  0  0  0  0  0
   57.4330   25.0020   44.1700 C   0  0  0  0  0  0  0  0  0  0  0  0
   57.1720   23.5920   44.2180 N   0  0  0  0  0  0  0  0  0  0  0  0
   55.9530   22.9420   43.8300 C   0  0  0  0  0  0  0  0  0  0  0  0
   55.9200   22.3290   42.7310 O   0  0  0  0  0  0  0  0  0  0  0  0
   54.7180   23.0530   44.6440 C   0  0  0  0  0  0  0  0  0  0  0  0
   53.6010   23.7200   44.1090 C   0  0  0  0  0  0  0  0  0  0  0  0
   52.4210   23.8340   44.8480 C   0  0  0  0  0  0  0  0  0  0  0  0
   52.3400   23.2810   46.1260 C   0  0  0  0  0  0  0  0  0  0  0  0
   53.4400   22.6140   46.6700 C   0  0  0  0  0  0  0  0  0  0  0  0
   54.6270   22.4930   45.9390 C   0  0  0  0  0  0  0  0  0  0  0  0
   55.9940   21.6920   46.7080 Cl  0  0  0  0  0  0  0  0  0  0  0  0
   57.3000   25.7540   45.3440 C   0  0  0  0  0  0  0  0  0  0  0  0
   57.5340   27.1320   45.3330 C   0  0  0  0  0  0  0  0  0  0  0  0
   57.9490   31.5180   45.1180 C   0  0  0  0  0  0  0  0  0  0  0  0
   58.9810   31.6870   46.0610 C   0  0  0  0  0  0  0  0  0  0  0  0
   59.4960   32.9590   46.3250 C   0  0  0  0  0  0  0  0  0  0  0  0
   58.9880   34.0760   45.6570 C   0  0  0  0  0  0  0  0  0  0  0  0
   59.6380   35.6710   45.9920 Cl  0  0  0  0  0  0  0  0  0  0  0  0
   57.9570   33.9210   44.7270 C   0  0  0  0  0  0  0  0  0  0  0  0
   57.4370   32.6510   44.4600 C   0  0  0  0  0  0  0  0  0  0  0  0
   58.8620   29.5410   43.4220 H   0  0  0  0  0  0  0  0  0  0  0  0
   58.2934   27.5277   42.0215 H   0  0  0  0  0  0  0  0  0  0  0  0
   57.8511   25.0758   42.0390 H   0  0  0  0  0  0  0  0  0  0  0  0
   53.6572   24.1554   43.1004 H   0  0  0  0  0  0  0  0  0  0  0  0
   51.5545   24.3606   44.4215 H   0  0  0  0  0  0  0  0  0  0  0  0
   51.4094   23.3702   46.7057 H   0  0  0  0  0  0  0  0  0  0  0  0
   53.3728   22.1813   47.6791 H   0  0  0  0  0  0  0  0  0  0  0  0
   57.0094   25.2568   46.2812 H   0  0  0  0  0  0  0  0  0  0  0  0
   57.4486   27.7088   46.2657 H   0  0  0  0  0  0  0  0  0  0  0  0
   59.3842   30.8127   46.5930 H   0  0  0  0  0  0  0  0  0  0  0  0
   60.3041   33.0812   47.0612 H   0  0  0  0  0  0  0  0  0  0  0  0
   57.5534   34.8003   44.2036 H   0  0  0  0  0  0  0  0  0  0  0  0
   56.6218   32.5369   43.7303 H   0  0  0  0  0  0  0  0  0  0  0  0
  1  2  2  0
  2  3  1  0
  3  4  1  0
  4  5  2  0
  5  6  1  0
  6  7  2  0
  7  8  1  0
  8  9  1  0
  9 10  2  0
  9 11  1  0
 11 12  2  0
 12 13  1  0
 13 14  2  0
 14 15  1  0
 15 16  2  0
 16 17  1  0
  7 18  1  0
 18 19  2  0
  2 20  1  0
 20 21  2  0
 21 22  1  0
 22 23  2  0
 23 24  1  0
 23 25  1  0
 25 26  2  0
 19  4  1  0
 26 20  1  0
 16 11  1  0
  3 27  1  0
  5 28  1  0
  6 29  1  0
 12 30  1  0
 13 31  1  0
 14 32  1  0
 15 33  1  0
 18 34  1  0
 19 35  1  0
 21 36  1  0
 22 37  1  0
 25 38  1  0
 26 39  1  0
M  CHG  1   8  -1
M  END
>  <UniqueID>  (77) 
67

>  <SMILES>  (77) 
O=C(Nc1ccc([N-]C(=O)c2ccccc2Cl)cc1)c1ccc(Cl)cc1

>  <Energy>  (77) 
56.56697366224594

>  <Genealogy>  (77) 
O=C(Nc1ccc([N-]C(=O)c2ccccc2Cl)cc1)c1ccc(Cl)cc1 (protonated)
O=C(Nc1ccc([N-]C(=O)c2ccccc2Cl)cc1)c1ccc(Cl)cc1 (3D coordinates assigned)
O=C(Nc1ccc([N-]C(=O)c2ccccc2Cl)cc1)c1ccc(Cl)cc1 (optimized conformer: 56.56697366224594 kcal/mol)

>  <smiles>  (77) 
O=C(Nc1ccc(NC(=O)c2ccccc2Cl)cc1)c1ccc(Cl)cc1

>  <score_type>  (77) 
oracle

>  <origin>  (77) 
adg

>  <m_score__min__energy>  (77) 
-9.4800000000000004

>  <m_primary>  (77) 
energy

$$$$
77:0
     RDKit          3D

 33 36  0  0  0  0  0  0  0  0999 V2000
   62.5250   33.8350   46.7520 C   0  0  0  0  0  0  0  0  0  0  0  0
   61.3890   32.9900   46.9040 O   0  0  0  0  0  0  0  0  0  0  0  0
   60.1520   33.1940   46.2670 C   0  0  0  0  0  0  0  0  0  0  0  0
   59.7490   34.4680   45.8190 C   0  0  0  0  0  0  0  0  0  0  0  0
   58.5150   34.6420   45.1890 C   0  0  0  0  0  0  0  0  0  0  0  0
   57.6640   33.5530   44.9960 C   0  0  0  0  0  0  0  0  0  0  0  0
   58.0460   32.2830   45.4330 C   0  0  0  0  0  0  0  0  0  0  0  0
   57.2220   31.2210   45.2470 N   0  0  0  0  0  0  0  0  0  0  0  0
   57.5660   29.9730   45.6610 C   0  0  0  0  0  0  0  0  0  0  0  0
   58.8040   29.7720   46.2990 C   0  0  0  0  0  0  0  0  0  0  0  0
   59.6350   30.8380   46.4870 N   0  0  0  0  0  0  0  0  0  0  0  0
   59.2910   32.0930   46.0710 C   0  0  0  0  0  0  0  0  0  0  0  0
   59.2420   28.4060   46.7810 C   0  0  0  0  0  0  0  0  0  0  0  0
   58.2550   27.2880   46.5290 C   0  0  0  0  0  0  0  0  0  0  0  0
   58.5770   25.9870   46.9430 C   0  0  0  0  0  0  0  0  0  0  0  0
   57.6830   24.9380   46.7200 C   0  0  0  0  0  0  0  0  0  0  0  0
   56.4690   25.1990   46.0830 C   0  0  0  0  0  0  0  0  0  0  0  0
   56.1670   26.4620   45.6860 N   0  0  0  0  0  0  0  0  0  0  0  0
   57.0200   27.5050   45.8900 C   0  0  0  0  0  0  0  0  0  0  0  0
   56.6460   28.8510   45.4420 C   0  0  0  0  0  0  0  0  0  0  0  0
   55.5400   29.0430   44.8700 O   0  0  0  0  0  0  0  0  0  0  0  0
   62.9063   34.1187   47.7440 H   0  0  0  0  0  0  0  0  0  0  0  0
   63.3091   33.2989   46.1973 H   0  0  0  0  0  0  0  0  0  0  0  0
   62.2371   34.7402   46.1973 H   0  0  0  0  0  0  0  0  0  0  0  0
   60.4124   35.3329   45.9669 H   0  0  0  0  0  0  0  0  0  0  0  0
   58.2125   35.6415   44.8435 H   0  0  0  0  0  0  0  0  0  0  0  0
   56.6926   33.6950   44.4998 H   0  0  0  0  0  0  0  0  0  0  0  0
   60.5530   30.6770   46.9610 H   0  0  0  0  0  0  0  0  0  0  0  0
   60.1829   28.1508   46.2715 H   0  0  0  0  0  0  0  0  0  0  0  0
   59.3418   28.4850   47.8736 H   0  0  0  0  0  0  0  0  0  0  0  0
   59.5365   25.7927   47.4447 H   0  0  0  0  0  0  0  0  0  0  0  0
   57.9329   23.9166   47.0430 H   0  0  0  0  0  0  0  0  0  0  0  0
   55.7562   24.3809   45.9024 H   0  0  0  0  0  0  0  0  0  0  0  0
  1  2  1  0
  2  3  1  0
  3  4  2  0
  4  5  1  0
  5  6  2  0
  6  7  1  0
  7  8  2  0
  8  9  1  0
  9 10  2  0
 10 11  1  0
 11 12  2  0
 10 13  1  0
 13 14  1  0
 14 15  2  0
 15 16  1  0
 16 17  2  0
 17 18  1  0
 18 19  2  0
 19 20  1  0
 20 21  2  0
 12  3  1  0
 19 14  1  0
 12  7  1  0
 20  9  1  0
  1 22  1  0
  1 23  1  0
  1 24  1  0
  4 25  1  0
  5 26  1  0
  6 27  1  0
 11 28  1  0
 13 29  1  0
 13 30  1  0
 15 31  1  0
 16 32  1  0
 17 33  1  0
M  CHG  1  11   1
M  END
>  <UniqueID>  (78) 
68

>  <SMILES>  (78) 
COc1cccc2nc3c([nH+]c12)Cc1cccnc1C3=O

>  <Energy>  (78) 
45.07139809535765

>  <Genealogy>  (78) 
COc1cccc2nc3c([nH+]c12)Cc1cccnc1C3=O (protonated)
COc1cccc2nc3c([nH+]c12)Cc1cccnc1C3=O (3D coordinates assigned)
COc1cccc2nc3c([nH+]c12)Cc1cccnc1C3=O (nonaromatic ring conformer: 45.07139809535765 kcal/mol)

>  <smiles>  (78) 
COc1cccc2nc3c(nc12)Cc1cccnc1C3=O

>  <score_type>  (78) 
oracle

>  <origin>  (78) 
adg

>  <m_score__min__energy>  (78) 
-6.1100000000000003

>  <m_primary>  (78) 
energy

$$$$
78:0
     RDKit          3D

 60 63  0  0  0  0  0  0  0  0999 V2000
   56.9730   30.6770   52.0880 C   0  0  0  0  0  0  0  0  0  0  0  0
   57.6190   29.7030   51.2770 O   0  0  0  0  0  0  0  0  0  0  0  0
   58.9660   29.7620   50.8850 C   0  0  0  0  0  0  0  0  0  0  0  0
   59.7890   28.6750   51.1810 C   0  0  0  0  0  0  0  0  0  0  0  0
   61.1390   28.6990   50.8390 C   0  0  0  0  0  0  0  0  0  0  0  0
   61.6800   29.8070   50.1840 C   0  0  0  0  0  0  0  0  0  0  0  0
   60.8670   30.9090   49.8280 C   0  0  0  0  0  0  0  0  0  0  0  0
   61.4360   32.1600   49.1230 C   0  0  2  0  0  0  0  0  0  0  0  0
   62.7240   32.5760   49.7330 C   0  0  0  0  0  0  0  0  0  0  0  0
   63.7270   32.9050   50.2100 N   0  0  0  0  0  0  0  0  0  0  0  0
   60.4310   33.3260   49.2880 C   0  0  0  0  0  0  0  0  0  0  0  0
   60.7290   34.4700   48.3010 C   0  0  0  0  0  0  0  0  0  0  0  0
   60.6950   34.0630   46.8540 N   0  0  2  0  0  0  0  0  0  0  0  0
   59.5540   34.7300   46.1400 C   0  0  0  0  0  0  0  0  0  0  0  0
   58.1540   34.4250   46.7480 C   0  0  0  0  0  0  0  0  0  0  0  0
   57.7490   32.9670   46.5050 C   0  0  0  0  0  0  0  0  0  0  0  0
   57.9180   32.5980   45.0920 N   0  0  0  0  0  0  0  0  0  0  0  0
   57.3940   31.3420   44.6320 C   0  0  0  0  0  0  0  0  0  0  0  0
   56.6120   31.3220   43.6420 O   0  0  0  0  0  0  0  0  0  0  0  0
   57.7460   30.0740   45.3090 C   0  0  0  0  0  0  0  0  0  0  0  0
   58.8720   30.0010   46.1470 C   0  0  0  0  0  0  0  0  0  0  0  0
   59.2060   28.7960   46.7750 C   0  0  0  0  0  0  0  0  0  0  0  0
   58.4220   27.6560   46.5690 C   0  0  0  0  0  0  0  0  0  0  0  0
   58.8750   26.0150   47.4370 Br  0  0  0  0  0  0  0  0  0  0  0  0
   57.3100   27.7170   45.7270 C   0  0  0  0  0  0  0  0  0  0  0  0
   56.9740   28.9190   45.0940 C   0  0  0  0  0  0  0  0  0  0  0  0
   58.3200   33.6160   44.1150 C   0  0  0  0  0  0  0  0  0  0  0  0
   59.5620   34.3760   44.6100 C   0  0  0  0  0  0  0  0  0  0  0  0
   60.6970   32.5840   46.6790 C   0  0  0  0  0  0  0  0  0  0  0  0
   61.7080   31.8890   47.6070 C   0  0  0  0  0  0  0  0  0  0  0  0
   59.5090   30.8750   50.2140 C   0  0  0  0  0  0  0  0  0  0  0  0
   57.1333   30.4353   53.1491 H   0  0  0  0  0  0  0  0  0  0  0  0
   57.3916   31.6708   51.8710 H   0  0  0  0  0  0  0  0  0  0  0  0
   55.8946   30.6780   51.8710 H   0  0  0  0  0  0  0  0  0  0  0  0
   59.3691   27.7935   51.6876 H   0  0  0  0  0  0  0  0  0  0  0  0
   61.7818   27.8412   51.0860 H   0  0  0  0  0  0  0  0  0  0  0  0
   62.7528   29.8235   49.9414 H   0  0  0  0  0  0  0  0  0  0  0  0
   60.4981   33.7134   50.3154 H   0  0  0  0  0  0  0  0  0  0  0  0
   59.4208   32.9438   49.0795 H   0  0  0  0  0  0  0  0  0  0  0  0
   61.7309   34.8655   48.5242 H   0  0  0  0  0  0  0  0  0  0  0  0
   59.9342   35.2183   48.4366 H   0  0  0  0  0  0  0  0  0  0  0  0
   61.5820   34.4110   46.4130 H   0  0  0  0  0  0  0  0  0  0  0  0
   59.7220   35.8087   46.2750 H   0  0  0  0  0  0  0  0  0  0  0  0
   58.1848   34.6129   47.8314 H   0  0  0  0  0  0  0  0  0  0  0  0
   57.4138   35.0774   46.2617 H   0  0  0  0  0  0  0  0  0  0  0  0
   58.3782   32.3115   47.1250 H   0  0  0  0  0  0  0  0  0  0  0  0
   56.6881   32.8506   46.7715 H   0  0  0  0  0  0  0  0  0  0  0  0
   59.4929   30.8943   46.3097 H   0  0  0  0  0  0  0  0  0  0  0  0
   60.0868   28.7451   47.4320 H   0  0  0  0  0  0  0  0  0  0  0  0
   56.6970   26.8188   45.5609 H   0  0  0  0  0  0  0  0  0  0  0  0
   56.1017   28.9602   44.4251 H   0  0  0  0  0  0  0  0  0  0  0  0
   58.5524   33.1271   43.1574 H   0  0  0  0  0  0  0  0  0  0  0  0
   57.4938   34.3305   43.9849 H   0  0  0  0  0  0  0  0  0  0  0  0
   60.4464   33.7540   44.4078 H   0  0  0  0  0  0  0  0  0  0  0  0
   59.5720   35.3351   44.0714 H   0  0  0  0  0  0  0  0  0  0  0  0
   60.9562   32.3514   45.6356 H   0  0  0  0  0  0  0  0  0  0  0  0
   59.6937   32.2129   46.9353 H   0  0  0  0  0  0  0  0  0  0  0  0
   62.7165   32.2534   47.3616 H   0  0  0  0  0  0  0  0  0  0  0  0
   61.6110   30.8053   47.4449 H   0  0  0  0  0  0  0  0  0  0  0  0
   58.8622   31.7351   49.9860 H   0  0  0  0  0  0  0  0  0  0  0  0
  1  2  1  0
  2  3  1  0
  3  4  2  0
  4  5  1  0
  5  6  2  0
  6  7  1  0
  7  8  1  0
  8  9  1  1
  9 10  3  0
  8 11  1  0
 11 12  1  0
 12 13  1  0
 13 14  1  0
 14 15  1  0
 15 16  1  0
 16 17  1  0
 17 18  1  0
 18 19  2  0
 18 20  1  0
 20 21  2  0
 21 22  1  0
 22 23  2  0
 23 24  1  0
 23 25  1  0
 25 26  2  0
 17 27  1  0
 27 28  1  0
 13 29  1  0
 29 30  1  0
  7 31  2  0
 31  3  1  0
 30  8  1  0
 28 14  1  0
 26 20  1  0
  1 32  1  0
  1 33  1  0
  1 34  1  0
  4 35  1  0
  5 36  1  0
  6 37  1  0
 11 38  1  0
 11 39  1  0
 12 40  1  0
 12 41  1  0
 13 42  1  6
 14 43  1  0
 15 44  1  0
 15 45  1  0
 16 46  1  0
 16 47  1  0
 21 48  1  0
 22 49  1  0
 25 50  1  0
 26 51  1  0
 27 52  1  0
 27 53  1  0
 28 54  1  0
 28 55  1  0
 29 56  1  0
 29 57  1  0
 30 58  1  0
 30 59  1  0
 31 60  1  0
M  CHG  1  13   1
M  END
>  <UniqueID>  (79) 
69

>  <SMILES>  (79) 
COc1cccc(C2(C#N)CC[NH+](C3CCN(C(=O)c4ccc(Br)cc4)CC3)CC2)c1

>  <Energy>  (79) 
92.65518695205776

>  <Genealogy>  (79) 
COc1cccc(C2(C#N)CC[NH+](C3CCN(C(=O)c4ccc(Br)cc4)CC3)CC2)c1 (protonated)
COc1cccc(C2(C#N)CC[NH+](C3CCN(C(=O)c4ccc(Br)cc4)CC3)CC2)c1 (3D coordinates assigned)
COc1cccc(C2(C#N)CC[NH+](C3CCN(C(=O)c4ccc(Br)cc4)CC3)CC2)c1 (nonaromatic ring conformer: 92.65518695205776 kcal/mol)

>  <smiles>  (79) 
COc1cccc(C2(C#N)CCN(C3CCN(C(=O)c4ccc(Br)cc4)CC3)CC2)c1

>  <score_type>  (79) 
oracle

>  <origin>  (79) 
adg

>  <m_score__min__energy>  (79) 
-7.5999999999999996

>  <m_primary>  (79) 
energy

$$$$
79:0
     RDKit          3D

 34 37  0  0  0  0  0  0  0  0999 V2000
   55.8580   26.3200   46.0490 O   0  0  0  0  0  0  0  0  0  0  0  0
   56.7380   27.3950   46.1540 C   0  0  0  0  0  0  0  0  0  0  0  0
   57.7060   27.4300   47.1670 C   0  0  0  0  0  0  0  0  0  0  0  0
   58.5830   28.5130   47.2620 C   0  0  0  0  0  0  0  0  0  0  0  0
   58.4980   29.5780   46.3480 C   0  0  0  0  0  0  0  0  0  0  0  0
   59.4240   30.7280   46.4470 C   0  0  0  0  0  0  0  0  0  0  0  0
   60.6500   30.5710   46.9890 C   0  0  0  0  0  0  0  0  0  0  0  0
   61.6000   31.7130   47.1000 C   0  0  0  0  0  0  0  0  0  0  0  0
   62.8780   31.5190   47.6440 C   0  0  0  0  0  0  0  0  0  0  0  0
   63.7650   32.5940   47.7570 C   0  0  0  0  0  0  0  0  0  0  0  0
   63.3830   33.8700   47.3320 C   0  0  0  0  0  0  0  0  0  0  0  0
   62.1120   34.0780   46.7880 C   0  0  0  0  0  0  0  0  0  0  0  0
   61.2210   33.0020   46.6680 C   0  0  0  0  0  0  0  0  0  0  0  0
   59.8700   33.1550   46.1140 C   0  0  0  0  0  0  0  0  0  0  0  0
   59.3070   34.2750   45.8270 N   0  0  0  0  0  0  0  0  0  0  0  0
   57.9310   34.0220   45.4020 C   0  0  0  0  0  0  0  0  0  0  0  0
   57.7290   32.5000   45.5550 C   0  0  0  0  0  0  0  0  0  0  0  0
   59.0400   32.0280   45.9640 N   0  0  0  0  0  0  0  0  0  0  0  0
   57.5320   29.5330   45.3300 C   0  0  0  0  0  0  0  0  0  0  0  0
   56.6560   28.4470   45.2370 C   0  0  0  0  0  0  0  0  0  0  0  0
   55.1380   26.1550   46.7430 H   0  0  0  0  0  0  0  0  0  0  0  0
   57.7752   26.6028   47.8888 H   0  0  0  0  0  0  0  0  0  0  0  0
   59.3441   28.5328   48.0560 H   0  0  0  0  0  0  0  0  0  0  0  0
   60.9539   29.5796   47.3562 H   0  0  0  0  0  0  0  0  0  0  0  0
   63.1835   30.5181   47.9828 H   0  0  0  0  0  0  0  0  0  0  0  0
   64.7671   32.4352   48.1819 H   0  0  0  0  0  0  0  0  0  0  0  0
   64.0842   34.7123   47.4259 H   0  0  0  0  0  0  0  0  0  0  0  0
   61.8119   35.0826   46.4552 H   0  0  0  0  0  0  0  0  0  0  0  0
   57.2236   34.5704   46.0414 H   0  0  0  0  0  0  0  0  0  0  0  0
   57.7534   34.3568   44.3693 H   0  0  0  0  0  0  0  0  0  0  0  0
   56.9732   32.2781   46.3228 H   0  0  0  0  0  0  0  0  0  0  0  0
   57.3666   32.0194   44.6343 H   0  0  0  0  0  0  0  0  0  0  0  0
   57.4640   30.3554   44.6027 H   0  0  0  0  0  0  0  0  0  0  0  0
   55.8993   28.4204   44.4391 H   0  0  0  0  0  0  0  0  0  0  0  0
  1  2  1  0
  2  3  2  0
  3  4  1  0
  4  5  2  0
  5  6  1  0
  6  7  2  0
  7  8  1  0
  8  9  2  0
  9 10  1  0
 10 11  2  0
 11 12  1  0
 12 13  2  0
 13 14  1  0
 14 15  2  0
 15 16  1  0
 16 17  1  0
 17 18  1  0
  5 19  1  0
 19 20  2  0
 20  2  1  0
 18  6  1  0
 13  8  1  0
 18 14  1  0
  1 21  1  0
  3 22  1  0
  4 23  1  0
  7 24  1  0
  9 25  1  0
 10 26  1  0
 11 27  1  0
 12 28  1  0
 16 29  1  0
 16 30  1  0
 17 31  1  0
 17 32  1  0
 19 33  1  0
 20 34  1  0
M  END
>  <UniqueID>  (80) 
70

>  <SMILES>  (80) 
Oc1ccc(C2=Cc3ccccc3C3=NCCN23)cc1

>  <Energy>  (80) 
59.199563086421335

>  <Genealogy>  (80) 
Oc1ccc(C2=Cc3ccccc3C3=NCCN23)cc1 (3D coordinates assigned)
Oc1ccc(C2=Cc3ccccc3C3=NCCN23)cc1 (nonaromatic ring conformer: 59.199563086421335 kcal/mol)

>  <smiles>  (80) 
Oc1ccc(C2=Cc3ccccc3C3=NCCN23)cc1

>  <score_type>  (80) 
oracle

>  <origin>  (80) 
adg

>  <m_score__min__energy>  (80) 
-7.5300000000000002

>  <m_primary>  (80) 
energy

$$$$
80:0
     RDKit          3D

 42 44  0  0  0  0  0  0  0  0999 V2000
   59.9670   35.3600   45.9850 C   0  0  0  0  0  0  0  0  0  0  0  0
   58.9660   34.2930   45.6570 C   0  0  0  0  0  0  0  0  0  0  0  0
   58.0630   33.8500   46.6320 C   0  0  0  0  0  0  0  0  0  0  0  0
   57.1160   32.8740   46.3210 C   0  0  0  0  0  0  0  0  0  0  0  0
   57.0550   32.3220   45.0360 C   0  0  0  0  0  0  0  0  0  0  0  0
   56.0890   31.2920   44.7870 N   0  0  0  0  0  0  0  0  0  0  0  0
   56.3680   29.9060   44.5550 C   0  0  0  0  0  0  0  0  0  0  0  0
   55.5080   29.0510   44.8880 O   0  0  0  0  0  0  0  0  0  0  0  0
   57.6100   29.4520   43.9950 N   0  0  0  0  0  0  0  0  0  0  0  0
   58.7780   28.9660   44.7320 C   0  0  1  0  0  0  0  0  0  0  0  0
   59.3130   30.0850   45.6430 C   0  0  0  0  0  0  0  0  0  0  0  0
   60.3540   29.5380   46.6170 C   0  0  0  0  0  0  0  0  0  0  0  0
   59.7070   28.5250   47.5610 C   0  0  0  0  0  0  0  0  0  0  0  0
   58.9050   27.4820   46.8190 C   0  0  0  0  0  0  0  0  0  0  0  0
   58.5830   26.2860   47.4810 C   0  0  0  0  0  0  0  0  0  0  0  0
   57.8200   25.3070   46.8430 C   0  0  0  0  0  0  0  0  0  0  0  0
   57.3690   25.5120   45.5400 C   0  0  0  0  0  0  0  0  0  0  0  0
   57.6680   26.7010   44.8730 C   0  0  0  0  0  0  0  0  0  0  0  0
   58.4090   27.7150   45.5110 C   0  0  0  0  0  0  0  0  0  0  0  0
   57.9100   32.8190   44.0220 C   0  0  0  0  0  0  0  0  0  0  0  0
   57.8240   32.3340   42.5990 C   0  0  0  0  0  0  0  0  0  0  0  0
   58.8730   33.7890   44.3520 C   0  0  0  0  0  0  0  0  0  0  0  0
   60.0566   35.4555   47.0772 H   0  0  0  0  0  0  0  0  0  0  0  0
   60.9444   35.0892   45.5592 H   0  0  0  0  0  0  0  0  0  0  0  0
   59.6344   36.3182   45.5592 H   0  0  0  0  0  0  0  0  0  0  0  0
   58.1008   34.2733   47.6466 H   0  0  0  0  0  0  0  0  0  0  0  0
   56.4100   32.5347   47.0933 H   0  0  0  0  0  0  0  0  0  0  0  0
   59.5827   28.6924   44.0337 H   0  0  0  0  0  0  0  0  0  0  0  0
   59.7754   30.8661   45.0217 H   0  0  0  0  0  0  0  0  0  0  0  0
   58.4744   30.5021   46.2198 H   0  0  0  0  0  0  0  0  0  0  0  0
   61.1588   29.0460   46.0512 H   0  0  0  0  0  0  0  0  0  0  0  0
   60.7667   30.3690   47.2078 H   0  0  0  0  0  0  0  0  0  0  0  0
   60.4983   28.0207   48.1351 H   0  0  0  0  0  0  0  0  0  0  0  0
   59.0185   29.0722   48.2217 H   0  0  0  0  0  0  0  0  0  0  0  0
   58.9348   26.1197   48.5099 H   0  0  0  0  0  0  0  0  0  0  0  0
   57.5742   24.3726   47.3689 H   0  0  0  0  0  0  0  0  0  0  0  0
   56.7759   24.7346   45.0361 H   0  0  0  0  0  0  0  0  0  0  0  0
   57.3217   26.8477   43.8393 H   0  0  0  0  0  0  0  0  0  0  0  0
   57.6320   31.2509   42.5917 H   0  0  0  0  0  0  0  0  0  0  0  0
   57.0043   32.8552   42.0829 H   0  0  0  0  0  0  0  0  0  0  0  0
   58.7730   32.5416   42.0829 H   0  0  0  0  0  0  0  0  0  0  0  0
   59.5616   34.1568   43.5770 H   0  0  0  0  0  0  0  0  0  0  0  0
  1  2  1  0
  2  3  2  0
  3  4  1  0
  4  5  2  0
  5  6  1  0
  6  7  1  0
  7  8  2  0
  7  9  1  0
  9 10  1  0
 10 11  1  0
 11 12  1  0
 12 13  1  0
 13 14  1  0
 14 15  2  0
 15 16  1  0
 16 17  2  0
 17 18  1  0
 18 19  2  0
  5 20  1  0
 20 21  1  0
 20 22  2  0
 22  2  1  0
 19 10  1  0
 19 14  1  0
  1 23  1  0
  1 24  1  0
  1 25  1  0
  3 26  1  0
  4 27  1  0
 10 28  1  6
 11 29  1  0
 11 30  1  0
 12 31  1  0
 12 32  1  0
 13 33  1  0
 13 34  1  0
 15 35  1  0
 16 36  1  0
 17 37  1  0
 18 38  1  0
 21 39  1  0
 21 40  1  0
 21 41  1  0
 22 42  1  0
M  CHG  2   6  -1   9  -1
M  END
>  <UniqueID>  (81) 
71

>  <SMILES>  (81) 
Cc1ccc([N-]C(=O)[N-][C@H]2CCCc3ccccc32)c(C)c1

>  <Energy>  (81) 
49.64442696152425

>  <Genealogy>  (81) 
Cc1ccc([N-]C(=O)[N-]C2CCCc3ccccc32)c(C)c1 (protonated)
Cc1ccc([N-]C(=O)[N-][C@H]2CCCc3ccccc32)c(C)c1 (chirality)
Cc1ccc([N-]C(=O)[N-][C@H]2CCCc3ccccc32)c(C)c1 (3D coordinates assigned)
Cc1ccc([N-]C(=O)[N-][C@H]2CCCc3ccccc32)c(C)c1 (nonaromatic ring conformer: 49.64442696152425 kcal/mol)

>  <smiles>  (81) 
Cc1ccc(NC(=O)NC2CCCc3ccccc32)c(C)c1

>  <score_type>  (81) 
oracle

>  <origin>  (81) 
adg

>  <m_score__min__energy>  (81) 
-11.41

>  <m_primary>  (81) 
energy

$$$$
81:0
     RDKit          3D

 37 39  0  0  0  0  0  0  0  0999 V2000
   56.6590   22.4900   43.3200 C   0  0  0  0  0  0  0  0  0  0  0  0
   55.7480   23.4150   43.8730 O   0  0  0  0  0  0  0  0  0  0  0  0
   56.4410   24.4050   44.6090 C   0  0  0  0  0  0  0  0  0  0  0  0
   55.5280   25.0990   45.5860 C   0  0  0  0  0  0  0  0  0  0  0  0
   54.8630   24.4050   46.4000 O   0  0  0  0  0  0  0  0  0  0  0  0
   55.5170   26.5250   45.7300 N   0  0  0  0  0  0  0  0  0  0  0  0
   56.6470   27.3610   46.0060 C   0  0  0  0  0  0  0  0  0  0  0  0
   57.7110   26.8390   46.7500 C   0  0  0  0  0  0  0  0  0  0  0  0
   58.8160   27.6360   47.0640 C   0  0  0  0  0  0  0  0  0  0  0  0
   58.8570   28.9720   46.6520 C   0  0  0  0  0  0  0  0  0  0  0  0
   59.9330   29.7420   46.9590 N   0  0  0  0  0  0  0  0  0  0  0  0
   60.0240   31.0530   46.5980 C   0  0  0  0  0  0  0  0  0  0  0  0
   61.2370   31.8260   46.9680 C   0  0  0  0  0  0  0  0  0  0  0  0
   62.3030   31.2280   47.6680 C   0  0  0  0  0  0  0  0  0  0  0  0
   63.4400   31.9720   47.9990 C   0  0  0  0  0  0  0  0  0  0  0  0
   63.5290   33.3170   47.6320 C   0  0  0  0  0  0  0  0  0  0  0  0
   62.4840   33.9190   46.9290 C   0  0  0  0  0  0  0  0  0  0  0  0
   61.3460   33.1790   46.5940 C   0  0  0  0  0  0  0  0  0  0  0  0
   58.9720   31.6340   45.8650 C   0  0  0  0  0  0  0  0  0  0  0  0
   57.8490   30.8700   45.5320 C   0  0  0  0  0  0  0  0  0  0  0  0
   56.9130   31.4030   44.8750 O   0  0  0  0  0  0  0  0  0  0  0  0
   57.7780   29.5220   45.9260 C   0  0  0  0  0  0  0  0  0  0  0  0
   56.6700   28.7120   45.6180 C   0  0  0  0  0  0  0  0  0  0  0  0
   57.1809   21.9601   44.1305 H   0  0  0  0  0  0  0  0  0  0  0  0
   56.1132   21.7642   42.6992 H   0  0  0  0  0  0  0  0  0  0  0  0
   57.3930   23.0247   42.6992 H   0  0  0  0  0  0  0  0  0  0  0  0
   57.2639   23.9295   45.1629 H   0  0  0  0  0  0  0  0  0  0  0  0
   56.8292   25.1544   43.9035 H   0  0  0  0  0  0  0  0  0  0  0  0
   57.6778   25.7935   47.0904 H   0  0  0  0  0  0  0  0  0  0  0  0
   59.6544   27.2117   47.6359 H   0  0  0  0  0  0  0  0  0  0  0  0
   62.2408   30.1683   47.9564 H   0  0  0  0  0  0  0  0  0  0  0  0
   64.2657   31.4973   48.5493 H   0  0  0  0  0  0  0  0  0  0  0  0
   64.4224   33.9016   47.8969 H   0  0  0  0  0  0  0  0  0  0  0  0
   62.5560   34.9774   46.6381 H   0  0  0  0  0  0  0  0  0  0  0  0
   60.5293   33.6577   46.0338 H   0  0  0  0  0  0  0  0  0  0  0  0
   59.0332   32.6875   45.5546 H   0  0  0  0  0  0  0  0  0  0  0  0
   55.8165   29.1382   45.0703 H   0  0  0  0  0  0  0  0  0  0  0  0
  1  2  1  0
  2  3  1  0
  3  4  1  0
  4  5  2  0
  4  6  1  0
  6  7  1  0
  7  8  2  0
  8  9  1  0
  9 10  2  0
 10 11  1  0
 11 12  1  0
 12 13  1  0
 13 14  2  0
 14 15  1  0
 15 16  2  0
 16 17  1  0
 17 18  2  0
 12 19  2  0
 19 20  1  0
 20 21  2  0
 20 22  1  0
 22 23  2  0
 23  7  1  0
 22 10  1  0
 18 13  1  0
  1 24  1  0
  1 25  1  0
  1 26  1  0
  3 27  1  0
  3 28  1  0
  8 29  1  0
  9 30  1  0
 14 31  1  0
 15 32  1  0
 16 33  1  0
 17 34  1  0
 18 35  1  0
 19 36  1  0
 23 37  1  0
M  CHG  2   6  -1  11  -1
M  END
>  <UniqueID>  (82) 
72

>  <SMILES>  (82) 
COCC(=O)[N-]c1ccc2[n-]c(-c3ccccc3)cc(=O)c2c1

>  <Energy>  (82) 
54.71340771052658

>  <Genealogy>  (82) 
COCC(=O)[N-]c1ccc2[n-]c(-c3ccccc3)cc(=O)c2c1 (protonated)
COCC(=O)[N-]c1ccc2[n-]c(-c3ccccc3)cc(=O)c2c1 (3D coordinates assigned)
COCC(=O)[N-]c1ccc2[n-]c(-c3ccccc3)cc(=O)c2c1 (optimized conformer: 54.71340771052658 kcal/mol)

>  <smiles>  (82) 
COCC(=O)Nc1ccc2[nH]c(-c3ccccc3)cc(=O)c2c1

>  <score_type>  (82) 
oracle

>  <origin>  (82) 
adg

>  <m_score__min__energy>  (82) 
-10.15

>  <m_primary>  (82) 
energy

$$$$
82:0
     RDKit          3D

 43 45  0  0  0  0  0  0  0  0999 V2000
   52.9080   24.3310   45.6150 C   0  0  0  0  0  0  0  0  0  0  0  0
   54.3360   24.1290   45.2300 C   0  0  0  0  0  0  0  0  0  0  0  0
   54.6670   23.2250   44.2680 N   0  0  0  0  0  0  0  0  0  0  0  0
   55.9650   23.0160   43.9240 C   0  0  0  0  0  0  0  0  0  0  0  0
   56.2490   22.1760   43.0310 O   0  0  0  0  0  0  0  0  0  0  0  0
   56.9790   23.7320   44.5650 C   0  0  0  0  0  0  0  0  0  0  0  0
   56.6210   24.6600   45.5440 C   0  0  0  0  0  0  0  0  0  0  0  0
   57.8770   25.5770   46.4360 S   0  0  0  0  0  0  0  0  0  0  0  0
   57.0530   27.2140   46.3280 C   0  0  0  0  0  0  0  0  0  0  0  0
   57.3080   27.9610   45.0080 C   0  0  2  0  0  0  0  0  0  0  0  0
   58.6750   28.5820   44.9040 C   0  0  0  0  0  0  0  0  0  0  0  0
   58.4970   29.7760   44.2140 O   0  0  0  0  0  0  0  0  0  0  0  0
   57.1200   30.0980   44.3420 C   0  0  1  0  0  0  0  0  0  0  0  0
   56.8860   31.1800   45.2380 O   0  0  0  0  0  0  0  0  0  0  0  0
   57.3630   32.4260   44.7800 C   0  0  0  0  0  0  0  0  0  0  0  0
   58.5680   32.7890   45.5970 C   0  0  0  0  0  0  0  0  0  0  0  0
   59.2400   31.8090   46.3470 C   0  0  0  0  0  0  0  0  0  0  0  0
   60.4090   32.1330   47.0410 C   0  0  0  0  0  0  0  0  0  0  0  0
   60.9250   33.4320   46.9800 C   0  0  0  0  0  0  0  0  0  0  0  0
   62.4010   33.8320   47.8400 Cl  0  0  0  0  0  0  0  0  0  0  0  0
   60.2690   34.4090   46.2220 C   0  0  0  0  0  0  0  0  0  0  0  0
   59.0990   34.0870   45.5270 C   0  0  0  0  0  0  0  0  0  0  0  0
   56.5640   30.4590   42.9590 C   0  0  0  0  0  0  0  0  0  0  0  0
   56.2810   29.3180   42.2290 F   0  0  0  0  0  0  0  0  0  0  0  0
   57.4790   31.2280   42.2630 F   0  0  0  0  0  0  0  0  0  0  0  0
   56.3910   28.9910   44.8260 O   0  0  0  0  0  0  0  0  0  0  0  0
   55.3130   24.8280   45.8640 N   0  0  0  0  0  0  0  0  0  0  0  0
   52.8221   24.3432   46.7116 H   0  0  0  0  0  0  0  0  0  0  0  0
   52.5506   25.2886   45.2086 H   0  0  0  0  0  0  0  0  0  0  0  0
   52.2990   23.5101   45.2086 H   0  0  0  0  0  0  0  0  0  0  0  0
   58.0350   23.5682   44.3042 H   0  0  0  0  0  0  0  0  0  0  0  0
   55.9688   27.0624   46.4350 H   0  0  0  0  0  0  0  0  0  0  0  0
   57.4770   27.8355   47.1305 H   0  0  0  0  0  0  0  0  0  0  0  0
   57.2107   27.1810   44.2385 H   0  0  0  0  0  0  0  0  0  0  0  0
   59.0848   28.7761   45.9062 H   0  0  0  0  0  0  0  0  0  0  0  0
   59.3834   27.9176   44.3875 H   0  0  0  0  0  0  0  0  0  0  0  0
   57.6402   32.3523   43.7181 H   0  0  0  0  0  0  0  0  0  0  0  0
   56.5840   33.1956   44.8845 H   0  0  0  0  0  0  0  0  0  0  0  0
   58.8446   30.7833   46.3880 H   0  0  0  0  0  0  0  0  0  0  0  0
   60.9245   31.3651   47.6365 H   0  0  0  0  0  0  0  0  0  0  0  0
   60.6740   35.4305   46.1730 H   0  0  0  0  0  0  0  0  0  0  0  0
   58.5924   34.8540   44.9228 H   0  0  0  0  0  0  0  0  0  0  0  0
   55.6353   31.0301   43.1052 H   0  0  0  0  0  0  0  0  0  0  0  0
  1  2  1  0
  2  3  2  0
  3  4  1  0
  4  5  2  0
  4  6  1  0
  6  7  2  0
  7  8  1  0
  8  9  1  0
  9 10  1  0
 10 11  1  0
 11 12  1  0
 12 13  1  0
 13 14  1  1
 14 15  1  0
 15 16  1  0
 16 17  2  0
 17 18  1  0
 18 19  2  0
 19 20  1  0
 19 21  1  0
 21 22  2  0
 13 23  1  0
 23 24  1  0
 23 25  1  0
 13 26  1  0
  7 27  1  0
 27  2  1  0
 26 10  1  0
 22 16  1  0
  1 28  1  0
  1 29  1  0
  1 30  1  0
  6 31  1  0
  9 32  1  0
  9 33  1  0
 10 34  1  6
 11 35  1  0
 11 36  1  0
 15 37  1  0
 15 38  1  0
 17 39  1  0
 18 40  1  0
 21 41  1  0
 22 42  1  0
 23 43  1  0
M  CHG  1  27  -1
M  END
>  <UniqueID>  (83) 
73

>  <SMILES>  (83) 
Cc1nc(=O)cc(SC[C@@H]2CO[C@@](OCc3ccc(Cl)cc3)(C(F)F)O2)[n-]1

>  <Energy>  (83) 
38.49103518667398

>  <Genealogy>  (83) 
Cc1nc(=O)cc(SCC2COC(OCc3ccc(Cl)cc3)(C(F)F)O2)[n-]1 (protonated)
Cc1nc(=O)cc(SC[C@@H]2CO[C@@](OCc3ccc(Cl)cc3)(C(F)F)O2)[n-]1 (chirality)
Cc1nc(=O)cc(SC[C@@H]2CO[C@@](OCc3ccc(Cl)cc3)(C(F)F)O2)[n-]1 (3D coordinates assigned)
Cc1nc(=O)cc(SC[C@@H]2CO[C@@](OCc3ccc(Cl)cc3)(C(F)F)O2)[n-]1 (nonaromatic ring conformer: 38.49103518667398 kcal/mol)

>  <smiles>  (83) 
Cc1nc(=O)cc(SCC2COC(OCc3ccc(Cl)cc3)(C(F)F)O2)[nH]1

>  <score_type>  (83) 
oracle

>  <origin>  (83) 
adg

>  <m_score__min__energy>  (83) 
-10.23

>  <m_primary>  (83) 
energy

$$$$
83:0
     RDKit          3D

 38 40  0  0  0  0  0  0  0  0999 V2000
   55.6460   29.3360   43.8990 O   0  0  0  0  0  0  0  0  0  0  0  0
   56.7050   29.6940   44.4880 C   0  0  0  0  0  0  0  0  0  0  0  0
   56.7310   30.9150   45.2330 N   0  0  0  0  0  0  0  0  0  0  0  0
   57.1270   32.1880   44.6470 C   0  0  0  0  0  0  0  0  0  0  0  0
   57.9870   32.9380   45.6220 C   0  0  0  0  0  0  0  0  0  0  0  0
   58.1660   32.4530   46.9280 C   0  0  0  0  0  0  0  0  0  0  0  0
   58.9970   33.1340   47.8240 C   0  0  0  0  0  0  0  0  0  0  0  0
   59.6610   34.2960   47.4190 C   0  0  0  0  0  0  0  0  0  0  0  0
   60.4670   34.9550   48.2890 F   0  0  0  0  0  0  0  0  0  0  0  0
   59.4990   34.7750   46.1160 C   0  0  0  0  0  0  0  0  0  0  0  0
   58.6690   34.0980   45.2170 C   0  0  0  0  0  0  0  0  0  0  0  0
   57.8890   28.8680   44.4250 N   0  0  1  0  0  0  0  0  0  0  0  0
   59.0750   29.7490   44.5100 C   0  0  0  0  0  0  0  0  0  0  0  0
   60.3590   28.9310   44.6360 C   0  0  0  0  0  0  0  0  0  0  0  0
   60.3380   28.1610   45.9500 C   0  0  0  0  0  0  0  0  0  0  0  0
   59.0340   27.4320   46.1430 C   0  0  0  0  0  0  0  0  0  0  0  0
   58.9810   26.3840   47.0760 C   0  0  0  0  0  0  0  0  0  0  0  0
   57.7960   25.6760   47.2780 C   0  0  0  0  0  0  0  0  0  0  0  0
   56.6560   26.0000   46.5470 C   0  0  0  0  0  0  0  0  0  0  0  0
   56.6880   27.0500   45.6270 C   0  0  0  0  0  0  0  0  0  0  0  0
   57.8600   27.8200   45.4420 C   0  0  0  0  0  0  0  0  0  0  0  0
   57.6936   32.0060   43.7219 H   0  0  0  0  0  0  0  0  0  0  0  0
   56.2302   32.7813   44.4152 H   0  0  0  0  0  0  0  0  0  0  0  0
   57.6512   31.5348   47.2473 H   0  0  0  0  0  0  0  0  0  0  0  0
   59.1282   32.7549   48.8482 H   0  0  0  0  0  0  0  0  0  0  0  0
   60.0256   35.6866   45.7970 H   0  0  0  0  0  0  0  0  0  0  0  0
   58.5497   34.4744   44.1903 H   0  0  0  0  0  0  0  0  0  0  0  0
   57.9110   28.3900   43.4930 H   0  0  0  0  0  0  0  0  0  0  0  0
   59.1299   30.3664   43.6013 H   0  0  0  0  0  0  0  0  0  0  0  0
   58.9758   30.3838   45.4029 H   0  0  0  0  0  0  0  0  0  0  0  0
   60.4279   28.2235   43.7965 H   0  0  0  0  0  0  0  0  0  0  0  0
   61.2285   29.6045   44.6173 H   0  0  0  0  0  0  0  0  0  0  0  0
   61.1595   27.4294   45.9485 H   0  0  0  0  0  0  0  0  0  0  0  0
   60.4556   28.8809   46.7733 H   0  0  0  0  0  0  0  0  0  0  0  0
   59.8802   26.1194   47.6517 H   0  0  0  0  0  0  0  0  0  0  0  0
   57.7622   24.8607   48.0157 H   0  0  0  0  0  0  0  0  0  0  0  0
   55.7283   25.4276   46.6946 H   0  0  0  0  0  0  0  0  0  0  0  0
   55.7886   27.2817   45.0375 H   0  0  0  0  0  0  0  0  0  0  0  0
  1  2  2  0
  2  3  1  0
  3  4  1  0
  4  5  1  0
  5  6  2  0
  6  7  1  0
  7  8  2  0
  8  9  1  0
  8 10  1  0
 10 11  2  0
  2 12  1  0
 12 13  1  0
 13 14  1  0
 14 15  1  0
 15 16  1  0
 16 17  2  0
 17 18  1  0
 18 19  2  0
 19 20  1  0
 20 21  2  0
 11  5  1  0
 21 12  1  0
 21 16  1  0
  4 22  1  0
  4 23  1  0
  6 24  1  0
  7 25  1  0
 10 26  1  0
 11 27  1  0
 12 28  1  6
 13 29  1  0
 13 30  1  0
 14 31  1  0
 14 32  1  0
 15 33  1  0
 15 34  1  0
 17 35  1  0
 18 36  1  0
 19 37  1  0
 20 38  1  0
M  CHG  2   3  -1  12   1
M  END
>  <UniqueID>  (84) 
74

>  <SMILES>  (84) 
O=C([N-]Cc1ccc(F)cc1)[N@H+]1CCCc2ccccc21

>  <Energy>  (84) 
44.20124239473694

>  <Genealogy>  (84) 
O=C([N-]Cc1ccc(F)cc1)[NH+]1CCCc2ccccc21 (protonated)
O=C([N-]Cc1ccc(F)cc1)[N@H+]1CCCc2ccccc21 (chirality)
O=C([N-]Cc1ccc(F)cc1)[N@H+]1CCCc2ccccc21 (3D coordinates assigned)
O=C([N-]Cc1ccc(F)cc1)[N@H+]1CCCc2ccccc21 (nonaromatic ring conformer: 44.20124239473694 kcal/mol)

>  <smiles>  (84) 
O=C(NCc1ccc(F)cc1)N1CCCc2ccccc21

>  <score_type>  (84) 
oracle

>  <origin>  (84) 
adg

>  <m_score__min__energy>  (84) 
-7.4000000000000004

>  <m_primary>  (84) 
energy

$$$$
84:0
     RDKit          3D

 54 57  0  0  0  0  0  0  0  0999 V2000
   55.1560   28.2210   44.8340 H   0  0  0  0  0  0  0  0  0  0  0  0
   55.7210   29.0390   44.5090 N   0  0  0  0  0  0  0  0  0  0  0  0
   56.6790   29.5480   45.2160 C   0  0  0  0  0  0  0  0  0  0  0  0
   56.8820   30.8940   45.1970 N   0  0  0  0  0  0  0  0  0  0  0  0
   57.8700   31.4840   45.9230 C   0  0  0  0  0  0  0  0  0  0  0  0
   58.0051   32.5750   45.8860 H   0  0  0  0  0  0  0  0  0  0  0  0
   58.7150   30.6980   46.7180 C   0  0  0  0  0  0  0  0  0  0  0  0
   59.7540   31.3070   47.5010 C   0  0  0  0  0  0  0  0  0  0  0  0
   60.6130   31.8050   48.1840 C   0  0  0  0  0  0  0  0  0  0  0  0
   61.6210   32.3820   49.0460 C   0  0  0  0  0  0  0  0  0  0  0  0
   61.3280   32.6450   50.3990 C   0  0  0  0  0  0  0  0  0  0  0  0
   60.0490   32.2290   51.0060 C   0  0  0  0  0  0  0  0  0  0  0  0
   59.1360   33.1900   51.4590 C   0  0  0  0  0  0  0  0  0  0  0  0
   59.3969   34.2577   51.4153 H   0  0  0  0  0  0  0  0  0  0  0  0
   57.8930   32.7960   51.9670 C   0  0  0  0  0  0  0  0  0  0  0  0
   57.0110   33.7410   52.3770 F   0  0  0  0  0  0  0  0  0  0  0  0
   57.5650   31.4330   52.0490 C   0  0  0  0  0  0  0  0  0  0  0  0
   56.2430   31.0120   52.5490 C   0  0  0  0  0  0  0  0  0  0  0  0
   55.2130   31.5890   52.0940 O   0  0  0  0  0  0  0  0  0  0  0  0
   56.1170   29.9910   53.5650 N   0  0  0  0  0  0  0  0  0  0  0  0
   57.2010   29.8310   54.5510 C   0  0  0  0  0  0  0  0  0  0  0  0
   58.1551   29.7252   54.0138 H   0  0  0  0  0  0  0  0  0  0  0  0
   57.2010   30.7203   55.1984 H   0  0  0  0  0  0  0  0  0  0  0  0
   56.9990   28.6030   55.4420 C   0  0  0  0  0  0  0  0  0  0  0  0
   57.2514   27.6978   54.8703 H   0  0  0  0  0  0  0  0  0  0  0  0
   57.6522   28.6962   56.3222 H   0  0  0  0  0  0  0  0  0  0  0  0
   55.6610   28.5140   55.8810 O   0  0  0  0  0  0  0  0  0  0  0  0
   54.8360   28.2270   54.7750 C   0  0  0  0  0  0  0  0  0  0  0  0
   55.2394   27.3549   54.2396 H   0  0  0  0  0  0  0  0  0  0  0  0
   53.8191   28.0142   55.1364 H   0  0  0  0  0  0  0  0  0  0  0  0
   54.7810   29.4230   53.8200 C   0  0  0  0  0  0  0  0  0  0  0  0
   54.3472   29.0940   52.8642 H   0  0  0  0  0  0  0  0  0  0  0  0
   54.1652   30.2038   54.2902 H   0  0  0  0  0  0  0  0  0  0  0  0
   58.4970   30.4680   51.6350 C   0  0  0  0  0  0  0  0  0  0  0  0
   58.2000   29.1460   51.7070 F   0  0  0  0  0  0  0  0  0  0  0  0
   59.7280   30.8660   51.1070 C   0  0  0  0  0  0  0  0  0  0  0  0
   60.4493   30.1075   50.7687 H   0  0  0  0  0  0  0  0  0  0  0  0
   62.2390   33.2940   51.1680 N   0  0  0  0  0  0  0  0  0  0  0  0
   63.4410   33.6750   50.6670 C   0  0  0  0  0  0  0  0  0  0  0  0
   64.1611   34.2011   51.3110 H   0  0  0  0  0  0  0  0  0  0  0  0
   63.7590   33.4090   49.3720 N   0  0  0  0  0  0  0  0  0  0  0  0
   64.6940   33.7140   49.0130 H   0  0  0  0  0  0  0  0  0  0  0  0
   62.8840   32.7660   48.5470 C   0  0  0  0  0  0  0  0  0  0  0  0
   63.2720   32.5270   47.1060 C   0  0  0  0  0  0  0  0  0  0  0  0
   64.2372   32.0003   47.0758 H   0  0  0  0  0  0  0  0  0  0  0  0
   62.4881   31.9217   46.6273 H   0  0  0  0  0  0  0  0  0  0  0  0
   63.3990   33.8460   46.3490 C   0  0  0  0  0  0  0  0  0  0  0  0
   63.4788   34.6750   47.0676 H   0  0  0  0  0  0  0  0  0  0  0  0
   64.2989   33.8208   45.7169 H   0  0  0  0  0  0  0  0  0  0  0  0
   62.5108   33.9930   45.7169 H   0  0  0  0  0  0  0  0  0  0  0  0
   58.5280   29.3110   46.7530 C   0  0  0  0  0  0  0  0  0  0  0  0
   59.1840   28.6816   47.3723 H   0  0  0  0  0  0  0  0  0  0  0  0
   57.5070   28.7290   46.0000 C   0  0  0  0  0  0  0  0  0  0  0  0
   57.3527   27.6401   46.0206 H   0  0  0  0  0  0  0  0  0  0  0  0
  1  2  1  0
  2  3  2  0
  3  4  1  0
  4  5  1  0
  5  6  1  0
  5  7  2  0
  7  8  1  0
  8  9  3  0
  9 10  1  0
 10 11  1  0
 11 12  1  0
 12 13  2  0
 13 14  1  0
 13 15  1  0
 15 16  1  0
 15 17  2  0
 17 18  1  0
 18 19  2  0
 18 20  1  0
 20 21  1  0
 21 22  1  0
 21 23  1  0
 21 24  1  0
 24 25  1  0
 24 26  1  0
 24 27  1  0
 27 28  1  0
 28 29  1  0
 28 30  1  0
 28 31  1  0
 31 32  1  0
 31 33  1  0
 17 34  1  0
 34 35  1  0
 34 36  2  0
 36 37  1  0
 11 38  2  0
 38 39  1  0
 39 40  1  0
 39 41  2  0
 41 42  1  0
 41 43  1  0
 43 44  1  0
 44 45  1  0
 44 46  1  0
 44 47  1  0
 47 48  1  0
 47 49  1  0
 47 50  1  0
  7 51  1  0
 51 52  1  0
 51 53  2  0
 53 54  1  0
 53  3  1  0
 43 10  2  0
 36 12  1  0
 31 20  1  0
M  CHG  2   4  -1  41   1
M  END
>  <UniqueID>  (85) 
75

>  <SMILES>  (85) 
[H]/N=c1\ccc(C#Cc2c(-c3cc(F)c(C(=O)N4CCOCC4)c(F)c3)nc[nH+]c2CC)c[n-]1

>  <Energy>  (85) 
67.79631558744995

>  <Genealogy>  (85) 
CCc1[nH+]cnc(-c2cc(F)c(C(=O)N3CCOCC3)c(F)c2)c1C#Cc1ccc(=N)[n-]c1 (protonated)
[H]/N=c1\ccc(C#Cc2c(-c3cc(F)c(C(=O)N4CCOCC4)c(F)c3)nc[nH+]c2CC)c[n-]1 (cis-trans isomerization)
[H]/N=c1\ccc(C#Cc2c(-c3cc(F)c(C(=O)N4CCOCC4)c(F)c3)nc[nH+]c2CC)c[n-]1 (3D coordinates assigned)
[H]/N=c1\ccc(C#Cc2c(-c3cc(F)c(C(=O)N4CCOCC4)c(F)c3)nc[nH+]c2CC)c[n-]1 (nonaromatic ring conformer: 67.79631558744995 kcal/mol)

>  <smiles>  (85) 
CCc1ncnc(-c2cc(F)c(C(=O)N3CCOCC3)c(F)c2)c1C#Cc1ccc(=N)[nH]c1

>  <score_type>  (85) 
oracle

>  <origin>  (85) 
adg

>  <m_score__min__energy>  (85) 
-9.5299999999999994

>  <m_primary>  (85) 
energy

$$$$
85:0
     RDKit          3D

 58 62  0  0  0  0  0  0  0  0999 V2000
   67.1310   29.7140   51.2550 C   0  0  0  0  0  0  0  0  0  0  0  0
   66.8830   30.8850   50.4830 O   0  0  0  0  0  0  0  0  0  0  0  0
   65.6730   31.5970   50.5360 C   0  0  0  0  0  0  0  0  0  0  0  0
   64.5230   30.9340   50.9750 C   0  0  0  0  0  0  0  0  0  0  0  0
   63.2820   31.5680   50.9270 C   0  0  0  0  0  0  0  0  0  0  0  0
   63.1660   32.8800   50.4260 C   0  0  0  0  0  0  0  0  0  0  0  0
   61.8080   33.4500   50.2040 C   0  0  0  0  0  0  0  0  0  0  0  0
   61.1770   33.8930   51.2140 O   0  0  0  0  0  0  0  0  0  0  0  0
   61.1410   33.3030   48.9170 N   0  0  0  0  0  0  0  0  0  0  0  0
   62.0770   32.8740   47.8250 C   0  0  0  0  0  0  0  0  0  0  0  0
   61.5510   33.3050   46.4270 C   0  0  0  0  0  0  0  0  0  0  0  0
   60.0790   33.3270   46.4660 N   0  0  0  0  0  0  0  0  0  0  0  0
   59.2990   32.1490   46.1010 C   0  0  0  0  0  0  0  0  0  0  0  0
   59.5970   30.8870   46.6590 C   0  0  0  0  0  0  0  0  0  0  0  0
   58.7890   29.7610   46.4220 C   0  0  0  0  0  0  0  0  0  0  0  0
   57.6250   29.9230   45.6260 C   0  0  0  0  0  0  0  0  0  0  0  0
   57.3440   31.1640   45.0320 C   0  0  0  0  0  0  0  0  0  0  0  0
   58.1910   32.2550   45.2330 C   0  0  0  0  0  0  0  0  0  0  0  0
   57.9260   33.4080   44.5680 F   0  0  0  0  0  0  0  0  0  0  0  0
   56.7680   28.8200   45.4290 C   0  0  0  0  0  0  0  0  0  0  0  0
   55.6570   28.9850   44.8590 O   0  0  0  0  0  0  0  0  0  0  0  0
   57.1310   27.5520   45.9050 C   0  0  0  0  0  0  0  0  0  0  0  0
   56.2480   26.3750   45.7570 C   0  0  0  0  0  0  0  0  0  0  0  0
   56.7310   25.2590   45.4110 O   0  0  0  0  0  0  0  0  0  0  0  0
   54.8880   26.4760   46.0180 O   0  0  0  0  0  0  0  0  0  0  0  0
   58.3350   27.4280   46.6070 C   0  0  0  0  0  0  0  0  0  0  0  0
   59.1070   28.5160   46.9310 N   0  0  0  0  0  0  0  0  0  0  0  0
   60.3500   28.2600   47.7020 C   0  0  0  0  0  0  0  0  0  0  0  0
   60.2920   27.2090   48.8160 C   0  0  0  0  0  0  0  0  0  0  0  0
   60.2130   28.6750   49.1750 C   0  0  0  0  0  0  0  0  0  0  0  0
   59.5170   34.3410   47.3840 C   0  0  0  0  0  0  0  0  0  0  0  0
   60.4840   34.5860   48.5610 C   0  0  0  0  0  0  0  0  0  0  0  0
   64.3380   33.5850   50.0890 C   0  0  0  0  0  0  0  0  0  0  0  0
   65.5770   32.9450   50.1210 C   0  0  0  0  0  0  0  0  0  0  0  0
   67.0784   29.9625   52.3253 H   0  0  0  0  0  0  0  0  0  0  0  0
   66.3744   28.9515   51.0180 H   0  0  0  0  0  0  0  0  0  0  0  0
   68.1317   29.3237   51.0180 H   0  0  0  0  0  0  0  0  0  0  0  0
   64.5976   29.9064   51.3604 H   0  0  0  0  0  0  0  0  0  0  0  0
   62.3856   31.0393   51.2834 H   0  0  0  0  0  0  0  0  0  0  0  0
   60.3740   32.5820   49.0070 H   0  0  0  0  0  0  0  0  0  0  0  0
   63.0611   33.3351   47.9951 H   0  0  0  0  0  0  0  0  0  0  0  0
   62.1522   31.7767   47.8440 H   0  0  0  0  0  0  0  0  0  0  0  0
   61.9304   34.3078   46.1812 H   0  0  0  0  0  0  0  0  0  0  0  0
   61.8964   32.5960   45.6602 H   0  0  0  0  0  0  0  0  0  0  0  0
   60.4866   30.7816   47.2973 H   0  0  0  0  0  0  0  0  0  0  0  0
   56.4488   31.2773   44.4029 H   0  0  0  0  0  0  0  0  0  0  0  0
   58.6740   26.4261   46.9091 H   0  0  0  0  0  0  0  0  0  0  0  0
   61.0419   28.4346   46.8649 H   0  0  0  0  0  0  0  0  0  0  0  0
   59.4028   26.5701   48.9212 H   0  0  0  0  0  0  0  0  0  0  0  0
   60.9340   26.3703   49.1232 H   0  0  0  0  0  0  0  0  0  0  0  0
   59.2665   29.1007   49.5397 H   0  0  0  0  0  0  0  0  0  0  0  0
   60.7733   29.3398   49.8489 H   0  0  0  0  0  0  0  0  0  0  0  0
   59.3648   35.2828   46.8363 H   0  0  0  0  0  0  0  0  0  0  0  0
   58.5565   33.9769   47.7775 H   0  0  0  0  0  0  0  0  0  0  0  0
   61.2463   35.3220   48.2658 H   0  0  0  0  0  0  0  0  0  0  0  0
   59.9272   34.9732   49.4271 H   0  0  0  0  0  0  0  0  0  0  0  0
   64.2759   34.6444   49.7995 H   0  0  0  0  0  0  0  0  0  0  0  0
   66.4835   33.4917   49.8220 H   0  0  0  0  0  0  0  0  0  0  0  0
  1  2  1  0
  2  3  1  0
  3  4  2  0
  4  5  1  0
  5  6  2  0
  6  7  1  0
  7  8  2  0
  7  9  1  0
  9 10  1  0
 10 11  1  0
 11 12  1  0
 12 13  1  0
 13 14  2  0
 14 15  1  0
 15 16  2  0
 16 17  1  0
 17 18  2  0
 18 19  1  0
 16 20  1  0
 20 21  2  0
 20 22  1  0
 22 23  1  0
 23 24  2  0
 23 25  1  0
 22 26  2  0
 26 27  1  0
 27 28  1  0
 28 29  1  0
 29 30  1  0
 12 31  1  0
 31 32  1  0
  6 33  1  0
 33 34  2  0
 34  3  1  0
 32  9  1  0
 18 13  1  0
 30 28  1  0
 27 15  1  0
  1 35  1  0
  1 36  1  0
  1 37  1  0
  4 38  1  0
  5 39  1  0
  9 40  1  0
 10 41  1  0
 10 42  1  0
 11 43  1  0
 11 44  1  0
 14 45  1  0
 17 46  1  0
 26 47  1  0
 28 48  1  0
 29 49  1  0
 29 50  1  0
 30 51  1  0
 30 52  1  0
 31 53  1  0
 31 54  1  0
 32 55  1  0
 32 56  1  0
 33 57  1  0
 34 58  1  0
M  CHG  2   9   1  25  -1
M  END
>  <UniqueID>  (86) 
76

>  <SMILES>  (86) 
COc1ccc(C(=O)[NH+]2CCN(c3cc4c(cc3F)c(=O)c(C(=O)[O-])cn4C3CC3)CC2)cc1

>  <Energy>  (86) 
369.7676968464318

>  <Genealogy>  (86) 
COc1ccc(C(=O)[NH+]2CCN(c3cc4c(cc3F)c(=O)c(C(=O)[O-])cn4C3CC3)CC2)cc1 (protonated)
COc1ccc(C(=O)[NH+]2CCN(c3cc4c(cc3F)c(=O)c(C(=O)[O-])cn4C3CC3)CC2)cc1 (3D coordinates assigned)
COc1ccc(C(=O)[NH+]2CCN(c3cc4c(cc3F)c(=O)c(C(=O)[O-])cn4C3CC3)CC2)cc1 (nonaromatic ring conformer: 369.7676968464318 kcal/mol)

>  <smiles>  (86) 
COc1ccc(C(=O)N2CCN(c3cc4c(cc3F)c(=O)c(C(=O)O)cn4C3CC3)CC2)cc1

>  <score_type>  (86) 
oracle

>  <origin>  (86) 
adg

>  <m_score__min__energy>  (86) 
-9.9800000000000004

>  <m_primary>  (86) 
energy

$$$$
86:0
     RDKit          3D

 30 31  0  0  0  0  0  0  0  0999 V2000
   56.4610   29.7060   43.4990 C   0  0  0  0  0  0  0  0  0  0  0  0
   57.0900   30.9460   43.9510 N   0  0  0  0  0  0  0  0  0  0  0  0
   57.1950   31.1710   45.2640 N   0  0  0  0  0  0  0  0  0  0  0  0
   57.7650   32.3000   45.7600 C   0  0  0  0  0  0  0  0  0  0  0  0
   58.2650   33.2660   44.8820 C   0  0  0  0  0  0  0  0  0  0  0  0
   58.8590   34.5480   45.4040 C   0  0  0  0  0  0  0  0  0  0  0  0
   59.0160   34.5240   46.9310 C   0  0  0  0  0  0  0  0  0  0  0  0
   60.4300   34.1970   47.3430 C   0  0  0  0  0  0  0  0  0  0  0  0
   61.3830   33.8380   46.3750 C   0  0  0  0  0  0  0  0  0  0  0  0
   62.6820   33.4940   46.7600 C   0  0  0  0  0  0  0  0  0  0  0  0
   63.0370   33.4990   48.1110 C   0  0  0  0  0  0  0  0  0  0  0  0
   62.0920   33.8460   49.0810 C   0  0  0  0  0  0  0  0  0  0  0  0
   60.7920   34.1920   48.7010 C   0  0  0  0  0  0  0  0  0  0  0  0
   58.1490   33.0420   43.5080 C   0  0  0  0  0  0  0  0  0  0  0  0
   57.5560   31.8650   43.0500 C   0  0  0  0  0  0  0  0  0  0  0  0
   57.4530   31.6620   41.8090 O   0  0  0  0  0  0  0  0  0  0  0  0
   56.1582   29.1091   44.3719 H   0  0  0  0  0  0  0  0  0  0  0  0
   55.5748   29.9443   42.8925 H   0  0  0  0  0  0  0  0  0  0  0  0
   57.1768   29.1317   42.8925 H   0  0  0  0  0  0  0  0  0  0  0  0
   57.8327   32.4532   46.8472 H   0  0  0  0  0  0  0  0  0  0  0  0
   59.8487   34.6939   44.9467 H   0  0  0  0  0  0  0  0  0  0  0  0
   58.1776   35.3713   45.1435 H   0  0  0  0  0  0  0  0  0  0  0  0
   58.7476   35.5124   47.3322 H   0  0  0  0  0  0  0  0  0  0  0  0
   58.3535   33.7422   47.3309 H   0  0  0  0  0  0  0  0  0  0  0  0
   61.1059   33.8276   45.3105 H   0  0  0  0  0  0  0  0  0  0  0  0
   63.4259   33.2189   45.9978 H   0  0  0  0  0  0  0  0  0  0  0  0
   64.0603   33.2299   48.4117 H   0  0  0  0  0  0  0  0  0  0  0  0
   62.3718   33.8468   50.1448 H   0  0  0  0  0  0  0  0  0  0  0  0
   60.0501   34.4612   49.4672 H   0  0  0  0  0  0  0  0  0  0  0  0
   58.5227   33.7886   42.7919 H   0  0  0  0  0  0  0  0  0  0  0  0
  1  2  1  0
  2  3  1  0
  3  4  2  0
  4  5  1  0
  5  6  1  0
  6  7  1  0
  7  8  1  0
  8  9  2  0
  9 10  1  0
 10 11  2  0
 11 12  1  0
 12 13  2  0
  5 14  2  0
 14 15  1  0
 15 16  2  0
 15  2  1  0
 13  8  1  0
  1 17  1  0
  1 18  1  0
  1 19  1  0
  4 20  1  0
  6 21  1  0
  6 22  1  0
  7 23  1  0
  7 24  1  0
  9 25  1  0
 10 26  1  0
 11 27  1  0
 12 28  1  0
 13 29  1  0
 14 30  1  0
M  END
>  <UniqueID>  (87) 
77

>  <SMILES>  (87) 
Cn1ncc(CCc2ccccc2)cc1=O

>  <Energy>  (87) 
27.648149018307524

>  <Genealogy>  (87) 
Cn1ncc(CCc2ccccc2)cc1=O (3D coordinates assigned)
Cn1ncc(CCc2ccccc2)cc1=O (optimized conformer: 27.648149018307524 kcal/mol)

>  <smiles>  (87) 
Cn1ncc(CCc2ccccc2)cc1=O

>  <score_type>  (87) 
oracle

>  <origin>  (87) 
adg

>  <m_score__min__energy>  (87) 
-6.7400000000000002

>  <m_primary>  (87) 
energy

$$$$
87:0
     RDKit          3D

 44 47  0  0  0  0  0  0  0  0999 V2000
   57.4030   33.1066   48.4574 H   0  0  0  0  0  0  0  0  0  0  0  0
   58.4140   32.7250   48.2520 C   0  0  0  0  0  0  0  0  0  0  0  0
   58.6600   31.3910   48.3170 N   0  0  0  0  0  0  0  0  0  0  0  0
   59.8970   30.8640   48.0850 C   0  0  0  0  0  0  0  0  0  0  0  0
   60.0830   29.5770   48.1510 N   0  0  0  0  0  0  0  0  0  0  0  0
   60.4640   28.7230   47.0250 C   0  0  0  0  0  0  0  0  0  0  0  0
   61.1897   27.9729   47.3723 H   0  0  0  0  0  0  0  0  0  0  0  0
   60.9069   29.3548   46.2410 H   0  0  0  0  0  0  0  0  0  0  0  0
   59.2630   28.0170   46.4500 C   0  0  0  0  0  0  0  0  0  0  0  0
   59.2770   26.6240   46.2680 C   0  0  0  0  0  0  0  0  0  0  0  0
   60.1785   26.0472   46.5221 H   0  0  0  0  0  0  0  0  0  0  0  0
   58.1490   25.9680   45.7650 C   0  0  0  0  0  0  0  0  0  0  0  0
   58.1730   24.2290   45.5440 Cl  0  0  0  0  0  0  0  0  0  0  0  0
   57.0020   26.6980   45.4350 C   0  0  0  0  0  0  0  0  0  0  0  0
   56.1137   26.1771   45.0481 H   0  0  0  0  0  0  0  0  0  0  0  0
   56.9800   28.0880   45.5950 C   0  0  0  0  0  0  0  0  0  0  0  0
   55.7930   28.8110   45.2430 N   0  0  0  0  0  0  0  0  0  0  0  0
   55.6970   29.8040   44.2130 C   0  0  0  0  0  0  0  0  0  0  0  0
   54.7730   29.7010   43.3640 O   0  0  0  0  0  0  0  0  0  0  0  0
   56.6860   30.9040   44.0860 C   0  0  0  0  0  0  0  0  0  0  0  0
   57.2090   31.2670   42.8300 C   0  0  0  0  0  0  0  0  0  0  0  0
   56.9163   30.7028   41.9322 H   0  0  0  0  0  0  0  0  0  0  0  0
   58.0980   32.3400   42.7170 C   0  0  0  0  0  0  0  0  0  0  0  0
   58.5091   32.6111   41.7334 H   0  0  0  0  0  0  0  0  0  0  0  0
   58.4650   33.0680   43.8500 C   0  0  0  0  0  0  0  0  0  0  0  0
   59.2900   34.1350   43.7330 F   0  0  0  0  0  0  0  0  0  0  0  0
   57.9610   32.7100   45.1030 C   0  0  0  0  0  0  0  0  0  0  0  0
   58.2642   33.2738   45.9976 H   0  0  0  0  0  0  0  0  0  0  0  0
   57.0730   31.6380   45.2230 C   0  0  0  0  0  0  0  0  0  0  0  0
   56.6741   31.3661   46.2114 H   0  0  0  0  0  0  0  0  0  0  0  0
   58.1030   28.7410   46.1290 C   0  0  0  0  0  0  0  0  0  0  0  0
   58.0738   29.8277   46.2971 H   0  0  0  0  0  0  0  0  0  0  0  0
   60.9690   31.7250   47.7620 C   0  0  0  0  0  0  0  0  0  0  0  0
   62.2710   31.2420   47.5240 C   0  0  0  0  0  0  0  0  0  0  0  0
   62.4775   30.1643   47.6008 H   0  0  0  0  0  0  0  0  0  0  0  0
   63.3010   32.1250   47.1910 C   0  0  0  0  0  0  0  0  0  0  0  0
   64.3151   31.7400   47.0084 H   0  0  0  0  0  0  0  0  0  0  0  0
   63.0480   33.4950   47.0890 C   0  0  0  0  0  0  0  0  0  0  0  0
   63.8611   34.1842   46.8172 H   0  0  0  0  0  0  0  0  0  0  0  0
   61.7660   33.9920   47.3310 C   0  0  0  0  0  0  0  0  0  0  0  0
   61.5733   35.0722   47.2534 H   0  0  0  0  0  0  0  0  0  0  0  0
   60.7220   33.1180   47.6730 C   0  0  0  0  0  0  0  0  0  0  0  0
   59.4380   33.6120   47.9260 C   0  0  0  0  0  0  0  0  0  0  0  0
   59.2382   34.6922   47.8681 H   0  0  0  0  0  0  0  0  0  0  0  0
  1  2  1  0
  2  3  1  0
  3  4  1  0
  4  5  2  0
  5  6  1  0
  6  7  1  0
  6  8  1  0
  6  9  1  0
  9 10  2  0
 10 11  1  0
 10 12  1  0
 12 13  1  0
 12 14  2  0
 14 15  1  0
 14 16  1  0
 16 17  1  0
 17 18  1  0
 18 19  2  0
 18 20  1  0
 20 21  2  0
 21 22  1  0
 21 23  1  0
 23 24  1  0
 23 25  2  0
 25 26  1  0
 25 27  1  0
 27 28  1  0
 27 29  2  0
 29 30  1  0
 16 31  2  0
 31 32  1  0
  4 33  1  0
 33 34  2  0
 34 35  1  0
 34 36  1  0
 36 37  1  0
 36 38  2  0
 38 39  1  0
 38 40  1  0
 40 41  1  0
 40 42  2  0
 42 43  1  0
 43 44  1  0
 43  2  2  0
 31  9  1  0
 42 33  1  0
 29 20  1  0
M  CHG  2   3  -1  17  -1
M  END
>  <UniqueID>  (88) 
78

>  <SMILES>  (88) 
O=C([N-]c1cc(Cl)cc(C/N=c2\[n-]ccc3ccccc23)c1)c1ccc(F)cc1

>  <Energy>  (88) 
55.47386411634402

>  <Genealogy>  (88) 
O=C([N-]c1cc(Cl)cc(CN=c2[n-]ccc3ccccc23)c1)c1ccc(F)cc1 (protonated)
O=C([N-]c1cc(Cl)cc(C/N=c2\[n-]ccc3ccccc23)c1)c1ccc(F)cc1 (cis-trans isomerization)
O=C([N-]c1cc(Cl)cc(C/N=c2\[n-]ccc3ccccc23)c1)c1ccc(F)cc1 (3D coordinates assigned)
O=C([N-]c1cc(Cl)cc(C/N=c2\[n-]ccc3ccccc23)c1)c1ccc(F)cc1 (optimized conformer: 55.47386411634402 kcal/mol)

>  <smiles>  (88) 
O=C(Nc1cc(Cl)cc(CN=c2[nH]ccc3ccccc23)c1)c1ccc(F)cc1

>  <score_type>  (88) 
oracle

>  <origin>  (88) 
adg

>  <m_score__min__energy>  (88) 
-12.48

>  <m_primary>  (88) 
energy

$$$$
88:0
     RDKit          3D

 37 38  0  0  0  0  0  0  0  0999 V2000
   59.6380   35.5450   46.5390 C   0  0  0  0  0  0  0  0  0  0  0  0
   59.0620   34.3000   45.9310 C   0  0  0  0  0  0  0  0  0  0  0  0
   58.5490   33.2840   46.7510 C   0  0  0  0  0  0  0  0  0  0  0  0
   57.9800   32.1390   46.1830 C   0  0  0  0  0  0  0  0  0  0  0  0
   57.9020   32.0080   44.7900 C   0  0  0  0  0  0  0  0  0  0  0  0
   57.2120   30.5580   44.0640 S   0  0  0  0  0  0  0  0  0  0  0  0
   56.0290   30.0960   44.8710 O   0  0  0  0  0  0  0  0  0  0  0  0
   56.7420   30.8930   42.6750 O   0  0  0  0  0  0  0  0  0  0  0  0
   58.4130   29.2900   43.9890 N   0  0  1  0  0  0  0  0  0  0  0  0
   59.4490   29.5450   45.0180 C   0  0  0  0  0  0  0  0  0  0  0  0
   60.3720   28.3360   45.1890 C   0  0  0  0  0  0  0  0  0  0  0  0
   59.5970   27.0930   45.6570 C   0  0  0  0  0  0  0  0  0  0  0  0
   58.0860   27.2010   45.4010 C   0  0  0  0  0  0  0  0  0  0  0  0
   57.7630   27.9400   44.0800 C   0  0  2  0  0  0  0  0  0  0  0  0
   58.1250   27.0620   42.8680 C   0  0  0  0  0  0  0  0  0  0  0  0
   58.4040   33.0270   43.9700 C   0  0  0  0  0  0  0  0  0  0  0  0
   58.9730   34.1710   44.5360 C   0  0  0  0  0  0  0  0  0  0  0  0
   59.6023   35.4678   47.6357 H   0  0  0  0  0  0  0  0  0  0  0  0
   60.6821   35.6628   46.2135 H   0  0  0  0  0  0  0  0  0  0  0  0
   59.0518   36.4171   46.2135 H   0  0  0  0  0  0  0  0  0  0  0  0
   58.5943   33.3880   47.8451 H   0  0  0  0  0  0  0  0  0  0  0  0
   57.5928   31.3394   46.8317 H   0  0  0  0  0  0  0  0  0  0  0  0
   58.8780   29.4020   43.0560 H   0  0  0  0  0  0  0  0  0  0  0  0
   60.0501   30.4145   44.7136 H   0  0  0  0  0  0  0  0  0  0  0  0
   58.9460   29.7364   45.9773 H   0  0  0  0  0  0  0  0  0  0  0  0
   60.8526   28.1147   44.2246 H   0  0  0  0  0  0  0  0  0  0  0  0
   61.1223   28.5819   45.9549 H   0  0  0  0  0  0  0  0  0  0  0  0
   59.9827   26.2150   45.1181 H   0  0  0  0  0  0  0  0  0  0  0  0
   59.7427   27.0020   46.7435 H   0  0  0  0  0  0  0  0  0  0  0  0
   57.6627   26.1869   45.3511 H   0  0  0  0  0  0  0  0  0  0  0  0
   57.6466   27.7809   46.2260 H   0  0  0  0  0  0  0  0  0  0  0  0
   56.6784   28.1235   44.0729 H   0  0  0  0  0  0  0  0  0  0  0  0
   58.5224   26.0982   43.2190 H   0  0  0  0  0  0  0  0  0  0  0  0
   57.2253   26.8879   42.2596 H   0  0  0  0  0  0  0  0  0  0  0  0
   58.8860   27.5726   42.2596 H   0  0  0  0  0  0  0  0  0  0  0  0
   58.3500   32.9261   42.8760 H   0  0  0  0  0  0  0  0  0  0  0  0
   59.3525   34.9733   43.8861 H   0  0  0  0  0  0  0  0  0  0  0  0
  1  2  1  0
  2  3  2  0
  3  4  1  0
  4  5  2  0
  5  6  1  0
  6  7  2  0
  6  8  2  0
  6  9  1  0
  9 10  1  0
 10 11  1  0
 11 12  1  0
 12 13  1  0
 13 14  1  0
 14 15  1  0
  5 16  1  0
 16 17  2  0
 17  2  1  0
 14  9  1  0
  1 18  1  0
  1 19  1  0
  1 20  1  0
  3 21  1  0
  4 22  1  0
  9 23  1  6
 10 24  1  0
 10 25  1  0
 11 26  1  0
 11 27  1  0
 12 28  1  0
 12 29  1  0
 13 30  1  0
 13 31  1  0
 14 32  1  1
 15 33  1  0
 15 34  1  0
 15 35  1  0
 16 36  1  0
 17 37  1  0
M  CHG  1   9   1
M  END
>  <UniqueID>  (89) 
79

>  <SMILES>  (89) 
Cc1ccc(S(=O)(=O)[N@H+]2CCCC[C@@H]2C)cc1

>  <Energy>  (89) 
40.618452088208265

>  <Genealogy>  (89) 
Cc1ccc(S(=O)(=O)[NH+]2CCCCC2C)cc1 (protonated)
Cc1ccc(S(=O)(=O)[N@H+]2CCCC[C@@H]2C)cc1 (chirality)
Cc1ccc(S(=O)(=O)[N@H+]2CCCC[C@@H]2C)cc1 (3D coordinates assigned)
Cc1ccc(S(=O)(=O)[N@H+]2CCCC[C@@H]2C)cc1 (nonaromatic ring conformer: 40.618452088208265 kcal/mol)

>  <smiles>  (89) 
Cc1ccc(S(=O)(=O)N2CCCCC2C)cc1

>  <score_type>  (89) 
oracle

>  <origin>  (89) 
adg

>  <m_score__min__energy>  (89) 
-6.8200000000000003

>  <m_primary>  (89) 
energy

$$$$
89:0
     RDKit          3D

 43 44  0  0  0  0  0  0  0  0999 V2000
   63.3760   33.8060   46.6750 C   0  0  0  0  0  0  0  0  0  0  0  0
   63.1030   32.5390   47.4750 C   0  0  0  0  0  0  0  0  0  0  0  0
   61.7590   32.5250   47.9540 O   0  0  0  0  0  0  0  0  0  0  0  0
   60.9180   33.6430   47.9200 C   0  0  0  0  0  0  0  0  0  0  0  0
   61.1100   34.6080   48.7090 O   0  0  0  0  0  0  0  0  0  0  0  0
   59.8340   33.7290   46.9220 C   0  0  0  0  0  0  0  0  0  0  0  0
   59.8830   34.7870   45.9980 C   0  0  0  0  0  0  0  0  0  0  0  0
   58.8970   34.9290   45.0210 C   0  0  0  0  0  0  0  0  0  0  0  0
   57.8390   34.0270   44.9620 C   0  0  0  0  0  0  0  0  0  0  0  0
   57.7640   32.9770   45.8760 C   0  0  0  0  0  0  0  0  0  0  0  0
   58.7520   32.8060   46.8630 C   0  0  0  0  0  0  0  0  0  0  0  0
   58.5550   31.6790   47.8630 C   0  0  0  0  0  0  0  0  0  0  0  0
   59.7740   30.8680   48.0390 N   0  0  0  0  0  0  0  0  0  0  0  0
   59.4920   29.4380   48.2890 C   0  0  0  0  0  0  0  0  0  0  0  0
   60.3290   28.5150   47.3880 C   0  0  0  0  0  0  0  0  0  0  0  0
   59.5890   28.2130   46.0820 C   0  0  0  0  0  0  0  0  0  0  0  0
   57.7990   27.9960   46.3660 S   0  0  0  0  0  0  0  0  0  0  0  0
   57.2890   29.1620   45.1060 C   0  0  0  0  0  0  0  0  0  0  0  0
   56.0010   29.4880   44.8700 N   0  0  0  0  0  0  0  0  0  0  0  0
   55.8940   30.4310   43.8970 C   0  0  0  0  0  0  0  0  0  0  0  0
   57.1000   30.8590   43.3530 C   0  0  0  0  0  0  0  0  0  0  0  0
   58.3410   30.0320   44.1290 S   0  0  0  0  0  0  0  0  0  0  0  0
   63.5565   34.6435   47.3649 H   0  0  0  0  0  0  0  0  0  0  0  0
   64.2623   33.6556   46.0412 H   0  0  0  0  0  0  0  0  0  0  0  0
   62.5064   34.0339   46.0412 H   0  0  0  0  0  0  0  0  0  0  0  0
   63.2658   31.6627   46.8303 H   0  0  0  0  0  0  0  0  0  0  0  0
   63.7860   32.5107   48.3368 H   0  0  0  0  0  0  0  0  0  0  0  0
   60.7089   35.5120   46.0457 H   0  0  0  0  0  0  0  0  0  0  0  0
   58.9561   35.7548   44.2967 H   0  0  0  0  0  0  0  0  0  0  0  0
   57.0608   34.1426   44.1932 H   0  0  0  0  0  0  0  0  0  0  0  0
   56.9208   32.2725   45.8248 H   0  0  0  0  0  0  0  0  0  0  0  0
   58.2753   32.1128   48.8344 H   0  0  0  0  0  0  0  0  0  0  0  0
   57.7647   31.0193   47.4754 H   0  0  0  0  0  0  0  0  0  0  0  0
   60.4170   30.9950   47.2220 H   0  0  0  0  0  0  0  0  0  0  0  0
   60.2780   31.2470   48.8750 H   0  0  0  0  0  0  0  0  0  0  0  0
   59.7216   29.2101   49.3404 H   0  0  0  0  0  0  0  0  0  0  0  0
   58.4305   29.2585   48.0632 H   0  0  0  0  0  0  0  0  0  0  0  0
   61.2845   29.0078   47.1554 H   0  0  0  0  0  0  0  0  0  0  0  0
   60.5058   27.5686   47.9200 H   0  0  0  0  0  0  0  0  0  0  0  0
   59.7418   29.0482   45.3826 H   0  0  0  0  0  0  0  0  0  0  0  0
   59.9895   27.2770   45.6655 H   0  0  0  0  0  0  0  0  0  0  0  0
   54.9233   30.8270   43.5639 H   0  0  0  0  0  0  0  0  0  0  0  0
   57.2207   31.6069   42.5555 H   0  0  0  0  0  0  0  0  0  0  0  0
  1  2  1  0
  2  3  1  0
  3  4  1  0
  4  5  2  0
  4  6  1  0
  6  7  2  0
  7  8  1  0
  8  9  2  0
  9 10  1  0
 10 11  2  0
 11 12  1  0
 12 13  1  0
 13 14  1  0
 14 15  1  0
 15 16  1  0
 16 17  1  0
 17 18  1  0
 18 19  2  0
 19 20  1  0
 20 21  2  0
 21 22  1  0
 11  6  1  0
 22 18  1  0
  1 23  1  0
  1 24  1  0
  1 25  1  0
  2 26  1  0
  2 27  1  0
  7 28  1  0
  8 29  1  0
  9 30  1  0
 10 31  1  0
 12 32  1  0
 12 33  1  0
 13 34  1  0
 13 35  1  0
 14 36  1  0
 14 37  1  0
 15 38  1  0
 15 39  1  0
 16 40  1  0
 16 41  1  0
 20 42  1  0
 21 43  1  0
M  CHG  1  13   1
M  END
>  <UniqueID>  (90) 
80

>  <SMILES>  (90) 
CCOC(=O)c1ccccc1C[NH2+]CCCSc1nccs1

>  <Energy>  (90) 
66.49914192022693

>  <Genealogy>  (90) 
CCOC(=O)c1ccccc1C[NH2+]CCCSc1nccs1 (protonated)
CCOC(=O)c1ccccc1C[NH2+]CCCSc1nccs1 (3D coordinates assigned)
CCOC(=O)c1ccccc1C[NH2+]CCCSc1nccs1 (optimized conformer: 66.49914192022693 kcal/mol)

>  <smiles>  (90) 
CCOC(=O)c1ccccc1CNCCCSc1nccs1

>  <score_type>  (90) 
oracle

>  <origin>  (90) 
adg

>  <m_score__min__energy>  (90) 
-5.3700000000000001

>  <m_primary>  (90) 
energy

$$$$
90:0
     RDKit          3D

 38 41  0  0  0  0  0  0  0  0999 V2000
   60.3280   28.5710   44.5010 C   0  0  0  0  0  0  0  0  0  0  0  0
   60.0330   27.7710   45.6410 O   0  0  0  0  0  0  0  0  0  0  0  0
   59.8350   28.2740   46.9360 C   0  0  0  0  0  0  0  0  0  0  0  0
   60.7240   27.9870   47.9920 C   0  0  0  0  0  0  0  0  0  0  0  0
   60.5100   28.5300   49.2620 C   0  0  0  0  0  0  0  0  0  0  0  0
   59.4120   29.3610   49.4930 C   0  0  0  0  0  0  0  0  0  0  0  0
   58.5230   29.6470   48.4570 C   0  0  0  0  0  0  0  0  0  0  0  0
   58.7240   29.1030   47.1790 C   0  0  0  0  0  0  0  0  0  0  0  0
   57.8010   29.4120   46.1200 N   0  0  0  0  0  0  0  0  0  0  0  0
   57.5130   30.6160   45.5780 C   0  0  0  0  0  0  0  0  0  0  0  0
   58.2320   31.8820   45.8450 C   0  0  0  0  0  0  0  0  0  0  0  0
   57.6170   33.1240   45.6260 C   0  0  0  0  0  0  0  0  0  0  0  0
   58.3070   34.3080   45.8870 C   0  0  0  0  0  0  0  0  0  0  0  0
   59.6120   34.2670   46.3800 C   0  0  0  0  0  0  0  0  0  0  0  0
   60.2410   33.0350   46.6270 C   0  0  0  0  0  0  0  0  0  0  0  0
   61.6250   33.0010   47.1580 C   0  0  0  0  0  0  0  0  0  0  0  0
   62.5890   33.8750   46.7880 N   0  0  0  0  0  0  0  0  0  0  0  0
   63.7710   33.6370   47.4160 C   0  0  0  0  0  0  0  0  0  0  0  0
   63.7670   32.5640   48.2980 C   0  0  0  0  0  0  0  0  0  0  0  0
   62.2240   31.8990   48.2860 S   0  0  0  0  0  0  0  0  0  0  0  0
   59.5380   31.8440   46.3610 C   0  0  0  0  0  0  0  0  0  0  0  0
   56.4580   30.5330   44.7400 N   0  0  0  0  0  0  0  0  0  0  0  0
   56.0550   29.2710   44.7390 N   0  0  0  0  0  0  0  0  0  0  0  0
   56.8690   28.6020   45.5740 C   0  0  0  0  0  0  0  0  0  0  0  0
   56.6500   27.0250   45.9610 S   0  0  0  0  0  0  0  0  0  0  0  0
   60.6913   29.5563   44.8285 H   0  0  0  0  0  0  0  0  0  0  0  0
   61.1030   28.0767   43.8968 H   0  0  0  0  0  0  0  0  0  0  0  0
   59.4176   28.6982   43.8968 H   0  0  0  0  0  0  0  0  0  0  0  0
   61.5903   27.3325   47.8155 H   0  0  0  0  0  0  0  0  0  0  0  0
   61.2080   28.3022   50.0811 H   0  0  0  0  0  0  0  0  0  0  0  0
   59.2480   29.7903   50.4924 H   0  0  0  0  0  0  0  0  0  0  0  0
   57.6595   30.3026   48.6427 H   0  0  0  0  0  0  0  0  0  0  0  0
   56.5853   33.1643   45.2465 H   0  0  0  0  0  0  0  0  0  0  0  0
   57.8207   35.2775   45.7036 H   0  0  0  0  0  0  0  0  0  0  0  0
   60.1517   35.2052   46.5765 H   0  0  0  0  0  0  0  0  0  0  0  0
   64.6666   34.2504   47.2383 H   0  0  0  0  0  0  0  0  0  0  0  0
   64.6204   32.2128   48.8966 H   0  0  0  0  0  0  0  0  0  0  0  0
   60.0167   30.8737   46.5594 H   0  0  0  0  0  0  0  0  0  0  0  0
  1  2  1  0
  2  3  1  0
  3  4  2  0
  4  5  1  0
  5  6  2  0
  6  7  1  0
  7  8  2  0
  8  9  1  0
  9 10  1  0
 10 11  1  0
 11 12  2  0
 12 13  1  0
 13 14  2  0
 14 15  1  0
 15 16  1  0
 16 17  2  0
 17 18  1  0
 18 19  2  0
 19 20  1  0
 15 21  2  0
 10 22  2  0
 22 23  1  0
 23 24  1  0
 24 25  2  0
  8  3  1  0
 24  9  1  0
 21 11  1  0
 20 16  1  0
  1 26  1  0
  1 27  1  0
  1 28  1  0
  4 29  1  0
  5 30  1  0
  6 31  1  0
  7 32  1  0
 12 33  1  0
 13 34  1  0
 14 35  1  0
 18 36  1  0
 19 37  1  0
 21 38  1  0
M  CHG  1  23  -1
M  END
>  <UniqueID>  (91) 
81

>  <SMILES>  (91) 
COc1ccccc1-n1c(-c2cccc(-c3nccs3)c2)n[n-]c1=S

>  <Energy>  (91) 
118.46659432289051

>  <Genealogy>  (91) 
COc1ccccc1-n1c(-c2cccc(-c3nccs3)c2)n[n-]c1=S (protonated)
COc1ccccc1-n1c(-c2cccc(-c3nccs3)c2)n[n-]c1=S (3D coordinates assigned)
COc1ccccc1-n1c(-c2cccc(-c3nccs3)c2)n[n-]c1=S (optimized conformer: 118.46659432289051 kcal/mol)

>  <smiles>  (91) 
COc1ccccc1-n1c(-c2cccc(-c3nccs3)c2)n[nH]c1=S

>  <score_type>  (91) 
oracle

>  <origin>  (91) 
adg

>  <m_score__min__energy>  (91) 
-9.4399999999999995

>  <m_primary>  (91) 
energy

$$$$
91:0
     RDKit          3D

 33 35  0  0  0  0  0  0  0  0999 V2000
   60.3157   25.6725   47.4469 H   0  0  0  0  0  0  0  0  0  0  0  0
   60.3180   26.7580   47.2690 C   0  0  0  0  0  0  0  0  0  0  0  0
   60.5680   27.2550   45.9870 C   0  0  0  0  0  0  0  0  0  0  0  0
   60.7587   26.5602   45.1558 H   0  0  0  0  0  0  0  0  0  0  0  0
   60.5760   28.6340   45.7600 C   0  0  0  0  0  0  0  0  0  0  0  0
   60.7687   29.0205   44.7483 H   0  0  0  0  0  0  0  0  0  0  0  0
   60.3390   29.5310   46.8180 C   0  0  0  0  0  0  0  0  0  0  0  0
   60.3150   30.9510   46.5790 N   0  0  0  0  0  0  0  0  0  0  0  0
   61.1210   31.2250   45.9690 H   0  0  0  0  0  0  0  0  0  0  0  0
   60.4160   31.4760   47.4790 H   0  0  0  0  0  0  0  0  0  0  0  0
   59.0820   31.3050   45.9300 C   0  0  0  0  0  0  0  0  0  0  0  0
   58.2080   30.3300   45.5590 N   0  0  0  0  0  0  0  0  0  0  0  0
   57.0210   30.6360   44.9730 C   0  0  0  0  0  0  0  0  0  0  0  0
   55.9040   29.3290   44.4870 S   0  0  0  0  0  0  0  0  0  0  0  0
   56.6300   28.1850   45.6250 N   0  0  0  0  0  0  0  0  0  0  0  0
   56.3380   26.9220   45.6290 C   0  0  0  0  0  0  0  0  0  0  0  0
   55.1480   26.4240   46.0310 N   0  0  0  0  0  0  0  0  0  0  0  0
   55.0850   25.0980   45.9330 N   0  0  0  0  0  0  0  0  0  0  0  0
   56.2260   24.5430   45.4670 C   0  0  0  0  0  0  0  0  0  0  0  0
   56.3830   23.0850   45.2020 C   0  0  0  0  0  0  0  0  0  0  0  0
   56.4414   22.5429   46.1574 H   0  0  0  0  0  0  0  0  0  0  0  0
   55.5188   22.7218   44.6265 H   0  0  0  0  0  0  0  0  0  0  0  0
   57.3047   22.9141   44.6265 H   0  0  0  0  0  0  0  0  0  0  0  0
   57.3890   25.7140   45.1180 S   0  0  0  0  0  0  0  0  0  0  0  0
   56.6830   31.9330   44.7530 N   0  0  0  0  0  0  0  0  0  0  0  0
   57.5190   32.9410   45.1140 C   0  0  0  0  0  0  0  0  0  0  0  0
   57.1850   34.1370   44.9040 O   0  0  0  0  0  0  0  0  0  0  0  0
   58.7440   32.6490   45.7170 C   0  0  0  0  0  0  0  0  0  0  0  0
   59.4287   33.4555   46.0183 H   0  0  0  0  0  0  0  0  0  0  0  0
   60.0770   29.0200   48.1020 C   0  0  0  0  0  0  0  0  0  0  0  0
   59.8758   29.7097   48.9349 H   0  0  0  0  0  0  0  0  0  0  0  0
   60.0710   27.6390   48.3250 C   0  0  0  0  0  0  0  0  0  0  0  0
   59.8716   27.2462   49.3329 H   0  0  0  0  0  0  0  0  0  0  0  0
  1  2  1  0
  2  3  2  0
  3  4  1  0
  3  5  1  0
  5  6  1  0
  5  7  2  0
  7  8  1  0
  8  9  1  0
  8 10  1  0
  8 11  1  0
 11 12  1  0
 12 13  1  0
 13 14  1  0
 14 15  1  0
 15 16  2  0
 16 17  1  0
 17 18  1  0
 18 19  2  0
 19 20  1  0
 20 21  1  0
 20 22  1  0
 20 23  1  0
 19 24  1  0
 13 25  2  0
 25 26  1  0
 26 27  2  0
 26 28  1  0
 28 29  1  0
  7 30  1  0
 30 31  1  0
 30 32  2  0
 32 33  1  0
 32  2  1  0
 28 11  2  0
 24 16  1  0
M  CHG  3   8   1  12  -1  17  -1
M  END
>  <UniqueID>  (92) 
82

>  <SMILES>  (92) 
Cc1n[n-]/c(=N\Sc2nc(=O)cc([NH2+]c3ccccc3)[n-]2)s1

>  <Energy>  (92) 
67.48589499572479

>  <Genealogy>  (92) 
Cc1n[n-]c(=NSc2nc(=O)cc([NH2+]c3ccccc3)[n-]2)s1 (protonated)
Cc1n[n-]/c(=N\Sc2nc(=O)cc([NH2+]c3ccccc3)[n-]2)s1 (cis-trans isomerization)
Cc1n[n-]/c(=N\Sc2nc(=O)cc([NH2+]c3ccccc3)[n-]2)s1 (3D coordinates assigned)
Cc1n[n-]/c(=N\Sc2nc(=O)cc([NH2+]c3ccccc3)[n-]2)s1 (optimized conformer: 67.48589499572479 kcal/mol)

>  <smiles>  (92) 
Cc1n[nH]c(=NSc2nc(=O)cc(Nc3ccccc3)[nH]2)s1

>  <score_type>  (92) 
oracle

>  <origin>  (92) 
adg

>  <m_score__min__energy>  (92) 
-9.6500000000000004

>  <m_primary>  (92) 
energy

$$$$
92:0
     RDKit          3D

 53 55  0  0  0  0  0  0  0  0999 V2000
   56.1650   29.6600   43.0390 C   0  0  0  0  0  0  0  0  0  0  0  0
   57.0040   30.3340   44.0850 C   0  0  0  0  0  0  0  0  0  0  0  0
   57.8920   29.5890   44.8590 C   0  0  0  0  0  0  0  0  0  0  0  0
   58.7120   30.2070   45.8170 C   0  0  0  0  0  0  0  0  0  0  0  0
   59.6410   29.3310   46.6210 C   0  0  0  0  0  0  0  0  0  0  0  0
   58.6270   31.6130   46.0220 C   0  0  0  0  0  0  0  0  0  0  0  0
   59.6420   32.3770   47.2850 S   0  0  0  0  0  0  0  0  0  0  0  0
   59.6450   31.4920   48.4990 O   0  0  0  0  0  0  0  0  0  0  0  0
   59.1260   33.7190   47.7190 O   0  0  0  0  0  0  0  0  0  0  0  0
   61.2790   32.5500   46.7210 N   0  0  0  0  0  0  0  0  0  0  0  0
   61.8620   33.8410   47.1080 C   0  0  2  0  0  0  0  0  0  0  0  0
   63.3760   33.8310   46.8030 C   0  0  0  0  0  0  0  0  0  0  0  0
   64.2360   33.4660   48.0260 C   0  0  0  0  0  0  0  0  0  0  0  0
   63.5010   32.4930   48.9560 C   0  0  0  0  0  0  0  0  0  0  0  0
   62.2000   33.0260   49.4500 N   0  0  0  0  0  0  0  0  0  0  0  0
   62.2780   33.4640   50.8570 C   0  0  0  0  0  0  0  0  0  0  0  0
   60.9310   33.3630   51.5060 C   0  0  0  0  0  0  0  0  0  0  0  0
   60.6720   33.3470   52.8630 C   0  0  0  0  0  0  0  0  0  0  0  0
   59.2970   33.2180   52.9270 C   0  0  0  0  0  0  0  0  0  0  0  0
   58.4800   33.1240   54.1710 C   0  0  0  0  0  0  0  0  0  0  0  0
   58.8100   33.1580   51.7090 O   0  0  0  0  0  0  0  0  0  0  0  0
   59.7690   33.2440   50.8360 N   0  0  0  0  0  0  0  0  0  0  0  0
   61.6240   34.1000   48.6060 C   0  0  0  0  0  0  0  0  0  0  0  0
   57.7560   32.3750   45.1880 C   0  0  0  0  0  0  0  0  0  0  0  0
   57.6430   33.8750   45.2800 C   0  0  0  0  0  0  0  0  0  0  0  0
   56.9550   31.7210   44.2370 C   0  0  0  0  0  0  0  0  0  0  0  0
   55.3965   29.0426   43.5271 H   0  0  0  0  0  0  0  0  0  0  0  0
   55.6793   30.4219   42.4116 H   0  0  0  0  0  0  0  0  0  0  0  0
   56.8043   29.0215   42.4116 H   0  0  0  0  0  0  0  0  0  0  0  0
   57.9514   28.4998   44.7172 H   0  0  0  0  0  0  0  0  0  0  0  0
   59.4647   29.4972   47.6940 H   0  0  0  0  0  0  0  0  0  0  0  0
   59.4516   28.2751   46.3776 H   0  0  0  0  0  0  0  0  0  0  0  0
   60.6839   29.5820   46.3776 H   0  0  0  0  0  0  0  0  0  0  0  0
   61.3810   34.6459   46.5329 H   0  0  0  0  0  0  0  0  0  0  0  0
   63.5681   33.0955   46.0079 H   0  0  0  0  0  0  0  0  0  0  0  0
   63.6558   34.8501   46.4978 H   0  0  0  0  0  0  0  0  0  0  0  0
   65.1684   32.9956   47.6804 H   0  0  0  0  0  0  0  0  0  0  0  0
   64.4488   34.3877   48.5873 H   0  0  0  0  0  0  0  0  0  0  0  0
   63.3107   31.5595   48.4061 H   0  0  0  0  0  0  0  0  0  0  0  0
   64.1433   32.3304   49.8341 H   0  0  0  0  0  0  0  0  0  0  0  0
   62.9908   32.8240   51.3978 H   0  0  0  0  0  0  0  0  0  0  0  0
   62.6141   34.5109   50.8889 H   0  0  0  0  0  0  0  0  0  0  0  0
   61.3888   33.4196   53.6942 H   0  0  0  0  0  0  0  0  0  0  0  0
   59.1386   33.1998   55.0488 H   0  0  0  0  0  0  0  0  0  0  0  0
   57.7467   33.9437   54.1909 H   0  0  0  0  0  0  0  0  0  0  0  0
   57.9520   32.1592   54.1909 H   0  0  0  0  0  0  0  0  0  0  0  0
   59.6420   33.2160   49.8000 H   0  0  0  0  0  0  0  0  0  0  0  0
   60.5409   34.1548   48.7899 H   0  0  0  0  0  0  0  0  0  0  0  0
   62.1192   35.0456   48.8718 H   0  0  0  0  0  0  0  0  0  0  0  0
   57.6203   34.1768   46.3375 H   0  0  0  0  0  0  0  0  0  0  0  0
   58.5087   34.3390   44.7848 H   0  0  0  0  0  0  0  0  0  0  0  0
   56.7175   34.2040   44.7848 H   0  0  0  0  0  0  0  0  0  0  0  0
   56.2782   32.3113   43.6018 H   0  0  0  0  0  0  0  0  0  0  0  0
  1  2  1  0
  2  3  2  0
  3  4  1  0
  4  5  1  0
  4  6  2  0
  6  7  1  0
  7  8  2  0
  7  9  2  0
  7 10  1  0
 10 11  1  0
 11 12  1  0
 12 13  1  0
 13 14  1  0
 14 15  1  0
 15 16  1  0
 16 17  1  0
 17 18  1  0
 18 19  2  0
 19 20  1  0
 19 21  1  0
 21 22  1  0
 15 23  1  0
  6 24  1  0
 24 25  1  0
 24 26  2  0
 26  2  1  0
 23 11  1  0
 22 17  2  0
  1 27  1  0
  1 28  1  0
  1 29  1  0
  3 30  1  0
  5 31  1  0
  5 32  1  0
  5 33  1  0
 11 34  1  6
 12 35  1  0
 12 36  1  0
 13 37  1  0
 13 38  1  0
 14 39  1  0
 14 40  1  0
 16 41  1  0
 16 42  1  0
 18 43  1  0
 20 44  1  0
 20 45  1  0
 20 46  1  0
 22 47  1  0
 23 48  1  0
 23 49  1  0
 25 50  1  0
 25 51  1  0
 25 52  1  0
 26 53  1  0
M  CHG  2  10  -1  22   1
M  END
>  <UniqueID>  (93) 
83

>  <SMILES>  (93) 
Cc1cc(C)c(S(=O)(=O)[N-][C@@H]2CCCN(Cc3cc(C)o[nH+]3)C2)c(C)c1

>  <Energy>  (93) 
94.87284728729321

>  <Genealogy>  (93) 
Cc1cc(C)c(S(=O)(=O)[N-]C2CCCN(Cc3cc(C)o[nH+]3)C2)c(C)c1 (protonated)
Cc1cc(C)c(S(=O)(=O)[N-][C@@H]2CCCN(Cc3cc(C)o[nH+]3)C2)c(C)c1 (chirality)
Cc1cc(C)c(S(=O)(=O)[N-][C@@H]2CCCN(Cc3cc(C)o[nH+]3)C2)c(C)c1 (3D coordinates assigned)
Cc1cc(C)c(S(=O)(=O)[N-][C@@H]2CCCN(Cc3cc(C)o[nH+]3)C2)c(C)c1 (nonaromatic ring conformer: 94.87284728729321 kcal/mol)

>  <smiles>  (93) 
Cc1cc(C)c(S(=O)(=O)NC2CCCN(Cc3cc(C)on3)C2)c(C)c1

>  <score_type>  (93) 
oracle

>  <origin>  (93) 
adg

>  <m_score__min__energy>  (93) 
-7.54

>  <m_primary>  (93) 
energy

$$$$
93:0
     RDKit          3D

 49 52  0  0  0  0  0  0  0  0999 V2000
   60.6030   28.3010   45.2730 C   0  0  0  0  0  0  0  0  0  0  0  0
   59.1840   28.1710   45.2350 O   0  0  0  0  0  0  0  0  0  0  0  0
   58.3250   29.0710   44.5900 C   0  0  0  0  0  0  0  0  0  0  0  0
   57.4790   28.5830   43.5870 C   0  0  0  0  0  0  0  0  0  0  0  0
   56.6240   29.4470   42.8970 C   0  0  0  0  0  0  0  0  0  0  0  0
   56.6110   30.8110   43.1980 C   0  0  0  0  0  0  0  0  0  0  0  0
   57.4480   31.3190   44.2030 C   0  0  0  0  0  0  0  0  0  0  0  0
   57.4570   32.7920   44.5200 C   0  0  0  0  0  0  0  0  0  0  0  0
   57.9000   33.0070   45.8960 N   0  0  0  0  0  0  0  0  0  0  0  0
   59.0440   33.8120   46.2090 C   0  0  0  0  0  0  0  0  0  0  0  0
   59.4340   34.6960   45.3970 O   0  0  0  0  0  0  0  0  0  0  0  0
   59.8180   33.5460   47.4430 C   0  0  0  0  0  0  0  0  0  0  0  0
   59.1000   33.2540   48.6090 C   0  0  0  0  0  0  0  0  0  0  0  0
   59.7310   32.9250   49.7720 N   0  0  0  0  0  0  0  0  0  0  0  0
   58.9220   32.6040   50.9220 C   0  0  0  0  0  0  0  0  0  0  0  0
   58.1570   31.4250   50.9440 C   0  0  0  0  0  0  0  0  0  0  0  0
   57.4030   31.0940   52.0740 C   0  0  0  0  0  0  0  0  0  0  0  0
   57.4070   31.9360   53.1890 C   0  0  0  0  0  0  0  0  0  0  0  0
   56.6780   31.6110   54.2850 F   0  0  0  0  0  0  0  0  0  0  0  0
   58.1660   33.1090   53.1770 C   0  0  0  0  0  0  0  0  0  0  0  0
   58.9230   33.4430   52.0490 C   0  0  0  0  0  0  0  0  0  0  0  0
   61.0990   32.8830   49.8390 C   0  0  0  0  0  0  0  0  0  0  0  0
   61.6690   32.5960   50.9300 O   0  0  0  0  0  0  0  0  0  0  0  0
   61.8770   33.1780   48.7000 C   0  0  0  0  0  0  0  0  0  0  0  0
   63.2850   33.1470   48.7540 C   0  0  0  0  0  0  0  0  0  0  0  0
   64.0430   33.4670   47.6280 C   0  0  0  0  0  0  0  0  0  0  0  0
   63.4140   33.8290   46.4410 C   0  0  0  0  0  0  0  0  0  0  0  0
   62.0200   33.8640   46.3650 C   0  0  0  0  0  0  0  0  0  0  0  0
   61.2300   33.5220   47.4840 C   0  0  0  0  0  0  0  0  0  0  0  0
   58.2900   30.4430   44.9090 C   0  0  0  0  0  0  0  0  0  0  0  0
   60.9405   28.3319   46.3195 H   0  0  0  0  0  0  0  0  0  0  0  0
   61.0637   27.4413   44.7644 H   0  0  0  0  0  0  0  0  0  0  0  0
   60.8998   29.2301   44.7644 H   0  0  0  0  0  0  0  0  0  0  0  0
   57.4872   27.5111   43.3400 H   0  0  0  0  0  0  0  0  0  0  0  0
   55.9594   29.0517   42.1147 H   0  0  0  0  0  0  0  0  0  0  0  0
   55.9430   31.4884   42.6458 H   0  0  0  0  0  0  0  0  0  0  0  0
   58.1430   33.3080   43.8321 H   0  0  0  0  0  0  0  0  0  0  0  0
   56.4389   33.1916   44.4030 H   0  0  0  0  0  0  0  0  0  0  0  0
   57.4490   32.4500   46.6560 H   0  0  0  0  0  0  0  0  0  0  0  0
   58.0009   33.2909   48.5862 H   0  0  0  0  0  0  0  0  0  0  0  0
   58.1515   30.7596   50.0681 H   0  0  0  0  0  0  0  0  0  0  0  0
   56.8062   30.1700   52.0852 H   0  0  0  0  0  0  0  0  0  0  0  0
   58.1683   33.7707   54.0557 H   0  0  0  0  0  0  0  0  0  0  0  0
   59.5213   34.3660   52.0444 H   0  0  0  0  0  0  0  0  0  0  0  0
   63.7896   32.8684   49.6909 H   0  0  0  0  0  0  0  0  0  0  0  0
   65.1413   33.4331   47.6785 H   0  0  0  0  0  0  0  0  0  0  0  0
   64.0173   34.0887   45.5586 H   0  0  0  0  0  0  0  0  0  0  0  0
   61.5329   34.1608   45.4244 H   0  0  0  0  0  0  0  0  0  0  0  0
   58.9270   30.8316   45.7173 H   0  0  0  0  0  0  0  0  0  0  0  0
  1  2  1  0
  2  3  1  0
  3  4  2  0
  4  5  1  0
  5  6  2  0
  6  7  1  0
  7  8  1  0
  8  9  1  0
  9 10  1  0
 10 11  2  0
 10 12  1  0
 12 13  2  0
 13 14  1  0
 14 15  1  0
 15 16  2  0
 16 17  1  0
 17 18  2  0
 18 19  1  0
 18 20  1  0
 20 21  2  0
 14 22  1  0
 22 23  2  0
 22 24  1  0
 24 25  2  0
 25 26  1  0
 26 27  2  0
 27 28  1  0
 28 29  2  0
  7 30  2  0
 30  3  1  0
 29 12  1  0
 21 15  1  0
 29 24  1  0
  1 31  1  0
  1 32  1  0
  1 33  1  0
  4 34  1  0
  5 35  1  0
  6 36  1  0
  8 37  1  0
  8 38  1  0
  9 39  1  0
 13 40  1  0
 16 41  1  0
 17 42  1  0
 20 43  1  0
 21 44  1  0
 25 45  1  0
 26 46  1  0
 27 47  1  0
 28 48  1  0
 30 49  1  0
M  END
>  <UniqueID>  (94) 
84

>  <SMILES>  (94) 
COc1cccc(CNC(=O)c2cn(-c3ccc(F)cc3)c(=O)c3ccccc23)c1

>  <Energy>  (94) 
69.81428449812054

>  <Genealogy>  (94) 
COc1cccc(CNC(=O)c2cn(-c3ccc(F)cc3)c(=O)c3ccccc23)c1 (3D coordinates assigned)
COc1cccc(CNC(=O)c2cn(-c3ccc(F)cc3)c(=O)c3ccccc23)c1 (optimized conformer: 69.81428449812054 kcal/mol)

>  <smiles>  (94) 
COc1cccc(CNC(=O)c2cn(-c3ccc(F)cc3)c(=O)c3ccccc23)c1

>  <score_type>  (94) 
oracle

>  <origin>  (94) 
adg

>  <m_score__min__energy>  (94) 
-9.0600000000000005

>  <m_primary>  (94) 
energy

$$$$
