0:0
     RDKit          3D

 42 44  0  0  0  0  0  0  0  0999 V2000
   55.8770   25.9330   46.3980 O   0  0  0  0  0  0  0  0  0  0  0  0
   56.8320   26.7390   46.2440 C   0  0  0  0  0  0  0  0  0  0  0  0
   56.7640   27.7280   45.2580 C   0  0  0  0  0  0  0  0  0  0  0  0
   57.8370   28.6250   45.0970 C   0  0  0  0  0  0  0  0  0  0  0  0
   57.8260   29.6710   44.1010 N   0  0  0  0  0  0  0  0  0  0  0  0
   56.9330   30.8350   44.0970 C   0  0  1  0  0  0  0  0  0  0  0  0
   55.7390   30.5100   44.7650 O   0  0  0  0  0  0  0  0  0  0  0  0
   57.6280   32.0430   44.6980 C   0  0  0  0  0  0  0  0  0  0  0  0
   58.0640   33.1280   43.9150 C   0  0  0  0  0  0  0  0  0  0  0  0
   58.7060   34.1770   44.4930 N   0  0  0  0  0  0  0  0  0  0  0  0
   58.9500   34.2240   45.8280 C   0  0  0  0  0  0  0  0  0  0  0  0
   58.5360   33.1730   46.6570 C   0  0  0  0  0  0  0  0  0  0  0  0
   58.8390   33.1920   48.1300 C   0  0  0  0  0  0  0  0  0  0  0  0
   59.7820   32.0430   48.5000 C   0  0  0  0  0  0  0  0  0  0  0  0
   61.1860   32.3410   48.0460 C   0  0  0  0  0  0  0  0  0  0  0  0
   61.6610   33.6640   48.0360 C   0  0  0  0  0  0  0  0  0  0  0  0
   62.9550   33.9440   47.5860 C   0  0  0  0  0  0  0  0  0  0  0  0
   63.7780   32.9090   47.1330 C   0  0  0  0  0  0  0  0  0  0  0  0
   63.3060   31.5930   47.1260 C   0  0  0  0  0  0  0  0  0  0  0  0
   62.0140   31.3080   47.5750 C   0  0  0  0  0  0  0  0  0  0  0  0
   57.8890   32.0720   46.0780 C   0  0  0  0  0  0  0  0  0  0  0  0
   58.9550   28.4930   45.9340 C   0  0  0  0  0  0  0  0  0  0  0  0
   58.9820   27.4910   46.9050 C   0  0  0  0  0  0  0  0  0  0  0  0
   57.9300   26.6430   47.0390 N   0  0  0  0  0  0  0  0  0  0  0  0
   55.8772   27.8048   44.6118 H   0  0  0  0  0  0  0  0  0  0  0  0
   58.5350   29.6220   43.3340 H   0  0  0  0  0  0  0  0  0  0  0  0
   56.6754   31.1057   43.0624 H   0  0  0  0  0  0  0  0  0  0  0  0
   54.9970   30.6610   44.1220 H   0  0  0  0  0  0  0  0  0  0  0  0
   57.8842   33.1270   42.8298 H   0  0  0  0  0  0  0  0  0  0  0  0
   59.4740   35.0894   46.2597 H   0  0  0  0  0  0  0  0  0  0  0  0
   59.3157   34.1489   48.3889 H   0  0  0  0  0  0  0  0  0  0  0  0
   57.8983   33.0731   48.6877 H   0  0  0  0  0  0  0  0  0  0  0  0
   59.7763   31.9082   49.5917 H   0  0  0  0  0  0  0  0  0  0  0  0
   59.4356   31.1260   48.0009 H   0  0  0  0  0  0  0  0  0  0  0  0
   61.0125   34.4818   48.3834 H   0  0  0  0  0  0  0  0  0  0  0  0
   63.3256   34.9797   47.5885 H   0  0  0  0  0  0  0  0  0  0  0  0
   64.7969   33.1299   46.7821 H   0  0  0  0  0  0  0  0  0  0  0  0
   63.9535   30.7799   46.7661 H   0  0  0  0  0  0  0  0  0  0  0  0
   61.6440   30.2722   47.5598 H   0  0  0  0  0  0  0  0  0  0  0  0
   57.5835   31.2245   46.7092 H   0  0  0  0  0  0  0  0  0  0  0  0
   59.8088   29.1780   45.8252 H   0  0  0  0  0  0  0  0  0  0  0  0
   59.8573   27.3880   47.5632 H   0  0  0  0  0  0  0  0  0  0  0  0
  1  2  2  0
  2  3  1  0
  3  4  2  0
  4  5  1  0
  5  6  1  0
  6  7  1  0
  6  8  1  0
  8  9  2  0
  9 10  1  0
 10 11  2  0
 11 12  1  0
 12 13  1  0
 13 14  1  0
 14 15  1  0
 15 16  2  0
 16 17  1  0
 17 18  2  0
 18 19  1  0
 19 20  2  0
 12 21  2  0
  4 22  1  0
 22 23  2  0
 23 24  1  0
 24  2  1  0
 21  8  1  0
 20 15  1  0
  3 25  1  0
  5 26  1  0
  6 27  1  6
  7 28  1  0
  9 29  1  0
 11 30  1  0
 13 31  1  0
 13 32  1  0
 14 33  1  0
 14 34  1  0
 16 35  1  0
 17 36  1  0
 18 37  1  0
 19 38  1  0
 20 39  1  0
 21 40  1  0
 22 41  1  0
 23 42  1  0
M  CHG  1  24  -1
M  END
>  <UniqueID>  (1) 
1

>  <SMILES>  (1) 
O=c1cc(N[C@@H](O)c2cncc(CCc3ccccc3)c2)cc[n-]1

>  <Energy>  (1) 
45.28159232004778

>  <Genealogy>  (1) 
O=c1cc(NC(O)c2cncc(CCc3ccccc3)c2)cc[n-]1 (protonated)
O=c1cc(N[C@@H](O)c2cncc(CCc3ccccc3)c2)cc[n-]1 (chirality)
O=c1cc(N[C@@H](O)c2cncc(CCc3ccccc3)c2)cc[n-]1 (3D coordinates assigned)
O=c1cc(N[C@@H](O)c2cncc(CCc3ccccc3)c2)cc[n-]1 (optimized conformer: 45.28159232004778 kcal/mol)

>  <smiles>  (1) 
O=c1cc(NC(O)c2cncc(CCc3ccccc3)c2)cc[nH]1

>  <score_type>  (1) 
oracle

>  <origin>  (1) 
adg

>  <m_score__min__energy>  (1) 
-10.58

>  <m_primary>  (1) 
energy

$$$$
1:0
     RDKit          3D

 41 44  0  0  0  0  0  0  0  0999 V2000
   56.8900   20.8750   43.0120 C   0  0  0  0  0  0  0  0  0  0  0  0
   55.9040   21.8480   43.3400 O   0  0  0  0  0  0  0  0  0  0  0  0
   56.1790   23.0750   43.9630 C   0  0  0  0  0  0  0  0  0  0  0  0
   55.4580   23.4120   45.1140 C   0  0  0  0  0  0  0  0  0  0  0  0
   55.6980   24.6210   45.7740 C   0  0  0  0  0  0  0  0  0  0  0  0
   56.6830   25.5030   45.3040 C   0  0  0  0  0  0  0  0  0  0  0  0
   56.9090   26.8210   46.0050 C   0  0  0  0  0  0  0  0  0  0  0  0
   55.9090   27.8180   45.6190 N   0  0  0  0  0  0  0  0  0  0  0  0
   56.6220   29.1510   44.7550 S   0  0  0  0  0  0  0  0  0  0  0  0
   57.2720   28.6690   43.4890 O   0  0  0  0  0  0  0  0  0  0  0  0
   55.5200   30.0940   44.3610 O   0  0  0  0  0  0  0  0  0  0  0  0
   57.7610   30.0350   45.7930 C   0  0  0  0  0  0  0  0  0  0  0  0
   58.5340   29.2710   46.7160 C   0  0  0  0  0  0  0  0  0  0  0  0
   59.4660   29.8820   47.5820 C   0  0  0  0  0  0  0  0  0  0  0  0
   59.6150   31.2610   47.5110 C   0  0  0  0  0  0  0  0  0  0  0  0
   58.8810   31.9880   46.6190 C   0  0  0  0  0  0  0  0  0  0  0  0
   59.1960   33.3120   46.6900 C   0  0  0  0  0  0  0  0  0  0  0  0
   58.5840   34.2360   45.8500 C   0  0  0  0  0  0  0  0  0  0  0  0
   57.6290   33.7500   44.9300 C   0  0  0  0  0  0  0  0  0  0  0  0
   57.3130   32.3660   44.8700 C   0  0  0  0  0  0  0  0  0  0  0  0
   57.9520   31.4480   45.7380 C   0  0  0  0  0  0  0  0  0  0  0  0
   60.2210   33.4090   47.7260 C   0  0  0  0  0  0  0  0  0  0  0  0
   60.7940   34.4630   48.1070 O   0  0  0  0  0  0  0  0  0  0  0  0
   60.4940   32.1060   48.2570 N   0  0  0  0  0  0  0  0  0  0  0  0
   57.3870   25.1810   44.1320 C   0  0  0  0  0  0  0  0  0  0  0  0
   57.1460   23.9720   43.4720 C   0  0  0  0  0  0  0  0  0  0  0  0
   57.3140   20.4565   43.9367 H   0  0  0  0  0  0  0  0  0  0  0  0
   56.4281   20.0690   42.4229 H   0  0  0  0  0  0  0  0  0  0  0  0
   57.6898   21.3476   42.4229 H   0  0  0  0  0  0  0  0  0  0  0  0
   54.6963   22.7201   45.5027 H   0  0  0  0  0  0  0  0  0  0  0  0
   55.1112   24.8823   46.6670 H   0  0  0  0  0  0  0  0  0  0  0  0
   56.8519   26.6611   47.0918 H   0  0  0  0  0  0  0  0  0  0  0  0
   57.9001   27.1988   45.7137 H   0  0  0  0  0  0  0  0  0  0  0  0
   58.4008   28.1798   46.7540 H   0  0  0  0  0  0  0  0  0  0  0  0
   60.0565   29.2841   48.2917 H   0  0  0  0  0  0  0  0  0  0  0  0
   58.8345   35.3059   45.9003 H   0  0  0  0  0  0  0  0  0  0  0  0
   57.1232   34.4522   44.2510 H   0  0  0  0  0  0  0  0  0  0  0  0
   56.5679   32.0059   44.1453 H   0  0  0  0  0  0  0  0  0  0  0  0
   61.1810   31.8360   48.9950 H   0  0  0  0  0  0  0  0  0  0  0  0
   58.1321   25.8839   43.7311 H   0  0  0  0  0  0  0  0  0  0  0  0
   57.7149   23.7208   42.5647 H   0  0  0  0  0  0  0  0  0  0  0  0
  1  2  1  0
  2  3  1  0
  3  4  2  0
  4  5  1  0
  5  6  2  0
  6  7  1  0
  7  8  1  0
  8  9  1  0
  9 10  2  0
  9 11  2  0
  9 12  1  0
 12 13  2  0
 13 14  1  0
 14 15  2  0
 15 16  1  0
 16 17  2  0
 17 18  1  0
 18 19  2  0
 19 20  1  0
 20 21  2  0
 17 22  1  0
 22 23  2  0
 22 24  1  0
  6 25  1  0
 25 26  2  0
 26  3  1  0
 21 12  1  0
 24 15  1  0
 21 16  1  0
  1 27  1  0
  1 28  1  0
  1 29  1  0
  4 30  1  0
  5 31  1  0
  7 32  1  0
  7 33  1  0
 13 34  1  0
 14 35  1  0
 18 36  1  0
 19 37  1  0
 20 38  1  0
 24 39  1  0
 25 40  1  0
 26 41  1  0
M  CHG  1   8  -1
M  END
>  <UniqueID>  (2) 
2

>  <SMILES>  (2) 
COc1ccc(C[N-]S(=O)(=O)c2ccc3c4c(cccc24)C(=O)N3)cc1

>  <Energy>  (2) 
89.66786992385907

>  <Genealogy>  (2) 
COc1ccc(C[N-]S(=O)(=O)c2ccc3c4c(cccc24)C(=O)N3)cc1 (protonated)
COc1ccc(C[N-]S(=O)(=O)c2ccc3c4c(cccc24)C(=O)N3)cc1 (3D coordinates assigned)
COc1ccc(C[N-]S(=O)(=O)c2ccc3c4c(cccc24)C(=O)N3)cc1 (nonaromatic ring conformer: 89.66786992385907 kcal/mol)

>  <smiles>  (2) 
COc1ccc(CNS(=O)(=O)c2ccc3c4c(cccc24)C(=O)N3)cc1

>  <score_type>  (2) 
oracle

>  <origin>  (2) 
adg

>  <m_score__min__energy>  (2) 
-10.83

>  <m_primary>  (2) 
energy

$$$$
2:0
     RDKit          3D

 59 62  0  0  0  0  0  0  0  0999 V2000
   60.2030   33.4810   50.4920 C   0  0  0  0  0  0  0  0  0  0  0  0
   61.1060   33.4740   49.2930 C   0  0  0  0  0  0  0  0  0  0  0  0
   60.5840   33.6660   48.0390 N   0  0  0  0  0  0  0  0  0  0  0  0
   61.3470   33.6580   46.9280 N   0  0  0  0  0  0  0  0  0  0  0  0
   60.7080   33.8890   45.6240 C   0  0  0  0  0  0  0  0  0  0  0  0
   59.4480   34.6910   45.8000 C   0  0  0  0  0  0  0  0  0  0  0  0
   59.2710   35.7060   45.0780 O   0  0  0  0  0  0  0  0  0  0  0  0
   58.4570   34.3750   46.7900 N   0  0  0  0  0  0  0  0  0  0  0  0
   57.3160   33.4780   46.6240 C   0  0  0  0  0  0  0  0  0  0  0  0
   57.4160   32.6840   45.3150 C   0  0  0  0  0  0  0  0  0  0  0  0
   58.1660   31.3590   45.4990 C   0  0  0  0  0  0  0  0  0  0  0  0
   58.1760   30.6000   44.2280 N   0  0  0  0  0  0  0  0  0  0  0  0
   58.2400   29.1430   44.4520 C   0  0  0  0  0  0  0  0  0  0  0  0
   56.9100   28.5920   45.0250 C   0  0  0  0  0  0  0  0  0  0  0  0
   55.8200   29.4840   44.8620 O   0  0  0  0  0  0  0  0  0  0  0  0
   55.8210   30.0180   43.5550 C   0  0  0  0  0  0  0  0  0  0  0  0
   57.0320   30.9500   43.3510 C   0  0  0  0  0  0  0  0  0  0  0  0
   62.7090   33.4790   47.0160 C   0  0  0  0  0  0  0  0  0  0  0  0
   63.4420   33.4810   45.9910 O   0  0  0  0  0  0  0  0  0  0  0  0
   63.2640   33.2980   48.2720 C   0  0  0  0  0  0  0  0  0  0  0  0
   64.5600   33.1120   48.5790 N   0  0  0  0  0  0  0  0  0  0  0  0
   64.6260   32.9890   49.9000 N   0  0  0  0  0  0  0  0  0  0  0  0
   65.8640   32.7540   50.5900 C   0  0  0  0  0  0  0  0  0  0  0  0
   66.7350   33.8250   50.8440 C   0  0  0  0  0  0  0  0  0  0  0  0
   67.9540   33.6030   51.4940 C   0  0  0  0  0  0  0  0  0  0  0  0
   68.3170   32.3100   51.8790 C   0  0  0  0  0  0  0  0  0  0  0  0
   67.4660   31.2350   51.6090 C   0  0  0  0  0  0  0  0  0  0  0  0
   66.2470   31.4530   50.9610 C   0  0  0  0  0  0  0  0  0  0  0  0
   63.3840   33.1190   50.4420 C   0  0  0  0  0  0  0  0  0  0  0  0
   63.0740   33.1280   51.9130 C   0  0  0  0  0  0  0  0  0  0  0  0
   62.4900   33.3010   49.3940 C   0  0  0  0  0  0  0  0  0  0  0  0
   60.8108   33.4763   51.4088 H   0  0  0  0  0  0  0  0  0  0  0  0
   59.5752   34.3840   50.4729 H   0  0  0  0  0  0  0  0  0  0  0  0
   59.5613   32.5878   50.4729 H   0  0  0  0  0  0  0  0  0  0  0  0
   59.5530   33.8200   47.9500 H   0  0  0  0  0  0  0  0  0  0  0  0
   61.4016   34.4398   44.9716 H   0  0  0  0  0  0  0  0  0  0  0  0
   60.4567   32.9192   45.1697 H   0  0  0  0  0  0  0  0  0  0  0  0
   57.2880   32.7740   47.4687 H   0  0  0  0  0  0  0  0  0  0  0  0
   56.3992   34.0851   46.5923 H   0  0  0  0  0  0  0  0  0  0  0  0
   56.4000   32.4689   44.9523 H   0  0  0  0  0  0  0  0  0  0  0  0
   57.9778   33.2933   44.5917 H   0  0  0  0  0  0  0  0  0  0  0  0
   59.2014   31.5666   45.8071 H   0  0  0  0  0  0  0  0  0  0  0  0
   57.6586   30.7620   46.2711 H   0  0  0  0  0  0  0  0  0  0  0  0
   58.4494   28.6440   43.4943 H   0  0  0  0  0  0  0  0  0  0  0  0
   59.0371   28.9433   45.1833 H   0  0  0  0  0  0  0  0  0  0  0  0
   56.6710   27.6499   44.5099 H   0  0  0  0  0  0  0  0  0  0  0  0
   57.0548   28.4465   46.1057 H   0  0  0  0  0  0  0  0  0  0  0  0
   55.8722   29.1942   42.8279 H   0  0  0  0  0  0  0  0  0  0  0  0
   54.8981   30.5982   43.4081 H   0  0  0  0  0  0  0  0  0  0  0  0
   57.3576   30.8800   42.3026 H   0  0  0  0  0  0  0  0  0  0  0  0
   56.7140   31.9706   43.6101 H   0  0  0  0  0  0  0  0  0  0  0  0
   66.4582   34.8425   50.5309 H   0  0  0  0  0  0  0  0  0  0  0  0
   68.6274   34.4476   51.7021 H   0  0  0  0  0  0  0  0  0  0  0  0
   69.2732   32.1381   52.3949 H   0  0  0  0  0  0  0  0  0  0  0  0
   67.7557   30.2165   51.9067 H   0  0  0  0  0  0  0  0  0  0  0  0
   65.5844   30.6031   50.7403 H   0  0  0  0  0  0  0  0  0  0  0  0
   64.0127   33.1007   52.4857 H   0  0  0  0  0  0  0  0  0  0  0  0
   62.5173   34.0427   52.1648 H   0  0  0  0  0  0  0  0  0  0  0  0
   62.4652   32.2471   52.1648 H   0  0  0  0  0  0  0  0  0  0  0  0
  1  2  1  0
  2  3  2  0
  3  4  1  0
  4  5  1  0
  5  6  1  0
  6  7  2  0
  6  8  1  0
  8  9  1  0
  9 10  1  0
 10 11  1  0
 11 12  1  0
 12 13  1  0
 13 14  1  0
 14 15  1  0
 15 16  1  0
 16 17  1  0
  4 18  1  0
 18 19  2  0
 18 20  1  0
 20 21  2  0
 21 22  1  0
 22 23  1  0
 23 24  2  0
 24 25  1  0
 25 26  2  0
 26 27  1  0
 27 28  2  0
 22 29  1  0
 29 30  1  0
 29 31  2  0
 31  2  1  0
 17 12  1  0
 31 20  1  0
 28 23  1  0
  1 32  1  0
  1 33  1  0
  1 34  1  0
  3 35  1  0
  5 36  1  0
  5 37  1  0
  9 38  1  0
  9 39  1  0
 10 40  1  0
 10 41  1  0
 11 42  1  0
 11 43  1  0
 13 44  1  0
 13 45  1  0
 14 46  1  0
 14 47  1  0
 16 48  1  0
 16 49  1  0
 17 50  1  0
 17 51  1  0
 24 52  1  0
 25 53  1  0
 26 54  1  0
 27 55  1  0
 28 56  1  0
 30 57  1  0
 30 58  1  0
 30 59  1  0
M  CHG  2   3   1   8  -1
M  END
>  <UniqueID>  (3) 
3

>  <SMILES>  (3) 
Cc1[nH+]n(CC(=O)[N-]CCCN2CCOCC2)c(=O)c2nn(-c3ccccc3)c(C)c12

>  <Energy>  (3) 
116.28774711391331

>  <Genealogy>  (3) 
Cc1[nH+]n(CC(=O)[N-]CCCN2CCOCC2)c(=O)c2nn(-c3ccccc3)c(C)c12 (protonated)
Cc1[nH+]n(CC(=O)[N-]CCCN2CCOCC2)c(=O)c2nn(-c3ccccc3)c(C)c12 (3D coordinates assigned)
Cc1[nH+]n(CC(=O)[N-]CCCN2CCOCC2)c(=O)c2nn(-c3ccccc3)c(C)c12 (nonaromatic ring conformer: 116.28774711391331 kcal/mol)

>  <smiles>  (3) 
Cc1nn(CC(=O)NCCCN2CCOCC2)c(=O)c2nn(-c3ccccc3)c(C)c12

>  <score_type>  (3) 
oracle

>  <origin>  (3) 
adg

>  <m_score__min__energy>  (3) 
-10.220000000000001

>  <m_primary>  (3) 
energy

$$$$
3:0
     RDKit          3D

 63 66  0  0  1  0  0  0  0  0999 V2000
   57.9210   32.3050   43.3270 C   0  0  0  0  0  0  0  0  0  0  0  0
   57.3870   33.1130   44.5010 C   0  0  0  0  0  0  0  0  0  0  0  0
   58.5740   33.5190   45.3160 C   0  0  0  0  0  0  0  0  0  0  0  0
   58.8760   34.8470   45.5400 C   0  0  0  0  0  0  0  0  0  0  0  0
   59.9900   35.1440   46.3030 C   0  0  0  0  0  0  0  0  0  0  0  0
   60.8130   34.1840   46.8490 C   0  0  0  0  0  0  0  0  0  0  0  0
   60.5070   32.8720   46.6220 C   0  0  0  0  0  0  0  0  0  0  0  0
   59.9630   29.3030   50.7220 N   0  0  0  0  0  0  0  0  0  0  0  0
   60.0230   29.4860   49.4540 C   0  0  0  0  0  0  0  0  0  0  0  0
   60.1550   29.8460   46.8280 N   0  0  0  0  0  0  0  0  0  0  0  0
   59.5410   28.7450   47.3020 C   0  0  0  0  0  0  0  0  0  0  0  0
   58.9760   27.8040   46.3420 C   0  0  0  0  0  0  0  0  0  0  0  0
   59.3870   26.4900   46.2460 C   0  0  0  0  0  0  0  0  0  0  0  0
   58.8380   25.6430   45.3380 N   0  0  0  0  0  0  0  0  0  0  0  0
   57.8820   26.0550   44.5070 C   0  0  0  0  0  0  0  0  0  0  0  0
   57.3880   25.2120   43.6580 N   0  0  0  0  0  0  0  0  0  0  0  0
   57.4630   27.3320   44.5800 N   0  0  0  0  0  0  0  0  0  0  0  0
   57.9810   28.2020   45.4660 C   0  0  0  0  0  0  0  0  0  0  0  0
   57.4490   29.7450   45.5260 S   0  0  0  0  0  0  0  0  0  0  0  0
   59.4870   28.5870   48.6200 N   0  0  0  0  0  0  0  0  0  0  0  0
   60.7020   30.7670   47.6510 C   0  0  0  0  0  0  0  0  0  0  0  0
   61.2610   31.7730   47.1180 N   0  0  0  0  0  0  0  0  0  0  0  0
   60.0370   30.3370   51.7270 C   0  0  0  0  0  0  0  0  0  0  0  0
   61.4630   30.6860   52.0980 C   0  0  0  0  0  0  0  0  0  0  0  0
   61.7450   32.1410   51.8170 C   0  0  0  0  0  0  0  0  0  0  0  0
   62.4140   32.3850   50.5730 N   0  0  0  0  0  0  0  0  0  0  0  0
   63.3890   31.3740   50.2420 C   0  0  0  0  0  0  0  0  0  0  0  0
   64.5020   32.0070   49.4330 C   0  0  0  0  0  0  0  0  0  0  0  0
   63.8900   32.7400   48.3330 N   0  0  0  0  0  0  0  0  0  0  0  0
   63.1380   33.8540   48.8560 C   0  0  0  0  0  0  0  0  0  0  0  0
   62.8640   33.7200   50.3570 C   0  0  0  0  0  0  0  0  0  0  0  0
   60.6410   30.5930   48.9830 N   0  0  0  0  0  0  0  0  0  0  0  0
   59.3950   32.5590   45.8600 C   0  0  0  0  0  0  0  0  0  0  0  0
   58.4907   31.4429   43.7041 H   0  0  0  0  0  0  0  0  0  0  0  0
   57.0798   31.9488   42.7142 H   0  0  0  0  0  0  0  0  0  0  0  0
   58.5784   32.9392   42.7142 H   0  0  0  0  0  0  0  0  0  0  0  0
   56.8537   34.0037   44.1374 H   0  0  0  0  0  0  0  0  0  0  0  0
   56.6784   32.5218   45.0996 H   0  0  0  0  0  0  0  0  0  0  0  0
   58.2473   35.6474   45.1227 H   0  0  0  0  0  0  0  0  0  0  0  0
   60.2316   36.2019   46.4834 H   0  0  0  0  0  0  0  0  0  0  0  0
   61.6904   34.4652   47.4499 H   0  0  0  0  0  0  0  0  0  0  0  0
   60.1754   26.1215   46.9188 H   0  0  0  0  0  0  0  0  0  0  0  0
   59.1590   24.6600   45.2790 H   0  0  0  0  0  0  0  0  0  0  0  0
   56.6580   25.5550   42.9980 H   0  0  0  0  0  0  0  0  0  0  0  0
   56.7080   27.6020   43.9010 H   0  0  0  0  0  0  0  0  0  0  0  0
   59.0210   27.7520   49.0260 H   0  0  0  0  0  0  0  0  0  0  0  0
   59.5422   31.2402   51.3406 H   0  0  0  0  0  0  0  0  0  0  0  0
   59.5398   29.9585   52.6323 H   0  0  0  0  0  0  0  0  0  0  0  0
   61.6163   30.4886   53.1692 H   0  0  0  0  0  0  0  0  0  0  0  0
   62.1466   30.0700   51.4954 H   0  0  0  0  0  0  0  0  0  0  0  0
   60.7867   32.6809   51.8039 H   0  0  0  0  0  0  0  0  0  0  0  0
   62.4222   32.4886   52.6111 H   0  0  0  0  0  0  0  0  0  0  0  0
   63.8033   30.9448   51.1662 H   0  0  0  0  0  0  0  0  0  0  0  0
   62.9113   30.5756   49.6551 H   0  0  0  0  0  0  0  0  0  0  0  0
   65.0800   32.6960   50.0664 H   0  0  0  0  0  0  0  0  0  0  0  0
   65.1848   31.2352   49.0482 H   0  0  0  0  0  0  0  0  0  0  0  0
   63.3030   32.0940   47.7420 H   0  0  0  0  0  0  0  0  0  0  0  0
   63.7086   34.7782   48.6822 H   0  0  0  0  0  0  0  0  0  0  0  0
   62.1676   33.8762   48.3385 H   0  0  0  0  0  0  0  0  0  0  0  0
   63.7849   33.9069   50.9288 H   0  0  0  0  0  0  0  0  0  0  0  0
   62.1111   34.4501   50.6888 H   0  0  0  0  0  0  0  0  0  0  0  0
   61.0700   31.3160   49.6010 H   0  0  0  0  0  0  0  0  0  0  0  0
   59.1582   31.4996   45.6822 H   0  0  0  0  0  0  0  0  0  0  0  0
  1  2  1  0
  2  3  1  0
  3  4  2  0
  4  5  1  0
  5  6  2  0
  6  7  1  0
  7  8  1  0
  8  9  2  0
  9 10  1  0
 10 11  2  0
 11 12  1  0
 12 13  2  0
 13 14  1  0
 14 15  1  0
 15 16  2  3
 15 17  1  0
 17 18  1  0
 18 19  2  0
 11 20  1  0
 20 21  1  0
 21 22  2  0
 22 23  1  0
 23 24  1  0
 24 25  1  0
 25 26  1  0
 26 27  1  0
 27 28  1  0
 28 29  1  0
 29 30  1  0
 30 31  1  0
 21 32  1  0
  7 33  2  0
 33  3  1  0
 32  9  1  0
 18 12  1  0
 31 26  1  0
  1 34  1  0
  1 35  1  0
  1 36  1  0
  2 37  1  0
  2 38  1  0
  4 39  1  0
  5 40  1  0
  6 41  1  0
 13 42  1  0
 14 43  1  0
 16 44  1  0
 17 45  1  0
 20 46  1  0
 23 47  1  0
 23 48  1  0
 24 49  1  0
 24 50  1  0
 25 51  1  0
 25 52  1  0
 27 53  1  0
 27 54  1  0
 28 55  1  0
 28 56  1  0
 29 57  1  0
 30 58  1  0
 30 59  1  0
 31 60  1  0
 31 61  1  0
 32 62  1  0
 33 63  1  0
M  END
>  <smiles>  (4) 
CCc1cccc(N=c2nc(-c3c[nH]c(=N)[nH]c3=S)[nH]c(=NCCCN3CCNCC3)[nH]2)c1

>  <score_type>  (4) 
oracle

>  <origin>  (4) 
adg

>  <m_score__min__energy>  (4) 
-9.6300000000000008

>  <m_primary>  (4) 
energy

$$$$
4:0
     RDKit          3D

 42 43  0  0  0  0  0  0  0  0999 V2000
   59.9830   30.1460   46.0210 C   0  0  0  0  0  0  0  0  0  0  0  0
   58.9330   30.0560   47.5050 S   0  0  0  0  0  0  0  0  0  0  0  0
   58.2750   28.3930   47.1250 C   0  0  0  0  0  0  0  0  0  0  0  0
   58.4010   28.0690   45.6270 C   0  0  0  0  0  0  0  0  0  0  0  0
   57.0680   28.1140   44.8450 C   0  0  1  0  0  0  0  0  0  0  0  0
   55.9740   27.5240   45.6200 N   0  0  0  0  0  0  0  0  0  0  0  0
   55.6350   26.1320   45.6940 C   0  0  0  0  0  0  0  0  0  0  0  0
   54.4450   25.8140   45.9540 O   0  0  0  0  0  0  0  0  0  0  0  0
   56.6210   25.0570   45.4970 C   0  0  0  0  0  0  0  0  0  0  0  0
   57.0020   24.4890   44.2950 C   0  0  0  0  0  0  0  0  0  0  0  0
   57.9180   23.5120   44.6210 C   0  0  0  0  0  0  0  0  0  0  0  0
   58.0330   23.5350   45.9950 C   0  0  0  0  0  0  0  0  0  0  0  0
   57.2440   24.4620   46.4890 O   0  0  0  0  0  0  0  0  0  0  0  0
   56.7130   29.5210   44.4430 C   0  0  0  0  0  0  0  0  0  0  0  0
   55.6340   30.0380   44.8440 O   0  0  0  0  0  0  0  0  0  0  0  0
   57.6260   30.2870   43.6440 N   0  0  0  0  0  0  0  0  0  0  0  0
   57.3480   31.6610   43.2360 C   0  0  0  0  0  0  0  0  0  0  0  0
   57.7710   32.6190   44.3160 C   0  0  0  0  0  0  0  0  0  0  0  0
   58.8230   33.5250   44.0980 C   0  0  0  0  0  0  0  0  0  0  0  0
   59.2250   34.3960   45.1150 C   0  0  0  0  0  0  0  0  0  0  0  0
   58.5840   34.3670   46.3570 C   0  0  0  0  0  0  0  0  0  0  0  0
   57.5390   33.4650   46.5830 C   0  0  0  0  0  0  0  0  0  0  0  0
   57.1340   32.5930   45.5670 C   0  0  0  0  0  0  0  0  0  0  0  0
   61.0370   30.2363   46.3225 H   0  0  0  0  0  0  0  0  0  0  0  0
   59.8500   29.2332   45.4218 H   0  0  0  0  0  0  0  0  0  0  0  0
   59.6966   31.0229   45.4218 H   0  0  0  0  0  0  0  0  0  0  0  0
   58.8385   27.6447   47.7017 H   0  0  0  0  0  0  0  0  0  0  0  0
   57.2090   28.3722   47.3954 H   0  0  0  0  0  0  0  0  0  0  0  0
   59.0890   28.7985   45.1748 H   0  0  0  0  0  0  0  0  0  0  0  0
   58.7664   27.0335   45.5614 H   0  0  0  0  0  0  0  0  0  0  0  0
   57.2112   27.5168   43.9324 H   0  0  0  0  0  0  0  0  0  0  0  0
   56.6481   24.7601   43.2894 H   0  0  0  0  0  0  0  0  0  0  0  0
   58.4505   22.8473   43.9248 H   0  0  0  0  0  0  0  0  0  0  0  0
   58.6861   22.8772   46.5873 H   0  0  0  0  0  0  0  0  0  0  0  0
   58.5340   29.8560   43.3580 H   0  0  0  0  0  0  0  0  0  0  0  0
   57.9031   31.8855   42.3133 H   0  0  0  0  0  0  0  0  0  0  0  0
   56.2677   31.7719   43.0606 H   0  0  0  0  0  0  0  0  0  0  0  0
   59.3322   33.5489   43.1232 H   0  0  0  0  0  0  0  0  0  0  0  0
   60.0469   35.1052   44.9376 H   0  0  0  0  0  0  0  0  0  0  0  0
   58.9012   35.0531   47.1561 H   0  0  0  0  0  0  0  0  0  0  0  0
   57.0353   33.4414   47.5606 H   0  0  0  0  0  0  0  0  0  0  0  0
   56.3130   31.8839   45.7489 H   0  0  0  0  0  0  0  0  0  0  0  0
  1  2  1  0
  2  3  1  0
  3  4  1  0
  4  5  1  0
  5  6  1  0
  6  7  1  0
  7  8  2  0
  7  9  1  0
  9 10  2  0
 10 11  1  0
 11 12  2  0
 12 13  1  0
  5 14  1  0
 14 15  2  0
 14 16  1  0
 16 17  1  0
 17 18  1  0
 18 19  2  0
 19 20  1  0
 20 21  2  0
 21 22  1  0
 22 23  2  0
 13  9  1  0
 23 18  1  0
  1 24  1  0
  1 25  1  0
  1 26  1  0
  3 27  1  0
  3 28  1  0
  4 29  1  0
  4 30  1  0
  5 31  1  6
 10 32  1  0
 11 33  1  0
 12 34  1  0
 16 35  1  0
 17 36  1  0
 17 37  1  0
 19 38  1  0
 20 39  1  0
 21 40  1  0
 22 41  1  0
 23 42  1  0
M  CHG  1   6  -1
M  END
>  <UniqueID>  (5) 
4

>  <SMILES>  (5) 
CSCC[C@@H]([N-]C(=O)c1ccco1)C(=O)NCc1ccccc1

>  <Energy>  (5) 
61.96295589440802

>  <Genealogy>  (5) 
CSCCC([N-]C(=O)c1ccco1)C(=O)NCc1ccccc1 (protonated)
CSCC[C@@H]([N-]C(=O)c1ccco1)C(=O)NCc1ccccc1 (chirality)
CSCC[C@@H]([N-]C(=O)c1ccco1)C(=O)NCc1ccccc1 (3D coordinates assigned)
CSCC[C@@H]([N-]C(=O)c1ccco1)C(=O)NCc1ccccc1 (optimized conformer: 61.96295589440802 kcal/mol)

>  <smiles>  (5) 
CSCCC(NC(=O)c1ccco1)C(=O)NCc1ccccc1

>  <score_type>  (5) 
oracle

>  <origin>  (5) 
adg

>  <m_score__min__energy>  (5) 
-9.5700000000000003

>  <m_primary>  (5) 
energy

$$$$
5:0
     RDKit          3D

 49 53  0  0  1  0  0  0  0  0999 V2000
   54.8340   26.3490   45.9540 F   0  0  0  0  0  0  0  0  0  0  0  0
   55.8490   25.5080   45.6370 C   0  0  0  0  0  0  0  0  0  0  0  0
   55.6180   24.4150   44.8370 C   0  0  0  0  0  0  0  0  0  0  0  0
   56.6610   23.5490   44.5110 C   0  0  0  0  0  0  0  0  0  0  0  0
   57.9380   23.8000   45.0020 C   0  0  0  0  0  0  0  0  0  0  0  0
   58.1810   24.9000   45.8110 C   0  0  0  0  0  0  0  0  0  0  0  0
   59.5420   25.1630   46.3320 C   0  0  0  0  0  0  0  0  0  0  0  0
   60.0480   26.4160   45.9180 O   0  0  0  0  0  0  0  0  0  0  0  0
   59.8350   27.5080   46.7760 C   0  0  0  0  0  0  0  0  0  0  0  0
   59.8410   27.3830   48.1440 C   0  0  0  0  0  0  0  0  0  0  0  0
   59.6330   28.4480   48.9940 C   0  0  0  0  0  0  0  0  0  0  0  0
   59.4040   29.7170   48.4320 C   0  0  0  0  0  0  0  0  0  0  0  0
   57.5530   34.0080   45.2950 N   0  0  0  0  0  0  0  0  0  0  0  0
   58.2910   33.8930   46.3450 C   0  0  0  0  0  0  0  0  0  0  0  0
   60.4740   32.3000   50.1640 N   0  0  0  0  0  0  0  0  0  0  0  0
   61.0750   33.4870   50.2850 C   0  0  0  0  0  0  0  0  0  0  0  0
   60.7690   34.4040   49.3520 N   0  0  0  0  0  0  0  0  0  0  0  0
   59.9010   34.1080   48.3660 C   0  0  0  0  0  0  0  0  0  0  0  0
   59.3830   35.1590   47.0730 S   0  0  0  0  0  0  0  0  0  0  0  0
   59.5950   31.9630   49.1860 C   0  0  0  0  0  0  0  0  0  0  0  0
   59.1340   30.7970   49.2400 N   0  0  0  0  0  0  0  0  0  0  0  0
   57.3740   32.8090   44.5080 C   0  0  0  0  0  0  0  0  0  0  0  0
   57.8270   32.7260   43.2070 C   0  0  0  0  0  0  0  0  0  0  0  0
   57.6060   31.5310   42.5360 C   0  0  0  0  0  0  0  0  0  0  0  0
   56.9560   30.4660   43.1520 C   0  0  0  0  0  0  0  0  0  0  0  0
   56.5230   30.5980   44.4490 C   0  0  0  0  0  0  0  0  0  0  0  0
   56.7480   31.7610   45.0760 N   0  0  0  0  0  0  0  0  0  0  0  0
   58.4450   32.7610   47.1980 N   0  0  0  0  0  0  0  0  0  0  0  0
   59.2530   32.9130   48.1870 C   0  0  0  0  0  0  0  0  0  0  0  0
   59.3920   29.8810   47.0410 C   0  0  0  0  0  0  0  0  0  0  0  0
   59.6110   28.7530   46.2440 C   0  0  0  0  0  0  0  0  0  0  0  0
   59.6030   28.9170   44.5010 Cl  0  0  0  0  0  0  0  0  0  0  0  0
   57.1390   25.7450   46.1230 C   0  0  0  0  0  0  0  0  0  0  0  0
   54.6057   24.2223   44.4520 H   0  0  0  0  0  0  0  0  0  0  0  0
   56.4754   22.6741   43.8705 H   0  0  0  0  0  0  0  0  0  0  0  0
   58.7633   23.1193   44.7461 H   0  0  0  0  0  0  0  0  0  0  0  0
   59.5089   25.1418   47.4313 H   0  0  0  0  0  0  0  0  0  0  0  0
   60.2088   24.3849   45.9320 H   0  0  0  0  0  0  0  0  0  0  0  0
   60.0197   26.3892   48.5803 H   0  0  0  0  0  0  0  0  0  0  0  0
   59.6458   28.3089   50.0851 H   0  0  0  0  0  0  0  0  0  0  0  0
   61.7800   33.7013   51.1017 H   0  0  0  0  0  0  0  0  0  0  0  0
   61.2100   35.3360   49.4060 H   0  0  0  0  0  0  0  0  0  0  0  0
   58.3406   33.5697   42.7230 H   0  0  0  0  0  0  0  0  0  0  0  0
   57.9514   31.4239   41.4971 H   0  0  0  0  0  0  0  0  0  0  0  0
   56.7903   29.5262   42.6049 H   0  0  0  0  0  0  0  0  0  0  0  0
   56.0058   29.7719   44.9590 H   0  0  0  0  0  0  0  0  0  0  0  0
   57.8470   31.9560   46.8620 H   0  0  0  0  0  0  0  0  0  0  0  0
   59.2155   30.8681   46.5888 H   0  0  0  0  0  0  0  0  0  0  0  0
   57.3241   26.6195   46.7641 H   0  0  0  0  0  0  0  0  0  0  0  0
  1  2  1  0
  2  3  2  0
  3  4  1  0
  4  5  2  0
  5  6  1  0
  6  7  1  0
  7  8  1  0
  8  9  1  0
  9 10  2  0
 10 11  1  0
 11 12  2  0
 12 13  1  0
 13 14  2  0
 14 15  1  0
 15 16  2  0
 16 17  1  0
 17 18  1  0
 18 19  1  0
 19 20  1  0
 20 21  2  0
 21 22  1  0
 22 23  2  0
 23 24  1  0
 24 25  2  0
 25 26  1  0
 26 27  2  0
 20 28  1  0
 28 29  1  0
 12 30  1  0
 30 31  2  0
 31 32  1  0
  6 33  2  0
 33  2  1  0
 31  9  1  0
 29 14  1  0
 29 18  2  0
 27 22  1  0
  3 34  1  0
  4 35  1  0
  5 36  1  0
  7 37  1  0
  7 38  1  0
 10 39  1  0
 11 40  1  0
 16 41  1  0
 17 42  1  0
 23 43  1  0
 24 44  1  0
 25 45  1  0
 26 46  1  0
 28 47  1  0
 30 48  1  0
 33 49  1  0
M  END
>  <smiles>  (6) 
Fc1cccc(COc2ccc(N=c3nc[nH]c4sc(=Nc5ccccn5)[nH]c34)cc2Cl)c1

>  <score_type>  (6) 
oracle

>  <origin>  (6) 
adg

>  <m_score__min__energy>  (6) 
-8.8000000000000007

>  <m_primary>  (6) 
energy

$$$$
6:0
     RDKit          3D

 37 38  0  0  0  0  0  0  0  0999 V2000
   55.2300   29.8660   44.9970 N   0  0  0  0  0  0  0  0  0  0  0  0
   55.7790   29.7000   43.6520 C   0  0  0  0  0  0  0  0  0  0  0  0
   57.3220   29.7810   43.6350 C   0  0  2  0  0  0  0  0  0  0  0  0
   57.9050   28.4530   43.8570 N   0  0  0  0  0  0  0  0  0  0  0  0
   57.3810   27.5480   44.8430 C   0  0  0  0  0  0  0  0  0  0  0  0
   56.5600   27.9720   45.7020 O   0  0  0  0  0  0  0  0  0  0  0  0
   57.7990   26.1260   44.8740 C   0  0  0  0  0  0  0  0  0  0  0  0
   57.3080   25.2060   43.9320 C   0  0  0  0  0  0  0  0  0  0  0  0
   57.7010   23.8650   43.9780 C   0  0  0  0  0  0  0  0  0  0  0  0
   58.6040   23.4200   44.9570 C   0  0  0  0  0  0  0  0  0  0  0  0
   58.9900   21.9640   45.0360 C   0  0  0  0  0  0  0  0  0  0  0  0
   58.6800   21.3110   43.8560 F   0  0  0  0  0  0  0  0  0  0  0  0
   60.3490   21.8660   45.2630 F   0  0  0  0  0  0  0  0  0  0  0  0
   58.3140   21.3340   46.0680 F   0  0  0  0  0  0  0  0  0  0  0  0
   59.0650   24.3300   45.9220 C   0  0  0  0  0  0  0  0  0  0  0  0
   58.6710   25.6700   45.8780 C   0  0  0  0  0  0  0  0  0  0  0  0
   57.8300   30.7460   44.6860 C   0  0  0  0  0  0  0  0  0  0  0  0
   57.4160   32.0900   44.6730 C   0  0  0  0  0  0  0  0  0  0  0  0
   57.8750   32.9800   45.6490 C   0  0  0  0  0  0  0  0  0  0  0  0
   58.7470   32.5370   46.6470 C   0  0  0  0  0  0  0  0  0  0  0  0
   59.1590   31.2030   46.6730 C   0  0  0  0  0  0  0  0  0  0  0  0
   58.7020   30.3080   45.7000 C   0  0  0  0  0  0  0  0  0  0  0  0
   54.7640   28.9780   45.2910 H   0  0  0  0  0  0  0  0  0  0  0  0
   56.0110   30.0570   45.6660 H   0  0  0  0  0  0  0  0  0  0  0  0
   55.4719   28.7179   43.2632 H   0  0  0  0  0  0  0  0  0  0  0  0
   55.3919   30.5181   43.0269 H   0  0  0  0  0  0  0  0  0  0  0  0
   57.6291   30.1512   42.6457 H   0  0  0  0  0  0  0  0  0  0  0  0
   58.7430   28.1660   43.3000 H   0  0  0  0  0  0  0  0  0  0  0  0
   56.6091   25.5435   43.1525 H   0  0  0  0  0  0  0  0  0  0  0  0
   57.2998   23.1531   43.2417 H   0  0  0  0  0  0  0  0  0  0  0  0
   59.7412   23.9855   46.7183 H   0  0  0  0  0  0  0  0  0  0  0  0
   59.0463   26.3739   46.6353 H   0  0  0  0  0  0  0  0  0  0  0  0
   56.7276   32.4429   43.8910 H   0  0  0  0  0  0  0  0  0  0  0  0
   57.5491   34.0305   45.6311 H   0  0  0  0  0  0  0  0  0  0  0  0
   59.1090   33.2393   47.4123 H   0  0  0  0  0  0  0  0  0  0  0  0
   59.8442   30.8553   47.4601 H   0  0  0  0  0  0  0  0  0  0  0  0
   59.0257   29.2571   45.7276 H   0  0  0  0  0  0  0  0  0  0  0  0
  1  2  1  0
  2  3  1  0
  3  4  1  0
  4  5  1  0
  5  6  2  0
  5  7  1  0
  7  8  2  0
  8  9  1  0
  9 10  2  0
 10 11  1  0
 11 12  1  0
 11 13  1  0
 11 14  1  0
 10 15  1  0
 15 16  2  0
  3 17  1  0
 17 18  2  0
 18 19  1  0
 19 20  2  0
 20 21  1  0
 21 22  2  0
 16  7  1  0
 22 17  1  0
  1 23  1  0
  1 24  1  0
  2 25  1  0
  2 26  1  0
  3 27  1  6
  4 28  1  0
  8 29  1  0
  9 30  1  0
 15 31  1  0
 16 32  1  0
 18 33  1  0
 19 34  1  0
 20 35  1  0
 21 36  1  0
 22 37  1  0
M  END
>  <UniqueID>  (7) 
5

>  <SMILES>  (7) 
NC[C@H](NC(=O)c1ccc(C(F)(F)F)cc1)c1ccccc1

>  <Energy>  (7) 
36.90044258096004

>  <Genealogy>  (7) 
NC[C@H](NC(=O)c1ccc(C(F)(F)F)cc1)c1ccccc1 (chirality)
NC[C@H](NC(=O)c1ccc(C(F)(F)F)cc1)c1ccccc1 (3D coordinates assigned)
NC[C@H](NC(=O)c1ccc(C(F)(F)F)cc1)c1ccccc1 (optimized conformer: 36.90044258096004 kcal/mol)

>  <smiles>  (7) 
NCC(NC(=O)c1ccc(C(F)(F)F)cc1)c1ccccc1

>  <score_type>  (7) 
oracle

>  <origin>  (7) 
adg

>  <m_score__min__energy>  (7) 
-6.5300000000000002

>  <m_primary>  (7) 
energy

$$$$
7:0
     RDKit          3D

 54 57  0  0  0  0  0  0  0  0999 V2000
   58.0350   22.1400   51.2840 C   0  0  0  0  0  0  0  0  0  0  0  0
   57.1410   20.9880   50.8360 C   0  0  0  0  0  0  0  0  0  0  0  0
   56.1950   21.4440   49.8700 O   0  0  0  0  0  0  0  0  0  0  0  0
   56.5530   21.7630   48.5570 C   0  0  0  0  0  0  0  0  0  0  0  0
   56.5110   23.1020   48.1440 C   0  0  0  0  0  0  0  0  0  0  0  0
   56.8620   23.4550   46.8300 C   0  0  0  0  0  0  0  0  0  0  0  0
   56.8020   24.8680   46.3770 C   0  0  0  0  0  0  0  0  0  0  0  0
   55.5680   25.4370   46.0270 C   0  0  0  0  0  0  0  0  0  0  0  0
   55.4820   26.7120   45.6660 O   0  0  0  0  0  0  0  0  0  0  0  0
   56.5370   27.5190   45.6200 C   0  0  0  0  0  0  0  0  0  0  0  0
   56.3690   28.8600   45.2520 C   0  0  0  0  0  0  0  0  0  0  0  0
   55.1020   29.3340   44.9260 O   0  0  0  0  0  0  0  0  0  0  0  0
   57.4720   29.7260   45.2230 C   0  0  0  0  0  0  0  0  0  0  0  0
   57.3160   31.0700   44.8770 O   0  0  0  0  0  0  0  0  0  0  0  0
   57.7010   32.1280   45.7480 C   0  0  0  0  0  0  0  0  0  0  0  0
   58.1590   33.3050   44.9470 C   0  0  0  0  0  0  0  0  0  0  0  0
   57.7610   33.4430   43.7580 O   0  0  0  0  0  0  0  0  0  0  0  0
   58.9730   34.3100   45.5610 N   0  0  0  0  0  0  0  0  0  0  0  0
   59.3670   34.2800   46.9660 C   0  0  0  0  0  0  0  0  0  0  0  0
   60.6520   33.5150   47.1330 C   0  0  0  0  0  0  0  0  0  0  0  0
   61.8580   34.0550   46.6520 C   0  0  0  0  0  0  0  0  0  0  0  0
   63.0560   33.3530   46.8130 C   0  0  0  0  0  0  0  0  0  0  0  0
   63.0610   32.1150   47.4600 C   0  0  0  0  0  0  0  0  0  0  0  0
   61.8680   31.5780   47.9550 C   0  0  0  0  0  0  0  0  0  0  0  0
   60.6660   32.2750   47.7930 C   0  0  0  0  0  0  0  0  0  0  0  0
   58.7420   29.2470   45.5630 C   0  0  0  0  0  0  0  0  0  0  0  0
   58.9220   27.9080   45.9140 C   0  0  0  0  0  0  0  0  0  0  0  0
   57.8210   27.0320   45.9500 C   0  0  0  0  0  0  0  0  0  0  0  0
   57.9490   25.6840   46.3310 C   0  0  0  0  0  0  0  0  0  0  0  0
   59.0760   25.2140   46.6470 O   0  0  0  0  0  0  0  0  0  0  0  0
   57.2820   22.4520   45.9400 C   0  0  0  0  0  0  0  0  0  0  0  0
   57.3380   21.1190   46.3530 C   0  0  0  0  0  0  0  0  0  0  0  0
   56.9820   20.7710   47.6580 C   0  0  0  0  0  0  0  0  0  0  0  0
   57.0750   19.4430   48.0610 O   0  0  0  0  0  0  0  0  0  0  0  0
   58.0632   22.1763   52.3830 H   0  0  0  0  0  0  0  0  0  0  0  0
   59.0528   21.9866   50.8960 H   0  0  0  0  0  0  0  0  0  0  0  0
   57.6337   23.0878   50.8960 H   0  0  0  0  0  0  0  0  0  0  0  0
   57.7630   20.1978   50.3903 H   0  0  0  0  0  0  0  0  0  0  0  0
   56.6002   20.5935   51.7089 H   0  0  0  0  0  0  0  0  0  0  0  0
   56.2008   23.8826   48.8543 H   0  0  0  0  0  0  0  0  0  0  0  0
   54.6590   24.8181   46.0520 H   0  0  0  0  0  0  0  0  0  0  0  0
   56.8411   32.4211   46.3682 H   0  0  0  0  0  0  0  0  0  0  0  0
   58.5243   31.7856   46.3922 H   0  0  0  0  0  0  0  0  0  0  0  0
   59.5089   35.3101   47.3249 H   0  0  0  0  0  0  0  0  0  0  0  0
   58.5770   33.7830   47.5481 H   0  0  0  0  0  0  0  0  0  0  0  0
   61.8587   35.0326   46.1476 H   0  0  0  0  0  0  0  0  0  0  0  0
   63.9962   33.7761   46.4296 H   0  0  0  0  0  0  0  0  0  0  0  0
   64.0041   31.5618   47.5804 H   0  0  0  0  0  0  0  0  0  0  0  0
   61.8750   30.6071   48.4720 H   0  0  0  0  0  0  0  0  0  0  0  0
   59.7292   31.8509   48.1835 H   0  0  0  0  0  0  0  0  0  0  0  0
   59.6042   29.9301   45.5536 H   0  0  0  0  0  0  0  0  0  0  0  0
   59.9270   27.5365   46.1631 H   0  0  0  0  0  0  0  0  0  0  0  0
   57.5684   22.7183   44.9119 H   0  0  0  0  0  0  0  0  0  0  0  0
   57.6637   20.3402   45.6478 H   0  0  0  0  0  0  0  0  0  0  0  0
  1  2  1  0
  2  3  1  0
  3  4  1  0
  4  5  2  0
  5  6  1  0
  6  7  1  0
  7  8  2  0
  8  9  1  0
  9 10  1  0
 10 11  2  0
 11 12  1  0
 11 13  1  0
 13 14  1  0
 14 15  1  0
 15 16  1  0
 16 17  2  0
 16 18  1  0
 18 19  1  0
 19 20  1  0
 20 21  2  0
 21 22  1  0
 22 23  2  0
 23 24  1  0
 24 25  2  0
 13 26  2  0
 26 27  1  0
 27 28  2  0
 28 29  1  0
 29 30  2  0
  6 31  2  0
 31 32  1  0
 32 33  2  0
 33 34  1  0
 33  4  1  0
 29  7  1  0
 28 10  1  0
 25 20  1  0
  1 35  1  0
  1 36  1  0
  1 37  1  0
  2 38  1  0
  2 39  1  0
  5 40  1  0
  8 41  1  0
 15 42  1  0
 15 43  1  0
 19 44  1  0
 19 45  1  0
 21 46  1  0
 22 47  1  0
 23 48  1  0
 24 49  1  0
 25 50  1  0
 26 51  1  0
 27 52  1  0
 31 53  1  0
 32 54  1  0
M  CHG  3  12  -1  18  -1  34  -1
M  END
>  <UniqueID>  (8) 
6

>  <SMILES>  (8) 
CCOc1cc(-c2coc3c([O-])c(OCC(=O)[N-]Cc4ccccc4)ccc3c2=O)ccc1[O-]

>  <Energy>  (8) 
77.00752065070694

>  <Genealogy>  (8) 
CCOc1cc(-c2coc3c([O-])c(OCC(=O)[N-]Cc4ccccc4)ccc3c2=O)ccc1[O-] (protonated)
CCOc1cc(-c2coc3c([O-])c(OCC(=O)[N-]Cc4ccccc4)ccc3c2=O)ccc1[O-] (3D coordinates assigned)
CCOc1cc(-c2coc3c([O-])c(OCC(=O)[N-]Cc4ccccc4)ccc3c2=O)ccc1[O-] (optimized conformer: 77.00752065070694 kcal/mol)

>  <smiles>  (8) 
CCOc1cc(-c2coc3c(O)c(OCC(=O)NCc4ccccc4)ccc3c2=O)ccc1O

>  <score_type>  (8) 
oracle

>  <origin>  (8) 
adg

>  <m_score__min__energy>  (8) 
-12.99

>  <m_primary>  (8) 
energy

$$$$
8:0
     RDKit          3D

 43 45  0  0  0  0  0  0  0  0999 V2000
   55.9260   20.2890   43.3740 O   0  0  0  0  0  0  0  0  0  0  0  0
   56.5510   21.3180   43.7430 C   0  0  0  0  0  0  0  0  0  0  0  0
   58.0140   21.4660   43.4460 C   0  0  0  0  0  0  0  0  0  0  0  0
   58.7220   22.2620   44.5530 C   0  0  0  0  0  0  0  0  0  0  0  0
   57.9640   23.5120   44.9310 C   0  0  0  0  0  0  0  0  0  0  0  0
   58.6440   24.6220   45.4530 C   0  0  0  0  0  0  0  0  0  0  0  0
   57.9320   25.7430   45.9070 C   0  0  0  0  0  0  0  0  0  0  0  0
   58.7840   27.1210   46.6070 S   0  0  0  0  0  0  0  0  0  0  0  0
   59.8230   26.6070   47.5630 O   0  0  0  0  0  0  0  0  0  0  0  0
   57.8210   27.9780   47.3840 O   0  0  0  0  0  0  0  0  0  0  0  0
   59.5760   28.0870   45.3900 N   0  0  0  0  0  0  0  0  0  0  0  0
   58.8360   28.1110   44.1260 C   0  0  0  0  0  0  0  0  0  0  0  0
   57.3920   28.5800   44.3300 C   0  0  0  0  0  0  0  0  0  0  0  0
   57.3690   29.9690   44.8890 C   0  0  0  0  0  0  0  0  0  0  0  0
   56.4840   30.7780   44.4960 O   0  0  0  0  0  0  0  0  0  0  0  0
   58.3500   30.3710   45.8580 N   0  0  0  0  0  0  0  0  0  0  0  0
   58.5460   31.7280   46.2910 C   0  0  0  0  0  0  0  0  0  0  0  0
   58.8030   32.0400   47.6400 C   0  0  0  0  0  0  0  0  0  0  0  0
   58.9660   33.3700   48.0390 C   0  0  0  0  0  0  0  0  0  0  0  0
   58.8540   34.4010   47.1020 C   0  0  0  0  0  0  0  0  0  0  0  0
   59.0090   35.6910   47.4940 F   0  0  0  0  0  0  0  0  0  0  0  0
   58.5760   34.1020   45.7660 C   0  0  0  0  0  0  0  0  0  0  0  0
   58.4160   32.7730   45.3620 C   0  0  0  0  0  0  0  0  0  0  0  0
   56.5310   25.7430   45.8520 C   0  0  0  0  0  0  0  0  0  0  0  0
   55.8460   24.6350   45.3440 C   0  0  0  0  0  0  0  0  0  0  0  0
   56.5550   23.5210   44.8870 C   0  0  0  0  0  0  0  0  0  0  0  0
   55.8470   22.3880   44.3760 N   0  0  0  0  0  0  0  0  0  0  0  0
   58.4693   20.4673   43.3735 H   0  0  0  0  0  0  0  0  0  0  0  0
   58.1259   22.0100   42.4965 H   0  0  0  0  0  0  0  0  0  0  0  0
   58.8174   21.6228   45.4431 H   0  0  0  0  0  0  0  0  0  0  0  0
   59.7076   22.5672   44.1716 H   0  0  0  0  0  0  0  0  0  0  0  0
   59.7426   24.6139   45.5069 H   0  0  0  0  0  0  0  0  0  0  0  0
   59.3399   28.7975   43.4297 H   0  0  0  0  0  0  0  0  0  0  0  0
   58.8130   27.0889   43.7200 H   0  0  0  0  0  0  0  0  0  0  0  0
   56.8674   28.5695   43.3632 H   0  0  0  0  0  0  0  0  0  0  0  0
   56.8929   27.9019   45.0379 H   0  0  0  0  0  0  0  0  0  0  0  0
   58.8990   29.6210   46.3360 H   0  0  0  0  0  0  0  0  0  0  0  0
   58.8759   31.2329   48.3838 H   0  0  0  0  0  0  0  0  0  0  0  0
   59.1826   33.6052   49.0915 H   0  0  0  0  0  0  0  0  0  0  0  0
   58.4827   34.9142   45.0300 H   0  0  0  0  0  0  0  0  0  0  0  0
   58.1870   32.5448   44.3106 H   0  0  0  0  0  0  0  0  0  0  0  0
   55.9686   26.6180   46.2099 H   0  0  0  0  0  0  0  0  0  0  0  0
   54.7467   24.6403   45.3040 H   0  0  0  0  0  0  0  0  0  0  0  0
  1  2  2  0
  2  3  1  0
  3  4  1  0
  4  5  1  0
  5  6  2  0
  6  7  1  0
  7  8  1  0
  8  9  2  0
  8 10  2  0
  8 11  1  0
 11 12  1  0
 12 13  1  0
 13 14  1  0
 14 15  2  0
 14 16  1  0
 16 17  1  0
 17 18  2  0
 18 19  1  0
 19 20  2  0
 20 21  1  0
 20 22  1  0
 22 23  2  0
  7 24  2  0
 24 25  1  0
 25 26  2  0
 26 27  1  0
 27  2  1  0
 26  5  1  0
 23 17  1  0
  3 28  1  0
  3 29  1  0
  4 30  1  0
  4 31  1  0
  6 32  1  0
 12 33  1  0
 12 34  1  0
 13 35  1  0
 13 36  1  0
 16 37  1  0
 18 38  1  0
 19 39  1  0
 22 40  1  0
 23 41  1  0
 24 42  1  0
 25 43  1  0
M  CHG  2  11  -1  27  -1
M  END
>  <UniqueID>  (9) 
7

>  <SMILES>  (9) 
O=C1CCc2cc(S(=O)(=O)[N-]CCC(=O)Nc3ccc(F)cc3)ccc2[N-]1

>  <Energy>  (9) 
44.915800189748644

>  <Genealogy>  (9) 
O=C1CCc2cc(S(=O)(=O)[N-]CCC(=O)Nc3ccc(F)cc3)ccc2[N-]1 (protonated)
O=C1CCc2cc(S(=O)(=O)[N-]CCC(=O)Nc3ccc(F)cc3)ccc2[N-]1 (3D coordinates assigned)
O=C1CCc2cc(S(=O)(=O)[N-]CCC(=O)Nc3ccc(F)cc3)ccc2[N-]1 (nonaromatic ring conformer: 44.915800189748644 kcal/mol)

>  <smiles>  (9) 
O=C(CCNS(=O)(=O)c1ccc2c(c1)CCC(=O)N2)Nc1ccc(F)cc1

>  <score_type>  (9) 
oracle

>  <origin>  (9) 
adg

>  <m_score__min__energy>  (9) 
-10.56

>  <m_primary>  (9) 
energy

$$$$
9:0
     RDKit          3D

 52 55  0  0  0  0  0  0  0  0999 V2000
   63.3960   34.2090   48.8920 C   0  0  0  0  0  0  0  0  0  0  0  0
   62.4080   33.1430   48.5210 C   0  0  0  0  0  0  0  0  0  0  0  0
   62.8540   31.9060   48.0320 C   0  0  0  0  0  0  0  0  0  0  0  0
   61.9340   30.9250   47.6510 C   0  0  0  0  0  0  0  0  0  0  0  0
   60.5550   31.1710   47.7500 C   0  0  0  0  0  0  0  0  0  0  0  0
   59.5750   30.1390   47.3420 C   0  0  0  0  0  0  0  0  0  0  0  0
   58.5840   30.4640   46.4060 C   0  0  0  0  0  0  0  0  0  0  0  0
   57.6520   29.5030   45.9890 C   0  0  0  0  0  0  0  0  0  0  0  0
   56.6090   29.8510   44.9950 C   0  0  0  0  0  0  0  0  0  0  0  0
   55.8380   28.9520   44.5670 O   0  0  0  0  0  0  0  0  0  0  0  0
   56.4790   31.1760   44.4610 N   0  0  0  0  0  0  0  0  0  0  0  0
   57.2750   32.3160   44.8180 C   0  0  0  0  0  0  0  0  0  0  0  0
   58.3010   32.7240   43.9570 C   0  0  0  0  0  0  0  0  0  0  0  0
   59.0840   33.8390   44.2690 C   0  0  0  0  0  0  0  0  0  0  0  0
   58.8370   34.5640   45.4400 C   0  0  0  0  0  0  0  0  0  0  0  0
   59.8200   35.9630   45.8300 Cl  0  0  0  0  0  0  0  0  0  0  0  0
   57.7990   34.1770   46.2940 C   0  0  0  0  0  0  0  0  0  0  0  0
   57.0140   33.0620   45.9820 C   0  0  0  0  0  0  0  0  0  0  0  0
   57.7150   28.2220   46.5530 C   0  0  0  0  0  0  0  0  0  0  0  0
   58.6690   27.9250   47.4720 N   0  0  0  0  0  0  0  0  0  0  0  0
   59.5950   28.8340   47.8780 C   0  0  0  0  0  0  0  0  0  0  0  0
   60.7680   28.3410   49.1470 S   0  0  0  0  0  0  0  0  0  0  0  0
   60.0390   29.4300   50.3650 C   0  0  0  0  0  0  0  0  0  0  0  0
   59.0350   29.0380   51.0170 O   0  0  0  0  0  0  0  0  0  0  0  0
   60.6290   30.7130   50.6150 N   0  0  0  0  0  0  0  0  0  0  0  0
   60.0620   31.7060   51.4870 C   0  0  0  0  0  0  0  0  0  0  0  0
   60.9070   32.4420   52.3340 C   0  0  0  0  0  0  0  0  0  0  0  0
   60.3830   33.4260   53.1760 C   0  0  0  0  0  0  0  0  0  0  0  0
   59.0120   33.6950   53.1690 C   0  0  0  0  0  0  0  0  0  0  0  0
   58.1650   32.9870   52.3130 C   0  0  0  0  0  0  0  0  0  0  0  0
   58.6860   32.0000   51.4700 C   0  0  0  0  0  0  0  0  0  0  0  0
   60.1100   32.4200   48.2090 C   0  0  0  0  0  0  0  0  0  0  0  0
   61.0310   33.4000   48.5900 C   0  0  0  0  0  0  0  0  0  0  0  0
   63.4631   34.2814   49.9876 H   0  0  0  0  0  0  0  0  0  0  0  0
   64.3834   33.9531   48.4802 H   0  0  0  0  0  0  0  0  0  0  0  0
   63.0660   35.1742   48.4802 H   0  0  0  0  0  0  0  0  0  0  0  0
   63.9326   31.7072   47.9480 H   0  0  0  0  0  0  0  0  0  0  0  0
   62.2917   29.9563   47.2720 H   0  0  0  0  0  0  0  0  0  0  0  0
   58.5368   31.4830   45.9944 H   0  0  0  0  0  0  0  0  0  0  0  0
   58.4919   32.1638   43.0298 H   0  0  0  0  0  0  0  0  0  0  0  0
   59.8954   34.1469   43.5931 H   0  0  0  0  0  0  0  0  0  0  0  0
   57.5998   34.7499   47.2117 H   0  0  0  0  0  0  0  0  0  0  0  0
   56.1901   32.7676   46.6487 H   0  0  0  0  0  0  0  0  0  0  0  0
   56.9884   27.4537   46.2499 H   0  0  0  0  0  0  0  0  0  0  0  0
   61.5830   30.8870   50.2250 H   0  0  0  0  0  0  0  0  0  0  0  0
   61.9887   32.2422   52.3343 H   0  0  0  0  0  0  0  0  0  0  0  0
   61.0503   33.9893   53.8449 H   0  0  0  0  0  0  0  0  0  0  0  0
   58.5994   34.4647   53.8378 H   0  0  0  0  0  0  0  0  0  0  0  0
   57.0871   33.2060   52.3019 H   0  0  0  0  0  0  0  0  0  0  0  0
   58.0172   31.4512   50.7907 H   0  0  0  0  0  0  0  0  0  0  0  0
   59.0317   32.6289   48.2693 H   0  0  0  0  0  0  0  0  0  0  0  0
   60.6740   34.3777   48.9457 H   0  0  0  0  0  0  0  0  0  0  0  0
  1  2  1  0
  2  3  2  0
  3  4  1  0
  4  5  2  0
  5  6  1  0
  6  7  2  0
  7  8  1  0
  8  9  1  0
  9 10  2  0
  9 11  1  0
 11 12  1  0
 12 13  2  0
 13 14  1  0
 14 15  2  0
 15 16  1  0
 15 17  1  0
 17 18  2  0
  8 19  2  0
 19 20  1  0
 20 21  2  0
 21 22  1  0
 22 23  1  0
 23 24  2  0
 23 25  1  0
 25 26  1  0
 26 27  2  0
 27 28  1  0
 28 29  2  0
 29 30  1  0
 30 31  2  0
  5 32  1  0
 32 33  2  0
 33  2  1  0
 21  6  1  0
 31 26  1  0
 18 12  1  0
  1 34  1  0
  1 35  1  0
  1 36  1  0
  3 37  1  0
  4 38  1  0
  7 39  1  0
 13 40  1  0
 14 41  1  0
 17 42  1  0
 18 43  1  0
 19 44  1  0
 25 45  1  0
 27 46  1  0
 28 47  1  0
 29 48  1  0
 30 49  1  0
 31 50  1  0
 32 51  1  0
 33 52  1  0
M  CHG  1  11  -1
M  END
>  <UniqueID>  (10) 
8

>  <SMILES>  (10) 
Cc1ccc(-c2cc(C(=O)[N-]c3ccc(Cl)cc3)cnc2SC(=O)Nc2ccccc2)cc1

>  <Energy>  (10) 
69.25747799519942

>  <Genealogy>  (10) 
Cc1ccc(-c2cc(C(=O)[N-]c3ccc(Cl)cc3)cnc2SC(=O)Nc2ccccc2)cc1 (protonated)
Cc1ccc(-c2cc(C(=O)[N-]c3ccc(Cl)cc3)cnc2SC(=O)Nc2ccccc2)cc1 (3D coordinates assigned)
Cc1ccc(-c2cc(C(=O)[N-]c3ccc(Cl)cc3)cnc2SC(=O)Nc2ccccc2)cc1 (optimized conformer: 69.25747799519942 kcal/mol)

>  <smiles>  (10) 
Cc1ccc(-c2cc(C(=O)Nc3ccc(Cl)cc3)cnc2SC(=O)Nc2ccccc2)cc1

>  <score_type>  (10) 
oracle

>  <origin>  (10) 
adg

>  <m_score__min__energy>  (10) 
-10.140000000000001

>  <m_primary>  (10) 
energy

$$$$
10:0
     RDKit          3D

 53 55  0  0  0  0  0  0  0  0999 V2000
   65.5070   34.3570   51.6300 C   0  0  0  0  0  0  0  0  0  0  0  0
   65.8190   32.9760   51.0130 C   0  0  0  0  0  0  0  0  0  0  0  0
   67.0840   33.0830   50.1330 C   0  0  0  0  0  0  0  0  0  0  0  0
   66.1350   32.0030   52.1730 C   0  0  0  0  0  0  0  0  0  0  0  0
   64.6260   32.5200   50.1470 C   0  0  0  0  0  0  0  0  0  0  0  0
   63.7490   31.5280   50.6340 C   0  0  0  0  0  0  0  0  0  0  0  0
   62.6590   31.0910   49.8790 C   0  0  0  0  0  0  0  0  0  0  0  0
   62.4130   31.6200   48.6050 C   0  0  0  0  0  0  0  0  0  0  0  0
   61.2490   31.1430   47.8210 C   0  0  0  0  0  0  0  0  0  0  0  0
   60.0900   31.4940   48.1780 O   0  0  0  0  0  0  0  0  0  0  0  0
   61.4200   30.3000   46.6660 N   0  0  0  0  0  0  0  0  0  0  0  0
   60.3310   29.7210   45.9280 C   0  0  0  0  0  0  0  0  0  0  0  0
   60.3370   28.3450   45.6610 C   0  0  0  0  0  0  0  0  0  0  0  0
   59.2780   27.7530   44.9660 C   0  0  0  0  0  0  0  0  0  0  0  0
   58.1950   28.5280   44.5460 C   0  0  0  0  0  0  0  0  0  0  0  0
   58.1640   29.9020   44.8240 C   0  0  0  0  0  0  0  0  0  0  0  0
   56.7940   30.8900   44.3290 S   0  0  0  0  0  0  0  0  0  0  0  0
   56.9850   31.3070   42.8980 O   0  0  0  0  0  0  0  0  0  0  0  0
   55.5200   30.1020   44.4540 O   0  0  0  0  0  0  0  0  0  0  0  0
   56.7180   32.2880   45.3520 N   0  0  0  0  0  0  0  0  0  0  0  0
   57.7030   33.1120   45.5390 C   0  0  0  0  0  0  0  0  0  0  0  0
   58.1600   34.0640   44.5060 C   0  0  0  0  0  0  0  0  0  0  0  0
   59.2930   34.8330   45.2020 C   0  0  0  0  0  0  0  0  0  0  0  0
   59.4850   34.2070   46.5970 C   0  0  0  0  0  0  0  0  0  0  0  0
   58.4570   33.1960   46.7340 N   0  0  0  0  0  0  0  0  0  0  0  0
   59.2260   30.4920   45.5240 C   0  0  0  0  0  0  0  0  0  0  0  0
   63.2690   32.6170   48.1120 C   0  0  0  0  0  0  0  0  0  0  0  0
   64.3600   33.0590   48.8660 C   0  0  0  0  0  0  0  0  0  0  0  0
   65.5242   34.2807   52.7272 H   0  0  0  0  0  0  0  0  0  0  0  0
   66.2633   35.0849   51.3011 H   0  0  0  0  0  0  0  0  0  0  0  0
   64.5112   34.6890   51.3011 H   0  0  0  0  0  0  0  0  0  0  0  0
   67.9730   33.1582   50.7765 H   0  0  0  0  0  0  0  0  0  0  0  0
   67.1656   32.1886   49.4979 H   0  0  0  0  0  0  0  0  0  0  0  0
   67.0142   33.9784   49.4979 H   0  0  0  0  0  0  0  0  0  0  0  0
   65.9697   32.5121   53.1340 H   0  0  0  0  0  0  0  0  0  0  0  0
   65.4758   31.1250   52.1050 H   0  0  0  0  0  0  0  0  0  0  0  0
   67.1843   31.6799   52.1050 H   0  0  0  0  0  0  0  0  0  0  0  0
   63.9274   31.0906   51.6274 H   0  0  0  0  0  0  0  0  0  0  0  0
   61.9861   30.3232   50.2886 H   0  0  0  0  0  0  0  0  0  0  0  0
   62.3820   30.1290   46.2990 H   0  0  0  0  0  0  0  0  0  0  0  0
   61.1809   27.7265   46.0007 H   0  0  0  0  0  0  0  0  0  0  0  0
   59.2980   26.6747   44.7497 H   0  0  0  0  0  0  0  0  0  0  0  0
   57.3651   28.0600   43.9963 H   0  0  0  0  0  0  0  0  0  0  0  0
   58.5334   33.5318   43.6187 H   0  0  0  0  0  0  0  0  0  0  0  0
   57.3558   34.7214   44.1439 H   0  0  0  0  0  0  0  0  0  0  0  0
   60.2215   34.7440   44.6189 H   0  0  0  0  0  0  0  0  0  0  0  0
   59.0432   35.9009   45.2863 H   0  0  0  0  0  0  0  0  0  0  0  0
   60.4822   33.7492   46.6751 H   0  0  0  0  0  0  0  0  0  0  0  0
   59.4077   34.9657   47.3897 H   0  0  0  0  0  0  0  0  0  0  0  0
   58.3350   32.6040   47.5830 H   0  0  0  0  0  0  0  0  0  0  0  0
   59.1948   31.5661   45.7591 H   0  0  0  0  0  0  0  0  0  0  0  0
   63.0793   33.0555   47.1212 H   0  0  0  0  0  0  0  0  0  0  0  0
   65.0214   33.8372   48.4575 H   0  0  0  0  0  0  0  0  0  0  0  0
  1  2  1  0
  2  3  1  0
  2  4  1  0
  2  5  1  0
  5  6  2  0
  6  7  1  0
  7  8  2  0
  8  9  1  0
  9 10  2  0
  9 11  1  0
 11 12  1  0
 12 13  2  0
 13 14  1  0
 14 15  2  0
 15 16  1  0
 16 17  1  0
 17 18  2  0
 17 19  2  0
 17 20  1  0
 20 21  2  3
 21 22  1  0
 22 23  1  0
 23 24  1  0
 24 25  1  0
 16 26  2  0
  8 27  1  0
 27 28  2  0
 28  5  1  0
 26 12  1  0
 25 21  1  0
  1 29  1  0
  1 30  1  0
  1 31  1  0
  3 32  1  0
  3 33  1  0
  3 34  1  0
  4 35  1  0
  4 36  1  0
  4 37  1  0
  6 38  1  0
  7 39  1  0
 11 40  1  0
 13 41  1  0
 14 42  1  0
 15 43  1  0
 22 44  1  0
 22 45  1  0
 23 46  1  0
 23 47  1  0
 24 48  1  0
 24 49  1  0
 25 50  1  0
 26 51  1  0
 27 52  1  0
 28 53  1  0
M  END
>  <UniqueID>  (11) 
9

>  <SMILES>  (11) 
CC(C)(C)c1ccc(C(=O)Nc2cccc(S(=O)(=O)N=C3CCCN3)c2)cc1

>  <Energy>  (11) 
71.24012522566018

>  <Genealogy>  (11) 
CC(C)(C)c1ccc(C(=O)Nc2cccc(S(=O)(=O)N=C3CCCN3)c2)cc1 (3D coordinates assigned)
CC(C)(C)c1ccc(C(=O)Nc2cccc(S(=O)(=O)N=C3CCCN3)c2)cc1 (nonaromatic ring conformer: 71.24012522566018 kcal/mol)

>  <smiles>  (11) 
CC(C)(C)c1ccc(C(=O)Nc2cccc(S(=O)(=O)N=C3CCCN3)c2)cc1

>  <score_type>  (11) 
oracle

>  <origin>  (11) 
adg

>  <m_score__min__energy>  (11) 
-9.4700000000000006

>  <m_primary>  (11) 
energy

$$$$
11:0
     RDKit          3D

 41 43  0  0  0  0  0  0  0  0999 V2000
   60.8410   26.3630   46.3990 C   0  0  0  0  0  0  0  0  0  0  0  0
   59.7060   27.2390   45.9620 C   0  0  0  0  0  0  0  0  0  0  0  0
   59.9500   28.3610   45.1570 C   0  0  0  0  0  0  0  0  0  0  0  0
   58.9000   29.2020   44.7810 C   0  0  0  0  0  0  0  0  0  0  0  0
   57.5880   28.9460   45.2170 C   0  0  0  0  0  0  0  0  0  0  0  0
   56.4910   29.8830   44.8670 C   0  0  0  0  0  0  0  0  0  0  0  0
   55.2950   29.5080   44.9880 O   0  0  0  0  0  0  0  0  0  0  0  0
   56.7460   31.1860   44.3270 N   0  0  0  0  0  0  0  0  0  0  0  0
   57.4420   32.2520   44.9870 C   0  0  0  0  0  0  0  0  0  0  0  0
   57.7330   33.4130   44.2680 C   0  0  0  0  0  0  0  0  0  0  0  0
   58.3910   34.4770   44.8850 C   0  0  0  0  0  0  0  0  0  0  0  0
   58.7420   34.4040   46.2380 C   0  0  0  0  0  0  0  0  0  0  0  0
   59.3940   35.4790   46.8420 O   0  0  0  0  0  0  0  0  0  0  0  0
   58.4300   33.2530   46.9900 C   0  0  0  0  0  0  0  0  0  0  0  0
   58.7580   33.2070   48.3940 N   0  0  0  0  0  0  0  0  0  0  0  0
   58.3260   32.1520   49.3110 C   0  0  0  0  0  0  0  0  0  0  0  0
   59.1720   30.9280   49.1520 C   0  0  0  0  0  0  0  0  0  0  0  0
   60.2540   30.8040   48.2900 C   0  0  0  0  0  0  0  0  0  0  0  0
   60.7640   29.5020   48.2290 C   0  0  0  0  0  0  0  0  0  0  0  0
   60.0810   28.5960   49.0310 C   0  0  0  0  0  0  0  0  0  0  0  0
   58.8370   29.4150   49.8080 S   0  0  0  0  0  0  0  0  0  0  0  0
   57.7830   32.1760   46.3490 C   0  0  0  0  0  0  0  0  0  0  0  0
   57.3520   27.8310   46.0420 C   0  0  0  0  0  0  0  0  0  0  0  0
   58.4020   26.9850   46.4090 C   0  0  0  0  0  0  0  0  0  0  0  0
   60.8793   26.3335   47.4979 H   0  0  0  0  0  0  0  0  0  0  0  0
   60.6896   25.3453   46.0099 H   0  0  0  0  0  0  0  0  0  0  0  0
   61.7871   26.7673   46.0099 H   0  0  0  0  0  0  0  0  0  0  0  0
   60.9739   28.5800   44.8198 H   0  0  0  0  0  0  0  0  0  0  0  0
   59.1012   30.0718   44.1384 H   0  0  0  0  0  0  0  0  0  0  0  0
   57.4420   33.4890   43.2099 H   0  0  0  0  0  0  0  0  0  0  0  0
   58.6355   35.3789   44.3047 H   0  0  0  0  0  0  0  0  0  0  0  0
   58.9100   36.1100   47.4710 H   0  0  0  0  0  0  0  0  0  0  0  0
   59.3060   33.9930   48.8130 H   0  0  0  0  0  0  0  0  0  0  0  0
   58.4107   32.5167   50.3453 H   0  0  0  0  0  0  0  0  0  0  0  0
   57.2826   31.8909   49.0804 H   0  0  0  0  0  0  0  0  0  0  0  0
   60.6683   31.6442   47.7135 H   0  0  0  0  0  0  0  0  0  0  0  0
   61.6252   29.2221   47.6044 H   0  0  0  0  0  0  0  0  0  0  0  0
   60.3146   27.5265   49.1386 H   0  0  0  0  0  0  0  0  0  0  0  0
   57.5427   31.2673   46.9204 H   0  0  0  0  0  0  0  0  0  0  0  0
   56.3331   27.6236   46.4009 H   0  0  0  0  0  0  0  0  0  0  0  0
   58.2041   26.1149   47.0522 H   0  0  0  0  0  0  0  0  0  0  0  0
  1  2  1  0
  2  3  2  0
  3  4  1  0
  4  5  2  0
  5  6  1  0
  6  7  2  0
  6  8  1  0
  8  9  1  0
  9 10  2  0
 10 11  1  0
 11 12  2  0
 12 13  1  0
 12 14  1  0
 14 15  1  0
 15 16  1  0
 16 17  1  0
 17 18  2  0
 18 19  1  0
 19 20  2  0
 20 21  1  0
 14 22  2  0
  5 23  1  0
 23 24  2  0
 24  2  1  0
 22  9  1  0
 21 17  1  0
  1 25  1  0
  1 26  1  0
  1 27  1  0
  3 28  1  0
  4 29  1  0
 10 30  1  0
 11 31  1  0
 13 32  1  0
 15 33  1  0
 16 34  1  0
 16 35  1  0
 18 36  1  0
 19 37  1  0
 20 38  1  0
 22 39  1  0
 23 40  1  0
 24 41  1  0
M  CHG  1   8  -1
M  END
>  <UniqueID>  (12) 
10

>  <SMILES>  (12) 
Cc1ccc(C(=O)[N-]c2ccc(O)c(NCc3cccs3)c2)cc1

>  <Energy>  (12) 
70.23885373891264

>  <Genealogy>  (12) 
Cc1ccc(C(=O)[N-]c2ccc(O)c(NCc3cccs3)c2)cc1 (protonated)
Cc1ccc(C(=O)[N-]c2ccc(O)c(NCc3cccs3)c2)cc1 (3D coordinates assigned)
Cc1ccc(C(=O)[N-]c2ccc(O)c(NCc3cccs3)c2)cc1 (optimized conformer: 70.23885373891264 kcal/mol)

>  <smiles>  (12) 
Cc1ccc(C(=O)Nc2ccc(O)c(NCc3cccs3)c2)cc1

>  <score_type>  (12) 
oracle

>  <origin>  (12) 
adg

>  <m_score__min__energy>  (12) 
-9.5600000000000005

>  <m_primary>  (12) 
energy

$$$$
12:0
     RDKit          3D

 48 51  0  0  0  0  0  0  0  0999 V2000
   59.6910   28.5860   46.9090 C   0  0  0  0  0  0  0  0  0  0  0  0
   59.1180   27.4010   46.2510 N   0  0  0  0  0  0  0  0  0  0  0  0
   58.1990   27.5470   45.2400 C   0  0  0  0  0  0  0  0  0  0  0  0
   57.8000   28.8510   44.7940 N   0  0  0  0  0  0  0  0  0  0  0  0
   56.8090   28.9710   43.7230 C   0  0  0  0  0  0  0  0  0  0  0  0
   56.6210   30.4360   43.3220 C   0  0  0  0  0  0  0  0  0  0  0  0
   56.4330   31.2680   44.5180 N   0  0  0  0  0  0  0  0  0  0  0  0
   57.5490   31.2000   45.4980 C   0  0  2  0  0  0  0  0  0  0  0  0
   58.3020   32.5150   45.6010 C   0  0  0  0  0  0  0  0  0  0  0  0
   58.5040   33.3060   44.4540 C   0  0  0  0  0  0  0  0  0  0  0  0
   59.1770   34.5270   44.5460 C   0  0  0  0  0  0  0  0  0  0  0  0
   59.6510   34.9760   45.7800 C   0  0  0  0  0  0  0  0  0  0  0  0
   59.4490   34.2050   46.9290 C   0  0  0  0  0  0  0  0  0  0  0  0
   59.9060   34.6430   48.1270 F   0  0  0  0  0  0  0  0  0  0  0  0
   58.7740   32.9820   46.8420 C   0  0  0  0  0  0  0  0  0  0  0  0
   58.5330   30.0330   45.2470 C   0  0  0  0  0  0  0  0  0  0  0  0
   57.6660   26.4500   44.6320 N   0  0  0  0  0  0  0  0  0  0  0  0
   58.0350   25.1890   44.9890 C   0  0  0  0  0  0  0  0  0  0  0  0
   57.4370   24.0120   44.3110 C   0  0  0  0  0  0  0  0  0  0  0  0
   56.2230   24.1350   43.6150 C   0  0  0  0  0  0  0  0  0  0  0  0
   55.6680   23.0160   42.9890 C   0  0  0  0  0  0  0  0  0  0  0  0
   56.3000   21.8150   43.0530 N   0  0  0  0  0  0  0  0  0  0  0  0
   57.4770   21.6640   43.7140 C   0  0  0  0  0  0  0  0  0  0  0  0
   58.0700   22.7550   44.3540 C   0  0  0  0  0  0  0  0  0  0  0  0
   59.2660   22.5920   44.9750 F   0  0  0  0  0  0  0  0  0  0  0  0
   58.9960   25.0190   45.9860 C   0  0  0  0  0  0  0  0  0  0  0  0
   59.5370   26.1440   46.6060 C   0  0  0  0  0  0  0  0  0  0  0  0
   60.4150   25.9830   47.4980 O   0  0  0  0  0  0  0  0  0  0  0  0
   59.6319   28.4638   48.0006 H   0  0  0  0  0  0  0  0  0  0  0  0
   60.7433   28.6990   46.6091 H   0  0  0  0  0  0  0  0  0  0  0  0
   59.1261   29.4810   46.6091 H   0  0  0  0  0  0  0  0  0  0  0  0
   57.1512   28.3983   42.8485 H   0  0  0  0  0  0  0  0  0  0  0  0
   55.8478   28.5771   44.0847 H   0  0  0  0  0  0  0  0  0  0  0  0
   57.5114   30.7806   42.7757 H   0  0  0  0  0  0  0  0  0  0  0  0
   55.7313   30.5219   42.6809 H   0  0  0  0  0  0  0  0  0  0  0  0
   56.2410   32.2520   44.2180 H   0  0  0  0  0  0  0  0  0  0  0  0
   57.0608   30.9988   46.4630 H   0  0  0  0  0  0  0  0  0  0  0  0
   58.1296   32.9605   43.4791 H   0  0  0  0  0  0  0  0  0  0  0  0
   59.3338   35.1362   43.6436 H   0  0  0  0  0  0  0  0  0  0  0  0
   60.1833   35.9362   45.8484 H   0  0  0  0  0  0  0  0  0  0  0  0
   58.6113   32.3819   47.7494 H   0  0  0  0  0  0  0  0  0  0  0  0
   59.2601   30.3286   44.4763 H   0  0  0  0  0  0  0  0  0  0  0  0
   59.0589   29.7955   46.1835 H   0  0  0  0  0  0  0  0  0  0  0  0
   56.9860   26.5910   43.8500 H   0  0  0  0  0  0  0  0  0  0  0  0
   55.7118   25.1076   43.5631 H   0  0  0  0  0  0  0  0  0  0  0  0
   54.7174   23.1076   42.4432 H   0  0  0  0  0  0  0  0  0  0  0  0
   57.9652   20.6787   43.7455 H   0  0  0  0  0  0  0  0  0  0  0  0
   59.3225   24.0102   46.2790 H   0  0  0  0  0  0  0  0  0  0  0  0
  1  2  1  0
  2  3  1  0
  3  4  1  0
  4  5  1  0
  5  6  1  0
  6  7  1  0
  7  8  1  0
  8  9  1  0
  9 10  2  0
 10 11  1  0
 11 12  2  0
 12 13  1  0
 13 14  1  0
 13 15  2  0
  8 16  1  0
  3 17  2  0
 17 18  1  0
 18 19  1  0
 19 20  2  0
 20 21  1  0
 21 22  2  0
 22 23  1  0
 23 24  2  0
 24 25  1  0
 18 26  2  0
 26 27  1  0
 27 28  2  0
 27  2  1  0
 16  4  1  0
 24 19  1  0
 15  9  1  0
  1 29  1  0
  1 30  1  0
  1 31  1  0
  5 32  1  0
  5 33  1  0
  6 34  1  0
  6 35  1  0
  7 36  1  0
  8 37  1  1
 10 38  1  0
 11 39  1  0
 12 40  1  0
 15 41  1  0
 16 42  1  0
 16 43  1  0
 17 44  1  0
 20 45  1  0
 21 46  1  0
 23 47  1  0
 26 48  1  0
M  CHG  1  17   1
M  END
>  <UniqueID>  (13) 
11

>  <SMILES>  (13) 
Cn1c(N2CCN[C@H](c3cccc(F)c3)C2)[nH+]c(-c2ccncc2F)cc1=O

>  <Energy>  (13) 
72.64385921240314

>  <Genealogy>  (13) 
Cn1c(N2CCNC(c3cccc(F)c3)C2)[nH+]c(-c2ccncc2F)cc1=O (protonated)
Cn1c(N2CCN[C@H](c3cccc(F)c3)C2)[nH+]c(-c2ccncc2F)cc1=O (chirality)
Cn1c(N2CCN[C@H](c3cccc(F)c3)C2)[nH+]c(-c2ccncc2F)cc1=O (3D coordinates assigned)
Cn1c(N2CCN[C@H](c3cccc(F)c3)C2)[nH+]c(-c2ccncc2F)cc1=O (nonaromatic ring conformer: 72.64385921240314 kcal/mol)

>  <smiles>  (13) 
Cn1c(N2CCNC(c3cccc(F)c3)C2)nc(-c2ccncc2F)cc1=O

>  <score_type>  (13) 
oracle

>  <origin>  (13) 
adg

>  <m_score__min__energy>  (13) 
-7.8899999999999997

>  <m_primary>  (13) 
energy

$$$$
13:0
     RDKit          3D

 46 48  0  0  0  0  0  0  0  0999 V2000
   58.1060   26.4860   44.4990 C   0  0  0  0  0  0  0  0  0  0  0  0
   58.0550   26.6240   46.0130 C   0  0  0  0  0  0  0  0  0  0  0  0
   57.4470   27.8650   46.3570 O   0  0  0  0  0  0  0  0  0  0  0  0
   57.1560   28.8570   45.4140 C   0  0  0  0  0  0  0  0  0  0  0  0
   55.9110   28.9400   44.8660 N   0  0  0  0  0  0  0  0  0  0  0  0
   55.5850   29.8930   43.9550 C   0  0  0  0  0  0  0  0  0  0  0  0
   56.5400   30.8260   43.5490 C   0  0  0  0  0  0  0  0  0  0  0  0
   57.8240   30.7660   44.0880 C   0  0  0  0  0  0  0  0  0  0  0  0
   58.1480   29.7840   45.0370 C   0  0  0  0  0  0  0  0  0  0  0  0
   59.5180   29.7130   45.5940 C   0  0  0  0  0  0  0  0  0  0  0  0
   60.4650   29.3390   44.8480 O   0  0  0  0  0  0  0  0  0  0  0  0
   59.7870   30.0660   46.9630 N   0  0  0  0  0  0  0  0  0  0  0  0
   58.8820   29.5900   48.0170 C   0  0  0  0  0  0  0  0  0  0  0  0
   59.4060   29.9710   49.4060 C   0  0  0  0  0  0  0  0  0  0  0  0
   59.9230   31.3570   49.4350 N   0  0  0  0  0  0  0  0  0  0  0  0
   58.8700   32.3840   49.2540 C   0  0  0  0  0  0  0  0  0  0  0  0
   59.1330   33.2390   48.0540 C   0  0  0  0  0  0  0  0  0  0  0  0
   58.5840   33.0130   46.8410 N   0  0  0  0  0  0  0  0  0  0  0  0
   59.0060   33.9200   45.9180 C   0  0  0  0  0  0  0  0  0  0  0  0
   58.5720   33.8520   44.4910 C   0  0  0  0  0  0  0  0  0  0  0  0
   59.9150   34.8640   46.3880 C   0  0  0  0  0  0  0  0  0  0  0  0
   60.1780   34.5560   48.0210 S   0  0  0  0  0  0  0  0  0  0  0  0
   61.0560   31.5630   48.4960 C   0  0  0  0  0  0  0  0  0  0  0  0
   61.1230   30.5470   47.3340 C   0  0  0  0  0  0  0  0  0  0  0  0
   58.4761   25.4845   44.2344 H   0  0  0  0  0  0  0  0  0  0  0  0
   57.0969   26.6255   44.0839 H   0  0  0  0  0  0  0  0  0  0  0  0
   58.7818   27.2482   44.0839 H   0  0  0  0  0  0  0  0  0  0  0  0
   57.4659   25.7973   46.4368 H   0  0  0  0  0  0  0  0  0  0  0  0
   59.0770   26.5919   46.4185 H   0  0  0  0  0  0  0  0  0  0  0  0
   54.5681   29.9294   43.5371 H   0  0  0  0  0  0  0  0  0  0  0  0
   56.2823   31.6004   42.8116 H   0  0  0  0  0  0  0  0  0  0  0  0
   58.5866   31.4914   43.7683 H   0  0  0  0  0  0  0  0  0  0  0  0
   57.8901   30.0423   47.8705 H   0  0  0  0  0  0  0  0  0  0  0  0
   58.8191   28.4935   47.9554 H   0  0  0  0  0  0  0  0  0  0  0  0
   58.5857   29.8813   50.1333 H   0  0  0  0  0  0  0  0  0  0  0  0
   60.2331   29.2913   49.6586 H   0  0  0  0  0  0  0  0  0  0  0  0
   57.8995   31.8816   49.1283 H   0  0  0  0  0  0  0  0  0  0  0  0
   58.8655   33.0318   50.1430 H   0  0  0  0  0  0  0  0  0  0  0  0
   57.4862   33.6819   44.4457 H   0  0  0  0  0  0  0  0  0  0  0  0
   58.8160   34.7993   43.9880 H   0  0  0  0  0  0  0  0  0  0  0  0
   59.0941   33.0247   43.9880 H   0  0  0  0  0  0  0  0  0  0  0  0
   60.3785   35.6678   45.7971 H   0  0  0  0  0  0  0  0  0  0  0  0
   60.9653   32.5711   48.0652 H   0  0  0  0  0  0  0  0  0  0  0  0
   61.9758   31.4251   49.0833 H   0  0  0  0  0  0  0  0  0  0  0  0
   61.5835   31.0323   46.4608 H   0  0  0  0  0  0  0  0  0  0  0  0
   61.7214   29.6847   47.6633 H   0  0  0  0  0  0  0  0  0  0  0  0
  1  2  1  0
  2  3  1  0
  3  4  1  0
  4  5  2  0
  5  6  1  0
  6  7  2  0
  7  8  1  0
  8  9  2  0
  9 10  1  0
 10 11  2  0
 10 12  1  0
 12 13  1  0
 13 14  1  0
 14 15  1  0
 15 16  1  0
 16 17  1  0
 17 18  2  0
 18 19  1  0
 19 20  1  0
 19 21  2  0
 21 22  1  0
 15 23  1  0
 23 24  1  0
  9  4  1  0
 24 12  1  0
 22 17  1  0
  1 25  1  0
  1 26  1  0
  1 27  1  0
  2 28  1  0
  2 29  1  0
  6 30  1  0
  7 31  1  0
  8 32  1  0
 13 33  1  0
 13 34  1  0
 14 35  1  0
 14 36  1  0
 16 37  1  0
 16 38  1  0
 20 39  1  0
 20 40  1  0
 20 41  1  0
 21 42  1  0
 23 43  1  0
 23 44  1  0
 24 45  1  0
 24 46  1  0
M  END
>  <UniqueID>  (14) 
12

>  <SMILES>  (14) 
CCOc1ncccc1C(=O)N1CCN(Cc2nc(C)cs2)CC1

>  <Energy>  (14) 
83.76081088694092

>  <Genealogy>  (14) 
CCOc1ncccc1C(=O)N1CCN(Cc2nc(C)cs2)CC1 (3D coordinates assigned)
CCOc1ncccc1C(=O)N1CCN(Cc2nc(C)cs2)CC1 (nonaromatic ring conformer: 83.76081088694092 kcal/mol)

>  <smiles>  (14) 
CCOc1ncccc1C(=O)N1CCN(Cc2nc(C)cs2)CC1

>  <score_type>  (14) 
oracle

>  <origin>  (14) 
adg

>  <m_score__min__energy>  (14) 
-6.6600000000000001

>  <m_primary>  (14) 
energy

$$$$
14:0
     RDKit          3D

 31 32  0  0  0  0  0  0  0  0999 V2000
   53.9590   26.7330   46.3690 H   0  0  0  0  0  0  0  0  0  0  0  0
   54.7360   26.3100   45.8160 N   0  0  0  0  0  0  0  0  0  0  0  0
   56.0200   26.0930   46.3990 C   0  0  0  0  0  0  0  0  0  0  0  0
   56.2270   25.0340   47.0510 O   0  0  0  0  0  0  0  0  0  0  0  0
   57.0990   27.0970   46.2420 C   0  0  0  0  0  0  0  0  0  0  0  0
   58.2630   27.0260   47.0290 C   0  0  0  0  0  0  0  0  0  0  0  0
   58.3743   26.2182   47.7672 H   0  0  0  0  0  0  0  0  0  0  0  0
   59.2790   27.9740   46.8800 C   0  0  0  0  0  0  0  0  0  0  0  0
   60.1809   27.9107   47.5065 H   0  0  0  0  0  0  0  0  0  0  0  0
   59.1570   29.0060   45.9370 C   0  0  0  0  0  0  0  0  0  0  0  0
   60.1920   30.0020   45.8070 N   0  0  0  0  0  0  0  0  0  0  0  0
   61.1100   29.6220   46.1350 H   0  0  0  0  0  0  0  0  0  0  0  0
   60.3080   30.2660   44.8000 H   0  0  0  0  0  0  0  0  0  0  0  0
   59.8320   31.1660   46.5700 C   0  0  0  0  0  0  0  0  0  0  0  0
   60.4000   31.3760   47.7900 N   0  0  0  0  0  0  0  0  0  0  0  0
   60.1160   32.4760   48.5350 C   0  0  0  0  0  0  0  0  0  0  0  0
   60.5901   32.6089   49.5186 H   0  0  0  0  0  0  0  0  0  0  0  0
   59.2250   33.4380   48.0570 C   0  0  0  0  0  0  0  0  0  0  0  0
   58.9934   34.3276   48.6611 H   0  0  0  0  0  0  0  0  0  0  0  0
   58.6240   33.2610   46.7940 C   0  0  0  0  0  0  0  0  0  0  0  0
   57.7900   34.1260   46.2890 N   0  0  0  0  0  0  0  0  0  0  0  0
   57.3710   34.2020   44.8930 C   0  0  0  0  0  0  0  0  0  0  0  0
   56.2897   34.3981   44.8449 H   0  0  0  0  0  0  0  0  0  0  0  0
   57.9140   35.0163   44.3910 H   0  0  0  0  0  0  0  0  0  0  0  0
   57.5935   33.2488   44.3910 H   0  0  0  0  0  0  0  0  0  0  0  0
   58.9370   32.1160   46.0520 C   0  0  0  0  0  0  0  0  0  0  0  0
   58.4817   31.9604   45.0628 H   0  0  0  0  0  0  0  0  0  0  0  0
   57.9910   29.0850   45.1570 C   0  0  0  0  0  0  0  0  0  0  0  0
   57.8775   29.8981   44.4249 H   0  0  0  0  0  0  0  0  0  0  0  0
   56.9750   28.1380   45.3050 C   0  0  0  0  0  0  0  0  0  0  0  0
   56.0702   28.2072   44.6833 H   0  0  0  0  0  0  0  0  0  0  0  0
  1  2  1  0
  2  3  1  0
  3  4  2  0
  3  5  1  0
  5  6  2  0
  6  7  1  0
  6  8  1  0
  8  9  1  0
  8 10  2  0
 10 11  1  0
 11 12  1  0
 11 13  1  0
 11 14  1  0
 14 15  1  0
 15 16  1  0
 16 17  1  0
 16 18  2  0
 18 19  1  0
 18 20  1  0
 20 21  2  0
 21 22  1  0
 22 23  1  0
 22 24  1  0
 22 25  1  0
 20 26  1  0
 26 27  1  0
 10 28  1  0
 28 29  1  0
 28 30  2  0
 30 31  1  0
 30  5  1  0
 26 14  2  0
M  CHG  3   2  -1  11   1  15  -1
M  END
>  <UniqueID>  (15) 
13

>  <SMILES>  (15) 
C/N=c1\cc[n-]c([NH2+]c2ccc(C([NH-])=O)cc2)c1

>  <Energy>  (15) 
34.82631542679859

>  <Genealogy>  (15) 
CN=c1cc[n-]c([NH2+]c2ccc(C([NH-])=O)cc2)c1 (protonated)
C/N=c1\cc[n-]c([NH2+]c2ccc(C([NH-])=O)cc2)c1 (cis-trans isomerization)
C/N=c1\cc[n-]c([NH2+]c2ccc(C([NH-])=O)cc2)c1 (3D coordinates assigned)
C/N=c1\cc[n-]c([NH2+]c2ccc(C([NH-])=O)cc2)c1 (optimized conformer: 34.82631542679859 kcal/mol)

>  <smiles>  (15) 
CN=c1cc[nH]c(Nc2ccc(C(N)=O)cc2)c1

>  <score_type>  (15) 
oracle

>  <origin>  (15) 
adg

>  <m_score__min__energy>  (15) 
-8.9199999999999999

>  <m_primary>  (15) 
energy

$$$$
15:0
     RDKit          3D

 34 36  0  0  0  0  0  0  0  0999 V2000
   56.8330   34.1904   47.0713 H   0  0  0  0  0  0  0  0  0  0  0  0
   57.3170   33.8910   46.1300 C   0  0  0  0  0  0  0  0  0  0  0  0
   56.8140   32.8560   45.4070 N   0  0  0  0  0  0  0  0  0  0  0  0
   57.3830   32.4490   44.2350 C   0  0  0  0  0  0  0  0  0  0  0  0
   56.8880   31.4590   43.5480 N   0  0  0  0  0  0  0  0  0  0  0  0
   56.3350   30.2410   44.0700 C   0  0  0  0  0  0  0  0  0  0  0  0
   55.2580   30.2380   44.7270 O   0  0  0  0  0  0  0  0  0  0  0  0
   57.0440   28.9490   43.8140 C   0  0  0  0  0  0  0  0  0  0  0  0
   56.4333   28.3292   43.1410 H   0  0  0  0  0  0  0  0  0  0  0  0
   58.0190   29.1659   43.3533 H   0  0  0  0  0  0  0  0  0  0  0  0
   57.3210   28.0440   45.3760 S   0  0  0  0  0  0  0  0  0  0  0  0
   58.4260   29.2760   46.0720 C   0  0  0  0  0  0  0  0  0  0  0  0
   59.7330   28.9320   46.4170 C   0  0  0  0  0  0  0  0  0  0  0  0
   60.0964   27.9053   46.2624 H   0  0  0  0  0  0  0  0  0  0  0  0
   60.5730   29.9010   46.9590 C   0  0  0  0  0  0  0  0  0  0  0  0
   61.6057   29.6473   47.2406 H   0  0  0  0  0  0  0  0  0  0  0  0
   60.0880   31.2040   47.1420 C   0  0  0  0  0  0  0  0  0  0  0  0
   60.9240   32.2820   47.7130 C   0  0  0  0  0  0  0  0  0  0  0  0
   62.5820   32.4360   47.4660 S   0  0  0  0  0  0  0  0  0  0  0  0
   62.7900   33.8270   48.3860 C   0  0  0  0  0  0  0  0  0  0  0  0
   63.7400   34.3567   48.5498 H   0  0  0  0  0  0  0  0  0  0  0  0
   61.5550   34.1910   48.9030 C   0  0  0  0  0  0  0  0  0  0  0  0
   61.4090   35.0716   49.5459 H   0  0  0  0  0  0  0  0  0  0  0  0
   60.5110   33.3340   48.5310 C   0  0  0  0  0  0  0  0  0  0  0  0
   59.4686   33.4765   48.8522 H   0  0  0  0  0  0  0  0  0  0  0  0
   58.8060   31.4820   46.7800 N   0  0  0  0  0  0  0  0  0  0  0  0
   58.0000   30.5540   46.2610 N   0  0  0  0  0  0  0  0  0  0  0  0
   57.0240   30.8190   46.0010 H   0  0  0  0  0  0  0  0  0  0  0  0
   58.5180   33.1150   43.7550 C   0  0  0  0  0  0  0  0  0  0  0  0
   58.9876   32.7999   42.8115 H   0  0  0  0  0  0  0  0  0  0  0  0
   59.0490   34.1820   44.4830 C   0  0  0  0  0  0  0  0  0  0  0  0
   59.9396   34.7120   44.1144 H   0  0  0  0  0  0  0  0  0  0  0  0
   58.4470   34.5740   45.6790 C   0  0  0  0  0  0  0  0  0  0  0  0
   58.8587   35.4124   46.2601 H   0  0  0  0  0  0  0  0  0  0  0  0
  1  2  1  0
  2  3  1  0
  3  4  1  0
  4  5  2  0
  5  6  1  0
  6  7  2  0
  6  8  1  0
  8  9  1  0
  8 10  1  0
  8 11  1  0
 11 12  1  0
 12 13  2  0
 13 14  1  0
 13 15  1  0
 15 16  1  0
 15 17  2  0
 17 18  1  0
 18 19  1  0
 19 20  1  0
 20 21  1  0
 20 22  2  0
 22 23  1  0
 22 24  1  0
 24 25  1  0
 17 26  1  0
 26 27  2  0
 27 28  1  0
  4 29  1  0
 29 30  1  0
 29 31  2  0
 31 32  1  0
 31 33  1  0
 33 34  1  0
 33  2  2  0
 27 12  1  0
 24 18  2  0
M  CHG  2   3  -1  27   1
M  END
>  <UniqueID>  (16) 
14

>  <SMILES>  (16) 
O=C(CSc1ccc(-c2cccs2)n[nH+]1)/N=c1/cccc[n-]1

>  <Energy>  (16) 
61.68085993652843

>  <Genealogy>  (16) 
O=C(CSc1ccc(-c2cccs2)n[nH+]1)N=c1cccc[n-]1 (protonated)
O=C(CSc1ccc(-c2cccs2)n[nH+]1)/N=c1/cccc[n-]1 (cis-trans isomerization)
O=C(CSc1ccc(-c2cccs2)n[nH+]1)/N=c1/cccc[n-]1 (3D coordinates assigned)
O=C(CSc1ccc(-c2cccs2)n[nH+]1)/N=c1/cccc[n-]1 (optimized conformer: 61.68085993652843 kcal/mol)

>  <smiles>  (16) 
O=C(CSc1ccc(-c2cccs2)nn1)N=c1cccc[nH]1

>  <score_type>  (16) 
oracle

>  <origin>  (16) 
adg

>  <m_score__min__energy>  (16) 
-7.4100000000000001

>  <m_primary>  (16) 
energy

$$$$
16:0
     RDKit          3D

 47 49  0  0  0  0  0  0  0  0999 V2000
   61.6420   28.4900   51.2710 C   0  0  0  0  0  0  0  0  0  0  0  0
   60.9350   28.9940   50.0890 N   0  0  0  0  0  0  0  0  0  0  0  0
   60.4950   30.3990   50.0410 C   0  0  0  0  0  0  0  0  0  0  0  0
   61.5180   31.2490   49.3530 C   0  0  0  0  0  0  0  0  0  0  0  0
   62.8750   31.3030   49.6140 C   0  0  0  0  0  0  0  0  0  0  0  0
   63.4590   32.1360   48.7290 N   0  0  0  0  0  0  0  0  0  0  0  0
   62.5090   32.6110   47.9370 N   0  0  0  0  0  0  0  0  0  0  0  0
   62.7670   33.4740   46.7930 C   0  0  0  0  0  0  0  0  0  0  0  0
   61.3180   32.0820   48.2730 C   0  0  0  0  0  0  0  0  0  0  0  0
   60.5820   28.0570   49.0470 C   0  0  0  0  0  0  0  0  0  0  0  0
   60.7630   26.8240   49.2320 O   0  0  0  0  0  0  0  0  0  0  0  0
   59.9870   28.4960   47.7670 C   0  0  0  0  0  0  0  0  0  0  0  0
   58.6410   28.2220   47.4920 C   0  0  0  0  0  0  0  0  0  0  0  0
   58.0590   28.6530   46.2970 C   0  0  0  0  0  0  0  0  0  0  0  0
   58.8250   29.3500   45.3430 C   0  0  0  0  0  0  0  0  0  0  0  0
   58.2580   29.8150   44.1060 N   0  0  0  0  0  0  0  0  0  0  0  0
   57.2180   31.2000   43.9800 S   0  0  0  0  0  0  0  0  0  0  0  0
   57.0770   31.5830   42.5320 O   0  0  0  0  0  0  0  0  0  0  0  0
   55.8610   30.8530   44.5230 O   0  0  0  0  0  0  0  0  0  0  0  0
   57.8860   32.5250   44.9260 C   0  0  0  0  0  0  0  0  0  0  0  0
   57.8030   32.4840   46.3270 C   0  0  0  0  0  0  0  0  0  0  0  0
   58.3570   33.5130   47.0940 C   0  0  0  0  0  0  0  0  0  0  0  0
   58.9990   34.5840   46.4670 C   0  0  0  0  0  0  0  0  0  0  0  0
   59.0870   34.6280   45.0720 C   0  0  0  0  0  0  0  0  0  0  0  0
   58.5300   33.6030   44.3020 C   0  0  0  0  0  0  0  0  0  0  0  0
   60.1790   29.6030   45.6140 C   0  0  0  0  0  0  0  0  0  0  0  0
   60.7580   29.1750   46.8130 C   0  0  0  0  0  0  0  0  0  0  0  0
   61.1382   28.8492   52.1805 H   0  0  0  0  0  0  0  0  0  0  0  0
   61.6377   27.3901   51.2595 H   0  0  0  0  0  0  0  0  0  0  0  0
   62.6804   28.8527   51.2595 H   0  0  0  0  0  0  0  0  0  0  0  0
   59.5443   30.4614   49.4912 H   0  0  0  0  0  0  0  0  0  0  0  0
   60.3644   30.7648   51.0701 H   0  0  0  0  0  0  0  0  0  0  0  0
   63.3940   30.7550   50.4142 H   0  0  0  0  0  0  0  0  0  0  0  0
   63.0654   34.4720   47.1465 H   0  0  0  0  0  0  0  0  0  0  0  0
   63.5758   33.0437   46.1841 H   0  0  0  0  0  0  0  0  0  0  0  0
   61.8548   33.5582   46.1841 H   0  0  0  0  0  0  0  0  0  0  0  0
   60.3571   32.2790   47.7751 H   0  0  0  0  0  0  0  0  0  0  0  0
   58.0375   27.6632   48.2225 H   0  0  0  0  0  0  0  0  0  0  0  0
   56.9966   28.4466   46.1005 H   0  0  0  0  0  0  0  0  0  0  0  0
   58.3920   29.2450   43.2400 H   0  0  0  0  0  0  0  0  0  0  0  0
   57.3007   31.6400   46.8223 H   0  0  0  0  0  0  0  0  0  0  0  0
   58.2875   33.4796   48.1913 H   0  0  0  0  0  0  0  0  0  0  0  0
   59.4355   35.3931   47.0711 H   0  0  0  0  0  0  0  0  0  0  0  0
   59.5953   35.4704   44.5800 H   0  0  0  0  0  0  0  0  0  0  0  0
   58.5970   33.6421   43.2047 H   0  0  0  0  0  0  0  0  0  0  0  0
   60.7905   30.1431   44.8762 H   0  0  0  0  0  0  0  0  0  0  0  0
   61.8225   29.3719   47.0083 H   0  0  0  0  0  0  0  0  0  0  0  0
  1  2  1  0
  2  3  1  0
  3  4  1  0
  4  5  1  0
  5  6  2  0
  6  7  1  0
  7  8  1  0
  7  9  1  0
  2 10  1  0
 10 11  2  0
 10 12  1  0
 12 13  2  0
 13 14  1  0
 14 15  2  0
 15 16  1  0
 16 17  1  0
 17 18  2  0
 17 19  2  0
 17 20  1  0
 20 21  2  0
 21 22  1  0
 22 23  2  0
 23 24  1  0
 24 25  2  0
 15 26  1  0
 26 27  2  0
  9  4  2  0
 27 12  1  0
 25 20  1  0
  1 28  1  0
  1 29  1  0
  1 30  1  0
  3 31  1  0
  3 32  1  0
  5 33  1  0
  8 34  1  0
  8 35  1  0
  8 36  1  0
  9 37  1  0
 13 38  1  0
 14 39  1  0
 16 40  1  0
 21 41  1  0
 22 42  1  0
 23 43  1  0
 24 44  1  0
 25 45  1  0
 26 46  1  0
 27 47  1  0
M  END
>  <UniqueID>  (17) 
15

>  <SMILES>  (17) 
CN(Cc1cnn(C)c1)C(=O)c1ccc(NS(=O)(=O)c2ccccc2)cc1

>  <Energy>  (17) 
82.40627383005184

>  <Genealogy>  (17) 
CN(Cc1cnn(C)c1)C(=O)c1ccc(NS(=O)(=O)c2ccccc2)cc1 (3D coordinates assigned)
CN(Cc1cnn(C)c1)C(=O)c1ccc(NS(=O)(=O)c2ccccc2)cc1 (optimized conformer: 82.40627383005184 kcal/mol)

>  <smiles>  (17) 
CN(Cc1cnn(C)c1)C(=O)c1ccc(NS(=O)(=O)c2ccccc2)cc1

>  <score_type>  (17) 
oracle

>  <origin>  (17) 
adg

>  <m_score__min__energy>  (17) 
-8.7599999999999998

>  <m_primary>  (17) 
energy

$$$$
17:0
     RDKit          3D

 30 32  0  0  1  0  0  0  0  0999 V2000
   60.4190   29.1790   46.8740 C   0  0  0  0  0  0  0  0  0  0  0  0
   60.5510   28.9290   45.5280 C   0  0  0  0  0  0  0  0  0  0  0  0
   59.4140   28.8560   44.7610 C   0  0  0  0  0  0  0  0  0  0  0  0
   58.1630   29.0320   45.3410 C   0  0  0  0  0  0  0  0  0  0  0  0
   56.9530   28.9420   44.4550 C   0  0  0  0  0  0  0  0  0  0  0  0
   56.3130   30.2420   44.4960 N   0  0  0  0  0  0  0  0  0  0  0  0
   57.0310   31.3140   44.5280 C   0  0  0  0  0  0  0  0  0  0  0  0
   57.4050   31.9610   43.3860 N   0  0  0  0  0  0  0  0  0  0  0  0
   58.1650   33.0870   43.5070 C   0  0  0  0  0  0  0  0  0  0  0  0
   58.5530   33.5760   44.7410 C   0  0  0  0  0  0  0  0  0  0  0  0
   59.3200   34.7120   44.8910 C   0  0  0  0  0  0  0  0  0  0  0  0
   59.6580   35.1240   46.1560 C   0  0  0  0  0  0  0  0  0  0  0  0
   59.2630   34.4500   47.2970 C   0  0  0  0  0  0  0  0  0  0  0  0
   58.4960   33.3120   47.1540 C   0  0  0  0  0  0  0  0  0  0  0  0
   58.1540   32.8950   45.8730 C   0  0  0  0  0  0  0  0  0  0  0  0
   57.3960   31.7710   45.7410 N   0  0  0  0  0  0  0  0  0  0  0  0
   58.0300   29.2810   46.6740 N   0  0  0  0  0  0  0  0  0  0  0  0
   59.1570   29.3550   47.4400 C   0  0  0  0  0  0  0  0  0  0  0  0
   61.3155   29.2405   47.5085 H   0  0  0  0  0  0  0  0  0  0  0  0
   61.5443   28.7907   45.0762 H   0  0  0  0  0  0  0  0  0  0  0  0
   59.4937   28.6572   43.6821 H   0  0  0  0  0  0  0  0  0  0  0  0
   57.2537   28.6992   43.4252 H   0  0  0  0  0  0  0  0  0  0  0  0
   56.2686   28.1516   44.7968 H   0  0  0  0  0  0  0  0  0  0  0  0
   58.4781   33.6211   42.5977 H   0  0  0  0  0  0  0  0  0  0  0  0
   59.6558   35.2794   44.0105 H   0  0  0  0  0  0  0  0  0  0  0  0
   60.2705   36.0309   46.2671 H   0  0  0  0  0  0  0  0  0  0  0  0
   59.5532   34.8122   48.2943 H   0  0  0  0  0  0  0  0  0  0  0  0
   58.1619   32.7461   48.0361 H   0  0  0  0  0  0  0  0  0  0  0  0
   57.0960   31.2580   46.5970 H   0  0  0  0  0  0  0  0  0  0  0  0
   59.0686   29.5561   48.5178 H   0  0  0  0  0  0  0  0  0  0  0  0
  1  2  2  0
  2  3  1  0
  3  4  2  0
  4  5  1  0
  5  6  1  0
  6  7  2  0
  7  8  1  0
  8  9  2  0
  9 10  1  0
 10 11  2  0
 11 12  1  0
 12 13  2  0
 13 14  1  0
 14 15  2  0
 15 16  1  0
  4 17  1  0
 17 18  2  0
 18  1  1  0
 16  7  1  0
 15 10  1  0
  1 19  1  0
  2 20  1  0
  3 21  1  0
  5 22  1  0
  5 23  1  0
  9 24  1  0
 11 25  1  0
 12 26  1  0
 13 27  1  0
 14 28  1  0
 16 29  1  0
 18 30  1  0
M  END
>  <smiles>  (18) 
c1ccc(CN=c2ncc3ccccc3[nH]2)nc1

>  <score_type>  (18) 
oracle

>  <origin>  (18) 
adg

>  <m_score__min__energy>  (18) 
-6.4900000000000002

>  <m_primary>  (18) 
energy

$$$$
18:0
     RDKit          3D

 48 50  0  0  0  0  0  0  0  0999 V2000
   57.7512   30.5469   45.7834 H   0  0  0  0  0  0  0  0  0  0  0  0
   57.5310   29.6600   45.1710 C   0  0  0  0  0  0  0  0  0  0  0  0
   56.2960   29.6440   44.3600 C   0  0  0  0  0  0  0  0  0  0  0  0
   55.1840   29.3630   44.8820 O   0  0  0  0  0  0  0  0  0  0  0  0
   56.3570   30.0040   42.9090 C   0  0  0  0  0  0  0  0  0  0  0  0
   56.5400   31.0838   42.8065 H   0  0  0  0  0  0  0  0  0  0  0  0
   57.1735   29.4464   42.4269 H   0  0  0  0  0  0  0  0  0  0  0  0
   55.4024   29.7465   42.4269 H   0  0  0  0  0  0  0  0  0  0  0  0
   58.3910   28.6360   45.1880 C   0  0  0  0  0  0  0  0  0  0  0  0
   58.6214   28.1210   44.2437 H   0  0  0  0  0  0  0  0  0  0  0  0
   59.0410   28.1730   46.4270 C   0  0  0  0  0  0  0  0  0  0  0  0
   59.1660   26.8500   46.7930 C   0  0  0  0  0  0  0  0  0  0  0  0
   58.7565   25.9949   46.2352 H   0  0  0  0  0  0  0  0  0  0  0  0
   59.8670   26.7670   47.9390 N   0  0  0  0  0  0  0  0  0  0  0  0
   60.1700   28.0490   48.2420 C   0  0  0  0  0  0  0  0  0  0  0  0
   60.7479   28.3432   49.1305 H   0  0  0  0  0  0  0  0  0  0  0  0
   59.6890   28.9300   47.3400 N   0  0  0  0  0  0  0  0  0  0  0  0
   60.0010   30.3630   47.3080 C   0  0  0  0  0  0  0  0  0  0  0  0
   61.0121   30.5172   47.7129 H   0  0  0  0  0  0  0  0  0  0  0  0
   59.9389   30.7051   46.2644 H   0  0  0  0  0  0  0  0  0  0  0  0
   59.0020   31.1780   48.1400 C   0  0  0  0  0  0  0  0  0  0  0  0
   58.0921   30.5787   48.2915 H   0  0  0  0  0  0  0  0  0  0  0  0
   59.4774   31.4241   49.1010 H   0  0  0  0  0  0  0  0  0  0  0  0
   58.6290   32.4660   47.4590 C   0  0  0  0  0  0  0  0  0  0  0  0
   59.1010   33.7440   47.7260 C   0  0  0  0  0  0  0  0  0  0  0  0
   60.0740   34.1740   48.7880 C   0  0  0  0  0  0  0  0  0  0  0  0
   60.0466   35.2696   48.8821 H   0  0  0  0  0  0  0  0  0  0  0  0
   59.7907   33.7048   49.7417 H   0  0  0  0  0  0  0  0  0  0  0  0
   61.4710   33.7420   48.4280 C   0  0  0  0  0  0  0  0  0  0  0  0
   61.8860   33.7250   47.0880 C   0  0  0  0  0  0  0  0  0  0  0  0
   61.1702   33.9690   46.2892 H   0  0  0  0  0  0  0  0  0  0  0  0
   63.2060   33.3990   46.7650 C   0  0  0  0  0  0  0  0  0  0  0  0
   63.5281   33.3939   45.7132 H   0  0  0  0  0  0  0  0  0  0  0  0
   64.1190   33.0790   47.7760 C   0  0  0  0  0  0  0  0  0  0  0  0
   65.1584   32.8273   47.5186 H   0  0  0  0  0  0  0  0  0  0  0  0
   63.7110   33.0790   49.1120 C   0  0  0  0  0  0  0  0  0  0  0  0
   64.4264   32.8189   49.9061 H   0  0  0  0  0  0  0  0  0  0  0  0
   62.3920   33.4100   49.4390 C   0  0  0  0  0  0  0  0  0  0  0  0
   62.0729   33.4108   50.4917 H   0  0  0  0  0  0  0  0  0  0  0  0
   58.5370   34.5790   46.7780 C   0  0  0  0  0  0  0  0  0  0  0  0
   58.7079   35.6632   46.7055 H   0  0  0  0  0  0  0  0  0  0  0  0
   57.7480   33.8620   45.9590 N   0  0  0  0  0  0  0  0  0  0  0  0
   56.9570   34.3770   44.8460 C   0  0  0  0  0  0  0  0  0  0  0  0
   56.0954   34.9380   45.2371 H   0  0  0  0  0  0  0  0  0  0  0  0
   57.5797   35.0433   44.2310 H   0  0  0  0  0  0  0  0  0  0  0  0
   56.5996   33.5379   44.2310 H   0  0  0  0  0  0  0  0  0  0  0  0
   57.7830   32.5820   46.3710 C   0  0  0  0  0  0  0  0  0  0  0  0
   57.2237   31.7533   45.9122 H   0  0  0  0  0  0  0  0  0  0  0  0
  1  2  1  0
  2  3  1  0
  3  4  2  0
  3  5  1  0
  5  6  1  0
  5  7  1  0
  5  8  1  0
  2  9  2  0
  9 10  1  0
  9 11  1  0
 11 12  2  0
 12 13  1  0
 12 14  1  0
 14 15  2  0
 15 16  1  0
 15 17  1  0
 17 18  1  0
 18 19  1  0
 18 20  1  0
 18 21  1  0
 21 22  1  0
 21 23  1  0
 21 24  1  0
 24 25  1  0
 25 26  1  0
 26 27  1  0
 26 28  1  0
 26 29  1  0
 29 30  2  0
 30 31  1  0
 30 32  1  0
 32 33  1  0
 32 34  2  0
 34 35  1  0
 34 36  1  0
 36 37  1  0
 36 38  2  0
 38 39  1  0
 25 40  2  0
 40 41  1  0
 40 42  1  0
 42 43  1  0
 43 44  1  0
 43 45  1  0
 43 46  1  0
 42 47  1  0
 47 48  1  0
 17 11  1  0
 47 24  2  0
 38 29  1  0
M  END
>  <UniqueID>  (19) 
16

>  <SMILES>  (19) 
CC(=O)/C=C/c1cncn1CCc1cn(C)cc1Cc1ccccc1

>  <Energy>  (19) 
99.94115537599588

>  <Genealogy>  (19) 
CC(=O)/C=C/c1cncn1CCc1cn(C)cc1Cc1ccccc1 (cis-trans isomerization)
CC(=O)/C=C/c1cncn1CCc1cn(C)cc1Cc1ccccc1 (3D coordinates assigned)
CC(=O)/C=C/c1cncn1CCc1cn(C)cc1Cc1ccccc1 (optimized conformer: 99.94115537599588 kcal/mol)

>  <smiles>  (19) 
CC(=O)C=Cc1cncn1CCc1cn(C)cc1Cc1ccccc1

>  <score_type>  (19) 
oracle

>  <origin>  (19) 
adg

>  <m_score__min__energy>  (19) 
-8.3900000000000006

>  <m_primary>  (19) 
energy

$$$$
19:0
     RDKit          3D

 35 36  0  0  0  0  0  0  0  0999 V2000
   57.7960   27.8580   43.7290 C   0  0  0  0  0  0  0  0  0  0  0  0
   57.8800   29.0620   44.6640 C   0  0  2  0  0  0  0  0  0  0  0  0
   58.3430   28.6300   45.9450 O   0  0  0  0  0  0  0  0  0  0  0  0
   59.1670   29.3750   46.8050 C   0  0  0  0  0  0  0  0  0  0  0  0
   58.9280   29.4780   48.1910 C   0  0  0  0  0  0  0  0  0  0  0  0
   59.7860   30.2310   48.9990 C   0  0  0  0  0  0  0  0  0  0  0  0
   60.8830   30.8890   48.4360 C   0  0  0  0  0  0  0  0  0  0  0  0
   61.1220   30.7960   47.0620 C   0  0  0  0  0  0  0  0  0  0  0  0
   60.2680   30.0420   46.2520 C   0  0  0  0  0  0  0  0  0  0  0  0
   56.5320   29.7120   44.7880 C   0  0  0  0  0  0  0  0  0  0  0  0
   55.4950   28.9990   44.8890 O   0  0  0  0  0  0  0  0  0  0  0  0
   56.4320   31.1370   44.7960 N   0  0  0  0  0  0  0  0  0  0  0  0
   57.4610   32.0030   44.2370 C   0  0  0  0  0  0  0  0  0  0  0  0
   58.0970   32.7960   45.3430 C   0  0  0  0  0  0  0  0  0  0  0  0
   57.7700   32.5300   46.6830 C   0  0  0  0  0  0  0  0  0  0  0  0
   58.3380   33.2870   47.7110 C   0  0  0  0  0  0  0  0  0  0  0  0
   59.2270   34.3230   47.4100 C   0  0  0  0  0  0  0  0  0  0  0  0
   59.5460   34.6040   46.0790 C   0  0  0  0  0  0  0  0  0  0  0  0
   58.9810   33.8500   45.0460 C   0  0  0  0  0  0  0  0  0  0  0  0
   59.2910   34.1490   43.7580 F   0  0  0  0  0  0  0  0  0  0  0  0
   57.7316   26.9352   44.3243 H   0  0  0  0  0  0  0  0  0  0  0  0
   56.9020   27.9481   43.0945 H   0  0  0  0  0  0  0  0  0  0  0  0
   58.6939   27.8231   43.0945 H   0  0  0  0  0  0  0  0  0  0  0  0
   58.5848   29.7998   44.2530 H   0  0  0  0  0  0  0  0  0  0  0  0
   58.0640   28.9645   48.6380 H   0  0  0  0  0  0  0  0  0  0  0  0
   59.5970   30.3055   50.0801 H   0  0  0  0  0  0  0  0  0  0  0  0
   61.5575   31.4794   49.0735 H   0  0  0  0  0  0  0  0  0  0  0  0
   61.9830   31.3167   46.6176 H   0  0  0  0  0  0  0  0  0  0  0  0
   60.4620   29.9718   45.1715 H   0  0  0  0  0  0  0  0  0  0  0  0
   58.2258   31.3900   43.7377 H   0  0  0  0  0  0  0  0  0  0  0  0
   57.0083   32.6884   43.5053 H   0  0  0  0  0  0  0  0  0  0  0  0
   57.0635   31.7221   46.9241 H   0  0  0  0  0  0  0  0  0  0  0  0
   58.0852   33.0674   48.7588 H   0  0  0  0  0  0  0  0  0  0  0  0
   59.6751   34.9166   48.2205 H   0  0  0  0  0  0  0  0  0  0  0  0
   60.2438   35.4210   45.8431 H   0  0  0  0  0  0  0  0  0  0  0  0
  1  2  1  0
  2  3  1  0
  3  4  1  0
  4  5  2  0
  5  6  1  0
  6  7  2  0
  7  8  1  0
  8  9  2  0
  2 10  1  0
 10 11  2  0
 10 12  1  0
 12 13  1  0
 13 14  1  0
 14 15  2  0
 15 16  1  0
 16 17  2  0
 17 18  1  0
 18 19  2  0
 19 20  1  0
  9  4  1  0
 19 14  1  0
  1 21  1  0
  1 22  1  0
  1 23  1  0
  2 24  1  6
  5 25  1  0
  6 26  1  0
  7 27  1  0
  8 28  1  0
  9 29  1  0
 13 30  1  0
 13 31  1  0
 15 32  1  0
 16 33  1  0
 17 34  1  0
 18 35  1  0
M  CHG  1  12  -1
M  END
>  <UniqueID>  (20) 
17

>  <SMILES>  (20) 
C[C@H](Oc1ccccc1)C(=O)[N-]Cc1ccccc1F

>  <Energy>  (20) 
29.52800638296563

>  <Genealogy>  (20) 
CC(Oc1ccccc1)C(=O)[N-]Cc1ccccc1F (protonated)
C[C@H](Oc1ccccc1)C(=O)[N-]Cc1ccccc1F (chirality)
C[C@H](Oc1ccccc1)C(=O)[N-]Cc1ccccc1F (3D coordinates assigned)
C[C@H](Oc1ccccc1)C(=O)[N-]Cc1ccccc1F (optimized conformer: 29.52800638296563 kcal/mol)

>  <smiles>  (20) 
CC(Oc1ccccc1)C(=O)NCc1ccccc1F

>  <score_type>  (20) 
oracle

>  <origin>  (20) 
adg

>  <m_score__min__energy>  (20) 
-9

>  <m_primary>  (20) 
energy

$$$$
20:0
     RDKit          3D

 38 39  0  0  0  0  0  0  0  0999 V2000
   61.1130   22.2140   44.6810 H   0  0  0  0  0  0  0  0  0  0  0  0
   60.5490   22.3820   45.5450 N   0  0  0  0  0  0  0  0  0  0  0  0
   59.7120   23.3640   45.6230 C   0  0  0  0  0  0  0  0  0  0  0  0
   58.3810   23.1450   45.4590 N   0  0  0  0  0  0  0  0  0  0  0  0
   57.4780   24.1620   45.5310 C   0  0  0  0  0  0  0  0  0  0  0  0
   56.0350   23.8720   45.3300 C   0  0  0  0  0  0  0  0  0  0  0  0
   55.4570   23.8900   44.0460 C   0  0  0  0  0  0  0  0  0  0  0  0
   56.0816   24.1166   43.1694 H   0  0  0  0  0  0  0  0  0  0  0  0
   54.0950   23.6220   43.8770 C   0  0  0  0  0  0  0  0  0  0  0  0
   53.6561   23.6341   42.8684 H   0  0  0  0  0  0  0  0  0  0  0  0
   53.2830   23.3370   44.9900 C   0  0  0  0  0  0  0  0  0  0  0  0
   51.9130   23.0610   44.8700 O   0  0  0  0  0  0  0  0  0  0  0  0
   50.9350   24.0070   44.4500 C   0  0  0  0  0  0  0  0  0  0  0  0
   50.4633   24.4632   45.3328 H   0  0  0  0  0  0  0  0  0  0  0  0
   51.4175   24.7898   43.8464 H   0  0  0  0  0  0  0  0  0  0  0  0
   50.1687   23.4987   43.8464 H   0  0  0  0  0  0  0  0  0  0  0  0
   53.8530   23.3290   46.2650 C   0  0  0  0  0  0  0  0  0  0  0  0
   53.2251   23.1098   47.1412 H   0  0  0  0  0  0  0  0  0  0  0  0
   55.2140   23.5970   46.4380 C   0  0  0  0  0  0  0  0  0  0  0  0
   55.6464   23.5927   47.4494 H   0  0  0  0  0  0  0  0  0  0  0  0
   57.9420   25.4650   45.7700 C   0  0  0  0  0  0  0  0  0  0  0  0
   57.2397   26.3111   45.8012 H   0  0  0  0  0  0  0  0  0  0  0  0
   59.3120   25.6710   45.9680 C   0  0  0  0  0  0  0  0  0  0  0  0
   59.8600   27.0180   46.2130 C   0  0  0  0  0  0  0  0  0  0  0  0
   60.7550   27.4570   45.4450 O   0  0  0  0  0  0  0  0  0  0  0  0
   59.4530   27.8260   47.3270 N   0  0  0  0  0  0  0  0  0  0  0  0
   58.1500   28.4650   47.4720 C   0  0  0  0  0  0  0  0  0  0  0  0
   57.3734   27.6908   47.5585 H   0  0  0  0  0  0  0  0  0  0  0  0
   58.1570   29.0930   48.3751 H   0  0  0  0  0  0  0  0  0  0  0  0
   57.8540   29.3430   46.2570 C   0  0  0  0  0  0  0  0  0  0  0  0
   57.4788   30.3165   46.6055 H   0  0  0  0  0  0  0  0  0  0  0  0
   58.7868   29.4571   45.6853 H   0  0  0  0  0  0  0  0  0  0  0  0
   56.6320   28.6060   45.1780 S   0  0  0  0  0  0  0  0  0  0  0  0
   56.0730   27.3630   45.8120 O   0  0  0  0  0  0  0  0  0  0  0  0
   57.2900   28.2400   43.8770 O   0  0  0  0  0  0  0  0  0  0  0  0
   55.3500   29.7230   44.8630 N   0  0  0  0  0  0  0  0  0  0  0  0
   54.4890   29.3400   45.3140 H   0  0  0  0  0  0  0  0  0  0  0  0
   60.1670   24.6180   45.8720 N   0  0  0  0  0  0  0  0  0  0  0  0
  1  2  1  0
  2  3  2  0
  3  4  1  0
  4  5  2  0
  5  6  1  0
  6  7  2  0
  7  8  1  0
  7  9  1  0
  9 10  1  0
  9 11  2  0
 11 12  1  0
 12 13  1  0
 13 14  1  0
 13 15  1  0
 13 16  1  0
 11 17  1  0
 17 18  1  0
 17 19  2  0
 19 20  1  0
  5 21  1  0
 21 22  1  0
 21 23  2  0
 23 24  1  0
 24 25  2  0
 24 26  1  0
 26 27  1  0
 27 28  1  0
 27 29  1  0
 27 30  1  0
 30 31  1  0
 30 32  1  0
 30 33  1  0
 33 34  2  0
 33 35  2  0
 33 36  1  0
 36 37  1  0
 23 38  1  0
 38  3  1  0
 19  6  1  0
M  CHG  3  26  -1  36  -1  38  -1
M  END
>  <UniqueID>  (21) 
18

>  <SMILES>  (21) 
[H]/N=c1\nc(-c2ccc(OC)cc2)cc(C(=O)[N-]CCS([NH-])(=O)=O)[n-]1

>  <Energy>  (21) 
38.41467823262787

>  <Genealogy>  (21) 
COc1ccc(-c2cc(C(=O)[N-]CCS([NH-])(=O)=O)[n-]c(=N)n2)cc1 (protonated)
[H]/N=c1\nc(-c2ccc(OC)cc2)cc(C(=O)[N-]CCS([NH-])(=O)=O)[n-]1 (cis-trans isomerization)
[H]/N=c1\nc(-c2ccc(OC)cc2)cc(C(=O)[N-]CCS([NH-])(=O)=O)[n-]1 (3D coordinates assigned)
[H]/N=c1\nc(-c2ccc(OC)cc2)cc(C(=O)[N-]CCS([NH-])(=O)=O)[n-]1 (optimized conformer: 38.41467823262787 kcal/mol)

>  <smiles>  (21) 
COc1ccc(-c2cc(C(=O)NCCS(N)(=O)=O)[nH]c(=N)n2)cc1

>  <score_type>  (21) 
oracle

>  <origin>  (21) 
adg

>  <m_score__min__energy>  (21) 
-13.08

>  <m_primary>  (21) 
energy

$$$$
21:0
     RDKit          3D

 40 42  0  0  0  0  0  0  0  0999 V2000
   54.3870   29.3500   45.5620 H   0  0  0  0  0  0  0  0  0  0  0  0
   55.1570   29.2340   44.8670 N   0  0  0  0  0  0  0  0  0  0  0  0
   56.4160   28.6880   45.2490 C   0  0  0  0  0  0  0  0  0  0  0  0
   56.5340   27.4390   45.3630 O   0  0  0  0  0  0  0  0  0  0  0  0
   57.5820   29.5560   45.5110 C   0  0  0  0  0  0  0  0  0  0  0  0
   58.6410   29.3210   46.8030 S   0  0  0  0  0  0  0  0  0  0  0  0
   59.6040   30.6420   46.4040 C   0  0  0  0  0  0  0  0  0  0  0  0
   60.6910   31.0190   47.0130 N   0  0  0  0  0  0  0  0  0  0  0  0
   60.8380   31.2910   48.4150 C   0  0  0  0  0  0  0  0  0  0  0  0
   61.2970   30.3830   49.1580 O   0  0  0  0  0  0  0  0  0  0  0  0
   60.5740   32.6690   48.9890 C   0  0  2  0  0  0  0  0  0  0  0  0
   61.3272   32.8404   49.7721 H   0  0  0  0  0  0  0  0  0  0  0  0
   59.1750   32.7460   49.6260 C   0  0  0  0  0  0  0  0  0  0  0  0
   59.0414   31.8893   50.3029 H   0  0  0  0  0  0  0  0  0  0  0  0
   59.0960   33.6936   50.1790 H   0  0  0  0  0  0  0  0  0  0  0  0
   58.1520   32.7170   48.6310 O   0  0  0  0  0  0  0  0  0  0  0  0
   58.2920   33.3630   47.3990 C   0  0  0  0  0  0  0  0  0  0  0  0
   57.1890   33.4740   46.5470 C   0  0  0  0  0  0  0  0  0  0  0  0
   56.2160   33.0616   46.8523 H   0  0  0  0  0  0  0  0  0  0  0  0
   57.3200   34.1080   45.3080 C   0  0  0  0  0  0  0  0  0  0  0  0
   56.4502   34.1938   44.6401 H   0  0  0  0  0  0  0  0  0  0  0  0
   58.5550   34.6330   44.9170 C   0  0  0  0  0  0  0  0  0  0  0  0
   58.6546   35.1359   43.9438 H   0  0  0  0  0  0  0  0  0  0  0  0
   59.6640   34.5200   45.7610 C   0  0  0  0  0  0  0  0  0  0  0  0
   60.6328   34.9406   45.4534 H   0  0  0  0  0  0  0  0  0  0  0  0
   59.5440   33.8710   47.0000 C   0  0  0  0  0  0  0  0  0  0  0  0
   60.7350   33.7740   47.9220 C   0  0  0  0  0  0  0  0  0  0  0  0
   61.6291   33.5544   47.3201 H   0  0  0  0  0  0  0  0  0  0  0  0
   60.8259   34.7349   48.4497 H   0  0  0  0  0  0  0  0  0  0  0  0
   59.1520   31.2580   45.2910 N   0  0  0  0  0  0  0  0  0  0  0  0
   59.6270   32.0890   44.8740 H   0  0  0  0  0  0  0  0  0  0  0  0
   58.0260   30.6750   44.7820 C   0  0  0  0  0  0  0  0  0  0  0  0
   57.3400   31.1960   43.5460 C   0  0  0  0  0  0  0  0  0  0  0  0
   56.3608   31.6124   43.8250 H   0  0  0  0  0  0  0  0  0  0  0  0
   57.2136   30.3659   42.8354 H   0  0  0  0  0  0  0  0  0  0  0  0
   58.1150   32.2050   42.9320 O   0  0  0  0  0  0  0  0  0  0  0  0
   57.7700   32.2960   41.5680 C   0  0  0  0  0  0  0  0  0  0  0  0
   56.7101   32.5756   41.4757 H   0  0  0  0  0  0  0  0  0  0  0  0
   58.3944   33.0602   41.0820 H   0  0  0  0  0  0  0  0  0  0  0  0
   57.9363   31.3233   41.0820 H   0  0  0  0  0  0  0  0  0  0  0  0
  1  2  1  0
  2  3  1  0
  3  4  2  0
  3  5  1  0
  5  6  1  0
  6  7  1  0
  7  8  2  0
  8  9  1  0
  9 10  2  0
  9 11  1  0
 11 12  1  1
 11 13  1  0
 13 14  1  0
 13 15  1  0
 13 16  1  0
 16 17  1  0
 17 18  2  0
 18 19  1  0
 18 20  1  0
 20 21  1  0
 20 22  2  0
 22 23  1  0
 22 24  1  0
 24 25  1  0
 24 26  2  0
 26 27  1  0
 27 28  1  0
 27 29  1  0
  7 30  1  0
 30 31  1  0
 30 32  1  0
 32 33  1  0
 33 34  1  0
 33 35  1  0
 33 36  1  0
 36 37  1  0
 37 38  1  0
 37 39  1  0
 37 40  1  0
 32  5  2  0
 27 11  1  0
 26 17  1  0
M  CHG  1   2  -1
M  END
>  <UniqueID>  (22) 
19

>  <SMILES>  (22) 
COCc1[nH]/c(=N/C(=O)[C@@H]2COc3ccccc3C2)sc1C([NH-])=O

>  <Energy>  (22) 
80.74749643055235

>  <Genealogy>  (22) 
COCc1[nH]c(=NC(=O)C2COc3ccccc3C2)sc1C([NH-])=O (protonated)
COCc1[nH]c(=NC(=O)[C@@H]2COc3ccccc3C2)sc1C([NH-])=O (chirality)
COCc1[nH]/c(=N/C(=O)[C@@H]2COc3ccccc3C2)sc1C([NH-])=O (cis-trans isomerization)
COCc1[nH]/c(=N/C(=O)[C@@H]2COc3ccccc3C2)sc1C([NH-])=O (3D coordinates assigned)
COCc1[nH]/c(=N/C(=O)[C@@H]2COc3ccccc3C2)sc1C([NH-])=O (nonaromatic ring conformer: 80.74749643055235 kcal/mol)

>  <smiles>  (22) 
COCc1[nH]c(=NC(=O)C2COc3ccccc3C2)sc1C(N)=O

>  <score_type>  (22) 
oracle

>  <origin>  (22) 
adg

>  <m_score__min__energy>  (22) 
-10.57

>  <m_primary>  (22) 
energy

$$$$
22:0
     RDKit          3D

 52 53  0  0  0  0  0  0  0  0999 V2000
   55.1560   23.4330   43.7960 C   0  0  0  0  0  0  0  0  0  0  0  0
   54.2910   23.8970   44.9570 C   0  0  0  0  0  0  0  0  0  0  0  0
   55.1240   24.3360   46.0250 O   0  0  0  0  0  0  0  0  0  0  0  0
   55.8840   25.5090   45.9590 C   0  0  0  0  0  0  0  0  0  0  0  0
   55.3120   26.6330   46.0300 O   0  0  0  0  0  0  0  0  0  0  0  0
   57.3980   25.4110   45.8530 C   0  0  0  0  0  0  0  0  0  0  0  0
   57.7760   23.9290   45.6390 C   0  0  0  0  0  0  0  0  0  0  0  0
   57.9960   25.9060   47.1860 C   0  0  0  0  0  0  0  0  0  0  0  0
   57.9110   26.2820   44.6620 C   0  0  0  0  0  0  0  0  0  0  0  0
   58.1270   27.7410   44.9950 C   0  0  0  0  0  0  0  0  0  0  0  0
   59.3840   28.1930   45.4280 C   0  0  0  0  0  0  0  0  0  0  0  0
   59.5840   29.5430   45.7330 C   0  0  0  0  0  0  0  0  0  0  0  0
   58.5360   30.4660   45.6000 C   0  0  0  0  0  0  0  0  0  0  0  0
   58.7630   31.8440   45.9390 N   0  0  0  0  0  0  0  0  0  0  0  0
   57.7630   32.8710   45.8520 C   0  0  0  0  0  0  0  0  0  0  0  0
   56.6740   32.6590   45.2540 O   0  0  0  0  0  0  0  0  0  0  0  0
   58.0480   34.2390   46.4000 C   0  0  0  0  0  0  0  0  0  0  0  0
   59.4520   34.6960   46.0840 C   0  0  0  0  0  0  0  0  0  0  0  0
   59.6440   35.4870   45.1170 O   0  0  0  0  0  0  0  0  0  0  0  0
   60.6110   34.2740   46.9160 C   0  0  0  0  0  0  0  0  0  0  0  0
   60.5090   34.2850   48.3200 C   0  0  0  0  0  0  0  0  0  0  0  0
   61.5870   33.8850   49.1160 C   0  0  0  0  0  0  0  0  0  0  0  0
   62.7800   33.4660   48.5210 C   0  0  0  0  0  0  0  0  0  0  0  0
   64.1320   32.9660   49.5200 Cl  0  0  0  0  0  0  0  0  0  0  0  0
   62.8940   33.4450   47.1280 C   0  0  0  0  0  0  0  0  0  0  0  0
   61.8180   33.8430   46.3290 C   0  0  0  0  0  0  0  0  0  0  0  0
   57.2690   30.0080   45.1980 C   0  0  0  0  0  0  0  0  0  0  0  0
   57.0690   28.6590   44.8940 C   0  0  0  0  0  0  0  0  0  0  0  0
   56.0625   22.9467   44.1856 H   0  0  0  0  0  0  0  0  0  0  0  0
   54.5911   22.7168   43.1812 H   0  0  0  0  0  0  0  0  0  0  0  0
   55.4402   24.2997   43.1812 H   0  0  0  0  0  0  0  0  0  0  0  0
   53.6497   24.7277   44.6272 H   0  0  0  0  0  0  0  0  0  0  0  0
   53.6626   23.0626   45.3019 H   0  0  0  0  0  0  0  0  0  0  0  0
   57.9013   23.4379   46.6153 H   0  0  0  0  0  0  0  0  0  0  0  0
   56.9777   23.4248   45.0746 H   0  0  0  0  0  0  0  0  0  0  0  0
   58.7183   23.8687   45.0746 H   0  0  0  0  0  0  0  0  0  0  0  0
   57.4478   25.4522   48.0248 H   0  0  0  0  0  0  0  0  0  0  0  0
   59.0560   25.6175   47.2419 H   0  0  0  0  0  0  0  0  0  0  0  0
   57.9106   27.0013   47.2419 H   0  0  0  0  0  0  0  0  0  0  0  0
   58.8684   25.8633   44.3185 H   0  0  0  0  0  0  0  0  0  0  0  0
   57.1252   26.2513   43.8929 H   0  0  0  0  0  0  0  0  0  0  0  0
   60.2164   27.4808   45.5279 H   0  0  0  0  0  0  0  0  0  0  0  0
   60.5707   29.8838   46.0799 H   0  0  0  0  0  0  0  0  0  0  0  0
   59.7380   32.1360   46.1790 H   0  0  0  0  0  0  0  0  0  0  0  0
   57.3354   34.9526   45.9608 H   0  0  0  0  0  0  0  0  0  0  0  0
   57.9445   34.1940   47.4942 H   0  0  0  0  0  0  0  0  0  0  0  0
   59.5723   34.6114   48.7955 H   0  0  0  0  0  0  0  0  0  0  0  0
   61.4957   33.9002   50.2121 H   0  0  0  0  0  0  0  0  0  0  0  0
   63.8327   33.1145   46.6593 H   0  0  0  0  0  0  0  0  0  0  0  0
   61.9140   33.8196   45.2334 H   0  0  0  0  0  0  0  0  0  0  0  0
   56.4303   30.7158   45.1224 H   0  0  0  0  0  0  0  0  0  0  0  0
   56.0752   28.3134   44.5731 H   0  0  0  0  0  0  0  0  0  0  0  0
  1  2  1  0
  2  3  1  0
  3  4  1  0
  4  5  2  0
  4  6  1  0
  6  7  1  0
  6  8  1  0
  6  9  1  0
  9 10  1  0
 10 11  2  0
 11 12  1  0
 12 13  2  0
 13 14  1  0
 14 15  1  0
 15 16  2  0
 15 17  1  0
 17 18  1  0
 18 19  2  0
 18 20  1  0
 20 21  2  0
 21 22  1  0
 22 23  2  0
 23 24  1  0
 23 25  1  0
 25 26  2  0
 13 27  1  0
 27 28  2  0
 28 10  1  0
 26 20  1  0
  1 29  1  0
  1 30  1  0
  1 31  1  0
  2 32  1  0
  2 33  1  0
  7 34  1  0
  7 35  1  0
  7 36  1  0
  8 37  1  0
  8 38  1  0
  8 39  1  0
  9 40  1  0
  9 41  1  0
 11 42  1  0
 12 43  1  0
 14 44  1  0
 17 45  1  0
 17 46  1  0
 21 47  1  0
 22 48  1  0
 25 49  1  0
 26 50  1  0
 27 51  1  0
 28 52  1  0
M  END
>  <UniqueID>  (23) 
20

>  <SMILES>  (23) 
CCOC(=O)C(C)(C)Cc1ccc(NC(=O)CC(=O)c2ccc(Cl)cc2)cc1

>  <Energy>  (23) 
49.20052083971187

>  <Genealogy>  (23) 
CCOC(=O)C(C)(C)Cc1ccc(NC(=O)CC(=O)c2ccc(Cl)cc2)cc1 (3D coordinates assigned)
CCOC(=O)C(C)(C)Cc1ccc(NC(=O)CC(=O)c2ccc(Cl)cc2)cc1 (optimized conformer: 49.20052083971187 kcal/mol)

>  <smiles>  (23) 
CCOC(=O)C(C)(C)Cc1ccc(NC(=O)CC(=O)c2ccc(Cl)cc2)cc1

>  <score_type>  (23) 
oracle

>  <origin>  (23) 
adg

>  <m_score__min__energy>  (23) 
-9.6600000000000001

>  <m_primary>  (23) 
energy

$$$$
23:0
     RDKit          3D

 37 39  0  0  0  0  0  0  0  0999 V2000
   56.6130   29.7400   43.3250 C   0  0  0  0  0  0  0  0  0  0  0  0
   56.5920   30.1380   44.6910 O   0  0  0  0  0  0  0  0  0  0  0  0
   57.4040   31.1430   45.2400 C   0  0  0  0  0  0  0  0  0  0  0  0
   57.2900   32.4920   44.8500 C   0  0  0  0  0  0  0  0  0  0  0  0
   58.1140   33.4630   45.4190 C   0  0  0  0  0  0  0  0  0  0  0  0
   59.0650   33.1060   46.3810 C   0  0  0  0  0  0  0  0  0  0  0  0
   60.1110   34.3420   47.0700 S   0  0  0  0  0  0  0  0  0  0  0  0
   60.3560   35.4030   46.0340 O   0  0  0  0  0  0  0  0  0  0  0  0
   59.4680   34.9720   48.2740 O   0  0  0  0  0  0  0  0  0  0  0  0
   61.6120   33.6130   47.5510 N   0  0  0  0  0  0  0  0  0  0  0  0
   62.7360   33.4420   46.8120 C   0  0  0  0  0  0  0  0  0  0  0  0
   62.8580   33.8400   45.6230 O   0  0  0  0  0  0  0  0  0  0  0  0
   63.7220   32.7970   47.4790 N   0  0  0  0  0  0  0  0  0  0  0  0
   63.1820   32.5530   48.6880 C   0  0  0  0  0  0  0  0  0  0  0  0
   63.7590   31.8910   49.7700 C   0  0  0  0  0  0  0  0  0  0  0  0
   62.9790   31.7420   50.9320 C   0  0  0  0  0  0  0  0  0  0  0  0
   61.6590   32.2510   50.9840 C   0  0  0  0  0  0  0  0  0  0  0  0
   60.7040   32.0560   52.4420 Cl  0  0  0  0  0  0  0  0  0  0  0  0
   61.1070   32.9140   49.8700 C   0  0  0  0  0  0  0  0  0  0  0  0
   61.9070   33.0450   48.7340 C   0  0  0  0  0  0  0  0  0  0  0  0
   59.1830   31.7670   46.7750 C   0  0  0  0  0  0  0  0  0  0  0  0
   58.3560   30.7790   46.2070 C   0  0  0  0  0  0  0  0  0  0  0  0
   58.4480   29.4270   46.5740 O   0  0  0  0  0  0  0  0  0  0  0  0
   59.3440   28.4910   45.9850 C   0  0  0  0  0  0  0  0  0  0  0  0
   56.6709   28.6432   43.2635 H   0  0  0  0  0  0  0  0  0  0  0  0
   55.6953   30.0872   42.8278 H   0  0  0  0  0  0  0  0  0  0  0  0
   57.4891   30.1819   42.8278 H   0  0  0  0  0  0  0  0  0  0  0  0
   56.5468   32.7812   44.0923 H   0  0  0  0  0  0  0  0  0  0  0  0
   58.0157   34.5141   45.1100 H   0  0  0  0  0  0  0  0  0  0  0  0
   64.6740   32.5420   47.1360 H   0  0  0  0  0  0  0  0  0  0  0  0
   64.7857   31.4995   49.7179 H   0  0  0  0  0  0  0  0  0  0  0  0
   63.3988   31.2254   51.8077 H   0  0  0  0  0  0  0  0  0  0  0  0
   60.0826   33.3139   49.8948 H   0  0  0  0  0  0  0  0  0  0  0  0
   59.9275   31.4851   47.5341 H   0  0  0  0  0  0  0  0  0  0  0  0
   59.8716   27.9399   46.7774 H   0  0  0  0  0  0  0  0  0  0  0  0
   58.7776   27.7838   45.3612 H   0  0  0  0  0  0  0  0  0  0  0  0
   60.0752   29.0260   45.3612 H   0  0  0  0  0  0  0  0  0  0  0  0
  1  2  1  0
  2  3  1  0
  3  4  2  0
  4  5  1  0
  5  6  2  0
  6  7  1  0
  7  8  2  0
  7  9  2  0
  7 10  1  0
 10 11  1  0
 11 12  2  0
 11 13  1  0
 13 14  1  0
 14 15  2  0
 15 16  1  0
 16 17  2  0
 17 18  1  0
 17 19  1  0
 19 20  2  0
  6 21  1  0
 21 22  2  0
 22 23  1  0
 23 24  1  0
 22  3  1  0
 20 10  1  0
 20 14  1  0
  1 25  1  0
  1 26  1  0
  1 27  1  0
  4 28  1  0
  5 29  1  0
 13 30  1  0
 15 31  1  0
 16 32  1  0
 19 33  1  0
 21 34  1  0
 24 35  1  0
 24 36  1  0
 24 37  1  0
M  END
>  <UniqueID>  (24) 
21

>  <SMILES>  (24) 
COc1ccc(S(=O)(=O)n2c(=O)[nH]c3ccc(Cl)cc32)cc1OC

>  <Energy>  (24) 
80.16332590152662

>  <Genealogy>  (24) 
COc1ccc(S(=O)(=O)n2c(=O)[nH]c3ccc(Cl)cc32)cc1OC (3D coordinates assigned)
COc1ccc(S(=O)(=O)n2c(=O)[nH]c3ccc(Cl)cc32)cc1OC (optimized conformer: 80.16332590152662 kcal/mol)

>  <smiles>  (24) 
COc1ccc(S(=O)(=O)n2c(=O)[nH]c3ccc(Cl)cc32)cc1OC

>  <score_type>  (24) 
oracle

>  <origin>  (24) 
adg

>  <m_score__min__energy>  (24) 
-7.7599999999999998

>  <m_primary>  (24) 
energy

$$$$
24:0
     RDKit          3D

 35 37  0  0  0  0  0  0  0  0999 V2000
   57.5973   34.3220   47.6150 H   0  0  0  0  0  0  0  0  0  0  0  0
   57.7550   33.8870   46.6170 C   0  0  0  0  0  0  0  0  0  0  0  0
   56.9900   32.8410   46.2020 N   0  0  0  0  0  0  0  0  0  0  0  0
   57.1510   32.2720   44.9720 C   0  0  0  0  0  0  0  0  0  0  0  0
   56.4130   31.2710   44.5860 N   0  0  0  0  0  0  0  0  0  0  0  0
   56.6160   29.8750   44.8760 C   0  0  0  0  0  0  0  0  0  0  0  0
   55.6420   29.0730   44.8590 O   0  0  0  0  0  0  0  0  0  0  0  0
   57.9810   29.3810   45.1930 C   0  0  0  0  0  0  0  0  0  0  0  0
   58.7450   30.0190   46.1920 C   0  0  0  0  0  0  0  0  0  0  0  0
   58.3187   30.8729   46.7389 H   0  0  0  0  0  0  0  0  0  0  0  0
   60.0440   29.5780   46.4980 C   0  0  0  0  0  0  0  0  0  0  0  0
   60.8200   30.1890   47.4940 O   0  0  0  0  0  0  0  0  0  0  0  0
   61.6190   31.3290   47.3170 C   0  0  0  0  0  0  0  0  0  0  0  0
   61.0020   32.5770   47.1970 C   0  0  0  0  0  0  0  0  0  0  0  0
   59.9052   32.6529   47.2319 H   0  0  0  0  0  0  0  0  0  0  0  0
   61.7750   33.7270   47.0330 C   0  0  0  0  0  0  0  0  0  0  0  0
   61.2930   34.7102   46.9284 H   0  0  0  0  0  0  0  0  0  0  0  0
   63.1660   33.6170   47.0030 C   0  0  0  0  0  0  0  0  0  0  0  0
   63.7845   34.5165   46.8673 H   0  0  0  0  0  0  0  0  0  0  0  0
   63.7590   32.4010   47.1410 N   0  0  0  0  0  0  0  0  0  0  0  0
   64.8010   32.3360   47.1290 H   0  0  0  0  0  0  0  0  0  0  0  0
   63.0240   31.2660   47.3020 C   0  0  0  0  0  0  0  0  0  0  0  0
   63.5307   30.2969   47.4207 H   0  0  0  0  0  0  0  0  0  0  0  0
   60.5670   28.4670   45.8290 C   0  0  0  0  0  0  0  0  0  0  0  0
   61.5717   28.0982   46.0831 H   0  0  0  0  0  0  0  0  0  0  0  0
   59.8210   27.8240   44.8410 C   0  0  0  0  0  0  0  0  0  0  0  0
   60.2448   26.9562   44.3143 H   0  0  0  0  0  0  0  0  0  0  0  0
   58.5390   28.2750   44.5160 C   0  0  0  0  0  0  0  0  0  0  0  0
   57.8500   27.6240   43.5440 F   0  0  0  0  0  0  0  0  0  0  0  0
   58.1300   32.7720   44.1050 C   0  0  0  0  0  0  0  0  0  0  0  0
   58.2715   32.3228   43.1109 H   0  0  0  0  0  0  0  0  0  0  0  0
   58.9260   33.8460   44.5120 C   0  0  0  0  0  0  0  0  0  0  0  0
   59.8770   34.3390   43.6820 F   0  0  0  0  0  0  0  0  0  0  0  0
   58.7400   34.4080   45.7760 C   0  0  0  0  0  0  0  0  0  0  0  0
   59.3629   35.2524   46.1060 H   0  0  0  0  0  0  0  0  0  0  0  0
  1  2  1  0
  2  3  1  0
  3  4  1  0
  4  5  2  0
  5  6  1  0
  6  7  2  0
  6  8  1  0
  8  9  2  0
  9 10  1  0
  9 11  1  0
 11 12  1  0
 12 13  1  0
 13 14  2  0
 14 15  1  0
 14 16  1  0
 16 17  1  0
 16 18  2  0
 18 19  1  0
 18 20  1  0
 20 21  1  0
 20 22  2  0
 22 23  1  0
 11 24  2  0
 24 25  1  0
 24 26  1  0
 26 27  1  0
 26 28  2  0
 28 29  1  0
  4 30  1  0
 30 31  1  0
 30 32  2  0
 32 33  1  0
 32 34  1  0
 34 35  1  0
 34  2  2  0
 28  8  1  0
 22 13  1  0
M  CHG  2   3  -1  20   1
M  END
>  <UniqueID>  (25) 
22

>  <SMILES>  (25) 
O=C(/N=c1/cc(F)cc[n-]1)c1cc(Oc2ccc[nH+]c2)ccc1F

>  <Energy>  (25) 
49.7211374687841

>  <Genealogy>  (25) 
O=C(N=c1cc(F)cc[n-]1)c1cc(Oc2ccc[nH+]c2)ccc1F (protonated)
O=C(/N=c1/cc(F)cc[n-]1)c1cc(Oc2ccc[nH+]c2)ccc1F (cis-trans isomerization)
O=C(/N=c1/cc(F)cc[n-]1)c1cc(Oc2ccc[nH+]c2)ccc1F (3D coordinates assigned)
O=C(/N=c1/cc(F)cc[n-]1)c1cc(Oc2ccc[nH+]c2)ccc1F (optimized conformer: 49.7211374687841 kcal/mol)

>  <smiles>  (25) 
O=C(N=c1cc(F)cc[nH]1)c1cc(Oc2cccnc2)ccc1F

>  <score_type>  (25) 
oracle

>  <origin>  (25) 
adg

>  <m_score__min__energy>  (25) 
-7.9299999999999997

>  <m_primary>  (25) 
energy

$$$$
25:0
     RDKit          3D

 44 47  0  0  0  0  0  0  0  0999 V2000
   55.8190   28.9980   44.8630 O   0  0  0  0  0  0  0  0  0  0  0  0
   56.8630   28.6090   45.4530 C   0  0  0  0  0  0  0  0  0  0  0  0
   57.7800   29.6120   46.0240 C   0  0  0  0  0  0  0  0  0  0  0  0
   58.8370   29.3480   46.8770 C   0  0  0  0  0  0  0  0  0  0  0  0
   59.4270   30.5800   47.0890 C   0  0  0  0  0  0  0  0  0  0  0  0
   60.6550   30.8190   47.8830 C   0  0  0  0  0  0  0  0  0  0  0  0
   61.7450   31.0470   47.3000 O   0  0  0  0  0  0  0  0  0  0  0  0
   60.6230   30.8620   49.3160 N   0  0  0  0  0  0  0  0  0  0  0  0
   59.4450   30.8210   50.1330 C   0  0  0  0  0  0  0  0  0  0  0  0
   58.6260   31.9560   50.1990 C   0  0  0  0  0  0  0  0  0  0  0  0
   57.4780   31.9520   50.9970 C   0  0  0  0  0  0  0  0  0  0  0  0
   57.1500   30.8190   51.7490 C   0  0  0  0  0  0  0  0  0  0  0  0
   56.0080   30.8160   52.5410 O   0  0  0  0  0  0  0  0  0  0  0  0
   57.9750   29.6920   51.7070 C   0  0  0  0  0  0  0  0  0  0  0  0
   59.1240   29.6930   50.9100 C   0  0  0  0  0  0  0  0  0  0  0  0
   58.7290   31.5110   46.3970 N   0  0  0  0  0  0  0  0  0  0  0  0
   59.0040   32.9120   46.2900 C   0  0  0  0  0  0  0  0  0  0  0  0
   58.9400   33.5550   45.0440 C   0  0  0  0  0  0  0  0  0  0  0  0
   59.2420   34.9160   44.9400 C   0  0  0  0  0  0  0  0  0  0  0  0
   59.6230   35.6370   46.0760 C   0  0  0  0  0  0  0  0  0  0  0  0
   59.7070   34.9960   47.3150 C   0  0  0  0  0  0  0  0  0  0  0  0
   59.4050   33.6350   47.4220 C   0  0  0  0  0  0  0  0  0  0  0  0
   57.7430   30.9270   45.7350 N   0  0  0  0  0  0  0  0  0  0  0  0
   57.1110   27.1580   45.5980 C   0  0  0  0  0  0  0  0  0  0  0  0
   58.4230   26.6700   45.4680 C   0  0  0  0  0  0  0  0  0  0  0  0
   58.6840   25.3030   45.5940 C   0  0  0  0  0  0  0  0  0  0  0  0
   57.6430   24.4120   45.8630 C   0  0  0  0  0  0  0  0  0  0  0  0
   56.3390   24.8870   46.0160 C   0  0  0  0  0  0  0  0  0  0  0  0
   56.0690   26.2550   45.8970 C   0  0  0  0  0  0  0  0  0  0  0  0
   54.7690   26.7070   46.1040 O   0  0  0  0  0  0  0  0  0  0  0  0
   59.1399   28.3758   47.2931 H   0  0  0  0  0  0  0  0  0  0  0  0
   58.8874   32.8542   49.6204 H   0  0  0  0  0  0  0  0  0  0  0  0
   56.8316   32.8413   51.0336 H   0  0  0  0  0  0  0  0  0  0  0  0
   57.7202   28.8025   52.3019 H   0  0  0  0  0  0  0  0  0  0  0  0
   59.7787   28.8093   50.8905 H   0  0  0  0  0  0  0  0  0  0  0  0
   58.6516   32.9868   44.1474 H   0  0  0  0  0  0  0  0  0  0  0  0
   59.1799   35.4199   43.9642 H   0  0  0  0  0  0  0  0  0  0  0  0
   59.8566   36.7088   45.9944 H   0  0  0  0  0  0  0  0  0  0  0  0
   60.0111   35.5629   48.2072 H   0  0  0  0  0  0  0  0  0  0  0  0
   59.4822   33.1306   48.3965 H   0  0  0  0  0  0  0  0  0  0  0  0
   59.2487   27.3681   45.2660 H   0  0  0  0  0  0  0  0  0  0  0  0
   59.7119   24.9279   45.4810 H   0  0  0  0  0  0  0  0  0  0  0  0
   57.8504   23.3356   45.9544 H   0  0  0  0  0  0  0  0  0  0  0  0
   55.5211   24.1835   46.2308 H   0  0  0  0  0  0  0  0  0  0  0  0
  1  2  2  0
  2  3  1  0
  3  4  1  0
  4  5  2  0
  5  6  1  0
  6  7  2  0
  6  8  1  0
  8  9  1  0
  9 10  2  0
 10 11  1  0
 11 12  2  0
 12 13  1  0
 12 14  1  0
 14 15  2  0
  5 16  1  0
 16 17  1  0
 17 18  2  0
 18 19  1  0
 19 20  2  0
 20 21  1  0
 21 22  2  0
 16 23  1  0
  2 24  1  0
 24 25  2  0
 25 26  1  0
 26 27  2  0
 27 28  1  0
 28 29  2  0
 29 30  1  0
 23  3  2  0
 29 24  1  0
 15  9  1  0
 22 17  1  0
  4 31  1  0
 10 32  1  0
 11 33  1  0
 14 34  1  0
 15 35  1  0
 18 36  1  0
 19 37  1  0
 20 38  1  0
 21 39  1  0
 22 40  1  0
 25 41  1  0
 26 42  1  0
 27 43  1  0
 28 44  1  0
M  CHG  3   8  -1  13  -1  30  -1
M  END
>  <UniqueID>  (26) 
23

>  <SMILES>  (26) 
O=C(c1cc(C(=O)[N-]c2ccc([O-])cc2)n(-c2ccccc2)n1)c1ccccc1[O-]

>  <Energy>  (26) 
97.9521064922261

>  <Genealogy>  (26) 
O=C(c1cc(C(=O)[N-]c2ccc([O-])cc2)n(-c2ccccc2)n1)c1ccccc1[O-] (protonated)
O=C(c1cc(C(=O)[N-]c2ccc([O-])cc2)n(-c2ccccc2)n1)c1ccccc1[O-] (3D coordinates assigned)
O=C(c1cc(C(=O)[N-]c2ccc([O-])cc2)n(-c2ccccc2)n1)c1ccccc1[O-] (optimized conformer: 97.9521064922261 kcal/mol)

>  <smiles>  (26) 
O=C(c1cc(C(=O)Nc2ccc(O)cc2)n(-c2ccccc2)n1)c1ccccc1O

>  <score_type>  (26) 
oracle

>  <origin>  (26) 
adg

>  <m_score__min__energy>  (26) 
-14.390000000000001

>  <m_primary>  (26) 
energy

$$$$
26:0
     RDKit          3D

 44 46  0  0  0  0  0  0  0  0999 V2000
   58.5743   33.5889   42.1337 H   0  0  0  0  0  0  0  0  0  0  0  0
   58.1450   32.7200   42.6540 C   0  0  0  0  0  0  0  0  0  0  0  0
   57.5140   31.7130   41.9250 C   0  0  0  0  0  0  0  0  0  0  0  0
   57.4489   31.7866   40.8294 H   0  0  0  0  0  0  0  0  0  0  0  0
   56.9650   30.6120   42.5830 C   0  0  0  0  0  0  0  0  0  0  0  0
   56.4610   29.8269   42.0003 H   0  0  0  0  0  0  0  0  0  0  0  0
   57.0480   30.4930   43.9850 C   0  0  0  0  0  0  0  0  0  0  0  0
   56.4610   29.2940   44.6450 C   0  0  0  0  0  0  0  0  0  0  0  0
   55.2780   29.3280   45.0790 O   0  0  0  0  0  0  0  0  0  0  0  0
   57.2820   28.1370   44.8780 N   0  0  0  0  0  0  0  0  0  0  0  0
   58.1690   27.9280   45.8140 C   0  0  0  0  0  0  0  0  0  0  0  0
   59.1620   26.9300   45.7160 C   0  0  0  0  0  0  0  0  0  0  0  0
   59.2155   26.2880   44.8244 H   0  0  0  0  0  0  0  0  0  0  0  0
   60.0750   26.7630   46.7570 C   0  0  0  0  0  0  0  0  0  0  0  0
   60.8444   25.9795   46.6924 H   0  0  0  0  0  0  0  0  0  0  0  0
   60.0140   27.5860   47.8770 C   0  0  0  0  0  0  0  0  0  0  0  0
   60.7209   27.4448   48.7079 H   0  0  0  0  0  0  0  0  0  0  0  0
   59.0460   28.5950   47.9380 C   0  0  0  0  0  0  0  0  0  0  0  0
   58.9520   29.4740   49.1490 C   0  0  0  0  0  0  0  0  0  0  0  0
   59.0181   28.8561   50.0566 H   0  0  0  0  0  0  0  0  0  0  0  0
   59.7775   30.2009   49.1394 H   0  0  0  0  0  0  0  0  0  0  0  0
   57.9914   30.0099   49.1394 H   0  0  0  0  0  0  0  0  0  0  0  0
   58.1490   28.7340   46.9170 N   0  0  0  0  0  0  0  0  0  0  0  0
   57.4170   29.4780   46.9860 H   0  0  0  0  0  0  0  0  0  0  0  0
   57.7060   31.5120   44.7210 C   0  0  0  0  0  0  0  0  0  0  0  0
   57.7670   31.4440   46.1550 N   0  0  0  0  0  0  0  0  0  0  0  0
   58.4450   32.3630   47.0220 C   0  0  0  0  0  0  0  0  0  0  0  0
   57.7650   33.0450   47.8340 O   0  0  0  0  0  0  0  0  0  0  0  0
   59.9170   32.5190   47.0080 C   0  0  0  0  0  0  0  0  0  0  0  0
   60.7070   31.4090   47.3530 C   0  0  0  0  0  0  0  0  0  0  0  0
   60.2246   30.4486   47.5874 H   0  0  0  0  0  0  0  0  0  0  0  0
   62.0980   31.5140   47.4010 C   0  0  0  0  0  0  0  0  0  0  0  0
   62.7053   30.6396   47.6776 H   0  0  0  0  0  0  0  0  0  0  0  0
   62.7190   32.7250   47.0990 C   0  0  0  0  0  0  0  0  0  0  0  0
   63.8144   32.8095   47.1529 H   0  0  0  0  0  0  0  0  0  0  0  0
   61.9510   33.8310   46.7280 C   0  0  0  0  0  0  0  0  0  0  0  0
   62.4472   34.7838   46.4914 H   0  0  0  0  0  0  0  0  0  0  0  0
   60.5520   33.7390   46.6540 C   0  0  0  0  0  0  0  0  0  0  0  0
   59.7780   34.9500   46.2010 C   0  0  0  0  0  0  0  0  0  0  0  0
   59.4218   35.5074   47.0799 H   0  0  0  0  0  0  0  0  0  0  0  0
   60.4304   35.5970   45.5962 H   0  0  0  0  0  0  0  0  0  0  0  0
   58.9168   34.6296   45.5962 H   0  0  0  0  0  0  0  0  0  0  0  0
   58.2320   32.6260   44.0420 C   0  0  0  0  0  0  0  0  0  0  0  0
   58.7172   33.4316   44.6125 H   0  0  0  0  0  0  0  0  0  0  0  0
  1  2  1  0
  2  3  2  0
  3  4  1  0
  3  5  1  0
  5  6  1  0
  5  7  2  0
  7  8  1  0
  8  9  2  0
  8 10  1  0
 10 11  2  0
 11 12  1  0
 12 13  1  0
 12 14  2  0
 14 15  1  0
 14 16  1  0
 16 17  1  0
 16 18  2  0
 18 19  1  0
 19 20  1  0
 19 21  1  0
 19 22  1  0
 18 23  1  0
 23 24  1  0
  7 25  1  0
 25 26  1  0
 26 27  1  0
 27 28  2  0
 27 29  1  0
 29 30  2  0
 30 31  1  0
 30 32  1  0
 32 33  1  0
 32 34  2  0
 34 35  1  0
 34 36  1  0
 36 37  1  0
 36 38  2  0
 38 39  1  0
 39 40  1  0
 39 41  1  0
 39 42  1  0
 25 43  2  0
 43 44  1  0
 43  2  1  0
 23 11  1  0
 38 29  1  0
M  CHG  1  26  -1
M  END
>  <UniqueID>  (27) 
24

>  <SMILES>  (27) 
Cc1ccc/c(=N\C(=O)c2ccccc2[N-]C(=O)c2ccccc2C)[nH]1

>  <Energy>  (27) 
66.17918117515237

>  <Genealogy>  (27) 
Cc1cccc(=NC(=O)c2ccccc2[N-]C(=O)c2ccccc2C)[nH]1 (protonated)
Cc1ccc/c(=N\C(=O)c2ccccc2[N-]C(=O)c2ccccc2C)[nH]1 (cis-trans isomerization)
Cc1ccc/c(=N\C(=O)c2ccccc2[N-]C(=O)c2ccccc2C)[nH]1 (3D coordinates assigned)
Cc1ccc/c(=N\C(=O)c2ccccc2[N-]C(=O)c2ccccc2C)[nH]1 (optimized conformer: 66.17918117515237 kcal/mol)

>  <smiles>  (27) 
Cc1cccc(=NC(=O)c2ccccc2NC(=O)c2ccccc2C)[nH]1

>  <score_type>  (27) 
oracle

>  <origin>  (27) 
adg

>  <m_score__min__energy>  (27) 
-11.31

>  <m_primary>  (27) 
energy

$$$$
27:0
     RDKit          3D

 43 45  0  0  0  0  0  0  0  0999 V2000
   55.5220   28.9530   45.0830 O   0  0  0  0  0  0  0  0  0  0  0  0
   56.2690   29.7000   44.3970 C   0  0  0  0  0  0  0  0  0  0  0  0
   57.2070   29.0920   43.4320 C   0  0  0  0  0  0  0  0  0  0  0  0
   58.1170   28.1540   43.7400 C   0  0  0  0  0  0  0  0  0  0  0  0
   58.2780   27.5610   45.0850 C   0  0  0  0  0  0  0  0  0  0  0  0
   57.4120   26.5290   45.4750 C   0  0  0  0  0  0  0  0  0  0  0  0
   57.5700   25.9070   46.7180 C   0  0  0  0  0  0  0  0  0  0  0  0
   58.5840   26.3210   47.5850 C   0  0  0  0  0  0  0  0  0  0  0  0
   59.4340   27.3680   47.2170 C   0  0  0  0  0  0  0  0  0  0  0  0
   59.2820   27.9980   45.9760 C   0  0  0  0  0  0  0  0  0  0  0  0
   60.3550   29.3370   45.5790 Cl  0  0  0  0  0  0  0  0  0  0  0  0
   56.1530   31.1240   44.4980 N   0  0  0  0  0  0  0  0  0  0  0  0
   57.1460   32.0340   44.9890 C   0  0  0  0  0  0  0  0  0  0  0  0
   57.7930   31.7240   46.1880 C   0  0  0  0  0  0  0  0  0  0  0  0
   58.6770   32.6320   46.7730 C   0  0  0  0  0  0  0  0  0  0  0  0
   58.9170   33.8770   46.1690 C   0  0  0  0  0  0  0  0  0  0  0  0
   59.7940   34.8770   46.8200 C   0  0  0  0  0  0  0  0  0  0  0  0
   60.0180   35.9730   46.2430 O   0  0  0  0  0  0  0  0  0  0  0  0
   60.4210   34.6190   48.0840 N   0  0  0  0  0  0  0  0  0  0  0  0
   61.4650   33.6610   48.3220 C   0  0  0  0  0  0  0  0  0  0  0  0
   61.3950   32.8660   49.4730 C   0  0  0  0  0  0  0  0  0  0  0  0
   62.4030   31.9410   49.7570 C   0  0  0  0  0  0  0  0  0  0  0  0
   63.4810   31.7910   48.8830 C   0  0  0  0  0  0  0  0  0  0  0  0
   63.5450   32.5530   47.7140 C   0  0  0  0  0  0  0  0  0  0  0  0
   62.5340   33.4800   47.4180 C   0  0  0  0  0  0  0  0  0  0  0  0
   62.5800   34.1950   46.2220 O   0  0  0  0  0  0  0  0  0  0  0  0
   58.2920   34.1780   44.9490 C   0  0  0  0  0  0  0  0  0  0  0  0
   57.3990   33.2690   44.3690 C   0  0  0  0  0  0  0  0  0  0  0  0
   57.1566   29.4316   42.3869 H   0  0  0  0  0  0  0  0  0  0  0  0
   58.7860   27.8040   42.9401 H   0  0  0  0  0  0  0  0  0  0  0  0
   56.6049   26.2072   44.8004 H   0  0  0  0  0  0  0  0  0  0  0  0
   56.8946   25.0905   47.0132 H   0  0  0  0  0  0  0  0  0  0  0  0
   58.7136   25.8231   48.5573 H   0  0  0  0  0  0  0  0  0  0  0  0
   60.2257   27.6983   47.9055 H   0  0  0  0  0  0  0  0  0  0  0  0
   57.6040   30.7560   46.6751 H   0  0  0  0  0  0  0  0  0  0  0  0
   59.1881   32.3713   47.7115 H   0  0  0  0  0  0  0  0  0  0  0  0
   60.5407   32.9706   50.1580 H   0  0  0  0  0  0  0  0  0  0  0  0
   62.3470   31.3304   50.6702 H   0  0  0  0  0  0  0  0  0  0  0  0
   64.2807   31.0722   49.1150 H   0  0  0  0  0  0  0  0  0  0  0  0
   64.3912   32.4259   47.0228 H   0  0  0  0  0  0  0  0  0  0  0  0
   61.8730   34.8780   45.9830 H   0  0  0  0  0  0  0  0  0  0  0  0
   58.5048   35.1328   44.4460 H   0  0  0  0  0  0  0  0  0  0  0  0
   56.8941   33.5225   43.4252 H   0  0  0  0  0  0  0  0  0  0  0  0
  1  2  2  0
  2  3  1  0
  3  4  2  3
  4  5  1  0
  5  6  2  0
  6  7  1  0
  7  8  2  0
  8  9  1  0
  9 10  2  0
 10 11  1  0
  2 12  1  0
 12 13  1  0
 13 14  2  0
 14 15  1  0
 15 16  2  0
 16 17  1  0
 17 18  2  0
 17 19  1  0
 19 20  1  0
 20 21  2  0
 21 22  1  0
 22 23  2  0
 23 24  1  0
 24 25  2  0
 25 26  1  0
 16 27  1  0
 27 28  2  0
 10  5  1  0
 28 13  1  0
 25 20  1  0
  3 29  1  0
  4 30  1  0
  6 31  1  0
  7 32  1  0
  8 33  1  0
  9 34  1  0
 14 35  1  0
 15 36  1  0
 21 37  1  0
 22 38  1  0
 23 39  1  0
 24 40  1  0
 26 41  1  0
 27 42  1  0
 28 43  1  0
M  CHG  2  12  -1  19  -1
M  END
>  <UniqueID>  (28) 
25

>  <SMILES>  (28) 
O=C(C=Cc1ccccc1Cl)[N-]c1ccc(C(=O)[N-]c2ccccc2O)cc1

>  <Energy>  (28) 
64.09309386119591

>  <Genealogy>  (28) 
O=C(C=Cc1ccccc1Cl)[N-]c1ccc(C(=O)[N-]c2ccccc2O)cc1 (protonated)
O=C(C=Cc1ccccc1Cl)[N-]c1ccc(C(=O)[N-]c2ccccc2O)cc1 (3D coordinates assigned)
O=C(C=Cc1ccccc1Cl)[N-]c1ccc(C(=O)[N-]c2ccccc2O)cc1 (optimized conformer: 64.09309386119591 kcal/mol)

>  <smiles>  (28) 
O=C(C=Cc1ccccc1Cl)Nc1ccc(C(=O)Nc2ccccc2O)cc1

>  <score_type>  (28) 
oracle

>  <origin>  (28) 
adg

>  <m_score__min__energy>  (28) 
-12.109999999999999

>  <m_primary>  (28) 
energy

$$$$
28:0
     RDKit          3D

 46 49  0  0  0  0  0  0  0  0999 V2000
   57.6610   25.5340   43.9200 C   0  0  0  0  0  0  0  0  0  0  0  0
   56.6430   24.7070   44.6950 C   0  0  0  0  0  0  0  0  0  0  0  0
   56.1640   25.5320   46.2040 S   0  0  0  0  0  0  0  0  0  0  0  0
   54.9140   26.3330   45.9750 O   0  0  0  0  0  0  0  0  0  0  0  0
   55.8970   24.5160   47.2790 O   0  0  0  0  0  0  0  0  0  0  0  0
   57.4670   26.6000   46.7110 C   0  0  0  0  0  0  0  0  0  0  0  0
   58.5350   26.1010   47.4700 C   0  0  0  0  0  0  0  0  0  0  0  0
   59.5800   26.9450   47.8620 C   0  0  0  0  0  0  0  0  0  0  0  0
   59.5680   28.2960   47.4890 C   0  0  0  0  0  0  0  0  0  0  0  0
   60.5690   29.1390   47.8670 N   0  0  0  0  0  0  0  0  0  0  0  0
   60.5600   30.4600   47.5180 C   0  0  0  0  0  0  0  0  0  0  0  0
   61.6320   31.3440   48.0340 C   0  0  0  0  0  0  0  0  0  0  0  0
   61.6270   31.7740   49.3720 C   0  0  0  0  0  0  0  0  0  0  0  0
   62.6450   32.6050   49.8500 C   0  0  0  0  0  0  0  0  0  0  0  0
   63.6810   33.0020   49.0010 C   0  0  0  0  0  0  0  0  0  0  0  0
   63.7030   32.5660   47.6730 C   0  0  0  0  0  0  0  0  0  0  0  0
   62.6860   31.7360   47.1910 C   0  0  0  0  0  0  0  0  0  0  0  0
   59.4990   30.9510   46.7130 C   0  0  0  0  0  0  0  0  0  0  0  0
   59.4430   32.3440   46.2140 C   0  0  0  0  0  0  0  0  0  0  0  0
   59.9410   33.3900   47.0080 C   0  0  0  0  0  0  0  0  0  0  0  0
   59.8830   34.7110   46.5520 C   0  0  0  0  0  0  0  0  0  0  0  0
   59.3160   34.9980   45.3070 C   0  0  0  0  0  0  0  0  0  0  0  0
   59.2600   36.2800   44.8670 F   0  0  0  0  0  0  0  0  0  0  0  0
   58.8000   33.9650   44.5200 C   0  0  0  0  0  0  0  0  0  0  0  0
   58.8540   32.6440   44.9730 C   0  0  0  0  0  0  0  0  0  0  0  0
   58.4990   30.1010   46.3540 N   0  0  0  0  0  0  0  0  0  0  0  0
   58.5000   28.7960   46.7200 C   0  0  0  0  0  0  0  0  0  0  0  0
   57.4570   27.9500   46.3310 C   0  0  0  0  0  0  0  0  0  0  0  0
   58.3155   26.0657   44.6263 H   0  0  0  0  0  0  0  0  0  0  0  0
   58.2676   24.8696   43.2870 H   0  0  0  0  0  0  0  0  0  0  0  0
   57.1350   26.2638   43.2870 H   0  0  0  0  0  0  0  0  0  0  0  0
   55.7512   24.5556   44.0691 H   0  0  0  0  0  0  0  0  0  0  0  0
   57.1006   23.7408   44.9539 H   0  0  0  0  0  0  0  0  0  0  0  0
   58.5515   25.0398   47.7590 H   0  0  0  0  0  0  0  0  0  0  0  0
   60.4113   26.5480   48.4632 H   0  0  0  0  0  0  0  0  0  0  0  0
   61.3480   28.7720   48.4620 H   0  0  0  0  0  0  0  0  0  0  0  0
   60.8185   31.4554   50.0464 H   0  0  0  0  0  0  0  0  0  0  0  0
   62.6301   32.9465   50.8956 H   0  0  0  0  0  0  0  0  0  0  0  0
   64.4797   33.6579   49.3776 H   0  0  0  0  0  0  0  0  0  0  0  0
   64.5212   32.8762   47.0064 H   0  0  0  0  0  0  0  0  0  0  0  0
   62.7111   31.3885   46.1477 H   0  0  0  0  0  0  0  0  0  0  0  0
   60.3786   33.1694   47.9928 H   0  0  0  0  0  0  0  0  0  0  0  0
   60.2840   35.5250   47.1738 H   0  0  0  0  0  0  0  0  0  0  0  0
   58.3504   34.1920   43.5421 H   0  0  0  0  0  0  0  0  0  0  0  0
   58.4341   31.8358   44.3562 H   0  0  0  0  0  0  0  0  0  0  0  0
   56.6272   28.3439   45.7259 H   0  0  0  0  0  0  0  0  0  0  0  0
  1  2  1  0
  2  3  1  0
  3  4  2  0
  3  5  2  0
  3  6  1  0
  6  7  2  0
  7  8  1  0
  8  9  2  0
  9 10  1  0
 10 11  2  0
 11 12  1  0
 12 13  2  0
 13 14  1  0
 14 15  2  0
 15 16  1  0
 16 17  2  0
 11 18  1  0
 18 19  1  0
 19 20  2  0
 20 21  1  0
 21 22  2  0
 22 23  1  0
 22 24  1  0
 24 25  2  0
 18 26  2  0
 26 27  1  0
 27 28  2  0
 28  6  1  0
 27  9  1  0
 17 12  1  0
 25 19  1  0
  1 29  1  0
  1 30  1  0
  1 31  1  0
  2 32  1  0
  2 33  1  0
  7 34  1  0
  8 35  1  0
 10 36  1  0
 13 37  1  0
 14 38  1  0
 15 39  1  0
 16 40  1  0
 17 41  1  0
 20 42  1  0
 21 43  1  0
 24 44  1  0
 25 45  1  0
 28 46  1  0
M  CHG  1  10   1
M  END
>  <UniqueID>  (29) 
26

>  <SMILES>  (29) 
CCS(=O)(=O)c1ccc2[nH+]c(-c3ccccc3)c(-c3ccc(F)cc3)nc2c1

>  <Energy>  (29) 
60.79099850627056

>  <Genealogy>  (29) 
CCS(=O)(=O)c1ccc2[nH+]c(-c3ccccc3)c(-c3ccc(F)cc3)nc2c1 (protonated)
CCS(=O)(=O)c1ccc2[nH+]c(-c3ccccc3)c(-c3ccc(F)cc3)nc2c1 (3D coordinates assigned)
CCS(=O)(=O)c1ccc2[nH+]c(-c3ccccc3)c(-c3ccc(F)cc3)nc2c1 (optimized conformer: 60.79099850627056 kcal/mol)

>  <smiles>  (29) 
CCS(=O)(=O)c1ccc2nc(-c3ccccc3)c(-c3ccc(F)cc3)nc2c1

>  <score_type>  (29) 
oracle

>  <origin>  (29) 
adg

>  <m_score__min__energy>  (29) 
-7.7800000000000002

>  <m_primary>  (29) 
energy

$$$$
29:0
     RDKit          3D

 33 35  0  0  0  0  0  0  0  0999 V2000
   59.9320   30.8000   48.7930 O   0  0  0  0  0  0  0  0  0  0  0  0
   60.6980   30.8300   47.7940 C   0  0  0  0  0  0  0  0  0  0  0  0
   61.6100   32.0160   47.6110 C   0  0  0  0  0  0  0  0  0  0  0  0
   60.8830   33.2430   47.6370 O   0  0  0  0  0  0  0  0  0  0  0  0
   59.7250   33.5200   46.8940 C   0  0  0  0  0  0  0  0  0  0  0  0
   59.8710   34.1450   45.6490 C   0  0  0  0  0  0  0  0  0  0  0  0
   58.7490   34.4530   44.8740 C   0  0  0  0  0  0  0  0  0  0  0  0
   57.4700   34.1330   45.3360 C   0  0  0  0  0  0  0  0  0  0  0  0
   57.3120   33.5040   46.5740 C   0  0  0  0  0  0  0  0  0  0  0  0
   58.4320   33.1960   47.3520 C   0  0  0  0  0  0  0  0  0  0  0  0
   60.6650   29.7390   46.8640 N   0  0  0  0  0  0  0  0  0  0  0  0
   59.7050   28.6790   46.8970 C   0  0  0  0  0  0  0  0  0  0  0  0
   60.0190   27.5170   47.6030 C   0  0  0  0  0  0  0  0  0  0  0  0
   59.1330   26.4460   47.6340 C   0  0  0  0  0  0  0  0  0  0  0  0
   57.9050   26.5280   46.9650 C   0  0  0  0  0  0  0  0  0  0  0  0
   57.0220   25.4450   46.9950 C   0  0  0  0  0  0  0  0  0  0  0  0
   55.8330   25.5310   46.3530 N   0  0  0  0  0  0  0  0  0  0  0  0
   55.4800   26.6290   45.6870 N   0  0  0  0  0  0  0  0  0  0  0  0
   56.2860   27.7190   45.6140 C   0  0  0  0  0  0  0  0  0  0  0  0
   55.8870   28.7160   44.9590 O   0  0  0  0  0  0  0  0  0  0  0  0
   57.5470   27.7070   46.2630 C   0  0  0  0  0  0  0  0  0  0  0  0
   58.4590   28.8000   46.2450 C   0  0  0  0  0  0  0  0  0  0  0  0
   58.0740   30.3510   45.4850 Cl  0  0  0  0  0  0  0  0  0  0  0  0
   62.3535   32.0237   48.4217 H   0  0  0  0  0  0  0  0  0  0  0  0
   62.1008   31.9262   46.6307 H   0  0  0  0  0  0  0  0  0  0  0  0
   60.8760   34.3953   45.2783 H   0  0  0  0  0  0  0  0  0  0  0  0
   58.8734   34.9478   43.8995 H   0  0  0  0  0  0  0  0  0  0  0  0
   56.5877   34.3760   44.7257 H   0  0  0  0  0  0  0  0  0  0  0  0
   56.3049   33.2509   46.9368 H   0  0  0  0  0  0  0  0  0  0  0  0
   58.3037   32.6991   48.3249 H   0  0  0  0  0  0  0  0  0  0  0  0
   60.9765   27.4477   48.1400 H   0  0  0  0  0  0  0  0  0  0  0  0
   59.3971   25.5316   48.1855 H   0  0  0  0  0  0  0  0  0  0  0  0
   57.2918   24.5270   47.5377 H   0  0  0  0  0  0  0  0  0  0  0  0
  1  2  2  0
  2  3  1  0
  3  4  1  0
  4  5  1  0
  5  6  2  0
  6  7  1  0
  7  8  2  0
  8  9  1  0
  9 10  2  0
  2 11  1  0
 11 12  1  0
 12 13  2  0
 13 14  1  0
 14 15  2  0
 15 16  1  0
 16 17  2  0
 17 18  1  0
 18 19  1  0
 19 20  2  0
 19 21  1  0
 21 22  2  0
 22 23  1  0
 10  5  1  0
 22 12  1  0
 21 15  1  0
  3 24  1  0
  3 25  1  0
  6 26  1  0
  7 27  1  0
  8 28  1  0
  9 29  1  0
 10 30  1  0
 13 31  1  0
 14 32  1  0
 16 33  1  0
M  CHG  2  11  -1  18  -1
M  END
>  <UniqueID>  (30) 
27

>  <SMILES>  (30) 
O=C(COc1ccccc1)[N-]c1ccc2cn[n-]c(=O)c2c1Cl

>  <Energy>  (30) 
51.842829804496496

>  <Genealogy>  (30) 
O=C(COc1ccccc1)[N-]c1ccc2cn[n-]c(=O)c2c1Cl (protonated)
O=C(COc1ccccc1)[N-]c1ccc2cn[n-]c(=O)c2c1Cl (3D coordinates assigned)
O=C(COc1ccccc1)[N-]c1ccc2cn[n-]c(=O)c2c1Cl (optimized conformer: 51.842829804496496 kcal/mol)

>  <smiles>  (30) 
O=C(COc1ccccc1)Nc1ccc2cn[nH]c(=O)c2c1Cl

>  <score_type>  (30) 
oracle

>  <origin>  (30) 
adg

>  <m_score__min__energy>  (30) 
-10.17

>  <m_primary>  (30) 
energy

$$$$
30:0
     RDKit          3D

 44 47  0  0  0  0  0  0  0  0999 V2000
   51.0280   32.6680   51.5190 N   0  0  0  0  0  0  0  0  0  0  0  0
   51.7360   31.5200   51.0560 C   0  0  0  0  0  0  0  0  0  0  0  0
   51.2900   30.8830   50.0620 O   0  0  0  0  0  0  0  0  0  0  0  0
   52.9800   31.0780   51.7290 C   0  0  0  0  0  0  0  0  0  0  0  0
   53.0110   30.8720   53.1170 C   0  0  0  0  0  0  0  0  0  0  0  0
   54.1870   30.4560   53.7420 C   0  0  0  0  0  0  0  0  0  0  0  0
   55.3490   30.2510   52.9710 C   0  0  0  0  0  0  0  0  0  0  0  0
   56.4750   29.8520   53.4920 N   0  0  0  0  0  0  0  0  0  0  0  0
   57.6600   29.4570   52.7820 C   0  0  0  0  0  0  0  0  0  0  0  0
   58.1750   30.2920   51.7920 C   0  0  0  0  0  0  0  0  0  0  0  0
   59.3490   29.9250   51.1160 C   0  0  0  0  0  0  0  0  0  0  0  0
   59.9220   30.7750   50.0380 C   0  0  0  0  0  0  0  0  0  0  0  0
   59.1570   30.9280   48.8760 C   0  0  0  0  0  0  0  0  0  0  0  0
   59.4020   31.6800   47.7250 C   0  0  0  0  0  0  0  0  0  0  0  0
   58.3860   31.6610   46.7020 N   0  0  0  0  0  0  0  0  0  0  0  0
   57.9050   32.8260   45.9650 C   0  0  0  0  0  0  0  0  0  0  0  0
   57.0190   32.2540   44.8310 C   0  0  0  0  0  0  0  0  0  0  0  0
   57.0390   30.8420   45.0030 O   0  0  0  0  0  0  0  0  0  0  0  0
   57.8320   30.5200   46.0780 C   0  0  0  0  0  0  0  0  0  0  0  0
   58.0170   29.3390   46.4760 O   0  0  0  0  0  0  0  0  0  0  0  0
   60.5470   32.4310   47.4540 C   0  0  0  0  0  0  0  0  0  0  0  0
   61.6990   32.6260   48.2120 C   0  0  0  0  0  0  0  0  0  0  0  0
   62.9200   33.6510   47.4440 Cl  0  0  0  0  0  0  0  0  0  0  0  0
   61.9940   32.1290   49.4860 C   0  0  0  0  0  0  0  0  0  0  0  0
   63.1100   32.4490   49.9820 O   0  0  0  0  0  0  0  0  0  0  0  0
   61.1870   31.3200   50.2840 C   0  0  0  0  0  0  0  0  0  0  0  0
   59.9790   28.7730   51.4770 N   0  0  0  0  0  0  0  0  0  0  0  0
   59.5080   27.9880   52.4480 N   0  0  0  0  0  0  0  0  0  0  0  0
   58.3700   28.2960   53.1210 C   0  0  0  0  0  0  0  0  0  0  0  0
   57.9740   27.5440   54.0520 O   0  0  0  0  0  0  0  0  0  0  0  0
   55.2900   30.4460   51.6270 N   0  0  0  0  0  0  0  0  0  0  0  0
   54.1550   30.8500   50.9960 C   0  0  0  0  0  0  0  0  0  0  0  0
   51.4210   33.6270   51.3970 H   0  0  0  0  0  0  0  0  0  0  0  0
   52.1032   31.0394   53.7153 H   0  0  0  0  0  0  0  0  0  0  0  0
   54.2072   30.2891   54.8291 H   0  0  0  0  0  0  0  0  0  0  0  0
   57.6641   31.2335   51.5418 H   0  0  0  0  0  0  0  0  0  0  0  0
   58.2114   30.3660   48.8681 H   0  0  0  0  0  0  0  0  0  0  0  0
   57.3144   33.4810   46.6224 H   0  0  0  0  0  0  0  0  0  0  0  0
   58.7334   33.4336   45.5717 H   0  0  0  0  0  0  0  0  0  0  0  0
   55.9912   32.6365   44.9171 H   0  0  0  0  0  0  0  0  0  0  0  0
   57.3901   32.5477   43.8380 H   0  0  0  0  0  0  0  0  0  0  0  0
   60.5380   32.9529   46.4857 H   0  0  0  0  0  0  0  0  0  0  0  0
   61.6137   31.0694   51.2664 H   0  0  0  0  0  0  0  0  0  0  0  0
   54.1579   30.9988   49.9061 H   0  0  0  0  0  0  0  0  0  0  0  0
  1  2  1  0
  2  3  2  0
  2  4  1  0
  4  5  1  0
  5  6  2  0
  6  7  1  0
  7  8  2  3
  8  9  1  0
  9 10  2  0
 10 11  1  0
 11 12  1  0
 12 13  1  0
 13 14  2  0
 14 15  1  0
 15 16  1  0
 16 17  1  0
 17 18  1  0
 18 19  1  0
 19 20  2  0
 14 21  1  0
 21 22  2  0
 22 23  1  0
 22 24  1  0
 24 25  2  0
 24 26  1  0
 11 27  2  0
 27 28  1  0
 28 29  1  0
 29 30  2  0
  7 31  1  0
 31 32  1  0
 32  4  2  0
 29  9  1  0
 26 12  2  0
 19 15  1  0
  1 33  1  0
  5 34  1  0
  6 35  1  0
 10 36  1  0
 13 37  1  0
 16 38  1  0
 16 39  1  0
 17 40  1  0
 17 41  1  0
 21 42  1  0
 26 43  1  0
 32 44  1  0
M  CHG  3   1  -1  28  -1  31  -1
M  END
>  <UniqueID>  (31) 
28

>  <SMILES>  (31) 
[NH-]C(=O)c1ccc(=Nc2cc(-c3cc(N4CCOC4=O)cc(Cl)c(=O)c3)n[n-]c2=O)[n-]c1

>  <Energy>  (31) 
108.7102692050381

>  <Genealogy>  (31) 
[NH-]C(=O)c1ccc(=Nc2cc(-c3cc(N4CCOC4=O)cc(Cl)c(=O)c3)n[n-]c2=O)[n-]c1 (protonated)
[NH-]C(=O)c1ccc(=Nc2cc(-c3cc(N4CCOC4=O)cc(Cl)c(=O)c3)n[n-]c2=O)[n-]c1 (3D coordinates assigned)
[NH-]C(=O)c1ccc(=Nc2cc(-c3cc(N4CCOC4=O)cc(Cl)c(=O)c3)n[n-]c2=O)[n-]c1 (nonaromatic ring conformer: 108.7102692050381 kcal/mol)

>  <smiles>  (31) 
NC(=O)c1ccc(=Nc2cc(-c3cc(N4CCOC4=O)cc(Cl)c(=O)c3)n[nH]c2=O)[nH]c1

>  <score_type>  (31) 
oracle

>  <origin>  (31) 
adg

>  <m_score__min__energy>  (31) 
-13.630000000000001

>  <m_primary>  (31) 
energy

$$$$
31:0
     RDKit          3D

 44 46  0  0  0  0  0  0  0  0999 V2000
   56.7080   21.5350   50.1690 C   0  0  0  0  0  0  0  0  0  0  0  0
   55.6820   22.2060   49.4460 O   0  0  0  0  0  0  0  0  0  0  0  0
   54.9320   21.6280   48.4130 C   0  0  0  0  0  0  0  0  0  0  0  0
   53.5770   21.2750   48.5680 C   0  0  0  0  0  0  0  0  0  0  0  0
   52.8750   20.7070   47.5030 C   0  0  0  0  0  0  0  0  0  0  0  0
   53.5130   20.4720   46.2830 C   0  0  0  0  0  0  0  0  0  0  0  0
   54.8640   20.8220   46.1130 C   0  0  0  0  0  0  0  0  0  0  0  0
   55.5550   20.6200   44.8730 N   0  0  0  0  0  0  0  0  0  0  0  0
   56.5250   21.8020   44.0570 S   0  0  0  0  0  0  0  0  0  0  0  0
   56.1430   21.8520   42.6050 O   0  0  0  0  0  0  0  0  0  0  0  0
   57.9670   21.3970   44.1710 O   0  0  0  0  0  0  0  0  0  0  0  0
   56.3230   23.3840   44.7900 C   0  0  0  0  0  0  0  0  0  0  0  0
   57.3400   24.1710   45.3230 C   0  0  0  0  0  0  0  0  0  0  0  0
   56.8760   25.4000   45.8120 C   0  0  0  0  0  0  0  0  0  0  0  0
   57.7190   26.4110   46.3820 N   0  0  0  0  0  0  0  0  0  0  0  0
   59.1370   26.4680   46.1690 C   0  0  0  0  0  0  0  0  0  0  0  0
   59.7850   25.4110   45.9530 O   0  0  0  0  0  0  0  0  0  0  0  0
   59.8720   27.7410   46.3030 C   0  0  0  0  0  0  0  0  0  0  0  0
   59.8360   28.7420   45.4070 C   0  0  0  0  0  0  0  0  0  0  0  0
   58.6040   29.3930   44.9160 C   0  0  0  0  0  0  0  0  0  0  0  0
   57.8230   28.7520   43.9460 C   0  0  0  0  0  0  0  0  0  0  0  0
   56.6480   29.3500   43.4890 C   0  0  0  0  0  0  0  0  0  0  0  0
   56.2520   30.5790   44.0210 C   0  0  0  0  0  0  0  0  0  0  0  0
   56.9980   31.1740   44.9860 N   0  0  0  0  0  0  0  0  0  0  0  0
   58.1470   30.6120   45.4460 C   0  0  0  0  0  0  0  0  0  0  0  0
   55.5090   25.5720   45.6270 C   0  0  0  0  0  0  0  0  0  0  0  0
   54.7810   26.6970   45.9960 O   0  0  0  0  0  0  0  0  0  0  0  0
   54.8570   24.2080   44.8920 S   0  0  0  0  0  0  0  0  0  0  0  0
   55.5620   21.3940   47.1840 C   0  0  0  0  0  0  0  0  0  0  0  0
   56.5314   21.6505   51.2486 H   0  0  0  0  0  0  0  0  0  0  0  0
   56.7012   20.4663   49.9086 H   0  0  0  0  0  0  0  0  0  0  0  0
   57.6844   21.9696   49.9086 H   0  0  0  0  0  0  0  0  0  0  0  0
   53.0712   21.4471   49.5295 H   0  0  0  0  0  0  0  0  0  0  0  0
   51.8141   20.4433   47.6255 H   0  0  0  0  0  0  0  0  0  0  0  0
   52.9570   20.0118   45.4529 H   0  0  0  0  0  0  0  0  0  0  0  0
   58.3950   23.8615   45.3568 H   0  0  0  0  0  0  0  0  0  0  0  0
   57.2860   27.1210   47.0090 H   0  0  0  0  0  0  0  0  0  0  0  0
   60.4934   27.8803   47.2000 H   0  0  0  0  0  0  0  0  0  0  0  0
   60.7957   29.1037   45.0094 H   0  0  0  0  0  0  0  0  0  0  0  0
   58.1360   27.7769   43.5444 H   0  0  0  0  0  0  0  0  0  0  0  0
   56.0390   28.8577   42.7165 H   0  0  0  0  0  0  0  0  0  0  0  0
   55.3346   31.0652   43.6576 H   0  0  0  0  0  0  0  0  0  0  0  0
   58.7225   31.1141   46.2376 H   0  0  0  0  0  0  0  0  0  0  0  0
   56.6210   21.6636   47.0582 H   0  0  0  0  0  0  0  0  0  0  0  0
  1  2  1  0
  2  3  1  0
  3  4  2  0
  4  5  1  0
  5  6  2  0
  6  7  1  0
  7  8  1  0
  8  9  1  0
  9 10  2  0
  9 11  2  0
  9 12  1  0
 12 13  2  0
 13 14  1  0
 14 15  1  0
 15 16  1  0
 16 17  2  0
 16 18  1  0
 18 19  2  3
 19 20  1  0
 20 21  2  0
 21 22  1  0
 22 23  2  0
 23 24  1  0
 24 25  2  0
 14 26  2  0
 26 27  1  0
 26 28  1  0
  7 29  2  0
 29  3  1  0
 28 12  1  0
 25 20  1  0
  1 30  1  0
  1 31  1  0
  1 32  1  0
  4 33  1  0
  5 34  1  0
  6 35  1  0
 13 36  1  0
 15 37  1  0
 18 38  1  0
 19 39  1  0
 21 40  1  0
 22 41  1  0
 23 42  1  0
 25 43  1  0
 29 44  1  0
M  CHG  2   8  -1  27  -1
M  END
>  <UniqueID>  (32) 
29

>  <SMILES>  (32) 
COc1cccc([N-]S(=O)(=O)c2cc(NC(=O)C=Cc3cccnc3)c([O-])s2)c1

>  <Energy>  (32) 
86.28543569821294

>  <Genealogy>  (32) 
COc1cccc([N-]S(=O)(=O)c2cc(NC(=O)C=Cc3cccnc3)c([O-])s2)c1 (protonated)
COc1cccc([N-]S(=O)(=O)c2cc(NC(=O)C=Cc3cccnc3)c([O-])s2)c1 (3D coordinates assigned)
COc1cccc([N-]S(=O)(=O)c2cc(NC(=O)C=Cc3cccnc3)c([O-])s2)c1 (optimized conformer: 86.28543569821294 kcal/mol)

>  <smiles>  (32) 
COc1cccc(NS(=O)(=O)c2cc(NC(=O)C=Cc3cccnc3)c(O)s2)c1

>  <score_type>  (32) 
oracle

>  <origin>  (32) 
adg

>  <m_score__min__energy>  (32) 
-14.380000000000001

>  <m_primary>  (32) 
energy

$$$$
32:0
     RDKit          3D

 61 63  0  0  0  0  0  0  0  0999 V2000
   59.6450   34.5570   48.2690 C   0  0  0  0  0  0  0  0  0  0  0  0
   59.6900   34.3120   46.7990 C   0  0  0  0  0  0  0  0  0  0  0  0
   59.6420   35.2870   45.9980 O   0  0  0  0  0  0  0  0  0  0  0  0
   59.8120   33.0000   46.3270 O   0  0  0  0  0  0  0  0  0  0  0  0
   59.2640   31.8660   47.0070 C   0  0  1  0  0  0  0  0  0  0  0  0
   58.3340   31.0540   46.0640 C   0  0  1  0  0  0  0  0  0  0  0  0
   57.5210   31.9520   45.1180 C   0  0  0  0  0  0  0  0  0  0  0  0
   56.2650   31.3570   44.7910 O   0  0  0  0  0  0  0  0  0  0  0  0
   56.1330   30.0510   44.3080 C   0  0  0  0  0  0  0  0  0  0  0  0
   56.8520   29.6330   43.3620 O   0  0  0  0  0  0  0  0  0  0  0  0
   55.1870   29.2070   44.8740 O   0  0  0  0  0  0  0  0  0  0  0  0
   59.0730   30.1270   45.2890 O   0  0  0  0  0  0  0  0  0  0  0  0
   59.6890   29.1060   46.0740 C   0  0  2  0  0  0  0  0  0  0  0  0
   58.9290   27.8550   45.9840 N   0  0  0  0  0  0  0  0  0  0  0  0
   58.7250   26.9360   46.9530 C   0  0  0  0  0  0  0  0  0  0  0  0
   57.9240   25.9610   46.4010 C   0  0  0  0  0  0  0  0  0  0  0  0
   57.3450   24.7710   47.0990 C   0  0  0  0  0  0  0  0  0  0  0  0
   57.8870   23.5410   46.5270 N   0  0  0  0  0  0  0  0  0  0  0  0
   57.5280   23.0700   45.2220 C   0  0  0  0  0  0  0  0  0  0  0  0
   56.6840   23.6780   44.4630 N   0  0  0  0  0  0  0  0  0  0  0  0
   56.5420   22.9440   43.2100 C   0  0  0  0  0  0  0  0  0  0  0  0
   57.4730   21.7260   43.3490 C   0  0  0  0  0  0  0  0  0  0  0  0
   58.0680   21.8920   44.6600 N   0  0  0  0  0  0  0  0  0  0  0  0
   57.6570   26.3220   45.1330 N   0  0  0  0  0  0  0  0  0  0  0  0
   58.2770   27.4670   44.8980 N   0  0  0  0  0  0  0  0  0  0  0  0
   60.0130   29.4930   47.5450 C   0  0  2  0  0  0  0  0  0  0  0  0
   58.8900   29.2440   48.3940 O   0  0  0  0  0  0  0  0  0  0  0  0
   58.9300   29.3510   49.7880 C   0  0  0  0  0  0  0  0  0  0  0  0
   60.1810   28.9770   50.5080 C   0  0  0  0  0  0  0  0  0  0  0  0
   57.9430   29.7970   50.4320 O   0  0  0  0  0  0  0  0  0  0  0  0
   60.4000   30.9840   47.5910 C   0  0  1  0  0  0  0  0  0  0  0  0
   61.6050   31.1880   46.8440 O   0  0  0  0  0  0  0  0  0  0  0  0
   62.5740   32.1390   47.1830 C   0  0  0  0  0  0  0  0  0  0  0  0
   63.3790   31.9540   48.4240 C   0  0  0  0  0  0  0  0  0  0  0  0
   62.7520   33.1630   46.4700 O   0  0  0  0  0  0  0  0  0  0  0  0
   59.8186   33.6116   48.8038 H   0  0  0  0  0  0  0  0  0  0  0  0
   60.4249   35.2823   48.5439 H   0  0  0  0  0  0  0  0  0  0  0  0
   58.6582   34.9579   48.5439 H   0  0  0  0  0  0  0  0  0  0  0  0
   58.6496   32.2215   47.8473 H   0  0  0  0  0  0  0  0  0  0  0  0
   57.6338   30.5183   46.7219 H   0  0  0  0  0  0  0  0  0  0  0  0
   57.3421   32.9202   45.6084 H   0  0  0  0  0  0  0  0  0  0  0  0
   58.0941   32.0868   44.1888 H   0  0  0  0  0  0  0  0  0  0  0  0
   60.6824   28.9573   45.6256 H   0  0  0  0  0  0  0  0  0  0  0  0
   59.1202   26.9614   47.9792 H   0  0  0  0  0  0  0  0  0  0  0  0
   57.5984   24.8175   48.1684 H   0  0  0  0  0  0  0  0  0  0  0  0
   56.2523   24.7759   46.9729 H   0  0  0  0  0  0  0  0  0  0  0  0
   58.5510   22.9700   47.0990 H   0  0  0  0  0  0  0  0  0  0  0  0
   55.5005   22.6195   43.0688 H   0  0  0  0  0  0  0  0  0  0  0  0
   56.8018   23.5632   42.3387 H   0  0  0  0  0  0  0  0  0  0  0  0
   56.9013   20.7878   43.2943 H   0  0  0  0  0  0  0  0  0  0  0  0
   58.2228   21.6705   42.5460 H   0  0  0  0  0  0  0  0  0  0  0  0
   58.7600   21.2510   45.1100 H   0  0  0  0  0  0  0  0  0  0  0  0
   57.0590   25.8150   44.4440 H   0  0  0  0  0  0  0  0  0  0  0  0
   60.8504   28.8791   47.9082 H   0  0  0  0  0  0  0  0  0  0  0  0
   60.0088   29.0285   51.5932 H   0  0  0  0  0  0  0  0  0  0  0  0
   60.4713   27.9528   50.2310 H   0  0  0  0  0  0  0  0  0  0  0  0
   60.9858   29.6738   50.2310 H   0  0  0  0  0  0  0  0  0  0  0  0
   60.5602   31.2744   48.6398 H   0  0  0  0  0  0  0  0  0  0  0  0
   62.7356   32.1019   49.3039 H   0  0  0  0  0  0  0  0  0  0  0  0
   63.7965   30.9365   48.4419 H   0  0  0  0  0  0  0  0  0  0  0  0
   64.1989   32.6871   48.4419 H   0  0  0  0  0  0  0  0  0  0  0  0
  1  2  1  0
  2  3  2  0
  2  4  1  0
  4  5  1  0
  5  6  1  0
  6  7  1  0
  7  8  1  0
  8  9  1  0
  9 10  2  0
  9 11  1  0
  6 12  1  0
 12 13  1  0
 13 14  1  0
 14 15  1  0
 15 16  2  0
 16 17  1  0
 17 18  1  0
 18 19  1  0
 19 20  2  0
 20 21  1  0
 21 22  1  0
 22 23  1  0
 16 24  1  0
 24 25  2  0
 13 26  1  0
 26 27  1  0
 27 28  1  0
 28 29  1  0
 28 30  2  0
 26 31  1  0
 31 32  1  0
 32 33  1  0
 33 34  1  0
 33 35  2  0
 31  5  1  0
 25 14  1  0
 23 19  1  0
  1 36  1  0
  1 37  1  0
  1 38  1  0
  5 39  1  1
  6 40  1  1
  7 41  1  0
  7 42  1  0
 13 43  1  6
 15 44  1  0
 17 45  1  0
 17 46  1  0
 18 47  1  0
 21 48  1  0
 21 49  1  0
 22 50  1  0
 22 51  1  0
 23 52  1  0
 24 53  1  0
 26 54  1  1
 29 55  1  0
 29 56  1  0
 29 57  1  0
 31 58  1  1
 34 59  1  0
 34 60  1  0
 34 61  1  0
M  CHG  2  11  -1  24   1
M  END
>  <UniqueID>  (33) 
30

>  <SMILES>  (33) 
CC(=O)OC1C(OC(C)=O)[C@@H](OC(C)=O)[C@@H](COC(=O)[O-])OC1n1cc(CNC2=NCCN2)[nH+]n1

>  <Energy>  (33) 
103.38379053801214

>  <Genealogy>  (33) 
CC(=O)OC1C(COC(=O)[O-])OC(n2cc(CNC3=NCCN3)[nH+]n2)C(OC(C)=O)C1OC(C)=O (protonated)
CC(=O)OC1C(OC(C)=O)[C@@H](OC(C)=O)[C@@H](COC(=O)[O-])OC1n1cc(CNC2=NCCN2)[nH+]n1 (chirality)
CC(=O)OC1C(OC(C)=O)[C@@H](OC(C)=O)[C@@H](COC(=O)[O-])OC1n1cc(CNC2=NCCN2)[nH+]n1 (3D coordinates assigned)
CC(=O)OC1C(OC(C)=O)[C@@H](OC(C)=O)[C@@H](COC(=O)[O-])OC1n1cc(CNC2=NCCN2)[nH+]n1 (nonaromatic ring conformer: 103.38379053801214 kcal/mol)

>  <smiles>  (33) 
CC(=O)OC1C(COC(=O)O)OC(n2cc(CNC3=NCCN3)nn2)C(OC(C)=O)C1OC(C)=O

>  <score_type>  (33) 
oracle

>  <origin>  (33) 
adg

>  <m_score__min__energy>  (33) 
-7.7800000000000002

>  <m_primary>  (33) 
energy

$$$$
33:0
     RDKit          3D

 48 51  0  0  0  0  0  0  0  0999 V2000
   56.9840   26.3400   43.9810 H   0  0  0  0  0  0  0  0  0  0  0  0
   57.5910   26.3140   44.7660 O   0  0  0  0  0  0  0  0  0  0  0  0
   57.1650   27.2870   45.6890 C   0  0  2  0  0  0  0  0  0  0  0  0
   56.2815   26.8782   46.2012 H   0  0  0  0  0  0  0  0  0  0  0  0
   56.7510   28.5610   44.9930 C   0  0  0  0  0  0  0  0  0  0  0  0
   55.5140   29.0890   45.0670 N   0  0  0  0  0  0  0  0  0  0  0  0
   55.4890   30.1950   44.3370 N   0  0  0  0  0  0  0  0  0  0  0  0
   56.7100   30.3790   43.8030 C   0  0  0  0  0  0  0  0  0  0  0  0
   57.0520   31.5140   42.9250 C   0  0  0  0  0  0  0  0  0  0  0  0
   56.6435   31.5088   41.9037 H   0  0  0  0  0  0  0  0  0  0  0  0
   57.8250   32.5530   43.2800 C   0  0  0  0  0  0  0  0  0  0  0  0
   58.1312   33.2503   42.4863 H   0  0  0  0  0  0  0  0  0  0  0  0
   58.2980   32.8350   44.6540 C   0  0  0  0  0  0  0  0  0  0  0  0
   58.1090   34.1130   45.1970 C   0  0  0  0  0  0  0  0  0  0  0  0
   57.6417   34.9011   44.5883 H   0  0  0  0  0  0  0  0  0  0  0  0
   58.5100   34.3940   46.5070 C   0  0  0  0  0  0  0  0  0  0  0  0
   58.3690   35.4055   46.9156 H   0  0  0  0  0  0  0  0  0  0  0  0
   59.0920   33.3940   47.3060 C   0  0  0  0  0  0  0  0  0  0  0  0
   59.4770   33.6780   48.6620 N   0  0  0  0  0  0  0  0  0  0  0  0
   58.9280   33.0900   49.6180 O   0  0  0  0  0  0  0  0  0  0  0  0
   60.4350   34.6290   48.9330 O   0  0  0  0  0  0  0  0  0  0  0  0
   59.2670   32.1080   46.7650 C   0  0  0  0  0  0  0  0  0  0  0  0
   59.7275   31.3171   47.3752 H   0  0  0  0  0  0  0  0  0  0  0  0
   58.8600   31.8270   45.4570 C   0  0  0  0  0  0  0  0  0  0  0  0
   58.9803   30.8107   45.0537 H   0  0  0  0  0  0  0  0  0  0  0  0
   57.5370   29.3360   44.1650 C   0  0  0  0  0  0  0  0  0  0  0  0
   58.5806   29.1624   43.8636 H   0  0  0  0  0  0  0  0  0  0  0  0
   58.2140   27.5610   46.7510 C   0  0  0  0  0  0  0  0  0  0  0  0
   58.9640   26.4900   47.2640 C   0  0  0  0  0  0  0  0  0  0  0  0
   58.8457   25.4858   46.8309 H   0  0  0  0  0  0  0  0  0  0  0  0
   59.8590   26.6870   48.3190 C   0  0  0  0  0  0  0  0  0  0  0  0
   60.4424   25.8381   48.7049 H   0  0  0  0  0  0  0  0  0  0  0  0
   60.0200   27.9600   48.8910 C   0  0  0  0  0  0  0  0  0  0  0  0
   60.9540   28.1660   50.0280 C   0  0  0  0  0  0  0  0  0  0  0  0
   61.5180   29.4340   50.2700 C   0  0  0  0  0  0  0  0  0  0  0  0
   61.2705   30.2775   49.6087 H   0  0  0  0  0  0  0  0  0  0  0  0
   62.3900   29.6270   51.3450 C   0  0  0  0  0  0  0  0  0  0  0  0
   62.8268   30.6202   51.5258 H   0  0  0  0  0  0  0  0  0  0  0  0
   62.7080   28.5620   52.1900 C   0  0  0  0  0  0  0  0  0  0  0  0
   63.3926   28.7173   53.0369 H   0  0  0  0  0  0  0  0  0  0  0  0
   62.1570   27.3000   51.9600 C   0  0  0  0  0  0  0  0  0  0  0  0
   62.4092   26.4613   52.6256 H   0  0  0  0  0  0  0  0  0  0  0  0
   61.2850   27.1000   50.8850 C   0  0  0  0  0  0  0  0  0  0  0  0
   60.8551   26.1030   50.7082 H   0  0  0  0  0  0  0  0  0  0  0  0
   59.2690   29.0320   48.3800 C   0  0  0  0  0  0  0  0  0  0  0  0
   59.3889   30.0361   48.8128 H   0  0  0  0  0  0  0  0  0  0  0  0
   58.3710   28.8350   47.3270 C   0  0  0  0  0  0  0  0  0  0  0  0
   57.7825   29.6826   46.9458 H   0  0  0  0  0  0  0  0  0  0  0  0
  1  2  1  0
  2  3  1  0
  3  4  1  1
  3  5  1  0
  5  6  1  0
  6  7  1  0
  7  8  2  0
  8  9  1  0
  9 10  1  0
  9 11  2  0
 11 12  1  0
 11 13  1  0
 13 14  2  0
 14 15  1  0
 14 16  1  0
 16 17  1  0
 16 18  2  0
 18 19  1  0
 19 20  2  0
 19 21  1  0
 18 22  1  0
 22 23  1  0
 22 24  2  0
 24 25  1  0
  8 26  1  0
 26 27  1  0
  3 28  1  0
 28 29  2  0
 29 30  1  0
 29 31  1  0
 31 32  1  0
 31 33  2  0
 33 34  1  0
 34 35  2  0
 35 36  1  0
 35 37  1  0
 37 38  1  0
 37 39  2  0
 39 40  1  0
 39 41  1  0
 41 42  1  0
 41 43  2  0
 43 44  1  0
 33 45  1  0
 45 46  1  0
 45 47  2  0
 47 48  1  0
 26  5  2  0
 47 28  1  0
 24 13  1  0
 43 34  1  0
M  CHG  3   6  -1  19   1  21  -1
M  END
>  <UniqueID>  (34) 
31

>  <SMILES>  (34) 
O=[N+]([O-])c1ccc(/C=C\c2cc([C@@H](O)c3ccc(-c4ccccc4)cc3)[n-]n2)cc1

>  <Energy>  (34) 
94.09709347241912

>  <Genealogy>  (34) 
O=[N+]([O-])c1ccc(C=Cc2cc(C(O)c3ccc(-c4ccccc4)cc3)[n-]n2)cc1 (protonated)
O=[N+]([O-])c1ccc(C=Cc2cc([C@@H](O)c3ccc(-c4ccccc4)cc3)[n-]n2)cc1 (chirality)
O=[N+]([O-])c1ccc(/C=C\c2cc([C@@H](O)c3ccc(-c4ccccc4)cc3)[n-]n2)cc1 (cis-trans isomerization)
O=[N+]([O-])c1ccc(/C=C\c2cc([C@@H](O)c3ccc(-c4ccccc4)cc3)[n-]n2)cc1 (3D coordinates assigned)
O=[N+]([O-])c1ccc(/C=C\c2cc([C@@H](O)c3ccc(-c4ccccc4)cc3)[n-]n2)cc1 (optimized conformer: 94.09709347241912 kcal/mol)

>  <smiles>  (34) 
O=[N+]([O-])c1ccc(C=Cc2cc(C(O)c3ccc(-c4ccccc4)cc3)[nH]n2)cc1

>  <score_type>  (34) 
oracle

>  <origin>  (34) 
adg

>  <m_score__min__energy>  (34) 
-10.74

>  <m_primary>  (34) 
energy

$$$$
34:0
     RDKit          3D

 39 40  0  0  0  0  0  0  0  0999 V2000
   55.7410   28.6710   43.6630 H   0  0  0  0  0  0  0  0  0  0  0  0
   56.0140   29.4770   43.1150 O   0  0  0  0  0  0  0  0  0  0  0  0
   57.2950   29.9730   43.2110 N   0  0  0  0  0  0  0  0  0  0  0  0
   57.6800   30.7500   44.1810 C   0  0  0  0  0  0  0  0  0  0  0  0
   58.0810   32.1380   43.8430 C   0  0  0  0  0  0  0  0  0  0  0  0
   58.0190   32.5140   42.6400 O   0  0  0  0  0  0  0  0  0  0  0  0
   58.5340   33.0620   44.8460 N   0  0  0  0  0  0  0  0  0  0  0  0
   58.6190   32.7710   45.8420 H   0  0  0  0  0  0  0  0  0  0  0  0
   58.8860   34.4360   44.5100 C   0  0  0  0  0  0  0  0  0  0  0  0
   59.0339   35.0132   45.4346 H   0  0  0  0  0  0  0  0  0  0  0  0
   59.8149   34.4429   43.9209 H   0  0  0  0  0  0  0  0  0  0  0  0
   58.0748   34.8887   43.9209 H   0  0  0  0  0  0  0  0  0  0  0  0
   57.6730   30.2580   45.6170 C   0  0  0  0  0  0  0  0  0  0  0  0
   58.4840   30.7563   46.1684 H   0  0  0  0  0  0  0  0  0  0  0  0
   56.6930   30.4963   46.0561 H   0  0  0  0  0  0  0  0  0  0  0  0
   57.8740   28.7590   45.6970 C   0  0  0  0  0  0  0  0  0  0  0  0
   59.1490   28.2430   45.9880 C   0  0  0  0  0  0  0  0  0  0  0  0
   59.9904   28.9316   46.1549 H   0  0  0  0  0  0  0  0  0  0  0  0
   59.3570   26.8660   46.0670 C   0  0  0  0  0  0  0  0  0  0  0  0
   60.3642   26.4736   46.2708 H   0  0  0  0  0  0  0  0  0  0  0  0
   58.2900   25.9860   45.8880 C   0  0  0  0  0  0  0  0  0  0  0  0
   58.4641   24.9007   45.9310 H   0  0  0  0  0  0  0  0  0  0  0  0
   56.9990   26.4740   45.6540 C   0  0  0  0  0  0  0  0  0  0  0  0
   55.9190   25.5430   45.4870 N   0  0  0  0  0  0  0  0  0  0  0  0
   55.3640   25.5940   44.6030 H   0  0  0  0  0  0  0  0  0  0  0  0
   55.7340   24.4000   46.3370 C   0  0  0  0  0  0  0  0  0  0  0  0
   54.7490   23.4310   46.2250 C   0  0  0  0  0  0  0  0  0  0  0  0
   53.6030   23.4280   45.3000 C   0  0  0  0  0  0  0  0  0  0  0  0
   53.4590   24.3740   44.4810 O   0  0  0  0  0  0  0  0  0  0  0  0
   52.6880   22.3830   45.2960 O   0  0  0  0  0  0  0  0  0  0  0  0
   54.9500   22.4550   47.1340 N   0  0  0  0  0  0  0  0  0  0  0  0
   56.0630   22.8060   47.8120 C   0  0  0  0  0  0  0  0  0  0  0  0
   56.6380   21.9990   48.8940 C   0  0  0  0  0  0  0  0  0  0  0  0
   56.2560   22.1710   50.0810 O   0  0  0  0  0  0  0  0  0  0  0  0
   57.6070   21.0430   48.6160 O   0  0  0  0  0  0  0  0  0  0  0  0
   56.5820   24.0000   47.3480 C   0  0  0  0  0  0  0  0  0  0  0  0
   57.4812   24.5209   47.7088 H   0  0  0  0  0  0  0  0  0  0  0  0
   56.7920   27.8650   45.5410 C   0  0  0  0  0  0  0  0  0  0  0  0
   55.5190   28.3510   45.2550 O   0  0  0  0  0  0  0  0  0  0  0  0
  1  2  1  0
  2  3  1  0
  3  4  2  0
  4  5  1  0
  5  6  2  0
  5  7  1  0
  7  8  1  0
  7  9  1  0
  9 10  1  0
  9 11  1  0
  9 12  1  0
  4 13  1  0
 13 14  1  0
 13 15  1  0
 13 16  1  0
 16 17  2  0
 17 18  1  0
 17 19  1  0
 19 20  1  0
 19 21  2  0
 21 22  1  0
 21 23  1  0
 23 24  1  0
 24 25  1  0
 24 26  1  0
 26 27  2  0
 27 28  1  0
 28 29  2  0
 28 30  1  0
 27 31  1  0
 31 32  1  0
 32 33  1  0
 33 34  2  0
 33 35  1  0
 32 36  2  0
 36 37  1  0
 23 38  2  0
 38 39  1  0
 38 16  1  0
 36 26  1  0
M  CHG  4  30  -1  31  -1  35  -1  39  -1
M  END
>  <UniqueID>  (35) 
32

>  <SMILES>  (35) 
CNC(=O)/C(Cc1cccc(Nc2cc(C(=O)[O-])[n-]c2C(=O)[O-])c1[O-])=N/O

>  <Energy>  (35) 
67.94153617216345

>  <Genealogy>  (35) 
CNC(=O)C(Cc1cccc(Nc2cc(C(=O)[O-])[n-]c2C(=O)[O-])c1[O-])=NO (protonated)
CNC(=O)/C(Cc1cccc(Nc2cc(C(=O)[O-])[n-]c2C(=O)[O-])c1[O-])=N/O (cis-trans isomerization)
CNC(=O)/C(Cc1cccc(Nc2cc(C(=O)[O-])[n-]c2C(=O)[O-])c1[O-])=N/O (3D coordinates assigned)
CNC(=O)/C(Cc1cccc(Nc2cc(C(=O)[O-])[n-]c2C(=O)[O-])c1[O-])=N/O (optimized conformer: 67.94153617216345 kcal/mol)

>  <smiles>  (35) 
CNC(=O)C(Cc1cccc(Nc2cc(C(=O)O)[nH]c2C(=O)O)c1O)=NO

>  <score_type>  (35) 
oracle

>  <origin>  (35) 
adg

>  <m_score__min__energy>  (35) 
-15.609999999999999

>  <m_primary>  (35) 
energy

$$$$
35:0
     RDKit          3D

 91 96  0  0  0  0  0  0  0  0999 V2000
   56.6620   31.7180   52.0220 C   0  0  0  0  0  0  0  0  0  0  0  0
   56.9650   30.3980   51.5690 O   0  0  0  0  0  0  0  0  0  0  0  0
   58.0260   29.6200   52.0530 C   0  0  0  0  0  0  0  0  0  0  0  0
   59.1870   29.3660   51.2970 C   0  0  0  0  0  0  0  0  0  0  0  0
   60.2170   28.5810   51.8250 C   0  0  0  0  0  0  0  0  0  0  0  0
   60.1010   28.0330   53.1150 C   0  0  0  0  0  0  0  0  0  0  0  0
   61.1220   27.2010   53.6790 N   0  0  0  0  0  0  0  0  0  0  0  0
   62.5000   27.5740   53.7660 C   0  0  0  0  0  0  0  0  0  0  0  0
   63.0100   27.7590   54.9050 O   0  0  0  0  0  0  0  0  0  0  0  0
   63.3010   27.7080   52.5730 N   0  0  0  0  0  0  0  0  0  0  0  0
   64.3590   26.7470   52.2530 C   0  0  0  0  0  0  0  0  0  0  0  0
   65.7180   27.4040   52.4880 C   0  0  0  0  0  0  0  0  0  0  0  0
   65.7870   28.7910   51.8930 C   0  0  0  0  0  0  0  0  0  0  0  0
   67.0430   29.3910   51.7150 C   0  0  0  0  0  0  0  0  0  0  0  0
   67.1430   30.7040   51.2510 C   0  0  0  0  0  0  0  0  0  0  0  0
   65.9860   31.4410   50.9690 C   0  0  0  0  0  0  0  0  0  0  0  0
   66.1110   33.1030   50.4070 S   0  0  0  0  0  0  0  0  0  0  0  0
   67.4880   33.3560   49.8600 O   0  0  0  0  0  0  0  0  0  0  0  0
   65.8860   34.0280   51.5750 O   0  0  0  0  0  0  0  0  0  0  0  0
   64.9370   33.4480   49.1800 N   0  0  0  0  0  0  0  0  0  0  0  0
   63.5390   33.2380   49.3800 C   0  0  0  0  0  0  0  0  0  0  0  0
   62.8080   34.0610   50.2470 C   0  0  0  0  0  0  0  0  0  0  0  0
   61.4310   33.8730   50.4030 C   0  0  0  0  0  0  0  0  0  0  0  0
   60.7680   32.8540   49.6900 C   0  0  0  0  0  0  0  0  0  0  0  0
   59.3890   32.6170   49.8100 O   0  0  0  0  0  0  0  0  0  0  0  0
   58.6060   31.8120   48.9250 C   0  0  0  0  0  0  0  0  0  0  0  0
   58.8290   32.2100   47.4610 C   0  0  0  0  0  0  0  0  0  0  0  0
   58.0070   33.4380   47.0210 C   0  0  0  0  0  0  0  0  0  0  0  0
   58.6780   34.2740   45.9150 C   0  0  0  0  0  0  0  0  0  0  0  0
   58.1880   33.8720   44.5860 N   0  0  0  0  0  0  0  0  0  0  0  0
   58.4920   32.4640   44.2740 C   0  0  0  0  0  0  0  0  0  0  0  0
   57.2220   31.6120   44.0280 C   0  0  2  0  0  0  0  0  0  0  0  0
   56.1730   31.9970   44.8830 O   0  0  0  0  0  0  0  0  0  0  0  0
   57.5030   30.1080   44.1610 C   0  0  0  0  0  0  0  0  0  0  0  0
   58.5650   29.8700   45.0830 O   0  0  0  0  0  0  0  0  0  0  0  0
   58.8190   28.6300   45.6870 C   0  0  0  0  0  0  0  0  0  0  0  0
   60.1110   28.2170   46.0950 C   0  0  0  0  0  0  0  0  0  0  0  0
   60.3060   26.9490   46.6860 C   0  0  0  0  0  0  0  0  0  0  0  0
   59.2190   26.0770   46.8830 C   0  0  0  0  0  0  0  0  0  0  0  0
   57.9570   26.5040   46.4780 C   0  0  0  0  0  0  0  0  0  0  0  0
   56.8060   25.8160   46.5830 N   0  0  0  0  0  0  0  0  0  0  0  0
   55.8820   26.6520   46.0550 C   0  0  0  0  0  0  0  0  0  0  0  0
   54.5370   26.3280   45.9600 O   0  0  0  0  0  0  0  0  0  0  0  0
   56.4260   27.8550   45.6240 C   0  0  0  0  0  0  0  0  0  0  0  0
   57.7670   27.7370   45.9030 C   0  0  0  0  0  0  0  0  0  0  0  0
   61.5060   32.0370   48.8240 C   0  0  0  0  0  0  0  0  0  0  0  0
   62.8800   32.2350   48.6570 C   0  0  0  0  0  0  0  0  0  0  0  0
   63.5750   31.4390   47.8080 F   0  0  0  0  0  0  0  0  0  0  0  0
   64.7290   30.8500   51.1390 C   0  0  0  0  0  0  0  0  0  0  0  0
   64.6140   29.5360   51.6120 C   0  0  0  0  0  0  0  0  0  0  0  0
   63.2430   28.9160   51.7450 C   0  0  0  0  0  0  0  0  0  0  0  0
   58.9450   28.2830   53.8640 C   0  0  0  0  0  0  0  0  0  0  0  0
   57.9200   29.0750   53.3390 C   0  0  0  0  0  0  0  0  0  0  0  0
   56.6578   31.7363   53.1218 H   0  0  0  0  0  0  0  0  0  0  0  0
   57.4228   32.4182   51.6465 H   0  0  0  0  0  0  0  0  0  0  0  0
   55.6720   32.0163   51.6465 H   0  0  0  0  0  0  0  0  0  0  0  0
   59.2841   29.7874   50.2856 H   0  0  0  0  0  0  0  0  0  0  0  0
   61.1217   28.3914   51.2288 H   0  0  0  0  0  0  0  0  0  0  0  0
   64.2608   25.8622   52.8991 H   0  0  0  0  0  0  0  0  0  0  0  0
   64.2735   26.4380   51.2008 H   0  0  0  0  0  0  0  0  0  0  0  0
   65.8964   27.4731   53.5712 H   0  0  0  0  0  0  0  0  0  0  0  0
   66.4837   26.7854   51.9970 H   0  0  0  0  0  0  0  0  0  0  0  0
   67.9564   28.8221   51.9430 H   0  0  0  0  0  0  0  0  0  0  0  0
   68.1332   31.1608   51.1065 H   0  0  0  0  0  0  0  0  0  0  0  0
   63.3191   34.8579   50.8070 H   0  0  0  0  0  0  0  0  0  0  0  0
   60.8631   34.5230   51.0849 H   0  0  0  0  0  0  0  0  0  0  0  0
   58.8890   30.7571   49.0561 H   0  0  0  0  0  0  0  0  0  0  0  0
   57.5439   31.9645   49.1671 H   0  0  0  0  0  0  0  0  0  0  0  0
   59.8960   32.4382   47.3217 H   0  0  0  0  0  0  0  0  0  0  0  0
   58.4972   31.3626   46.8431 H   0  0  0  0  0  0  0  0  0  0  0  0
   57.0334   33.0875   46.6478 H   0  0  0  0  0  0  0  0  0  0  0  0
   57.9116   34.0906   47.9013 H   0  0  0  0  0  0  0  0  0  0  0  0
   58.4487   35.3375   46.0775 H   0  0  0  0  0  0  0  0  0  0  0  0
   59.7643   34.1061   45.9560 H   0  0  0  0  0  0  0  0  0  0  0  0
   58.6220   34.4840   43.8580 H   0  0  0  0  0  0  0  0  0  0  0  0
   59.1164   32.4322   43.3690 H   0  0  0  0  0  0  0  0  0  0  0  0
   59.0109   32.0380   45.1453 H   0  0  0  0  0  0  0  0  0  0  0  0
   56.9091   31.8013   42.9906 H   0  0  0  0  0  0  0  0  0  0  0  0
   56.3030   32.9550   45.1110 H   0  0  0  0  0  0  0  0  0  0  0  0
   56.5944   29.6018   44.5192 H   0  0  0  0  0  0  0  0  0  0  0  0
   57.7971   29.7162   43.1761 H   0  0  0  0  0  0  0  0  0  0  0  0
   60.9696   28.8893   45.9504 H   0  0  0  0  0  0  0  0  0  0  0  0
   61.3157   26.6405   46.9948 H   0  0  0  0  0  0  0  0  0  0  0  0
   59.3620   25.0881   47.3430 H   0  0  0  0  0  0  0  0  0  0  0  0
   55.9036   28.7071   45.1646 H   0  0  0  0  0  0  0  0  0  0  0  0
   61.0000   31.2324   48.2703 H   0  0  0  0  0  0  0  0  0  0  0  0
   63.8214   31.4231   50.8987 H   0  0  0  0  0  0  0  0  0  0  0  0
   62.5617   29.6422   52.2124 H   0  0  0  0  0  0  0  0  0  0  0  0
   62.8790   28.6423   50.7437 H   0  0  0  0  0  0  0  0  0  0  0  0
   58.8428   27.8536   54.8716 H   0  0  0  0  0  0  0  0  0  0  0  0
   57.0212   29.2723   53.9417 H   0  0  0  0  0  0  0  0  0  0  0  0
  1  2  1  0
  2  3  1  0
  3  4  2  0
  4  5  1  0
  5  6  2  0
  6  7  1  0
  7  8  1  0
  8  9  2  0
  8 10  1  0
 10 11  1  0
 11 12  1  0
 12 13  1  0
 13 14  2  0
 14 15  1  0
 15 16  2  0
 16 17  1  0
 17 18  2  0
 17 19  2  0
 17 20  1  0
 20 21  1  0
 21 22  2  0
 22 23  1  0
 23 24  2  0
 24 25  1  0
 25 26  1  0
 26 27  1  0
 27 28  1  0
 28 29  1  0
 29 30  1  0
 30 31  1  0
 31 32  1  0
 32 33  1  0
 32 34  1  0
 34 35  1  0
 35 36  1  0
 36 37  2  0
 37 38  1  0
 38 39  2  0
 39 40  1  0
 40 41  1  0
 41 42  1  0
 42 43  1  0
 42 44  2  0
 44 45  1  0
 24 46  1  0
 46 47  2  0
 47 48  1  0
 16 49  1  0
 49 50  2  0
 50 51  1  0
  6 52  1  0
 52 53  2  0
 53  3  1  0
 51 10  1  0
 50 13  1  0
 47 21  1  0
 45 36  1  0
 45 40  2  0
  1 54  1  0
  1 55  1  0
  1 56  1  0
  4 57  1  0
  5 58  1  0
 11 59  1  0
 11 60  1  0
 12 61  1  0
 12 62  1  0
 14 63  1  0
 15 64  1  0
 22 65  1  0
 23 66  1  0
 26 67  1  0
 26 68  1  0
 27 69  1  0
 27 70  1  0
 28 71  1  0
 28 72  1  0
 29 73  1  0
 29 74  1  0
 30 75  1  0
 31 76  1  0
 31 77  1  0
 32 78  1  6
 33 79  1  0
 34 80  1  0
 34 81  1  0
 37 82  1  0
 38 83  1  0
 39 84  1  0
 44 85  1  0
 46 86  1  0
 49 87  1  0
 51 88  1  0
 51 89  1  0
 52 90  1  0
 53 91  1  0
M  CHG  4   7  -1  20  -1  41  -1  43  -1
M  END
>  <UniqueID>  (36) 
33

>  <SMILES>  (36) 
COc1ccc([N-]C(=O)N2CCc3ccc(S(=O)(=O)[N-]c4ccc(OCCCCNC[C@H](O)COc5cccc6[n-]c([O-])cc56)cc4F)cc3C2)cc1

>  <Energy>  (36) 
145.85051215450292

>  <Genealogy>  (36) 
COc1ccc([N-]C(=O)N2CCc3ccc(S(=O)(=O)[N-]c4ccc(OCCCCNCC(O)COc5cccc6[n-]c([O-])cc56)cc4F)cc3C2)cc1 (protonated)
COc1ccc([N-]C(=O)N2CCc3ccc(S(=O)(=O)[N-]c4ccc(OCCCCNC[C@H](O)COc5cccc6[n-]c([O-])cc56)cc4F)cc3C2)cc1 (chirality)
COc1ccc([N-]C(=O)N2CCc3ccc(S(=O)(=O)[N-]c4ccc(OCCCCNC[C@H](O)COc5cccc6[n-]c([O-])cc56)cc4F)cc3C2)cc1 (3D coordinates assigned)
COc1ccc([N-]C(=O)N2CCc3ccc(S(=O)(=O)[N-]c4ccc(OCCCCNC[C@H](O)COc5cccc6[n-]c([O-])cc56)cc4F)cc3C2)cc1 (nonaromatic ring conformer: 145.85051215450292 kcal/mol)

>  <smiles>  (36) 
COc1ccc(NC(=O)N2CCc3ccc(S(=O)(=O)Nc4ccc(OCCCCNCC(O)COc5cccc6[nH]c(O)cc56)cc4F)cc3C2)cc1

>  <score_type>  (36) 
oracle

>  <origin>  (36) 
adg

>  <m_score__min__energy>  (36) 
-20.66

>  <m_primary>  (36) 
energy

$$$$
36:0
     RDKit          3D

 33 35  0  0  0  0  0  0  0  0999 V2000
   55.9980   24.7210   47.2900 H   0  0  0  0  0  0  0  0  0  0  0  0
   56.9310   25.0190   47.0270 O   0  0  0  0  0  0  0  0  0  0  0  0
   57.1450   26.1930   46.3070 C   0  0  0  0  0  0  0  0  0  0  0  0
   58.4400   26.5650   45.9250 C   0  0  0  0  0  0  0  0  0  0  0  0
   59.2949   25.9264   46.1921 H   0  0  0  0  0  0  0  0  0  0  0  0
   58.6500   27.7440   45.2060 C   0  0  0  0  0  0  0  0  0  0  0  0
   59.6682   28.0239   44.8979 H   0  0  0  0  0  0  0  0  0  0  0  0
   57.5690   28.5710   44.8760 C   0  0  0  0  0  0  0  0  0  0  0  0
   57.8110   29.7970   44.0920 C   0  0  0  0  0  0  0  0  0  0  0  0
   57.7984   29.7189   42.9949 H   0  0  0  0  0  0  0  0  0  0  0  0
   58.0470   31.0090   44.6380 C   0  0  0  0  0  0  0  0  0  0  0  0
   58.7590   31.1150   45.9370 C   0  0  0  0  0  0  0  0  0  0  0  0
   59.1040   30.0780   46.5670 O   0  0  0  0  0  0  0  0  0  0  0  0
   59.0610   32.4540   46.4950 C   0  0  0  0  0  0  0  0  0  0  0  0
   59.5380   32.5980   47.8100 C   0  0  0  0  0  0  0  0  0  0  0  0
   59.6951   31.7075   48.4363 H   0  0  0  0  0  0  0  0  0  0  0  0
   59.8130   33.8670   48.3240 C   0  0  0  0  0  0  0  0  0  0  0  0
   60.1797   33.9730   49.3556 H   0  0  0  0  0  0  0  0  0  0  0  0
   59.6240   35.0010   47.5330 C   0  0  0  0  0  0  0  0  0  0  0  0
   59.8428   35.9985   47.9418 H   0  0  0  0  0  0  0  0  0  0  0  0
   59.1570   34.8710   46.2220 C   0  0  0  0  0  0  0  0  0  0  0  0
   59.0217   35.7664   45.5975 H   0  0  0  0  0  0  0  0  0  0  0  0
   58.8600   33.6030   45.6990 C   0  0  0  0  0  0  0  0  0  0  0  0
   58.4330   33.4660   44.2580 C   0  0  0  0  0  0  0  0  0  0  0  0
   59.3261   33.3081   43.6355 H   0  0  0  0  0  0  0  0  0  0  0  0
   57.9069   34.3876   43.9682 H   0  0  0  0  0  0  0  0  0  0  0  0
   57.4740   32.2870   44.0580 C   0  0  0  0  0  0  0  0  0  0  0  0
   57.2993   32.1454   42.9812 H   0  0  0  0  0  0  0  0  0  0  0  0
   56.5313   32.5131   44.5778 H   0  0  0  0  0  0  0  0  0  0  0  0
   56.2640   28.1880   45.2380 C   0  0  0  0  0  0  0  0  0  0  0  0
   55.1730   28.9740   44.8790 O   0  0  0  0  0  0  0  0  0  0  0  0
   56.0570   27.0040   45.9610 C   0  0  0  0  0  0  0  0  0  0  0  0
   54.7690   26.6330   46.3300 O   0  0  0  0  0  0  0  0  0  0  0  0
  1  2  1  0
  2  3  1  0
  3  4  2  0
  4  5  1  0
  4  6  1  0
  6  7  1  0
  6  8  2  0
  8  9  1  0
  9 10  1  0
  9 11  2  0
 11 12  1  0
 12 13  2  0
 12 14  1  0
 14 15  2  0
 15 16  1  0
 15 17  1  0
 17 18  1  0
 17 19  2  0
 19 20  1  0
 19 21  1  0
 21 22  1  0
 21 23  2  0
 23 24  1  0
 24 25  1  0
 24 26  1  0
 24 27  1  0
 27 28  1  0
 27 29  1  0
  8 30  1  0
 30 31  1  0
 30 32  2  0
 32 33  1  0
 32  3  1  0
 27 11  1  0
 23 14  1  0
M  CHG  2  31  -1  33  -1
M  END
>  <UniqueID>  (37) 
34

>  <SMILES>  (37) 
O=C1/C(=C/c2ccc(O)c([O-])c2[O-])CCc2ccccc21

>  <Energy>  (37) 
46.88221550977622

>  <Genealogy>  (37) 
O=C1C(=Cc2ccc(O)c([O-])c2[O-])CCc2ccccc21 (protonated)
O=C1/C(=C/c2ccc(O)c([O-])c2[O-])CCc2ccccc21 (cis-trans isomerization)
O=C1/C(=C/c2ccc(O)c([O-])c2[O-])CCc2ccccc21 (3D coordinates assigned)
O=C1/C(=C/c2ccc(O)c([O-])c2[O-])CCc2ccccc21 (nonaromatic ring conformer: 46.88221550977622 kcal/mol)

>  <smiles>  (37) 
O=C1C(=Cc2ccc(O)c(O)c2O)CCc2ccccc21

>  <score_type>  (37) 
oracle

>  <origin>  (37) 
adg

>  <m_score__min__energy>  (37) 
-15.300000000000001

>  <m_primary>  (37) 
energy

$$$$
37:0
     RDKit          3D

 39 41  0  0  0  0  0  0  0  0999 V2000
   56.4485   31.0505   42.9891 H   0  0  0  0  0  0  0  0  0  0  0  0
   56.8710   30.5720   43.8850 C   0  0  0  0  0  0  0  0  0  0  0  0
   56.0640   29.5180   44.5330 C   0  0  0  0  0  0  0  0  0  0  0  0
   54.8740   29.3490   44.1520 O   0  0  0  0  0  0  0  0  0  0  0  0
   56.6460   28.6570   45.5250 N   0  0  0  0  0  0  0  0  0  0  0  0
   56.5690   27.3610   45.5600 C   0  0  0  0  0  0  0  0  0  0  0  0
   55.5100   26.6700   46.0360 N   0  0  0  0  0  0  0  0  0  0  0  0
   55.7180   25.3290   45.9590 C   0  0  0  0  0  0  0  0  0  0  0  0
   54.9713   24.5955   46.2974 H   0  0  0  0  0  0  0  0  0  0  0  0
   56.9440   24.9520   45.4210 C   0  0  0  0  0  0  0  0  0  0  0  0
   57.2950   23.9197   45.2757 H   0  0  0  0  0  0  0  0  0  0  0  0
   57.7970   26.3490   45.0310 S   0  0  0  0  0  0  0  0  0  0  0  0
   58.0760   30.9950   44.2970 C   0  0  0  0  0  0  0  0  0  0  0  0
   58.9429   30.3567   44.0709 H   0  0  0  0  0  0  0  0  0  0  0  0
   58.3280   32.2540   45.0320 C   0  0  0  0  0  0  0  0  0  0  0  0
   58.5780   33.4470   44.3300 C   0  0  0  0  0  0  0  0  0  0  0  0
   58.5613   33.4478   43.2301 H   0  0  0  0  0  0  0  0  0  0  0  0
   58.8470   34.6290   45.0200 C   0  0  0  0  0  0  0  0  0  0  0  0
   59.0261   35.5614   44.4645 H   0  0  0  0  0  0  0  0  0  0  0  0
   58.8890   34.6290   46.4140 C   0  0  0  0  0  0  0  0  0  0  0  0
   59.0937   35.5638   46.9565 H   0  0  0  0  0  0  0  0  0  0  0  0
   58.6720   33.4460   47.1230 C   0  0  0  0  0  0  0  0  0  0  0  0
   58.7142   33.4521   48.2222 H   0  0  0  0  0  0  0  0  0  0  0  0
   58.3990   32.2430   46.4390 C   0  0  0  0  0  0  0  0  0  0  0  0
   58.1820   31.0300   47.1170 O   0  0  0  0  0  0  0  0  0  0  0  0
   59.0910   30.4180   48.0320 C   0  0  0  0  0  0  0  0  0  0  0  0
   59.9185   31.1129   48.2379 H   0  0  0  0  0  0  0  0  0  0  0  0
   58.5514   30.1807   48.9607 H   0  0  0  0  0  0  0  0  0  0  0  0
   59.6480   29.1430   47.4570 C   0  0  0  0  0  0  0  0  0  0  0  0
   59.6410   27.9560   48.2090 C   0  0  0  0  0  0  0  0  0  0  0  0
   59.2323   27.9571   49.2303 H   0  0  0  0  0  0  0  0  0  0  0  0
   60.1510   26.7740   47.6650 C   0  0  0  0  0  0  0  0  0  0  0  0
   60.1486   25.8494   48.2609 H   0  0  0  0  0  0  0  0  0  0  0  0
   60.6640   26.7650   46.3650 C   0  0  0  0  0  0  0  0  0  0  0  0
   61.0685   25.8347   45.9397 H   0  0  0  0  0  0  0  0  0  0  0  0
   60.6630   27.9390   45.6050 C   0  0  0  0  0  0  0  0  0  0  0  0
   61.0629   27.9308   44.5803 H   0  0  0  0  0  0  0  0  0  0  0  0
   60.1540   29.1230   46.1470 C   0  0  0  0  0  0  0  0  0  0  0  0
   60.1498   30.0433   45.5445 H   0  0  0  0  0  0  0  0  0  0  0  0
  1  2  1  0
  2  3  1  0
  3  4  2  0
  3  5  1  0
  5  6  2  3
  6  7  1  0
  7  8  1  0
  8  9  1  0
  8 10  2  0
 10 11  1  0
 10 12  1  0
  2 13  2  0
 13 14  1  0
 13 15  1  0
 15 16  2  0
 16 17  1  0
 16 18  1  0
 18 19  1  0
 18 20  2  0
 20 21  1  0
 20 22  1  0
 22 23  1  0
 22 24  2  0
 24 25  1  0
 25 26  1  0
 26 27  1  0
 26 28  1  0
 26 29  1  0
 29 30  2  0
 30 31  1  0
 30 32  1  0
 32 33  1  0
 32 34  2  0
 34 35  1  0
 34 36  1  0
 36 37  1  0
 36 38  2  0
 38 39  1  0
 12  6  1  0
 24 15  1  0
 38 29  1  0
M  CHG  1   7  -1
M  END
>  <UniqueID>  (38) 
35

>  <SMILES>  (38) 
O=C(/C=C\c1ccccc1OCc1ccccc1)N=c1[n-]ccs1

>  <Energy>  (38) 
80.43255184884137

>  <Genealogy>  (38) 
O=C(C=Cc1ccccc1OCc1ccccc1)N=c1[n-]ccs1 (protonated)
O=C(/C=C\c1ccccc1OCc1ccccc1)N=c1[n-]ccs1 (cis-trans isomerization)
O=C(/C=C\c1ccccc1OCc1ccccc1)N=c1[n-]ccs1 (3D coordinates assigned)
O=C(/C=C\c1ccccc1OCc1ccccc1)N=c1[n-]ccs1 (optimized conformer: 80.43255184884137 kcal/mol)

>  <smiles>  (38) 
O=C(C=Cc1ccccc1OCc1ccccc1)N=c1[nH]ccs1

>  <score_type>  (38) 
oracle

>  <origin>  (38) 
adg

>  <m_score__min__energy>  (38) 
-9.9100000000000001

>  <m_primary>  (38) 
energy

$$$$
38:0
     RDKit          3D

 43 45  0  0  0  0  0  0  0  0999 V2000
   57.3300   24.4970   43.7950 C   0  0  0  0  0  0  0  0  0  0  0  0
   58.1440   24.9560   45.0000 C   0  0  0  0  0  0  0  0  0  0  0  0
   58.2830   26.4590   45.0060 C   0  0  0  0  0  0  0  0  0  0  0  0
   57.4120   27.2150   44.2820 N   0  0  0  0  0  0  0  0  0  0  0  0
   57.5180   28.5690   44.2550 C   0  0  0  0  0  0  0  0  0  0  0  0
   56.6140   29.3570   43.5350 C   0  0  0  0  0  0  0  0  0  0  0  0
   56.7420   30.7070   43.5400 N   0  0  0  0  0  0  0  0  0  0  0  0
   57.7360   31.3200   44.2410 C   0  0  0  0  0  0  0  0  0  0  0  0
   57.8790   32.7120   44.2280 O   0  0  0  0  0  0  0  0  0  0  0  0
   58.4690   33.4760   45.2450 C   0  0  0  0  0  0  0  0  0  0  0  0
   58.2620   33.0910   46.5770 C   0  0  0  0  0  0  0  0  0  0  0  0
   58.8230   33.8310   47.6220 C   0  0  0  0  0  0  0  0  0  0  0  0
   59.5850   34.9690   47.3460 C   0  0  0  0  0  0  0  0  0  0  0  0
   59.7800   35.3730   46.0220 C   0  0  0  0  0  0  0  0  0  0  0  0
   59.2210   34.6360   44.9740 C   0  0  0  0  0  0  0  0  0  0  0  0
   58.6310   30.5690   44.9330 N   0  0  0  0  0  0  0  0  0  0  0  0
   58.5520   29.2080   44.9630 C   0  0  0  0  0  0  0  0  0  0  0  0
   59.4610   28.4600   45.6670 N   0  0  0  0  0  0  0  0  0  0  0  0
   60.5430   29.1210   46.4250 C   0  0  0  0  0  0  0  0  0  0  0  0
   60.1630   29.2370   47.9050 C   0  0  0  0  0  0  0  0  0  0  0  0
   58.8940   29.8520   48.0360 O   0  0  0  0  0  0  0  0  0  0  0  0
   58.8910   30.7410   49.1310 C   0  0  0  0  0  0  0  0  0  0  0  0
   59.3300   27.0920   45.7070 C   0  0  0  0  0  0  0  0  0  0  0  0
   60.1460   26.3930   46.3720 O   0  0  0  0  0  0  0  0  0  0  0  0
   56.4204   23.9841   44.1408 H   0  0  0  0  0  0  0  0  0  0  0  0
   57.0501   25.3702   43.1875 H   0  0  0  0  0  0  0  0  0  0  0  0
   57.9323   23.8056   43.1875 H   0  0  0  0  0  0  0  0  0  0  0  0
   57.6365   24.6362   45.9221 H   0  0  0  0  0  0  0  0  0  0  0  0
   59.1467   24.5074   44.9423 H   0  0  0  0  0  0  0  0  0  0  0  0
   56.6480   26.7470   43.7450 H   0  0  0  0  0  0  0  0  0  0  0  0
   55.8009   28.8826   42.9659 H   0  0  0  0  0  0  0  0  0  0  0  0
   57.6547   32.2016   46.8012 H   0  0  0  0  0  0  0  0  0  0  0  0
   58.6641   33.5165   48.6640 H   0  0  0  0  0  0  0  0  0  0  0  0
   60.0309   35.5463   48.1694 H   0  0  0  0  0  0  0  0  0  0  0  0
   60.3745   36.2726   45.8045 H   0  0  0  0  0  0  0  0  0  0  0  0
   59.3688   34.9629   43.9342 H   0  0  0  0  0  0  0  0  0  0  0  0
   61.4650   28.5282   46.3327 H   0  0  0  0  0  0  0  0  0  0  0  0
   60.7006   30.1301   46.0164 H   0  0  0  0  0  0  0  0  0  0  0  0
   60.1279   28.2322   48.3512 H   0  0  0  0  0  0  0  0  0  0  0  0
   60.9151   29.8508   48.4223 H   0  0  0  0  0  0  0  0  0  0  0  0
   58.8929   30.1670   50.0693 H   0  0  0  0  0  0  0  0  0  0  0  0
   59.7870   31.3777   49.0888 H   0  0  0  0  0  0  0  0  0  0  0  0
   57.9907   31.3716   49.0888 H   0  0  0  0  0  0  0  0  0  0  0  0
  1  2  1  0
  2  3  1  0
  3  4  2  0
  4  5  1  0
  5  6  2  0
  6  7  1  0
  7  8  2  0
  8  9  1  0
  9 10  1  0
 10 11  2  0
 11 12  1  0
 12 13  2  0
 13 14  1  0
 14 15  2  0
  8 16  1  0
 16 17  2  0
 17 18  1  0
 18 19  1  0
 19 20  1  0
 20 21  1  0
 21 22  1  0
 18 23  1  0
 23 24  2  0
 23  3  1  0
 17  5  1  0
 15 10  1  0
  1 25  1  0
  1 26  1  0
  1 27  1  0
  2 28  1  0
  2 29  1  0
  4 30  1  0
  6 31  1  0
 11 32  1  0
 12 33  1  0
 13 34  1  0
 14 35  1  0
 15 36  1  0
 19 37  1  0
 19 38  1  0
 20 39  1  0
 20 40  1  0
 22 41  1  0
 22 42  1  0
 22 43  1  0
M  CHG  1   4   1
M  END
>  <UniqueID>  (39) 
36

>  <SMILES>  (39) 
CCc1[nH+]c2cnc(Oc3ccccc3)nc2n(CCOC)c1=O

>  <Energy>  (39) 
55.313651254509374

>  <Genealogy>  (39) 
CCc1[nH+]c2cnc(Oc3ccccc3)nc2n(CCOC)c1=O (protonated)
CCc1[nH+]c2cnc(Oc3ccccc3)nc2n(CCOC)c1=O (3D coordinates assigned)
CCc1[nH+]c2cnc(Oc3ccccc3)nc2n(CCOC)c1=O (optimized conformer: 55.313651254509374 kcal/mol)

>  <smiles>  (39) 
CCc1nc2cnc(Oc3ccccc3)nc2n(CCOC)c1=O

>  <score_type>  (39) 
oracle

>  <origin>  (39) 
adg

>  <m_score__min__energy>  (39) 
-5.4800000000000004

>  <m_primary>  (39) 
energy

$$$$
39:0
     RDKit          3D

 61 65  0  0  0  0  0  0  0  0999 V2000
   56.3150   30.2080   42.6780 C   0  0  0  0  0  0  0  0  0  0  0  0
   56.9740   29.9950   44.0130 C   0  0  0  0  0  0  0  0  0  0  0  0
   57.0280   28.7080   44.5710 C   0  0  0  0  0  0  0  0  0  0  0  0
   57.6460   28.4960   45.8050 C   0  0  0  0  0  0  0  0  0  0  0  0
   58.2250   29.5680   46.5020 C   0  0  0  0  0  0  0  0  0  0  0  0
   58.8510   29.3830   47.7830 N   0  0  0  0  0  0  0  0  0  0  0  0
   60.1650   29.8730   48.1130 C   0  0  0  0  0  0  0  0  0  0  0  0
   60.8850   30.4060   47.2260 O   0  0  0  0  0  0  0  0  0  0  0  0
   60.6870   29.7750   49.4950 C   0  0  0  0  0  0  0  0  0  0  0  0
   60.7070   30.9110   50.3200 C   0  0  0  0  0  0  0  0  0  0  0  0
   61.1860   30.8280   51.6290 C   0  0  0  0  0  0  0  0  0  0  0  0
   61.6410   29.6090   52.1330 C   0  0  0  0  0  0  0  0  0  0  0  0
   61.6200   28.4570   51.3300 C   0  0  0  0  0  0  0  0  0  0  0  0
   62.0640   27.1900   51.8530 N   0  0  0  0  0  0  0  0  0  0  0  0
   63.4310   27.0450   52.3730 C   0  0  0  0  0  0  0  0  0  0  0  0
   63.9900   25.6240   52.1230 C   0  0  0  0  0  0  0  0  0  0  0  0
   63.0430   24.7320   51.5590 O   0  0  0  0  0  0  0  0  0  0  0  0
   61.8430   24.7770   52.2990 C   0  0  0  0  0  0  0  0  0  0  0  0
   61.1090   26.0840   51.9940 C   0  0  0  0  0  0  0  0  0  0  0  0
   61.1330   28.5460   50.0150 C   0  0  0  0  0  0  0  0  0  0  0  0
   58.1400   30.8580   45.9640 C   0  0  0  0  0  0  0  0  0  0  0  0
   57.5540   31.0780   44.7040 C   0  0  0  0  0  0  0  0  0  0  0  0
   57.4790   32.3990   44.1460 N   0  0  0  0  0  0  0  0  0  0  0  0
   57.5040   33.6330   44.8770 C   0  0  0  0  0  0  0  0  0  0  0  0
   56.7470   34.5710   44.5120 O   0  0  0  0  0  0  0  0  0  0  0  0
   58.4340   33.8510   45.9990 C   0  0  0  0  0  0  0  0  0  0  0  0
   59.7090   33.3380   46.1140 C   0  0  0  0  0  0  0  0  0  0  0  0
   60.1560   33.8390   47.3250 C   0  0  0  0  0  0  0  0  0  0  0  0
   61.4870   33.6260   47.9460 C   0  0  0  0  0  0  0  0  0  0  0  0
   61.7540   34.0450   49.2630 C   0  0  0  0  0  0  0  0  0  0  0  0
   63.0120   33.8300   49.8350 C   0  0  0  0  0  0  0  0  0  0  0  0
   64.0180   33.1970   49.1000 C   0  0  0  0  0  0  0  0  0  0  0  0
   65.5940   32.9250   49.8220 Cl  0  0  0  0  0  0  0  0  0  0  0  0
   63.7660   32.7790   47.7910 C   0  0  0  0  0  0  0  0  0  0  0  0
   62.5090   32.9910   47.2170 C   0  0  0  0  0  0  0  0  0  0  0  0
   59.1830   34.5900   47.8800 N   0  0  0  0  0  0  0  0  0  0  0  0
   58.1700   34.5720   47.0620 O   0  0  0  0  0  0  0  0  0  0  0  0
   55.2784   30.5431   42.8301 H   0  0  0  0  0  0  0  0  0  0  0  0
   56.8685   30.9730   42.1137 H   0  0  0  0  0  0  0  0  0  0  0  0
   56.3161   29.2638   42.1137 H   0  0  0  0  0  0  0  0  0  0  0  0
   56.5801   27.8601   44.0320 H   0  0  0  0  0  0  0  0  0  0  0  0
   57.6793   27.4833   46.2333 H   0  0  0  0  0  0  0  0  0  0  0  0
   58.2680   28.9590   48.5380 H   0  0  0  0  0  0  0  0  0  0  0  0
   60.3426   31.8737   49.9322 H   0  0  0  0  0  0  0  0  0  0  0  0
   61.2047   31.7257   52.2644 H   0  0  0  0  0  0  0  0  0  0  0  0
   62.0181   29.5500   53.1647 H   0  0  0  0  0  0  0  0  0  0  0  0
   64.0821   27.7774   51.8733 H   0  0  0  0  0  0  0  0  0  0  0  0
   63.4051   27.2174   53.4591 H   0  0  0  0  0  0  0  0  0  0  0  0
   64.8454   25.7028   51.4360 H   0  0  0  0  0  0  0  0  0  0  0  0
   64.2762   25.2133   53.1025 H   0  0  0  0  0  0  0  0  0  0  0  0
   61.2067   23.9244   52.0192 H   0  0  0  0  0  0  0  0  0  0  0  0
   62.0710   24.7249   53.3738 H   0  0  0  0  0  0  0  0  0  0  0  0
   60.5444   25.9717   51.0567 H   0  0  0  0  0  0  0  0  0  0  0  0
   60.4243   26.3094   52.8249 H   0  0  0  0  0  0  0  0  0  0  0  0
   61.1001   27.6448   49.3851 H   0  0  0  0  0  0  0  0  0  0  0  0
   58.5368   31.7109   46.5342 H   0  0  0  0  0  0  0  0  0  0  0  0
   60.2447   32.6847   45.4096 H   0  0  0  0  0  0  0  0  0  0  0  0
   60.9673   34.5453   49.8467 H   0  0  0  0  0  0  0  0  0  0  0  0
   63.2100   34.1598   50.8655 H   0  0  0  0  0  0  0  0  0  0  0  0
   64.5578   32.2823   47.2111 H   0  0  0  0  0  0  0  0  0  0  0  0
   62.3174   32.6583   46.1862 H   0  0  0  0  0  0  0  0  0  0  0  0
  1  2  1  0
  2  3  2  0
  3  4  1  0
  4  5  2  0
  5  6  1  0
  6  7  1  0
  7  8  2  0
  7  9  1  0
  9 10  2  0
 10 11  1  0
 11 12  2  0
 12 13  1  0
 13 14  1  0
 14 15  1  0
 15 16  1  0
 16 17  1  0
 17 18  1  0
 18 19  1  0
 13 20  2  0
  5 21  1  0
 21 22  2  0
 22 23  1  0
 23 24  1  0
 24 25  2  0
 24 26  1  0
 26 27  2  0
 27 28  1  0
 28 29  1  0
 29 30  2  0
 30 31  1  0
 31 32  2  0
 32 33  1  0
 32 34  1  0
 34 35  2  0
 28 36  2  0
 36 37  1  0
 22  2  1  0
 37 26  1  0
 20  9  1  0
 35 29  1  0
 19 14  1  0
  1 38  1  0
  1 39  1  0
  1 40  1  0
  3 41  1  0
  4 42  1  0
  6 43  1  0
 10 44  1  0
 11 45  1  0
 12 46  1  0
 15 47  1  0
 15 48  1  0
 16 49  1  0
 16 50  1  0
 18 51  1  0
 18 52  1  0
 19 53  1  0
 19 54  1  0
 20 55  1  0
 21 56  1  0
 27 57  1  0
 30 58  1  0
 31 59  1  0
 34 60  1  0
 35 61  1  0
M  CHG  1  23  -1
M  END
>  <UniqueID>  (40) 
37

>  <SMILES>  (40) 
Cc1ccc(NC(=O)c2cccc(N3CCOCC3)c2)cc1[N-]C(=O)c1cc(-c2ccc(Cl)cc2)no1

>  <Energy>  (40) 
119.60397905390478

>  <Genealogy>  (40) 
Cc1ccc(NC(=O)c2cccc(N3CCOCC3)c2)cc1[N-]C(=O)c1cc(-c2ccc(Cl)cc2)no1 (protonated)
Cc1ccc(NC(=O)c2cccc(N3CCOCC3)c2)cc1[N-]C(=O)c1cc(-c2ccc(Cl)cc2)no1 (3D coordinates assigned)
Cc1ccc(NC(=O)c2cccc(N3CCOCC3)c2)cc1[N-]C(=O)c1cc(-c2ccc(Cl)cc2)no1 (nonaromatic ring conformer: 119.60397905390478 kcal/mol)

>  <smiles>  (40) 
Cc1ccc(NC(=O)c2cccc(N3CCOCC3)c2)cc1NC(=O)c1cc(-c2ccc(Cl)cc2)no1

>  <score_type>  (40) 
oracle

>  <origin>  (40) 
adg

>  <m_score__min__energy>  (40) 
-12.58

>  <m_primary>  (40) 
energy

$$$$
40:0
     RDKit          3D

 37 38  0  0  0  0  0  0  0  0999 V2000
   54.0730   25.0770   45.6240 C   0  0  0  0  0  0  0  0  0  0  0  0
   54.7770   26.2980   45.9920 N   0  0  0  0  0  0  0  0  0  0  0  0
   56.1670   26.3780   46.3390 C   0  0  0  0  0  0  0  0  0  0  0  0
   56.6190   25.5800   47.2010 O   0  0  0  0  0  0  0  0  0  0  0  0
   57.0900   27.3370   45.6960 C   0  0  0  0  0  0  0  0  0  0  0  0
   58.4630   27.0500   45.6380 C   0  0  0  0  0  0  0  0  0  0  0  0
   59.3490   27.9610   45.0610 C   0  0  0  0  0  0  0  0  0  0  0  0
   58.8780   29.1680   44.5430 C   0  0  0  0  0  0  0  0  0  0  0  0
   57.5090   29.4790   44.5990 C   0  0  0  0  0  0  0  0  0  0  0  0
   57.0070   30.7560   44.0380 C   0  0  0  0  0  0  0  0  0  0  0  0
   56.9180   30.8970   42.7890 O   0  0  0  0  0  0  0  0  0  0  0  0
   56.6830   31.8730   44.8820 N   0  0  0  0  0  0  0  0  0  0  0  0
   57.5110   32.7610   45.3590 C   0  0  0  0  0  0  0  0  0  0  0  0
   57.9240   32.7660   46.7080 C   0  0  0  0  0  0  0  0  0  0  0  0
   58.8420   33.7310   47.1590 C   0  0  0  0  0  0  0  0  0  0  0  0
   59.3120   33.7480   48.5660 C   0  0  0  0  0  0  0  0  0  0  0  0
   60.1450   34.6240   48.9280 O   0  0  0  0  0  0  0  0  0  0  0  0
   58.8530   32.7760   49.5200 N   0  0  0  0  0  0  0  0  0  0  0  0
   59.2210   32.8570   50.9280 C   0  0  0  0  0  0  0  0  0  0  0  0
   59.2960   34.7020   46.2550 C   0  0  0  0  0  0  0  0  0  0  0  0
   58.8410   34.6880   44.9360 C   0  0  0  0  0  0  0  0  0  0  0  0
   57.9710   33.7310   44.5240 N   0  0  0  0  0  0  0  0  0  0  0  0
   56.6240   28.5630   45.1970 C   0  0  0  0  0  0  0  0  0  0  0  0
   53.7649   24.5427   46.5348 H   0  0  0  0  0  0  0  0  0  0  0  0
   53.1832   25.3318   45.0296 H   0  0  0  0  0  0  0  0  0  0  0  0
   54.7393   24.4345   45.0296 H   0  0  0  0  0  0  0  0  0  0  0  0
   58.8422   26.1028   46.0492 H   0  0  0  0  0  0  0  0  0  0  0  0
   60.4227   27.7266   45.0144 H   0  0  0  0  0  0  0  0  0  0  0  0
   59.5825   29.8800   44.0883 H   0  0  0  0  0  0  0  0  0  0  0  0
   57.5278   32.0149   47.4072 H   0  0  0  0  0  0  0  0  0  0  0  0
   58.2810   31.9590   49.2100 H   0  0  0  0  0  0  0  0  0  0  0  0
   58.3352   32.6620   51.5503 H   0  0  0  0  0  0  0  0  0  0  0  0
   59.9958   32.1079   51.1481 H   0  0  0  0  0  0  0  0  0  0  0  0
   59.6097   33.8622   51.1481 H   0  0  0  0  0  0  0  0  0  0  0  0
   60.0086   35.4724   46.5846 H   0  0  0  0  0  0  0  0  0  0  0  0
   59.1884   35.4548   44.2279 H   0  0  0  0  0  0  0  0  0  0  0  0
   55.5550   28.8107   45.2742 H   0  0  0  0  0  0  0  0  0  0  0  0
  1  2  1  0
  2  3  1  0
  3  4  2  0
  3  5  1  0
  5  6  2  0
  6  7  1  0
  7  8  2  0
  8  9  1  0
  9 10  1  0
 10 11  2  0
 10 12  1  0
 12 13  2  3
 13 14  1  0
 14 15  2  0
 15 16  1  0
 16 17  2  0
 16 18  1  0
 18 19  1  0
 15 20  1  0
 20 21  2  0
 21 22  1  0
  9 23  2  0
 23  5  1  0
 22 13  1  0
  1 24  1  0
  1 25  1  0
  1 26  1  0
  6 27  1  0
  7 28  1  0
  8 29  1  0
 14 30  1  0
 18 31  1  0
 19 32  1  0
 19 33  1  0
 19 34  1  0
 20 35  1  0
 21 36  1  0
 23 37  1  0
M  CHG  2   2  -1  22  -1
M  END
>  <UniqueID>  (41) 
38

>  <SMILES>  (41) 
C[N-]C(=O)c1cccc(C(=O)N=c2cc(C(=O)NC)cc[n-]2)c1

>  <Energy>  (41) 
48.93263950644283

>  <Genealogy>  (41) 
C[N-]C(=O)c1cccc(C(=O)N=c2cc(C(=O)NC)cc[n-]2)c1 (protonated)
C[N-]C(=O)c1cccc(C(=O)N=c2cc(C(=O)NC)cc[n-]2)c1 (3D coordinates assigned)
C[N-]C(=O)c1cccc(C(=O)N=c2cc(C(=O)NC)cc[n-]2)c1 (optimized conformer: 48.93263950644283 kcal/mol)

>  <smiles>  (41) 
CNC(=O)c1cccc(C(=O)N=c2cc(C(=O)NC)cc[nH]2)c1

>  <score_type>  (41) 
oracle

>  <origin>  (41) 
adg

>  <m_score__min__energy>  (41) 
-11.279999999999999

>  <m_primary>  (41) 
energy

$$$$
42:0
     RDKit          3D

 80 83  0  0  0  0  0  0  0  0999 V2000
   58.0690   32.7120   42.6690 C   0  0  0  0  0  0  0  0  0  0  0  0
   57.9550   32.5530   44.1250 N   0  0  0  0  0  0  0  0  0  0  0  0
   57.7940   33.7410   44.9300 C   0  0  0  0  0  0  0  0  0  0  0  0
   56.6450   34.0770   45.3220 O   0  0  0  0  0  0  0  0  0  0  0  0
   58.9090   34.5720   45.2850 N   0  0  0  0  0  0  0  0  0  0  0  0
   59.8520   34.3120   46.3330 C   0  0  0  0  0  0  0  0  0  0  0  0
   61.1330   33.8650   45.9900 C   0  0  0  0  0  0  0  0  0  0  0  0
   62.0400   33.4970   46.9850 C   0  0  0  0  0  0  0  0  0  0  0  0
   61.6820   33.5750   48.3430 C   0  0  0  0  0  0  0  0  0  0  0  0
   62.6110   33.0800   49.3920 C   0  0  0  0  0  0  0  0  0  0  0  0
   63.0750   31.8210   49.3770 C   0  0  0  0  0  0  0  0  0  0  0  0
   64.0320   31.3660   50.4420 C   0  0  0  0  0  0  0  0  0  0  0  0
   64.9990   32.4410   50.7140 N   0  0  0  0  0  0  0  0  0  0  0  0
   66.3990   32.1680   50.9070 C   0  0  0  0  0  0  0  0  0  0  0  0
   67.1680   33.1250   51.1850 O   0  0  0  0  0  0  0  0  0  0  0  0
   66.9270   30.7920   50.7220 C   0  0  0  0  0  0  0  0  0  0  0  0
   67.0550   29.8440   51.6660 C   0  0  0  0  0  0  0  0  0  0  0  0
   67.4330   28.3980   51.4330 C   0  0  0  0  0  0  0  0  0  0  0  0
   68.0170   28.2180   50.0220 C   0  0  0  0  0  0  0  0  0  0  0  0
   68.3680   26.7360   49.7590 C   0  0  0  0  0  0  0  0  0  0  0  0
   67.7830   25.8420   50.6940 O   0  0  0  0  0  0  0  0  0  0  0  0
   66.4080   26.1300   50.8590 C   0  0  0  0  0  0  0  0  0  0  0  0
   66.2120   27.4660   51.6090 C   0  0  0  0  0  0  0  0  0  0  0  0
   64.5350   33.8320   50.8460 C   0  0  0  0  0  0  0  0  0  0  0  0
   63.0340   33.9840   50.5300 C   0  0  0  0  0  0  0  0  0  0  0  0
   60.4130   34.0770   48.6830 C   0  0  0  0  0  0  0  0  0  0  0  0
   59.5110   34.4590   47.6870 C   0  0  0  0  0  0  0  0  0  0  0  0
   58.3140   31.2700   44.7730 C   0  0  2  0  0  0  0  0  0  0  0  0
   57.4660   30.1000   44.2230 C   0  0  0  0  0  0  0  0  0  0  0  0
   57.3860   28.8980   45.1930 C   0  0  0  0  0  0  0  0  0  0  0  0
   58.6270   28.8070   46.1070 C   0  0  2  0  0  0  0  0  0  0  0  0
   58.5760   27.5790   46.9930 C   0  0  0  0  0  0  0  0  0  0  0  0
   57.4880   27.1240   47.3250 O   0  0  0  0  0  0  0  0  0  0  0  0
   59.7980   26.9720   47.4850 N   0  0  0  0  0  0  0  0  0  0  0  0
   60.4110   27.8200   48.5200 C   0  0  0  0  0  0  0  0  0  0  0  0
   60.7370   26.7410   46.3710 C   0  0  0  0  0  0  0  0  0  0  0  0
   58.7990   30.0810   46.9720 C   0  0  0  0  0  0  0  0  0  0  0  0
   58.2200   31.3460   46.3110 C   0  0  0  0  0  0  0  0  0  0  0  0
   58.6964   33.5870   42.4437 H   0  0  0  0  0  0  0  0  0  0  0  0
   58.5279   31.8107   42.2365 H   0  0  0  0  0  0  0  0  0  0  0  0
   57.0681   32.8574   42.2365 H   0  0  0  0  0  0  0  0  0  0  0  0
   61.4264   33.8034   44.9316 H   0  0  0  0  0  0  0  0  0  0  0  0
   63.0431   33.1430   46.7048 H   0  0  0  0  0  0  0  0  0  0  0  0
   62.7558   31.1245   48.5877 H   0  0  0  0  0  0  0  0  0  0  0  0
   63.4751   31.1307   51.3610 H   0  0  0  0  0  0  0  0  0  0  0  0
   64.5653   30.4666   50.1003 H   0  0  0  0  0  0  0  0  0  0  0  0
   67.2470   30.5203   49.7052 H   0  0  0  0  0  0  0  0  0  0  0  0
   66.8672   30.1483   52.7062 H   0  0  0  0  0  0  0  0  0  0  0  0
   68.1925   28.1263   52.1809 H   0  0  0  0  0  0  0  0  0  0  0  0
   67.2763   28.5505   49.2799 H   0  0  0  0  0  0  0  0  0  0  0  0
   68.9355   28.8179   49.9411 H   0  0  0  0  0  0  0  0  0  0  0  0
   68.0148   26.4677   48.7524 H   0  0  0  0  0  0  0  0  0  0  0  0
   69.4593   26.6391   49.8571 H   0  0  0  0  0  0  0  0  0  0  0  0
   65.9330   26.1993   49.8692 H   0  0  0  0  0  0  0  0  0  0  0  0
   65.9480   25.3241   51.4497 H   0  0  0  0  0  0  0  0  0  0  0  0
   65.3176   27.9700   51.2140 H   0  0  0  0  0  0  0  0  0  0  0  0
   66.0963   27.2468   52.6807 H   0  0  0  0  0  0  0  0  0  0  0  0
   64.7143   34.1676   51.8781 H   0  0  0  0  0  0  0  0  0  0  0  0
   65.0936   34.4418   50.1206 H   0  0  0  0  0  0  0  0  0  0  0  0
   62.4522   33.7252   51.4269 H   0  0  0  0  0  0  0  0  0  0  0  0
   62.8489   35.0258   50.2295 H   0  0  0  0  0  0  0  0  0  0  0  0
   60.1285   34.1696   49.7415 H   0  0  0  0  0  0  0  0  0  0  0  0
   58.5315   34.8759   47.9642 H   0  0  0  0  0  0  0  0  0  0  0  0
   59.3667   31.0740   44.5211 H   0  0  0  0  0  0  0  0  0  0  0  0
   56.4459   30.4658   44.0345 H   0  0  0  0  0  0  0  0  0  0  0  0
   57.9542   29.7462   43.3030 H   0  0  0  0  0  0  0  0  0  0  0  0
   56.4898   29.0080   45.8213 H   0  0  0  0  0  0  0  0  0  0  0  0
   57.3402   27.9786   44.5908 H   0  0  0  0  0  0  0  0  0  0  0  0
   59.5008   28.7220   45.4442 H   0  0  0  0  0  0  0  0  0  0  0  0
   59.5880   26.0390   47.9170 H   0  0  0  0  0  0  0  0  0  0  0  0
   60.1365   27.4402   49.5152 H   0  0  0  0  0  0  0  0  0  0  0  0
   61.5052   27.8006   48.4092 H   0  0  0  0  0  0  0  0  0  0  0  0
   60.0495   28.8530   48.4092 H   0  0  0  0  0  0  0  0  0  0  0  0
   61.7309   26.4965   46.7739 H   0  0  0  0  0  0  0  0  0  0  0  0
   60.3756   25.9050   45.7542 H   0  0  0  0  0  0  0  0  0  0  0  0
   60.8047   27.6493   45.7542 H   0  0  0  0  0  0  0  0  0  0  0  0
   58.2871   29.9230   47.9327 H   0  0  0  0  0  0  0  0  0  0  0  0
   59.8790   30.2449   47.1013 H   0  0  0  0  0  0  0  0  0  0  0  0
   57.1638   31.4497   46.6004 H   0  0  0  0  0  0  0  0  0  0  0  0
   58.8047   32.2133   46.6514 H   0  0  0  0  0  0  0  0  0  0  0  0
  1  2  1  0
  2  3  1  0
  3  4  2  0
  3  5  1  0
  5  6  1  0
  6  7  2  0
  7  8  1  0
  8  9  2  0
  9 10  1  0
 10 11  2  0
 11 12  1  0
 12 13  1  0
 13 14  1  0
 14 15  2  0
 14 16  1  0
 16 17  2  3
 17 18  1  0
 18 19  1  0
 19 20  1  0
 20 21  1  0
 21 22  1  0
 22 23  1  0
 13 24  1  0
 24 25  1  0
  9 26  1  0
 26 27  2  0
  2 28  1  0
 28 29  1  0
 29 30  1  0
 30 31  1  0
 31 32  1  0
 32 33  2  0
 32 34  1  0
 34 35  1  0
 34 36  1  0
 31 37  1  0
 37 38  1  0
 27  6  1  0
 38 28  1  0
 25 10  1  0
 23 18  1  0
  1 39  1  0
  1 40  1  0
  1 41  1  0
  7 42  1  0
  8 43  1  0
 11 44  1  0
 12 45  1  0
 12 46  1  0
 16 47  1  0
 17 48  1  0
 18 49  1  0
 19 50  1  0
 19 51  1  0
 20 52  1  0
 20 53  1  0
 22 54  1  0
 22 55  1  0
 23 56  1  0
 23 57  1  0
 24 58  1  0
 24 59  1  0
 25 60  1  0
 25 61  1  0
 26 62  1  0
 27 63  1  0
 28 64  1  1
 29 65  1  0
 29 66  1  0
 30 67  1  0
 30 68  1  0
 31 69  1  6
 34 70  1  0
 35 71  1  0
 35 72  1  0
 35 73  1  0
 36 74  1  0
 36 75  1  0
 36 76  1  0
 37 77  1  0
 37 78  1  0
 38 79  1  0
 38 80  1  0
M  CHG  2   5  -1  34   1
M  END
>  <UniqueID>  (42) 
39

>  <SMILES>  (42) 
CN(C(=O)[N-]c1ccc(C2=CCN(C(=O)C=CC3CCOCC3)CC2)cc1)C1CCC(C(=O)[NH+](C)C)CC1

>  <Energy>  (42) 
106.6187344369061

>  <Genealogy>  (42) 
CN(C(=O)[N-]c1ccc(C2=CCN(C(=O)C=CC3CCOCC3)CC2)cc1)C1CCC(C(=O)[NH+](C)C)CC1 (protonated)
CN(C(=O)[N-]c1ccc(C2=CCN(C(=O)C=CC3CCOCC3)CC2)cc1)C1CCC(C(=O)[NH+](C)C)CC1 (3D coordinates assigned)
CN(C(=O)[N-]c1ccc(C2=CCN(C(=O)C=CC3CCOCC3)CC2)cc1)C1CCC(C(=O)[NH+](C)C)CC1 (nonaromatic ring conformer: 106.6187344369061 kcal/mol)

>  <smiles>  (42) 
CN(C)C(=O)C1CCC(N(C)C(=O)Nc2ccc(C3=CCN(C(=O)C=CC4CCOCC4)CC3)cc2)CC1

>  <score_type>  (42) 
oracle

>  <origin>  (42) 
adg

>  <m_score__min__energy>  (42) 
-9.9700000000000006

>  <m_primary>  (42) 
energy

$$$$
43:0
     RDKit          3D

 47 49  0  0  0  0  0  0  0  0999 V2000
   57.7830   30.6550   46.3730 O   0  0  0  0  0  0  0  0  0  0  0  0
   57.6760   31.5780   45.5190 C   0  0  0  0  0  0  0  0  0  0  0  0
   56.8490   31.3900   44.3600 N   0  0  0  0  0  0  0  0  0  0  0  0
   56.2490   30.0980   44.0320 C   0  0  0  0  0  0  0  0  0  0  0  0
   57.2980   29.1810   43.4000 C   0  0  0  0  0  0  0  0  0  0  0  0
   58.1430   28.5290   44.4600 C   0  0  0  0  0  0  0  0  0  0  0  0
   59.5160   28.8150   44.5470 C   0  0  0  0  0  0  0  0  0  0  0  0
   60.2950   28.2310   45.5510 C   0  0  0  0  0  0  0  0  0  0  0  0
   59.7090   27.3680   46.4810 C   0  0  0  0  0  0  0  0  0  0  0  0
   60.4650   26.8040   47.4530 F   0  0  0  0  0  0  0  0  0  0  0  0
   58.3400   27.0890   46.4090 C   0  0  0  0  0  0  0  0  0  0  0  0
   57.5580   27.6700   45.4060 C   0  0  0  0  0  0  0  0  0  0  0  0
   58.4040   32.8500   45.7280 C   0  0  0  0  0  0  0  0  0  0  0  0
   58.4820   33.7780   44.6740 C   0  0  0  0  0  0  0  0  0  0  0  0
   59.0900   35.0210   44.8650 C   0  0  0  0  0  0  0  0  0  0  0  0
   59.6190   35.3570   46.1110 C   0  0  0  0  0  0  0  0  0  0  0  0
   59.5540   34.4470   47.1670 C   0  0  0  0  0  0  0  0  0  0  0  0
   58.9680   33.1850   46.9850 C   0  0  0  0  0  0  0  0  0  0  0  0
   58.9740   32.2590   48.0820 N   0  0  0  0  0  0  0  0  0  0  0  0
   59.8190   32.4960   49.2500 C   0  0  0  0  0  0  0  0  0  0  0  0
   61.2530   32.6690   48.8300 C   0  0  0  0  0  0  0  0  0  0  0  0
   61.8260   31.8090   47.8780 C   0  0  0  0  0  0  0  0  0  0  0  0
   63.1670   31.9570   47.5120 C   0  0  0  0  0  0  0  0  0  0  0  0
   63.9480   32.9550   48.0990 C   0  0  0  0  0  0  0  0  0  0  0  0
   63.3900   33.8050   49.0570 C   0  0  0  0  0  0  0  0  0  0  0  0
   62.0480   33.6610   49.4260 C   0  0  0  0  0  0  0  0  0  0  0  0
   56.8230   32.1330   43.6270 H   0  0  0  0  0  0  0  0  0  0  0  0
   55.8630   29.6316   44.9504 H   0  0  0  0  0  0  0  0  0  0  0  0
   55.4262   30.2520   43.3184 H   0  0  0  0  0  0  0  0  0  0  0  0
   56.7897   28.4015   42.8135 H   0  0  0  0  0  0  0  0  0  0  0  0
   57.9493   29.7842   42.7503 H   0  0  0  0  0  0  0  0  0  0  0  0
   59.9798   29.5008   43.8227 H   0  0  0  0  0  0  0  0  0  0  0  0
   61.3711   28.4514   45.6088 H   0  0  0  0  0  0  0  0  0  0  0  0
   57.8782   26.4117   47.1424 H   0  0  0  0  0  0  0  0  0  0  0  0
   56.4806   27.4538   45.3572 H   0  0  0  0  0  0  0  0  0  0  0  0
   58.0605   33.5227   43.6906 H   0  0  0  0  0  0  0  0  0  0  0  0
   59.1517   35.7360   44.0314 H   0  0  0  0  0  0  0  0  0  0  0  0
   60.0880   36.3405   46.2615 H   0  0  0  0  0  0  0  0  0  0  0  0
   59.9653   34.7211   48.1497 H   0  0  0  0  0  0  0  0  0  0  0  0
   58.0950   31.7150   48.2390 H   0  0  0  0  0  0  0  0  0  0  0  0
   59.4793   33.4067   49.7650 H   0  0  0  0  0  0  0  0  0  0  0  0
   59.7458   31.6314   49.9261 H   0  0  0  0  0  0  0  0  0  0  0  0
   61.2170   31.0162   47.4190 H   0  0  0  0  0  0  0  0  0  0  0  0
   63.6080   31.2860   46.7601 H   0  0  0  0  0  0  0  0  0  0  0  0
   65.0021   33.0717   47.8071 H   0  0  0  0  0  0  0  0  0  0  0  0
   64.0064   34.5885   49.5219 H   0  0  0  0  0  0  0  0  0  0  0  0
   61.6142   34.3275   50.1859 H   0  0  0  0  0  0  0  0  0  0  0  0
  1  2  2  0
  2  3  1  0
  3  4  1  0
  4  5  1  0
  5  6  1  0
  6  7  2  0
  7  8  1  0
  8  9  2  0
  9 10  1  0
  9 11  1  0
 11 12  2  0
  2 13  1  0
 13 14  2  0
 14 15  1  0
 15 16  2  0
 16 17  1  0
 17 18  2  0
 18 19  1  0
 19 20  1  0
 20 21  1  0
 21 22  2  0
 22 23  1  0
 23 24  2  0
 24 25  1  0
 25 26  2  0
 12  6  1  0
 18 13  1  0
 26 21  1  0
  3 27  1  0
  4 28  1  0
  4 29  1  0
  5 30  1  0
  5 31  1  0
  7 32  1  0
  8 33  1  0
 11 34  1  0
 12 35  1  0
 14 36  1  0
 15 37  1  0
 16 38  1  0
 17 39  1  0
 19 40  1  0
 20 41  1  0
 20 42  1  0
 22 43  1  0
 23 44  1  0
 24 45  1  0
 25 46  1  0
 26 47  1  0
M  END
>  <UniqueID>  (43) 
40

>  <SMILES>  (43) 
O=C(NCCc1ccc(F)cc1)c1ccccc1NCc1ccccc1

>  <Energy>  (43) 
51.557080301814956

>  <Genealogy>  (43) 
O=C(NCCc1ccc(F)cc1)c1ccccc1NCc1ccccc1 (3D coordinates assigned)
O=C(NCCc1ccc(F)cc1)c1ccccc1NCc1ccccc1 (optimized conformer: 51.557080301814956 kcal/mol)

>  <smiles>  (43) 
O=C(NCCc1ccc(F)cc1)c1ccccc1NCc1ccccc1

>  <score_type>  (43) 
oracle

>  <origin>  (43) 
adg

>  <m_score__min__energy>  (43) 
-8.4700000000000006

>  <m_primary>  (43) 
energy

$$$$
44:0
     RDKit          3D

 76 80  0  0  0  0  0  0  0  0999 V2000
   59.4032   34.7691   49.5712 H   0  0  0  0  0  0  0  0  0  0  0  0
   59.8770   34.5890   48.5950 C   0  0  0  0  0  0  0  0  0  0  0  0
   59.2330   34.9470   47.4560 N   0  0  0  0  0  0  0  0  0  0  0  0
   59.7650   34.7110   46.2160 C   0  0  0  0  0  0  0  0  0  0  0  0
   59.1030   35.0240   45.1460 N   0  0  0  0  0  0  0  0  0  0  0  0
   57.7380   34.5790   44.8630 C   0  0  0  0  0  0  0  0  0  0  0  0
   57.2053   34.4053   45.8096 H   0  0  0  0  0  0  0  0  0  0  0  0
   57.2129   35.3525   44.2833 H   0  0  0  0  0  0  0  0  0  0  0  0
   57.7697   33.6447   44.2833 H   0  0  0  0  0  0  0  0  0  0  0  0
   61.0550   34.1590   46.1090 C   0  0  0  0  0  0  0  0  0  0  0  0
   61.5126   33.9976   45.1218 H   0  0  0  0  0  0  0  0  0  0  0  0
   61.7460   33.8190   47.2740 C   0  0  0  0  0  0  0  0  0  0  0  0
   62.7668   33.4151   47.2049 H   0  0  0  0  0  0  0  0  0  0  0  0
   61.1470   33.9890   48.5340 C   0  0  0  0  0  0  0  0  0  0  0  0
   61.8020   33.4570   49.7840 C   0  0  0  0  0  0  0  0  0  0  0  0
   62.7183   32.9172   49.5028 H   0  0  0  0  0  0  0  0  0  0  0  0
   62.0291   34.3111   50.4390 H   0  0  0  0  0  0  0  0  0  0  0  0
   60.8940   32.5160   50.5410 C   0  0  0  0  0  0  0  0  0  0  0  0
   60.5290   31.2200   50.1680 C   0  0  0  0  0  0  0  0  0  0  0  0
   60.8360   30.6350   48.8400 C   0  0  0  0  0  0  0  0  0  0  0  0
   61.9710   30.9340   48.3690 O   0  0  0  0  0  0  0  0  0  0  0  0
   59.8580   29.9090   48.0320 N   0  0  0  0  0  0  0  0  0  0  0  0
   59.7280   28.9770   48.4850 H   0  0  0  0  0  0  0  0  0  0  0  0
   60.2860   29.6680   46.6140 C   0  0  0  0  0  0  0  0  0  0  0  0
   61.3257   30.0096   46.5027 H   0  0  0  0  0  0  0  0  0  0  0  0
   60.1745   28.5902   46.4244 H   0  0  0  0  0  0  0  0  0  0  0  0
   59.4180   30.4010   45.5680 C   0  0  0  0  0  0  0  0  0  0  0  0
   59.9345   30.3967   44.5968 H   0  0  0  0  0  0  0  0  0  0  0  0
   58.4498   29.8874   45.4741 H   0  0  0  0  0  0  0  0  0  0  0  0
   59.1930   31.7880   45.9950 N   0  0  0  0  0  0  0  0  0  0  0  0
   58.5930   32.2450   45.2650 H   0  0  0  0  0  0  0  0  0  0  0  0
   58.5020   31.8730   47.2970 C   0  0  0  0  0  0  0  0  0  0  0  0
   58.9931   32.6489   47.9027 H   0  0  0  0  0  0  0  0  0  0  0  0
   57.4483   32.1123   47.0911 H   0  0  0  0  0  0  0  0  0  0  0  0
   58.5230   30.5530   48.0850 C   0  0  0  0  0  0  0  0  0  0  0  0
   58.2672   30.7594   49.1348 H   0  0  0  0  0  0  0  0  0  0  0  0
   57.7915   29.8684   47.6308 H   0  0  0  0  0  0  0  0  0  0  0  0
   59.6580   30.6870   51.0660 N   0  0  0  0  0  0  0  0  0  0  0  0
   59.0810   29.3280   51.0530 C   0  0  0  0  0  0  0  0  0  0  0  0
   58.3473   29.2477   51.8686 H   0  0  0  0  0  0  0  0  0  0  0  0
   58.6101   29.1725   50.0711 H   0  0  0  0  0  0  0  0  0  0  0  0
   60.1280   28.2580   51.2360 C   0  0  0  0  0  0  0  0  0  0  0  0
   60.8690   28.2040   52.4330 C   0  0  0  0  0  0  0  0  0  0  0  0
   60.6697   28.9329   53.2324 H   0  0  0  0  0  0  0  0  0  0  0  0
   61.8540   27.2320   52.6110 C   0  0  0  0  0  0  0  0  0  0  0  0
   62.4120   27.1820   53.5577 H   0  0  0  0  0  0  0  0  0  0  0  0
   62.1320   26.3230   51.5890 C   0  0  0  0  0  0  0  0  0  0  0  0
   62.9077   25.5565   51.7333 H   0  0  0  0  0  0  0  0  0  0  0  0
   61.4290   26.3830   50.3840 C   0  0  0  0  0  0  0  0  0  0  0  0
   61.6607   25.6694   49.5795 H   0  0  0  0  0  0  0  0  0  0  0  0
   60.4260   27.3510   50.1930 C   0  0  0  0  0  0  0  0  0  0  0  0
   59.7080   27.4360   48.9880 O   0  0  0  0  0  0  0  0  0  0  0  0
   59.8620   26.5580   47.8740 C   0  0  0  0  0  0  0  0  0  0  0  0
   60.7466   26.8516   47.2898 H   0  0  0  0  0  0  0  0  0  0  0  0
   59.9951   25.5240   48.2250 H   0  0  0  0  0  0  0  0  0  0  0  0
   58.6160   26.6570   47.0040 C   0  0  0  0  0  0  0  0  0  0  0  0
   58.2496   27.6942   47.0034 H   0  0  0  0  0  0  0  0  0  0  0  0
   58.8603   26.3564   45.9745 H   0  0  0  0  0  0  0  0  0  0  0  0
   57.5820   25.7740   47.5400 N   0  0  0  0  0  0  0  0  0  0  0  0
   56.3700   25.4780   46.3320 S   0  0  0  0  0  0  0  0  0  0  0  0
   55.5310   26.7120   46.1900 O   0  0  0  0  0  0  0  0  0  0  0  0
   55.4880   24.3350   46.7460 O   0  0  0  0  0  0  0  0  0  0  0  0
   57.1330   25.1010   44.7760 C   0  0  0  0  0  0  0  0  0  0  0  0
   58.1065   24.6200   44.9520 H   0  0  0  0  0  0  0  0  0  0  0  0
   56.4850   24.4194   44.2055 H   0  0  0  0  0  0  0  0  0  0  0  0
   57.2807   26.0298   44.2055 H   0  0  0  0  0  0  0  0  0  0  0  0
   59.4900   31.6250   52.0260 C   0  0  0  0  0  0  0  0  0  0  0  0
   58.6830   31.5670   53.1740 C   0  0  0  0  0  0  0  0  0  0  0  0
   58.1206   30.6542   53.4201 H   0  0  0  0  0  0  0  0  0  0  0  0
   58.6100   32.6960   53.9980 C   0  0  0  0  0  0  0  0  0  0  0  0
   57.9889   32.6711   54.9055 H   0  0  0  0  0  0  0  0  0  0  0  0
   59.3300   33.8690   53.6710 C   0  0  0  0  0  0  0  0  0  0  0  0
   59.2170   35.2800   54.7020 Cl  0  0  0  0  0  0  0  0  0  0  0  0
   60.1260   33.9070   52.5120 C   0  0  0  0  0  0  0  0  0  0  0  0
   60.6726   34.8206   52.2353 H   0  0  0  0  0  0  0  0  0  0  0  0
   60.2070   32.7620   51.7220 C   0  0  0  0  0  0  0  0  0  0  0  0
  1  2  1  0
  2  3  1  0
  3  4  1  0
  4  5  2  0
  5  6  1  0
  6  7  1  0
  6  8  1  0
  6  9  1  0
  4 10  1  0
 10 11  1  0
 10 12  2  0
 12 13  1  0
 12 14  1  0
 14 15  1  0
 15 16  1  0
 15 17  1  0
 15 18  1  0
 18 19  2  0
 19 20  1  0
 20 21  2  0
 20 22  1  0
 22 23  1  0
 22 24  1  0
 24 25  1  0
 24 26  1  0
 24 27  1  0
 27 28  1  0
 27 29  1  0
 27 30  1  0
 30 31  1  0
 30 32  1  0
 32 33  1  0
 32 34  1  0
 32 35  1  0
 35 36  1  0
 35 37  1  0
 19 38  1  0
 38 39  1  0
 39 40  1  0
 39 41  1  0
 39 42  1  0
 42 43  2  0
 43 44  1  0
 43 45  1  0
 45 46  1  0
 45 47  2  0
 47 48  1  0
 47 49  1  0
 49 50  1  0
 49 51  2  0
 51 52  1  0
 52 53  1  0
 53 54  1  0
 53 55  1  0
 53 56  1  0
 56 57  1  0
 56 58  1  0
 56 59  1  0
 59 60  1  0
 60 61  2  0
 60 62  2  0
 60 63  1  0
 63 64  1  0
 63 65  1  0
 63 66  1  0
 38 67  1  0
 67 68  2  0
 68 69  1  0
 68 70  1  0
 70 71  1  0
 70 72  2  0
 72 73  1  0
 72 74  1  0
 74 75  1  0
 74 76  2  0
 14  2  2  0
 76 18  1  0
 35 22  1  0
 51 42  1  0
 76 67  1  0
M  CHG  3   3  -1  22   1  59  -1
M  END
>  <UniqueID>  (44) 
41

>  <SMILES>  (44) 
C/N=c1/ccc(Cc2c(C(=O)[NH+]3CCNCC3)n(Cc3ccccc3OCC[N-]S(C)(=O)=O)c3ccc(Cl)cc23)c[n-]1

>  <Energy>  (44) 
129.7655700803615

>  <Genealogy>  (44) 
CN=c1ccc(Cc2c(C(=O)[NH+]3CCNCC3)n(Cc3ccccc3OCC[N-]S(C)(=O)=O)c3ccc(Cl)cc23)c[n-]1 (protonated)
C/N=c1/ccc(Cc2c(C(=O)[NH+]3CCNCC3)n(Cc3ccccc3OCC[N-]S(C)(=O)=O)c3ccc(Cl)cc23)c[n-]1 (cis-trans isomerization)
C/N=c1/ccc(Cc2c(C(=O)[NH+]3CCNCC3)n(Cc3ccccc3OCC[N-]S(C)(=O)=O)c3ccc(Cl)cc23)c[n-]1 (3D coordinates assigned)
C/N=c1/ccc(Cc2c(C(=O)[NH+]3CCNCC3)n(Cc3ccccc3OCC[N-]S(C)(=O)=O)c3ccc(Cl)cc23)c[n-]1 (nonaromatic ring conformer: 129.7655700803615 kcal/mol)

>  <smiles>  (44) 
CN=c1ccc(Cc2c(C(=O)N3CCNCC3)n(Cc3ccccc3OCCNS(C)(=O)=O)c3ccc(Cl)cc23)c[nH]1

>  <score_type>  (44) 
oracle

>  <origin>  (44) 
adg

>  <m_score__min__energy>  (44) 
-10.85

>  <m_primary>  (44) 
energy

$$$$
45:0
     RDKit          3D

 29 30  0  0  0  0  0  0  0  0999 V2000
   55.1530   26.4480   46.0060 N   0  0  0  0  0  0  0  0  0  0  0  0
   56.8450   26.8030   45.9480 S   0  0  0  0  0  0  0  0  0  0  0  0
   57.4860   25.9240   44.9100 O   0  0  0  0  0  0  0  0  0  0  0  0
   57.4640   26.5270   47.2890 O   0  0  0  0  0  0  0  0  0  0  0  0
   57.0830   28.4950   45.5300 C   0  0  0  0  0  0  0  0  0  0  0  0
   58.0360   29.2600   46.2150 C   0  0  0  0  0  0  0  0  0  0  0  0
   58.2350   30.6020   45.8770 C   0  0  0  0  0  0  0  0  0  0  0  0
   57.4800   31.1990   44.8600 C   0  0  0  0  0  0  0  0  0  0  0  0
   57.7320   32.5730   44.5320 N   0  0  0  0  0  0  0  0  0  0  0  0
   57.5880   33.7030   45.4050 C   0  0  0  0  0  0  0  0  0  0  0  0
   56.6670   34.5430   45.2130 O   0  0  0  0  0  0  0  0  0  0  0  0
   58.4750   33.8690   46.5680 C   0  0  0  0  0  0  0  0  0  0  0  0
   59.5050   34.7280   46.5600 C   0  0  0  0  0  0  0  0  0  0  0  0
   60.2860   34.8910   47.7100 O   0  0  0  0  0  0  0  0  0  0  0  0
   59.8710   34.3750   48.9750 C   0  0  0  0  0  0  0  0  0  0  0  0
   59.1900   33.0210   48.7810 C   0  0  0  0  0  0  0  0  0  0  0  0
   58.2330   33.1110   47.7240 O   0  0  0  0  0  0  0  0  0  0  0  0
   56.5470   30.4210   44.1510 C   0  0  0  0  0  0  0  0  0  0  0  0
   56.3480   29.0780   44.4900 C   0  0  0  0  0  0  0  0  0  0  0  0
   54.7300   27.0930   46.7090 H   0  0  0  0  0  0  0  0  0  0  0  0
   58.6293   28.8036   47.0210 H   0  0  0  0  0  0  0  0  0  0  0  0
   58.9908   31.1936   46.4143 H   0  0  0  0  0  0  0  0  0  0  0  0
   59.7356   35.3034   45.6513 H   0  0  0  0  0  0  0  0  0  0  0  0
   60.7493   34.2526   49.6258 H   0  0  0  0  0  0  0  0  0  0  0  0
   59.1618   35.0761   49.4393 H   0  0  0  0  0  0  0  0  0  0  0  0
   59.9465   32.2643   48.5260 H   0  0  0  0  0  0  0  0  0  0  0  0
   58.6792   32.7332   49.7117 H   0  0  0  0  0  0  0  0  0  0  0  0
   55.9720   30.8697   43.3275 H   0  0  0  0  0  0  0  0  0  0  0  0
   55.6108   28.4773   43.9371 H   0  0  0  0  0  0  0  0  0  0  0  0
  1  2  1  0
  2  3  2  0
  2  4  2  0
  2  5  1  0
  5  6  2  0
  6  7  1  0
  7  8  2  0
  8  9  1  0
  9 10  1  0
 10 11  2  0
 10 12  1  0
 12 13  2  0
 13 14  1  0
 14 15  1  0
 15 16  1  0
 16 17  1  0
  8 18  1  0
 18 19  2  0
 19  5  1  0
 17 12  1  0
  1 20  1  0
  6 21  1  0
  7 22  1  0
 13 23  1  0
 15 24  1  0
 15 25  1  0
 16 26  1  0
 16 27  1  0
 18 28  1  0
 19 29  1  0
M  CHG  2   1  -1   9  -1
M  END
>  <UniqueID>  (45) 
42

>  <SMILES>  (45) 
[NH-]S(=O)(=O)c1ccc([N-]C(=O)C2=COCCO2)cc1

>  <Energy>  (45) 
31.796376773537744

>  <Genealogy>  (45) 
[NH-]S(=O)(=O)c1ccc([N-]C(=O)C2=COCCO2)cc1 (protonated)
[NH-]S(=O)(=O)c1ccc([N-]C(=O)C2=COCCO2)cc1 (3D coordinates assigned)
[NH-]S(=O)(=O)c1ccc([N-]C(=O)C2=COCCO2)cc1 (nonaromatic ring conformer: 31.796376773537744 kcal/mol)

>  <smiles>  (45) 
NS(=O)(=O)c1ccc(NC(=O)C2=COCCO2)cc1

>  <score_type>  (45) 
oracle

>  <origin>  (45) 
adg

>  <m_score__min__energy>  (45) 
-10.07

>  <m_primary>  (45) 
energy

$$$$
46:0
     RDKit          3D

 70 74  0  0  0  0  0  0  0  0999 V2000
   63.1760   31.1900   47.2850 O   0  0  0  0  0  0  0  0  0  0  0  0
   62.0790   31.7990   47.1400 C   0  0  0  0  0  0  0  0  0  0  0  0
   60.8220   31.0240   47.3480 C   0  0  0  0  0  0  0  0  0  0  0  0
   60.0050   30.7870   46.2270 C   0  0  0  0  0  0  0  0  0  0  0  0
   58.8570   29.9960   46.3220 C   0  0  0  0  0  0  0  0  0  0  0  0
   57.8630   29.7030   44.8940 S   0  0  0  0  0  0  0  0  0  0  0  0
   56.4410   30.0880   45.1980 O   0  0  0  0  0  0  0  0  0  0  0  0
   58.3450   30.5750   43.7670 O   0  0  0  0  0  0  0  0  0  0  0  0
   57.9200   28.0290   44.3860 N   0  0  0  0  0  0  0  0  0  0  0  0
   59.2890   27.5070   44.4490 C   0  0  0  0  0  0  0  0  0  0  0  0
   59.4540   26.7630   45.7640 C   0  0  0  0  0  0  0  0  0  0  0  0
   58.0480   26.4680   46.2450 C   0  0  0  0  0  0  0  0  0  0  0  0
   57.1150   27.1750   45.2690 C   0  0  0  0  0  0  0  0  0  0  0  0
   58.5050   29.4390   47.5550 C   0  0  0  0  0  0  0  0  0  0  0  0
   59.2780   29.6950   48.6850 C   0  0  0  0  0  0  0  0  0  0  0  0
   60.4270   30.4960   48.6030 C   0  0  0  0  0  0  0  0  0  0  0  0
   61.0940   30.8650   49.8180 N   0  0  0  0  0  0  0  0  0  0  0  0
   62.0210   29.9880   50.5130 C   0  0  0  0  0  0  0  0  0  0  0  0
   62.4120   30.7440   51.7750 C   0  0  0  0  0  0  0  0  0  0  0  0
   61.3030   31.7710   51.9940 C   0  0  0  0  0  0  0  0  0  0  0  0
   60.6650   31.9910   50.6270 C   0  0  0  0  0  0  0  0  0  0  0  0
   62.0640   33.2450   46.9540 N   0  0  0  0  0  0  0  0  0  0  0  0
   60.9270   33.8620   47.6850 C   0  0  0  0  0  0  0  0  0  0  0  0
   59.6430   33.9310   46.8810 C   0  0  0  0  0  0  0  0  0  0  0  0
   58.4420   33.4230   47.4080 C   0  0  0  0  0  0  0  0  0  0  0  0
   57.2660   33.4640   46.6530 C   0  0  0  0  0  0  0  0  0  0  0  0
   57.2730   34.0250   45.3730 C   0  0  0  0  0  0  0  0  0  0  0  0
   58.4570   34.5500   44.8500 C   0  0  0  0  0  0  0  0  0  0  0  0
   59.6340   34.5120   45.6030 C   0  0  0  0  0  0  0  0  0  0  0  0
   63.3550   33.8940   47.3050 C   0  0  0  0  0  0  0  0  0  0  0  0
   63.7080   33.7130   48.7640 C   0  0  0  0  0  0  0  0  0  0  0  0
   64.7310   32.8220   49.1340 C   0  0  0  0  0  0  0  0  0  0  0  0
   65.0700   32.6600   50.4800 C   0  0  0  0  0  0  0  0  0  0  0  0
   64.3870   33.3760   51.4660 C   0  0  0  0  0  0  0  0  0  0  0  0
   63.3700   34.2640   51.1060 C   0  0  0  0  0  0  0  0  0  0  0  0
   63.0320   34.4360   49.7610 C   0  0  0  0  0  0  0  0  0  0  0  0
   60.2750   31.2326   45.2582 H   0  0  0  0  0  0  0  0  0  0  0  0
   59.4646   26.8200   43.6080 H   0  0  0  0  0  0  0  0  0  0  0  0
   60.0134   28.3324   44.3862 H   0  0  0  0  0  0  0  0  0  0  0  0
   60.0107   25.8272   45.6083 H   0  0  0  0  0  0  0  0  0  0  0  0
   60.0193   27.3555   46.4985 H   0  0  0  0  0  0  0  0  0  0  0  0
   57.8604   25.3842   46.2366 H   0  0  0  0  0  0  0  0  0  0  0  0
   57.8928   26.8171   47.2765 H   0  0  0  0  0  0  0  0  0  0  0  0
   56.5721   26.4295   44.6694 H   0  0  0  0  0  0  0  0  0  0  0  0
   56.3868   27.7868   45.8216 H   0  0  0  0  0  0  0  0  0  0  0  0
   57.6153   28.7969   47.6329 H   0  0  0  0  0  0  0  0  0  0  0  0
   58.9841   29.2640   49.6534 H   0  0  0  0  0  0  0  0  0  0  0  0
   61.5335   29.0357   50.7688 H   0  0  0  0  0  0  0  0  0  0  0  0
   62.8956   29.7392   49.8940 H   0  0  0  0  0  0  0  0  0  0  0  0
   62.4742   30.0566   52.6315 H   0  0  0  0  0  0  0  0  0  0  0  0
   63.3978   31.2219   51.6761 H   0  0  0  0  0  0  0  0  0  0  0  0
   60.5589   31.3853   52.7064 H   0  0  0  0  0  0  0  0  0  0  0  0
   61.6966   32.7089   52.4128 H   0  0  0  0  0  0  0  0  0  0  0  0
   59.5684   32.0087   50.7120 H   0  0  0  0  0  0  0  0  0  0  0  0
   60.9656   32.9520   50.1842 H   0  0  0  0  0  0  0  0  0  0  0  0
   61.8960   33.4490   45.9460 H   0  0  0  0  0  0  0  0  0  0  0  0
   60.7361   33.2694   48.5918 H   0  0  0  0  0  0  0  0  0  0  0  0
   61.2179   34.8986   47.9106 H   0  0  0  0  0  0  0  0  0  0  0  0
   58.4279   32.9911   48.4196 H   0  0  0  0  0  0  0  0  0  0  0  0
   56.3332   33.0538   47.0673 H   0  0  0  0  0  0  0  0  0  0  0  0
   56.3479   34.0531   44.7786 H   0  0  0  0  0  0  0  0  0  0  0  0
   58.4632   34.9942   43.8437 H   0  0  0  0  0  0  0  0  0  0  0  0
   60.5598   34.9404   45.1913 H   0  0  0  0  0  0  0  0  0  0  0  0
   64.1525   33.4514   46.6902 H   0  0  0  0  0  0  0  0  0  0  0  0
   63.2534   34.9725   47.1138 H   0  0  0  0  0  0  0  0  0  0  0  0
   65.2662   32.2506   48.3613 H   0  0  0  0  0  0  0  0  0  0  0  0
   65.8761   31.9674   50.7636 H   0  0  0  0  0  0  0  0  0  0  0  0
   64.6497   33.2408   52.5256 H   0  0  0  0  0  0  0  0  0  0  0  0
   62.8342   34.8289   51.8830 H   0  0  0  0  0  0  0  0  0  0  0  0
   62.2340   35.1398   49.4820 H   0  0  0  0  0  0  0  0  0  0  0  0
  1  2  2  0
  2  3  1  0
  3  4  2  0
  4  5  1  0
  5  6  1  0
  6  7  2  0
  6  8  2  0
  6  9  1  0
  9 10  1  0
 10 11  1  0
 11 12  1  0
 12 13  1  0
  5 14  2  0
 14 15  1  0
 15 16  2  0
 16 17  1  0
 17 18  1  0
 18 19  1  0
 19 20  1  0
 20 21  1  0
  2 22  1  0
 22 23  1  0
 23 24  1  0
 24 25  2  0
 25 26  1  0
 26 27  2  0
 27 28  1  0
 28 29  2  0
 22 30  1  0
 30 31  1  0
 31 32  2  0
 32 33  1  0
 33 34  2  0
 34 35  1  0
 35 36  2  0
 16  3  1  0
 21 17  1  0
 29 24  1  0
 36 31  1  0
 13  9  1  0
  4 37  1  0
 10 38  1  0
 10 39  1  0
 11 40  1  0
 11 41  1  0
 12 42  1  0
 12 43  1  0
 13 44  1  0
 13 45  1  0
 14 46  1  0
 15 47  1  0
 18 48  1  0
 18 49  1  0
 19 50  1  0
 19 51  1  0
 20 52  1  0
 20 53  1  0
 21 54  1  0
 21 55  1  0
 22 56  1  0
 23 57  1  0
 23 58  1  0
 25 59  1  0
 26 60  1  0
 27 61  1  0
 28 62  1  0
 29 63  1  0
 30 64  1  0
 30 65  1  0
 32 66  1  0
 33 67  1  0
 34 68  1  0
 35 69  1  0
 36 70  1  0
M  CHG  1  22   1
M  END
>  <UniqueID>  (46) 
43

>  <SMILES>  (46) 
O=C(c1cc(S(=O)(=O)N2CCCC2)ccc1N1CCCC1)[NH+](Cc1ccccc1)Cc1ccccc1

>  <Energy>  (46) 
86.8438247290178

>  <Genealogy>  (46) 
O=C(c1cc(S(=O)(=O)N2CCCC2)ccc1N1CCCC1)[NH+](Cc1ccccc1)Cc1ccccc1 (protonated)
O=C(c1cc(S(=O)(=O)N2CCCC2)ccc1N1CCCC1)[NH+](Cc1ccccc1)Cc1ccccc1 (3D coordinates assigned)
O=C(c1cc(S(=O)(=O)N2CCCC2)ccc1N1CCCC1)[NH+](Cc1ccccc1)Cc1ccccc1 (nonaromatic ring conformer: 86.8438247290178 kcal/mol)

>  <smiles>  (46) 
O=C(c1cc(S(=O)(=O)N2CCCC2)ccc1N1CCCC1)N(Cc1ccccc1)Cc1ccccc1

>  <score_type>  (46) 
oracle

>  <origin>  (46) 
adg

>  <m_score__min__energy>  (46) 
-9.2799999999999994

>  <m_primary>  (46) 
energy

$$$$
47:0
     RDKit          3D

 19 20  0  0  0  0  0  0  0  0999 V2000
   54.4120   29.6640   45.4610 H   0  0  0  0  0  0  0  0  0  0  0  0
   55.1830   29.3390   44.8330 N   0  0  0  0  0  0  0  0  0  0  0  0
   56.1020   30.1520   44.4260 C   0  0  0  0  0  0  0  0  0  0  0  0
   56.7420   31.0150   45.2420 N   0  0  0  0  0  0  0  0  0  0  0  0
   57.6660   31.7480   44.5620 C   0  0  0  0  0  0  0  0  0  0  0  0
   58.4620   32.7970   45.2340 C   0  0  0  0  0  0  0  0  0  0  0  0
   58.5170   34.0760   44.6510 C   0  0  0  0  0  0  0  0  0  0  0  0
   57.9627   34.2760   43.7221 H   0  0  0  0  0  0  0  0  0  0  0  0
   59.2690   35.0940   45.2410 C   0  0  0  0  0  0  0  0  0  0  0  0
   59.3109   36.0882   44.7721 H   0  0  0  0  0  0  0  0  0  0  0  0
   59.9670   34.8520   46.4240 C   0  0  0  0  0  0  0  0  0  0  0  0
   60.5653   35.6530   46.8827 H   0  0  0  0  0  0  0  0  0  0  0  0
   59.9070   33.5950   47.0260 C   0  0  0  0  0  0  0  0  0  0  0  0
   60.4530   33.4114   47.9631 H   0  0  0  0  0  0  0  0  0  0  0  0
   59.1560   32.5650   46.4450 C   0  0  0  0  0  0  0  0  0  0  0  0
   59.0430   31.0390   47.3170 Cl  0  0  0  0  0  0  0  0  0  0  0  0
   57.7360   31.4760   43.1930 C   0  0  0  0  0  0  0  0  0  0  0  0
   58.4032   31.9702   42.4714 H   0  0  0  0  0  0  0  0  0  0  0  0
   56.6240   30.2620   42.8370 S   0  0  0  0  0  0  0  0  0  0  0  0
  1  2  1  0
  2  3  2  0
  3  4  1  0
  4  5  1  0
  5  6  1  0
  6  7  2  0
  7  8  1  0
  7  9  1  0
  9 10  1  0
  9 11  2  0
 11 12  1  0
 11 13  1  0
 13 14  1  0
 13 15  2  0
 15 16  1  0
  5 17  2  0
 17 18  1  0
 17 19  1  0
 19  3  1  0
 15  6  1  0
M  CHG  1   4  -1
M  END
>  <UniqueID>  (47) 
44

>  <SMILES>  (47) 
[H]/N=c1\[n-]c(-c2ccccc2Cl)cs1

>  <Energy>  (47) 
55.91294807838831

>  <Genealogy>  (47) 
N=c1[n-]c(-c2ccccc2Cl)cs1 (protonated)
[H]/N=c1\[n-]c(-c2ccccc2Cl)cs1 (cis-trans isomerization)
[H]/N=c1\[n-]c(-c2ccccc2Cl)cs1 (3D coordinates assigned)
[H]/N=c1\[n-]c(-c2ccccc2Cl)cs1 (optimized conformer: 55.91294807838831 kcal/mol)

>  <smiles>  (47) 
N=c1[nH]c(-c2ccccc2Cl)cs1

>  <score_type>  (47) 
oracle

>  <origin>  (47) 
adg

>  <m_score__min__energy>  (47) 
-8.9199999999999999

>  <m_primary>  (47) 
energy

$$$$
48:0
     RDKit          3D

 53 55  0  0  0  0  0  0  0  0999 V2000
   61.1350   29.1460   50.5650 C   0  0  0  0  0  0  0  0  0  0  0  0
   60.2610   28.8520   49.3740 C   0  0  0  0  0  0  0  0  0  0  0  0
   60.4200   27.6290   48.7040 C   0  0  0  0  0  0  0  0  0  0  0  0
   59.6320   27.3140   47.5960 C   0  0  0  0  0  0  0  0  0  0  0  0
   58.6600   28.2140   47.1370 C   0  0  0  0  0  0  0  0  0  0  0  0
   57.7990   27.8650   45.9840 C   0  0  0  0  0  0  0  0  0  0  0  0
   57.9410   26.7530   45.4020 O   0  0  0  0  0  0  0  0  0  0  0  0
   56.8040   28.7830   45.5270 N   0  0  0  0  0  0  0  0  0  0  0  0
   56.7570   29.2980   44.1630 C   0  0  0  0  0  0  0  0  0  0  0  0
   56.1600   30.7060   44.1550 C   0  0  0  0  0  0  0  0  0  0  0  0
   57.1080   31.6980   44.7740 C   0  0  0  0  0  0  0  0  0  0  0  0
   58.4410   31.3400   45.0340 C   0  0  0  0  0  0  0  0  0  0  0  0
   59.3020   32.2400   45.6690 C   0  0  0  0  0  0  0  0  0  0  0  0
   58.8420   33.5070   46.0510 C   0  0  0  0  0  0  0  0  0  0  0  0
   59.9230   34.6250   46.8760 S   0  0  0  0  0  0  0  0  0  0  0  0
   59.6180   34.5660   48.5770 N   0  0  0  0  0  0  0  0  0  0  0  0
   61.3510   34.2440   46.6020 O   0  0  0  0  0  0  0  0  0  0  0  0
   59.6910   36.0230   46.3740 O   0  0  0  0  0  0  0  0  0  0  0  0
   57.5100   33.8640   45.8030 C   0  0  0  0  0  0  0  0  0  0  0  0
   56.6480   32.9640   45.1690 C   0  0  0  0  0  0  0  0  0  0  0  0
   58.5140   29.4490   47.7880 C   0  0  0  0  0  0  0  0  0  0  0  0
   59.3190   29.7900   48.8870 C   0  0  0  0  0  0  0  0  0  0  0  0
   59.1050   31.3860   49.6280 S   0  0  0  0  0  0  0  0  0  0  0  0
   58.4180   32.2920   48.6470 O   0  0  0  0  0  0  0  0  0  0  0  0
   58.2770   31.2970   50.8790 O   0  0  0  0  0  0  0  0  0  0  0  0
   60.6440   32.0740   50.0360 N   0  0  0  0  0  0  0  0  0  0  0  0
   61.7210   32.2920   49.1150 C   0  0  0  0  0  0  0  0  0  0  0  0
   61.9580   31.4330   48.0250 C   0  0  0  0  0  0  0  0  0  0  0  0
   63.0070   31.6940   47.1380 C   0  0  0  0  0  0  0  0  0  0  0  0
   63.8290   32.8070   47.3320 C   0  0  0  0  0  0  0  0  0  0  0  0
   63.6010   33.6630   48.4110 C   0  0  0  0  0  0  0  0  0  0  0  0
   62.5490   33.4110   49.2970 C   0  0  0  0  0  0  0  0  0  0  0  0
   62.3370   34.2530   50.3390 F   0  0  0  0  0  0  0  0  0  0  0  0
   60.5705   28.9561   51.4898 H   0  0  0  0  0  0  0  0  0  0  0  0
   62.0227   28.4970   50.5375 H   0  0  0  0  0  0  0  0  0  0  0  0
   61.4500   30.1996   50.5375 H   0  0  0  0  0  0  0  0  0  0  0  0
   61.1746   26.9103   49.0563 H   0  0  0  0  0  0  0  0  0  0  0  0
   59.7745   26.3533   47.0795 H   0  0  0  0  0  0  0  0  0  0  0  0
   57.7765   29.3324   43.7514 H   0  0  0  0  0  0  0  0  0  0  0  0
   56.1286   28.6362   43.5489 H   0  0  0  0  0  0  0  0  0  0  0  0
   55.9555   31.0040   43.1161 H   0  0  0  0  0  0  0  0  0  0  0  0
   55.2306   30.6957   44.7433 H   0  0  0  0  0  0  0  0  0  0  0  0
   58.8092   30.3470   44.7367 H   0  0  0  0  0  0  0  0  0  0  0  0
   60.3446   31.9522   45.8695 H   0  0  0  0  0  0  0  0  0  0  0  0
   58.5850   34.4610   48.6990 H   0  0  0  0  0  0  0  0  0  0  0  0
   60.0550   33.6870   48.9350 H   0  0  0  0  0  0  0  0  0  0  0  0
   57.1416   34.8546   46.1078 H   0  0  0  0  0  0  0  0  0  0  0  0
   55.6030   33.2498   44.9786 H   0  0  0  0  0  0  0  0  0  0  0  0
   57.7561   30.1619   47.4312 H   0  0  0  0  0  0  0  0  0  0  0  0
   61.3157   30.5534   47.8706 H   0  0  0  0  0  0  0  0  0  0  0  0
   63.1854   31.0217   46.2858 H   0  0  0  0  0  0  0  0  0  0  0  0
   64.6555   33.0087   46.6348 H   0  0  0  0  0  0  0  0  0  0  0  0
   64.2503   34.5376   48.5645 H   0  0  0  0  0  0  0  0  0  0  0  0
  1  2  1  0
  2  3  2  0
  3  4  1  0
  4  5  2  0
  5  6  1  0
  6  7  2  0
  6  8  1  0
  8  9  1  0
  9 10  1  0
 10 11  1  0
 11 12  2  0
 12 13  1  0
 13 14  2  0
 14 15  1  0
 15 16  1  0
 15 17  2  0
 15 18  2  0
 14 19  1  0
 19 20  2  0
  5 21  1  0
 21 22  2  0
 22 23  1  0
 23 24  2  0
 23 25  2  0
 23 26  1  0
 26 27  1  0
 27 28  2  0
 28 29  1  0
 29 30  2  0
 30 31  1  0
 31 32  2  0
 32 33  1  0
 22  2  1  0
 32 27  1  0
 20 11  1  0
  1 34  1  0
  1 35  1  0
  1 36  1  0
  3 37  1  0
  4 38  1  0
  9 39  1  0
  9 40  1  0
 10 41  1  0
 10 42  1  0
 12 43  1  0
 13 44  1  0
 16 45  1  0
 16 46  1  0
 19 47  1  0
 20 48  1  0
 21 49  1  0
 28 50  1  0
 29 51  1  0
 30 52  1  0
 31 53  1  0
M  CHG  2   8  -1  26  -1
M  END
>  <UniqueID>  (48) 
45

>  <SMILES>  (48) 
Cc1ccc(C(=O)[N-]CCc2ccc(S(N)(=O)=O)cc2)cc1S(=O)(=O)[N-]c1ccccc1F

>  <Energy>  (48) 
54.71526225449028

>  <Genealogy>  (48) 
Cc1ccc(C(=O)[N-]CCc2ccc(S(N)(=O)=O)cc2)cc1S(=O)(=O)[N-]c1ccccc1F (protonated)
Cc1ccc(C(=O)[N-]CCc2ccc(S(N)(=O)=O)cc2)cc1S(=O)(=O)[N-]c1ccccc1F (3D coordinates assigned)
Cc1ccc(C(=O)[N-]CCc2ccc(S(N)(=O)=O)cc2)cc1S(=O)(=O)[N-]c1ccccc1F (optimized conformer: 54.71526225449028 kcal/mol)

>  <smiles>  (48) 
Cc1ccc(C(=O)NCCc2ccc(S(N)(=O)=O)cc2)cc1S(=O)(=O)Nc1ccccc1F

>  <score_type>  (48) 
oracle

>  <origin>  (48) 
adg

>  <m_score__min__energy>  (48) 
-13.210000000000001

>  <m_primary>  (48) 
energy

$$$$
49:0
     RDKit          3D

 64 66  0  0  0  0  0  0  0  0999 V2000
   56.0350   23.5020   47.1080 C   0  0  0  0  0  0  0  0  0  0  0  0
   57.4760   23.7900   47.0240 N   0  0  0  0  0  0  0  0  0  0  0  0
   57.9630   23.6470   45.6420 C   0  0  0  0  0  0  0  0  0  0  0  0
   57.8350   25.0930   47.6270 C   0  0  0  0  0  0  0  0  0  0  0  0
   57.8650   26.2370   46.6350 C   0  0  0  0  0  0  0  0  0  0  0  0
   59.0880   26.7190   46.1390 C   0  0  0  0  0  0  0  0  0  0  0  0
   59.1100   27.7640   45.2090 C   0  0  0  0  0  0  0  0  0  0  0  0
   57.9130   28.3550   44.7730 C   0  0  0  0  0  0  0  0  0  0  0  0
   57.9580   29.4110   43.8010 N   0  0  0  0  0  0  0  0  0  0  0  0
   57.2570   30.9750   44.0780 S   0  0  0  0  0  0  0  0  0  0  0  0
   55.9340   30.8160   44.7730 O   0  0  0  0  0  0  0  0  0  0  0  0
   57.0250   31.6440   42.7500 O   0  0  0  0  0  0  0  0  0  0  0  0
   58.3160   31.9490   45.0830 C   0  0  0  0  0  0  0  0  0  0  0  0
   58.2780   33.3470   45.0080 C   0  0  0  0  0  0  0  0  0  0  0  0
   59.2450   34.1080   45.6640 C   0  0  0  0  0  0  0  0  0  0  0  0
   60.2530   33.4810   46.4190 C   0  0  0  0  0  0  0  0  0  0  0  0
   61.3210   34.1970   46.9840 O   0  0  0  0  0  0  0  0  0  0  0  0
   62.6510   33.6830   47.0740 C   0  0  0  0  0  0  0  0  0  0  0  0
   63.1680   33.8030   48.5230 C   0  0  0  0  0  0  0  0  0  0  0  0
   62.2820   34.5980   49.3880 N   0  0  0  0  0  0  0  0  0  0  0  0
   61.6190   33.8180   50.4530 C   0  0  0  0  0  0  0  0  0  0  0  0
   60.0740   33.9100   50.4120 C   0  0  1  0  0  0  0  0  0  0  0  0
   59.6550   34.5570   49.2380 O   0  0  0  0  0  0  0  0  0  0  0  0
   59.4060   32.5510   50.5470 C   0  0  0  0  0  0  0  0  0  0  0  0
   58.3780   32.3370   51.4830 C   0  0  0  0  0  0  0  0  0  0  0  0
   57.7580   31.0870   51.5800 C   0  0  0  0  0  0  0  0  0  0  0  0
   58.1510   30.0440   50.7360 C   0  0  0  0  0  0  0  0  0  0  0  0
   59.1650   30.2470   49.7960 C   0  0  0  0  0  0  0  0  0  0  0  0
   59.6460   28.9430   48.7270 Cl  0  0  0  0  0  0  0  0  0  0  0  0
   59.7930   31.4930   49.7020 C   0  0  0  0  0  0  0  0  0  0  0  0
   60.2240   32.0880   46.5740 C   0  0  0  0  0  0  0  0  0  0  0  0
   59.2710   31.3250   45.8980 C   0  0  0  0  0  0  0  0  0  0  0  0
   56.6910   27.8620   45.2650 C   0  0  0  0  0  0  0  0  0  0  0  0
   56.6680   26.8120   46.1820 C   0  0  0  0  0  0  0  0  0  0  0  0
   55.7341   23.4419   48.1643 H   0  0  0  0  0  0  0  0  0  0  0  0
   55.4710   24.3052   46.6112 H   0  0  0  0  0  0  0  0  0  0  0  0
   55.8230   22.5437   46.6112 H   0  0  0  0  0  0  0  0  0  0  0  0
   59.0184   23.3371   45.6554 H   0  0  0  0  0  0  0  0  0  0  0  0
   57.3642   22.8868   45.1190 H   0  0  0  0  0  0  0  0  0  0  0  0
   57.8703   24.6103   45.1190 H   0  0  0  0  0  0  0  0  0  0  0  0
   57.0965   25.3295   48.4072 H   0  0  0  0  0  0  0  0  0  0  0  0
   58.8536   24.9905   48.0294 H   0  0  0  0  0  0  0  0  0  0  0  0
   60.0325   26.2727   46.4835 H   0  0  0  0  0  0  0  0  0  0  0  0
   60.0719   28.1253   44.8164 H   0  0  0  0  0  0  0  0  0  0  0  0
   58.6210   29.3250   42.9960 H   0  0  0  0  0  0  0  0  0  0  0  0
   57.4848   33.8451   44.4312 H   0  0  0  0  0  0  0  0  0  0  0  0
   59.2195   35.2053   45.5907 H   0  0  0  0  0  0  0  0  0  0  0  0
   62.6535   32.6250   46.7731 H   0  0  0  0  0  0  0  0  0  0  0  0
   63.3072   34.2626   46.4081 H   0  0  0  0  0  0  0  0  0  0  0  0
   63.2571   32.7922   48.9477 H   0  0  0  0  0  0  0  0  0  0  0  0
   64.1381   34.3201   48.4834 H   0  0  0  0  0  0  0  0  0  0  0  0
   61.6160   35.1560   48.8060 H   0  0  0  0  0  0  0  0  0  0  0  0
   61.9084   32.7624   50.3436 H   0  0  0  0  0  0  0  0  0  0  0  0
   61.9439   34.2408   51.4151 H   0  0  0  0  0  0  0  0  0  0  0  0
   59.7598   34.5049   51.2823 H   0  0  0  0  0  0  0  0  0  0  0  0
   60.3570   34.4220   48.5500 H   0  0  0  0  0  0  0  0  0  0  0  0
   58.0598   33.1577   52.1427 H   0  0  0  0  0  0  0  0  0  0  0  0
   56.9610   30.9245   52.3205 H   0  0  0  0  0  0  0  0  0  0  0  0
   57.6613   29.0620   50.8120 H   0  0  0  0  0  0  0  0  0  0  0  0
   60.5938   31.6475   48.9638 H   0  0  0  0  0  0  0  0  0  0  0  0
   60.9553   31.5945   47.2310 H   0  0  0  0  0  0  0  0  0  0  0  0
   59.2691   30.2302   46.0049 H   0  0  0  0  0  0  0  0  0  0  0  0
   55.7455   28.3086   44.9234 H   0  0  0  0  0  0  0  0  0  0  0  0
   55.7047   26.4318   46.5529 H   0  0  0  0  0  0  0  0  0  0  0  0
  1  2  1  0
  2  3  1  0
  2  4  1  0
  4  5  1  0
  5  6  2  0
  6  7  1  0
  7  8  2  0
  8  9  1  0
  9 10  1  0
 10 11  2  0
 10 12  2  0
 10 13  1  0
 13 14  2  0
 14 15  1  0
 15 16  2  0
 16 17  1  0
 17 18  1  0
 18 19  1  0
 19 20  1  0
 20 21  1  0
 21 22  1  0
 22 23  1  0
 22 24  1  0
 24 25  2  0
 25 26  1  0
 26 27  2  0
 27 28  1  0
 28 29  1  0
 28 30  2  0
 16 31  1  0
 31 32  2  0
  8 33  1  0
 33 34  2  0
 34  5  1  0
 32 13  1  0
 30 24  1  0
  1 35  1  0
  1 36  1  0
  1 37  1  0
  3 38  1  0
  3 39  1  0
  3 40  1  0
  4 41  1  0
  4 42  1  0
  6 43  1  0
  7 44  1  0
  9 45  1  0
 14 46  1  0
 15 47  1  0
 18 48  1  0
 18 49  1  0
 19 50  1  0
 19 51  1  0
 20 52  1  0
 21 53  1  0
 21 54  1  0
 22 55  1  1
 23 56  1  0
 25 57  1  0
 26 58  1  0
 27 59  1  0
 30 60  1  0
 31 61  1  0
 32 62  1  0
 33 63  1  0
 34 64  1  0
M  END
>  <UniqueID>  (49) 
46

>  <SMILES>  (49) 
CN(C)Cc1ccc(NS(=O)(=O)c2ccc(OCCNC[C@@H](O)c3cccc(Cl)c3)cc2)cc1

>  <Energy>  (49) 
79.36713338066903

>  <Genealogy>  (49) 
CN(C)Cc1ccc(NS(=O)(=O)c2ccc(OCCNC[C@@H](O)c3cccc(Cl)c3)cc2)cc1 (chirality)
CN(C)Cc1ccc(NS(=O)(=O)c2ccc(OCCNC[C@@H](O)c3cccc(Cl)c3)cc2)cc1 (3D coordinates assigned)
CN(C)Cc1ccc(NS(=O)(=O)c2ccc(OCCNC[C@@H](O)c3cccc(Cl)c3)cc2)cc1 (optimized conformer: 79.36713338066903 kcal/mol)

>  <smiles>  (49) 
CN(C)Cc1ccc(NS(=O)(=O)c2ccc(OCCNCC(O)c3cccc(Cl)c3)cc2)cc1

>  <score_type>  (49) 
oracle

>  <origin>  (49) 
adg

>  <m_score__min__energy>  (49) 
-8.7599999999999998

>  <m_primary>  (49) 
energy

$$$$
50:0
     RDKit          3D

 69 73  0  0  0  0  0  0  0  0999 V2000
   53.1278   24.6117   45.6854 H   0  0  0  0  0  0  0  0  0  0  0  0
   54.2180   24.7460   45.6260 C   0  0  0  0  0  0  0  0  0  0  0  0
   54.7720   25.9540   45.9180 N   0  0  0  0  0  0  0  0  0  0  0  0
   56.1180   26.1640   45.8590 C   0  0  0  0  0  0  0  0  0  0  0  0
   56.6370   27.3220   46.1470 N   0  0  0  0  0  0  0  0  0  0  0  0
   56.6670   28.4930   45.3130 C   0  0  0  0  0  0  0  0  0  0  0  0
   55.6370   29.2020   45.1430 O   0  0  0  0  0  0  0  0  0  0  0  0
   57.9550   28.8860   44.6570 C   0  0  0  0  0  0  0  0  0  0  0  0
   57.8023   28.9612   43.5703 H   0  0  0  0  0  0  0  0  0  0  0  0
   58.7182   28.1243   44.8745 H   0  0  0  0  0  0  0  0  0  0  0  0
   58.4100   30.1920   45.1790 N   0  0  0  0  0  0  0  0  0  0  0  0
   59.3480   30.2540   46.1840 C   0  0  0  0  0  0  0  0  0  0  0  0
   59.8110   29.0610   46.8440 N   0  0  0  0  0  0  0  0  0  0  0  0
   59.8110   28.9720   48.2930 C   0  0  0  0  0  0  0  0  0  0  0  0
   58.9540   29.7790   49.0700 C   0  0  0  0  0  0  0  0  0  0  0  0
   58.2752   30.4876   48.5729 H   0  0  0  0  0  0  0  0  0  0  0  0
   58.9580   29.6880   50.4650 C   0  0  0  0  0  0  0  0  0  0  0  0
   58.2935   30.3350   51.0564 H   0  0  0  0  0  0  0  0  0  0  0  0
   59.8010   28.7800   51.1140 C   0  0  0  0  0  0  0  0  0  0  0  0
   59.8030   28.7260   52.5460 N   0  0  0  0  0  0  0  0  0  0  0  0
   60.0590   29.8320   53.4220 C   0  0  0  0  0  0  0  0  0  0  0  0
   59.4880   29.8630   54.5440 O   0  0  0  0  0  0  0  0  0  0  0  0
   61.0740   30.8910   53.0890 C   0  0  0  0  0  0  0  0  0  0  0  0
   61.9440   30.4187   52.6094 H   0  0  0  0  0  0  0  0  0  0  0  0
   61.3763   31.3948   54.0190 H   0  0  0  0  0  0  0  0  0  0  0  0
   60.3650   32.1340   51.9530 S   0  0  0  0  0  0  0  0  0  0  0  0
   61.7460   32.0930   50.8050 C   0  0  0  0  0  0  0  0  0  0  0  0
   63.0320   31.7870   51.2680 C   0  0  0  0  0  0  0  0  0  0  0  0
   63.1981   31.5844   52.3364 H   0  0  0  0  0  0  0  0  0  0  0  0
   64.1040   31.7390   50.3730 C   0  0  0  0  0  0  0  0  0  0  0  0
   65.1135   31.4986   50.7380 H   0  0  0  0  0  0  0  0  0  0  0  0
   63.8960   31.9960   49.0140 C   0  0  0  0  0  0  0  0  0  0  0  0
   64.7429   31.9515   48.3135 H   0  0  0  0  0  0  0  0  0  0  0  0
   62.6150   32.3100   48.5390 C   0  0  0  0  0  0  0  0  0  0  0  0
   62.4550   32.5540   47.1660 O   0  0  0  0  0  0  0  0  0  0  0  0
   63.2290   33.4900   46.4230 C   0  0  0  0  0  0  0  0  0  0  0  0
   63.7732   34.1481   47.1163 H   0  0  0  0  0  0  0  0  0  0  0  0
   63.9480   32.9502   45.7893 H   0  0  0  0  0  0  0  0  0  0  0  0
   62.5637   34.0949   45.7893 H   0  0  0  0  0  0  0  0  0  0  0  0
   61.5380   32.3660   49.4480 C   0  0  0  0  0  0  0  0  0  0  0  0
   60.5310   32.6252   49.0892 H   0  0  0  0  0  0  0  0  0  0  0  0
   60.6850   28.0010   50.3560 C   0  0  0  0  0  0  0  0  0  0  0  0
   61.3833   27.3175   50.8612 H   0  0  0  0  0  0  0  0  0  0  0  0
   60.6840   28.0880   48.9620 C   0  0  0  0  0  0  0  0  0  0  0  0
   61.3725   27.4594   48.3782 H   0  0  0  0  0  0  0  0  0  0  0  0
   60.3960   28.0030   46.0160 C   0  0  0  0  0  0  0  0  0  0  0  0
   60.8260   27.2254   46.6645 H   0  0  0  0  0  0  0  0  0  0  0  0
   59.6146   27.5601   45.3810 H   0  0  0  0  0  0  0  0  0  0  0  0
   61.1866   28.4293   45.3810 H   0  0  0  0  0  0  0  0  0  0  0  0
   59.8420   31.4550   46.5910 N   0  0  0  0  0  0  0  0  0  0  0  0
   60.5520   31.4710   47.3600 H   0  0  0  0  0  0  0  0  0  0  0  0
   59.4260   32.6200   46.0330 C   0  0  0  0  0  0  0  0  0  0  0  0
   59.9530   33.8470   46.4660 C   0  0  0  0  0  0  0  0  0  0  0  0
   60.7060   33.8675   47.2676 H   0  0  0  0  0  0  0  0  0  0  0  0
   59.5250   35.0420   45.8830 C   0  0  0  0  0  0  0  0  0  0  0  0
   59.9445   36.0004   46.2229 H   0  0  0  0  0  0  0  0  0  0  0  0
   58.5650   35.0210   44.8690 C   0  0  0  0  0  0  0  0  0  0  0  0
   58.2275   35.9638   44.4138 H   0  0  0  0  0  0  0  0  0  0  0  0
   58.0320   33.8060   44.4310 C   0  0  0  0  0  0  0  0  0  0  0  0
   57.2766   33.7949   43.6315 H   0  0  0  0  0  0  0  0  0  0  0  0
   58.4590   32.5960   45.0100 C   0  0  0  0  0  0  0  0  0  0  0  0
   57.9620   31.3510   44.5920 C   0  0  0  0  0  0  0  0  0  0  0  0
   57.1030   31.3040   43.6650 O   0  0  0  0  0  0  0  0  0  0  0  0
   56.9640   25.1120   45.4860 C   0  0  0  0  0  0  0  0  0  0  0  0
   58.0516   25.2678   45.4327 H   0  0  0  0  0  0  0  0  0  0  0  0
   56.4160   23.8630   45.1820 C   0  0  0  0  0  0  0  0  0  0  0  0
   57.0712   23.0293   44.8894 H   0  0  0  0  0  0  0  0  0  0  0  0
   55.0340   23.6770   45.2510 C   0  0  0  0  0  0  0  0  0  0  0  0
   54.5926   22.6981   45.0123 H   0  0  0  0  0  0  0  0  0  0  0  0
  1  2  1  0
  2  3  1  0
  3  4  1  0
  4  5  2  0
  5  6  1  0
  6  7  2  0
  6  8  1  0
  8  9  1  0
  8 10  1  0
  8 11  1  0
 11 12  1  0
 12 13  1  0
 13 14  1  0
 14 15  2  0
 15 16  1  0
 15 17  1  0
 17 18  1  0
 17 19  2  0
 19 20  1  0
 20 21  1  0
 21 22  2  0
 21 23  1  0
 23 24  1  0
 23 25  1  0
 23 26  1  0
 26 27  1  0
 27 28  2  0
 28 29  1  0
 28 30  1  0
 30 31  1  0
 30 32  2  0
 32 33  1  0
 32 34  1  0
 34 35  1  0
 35 36  1  0
 36 37  1  0
 36 38  1  0
 36 39  1  0
 34 40  2  0
 40 41  1  0
 19 42  1  0
 42 43  1  0
 42 44  2  0
 44 45  1  0
 13 46  1  0
 46 47  1  0
 46 48  1  0
 46 49  1  0
 12 50  2  0
 50 51  1  0
 50 52  1  0
 52 53  2  0
 53 54  1  0
 53 55  1  0
 55 56  1  0
 55 57  2  0
 57 58  1  0
 57 59  1  0
 59 60  1  0
 59 61  2  0
 61 62  1  0
 62 63  2  0
  4 64  1  0
 64 65  1  0
 64 66  2  0
 66 67  1  0
 66 68  1  0
 68 69  1  0
 68  2  2  0
 62 11  1  0
 44 14  1  0
 61 52  1  0
 40 27  1  0
M  CHG  3   3  -1  20  -1  50   1
M  END
>  <UniqueID>  (50) 
47

>  <SMILES>  (50) 
COc1cccc(SCC(=O)[N-]c2ccc(N(C)c3[nH+]c4ccccc4c(=O)n3CC(=O)/N=c3/cccc[n-]3)cc2)c1

>  <Energy>  (50) 
93.84306157823615

>  <Genealogy>  (50) 
COc1cccc(SCC(=O)[N-]c2ccc(N(C)c3[nH+]c4ccccc4c(=O)n3CC(=O)N=c3cccc[n-]3)cc2)c1 (protonated)
COc1cccc(SCC(=O)[N-]c2ccc(N(C)c3[nH+]c4ccccc4c(=O)n3CC(=O)/N=c3/cccc[n-]3)cc2)c1 (cis-trans isomerization)
COc1cccc(SCC(=O)[N-]c2ccc(N(C)c3[nH+]c4ccccc4c(=O)n3CC(=O)/N=c3/cccc[n-]3)cc2)c1 (3D coordinates assigned)
COc1cccc(SCC(=O)[N-]c2ccc(N(C)c3[nH+]c4ccccc4c(=O)n3CC(=O)/N=c3/cccc[n-]3)cc2)c1 (optimized conformer: 93.84306157823615 kcal/mol)

>  <smiles>  (50) 
COc1cccc(SCC(=O)Nc2ccc(N(C)c3nc4ccccc4c(=O)n3CC(=O)N=c3cccc[nH]3)cc2)c1

>  <score_type>  (50) 
oracle

>  <origin>  (50) 
adg

>  <m_score__min__energy>  (50) 
-10.26

>  <m_primary>  (50) 
energy

$$$$
51:0
     RDKit          3D

 35 36  0  0  0  0  0  0  0  0999 V2000
   54.8370   24.9000   45.6240 C   0  0  0  0  0  0  0  0  0  0  0  0
   55.1460   26.2320   46.0200 O   0  0  0  0  0  0  0  0  0  0  0  0
   56.4340   26.7880   45.9910 C   0  0  0  0  0  0  0  0  0  0  0  0
   56.6330   27.9700   45.2660 C   0  0  0  0  0  0  0  0  0  0  0  0
   57.8960   28.5650   45.2130 C   0  0  0  0  0  0  0  0  0  0  0  0
   58.9750   27.9830   45.8860 C   0  0  0  0  0  0  0  0  0  0  0  0
   60.5850   28.7740   45.8580 S   0  0  0  0  0  0  0  0  0  0  0  0
   60.0090   30.1210   46.8850 C   0  0  0  0  0  0  0  0  0  0  0  0
   59.8500   31.4270   46.4850 C   0  0  0  0  0  0  0  0  0  0  0  0
   59.2720   32.1120   47.4940 N   0  0  0  0  0  0  0  0  0  0  0  0
   58.8230   33.5050   47.3870 C   0  0  0  0  0  0  0  0  0  0  0  0
   57.5160   33.5930   46.5980 C   0  0  0  0  0  0  0  0  0  0  0  0
   57.6760   33.0150   45.2690 N   0  0  0  0  0  0  0  0  0  0  0  0
   57.0050   32.0450   44.9150 N   0  0  0  0  0  0  0  0  0  0  0  0
   56.3350   31.0770   44.5560 N   0  0  0  0  0  0  0  0  0  0  0  0
   59.0830   31.1970   48.4830 C   0  0  0  0  0  0  0  0  0  0  0  0
   58.4350   31.4410   49.7450 N   0  0  0  0  0  0  0  0  0  0  0  0
   58.4910   32.5800   50.2540 O   0  0  0  0  0  0  0  0  0  0  0  0
   57.7820   30.4450   50.4330 O   0  0  0  0  0  0  0  0  0  0  0  0
   59.5370   29.9750   48.1330 N   0  0  0  0  0  0  0  0  0  0  0  0
   58.7890   26.7990   46.6080 C   0  0  0  0  0  0  0  0  0  0  0  0
   57.5260   26.2020   46.6620 C   0  0  0  0  0  0  0  0  0  0  0  0
   54.6922   24.2759   46.5182 H   0  0  0  0  0  0  0  0  0  0  0  0
   53.9151   24.9004   45.0239 H   0  0  0  0  0  0  0  0  0  0  0  0
   55.6649   24.4945   45.0239 H   0  0  0  0  0  0  0  0  0  0  0  0
   55.7886   28.4331   44.7345 H   0  0  0  0  0  0  0  0  0  0  0  0
   58.0420   29.4931   44.6408 H   0  0  0  0  0  0  0  0  0  0  0  0
   60.1436   31.8423   45.5096 H   0  0  0  0  0  0  0  0  0  0  0  0
   58.6633   33.9114   48.3966 H   0  0  0  0  0  0  0  0  0  0  0  0
   59.5942   34.0854   46.8593 H   0  0  0  0  0  0  0  0  0  0  0  0
   56.7305   33.0442   47.1382 H   0  0  0  0  0  0  0  0  0  0  0  0
   57.2378   34.6519   46.4918 H   0  0  0  0  0  0  0  0  0  0  0  0
   59.4850   29.0900   48.6850 H   0  0  0  0  0  0  0  0  0  0  0  0
   59.6377   26.3373   47.1339 H   0  0  0  0  0  0  0  0  0  0  0  0
   57.3840   25.2711   47.2305 H   0  0  0  0  0  0  0  0  0  0  0  0
  1  2  1  0
  2  3  1  0
  3  4  2  0
  4  5  1  0
  5  6  2  0
  6  7  1  0
  7  8  1  0
  8  9  2  0
  9 10  1  0
 10 11  1  0
 11 12  1  0
 12 13  1  0
 13 14  2  0
 14 15  2  0
 10 16  1  0
 16 17  1  0
 17 18  2  0
 17 19  1  0
 16 20  2  0
  6 21  1  0
 21 22  2  0
 22  3  1  0
 20  8  1  0
  1 23  1  0
  1 24  1  0
  1 25  1  0
  4 26  1  0
  5 27  1  0
  9 28  1  0
 11 29  1  0
 11 30  1  0
 12 31  1  0
 12 32  1  0
 20 33  1  0
 21 34  1  0
 22 35  1  0
M  CHG  5  14   1  15  -1  17   1  19  -1  20   1
M  END
>  <UniqueID>  (51) 
48

>  <SMILES>  (51) 
COc1ccc(Sc2cn(CCN=[N+]=[N-])c([N+](=O)[O-])[nH+]2)cc1

>  <Energy>  (51) 
58.147577754561496

>  <Genealogy>  (51) 
COc1ccc(Sc2cn(CCN=[N+]=[N-])c([N+](=O)[O-])[nH+]2)cc1 (protonated)
COc1ccc(Sc2cn(CCN=[N+]=[N-])c([N+](=O)[O-])[nH+]2)cc1 (3D coordinates assigned)
COc1ccc(Sc2cn(CCN=[N+]=[N-])c([N+](=O)[O-])[nH+]2)cc1 (optimized conformer: 58.147577754561496 kcal/mol)

>  <smiles>  (51) 
COc1ccc(Sc2cn(CCN=[N+]=[N-])c([N+](=O)[O-])n2)cc1

>  <score_type>  (51) 
oracle

>  <origin>  (51) 
adg

>  <m_score__min__energy>  (51) 
-5.6900000000000004

>  <m_primary>  (51) 
energy

$$$$
52:0
     RDKit          3D

 42 45  0  0  0  0  0  0  0  0999 V2000
   54.7760   26.2790   45.8130 N   0  0  0  0  0  0  0  0  0  0  0  0
   56.1130   26.1980   46.3050 C   0  0  0  0  0  0  0  0  0  0  0  0
   56.3590   25.4500   47.2900 O   0  0  0  0  0  0  0  0  0  0  0  0
   57.1990   26.9810   45.6690 C   0  0  0  0  0  0  0  0  0  0  0  0
   57.6820   26.6310   44.3960 C   0  0  0  0  0  0  0  0  0  0  0  0
   58.7040   27.3710   43.7980 C   0  0  0  0  0  0  0  0  0  0  0  0
   59.2580   28.4670   44.4610 C   0  0  0  0  0  0  0  0  0  0  0  0
   58.8000   28.8300   45.7390 C   0  0  0  0  0  0  0  0  0  0  0  0
   59.3870   29.9480   46.4390 N   0  0  0  0  0  0  0  0  0  0  0  0
   58.8420   31.1920   45.9430 C   0  0  0  0  0  0  0  0  0  0  0  0
   57.8340   31.1700   44.9590 C   0  0  0  0  0  0  0  0  0  0  0  0
   57.2500   32.3570   44.5110 C   0  0  0  0  0  0  0  0  0  0  0  0
   57.6560   33.5810   45.0430 C   0  0  0  0  0  0  0  0  0  0  0  0
   58.6490   33.6230   46.0230 C   0  0  0  0  0  0  0  0  0  0  0  0
   59.2520   32.4400   46.4740 C   0  0  0  0  0  0  0  0  0  0  0  0
   60.2650   32.5110   47.4840 N   0  0  0  0  0  0  0  0  0  0  0  0
   61.4950   31.7820   47.4950 C   0  0  0  0  0  0  0  0  0  0  0  0
   61.7460   30.7990   46.7490 O   0  0  0  0  0  0  0  0  0  0  0  0
   62.4210   32.3810   48.4510 C   0  0  0  0  0  0  0  0  0  0  0  0
   63.7140   32.0140   48.8180 C   0  0  0  0  0  0  0  0  0  0  0  0
   64.3770   32.8030   49.7740 C   0  0  0  0  0  0  0  0  0  0  0  0
   63.7430   33.9340   50.3340 C   0  0  0  0  0  0  0  0  0  0  0  0
   62.4390   34.2870   49.9420 C   0  0  0  0  0  0  0  0  0  0  0  0
   61.8020   33.4870   48.9950 C   0  0  0  0  0  0  0  0  0  0  0  0
   60.4800   33.5950   48.3900 C   0  0  0  0  0  0  0  0  0  0  0  0
   59.6380   34.5030   48.6210 O   0  0  0  0  0  0  0  0  0  0  0  0
   57.7630   28.0860   46.3320 C   0  0  0  0  0  0  0  0  0  0  0  0
   54.0230   26.7330   46.3770 H   0  0  0  0  0  0  0  0  0  0  0  0
   57.2516   25.7678   43.8671 H   0  0  0  0  0  0  0  0  0  0  0  0
   59.0737   27.0892   42.8010 H   0  0  0  0  0  0  0  0  0  0  0  0
   60.0576   29.0499   43.9805 H   0  0  0  0  0  0  0  0  0  0  0  0
   60.4250   29.9210   46.3060 H   0  0  0  0  0  0  0  0  0  0  0  0
   59.2220   29.8760   47.4700 H   0  0  0  0  0  0  0  0  0  0  0  0
   57.5036   30.2084   44.5393 H   0  0  0  0  0  0  0  0  0  0  0  0
   56.4686   32.3266   43.7374 H   0  0  0  0  0  0  0  0  0  0  0  0
   57.1930   34.5142   44.6897 H   0  0  0  0  0  0  0  0  0  0  0  0
   58.9605   34.5902   46.4442 H   0  0  0  0  0  0  0  0  0  0  0  0
   64.2011   31.1337   48.3732 H   0  0  0  0  0  0  0  0  0  0  0  0
   65.3972   32.5376   50.0883 H   0  0  0  0  0  0  0  0  0  0  0  0
   64.2724   34.5429   51.0816 H   0  0  0  0  0  0  0  0  0  0  0  0
   61.9373   35.1675   50.3698 H   0  0  0  0  0  0  0  0  0  0  0  0
   57.3889   28.3721   47.3261 H   0  0  0  0  0  0  0  0  0  0  0  0
  1  2  1  0
  2  3  2  0
  2  4  1  0
  4  5  2  0
  5  6  1  0
  6  7  2  0
  7  8  1  0
  8  9  1  0
  9 10  1  0
 10 11  2  0
 11 12  1  0
 12 13  2  0
 13 14  1  0
 14 15  2  0
 15 16  1  0
 16 17  1  0
 17 18  2  0
 17 19  1  0
 19 20  2  0
 20 21  1  0
 21 22  2  0
 22 23  1  0
 23 24  2  0
 24 25  1  0
 25 26  2  0
  8 27  2  0
 27  4  1  0
 15 10  1  0
 25 16  1  0
 24 19  1  0
  1 28  1  0
  5 29  1  0
  6 30  1  0
  7 31  1  0
  9 32  1  0
  9 33  1  0
 11 34  1  0
 12 35  1  0
 13 36  1  0
 14 37  1  0
 20 38  1  0
 21 39  1  0
 22 40  1  0
 23 41  1  0
 27 42  1  0
M  CHG  2   1  -1   9   1
M  END
>  <UniqueID>  (52) 
49

>  <SMILES>  (52) 
[NH-]C(=O)c1cccc([NH2+]c2ccccc2N2C(=O)c3ccccc3C2=O)c1

>  <Energy>  (52) 
87.54252265074047

>  <Genealogy>  (52) 
[NH-]C(=O)c1cccc([NH2+]c2ccccc2N2C(=O)c3ccccc3C2=O)c1 (protonated)
[NH-]C(=O)c1cccc([NH2+]c2ccccc2N2C(=O)c3ccccc3C2=O)c1 (3D coordinates assigned)
[NH-]C(=O)c1cccc([NH2+]c2ccccc2N2C(=O)c3ccccc3C2=O)c1 (nonaromatic ring conformer: 87.54252265074047 kcal/mol)

>  <smiles>  (52) 
NC(=O)c1cccc(Nc2ccccc2N2C(=O)c3ccccc3C2=O)c1

>  <score_type>  (52) 
oracle

>  <origin>  (52) 
adg

>  <m_score__min__energy>  (52) 
-10.75

>  <m_primary>  (52) 
energy

$$$$
53:0
     RDKit          3D

 57 59  0  0  1  0  0  0  0  0999 V2000
   63.4180   32.6240   47.3110 C   0  0  0  0  0  0  0  0  0  0  0  0
   62.6690   32.3300   48.5550 C   0  0  0  0  0  0  0  0  0  0  0  0
   61.8310   33.3190   49.1030 N   0  0  0  0  0  0  0  0  0  0  0  0
   62.3230   34.1790   50.1060 C   0  0  0  0  0  0  0  0  0  0  0  0
   63.7160   33.7670   50.5240 C   0  0  0  0  0  0  0  0  0  0  0  0
   60.5750   32.7310   49.5090 C   0  0  0  0  0  0  0  0  0  0  0  0
   59.6610   32.4710   48.3710 C   0  0  0  0  0  0  0  0  0  0  0  0
   58.4380   32.1570   48.5190 O   0  0  0  0  0  0  0  0  0  0  0  0
   60.1020   32.5580   47.0150 N   0  0  0  0  0  0  0  0  0  0  0  0
   59.1090   32.2760   46.0260 C   0  0  0  0  0  0  0  0  0  0  0  0
   59.0220   30.9410   45.6370 C   0  0  0  0  0  0  0  0  0  0  0  0
   58.0840   30.5750   44.7030 C   0  0  0  0  0  0  0  0  0  0  0  0
   58.0020   29.2590   44.3200 C   0  0  0  0  0  0  0  0  0  0  0  0
   58.7970   28.3870   44.8320 N   0  0  0  0  0  0  0  0  0  0  0  0
   58.3390   27.3400   45.6790 C   0  0  0  0  0  0  0  0  0  0  0  0
   59.1960   26.6930   46.5530 C   0  0  0  0  0  0  0  0  0  0  0  0
   58.7000   25.6860   47.3510 C   0  0  0  0  0  0  0  0  0  0  0  0
   57.3650   25.2990   47.3070 C   0  0  0  0  0  0  0  0  0  0  0  0
   56.5120   25.9600   46.4210 C   0  0  0  0  0  0  0  0  0  0  0  0
   55.1650   25.6000   46.3490 O   0  0  0  0  0  0  0  0  0  0  0  0
   54.8260   24.4540   45.6170 C   0  0  0  0  0  0  0  0  0  0  0  0
   57.0160   26.9700   45.6220 C   0  0  0  0  0  0  0  0  0  0  0  0
   57.0880   28.8390   43.3990 N   0  0  0  0  0  0  0  0  0  0  0  0
   56.2690   29.7940   42.8820 C   0  0  0  0  0  0  0  0  0  0  0  0
   56.3480   31.0860   43.2550 N   0  0  0  0  0  0  0  0  0  0  0  0
   57.2420   31.5190   44.1630 C   0  0  0  0  0  0  0  0  0  0  0  0
   57.3440   32.8380   44.5610 C   0  0  0  0  0  0  0  0  0  0  0  0
   58.2770   33.2220   45.4930 C   0  0  0  0  0  0  0  0  0  0  0  0
   58.4360   34.5300   45.9400 O   0  0  0  0  0  0  0  0  0  0  0  0
   59.6490   35.1920   45.6150 C   0  0  0  0  0  0  0  0  0  0  0  0
   64.4140   33.0149   47.5664 H   0  0  0  0  0  0  0  0  0  0  0  0
   63.5262   31.7016   46.7215 H   0  0  0  0  0  0  0  0  0  0  0  0
   62.8699   33.3737   46.7215 H   0  0  0  0  0  0  0  0  0  0  0  0
   62.0385   31.4521   48.3504 H   0  0  0  0  0  0  0  0  0  0  0  0
   63.4577   32.2074   49.3119 H   0  0  0  0  0  0  0  0  0  0  0  0
   62.3515   35.2079   49.7179 H   0  0  0  0  0  0  0  0  0  0  0  0
   61.6585   34.1204   50.9806 H   0  0  0  0  0  0  0  0  0  0  0  0
   63.7789   33.7484   51.6220 H   0  0  0  0  0  0  0  0  0  0  0  0
   63.9367   32.7651   50.1271 H   0  0  0  0  0  0  0  0  0  0  0  0
   64.4461   34.4877   50.1271 H   0  0  0  0  0  0  0  0  0  0  0  0
   60.7825   31.7774   50.0166 H   0  0  0  0  0  0  0  0  0  0  0  0
   60.0751   33.4506   50.1740 H   0  0  0  0  0  0  0  0  0  0  0  0
   61.0900   32.8130   46.7780 H   0  0  0  0  0  0  0  0  0  0  0  0
   59.6965   30.1892   46.0727 H   0  0  0  0  0  0  0  0  0  0  0  0
   60.2567   26.9788   46.6092 H   0  0  0  0  0  0  0  0  0  0  0  0
   59.3812   25.1717   48.0449 H   0  0  0  0  0  0  0  0  0  0  0  0
   56.9904   24.4922   47.9541 H   0  0  0  0  0  0  0  0  0  0  0  0
   54.5837   23.6347   46.3099 H   0  0  0  0  0  0  0  0  0  0  0  0
   53.9529   24.6687   44.9833 H   0  0  0  0  0  0  0  0  0  0  0  0
   55.6754   24.1591   44.9833 H   0  0  0  0  0  0  0  0  0  0  0  0
   56.3426   27.4896   44.9245 H   0  0  0  0  0  0  0  0  0  0  0  0
   57.0100   27.8490   43.0940 H   0  0  0  0  0  0  0  0  0  0  0  0
   55.5170   29.5015   42.1343 H   0  0  0  0  0  0  0  0  0  0  0  0
   56.6695   33.5902   44.1260 H   0  0  0  0  0  0  0  0  0  0  0  0
   60.1707   35.4767   46.5406 H   0  0  0  0  0  0  0  0  0  0  0  0
   60.2884   34.5177   45.0263 H   0  0  0  0  0  0  0  0  0  0  0  0
   59.4278   36.0945   45.0263 H   0  0  0  0  0  0  0  0  0  0  0  0
  1  2  1  0
  2  3  1  0
  3  4  1  0
  4  5  1  0
  3  6  1  0
  6  7  1  0
  7  8  2  0
  7  9  1  0
  9 10  1  0
 10 11  2  0
 11 12  1  0
 12 13  1  0
 13 14  2  0
 14 15  1  0
 15 16  2  0
 16 17  1  0
 17 18  2  0
 18 19  1  0
 19 20  1  0
 20 21  1  0
 19 22  2  0
 13 23  1  0
 23 24  1  0
 24 25  2  0
 25 26  1  0
 26 27  1  0
 27 28  2  0
 28 29  1  0
 29 30  1  0
 28 10  1  0
 26 12  2  0
 22 15  1  0
  1 31  1  0
  1 32  1  0
  1 33  1  0
  2 34  1  0
  2 35  1  0
  4 36  1  0
  4 37  1  0
  5 38  1  0
  5 39  1  0
  5 40  1  0
  6 41  1  0
  6 42  1  0
  9 43  1  0
 11 44  1  0
 16 45  1  0
 17 46  1  0
 18 47  1  0
 21 48  1  0
 21 49  1  0
 21 50  1  0
 22 51  1  0
 23 52  1  0
 24 53  1  0
 27 54  1  0
 30 55  1  0
 30 56  1  0
 30 57  1  0
M  END
>  <smiles>  (53) 
CCN(CC)CC(=O)Nc1cc2c(=Nc3cccc(OC)c3)[nH]cnc2cc1OC

>  <score_type>  (53) 
oracle

>  <origin>  (53) 
adg

>  <m_score__min__energy>  (53) 
-8.1099999999999994

>  <m_primary>  (53) 
energy

$$$$
54:0
     RDKit          3D

 50 51  0  0  0  0  0  0  0  0999 V2000
   61.3080   31.0150   49.6510 O   0  0  0  0  0  0  0  0  0  0  0  0
   60.6830   29.9450   49.4160 C   0  0  0  0  0  0  0  0  0  0  0  0
   59.6250   29.4790   50.3660 C   0  0  0  0  0  0  0  0  0  0  0  0
   59.9500   29.9310   51.7950 C   0  0  0  0  0  0  0  0  0  0  0  0
   58.8420   30.8060   52.4030 C   0  0  0  0  0  0  0  0  0  0  0  0
   57.6740   29.9760   52.9620 C   0  0  0  0  0  0  0  0  0  0  0  0
   56.3200   30.5870   52.5970 C   0  0  0  0  0  0  0  0  0  0  0  0
   55.4050   29.5470   52.1460 N   0  0  0  0  0  0  0  0  0  0  0  0
   54.0190   29.5190   52.4980 C   0  0  0  0  0  0  0  0  0  0  0  0
   53.6430   28.8640   53.5090 O   0  0  0  0  0  0  0  0  0  0  0  0
   53.0270   30.2560   51.6800 C   0  0  0  0  0  0  0  0  0  0  0  0
   52.6110   29.7500   50.4340 C   0  0  0  0  0  0  0  0  0  0  0  0
   51.6780   30.4470   49.6620 C   0  0  0  0  0  0  0  0  0  0  0  0
   51.1470   31.6550   50.1210 C   0  0  0  0  0  0  0  0  0  0  0  0
   50.2190   32.3430   49.3470 O   0  0  0  0  0  0  0  0  0  0  0  0
   51.5510   32.1690   51.3590 C   0  0  0  0  0  0  0  0  0  0  0  0
   51.0260   33.3700   51.8210 O   0  0  0  0  0  0  0  0  0  0  0  0
   52.4860   31.4730   52.1340 C   0  0  0  0  0  0  0  0  0  0  0  0
   61.0150   29.1450   48.2770 N   0  0  0  0  0  0  0  0  0  0  0  0
   60.1600   29.0080   47.1010 C   0  0  0  0  0  0  0  0  0  0  0  0
   59.9820   27.5310   46.7250 C   0  0  1  0  0  0  0  0  0  0  0  0
   60.5010   26.7110   47.7390 O   0  0  0  0  0  0  0  0  0  0  0  0
   58.5160   27.2230   46.5090 C   0  0  0  0  0  0  0  0  0  0  0  0
   57.9800   25.9940   46.9290 C   0  0  0  0  0  0  0  0  0  0  0  0
   56.6310   25.6990   46.7090 C   0  0  0  0  0  0  0  0  0  0  0  0
   55.8080   26.6220   46.0580 C   0  0  0  0  0  0  0  0  0  0  0  0
   54.4680   26.3200   45.8380 O   0  0  0  0  0  0  0  0  0  0  0  0
   56.3340   27.8450   45.6260 C   0  0  0  0  0  0  0  0  0  0  0  0
   55.5200   28.7630   44.9720 O   0  0  0  0  0  0  0  0  0  0  0  0
   57.6820   28.1430   45.8480 C   0  0  0  0  0  0  0  0  0  0  0  0
   58.6555   29.9020   50.0641 H   0  0  0  0  0  0  0  0  0  0  0  0
   59.5833   28.3801   50.3411 H   0  0  0  0  0  0  0  0  0  0  0  0
   60.0810   29.0393   52.4256 H   0  0  0  0  0  0  0  0  0  0  0  0
   60.8678   30.5358   51.7532 H   0  0  0  0  0  0  0  0  0  0  0  0
   59.2729   31.4031   53.2202 H   0  0  0  0  0  0  0  0  0  0  0  0
   58.4435   31.4447   51.6010 H   0  0  0  0  0  0  0  0  0  0  0  0
   57.7293   28.9585   52.5476 H   0  0  0  0  0  0  0  0  0  0  0  0
   57.7586   29.9602   54.0586 H   0  0  0  0  0  0  0  0  0  0  0  0
   55.8961   31.0858   53.4810 H   0  0  0  0  0  0  0  0  0  0  0  0
   56.4619   31.3170   51.7865 H   0  0  0  0  0  0  0  0  0  0  0  0
   53.0234   28.7991   50.0655 H   0  0  0  0  0  0  0  0  0  0  0  0
   51.3604   30.0432   48.6893 H   0  0  0  0  0  0  0  0  0  0  0  0
   52.8005   31.8808   53.1060 H   0  0  0  0  0  0  0  0  0  0  0  0
   59.1747   29.4459   47.3187 H   0  0  0  0  0  0  0  0  0  0  0  0
   60.6342   29.5315   46.2578 H   0  0  0  0  0  0  0  0  0  0  0  0
   60.5287   27.3331   45.7912 H   0  0  0  0  0  0  0  0  0  0  0  0
   60.9450   27.3110   48.3930 H   0  0  0  0  0  0  0  0  0  0  0  0
   58.6252   25.2598   47.4337 H   0  0  0  0  0  0  0  0  0  0  0  0
   56.2167   24.7384   47.0491 H   0  0  0  0  0  0  0  0  0  0  0  0
   58.0931   29.1034   45.5034 H   0  0  0  0  0  0  0  0  0  0  0  0
  1  2  2  0
  2  3  1  0
  3  4  1  0
  4  5  1  0
  5  6  1  0
  6  7  1  0
  7  8  1  0
  8  9  1  0
  9 10  2  0
  9 11  1  0
 11 12  2  0
 12 13  1  0
 13 14  2  0
 14 15  1  0
 14 16  1  0
 16 17  1  0
 16 18  2  0
  2 19  1  0
 19 20  1  0
 20 21  1  0
 21 22  1  0
 21 23  1  0
 23 24  2  0
 24 25  1  0
 25 26  2  0
 26 27  1  0
 26 28  1  0
 28 29  1  0
 28 30  2  0
 18 11  1  0
 30 23  1  0
  3 31  1  0
  3 32  1  0
  4 33  1  0
  4 34  1  0
  5 35  1  0
  5 36  1  0
  6 37  1  0
  6 38  1  0
  7 39  1  0
  7 40  1  0
 12 41  1  0
 13 42  1  0
 18 43  1  0
 20 44  1  0
 20 45  1  0
 21 46  1  6
 22 47  1  0
 24 48  1  0
 25 49  1  0
 30 50  1  0
M  CHG  6   8  -1  15  -1  17  -1  19  -1  27  -1  29  -1
M  END
>  <UniqueID>  (54) 
50

>  <SMILES>  (54) 
O=C(CCCCC[N-]C(=O)c1ccc([O-])c([O-])c1)[N-]C[C@@H](O)c1ccc([O-])c([O-])c1

>  <Energy>  (54) 
38.167825467902226

>  <Genealogy>  (54) 
O=C(CCCCC[N-]C(=O)c1ccc([O-])c([O-])c1)[N-]CC(O)c1ccc([O-])c([O-])c1 (protonated)
O=C(CCCCC[N-]C(=O)c1ccc([O-])c([O-])c1)[N-]C[C@@H](O)c1ccc([O-])c([O-])c1 (chirality)
O=C(CCCCC[N-]C(=O)c1ccc([O-])c([O-])c1)[N-]C[C@@H](O)c1ccc([O-])c([O-])c1 (3D coordinates assigned)
O=C(CCCCC[N-]C(=O)c1ccc([O-])c([O-])c1)[N-]C[C@@H](O)c1ccc([O-])c([O-])c1 (optimized conformer: 38.167825467902226 kcal/mol)

>  <smiles>  (54) 
O=C(CCCCCNC(=O)c1ccc(O)c(O)c1)NCC(O)c1ccc(O)c(O)c1

>  <score_type>  (54) 
oracle

>  <origin>  (54) 
adg

>  <m_score__min__energy>  (54) 
-25.18

>  <m_primary>  (54) 
energy

$$$$
55:0
     RDKit          3D

 61 64  0  0  0  0  0  0  0  0999 V2000
   61.6000   33.6030   49.3990 C   0  0  0  0  0  0  0  0  0  0  0  0
   60.0600   33.4880   49.4930 C   0  0  0  0  0  0  0  0  0  0  0  0
   59.4170   34.2480   48.3130 C   0  0  0  0  0  0  0  0  0  0  0  0
   59.6240   34.1890   50.8030 C   0  0  0  0  0  0  0  0  0  0  0  0
   59.6440   32.0030   49.4310 C   0  0  0  0  0  0  0  0  0  0  0  0
   58.9080   31.4400   50.4970 C   0  0  0  0  0  0  0  0  0  0  0  0
   58.5120   30.1020   50.4710 C   0  0  0  0  0  0  0  0  0  0  0  0
   58.8470   29.2920   49.3890 C   0  0  0  0  0  0  0  0  0  0  0  0
   59.5910   29.8130   48.3240 C   0  0  0  0  0  0  0  0  0  0  0  0
   59.9220   28.9840   47.2000 N   0  0  0  0  0  0  0  0  0  0  0  0
   59.6190   27.5490   47.2980 C   0  0  0  0  0  0  0  0  0  0  0  0
   60.0820   26.7220   46.0920 C   0  0  0  0  0  0  0  0  0  0  0  0
   60.0360   27.4630   44.8270 N   0  0  0  0  0  0  0  0  0  0  0  0
   58.7840   27.4210   44.0410 C   0  0  0  0  0  0  0  0  0  0  0  0
   57.6520   26.6670   44.7080 C   0  0  0  0  0  0  0  0  0  0  0  0
   57.5490   25.2780   44.5420 C   0  0  0  0  0  0  0  0  0  0  0  0
   56.5130   24.5700   45.1480 C   0  0  0  0  0  0  0  0  0  0  0  0
   55.5650   25.2600   45.9010 C   0  0  0  0  0  0  0  0  0  0  0  0
   55.6460   26.6090   46.0230 N   0  0  0  0  0  0  0  0  0  0  0  0
   56.6470   27.3320   45.4440 C   0  0  0  0  0  0  0  0  0  0  0  0
   56.6720   28.7600   45.5680 N   0  0  0  0  0  0  0  0  0  0  0  0
   56.2010   29.6990   44.5940 C   0  0  0  0  0  0  0  0  0  0  0  0
   55.1040   29.5130   44.0000 O   0  0  0  0  0  0  0  0  0  0  0  0
   57.0070   30.8990   44.3050 C   0  0  0  0  0  0  0  0  0  0  0  0
   57.5240   31.7030   45.3330 C   0  0  0  0  0  0  0  0  0  0  0  0
   58.2660   32.7970   45.0180 N   0  0  0  0  0  0  0  0  0  0  0  0
   58.5150   33.1320   43.7250 C   0  0  0  0  0  0  0  0  0  0  0  0
   57.9980   32.3410   42.6990 C   0  0  0  0  0  0  0  0  0  0  0  0
   57.2590   31.2450   43.0120 N   0  0  0  0  0  0  0  0  0  0  0  0
   60.7950   28.7190   44.8490 C   0  0  0  0  0  0  0  0  0  0  0  0
   60.3700   29.6640   45.9760 C   0  0  0  0  0  0  0  0  0  0  0  0
   59.9870   31.1570   48.3480 C   0  0  0  0  0  0  0  0  0  0  0  0
   62.0278   33.6349   50.4119 H   0  0  0  0  0  0  0  0  0  0  0  0
   62.0004   32.7323   48.8591 H   0  0  0  0  0  0  0  0  0  0  0  0
   61.8667   34.5236   48.8591 H   0  0  0  0  0  0  0  0  0  0  0  0
   58.7523   35.0336   48.7015 H   0  0  0  0  0  0  0  0  0  0  0  0
   60.2059   34.7060   47.6984 H   0  0  0  0  0  0  0  0  0  0  0  0
   58.8346   33.5458   47.6984 H   0  0  0  0  0  0  0  0  0  0  0  0
   59.9842   33.6099   51.6661 H   0  0  0  0  0  0  0  0  0  0  0  0
   60.0517   35.2019   50.8368 H   0  0  0  0  0  0  0  0  0  0  0  0
   58.5264   34.2532   50.8368 H   0  0  0  0  0  0  0  0  0  0  0  0
   58.6427   32.0662   51.3616 H   0  0  0  0  0  0  0  0  0  0  0  0
   57.9330   29.6856   51.3085 H   0  0  0  0  0  0  0  0  0  0  0  0
   58.5261   28.2400   49.3712 H   0  0  0  0  0  0  0  0  0  0  0  0
   60.1135   27.1532   48.1973 H   0  0  0  0  0  0  0  0  0  0  0  0
   58.5233   27.4606   47.3384 H   0  0  0  0  0  0  0  0  0  0  0  0
   61.1180   26.3972   46.2687 H   0  0  0  0  0  0  0  0  0  0  0  0
   59.3910   25.8715   45.9962 H   0  0  0  0  0  0  0  0  0  0  0  0
   58.4526   28.4552   43.8661 H   0  0  0  0  0  0  0  0  0  0  0  0
   59.0152   26.8819   43.1104 H   0  0  0  0  0  0  0  0  0  0  0  0
   58.2907   24.7443   43.9296 H   0  0  0  0  0  0  0  0  0  0  0  0
   56.4443   23.4782   45.0332 H   0  0  0  0  0  0  0  0  0  0  0  0
   54.7508   24.7110   46.3966 H   0  0  0  0  0  0  0  0  0  0  0  0
   57.3300   31.4494   46.3856 H   0  0  0  0  0  0  0  0  0  0  0  0
   59.1196   34.0201   43.4891 H   0  0  0  0  0  0  0  0  0  0  0  0
   58.1868   32.6020   41.6472 H   0  0  0  0  0  0  0  0  0  0  0  0
   61.8612   28.4804   44.9769 H   0  0  0  0  0  0  0  0  0  0  0  0
   60.5969   29.2359   43.8984 H   0  0  0  0  0  0  0  0  0  0  0  0
   61.2281   30.3031   46.2315 H   0  0  0  0  0  0  0  0  0  0  0  0
   59.5083   30.2349   45.5998 H   0  0  0  0  0  0  0  0  0  0  0  0
   60.5746   31.5621   47.5110 H   0  0  0  0  0  0  0  0  0  0  0  0
  1  2  1  0
  2  3  1  0
  2  4  1  0
  2  5  1  0
  5  6  2  0
  6  7  1  0
  7  8  2  0
  8  9  1  0
  9 10  1  0
 10 11  1  0
 11 12  1  0
 12 13  1  0
 13 14  1  0
 14 15  1  0
 15 16  2  0
 16 17  1  0
 17 18  2  0
 18 19  1  0
 19 20  2  0
 20 21  1  0
 21 22  1  0
 22 23  2  0
 22 24  1  0
 24 25  2  0
 25 26  1  0
 26 27  2  0
 27 28  1  0
 28 29  2  0
 13 30  1  0
 30 31  1  0
  9 32  2  0
 32  5  1  0
 31 10  1  0
 20 15  1  0
 29 24  1  0
  1 33  1  0
  1 34  1  0
  1 35  1  0
  3 36  1  0
  3 37  1  0
  3 38  1  0
  4 39  1  0
  4 40  1  0
  4 41  1  0
  6 42  1  0
  7 43  1  0
  8 44  1  0
 11 45  1  0
 11 46  1  0
 12 47  1  0
 12 48  1  0
 14 49  1  0
 14 50  1  0
 16 51  1  0
 17 52  1  0
 18 53  1  0
 25 54  1  0
 27 55  1  0
 28 56  1  0
 30 57  1  0
 30 58  1  0
 31 59  1  0
 31 60  1  0
 32 61  1  0
M  CHG  1  21  -1
M  END
>  <UniqueID>  (55) 
51

>  <SMILES>  (55) 
CC(C)(C)c1cccc(N2CCN(Cc3cccnc3[N-]C(=O)c3cnccn3)CC2)c1

>  <Energy>  (55) 
84.40579482520799

>  <Genealogy>  (55) 
CC(C)(C)c1cccc(N2CCN(Cc3cccnc3[N-]C(=O)c3cnccn3)CC2)c1 (protonated)
CC(C)(C)c1cccc(N2CCN(Cc3cccnc3[N-]C(=O)c3cnccn3)CC2)c1 (3D coordinates assigned)
CC(C)(C)c1cccc(N2CCN(Cc3cccnc3[N-]C(=O)c3cnccn3)CC2)c1 (nonaromatic ring conformer: 84.40579482520799 kcal/mol)

>  <smiles>  (55) 
CC(C)(C)c1cccc(N2CCN(Cc3cccnc3NC(=O)c3cnccn3)CC2)c1

>  <score_type>  (55) 
oracle

>  <origin>  (55) 
adg

>  <m_score__min__energy>  (55) 
-11.25

>  <m_primary>  (55) 
energy

$$$$
56:0
     RDKit          3D

 34 36  0  0  1  0  0  0  0  0999 V2000
   57.2590   24.5900   47.0120 N   0  0  0  0  0  0  0  0  0  0  0  0
   56.6230   25.7240   46.4430 C   0  0  0  0  0  0  0  0  0  0  0  0
   55.4370   25.6930   46.0110 O   0  0  0  0  0  0  0  0  0  0  0  0
   57.3780   26.9850   46.3570 C   0  0  0  0  0  0  0  0  0  0  0  0
   57.3120   27.7750   45.2300 C   0  0  0  0  0  0  0  0  0  0  0  0
   58.0110   28.9570   45.1320 C   0  0  0  0  0  0  0  0  0  0  0  0
   58.7880   29.3530   46.1800 C   0  0  0  0  0  0  0  0  0  0  0  0
   59.5040   30.5600   46.0860 N   0  0  0  0  0  0  0  0  0  0  0  0
   58.8570   31.8020   45.8250 C   0  0  0  0  0  0  0  0  0  0  0  0
   59.1470   33.1470   45.9990 C   0  0  0  0  0  0  0  0  0  0  0  0
   60.2510   33.8720   46.5280 N   0  0  0  0  0  0  0  0  0  0  0  0
   61.3830   33.3200   46.8000 C   0  0  0  0  0  0  0  0  0  0  0  0
   62.5810   33.8910   46.4180 C   0  0  0  0  0  0  0  0  0  0  0  0
   63.7580   33.2440   46.7440 C   0  0  0  0  0  0  0  0  0  0  0  0
   63.7220   32.0760   47.4230 N   0  0  0  0  0  0  0  0  0  0  0  0
   62.5310   31.5660   47.7700 C   0  0  0  0  0  0  0  0  0  0  0  0
   61.3670   32.1540   47.4770 N   0  0  0  0  0  0  0  0  0  0  0  0
   57.9320   33.5200   45.4500 C   0  0  0  0  0  0  0  0  0  0  0  0
   57.3220   34.5930   45.2020 O   0  0  0  0  0  0  0  0  0  0  0  0
   57.6330   32.1810   45.2730 C   0  0  0  0  0  0  0  0  0  0  0  0
   56.6230   31.6020   44.7900 O   0  0  0  0  0  0  0  0  0  0  0  0
   58.8840   28.5960   47.3270 C   0  0  0  0  0  0  0  0  0  0  0  0
   58.1680   27.3970   47.4100 C   0  0  0  0  0  0  0  0  0  0  0  0
   57.3690   23.7560   46.4230 H   0  0  0  0  0  0  0  0  0  0  0  0
   57.6200   24.5590   47.9960 H   0  0  0  0  0  0  0  0  0  0  0  0
   56.6842   27.4527   44.3862 H   0  0  0  0  0  0  0  0  0  0  0  0
   57.9437   29.5722   44.2226 H   0  0  0  0  0  0  0  0  0  0  0  0
   60.5570   30.5860   46.2070 H   0  0  0  0  0  0  0  0  0  0  0  0
   62.5981   34.8419   45.8652 H   0  0  0  0  0  0  0  0  0  0  0  0
   64.7244   33.6799   46.4507 H   0  0  0  0  0  0  0  0  0  0  0  0
   64.6000   31.5520   47.6900 H   0  0  0  0  0  0  0  0  0  0  0  0
   62.5112   30.6157   48.3237 H   0  0  0  0  0  0  0  0  0  0  0  0
   59.5141   28.9292   48.1648 H   0  0  0  0  0  0  0  0  0  0  0  0
   58.2353   26.7804   48.3185 H   0  0  0  0  0  0  0  0  0  0  0  0
  1  2  1  0
  2  3  2  0
  2  4  1  0
  4  5  2  0
  5  6  1  0
  6  7  2  0
  7  8  1  0
  8  9  1  0
  9 10  2  0
 10 11  1  0
 11 12  2  0
 12 13  1  0
 13 14  2  0
 14 15  1  0
 15 16  1  0
 16 17  2  0
 10 18  1  0
 18 19  2  0
 18 20  1  0
 20 21  2  0
  7 22  1  0
 22 23  2  0
 23  4  1  0
 20  9  1  0
 17 12  1  0
  1 24  1  0
  1 25  1  0
  5 26  1  0
  6 27  1  0
  8 28  1  0
 13 29  1  0
 14 30  1  0
 15 31  1  0
 16 32  1  0
 22 33  1  0
 23 34  1  0
M  END
>  <smiles>  (56) 
NC(=O)c1ccc(Nc2c(N=c3cc[nH]cn3)c(=O)c2=O)cc1

>  <score_type>  (56) 
oracle

>  <origin>  (56) 
adg

>  <m_score__min__energy>  (56) 
-7.5599999999999996

>  <m_primary>  (56) 
energy

$$$$
57:0
     RDKit          3D

 37 39  0  0  0  0  0  0  0  0999 V2000
   57.2200   21.6770   47.7730 O   0  0  0  0  0  0  0  0  0  0  0  0
   56.7760   22.2190   46.7260 C   0  0  0  0  0  0  0  0  0  0  0  0
   56.1900   21.4140   45.7570 O   0  0  0  0  0  0  0  0  0  0  0  0
   56.8740   23.6880   46.5230 C   0  0  0  0  0  0  0  0  0  0  0  0
   58.1400   24.2990   46.4840 C   0  0  0  0  0  0  0  0  0  0  0  0
   58.2670   25.6480   46.3020 N   0  0  0  0  0  0  0  0  0  0  0  0
   59.6040   26.2490   46.2300 C   0  0  0  0  0  0  0  0  0  0  0  0
   59.4930   27.7440   46.1060 C   0  0  0  0  0  0  0  0  0  0  0  0
   59.4760   28.5510   47.2530 C   0  0  0  0  0  0  0  0  0  0  0  0
   59.3300   29.9360   47.1410 C   0  0  0  0  0  0  0  0  0  0  0  0
   59.1900   30.5400   45.8780 C   0  0  0  0  0  0  0  0  0  0  0  0
   59.0340   32.0120   45.7580 C   0  0  0  0  0  0  0  0  0  0  0  0
   57.9970   32.5610   44.9790 C   0  0  0  0  0  0  0  0  0  0  0  0
   57.8530   33.9480   44.8680 C   0  0  0  0  0  0  0  0  0  0  0  0
   58.7370   34.8000   45.5320 C   0  0  0  0  0  0  0  0  0  0  0  0
   59.7690   34.2680   46.3080 C   0  0  0  0  0  0  0  0  0  0  0  0
   59.9190   32.8830   46.4230 C   0  0  0  0  0  0  0  0  0  0  0  0
   59.1970   29.7260   44.7310 C   0  0  0  0  0  0  0  0  0  0  0  0
   59.3420   28.3400   44.8450 C   0  0  0  0  0  0  0  0  0  0  0  0
   57.1630   26.4350   46.1350 C   0  0  0  0  0  0  0  0  0  0  0  0
   55.8860   25.8790   46.1660 C   0  0  0  0  0  0  0  0  0  0  0  0
   54.7720   26.6960   45.9990 O   0  0  0  0  0  0  0  0  0  0  0  0
   55.7340   24.5040   46.3620 C   0  0  0  0  0  0  0  0  0  0  0  0
   54.5730   24.0110   46.3900 O   0  0  0  0  0  0  0  0  0  0  0  0
   59.0427   23.6815   46.6018 H   0  0  0  0  0  0  0  0  0  0  0  0
   60.1643   26.0003   47.1434 H   0  0  0  0  0  0  0  0  0  0  0  0
   60.1297   25.8528   45.3487 H   0  0  0  0  0  0  0  0  0  0  0  0
   59.5782   28.0907   48.2468 H   0  0  0  0  0  0  0  0  0  0  0  0
   59.3245   30.5591   48.0475 H   0  0  0  0  0  0  0  0  0  0  0  0
   57.2960   31.8950   44.4546 H   0  0  0  0  0  0  0  0  0  0  0  0
   57.0413   34.3682   44.2560 H   0  0  0  0  0  0  0  0  0  0  0  0
   58.6208   35.8903   45.4441 H   0  0  0  0  0  0  0  0  0  0  0  0
   60.4656   34.9405   46.8300 H   0  0  0  0  0  0  0  0  0  0  0  0
   60.7334   32.4706   47.0368 H   0  0  0  0  0  0  0  0  0  0  0  0
   59.0876   30.1833   43.7366 H   0  0  0  0  0  0  0  0  0  0  0  0
   59.3377   27.7134   43.9409 H   0  0  0  0  0  0  0  0  0  0  0  0
   57.2833   27.5166   45.9747 H   0  0  0  0  0  0  0  0  0  0  0  0
  1  2  2  0
  2  3  1  0
  2  4  1  0
  4  5  2  0
  5  6  1  0
  6  7  1  0
  7  8  1  0
  8  9  2  0
  9 10  1  0
 10 11  2  0
 11 12  1  0
 12 13  2  0
 13 14  1  0
 14 15  2  0
 15 16  1  0
 16 17  2  0
 11 18  1  0
 18 19  2  0
  6 20  1  0
 20 21  2  0
 21 22  1  0
 21 23  1  0
 23 24  2  0
 23  4  1  0
 19  8  1  0
 17 12  1  0
  5 25  1  0
  7 26  1  0
  7 27  1  0
  9 28  1  0
 10 29  1  0
 13 30  1  0
 14 31  1  0
 15 32  1  0
 16 33  1  0
 17 34  1  0
 18 35  1  0
 19 36  1  0
 20 37  1  0
M  CHG  2   3  -1  22  -1
M  END
>  <UniqueID>  (57) 
52

>  <SMILES>  (57) 
O=C([O-])c1cn(Cc2ccc(-c3ccccc3)cc2)cc([O-])c1=O

>  <Energy>  (57) 
47.87576209852866

>  <Genealogy>  (57) 
O=C([O-])c1cn(Cc2ccc(-c3ccccc3)cc2)cc([O-])c1=O (protonated)
O=C([O-])c1cn(Cc2ccc(-c3ccccc3)cc2)cc([O-])c1=O (3D coordinates assigned)
O=C([O-])c1cn(Cc2ccc(-c3ccccc3)cc2)cc([O-])c1=O (optimized conformer: 47.87576209852866 kcal/mol)

>  <smiles>  (57) 
O=C(O)c1cn(Cc2ccc(-c3ccccc3)cc2)cc(O)c1=O

>  <score_type>  (57) 
oracle

>  <origin>  (57) 
adg

>  <m_score__min__energy>  (57) 
-13.32

>  <m_primary>  (57) 
energy

$$$$
58:0
     RDKit          3D

 70 74  0  0  1  0  0  0  0  0999 V2000
   57.6910   30.6160   43.1050 O   0  0  0  0  0  0  0  0  0  0  0  0
   57.5750   30.9410   44.5670 S   0  0  0  0  0  0  0  0  0  0  0  0
   56.5240   30.0830   45.2080 O   0  0  0  0  0  0  0  0  0  0  0  0
   57.2210   32.6220   44.9020 C   0  0  0  0  0  0  0  0  0  0  0  0
   58.1290   33.5880   44.2070 C   0  0  0  0  0  0  0  0  0  0  0  0
   58.7000   34.5790   45.1440 C   0  0  0  0  0  0  0  0  0  0  0  0
   60.0230   34.2530   45.6110 N   0  0  0  0  0  0  0  0  0  0  0  0
   60.4030   34.2390   46.8200 C   0  0  0  0  0  0  0  0  0  0  0  0
   59.5710   34.6030   47.8160 N   0  0  0  0  0  0  0  0  0  0  0  0
   60.0120   34.5750   49.0900 C   0  0  0  0  0  0  0  0  0  0  0  0
   61.2670   34.1910   49.3810 N   0  0  0  0  0  0  0  0  0  0  0  0
   62.1080   33.8270   48.4190 C   0  0  0  0  0  0  0  0  0  0  0  0
   61.6920   33.8430   47.1040 C   0  0  0  0  0  0  0  0  0  0  0  0
   62.7040   33.4430   46.3550 N   0  0  0  0  0  0  0  0  0  0  0  0
   63.7630   33.1680   47.1380 C   0  0  0  0  0  0  0  0  0  0  0  0
   63.3790   33.4110   48.4130 N   0  0  0  0  0  0  0  0  0  0  0  0
   64.2500   33.2280   49.5400 C   0  0  2  0  0  0  0  0  0  0  0  0
   64.4960   31.8820   49.8120 O   0  0  0  0  0  0  0  0  0  0  0  0
   63.3470   31.5240   50.5210 C   0  0  1  0  0  0  0  0  0  0  0  0
   63.4470   30.1200   51.0720 C   0  0  0  0  0  0  0  0  0  0  0  0
   62.4690   29.8540   52.0200 O   0  0  0  0  0  0  0  0  0  0  0  0
   63.4130   32.5740   51.6370 C   0  0  2  0  0  0  0  0  0  0  0  0
   62.2500   32.6800   52.3520 O   0  0  0  0  0  0  0  0  0  0  0  0
   63.7790   33.7910   50.8260 C   0  0  1  0  0  0  0  0  0  0  0  0
   64.8550   34.4090   51.4860 O   0  0  0  0  0  0  0  0  0  0  0  0
   59.1370   30.5110   45.2510 N   0  0  0  0  0  0  0  0  0  0  0  0
   59.4140   30.7300   46.6290 C   0  0  0  0  0  0  0  0  0  0  0  0
   58.5530   31.4080   47.4670 C   0  0  0  0  0  0  0  0  0  0  0  0
   58.8200   31.6200   48.8030 C   0  0  0  0  0  0  0  0  0  0  0  0
   60.0090   31.1190   49.2860 C   0  0  0  0  0  0  0  0  0  0  0  0
   60.2880   31.3300   50.6400 O   0  0  0  0  0  0  0  0  0  0  0  0
   59.4710   32.1110   51.4690 C   0  0  0  0  0  0  0  0  0  0  0  0
   58.3310   31.2840   51.9240 C   0  0  0  0  0  0  0  0  0  0  0  0
   58.4450   29.9800   52.3340 C   0  0  0  0  0  0  0  0  0  0  0  0
   57.3260   29.2800   52.7430 C   0  0  0  0  0  0  0  0  0  0  0  0
   56.0770   29.8890   52.7420 C   0  0  0  0  0  0  0  0  0  0  0  0
   55.9490   31.1990   52.3330 C   0  0  0  0  0  0  0  0  0  0  0  0
   57.0750   31.9010   51.9220 C   0  0  0  0  0  0  0  0  0  0  0  0
   60.9190   30.4320   48.5120 C   0  0  0  0  0  0  0  0  0  0  0  0
   60.6010   30.2420   47.1630 C   0  0  0  0  0  0  0  0  0  0  0  0
   56.1885   32.8278   44.5832 H   0  0  0  0  0  0  0  0  0  0  0  0
   57.3692   32.7682   45.9821 H   0  0  0  0  0  0  0  0  0  0  0  0
   58.9510   33.0283   43.7368 H   0  0  0  0  0  0  0  0  0  0  0  0
   57.5380   34.1309   43.4547 H   0  0  0  0  0  0  0  0  0  0  0  0
   58.7441   35.5521   44.6329 H   0  0  0  0  0  0  0  0  0  0  0  0
   58.0460   34.5927   46.0284 H   0  0  0  0  0  0  0  0  0  0  0  0
   58.5840   34.9110   47.6330 H   0  0  0  0  0  0  0  0  0  0  0  0
   59.3341   34.8711   49.9041 H   0  0  0  0  0  0  0  0  0  0  0  0
   64.7502   32.8140   46.8061 H   0  0  0  0  0  0  0  0  0  0  0  0
   65.1446   33.7746   49.2068 H   0  0  0  0  0  0  0  0  0  0  0  0
   62.4153   31.5119   49.9364 H   0  0  0  0  0  0  0  0  0  0  0  0
   63.3385   29.4061   50.2422 H   0  0  0  0  0  0  0  0  0  0  0  0
   64.4264   30.0207   51.5628 H   0  0  0  0  0  0  0  0  0  0  0  0
   61.7840   30.5800   51.9470 H   0  0  0  0  0  0  0  0  0  0  0  0
   64.1224   32.3555   52.4488 H   0  0  0  0  0  0  0  0  0  0  0  0
   61.6600   31.8890   52.2570 H   0  0  0  0  0  0  0  0  0  0  0  0
   62.9632   34.5164   50.6911 H   0  0  0  0  0  0  0  0  0  0  0  0
   65.6760   33.8510   51.4320 H   0  0  0  0  0  0  0  0  0  0  0  0
   59.8900   30.0920   44.6820 H   0  0  0  0  0  0  0  0  0  0  0  0
   57.6118   31.7967   47.0509 H   0  0  0  0  0  0  0  0  0  0  0  0
   58.1173   32.1631   49.4521 H   0  0  0  0  0  0  0  0  0  0  0  0
   60.0486   32.4565   52.3391 H   0  0  0  0  0  0  0  0  0  0  0  0
   59.1021   32.9869   50.9152 H   0  0  0  0  0  0  0  0  0  0  0  0
   59.4299   29.4902   52.3372 H   0  0  0  0  0  0  0  0  0  0  0  0
   57.4245   28.2347   53.0712 H   0  0  0  0  0  0  0  0  0  0  0  0
   55.1902   29.3255   53.0677 H   0  0  0  0  0  0  0  0  0  0  0  0
   54.9622   31.6851   52.3321 H   0  0  0  0  0  0  0  0  0  0  0  0
   56.9789   32.9464   51.5936 H   0  0  0  0  0  0  0  0  0  0  0  0
   61.8579   30.0484   48.9379 H   0  0  0  0  0  0  0  0  0  0  0  0
   61.3022   29.6972   46.5138 H   0  0  0  0  0  0  0  0  0  0  0  0
  1  2  2  0
  2  3  2  0
  2  4  1  0
  4  5  1  0
  5  6  1  0
  6  7  1  0
  7  8  2  0
  8  9  1  0
  9 10  1  0
 10 11  2  0
 11 12  1  0
 12 13  2  0
 13 14  1  0
 14 15  2  0
 15 16  1  0
 16 17  1  0
 17 18  1  0
 18 19  1  0
 19 20  1  0
 20 21  1  0
 19 22  1  0
 22 23  1  0
 22 24  1  0
 24 25  1  0
  2 26  1  0
 26 27  1  0
 27 28  2  0
 28 29  1  0
 29 30  2  0
 30 31  1  0
 31 32  1  0
 32 33  1  0
 33 34  2  0
 34 35  1  0
 35 36  2  0
 36 37  1  0
 37 38  2  0
 30 39  1  0
 39 40  2  0
 13  8  1  0
 24 17  1  0
 40 27  1  0
 16 12  1  0
 38 33  1  0
  4 41  1  0
  4 42  1  0
  5 43  1  0
  5 44  1  0
  6 45  1  0
  6 46  1  0
  9 47  1  0
 10 48  1  0
 15 49  1  0
 17 50  1  6
 19 51  1  6
 20 52  1  0
 20 53  1  0
 21 54  1  0
 22 55  1  1
 23 56  1  0
 24 57  1  6
 25 58  1  0
 26 59  1  0
 28 60  1  0
 29 61  1  0
 32 62  1  0
 32 63  1  0
 34 64  1  0
 35 65  1  0
 36 66  1  0
 37 67  1  0
 38 68  1  0
 39 69  1  0
 40 70  1  0
M  END
>  <smiles>  (58) 
O=S(=O)(CCCN=c1[nH]cnc2c1ncn2C1OC(CO)C(O)C1O)Nc1ccc(OCc2ccccc2)cc1

>  <score_type>  (58) 
oracle

>  <origin>  (58) 
adg

>  <m_score__min__energy>  (58) 
-9.8699999999999992

>  <m_primary>  (58) 
energy

$$$$
59:0
     RDKit          3D

 57 60  0  0  0  0  0  0  0  0999 V2000
   57.6570   31.9480   44.3150 C   0  0  0  0  0  0  0  0  0  0  0  0
   56.3560   31.3610   44.6020 N   0  0  0  0  0  0  0  0  0  0  0  0
   55.9720   30.0670   44.1320 C   0  0  0  0  0  0  0  0  0  0  0  0
   54.7920   29.8520   43.7410 O   0  0  0  0  0  0  0  0  0  0  0  0
   56.9620   28.9500   44.1410 C   0  0  0  0  0  0  0  0  0  0  0  0
   56.6540   28.0600   45.2110 O   0  0  0  0  0  0  0  0  0  0  0  0
   57.5960   27.5430   46.1160 C   0  0  0  0  0  0  0  0  0  0  0  0
   58.3380   28.3720   46.9780 C   0  0  0  0  0  0  0  0  0  0  0  0
   59.2730   27.8250   47.8760 C   0  0  0  0  0  0  0  0  0  0  0  0
   60.0510   28.7050   48.7830 C   0  0  0  0  0  0  0  0  0  0  0  0
   61.0650   28.2490   49.3760 O   0  0  0  0  0  0  0  0  0  0  0  0
   59.6520   30.0760   48.9530 N   0  0  0  0  0  0  0  0  0  0  0  0
   58.7960   30.5800   49.7980 C   0  0  0  0  0  0  0  0  0  0  0  0
   58.1350   29.9210   50.8210 C   0  0  0  0  0  0  0  0  0  0  0  0
   57.2980   30.8880   51.3550 C   0  0  0  0  0  0  0  0  0  0  0  0
   56.3410   30.6730   52.4610 C   0  0  0  0  0  0  0  0  0  0  0  0
   56.7220   30.0340   53.4760 O   0  0  0  0  0  0  0  0  0  0  0  0
   54.9920   31.1670   52.4350 N   0  0  0  0  0  0  0  0  0  0  0  0
   53.7860   30.3560   52.3200 C   0  0  0  0  0  0  0  0  0  0  0  0
   52.6270   31.2200   51.9430 C   0  0  0  0  0  0  0  0  0  0  0  0
   52.2980   31.4970   50.6650 N   0  0  0  0  0  0  0  0  0  0  0  0
   51.2790   32.3380   50.7110 N   0  0  0  0  0  0  0  0  0  0  0  0
   51.0310   32.5520   52.0130 C   0  0  0  0  0  0  0  0  0  0  0  0
   50.1170   33.3110   52.4260 O   0  0  0  0  0  0  0  0  0  0  0  0
   51.8600   31.8810   52.8340 N   0  0  0  0  0  0  0  0  0  0  0  0
   57.4510   32.0460   50.6830 N   0  0  0  0  0  0  0  0  0  0  0  0
   58.3670   31.8610   49.7450 N   0  0  0  0  0  0  0  0  0  0  0  0
   58.7510   32.8900   48.8140 C   0  0  0  0  0  0  0  0  0  0  0  0
   59.8660   33.7010   49.0910 C   0  0  0  0  0  0  0  0  0  0  0  0
   60.2570   34.7010   48.1960 C   0  0  0  0  0  0  0  0  0  0  0  0
   59.5440   34.8970   47.0110 C   0  0  0  0  0  0  0  0  0  0  0  0
   58.4450   34.0850   46.7140 C   0  0  0  0  0  0  0  0  0  0  0  0
   58.0510   33.0840   47.6070 C   0  0  0  0  0  0  0  0  0  0  0  0
   59.4580   26.4330   47.8990 C   0  0  0  0  0  0  0  0  0  0  0  0
   58.7250   25.6050   47.0460 C   0  0  0  0  0  0  0  0  0  0  0  0
   57.7890   26.1540   46.1510 C   0  0  0  0  0  0  0  0  0  0  0  0
   57.0380   25.3530   45.2760 O   0  0  0  0  0  0  0  0  0  0  0  0
   57.3830   25.0980   43.9190 C   0  0  0  0  0  0  0  0  0  0  0  0
   58.1710   32.1799   45.2595 H   0  0  0  0  0  0  0  0  0  0  0  0
   58.2609   31.2351   43.7343 H   0  0  0  0  0  0  0  0  0  0  0  0
   57.5221   32.8725   43.7343 H   0  0  0  0  0  0  0  0  0  0  0  0
   56.9133   28.4074   43.1854 H   0  0  0  0  0  0  0  0  0  0  0  0
   57.9755   29.3553   44.2772 H   0  0  0  0  0  0  0  0  0  0  0  0
   58.1851   29.4609   46.9493 H   0  0  0  0  0  0  0  0  0  0  0  0
   58.2480   28.8733   51.1365 H   0  0  0  0  0  0  0  0  0  0  0  0
   53.9352   29.5879   51.5468 H   0  0  0  0  0  0  0  0  0  0  0  0
   53.5795   29.8744   53.2872 H   0  0  0  0  0  0  0  0  0  0  0  0
   60.4352   33.5472   50.0196 H   0  0  0  0  0  0  0  0  0  0  0  0
   61.1269   35.3341   48.4251 H   0  0  0  0  0  0  0  0  0  0  0  0
   59.8470   35.6900   46.3115 H   0  0  0  0  0  0  0  0  0  0  0  0
   57.8896   34.2340   45.7763 H   0  0  0  0  0  0  0  0  0  0  0  0
   57.1894   32.4442   47.3657 H   0  0  0  0  0  0  0  0  0  0  0  0
   60.1864   25.9911   48.5948 H   0  0  0  0  0  0  0  0  0  0  0  0
   58.8807   24.5164   47.0743 H   0  0  0  0  0  0  0  0  0  0  0  0
   58.2671   24.4445   43.8820 H   0  0  0  0  0  0  0  0  0  0  0  0
   56.5404   24.6039   43.4131 H   0  0  0  0  0  0  0  0  0  0  0  0
   57.6081   26.0485   43.4131 H   0  0  0  0  0  0  0  0  0  0  0  0
  1  2  1  0
  2  3  1  0
  3  4  2  0
  3  5  1  0
  5  6  1  0
  6  7  1  0
  7  8  2  0
  8  9  1  0
  9 10  1  0
 10 11  2  0
 10 12  1  0
 12 13  2  3
 13 14  1  0
 14 15  2  0
 15 16  1  0
 16 17  2  0
 16 18  1  0
 18 19  1  0
 19 20  1  0
 20 21  2  0
 21 22  1  0
 22 23  1  0
 23 24  2  0
 23 25  1  0
 15 26  1  0
 26 27  1  0
 27 28  1  0
 28 29  2  0
 29 30  1  0
 30 31  2  0
 31 32  1  0
 32 33  2  0
  9 34  2  0
 34 35  1  0
 35 36  2  0
 36 37  1  0
 37 38  1  0
 36  7  1  0
 27 13  1  0
 33 28  1  0
 25 20  1  0
  1 39  1  0
  1 40  1  0
  1 41  1  0
  5 42  1  0
  5 43  1  0
  8 44  1  0
 14 45  1  0
 19 46  1  0
 19 47  1  0
 29 48  1  0
 30 49  1  0
 31 50  1  0
 32 51  1  0
 33 52  1  0
 34 53  1  0
 35 54  1  0
 38 55  1  0
 38 56  1  0
 38 57  1  0
M  CHG  5   2  -1  18  -1  22  -1  25  -1  26  -1
M  END
>  <UniqueID>  (59) 
53

>  <SMILES>  (59) 
C[N-]C(=O)COc1cc(C(=O)N=c2cc(C(=O)[N-]Cc3n[n-]c(=O)[n-]3)[n-]n2-c2ccccc2)ccc1OC

>  <Energy>  (59) 
127.79887194347071

>  <Genealogy>  (59) 
C[N-]C(=O)COc1cc(C(=O)N=c2cc(C(=O)[N-]Cc3n[n-]c(=O)[n-]3)[n-]n2-c2ccccc2)ccc1OC (protonated)
C[N-]C(=O)COc1cc(C(=O)N=c2cc(C(=O)[N-]Cc3n[n-]c(=O)[n-]3)[n-]n2-c2ccccc2)ccc1OC (3D coordinates assigned)
C[N-]C(=O)COc1cc(C(=O)N=c2cc(C(=O)[N-]Cc3n[n-]c(=O)[n-]3)[n-]n2-c2ccccc2)ccc1OC (optimized conformer: 127.79887194347071 kcal/mol)

>  <smiles>  (59) 
CNC(=O)COc1cc(C(=O)N=c2cc(C(=O)NCc3n[nH]c(=O)[nH]3)[nH]n2-c2ccccc2)ccc1OC

>  <score_type>  (59) 
oracle

>  <origin>  (59) 
adg

>  <m_score__min__energy>  (59) 
-18.140000000000001

>  <m_primary>  (59) 
energy

$$$$
60:0
     RDKit          3D

 30 31  0  0  0  0  0  0  0  0999 V2000
   59.2657   33.6076   43.3351 H   0  0  0  0  0  0  0  0  0  0  0  0
   58.3890   33.1150   43.7810 C   0  0  0  0  0  0  0  0  0  0  0  0
   57.8010   33.6910   45.0080 C   0  0  0  0  0  0  0  0  0  0  0  0
   56.6700   34.2420   44.9230 O   0  0  0  0  0  0  0  0  0  0  0  0
   58.4860   33.6660   46.3240 C   0  0  0  0  0  0  0  0  0  0  0  0
   59.4600   34.6280   46.6510 C   0  0  0  0  0  0  0  0  0  0  0  0
   59.7329   35.4016   45.9182 H   0  0  0  0  0  0  0  0  0  0  0  0
   60.0830   34.6050   47.9040 C   0  0  0  0  0  0  0  0  0  0  0  0
   60.8505   35.3536   48.1498 H   0  0  0  0  0  0  0  0  0  0  0  0
   59.7310   33.6320   48.8430 C   0  0  0  0  0  0  0  0  0  0  0  0
   60.2253   33.6115   49.8255 H   0  0  0  0  0  0  0  0  0  0  0  0
   58.7510   32.6850   48.5340 C   0  0  0  0  0  0  0  0  0  0  0  0
   58.4700   31.9233   49.2762 H   0  0  0  0  0  0  0  0  0  0  0  0
   58.1270   32.7040   47.2830 C   0  0  0  0  0  0  0  0  0  0  0  0
   57.3503   31.9613   47.0482 H   0  0  0  0  0  0  0  0  0  0  0  0
   57.8980   32.0160   43.1880 C   0  0  0  0  0  0  0  0  0  0  0  0
   57.7175   32.0500   42.1034 H   0  0  0  0  0  0  0  0  0  0  0  0
   57.5840   30.7570   43.9090 C   0  0  0  0  0  0  0  0  0  0  0  0
   58.5750   29.8340   44.2950 C   0  0  0  0  0  0  0  0  0  0  0  0
   59.6317   30.0397   44.0692 H   0  0  0  0  0  0  0  0  0  0  0  0
   58.2230   28.6570   44.9640 C   0  0  0  0  0  0  0  0  0  0  0  0
   59.0070   27.9469   45.2659 H   0  0  0  0  0  0  0  0  0  0  0  0
   56.8790   28.3730   45.2540 C   0  0  0  0  0  0  0  0  0  0  0  0
   56.5050   27.1280   45.9620 C   0  0  0  0  0  0  0  0  0  0  0  0
   57.3810   26.4340   46.5430 O   0  0  0  0  0  0  0  0  0  0  0  0
   55.1810   26.7080   45.9970 O   0  0  0  0  0  0  0  0  0  0  0  0
   55.8900   29.2870   44.8550 C   0  0  0  0  0  0  0  0  0  0  0  0
   54.8324   29.0756   45.0712 H   0  0  0  0  0  0  0  0  0  0  0  0
   56.2390   30.4620   44.1860 C   0  0  0  0  0  0  0  0  0  0  0  0
   55.4522   31.1640   43.8726 H   0  0  0  0  0  0  0  0  0  0  0  0
  1  2  1  0
  2  3  1  0
  3  4  2  0
  3  5  1  0
  5  6  2  0
  6  7  1  0
  6  8  1  0
  8  9  1  0
  8 10  2  0
 10 11  1  0
 10 12  1  0
 12 13  1  0
 12 14  2  0
 14 15  1  0
  2 16  2  0
 16 17  1  0
 16 18  1  0
 18 19  2  0
 19 20  1  0
 19 21  1  0
 21 22  1  0
 21 23  2  0
 23 24  1  0
 24 25  2  0
 24 26  1  0
 23 27  1  0
 27 28  1  0
 27 29  2  0
 29 30  1  0
 14  5  1  0
 29 18  1  0
M  CHG  1  26  -1
M  END
>  <UniqueID>  (60) 
54

>  <SMILES>  (60) 
O=C([O-])c1ccc(/C=C/C(=O)c2ccccc2)cc1

>  <Energy>  (60) 
38.71631061064706

>  <Genealogy>  (60) 
O=C([O-])c1ccc(C=CC(=O)c2ccccc2)cc1 (protonated)
O=C([O-])c1ccc(/C=C/C(=O)c2ccccc2)cc1 (cis-trans isomerization)
O=C([O-])c1ccc(/C=C/C(=O)c2ccccc2)cc1 (3D coordinates assigned)
O=C([O-])c1ccc(/C=C/C(=O)c2ccccc2)cc1 (optimized conformer: 38.71631061064706 kcal/mol)

>  <smiles>  (60) 
O=C(O)c1ccc(C=CC(=O)c2ccccc2)cc1

>  <score_type>  (60) 
oracle

>  <origin>  (60) 
adg

>  <m_score__min__energy>  (60) 
-10.02

>  <m_primary>  (60) 
energy

$$$$
61:0
     RDKit          3D

 43 45  0  0  0  0  0  0  0  0999 V2000
   59.7260   29.9130   44.8070 O   0  0  0  0  0  0  0  0  0  0  0  0
   58.4950   29.6810   44.6650 C   0  0  0  0  0  0  0  0  0  0  0  0
   57.6360   30.6950   44.1200 N   0  0  0  0  0  0  0  0  0  0  0  0
   58.1490   31.9670   43.6170 C   0  0  0  0  0  0  0  0  0  0  0  0
   58.4120   32.9110   44.7590 C   0  0  0  0  0  0  0  0  0  0  0  0
   57.8760   32.6590   46.0330 C   0  0  0  0  0  0  0  0  0  0  0  0
   58.1080   33.5530   47.0830 C   0  0  0  0  0  0  0  0  0  0  0  0
   58.8750   34.7020   46.8690 C   0  0  0  0  0  0  0  0  0  0  0  0
   59.4090   34.9600   45.6040 C   0  0  0  0  0  0  0  0  0  0  0  0
   59.1780   34.0690   44.5500 C   0  0  0  0  0  0  0  0  0  0  0  0
   57.9510   28.3730   45.1020 C   0  0  0  0  0  0  0  0  0  0  0  0
   58.8240   27.2860   45.2680 C   0  0  0  0  0  0  0  0  0  0  0  0
   58.3590   26.0610   45.6620 N   0  0  0  0  0  0  0  0  0  0  0  0
   59.3020   24.9410   45.8230 C   0  0  0  0  0  0  0  0  0  0  0  0
   58.7460   23.6200   45.2570 C   0  0  1  0  0  0  0  0  0  0  0  0
   57.7890   22.9060   46.2070 C   0  0  0  0  0  0  0  0  0  0  0  0
   56.7980   22.2860   45.2740 C   0  0  0  0  0  0  0  0  0  0  0  0
   56.8410   23.2110   44.0770 C   0  0  0  0  0  0  0  0  0  0  0  0
   58.1030   23.8340   44.0180 O   0  0  0  0  0  0  0  0  0  0  0  0
   57.0300   25.8770   45.9200 C   0  0  0  0  0  0  0  0  0  0  0  0
   56.1210   26.9220   45.7530 C   0  0  0  0  0  0  0  0  0  0  0  0
   54.7690   26.7090   46.0000 O   0  0  0  0  0  0  0  0  0  0  0  0
   56.5770   28.1730   45.3310 C   0  0  0  0  0  0  0  0  0  0  0  0
   55.7460   29.1010   45.1390 O   0  0  0  0  0  0  0  0  0  0  0  0
   56.5990   30.5600   44.1420 H   0  0  0  0  0  0  0  0  0  0  0  0
   59.0864   31.7894   43.0695 H   0  0  0  0  0  0  0  0  0  0  0  0
   57.4008   32.4152   42.9467 H   0  0  0  0  0  0  0  0  0  0  0  0
   57.2721   31.7558   46.2050 H   0  0  0  0  0  0  0  0  0  0  0  0
   57.6863   33.3518   48.0788 H   0  0  0  0  0  0  0  0  0  0  0  0
   59.0581   35.4030   47.6967 H   0  0  0  0  0  0  0  0  0  0  0  0
   60.0118   35.8647   45.4363 H   0  0  0  0  0  0  0  0  0  0  0  0
   59.5978   34.2765   43.5547 H   0  0  0  0  0  0  0  0  0  0  0  0
   59.8990   27.4214   45.0783 H   0  0  0  0  0  0  0  0  0  0  0  0
   60.2355   25.1864   45.2954 H   0  0  0  0  0  0  0  0  0  0  0  0
   59.4736   24.7988   46.9002 H   0  0  0  0  0  0  0  0  0  0  0  0
   59.6195   22.9654   45.1207 H   0  0  0  0  0  0  0  0  0  0  0  0
   58.3135   22.1386   46.7951 H   0  0  0  0  0  0  0  0  0  0  0  0
   57.3294   23.5767   46.9479 H   0  0  0  0  0  0  0  0  0  0  0  0
   57.0995   21.2650   44.9969 H   0  0  0  0  0  0  0  0  0  0  0  0
   55.7933   22.1844   45.7102 H   0  0  0  0  0  0  0  0  0  0  0  0
   56.6738   22.6308   43.1575 H   0  0  0  0  0  0  0  0  0  0  0  0
   56.0557   23.9753   44.1723 H   0  0  0  0  0  0  0  0  0  0  0  0
   56.6730   24.8947   46.2630 H   0  0  0  0  0  0  0  0  0  0  0  0
  1  2  2  0
  2  3  1  0
  3  4  1  0
  4  5  1  0
  5  6  2  0
  6  7  1  0
  7  8  2  0
  8  9  1  0
  9 10  2  0
  2 11  1  0
 11 12  2  0
 12 13  1  0
 13 14  1  0
 14 15  1  0
 15 16  1  0
 16 17  1  0
 17 18  1  0
 18 19  1  0
 13 20  1  0
 20 21  2  0
 21 22  1  0
 21 23  1  0
 23 24  2  0
 10  5  1  0
 23 11  1  0
 19 15  1  0
  3 25  1  0
  4 26  1  0
  4 27  1  0
  6 28  1  0
  7 29  1  0
  8 30  1  0
  9 31  1  0
 10 32  1  0
 12 33  1  0
 14 34  1  0
 14 35  1  0
 15 36  1  6
 16 37  1  0
 16 38  1  0
 17 39  1  0
 17 40  1  0
 18 41  1  0
 18 42  1  0
 20 43  1  0
M  CHG  1  22  -1
M  END
>  <UniqueID>  (61) 
55

>  <SMILES>  (61) 
O=C(NCc1ccccc1)c1cn(C[C@H]2CCCO2)cc([O-])c1=O

>  <Energy>  (61) 
46.417217418338375

>  <Genealogy>  (61) 
O=C(NCc1ccccc1)c1cn(CC2CCCO2)cc([O-])c1=O (protonated)
O=C(NCc1ccccc1)c1cn(C[C@H]2CCCO2)cc([O-])c1=O (chirality)
O=C(NCc1ccccc1)c1cn(C[C@H]2CCCO2)cc([O-])c1=O (3D coordinates assigned)
O=C(NCc1ccccc1)c1cn(C[C@H]2CCCO2)cc([O-])c1=O (nonaromatic ring conformer: 46.417217418338375 kcal/mol)

>  <smiles>  (61) 
O=C(NCc1ccccc1)c1cn(CC2CCCO2)cc(O)c1=O

>  <score_type>  (61) 
oracle

>  <origin>  (61) 
adg

>  <m_score__min__energy>  (61) 
-11.91

>  <m_primary>  (61) 
energy

$$$$
62:0
     RDKit          3D

 55 57  0  0  0  0  0  0  0  0999 V2000
   57.0180   24.5000   43.1830 C   0  0  0  0  0  0  0  0  0  0  0  0
   56.6820   23.6480   44.4230 C   0  0  0  0  0  0  0  0  0  0  0  0
   55.2920   23.0230   44.2320 C   0  0  0  0  0  0  0  0  0  0  0  0
   57.7150   22.5190   44.6010 C   0  0  0  0  0  0  0  0  0  0  0  0
   56.6210   24.4690   45.5990 O   0  0  0  0  0  0  0  0  0  0  0  0
   56.4930   25.8650   45.6330 C   0  0  0  0  0  0  0  0  0  0  0  0
   55.4190   26.4080   46.0110 O   0  0  0  0  0  0  0  0  0  0  0  0
   57.5930   26.6690   45.1880 N   0  0  0  0  0  0  0  0  0  0  0  0
   57.6640   28.0970   45.3430 C   0  0  0  0  0  0  0  0  0  0  0  0
   57.1050   28.9670   44.3910 C   0  0  0  0  0  0  0  0  0  0  0  0
   57.1760   30.3520   44.5720 C   0  0  0  0  0  0  0  0  0  0  0  0
   57.7930   30.8830   45.7110 C   0  0  0  0  0  0  0  0  0  0  0  0
   57.9400   32.6270   45.9030 S   0  0  0  0  0  0  0  0  0  0  0  0
   58.9210   33.1500   44.8920 O   0  0  0  0  0  0  0  0  0  0  0  0
   56.6120   33.2890   45.6620 O   0  0  0  0  0  0  0  0  0  0  0  0
   58.4980   33.0300   47.4920 N   0  0  0  0  0  0  0  0  0  0  0  0
   59.8420   32.7870   47.9140 C   0  0  0  0  0  0  0  0  0  0  0  0
   60.9120   33.3850   47.2370 C   0  0  0  0  0  0  0  0  0  0  0  0
   62.2250   33.0980   47.6100 C   0  0  0  0  0  0  0  0  0  0  0  0
   63.5680   33.8290   46.7510 Cl  0  0  0  0  0  0  0  0  0  0  0  0
   62.4560   32.2210   48.6700 C   0  0  0  0  0  0  0  0  0  0  0  0
   61.4080   31.6660   49.3340 N   0  0  0  0  0  0  0  0  0  0  0  0
   60.1130   31.9310   49.0010 C   0  0  0  0  0  0  0  0  0  0  0  0
   59.0590   31.2950   49.7470 N   0  0  0  0  0  0  0  0  0  0  0  0
   59.0190   29.8340   49.8580 C   0  0  0  0  0  0  0  0  0  0  0  0
   58.5160   29.4380   51.2490 C   0  0  0  0  0  0  0  0  0  0  0  0
   57.2960   30.0910   51.5510 O   0  0  0  0  0  0  0  0  0  0  0  0
   57.5080   31.4890   51.6320 C   0  0  0  0  0  0  0  0  0  0  0  0
   57.9210   32.0570   50.2710 C   0  0  0  0  0  0  0  0  0  0  0  0
   58.3310   30.0190   46.6740 C   0  0  0  0  0  0  0  0  0  0  0  0
   58.2580   28.6360   46.4950 C   0  0  0  0  0  0  0  0  0  0  0  0
   57.4040   25.4787   43.5042 H   0  0  0  0  0  0  0  0  0  0  0  0
   57.7804   23.9851   42.5800 H   0  0  0  0  0  0  0  0  0  0  0  0
   56.1094   24.6441   42.5800 H   0  0  0  0  0  0  0  0  0  0  0  0
   54.8426   22.8209   45.2154 H   0  0  0  0  0  0  0  0  0  0  0  0
   54.6507   23.7194   43.6719 H   0  0  0  0  0  0  0  0  0  0  0  0
   55.3873   22.0811   43.6719 H   0  0  0  0  0  0  0  0  0  0  0  0
   57.8800   22.3387   45.6735 H   0  0  0  0  0  0  0  0  0  0  0  0
   57.3387   21.5998   44.1283 H   0  0  0  0  0  0  0  0  0  0  0  0
   58.6639   22.8124   44.1283 H   0  0  0  0  0  0  0  0  0  0  0  0
   58.3440   26.1920   44.6400 H   0  0  0  0  0  0  0  0  0  0  0  0
   56.6092   28.5564   43.4991 H   0  0  0  0  0  0  0  0  0  0  0  0
   56.7456   31.0263   43.8169 H   0  0  0  0  0  0  0  0  0  0  0  0
   60.7166   34.0826   46.4092 H   0  0  0  0  0  0  0  0  0  0  0  0
   63.4866   31.9786   48.9685 H   0  0  0  0  0  0  0  0  0  0  0  0
   58.3403   29.4273   49.0938 H   0  0  0  0  0  0  0  0  0  0  0  0
   60.0301   29.4283   49.7061 H   0  0  0  0  0  0  0  0  0  0  0  0
   58.3587   28.3497   51.2786 H   0  0  0  0  0  0  0  0  0  0  0  0
   59.2685   29.7383   51.9931 H   0  0  0  0  0  0  0  0  0  0  0  0
   56.5775   31.9764   51.9587 H   0  0  0  0  0  0  0  0  0  0  0  0
   58.3154   31.6816   52.3538 H   0  0  0  0  0  0  0  0  0  0  0  0
   57.0760   31.9817   49.5708 H   0  0  0  0  0  0  0  0  0  0  0  0
   58.2091   33.1123   50.3868 H   0  0  0  0  0  0  0  0  0  0  0  0
   58.8121   30.4312   47.5733 H   0  0  0  0  0  0  0  0  0  0  0  0
   58.6691   27.9638   47.2626 H   0  0  0  0  0  0  0  0  0  0  0  0
  1  2  1  0
  2  3  1  0
  2  4  1  0
  2  5  1  0
  5  6  1  0
  6  7  2  0
  6  8  1  0
  8  9  1  0
  9 10  2  0
 10 11  1  0
 11 12  2  0
 12 13  1  0
 13 14  2  0
 13 15  2  0
 13 16  1  0
 16 17  1  0
 17 18  2  0
 18 19  1  0
 19 20  1  0
 19 21  2  0
 21 22  1  0
 22 23  2  0
 23 24  1  0
 24 25  1  0
 25 26  1  0
 26 27  1  0
 27 28  1  0
 28 29  1  0
 12 30  1  0
 30 31  2  0
 31  9  1  0
 23 17  1  0
 29 24  1  0
  1 32  1  0
  1 33  1  0
  1 34  1  0
  3 35  1  0
  3 36  1  0
  3 37  1  0
  4 38  1  0
  4 39  1  0
  4 40  1  0
  8 41  1  0
 10 42  1  0
 11 43  1  0
 18 44  1  0
 21 45  1  0
 25 46  1  0
 25 47  1  0
 26 48  1  0
 26 49  1  0
 28 50  1  0
 28 51  1  0
 29 52  1  0
 29 53  1  0
 30 54  1  0
 31 55  1  0
M  CHG  1  16  -1
M  END
>  <UniqueID>  (62) 
56

>  <SMILES>  (62) 
CC(C)(C)OC(=O)Nc1ccc(S(=O)(=O)[N-]c2cc(Cl)cnc2N2CCOCC2)cc1

>  <Energy>  (62) 
69.18754512862904

>  <Genealogy>  (62) 
CC(C)(C)OC(=O)Nc1ccc(S(=O)(=O)[N-]c2cc(Cl)cnc2N2CCOCC2)cc1 (protonated)
CC(C)(C)OC(=O)Nc1ccc(S(=O)(=O)[N-]c2cc(Cl)cnc2N2CCOCC2)cc1 (3D coordinates assigned)
CC(C)(C)OC(=O)Nc1ccc(S(=O)(=O)[N-]c2cc(Cl)cnc2N2CCOCC2)cc1 (nonaromatic ring conformer: 69.18754512862904 kcal/mol)

>  <smiles>  (62) 
CC(C)(C)OC(=O)Nc1ccc(S(=O)(=O)Nc2cc(Cl)cnc2N2CCOCC2)cc1

>  <score_type>  (62) 
oracle

>  <origin>  (62) 
adg

>  <m_score__min__energy>  (62) 
-9.2100000000000009

>  <m_primary>  (62) 
energy

$$$$
63:0
     RDKit          3D

 48 50  0  0  0  0  0  0  0  0999 V2000
   57.3890   23.3780   47.4950 N   0  0  0  0  0  0  0  0  0  0  0  0
   56.5130   24.1900   46.2460 S   0  0  0  0  0  0  0  0  0  0  0  0
   56.5490   23.3640   44.9880 O   0  0  0  0  0  0  0  0  0  0  0  0
   55.0780   24.3630   46.6680 O   0  0  0  0  0  0  0  0  0  0  0  0
   57.2430   25.7670   45.9540 C   0  0  0  0  0  0  0  0  0  0  0  0
   58.6390   25.8990   45.9070 C   0  0  0  0  0  0  0  0  0  0  0  0
   59.2150   27.1490   45.6660 C   0  0  0  0  0  0  0  0  0  0  0  0
   58.4040   28.2690   45.4570 C   0  0  0  0  0  0  0  0  0  0  0  0
   57.0100   28.1450   45.4690 C   0  0  0  0  0  0  0  0  0  0  0  0
   56.2120   29.3200   45.2650 N   0  0  0  0  0  0  0  0  0  0  0  0
   55.6140   29.7260   44.0280 C   0  0  0  0  0  0  0  0  0  0  0  0
   54.4450   29.3630   43.7270 O   0  0  0  0  0  0  0  0  0  0  0  0
   56.4010   30.5530   43.0600 C   0  0  0  0  0  0  0  0  0  0  0  0
   57.7890   30.6690   43.5060 N   0  0  0  0  0  0  0  0  0  0  0  0
   58.2830   31.7170   44.3630 C   0  0  0  0  0  0  0  0  0  0  0  0
   58.9000   31.4400   45.5980 C   0  0  0  0  0  0  0  0  0  0  0  0
   59.3660   32.4820   46.4060 C   0  0  0  0  0  0  0  0  0  0  0  0
   59.2450   33.8170   45.9890 C   0  0  0  0  0  0  0  0  0  0  0  0
   59.7490   34.9150   46.8480 C   0  0  0  0  0  0  0  0  0  0  0  0
   59.6360   36.1080   46.4580 O   0  0  0  0  0  0  0  0  0  0  0  0
   60.4040   34.6630   48.0990 N   0  0  0  0  0  0  0  0  0  0  0  0
   61.6840   34.0350   48.2740 C   0  0  0  0  0  0  0  0  0  0  0  0
   62.5140   33.7620   47.1710 C   0  0  0  0  0  0  0  0  0  0  0  0
   63.7470   33.1300   47.3540 C   0  0  0  0  0  0  0  0  0  0  0  0
   64.1560   32.7500   48.6330 C   0  0  0  0  0  0  0  0  0  0  0  0
   63.3290   32.9930   49.7320 C   0  0  0  0  0  0  0  0  0  0  0  0
   62.0930   33.6280   49.5610 C   0  0  0  0  0  0  0  0  0  0  0  0
   61.2910   33.8520   50.6820 O   0  0  0  0  0  0  0  0  0  0  0  0
   58.6230   34.0930   44.7590 C   0  0  0  0  0  0  0  0  0  0  0  0
   58.1540   33.0530   43.9540 C   0  0  0  0  0  0  0  0  0  0  0  0
   56.4310   26.8910   45.7380 C   0  0  0  0  0  0  0  0  0  0  0  0
   57.6640   22.4450   47.1160 H   0  0  0  0  0  0  0  0  0  0  0  0
   59.2801   25.0183   46.0599 H   0  0  0  0  0  0  0  0  0  0  0  0
   60.3098   27.2524   45.6406 H   0  0  0  0  0  0  0  0  0  0  0  0
   58.8642   29.2527   45.2822 H   0  0  0  0  0  0  0  0  0  0  0  0
   56.3764   30.0748   42.0697 H   0  0  0  0  0  0  0  0  0  0  0  0
   55.9573   31.5579   43.0031 H   0  0  0  0  0  0  0  0  0  0  0  0
   58.4700   29.9730   43.1250 H   0  0  0  0  0  0  0  0  0  0  0  0
   59.0162   30.3975   45.9293 H   0  0  0  0  0  0  0  0  0  0  0  0
   59.8312   32.2536   47.3763 H   0  0  0  0  0  0  0  0  0  0  0  0
   62.1906   34.0476   46.1592 H   0  0  0  0  0  0  0  0  0  0  0  0
   64.3962   32.9318   46.4884 H   0  0  0  0  0  0  0  0  0  0  0  0
   65.1299   32.2590   48.7756 H   0  0  0  0  0  0  0  0  0  0  0  0
   63.6506   32.6838   50.7375 H   0  0  0  0  0  0  0  0  0  0  0  0
   60.3780   34.2850   50.6190 H   0  0  0  0  0  0  0  0  0  0  0  0
   58.5049   35.1355   44.4284 H   0  0  0  0  0  0  0  0  0  0  0  0
   57.6785   33.2834   42.9892 H   0  0  0  0  0  0  0  0  0  0  0  0
   55.3363   26.7913   45.7792 H   0  0  0  0  0  0  0  0  0  0  0  0
  1  2  1  0
  2  3  2  0
  2  4  2  0
  2  5  1  0
  5  6  2  0
  6  7  1  0
  7  8  2  0
  8  9  1  0
  9 10  1  0
 10 11  1  0
 11 12  2  0
 11 13  1  0
 13 14  1  0
 14 15  1  0
 15 16  2  0
 16 17  1  0
 17 18  2  0
 18 19  1  0
 19 20  2  0
 19 21  1  0
 21 22  1  0
 22 23  2  0
 23 24  1  0
 24 25  2  0
 25 26  1  0
 26 27  2  0
 27 28  1  0
 18 29  1  0
 29 30  2  0
  9 31  2  0
 31  5  1  0
 30 15  1  0
 27 22  1  0
  1 32  1  0
  6 33  1  0
  7 34  1  0
  8 35  1  0
 13 36  1  0
 13 37  1  0
 14 38  1  0
 16 39  1  0
 17 40  1  0
 23 41  1  0
 24 42  1  0
 25 43  1  0
 26 44  1  0
 28 45  1  0
 29 46  1  0
 30 47  1  0
 31 48  1  0
M  CHG  3   1  -1  10  -1  21  -1
M  END
>  <UniqueID>  (63) 
57

>  <SMILES>  (63) 
[NH-]S(=O)(=O)c1cccc([N-]C(=O)CNc2ccc(C(=O)[N-]c3ccccc3O)cc2)c1

>  <Energy>  (63) 
59.14029788012887

>  <Genealogy>  (63) 
[NH-]S(=O)(=O)c1cccc([N-]C(=O)CNc2ccc(C(=O)[N-]c3ccccc3O)cc2)c1 (protonated)
[NH-]S(=O)(=O)c1cccc([N-]C(=O)CNc2ccc(C(=O)[N-]c3ccccc3O)cc2)c1 (3D coordinates assigned)
[NH-]S(=O)(=O)c1cccc([N-]C(=O)CNc2ccc(C(=O)[N-]c3ccccc3O)cc2)c1 (optimized conformer: 59.14029788012887 kcal/mol)

>  <smiles>  (63) 
NS(=O)(=O)c1cccc(NC(=O)CNc2ccc(C(=O)Nc3ccccc3O)cc2)c1

>  <score_type>  (63) 
oracle

>  <origin>  (63) 
adg

>  <m_score__min__energy>  (63) 
-14.369999999999999

>  <m_primary>  (63) 
energy

$$$$
64:0
     RDKit          3D

 43 45  0  0  0  0  0  0  0  0999 V2000
   59.7490   34.9630   46.0660 C   0  0  0  0  0  0  0  0  0  0  0  0
   59.0080   33.7610   45.5590 C   0  0  0  0  0  0  0  0  0  0  0  0
   58.5030   32.8130   46.4580 C   0  0  0  0  0  0  0  0  0  0  0  0
   57.7730   31.7180   45.9910 C   0  0  0  0  0  0  0  0  0  0  0  0
   57.5180   31.5650   44.6240 C   0  0  0  0  0  0  0  0  0  0  0  0
   56.7610   30.4650   44.2060 O   0  0  0  0  0  0  0  0  0  0  0  0
   57.1180   29.1300   44.4410 C   0  0  0  0  0  0  0  0  0  0  0  0
   56.7830   28.5620   45.6270 N   0  0  0  0  0  0  0  0  0  0  0  0
   57.1070   27.2750   45.9100 C   0  0  0  0  0  0  0  0  0  0  0  0
   57.8020   26.5040   44.9710 C   0  0  0  0  0  0  0  0  0  0  0  0
   58.1610   25.0930   45.2430 C   0  0  0  0  0  0  0  0  0  0  0  0
   59.0070   24.8410   46.1450 O   0  0  0  0  0  0  0  0  0  0  0  0
   57.5620   24.0050   44.5140 N   0  0  0  0  0  0  0  0  0  0  0  0
   56.1650   24.0580   44.0690 C   0  0  0  0  0  0  0  0  0  0  0  0
   55.5130   22.6870   44.2750 C   0  0  0  0  0  0  0  0  0  0  0  0
   56.2850   21.6680   43.6680 O   0  0  0  0  0  0  0  0  0  0  0  0
   57.5390   21.5640   44.3160 C   0  0  0  0  0  0  0  0  0  0  0  0
   58.3610   22.8420   44.1190 C   0  0  0  0  0  0  0  0  0  0  0  0
   58.1100   27.0960   43.7400 C   0  0  0  0  0  0  0  0  0  0  0  0
   57.7670   28.3880   43.4960 N   0  0  0  0  0  0  0  0  0  0  0  0
   58.0460   32.5020   43.7040 C   0  0  0  0  0  0  0  0  0  0  0  0
   57.8420   32.3470   42.2220 C   0  0  0  0  0  0  0  0  0  0  0  0
   58.7630   33.6100   44.1860 C   0  0  0  0  0  0  0  0  0  0  0  0
   59.7462   34.9584   47.1660 H   0  0  0  0  0  0  0  0  0  0  0  0
   60.7866   34.9346   45.7019 H   0  0  0  0  0  0  0  0  0  0  0  0
   59.2575   35.8772   45.7019 H   0  0  0  0  0  0  0  0  0  0  0  0
   58.6823   32.9316   47.5368 H   0  0  0  0  0  0  0  0  0  0  0  0
   57.3955   30.9699   46.7036 H   0  0  0  0  0  0  0  0  0  0  0  0
   56.8231   26.8372   46.8784 H   0  0  0  0  0  0  0  0  0  0  0  0
   55.6218   24.8144   44.6545 H   0  0  0  0  0  0  0  0  0  0  0  0
   56.1289   24.3255   43.0026 H   0  0  0  0  0  0  0  0  0  0  0  0
   55.4319   22.4844   45.3531 H   0  0  0  0  0  0  0  0  0  0  0  0
   54.5154   22.6974   43.8117 H   0  0  0  0  0  0  0  0  0  0  0  0
   57.3767   21.4019   45.3918 H   0  0  0  0  0  0  0  0  0  0  0  0
   58.0918   20.7186   43.8805 H   0  0  0  0  0  0  0  0  0  0  0  0
   59.2682   22.7932   44.7391 H   0  0  0  0  0  0  0  0  0  0  0  0
   58.6439   22.9353   43.0601 H   0  0  0  0  0  0  0  0  0  0  0  0
   58.6319   26.5126   42.9671 H   0  0  0  0  0  0  0  0  0  0  0  0
   58.0030   28.7990   42.5660 H   0  0  0  0  0  0  0  0  0  0  0  0
   56.9786   31.6910   42.0374 H   0  0  0  0  0  0  0  0  0  0  0  0
   57.6558   33.3335   41.7724 H   0  0  0  0  0  0  0  0  0  0  0  0
   58.7425   31.9032   41.7724 H   0  0  0  0  0  0  0  0  0  0  0  0
   59.1359   34.3665   43.4798 H   0  0  0  0  0  0  0  0  0  0  0  0
  1  2  1  0
  2  3  2  0
  3  4  1  0
  4  5  2  0
  5  6  1  0
  6  7  1  0
  7  8  2  0
  8  9  1  0
  9 10  2  0
 10 11  1  0
 11 12  2  0
 11 13  1  0
 13 14  1  0
 14 15  1  0
 15 16  1  0
 16 17  1  0
 17 18  1  0
 10 19  1  0
 19 20  2  0
  5 21  1  0
 21 22  1  0
 21 23  2  0
 23  2  1  0
 20  7  1  0
 18 13  1  0
  1 24  1  0
  1 25  1  0
  1 26  1  0
  3 27  1  0
  4 28  1  0
  9 29  1  0
 14 30  1  0
 14 31  1  0
 15 32  1  0
 15 33  1  0
 17 34  1  0
 17 35  1  0
 18 36  1  0
 18 37  1  0
 19 38  1  0
 20 39  1  0
 22 40  1  0
 22 41  1  0
 22 42  1  0
 23 43  1  0
M  CHG  1  20   1
M  END
>  <UniqueID>  (64) 
58

>  <SMILES>  (64) 
Cc1ccc(Oc2ncc(C(=O)N3CCOCC3)c[nH+]2)c(C)c1

>  <Energy>  (64) 
58.106703924233734

>  <Genealogy>  (64) 
Cc1ccc(Oc2ncc(C(=O)N3CCOCC3)c[nH+]2)c(C)c1 (protonated)
Cc1ccc(Oc2ncc(C(=O)N3CCOCC3)c[nH+]2)c(C)c1 (3D coordinates assigned)
Cc1ccc(Oc2ncc(C(=O)N3CCOCC3)c[nH+]2)c(C)c1 (nonaromatic ring conformer: 58.106703924233734 kcal/mol)

>  <smiles>  (64) 
Cc1ccc(Oc2ncc(C(=O)N3CCOCC3)cn2)c(C)c1

>  <score_type>  (64) 
oracle

>  <origin>  (64) 
adg

>  <m_score__min__energy>  (64) 
-6.3700000000000001

>  <m_primary>  (64) 
energy

$$$$
65:0
     RDKit          3D

 61 64  0  0  0  0  0  0  0  0999 V2000
   54.8980   23.6740   46.7390 C   0  0  0  0  0  0  0  0  0  0  0  0
   55.8370   24.7580   46.3260 C   0  0  0  0  0  0  0  0  0  0  0  0
   57.1920   24.5340   46.3590 N   0  0  0  0  0  0  0  0  0  0  0  0
   58.0790   25.5110   46.0140 C   0  0  0  0  0  0  0  0  0  0  0  0
   59.4880   25.2700   46.0540 N   0  0  0  0  0  0  0  0  0  0  0  0
   59.9940   23.9650   45.6210 C   0  0  0  0  0  0  0  0  0  0  0  0
   60.3960   26.3410   46.4670 C   0  0  0  0  0  0  0  0  0  0  0  0
   59.9800   26.8890   47.8340 C   0  0  0  0  0  0  0  0  0  0  0  0
   59.6620   28.3260   47.7480 N   0  0  0  0  0  0  0  0  0  0  0  0
   59.9520   29.0550   48.9970 C   0  0  0  0  0  0  0  0  0  0  0  0
   60.7140   30.3280   48.6410 C   0  0  0  0  0  0  0  0  0  0  0  0
   60.6430   30.4180   47.1330 C   0  0  0  0  0  0  0  0  0  0  0  0
   60.4420   28.9850   46.6940 C   0  0  0  0  0  0  0  0  0  0  0  0
   57.5660   26.7460   45.6400 C   0  0  0  0  0  0  0  0  0  0  0  0
   58.2150   27.8600   45.2780 N   0  0  0  0  0  0  0  0  0  0  0  0
   57.1890   28.7320   45.0500 C   0  0  0  0  0  0  0  0  0  0  0  0
   57.4090   30.1310   44.6220 C   0  0  0  0  0  0  0  0  0  0  0  0
   57.3680   30.4690   43.2600 C   0  0  0  0  0  0  0  0  0  0  0  0
   57.5760   31.7870   42.8570 C   0  0  0  0  0  0  0  0  0  0  0  0
   57.8360   32.7820   43.8010 C   0  0  0  0  0  0  0  0  0  0  0  0
   57.8840   32.4630   45.1690 C   0  0  0  0  0  0  0  0  0  0  0  0
   58.1560   33.4420   46.1850 N   0  0  0  0  0  0  0  0  0  0  0  0
   59.5630   34.4500   46.3350 S   0  0  0  0  0  0  0  0  0  0  0  0
   59.2410   35.6970   47.1110 O   0  0  0  0  0  0  0  0  0  0  0  0
   59.9960   34.8600   44.9580 O   0  0  0  0  0  0  0  0  0  0  0  0
   60.9160   33.5550   47.1030 C   0  0  0  0  0  0  0  0  0  0  0  0
   61.0160   33.9190   48.5880 C   0  0  0  0  0  0  0  0  0  0  0  0
   62.2450   33.8290   46.3920 C   0  0  0  0  0  0  0  0  0  0  0  0
   57.6640   31.1390   45.5710 C   0  0  0  0  0  0  0  0  0  0  0  0
   55.9480   28.2080   45.2560 N   0  0  0  0  0  0  0  0  0  0  0  0
   56.2340   26.9530   45.6270 C   0  0  0  0  0  0  0  0  0  0  0  0
   55.3480   25.9860   45.9670 N   0  0  0  0  0  0  0  0  0  0  0  0
   54.8552   23.6246   47.8371 H   0  0  0  0  0  0  0  0  0  0  0  0
   53.8945   23.8873   46.3422 H   0  0  0  0  0  0  0  0  0  0  0  0
   55.2522   22.7112   46.3422 H   0  0  0  0  0  0  0  0  0  0  0  0
   60.2314   23.3526   46.5034 H   0  0  0  0  0  0  0  0  0  0  0  0
   59.2278   23.4566   45.0173 H   0  0  0  0  0  0  0  0  0  0  0  0
   60.9026   24.1060   45.0173 H   0  0  0  0  0  0  0  0  0  0  0  0
   61.4201   25.9446   46.5308 H   0  0  0  0  0  0  0  0  0  0  0  0
   60.3531   27.1533   45.7265 H   0  0  0  0  0  0  0  0  0  0  0  0
   59.0919   26.3437   48.1859 H   0  0  0  0  0  0  0  0  0  0  0  0
   60.8156   26.7545   48.5366 H   0  0  0  0  0  0  0  0  0  0  0  0
   59.0108   29.3141   49.5039 H   0  0  0  0  0  0  0  0  0  0  0  0
   60.5540   28.4282   49.6714 H   0  0  0  0  0  0  0  0  0  0  0  0
   60.2383   31.2054   49.1035 H   0  0  0  0  0  0  0  0  0  0  0  0
   61.7517   30.3038   49.0050 H   0  0  0  0  0  0  0  0  0  0  0  0
   59.7972   31.0466   46.8175 H   0  0  0  0  0  0  0  0  0  0  0  0
   61.5408   30.8756   46.6919 H   0  0  0  0  0  0  0  0  0  0  0  0
   59.8935   28.9539   45.7410 H   0  0  0  0  0  0  0  0  0  0  0  0
   61.4068   28.4792   46.5411 H   0  0  0  0  0  0  0  0  0  0  0  0
   57.1710   29.6907   42.5080 H   0  0  0  0  0  0  0  0  0  0  0  0
   57.5350   32.0447   41.7884 H   0  0  0  0  0  0  0  0  0  0  0  0
   58.0038   33.8186   43.4733 H   0  0  0  0  0  0  0  0  0  0  0  0
   60.7056   32.4791   47.0123 H   0  0  0  0  0  0  0  0  0  0  0  0
   60.7737   33.0369   49.1989 H   0  0  0  0  0  0  0  0  0  0  0  0
   62.0391   34.2528   48.8156 H   0  0  0  0  0  0  0  0  0  0  0  0
   60.3070   34.7286   48.8156 H   0  0  0  0  0  0  0  0  0  0  0  0
   63.0345   33.9918   47.1405 H   0  0  0  0  0  0  0  0  0  0  0  0
   62.5087   32.9663   45.7625 H   0  0  0  0  0  0  0  0  0  0  0  0
   62.1460   34.7256   45.7625 H   0  0  0  0  0  0  0  0  0  0  0  0
   57.6909   30.8842   46.6407 H   0  0  0  0  0  0  0  0  0  0  0  0
  1  2  1  0
  2  3  2  0
  3  4  1  0
  4  5  1  0
  5  6  1  0
  5  7  1  0
  7  8  1  0
  8  9  1  0
  9 10  1  0
 10 11  1  0
 11 12  1  0
 12 13  1  0
  4 14  2  0
 14 15  1  0
 15 16  2  0
 16 17  1  0
 17 18  2  0
 18 19  1  0
 19 20  2  0
 20 21  1  0
 21 22  1  0
 22 23  1  0
 23 24  2  0
 23 25  2  0
 23 26  1  0
 26 27  1  0
 26 28  1  0
 21 29  2  0
 16 30  1  0
 30 31  1  0
 31 32  2  0
 32  2  1  0
 13  9  1  0
 31 14  1  0
 29 17  1  0
  1 33  1  0
  1 34  1  0
  1 35  1  0
  6 36  1  0
  6 37  1  0
  6 38  1  0
  7 39  1  0
  7 40  1  0
  8 41  1  0
  8 42  1  0
 10 43  1  0
 10 44  1  0
 11 45  1  0
 11 46  1  0
 12 47  1  0
 12 48  1  0
 13 49  1  0
 13 50  1  0
 18 51  1  0
 19 52  1  0
 20 53  1  0
 26 54  1  0
 27 55  1  0
 27 56  1  0
 27 57  1  0
 28 58  1  0
 28 59  1  0
 28 60  1  0
 29 61  1  0
M  CHG  2  22  -1  30  -1
M  END
>  <UniqueID>  (65) 
59

>  <SMILES>  (65) 
Cc1nc(N(C)CCN2CCCC2)c2nc(-c3cccc([N-]S(=O)(=O)C(C)C)c3)[n-]c2n1

>  <Energy>  (65) 
100.35610342956019

>  <Genealogy>  (65) 
Cc1nc(N(C)CCN2CCCC2)c2nc(-c3cccc([N-]S(=O)(=O)C(C)C)c3)[n-]c2n1 (protonated)
Cc1nc(N(C)CCN2CCCC2)c2nc(-c3cccc([N-]S(=O)(=O)C(C)C)c3)[n-]c2n1 (3D coordinates assigned)
Cc1nc(N(C)CCN2CCCC2)c2nc(-c3cccc([N-]S(=O)(=O)C(C)C)c3)[n-]c2n1 (nonaromatic ring conformer: 100.35610342956019 kcal/mol)

>  <smiles>  (65) 
Cc1nc(N(C)CCN2CCCC2)c2nc(-c3cccc(NS(=O)(=O)C(C)C)c3)[nH]c2n1

>  <score_type>  (65) 
oracle

>  <origin>  (65) 
adg

>  <m_score__min__energy>  (65) 
-12.029999999999999

>  <m_primary>  (65) 
energy

$$$$
66:0
     RDKit          3D

 37 38  0  0  0  0  0  0  0  0999 V2000
   55.8780   19.6880   43.8840 C   0  0  0  0  0  0  0  0  0  0  0  0
   55.9940   21.0550   43.5050 O   0  0  0  0  0  0  0  0  0  0  0  0
   56.8930   21.9650   44.0820 C   0  0  0  0  0  0  0  0  0  0  0  0
   58.1120   21.4770   44.5660 C   0  0  0  0  0  0  0  0  0  0  0  0
   59.0460   22.3430   45.1350 C   0  0  0  0  0  0  0  0  0  0  0  0
   58.7670   23.7080   45.2350 C   0  0  0  0  0  0  0  0  0  0  0  0
   57.5420   24.2160   44.7800 C   0  0  0  0  0  0  0  0  0  0  0  0
   57.2880   25.6270   44.8760 N   0  0  0  0  0  0  0  0  0  0  0  0
   56.2010   26.1980   45.6250 C   0  0  0  0  0  0  0  0  0  0  0  0
   55.4340   25.4620   46.3010 O   0  0  0  0  0  0  0  0  0  0  0  0
   55.9670   27.6110   45.6210 N   0  0  0  0  0  0  0  0  0  0  0  0
   56.9780   28.6000   45.3800 C   0  0  0  0  0  0  0  0  0  0  0  0
   56.7230   29.6380   44.4590 C   0  0  0  0  0  0  0  0  0  0  0  0
   55.4150   29.6960   43.7190 C   0  0  0  0  0  0  0  0  0  0  0  0
   57.7170   30.5930   44.1980 C   0  0  0  0  0  0  0  0  0  0  0  0
   58.9440   30.5340   44.8570 C   0  0  0  0  0  0  0  0  0  0  0  0
   59.1890   29.5300   45.7950 C   0  0  0  0  0  0  0  0  0  0  0  0
   58.2070   28.5700   46.0840 C   0  0  0  0  0  0  0  0  0  0  0  0
   58.4980   27.5180   47.1200 C   0  0  0  0  0  0  0  0  0  0  0  0
   56.6140   23.3420   44.1850 C   0  0  0  0  0  0  0  0  0  0  0  0
   55.8715   19.6110   44.9813 H   0  0  0  0  0  0  0  0  0  0  0  0
   54.9415   19.2742   43.4818 H   0  0  0  0  0  0  0  0  0  0  0  0
   56.7314   19.1223   43.4818 H   0  0  0  0  0  0  0  0  0  0  0  0
   58.3355   20.4021   44.4972 H   0  0  0  0  0  0  0  0  0  0  0  0
   60.0042   21.9501   45.5057 H   0  0  0  0  0  0  0  0  0  0  0  0
   59.5124   24.3880   45.6731 H   0  0  0  0  0  0  0  0  0  0  0  0
   57.9920   26.2690   44.4460 H   0  0  0  0  0  0  0  0  0  0  0  0
   54.5863   29.7327   44.4415 H   0  0  0  0  0  0  0  0  0  0  0  0
   55.3908   30.5961   43.0872 H   0  0  0  0  0  0  0  0  0  0  0  0
   55.3112   28.8016   43.0872 H   0  0  0  0  0  0  0  0  0  0  0  0
   57.5269   31.3939   43.4683 H   0  0  0  0  0  0  0  0  0  0  0  0
   59.7212   31.2807   44.6371 H   0  0  0  0  0  0  0  0  0  0  0  0
   60.1593   29.4909   46.3117 H   0  0  0  0  0  0  0  0  0  0  0  0
   58.3786   27.9498   48.1246 H   0  0  0  0  0  0  0  0  0  0  0  0
   57.7984   26.6782   46.9963 H   0  0  0  0  0  0  0  0  0  0  0  0
   59.5297   27.1571   46.9963 H   0  0  0  0  0  0  0  0  0  0  0  0
   55.6633   23.7368   43.7973 H   0  0  0  0  0  0  0  0  0  0  0  0
  1  2  1  0
  2  3  1  0
  3  4  2  0
  4  5  1  0
  5  6  2  0
  6  7  1  0
  7  8  1  0
  8  9  1  0
  9 10  2  0
  9 11  1  0
 11 12  1  0
 12 13  2  0
 13 14  1  0
 13 15  1  0
 15 16  2  0
 16 17  1  0
 17 18  2  0
 18 19  1  0
  7 20  2  0
 20  3  1  0
 18 12  1  0
  1 21  1  0
  1 22  1  0
  1 23  1  0
  4 24  1  0
  5 25  1  0
  6 26  1  0
  8 27  1  0
 14 28  1  0
 14 29  1  0
 14 30  1  0
 15 31  1  0
 16 32  1  0
 17 33  1  0
 19 34  1  0
 19 35  1  0
 19 36  1  0
 20 37  1  0
M  CHG  1  11  -1
M  END
>  <UniqueID>  (66) 
60

>  <SMILES>  (66) 
COc1cccc(NC(=O)[N-]c2c(C)cccc2C)c1

>  <Energy>  (66) 
46.7105075736163

>  <Genealogy>  (66) 
COc1cccc(NC(=O)[N-]c2c(C)cccc2C)c1 (protonated)
COc1cccc(NC(=O)[N-]c2c(C)cccc2C)c1 (3D coordinates assigned)
COc1cccc(NC(=O)[N-]c2c(C)cccc2C)c1 (optimized conformer: 46.7105075736163 kcal/mol)

>  <smiles>  (66) 
COc1cccc(NC(=O)Nc2c(C)cccc2C)c1

>  <score_type>  (66) 
oracle

>  <origin>  (66) 
adg

>  <m_score__min__energy>  (66) 
-8.3900000000000006

>  <m_primary>  (66) 
energy

$$$$
67:0
     RDKit          3D

 31 33  0  0  1  0  0  0  0  0999 V2000
   63.9420   33.1490   48.8530 Cl  0  0  0  0  0  0  0  0  0  0  0  0
   62.4000   33.5700   48.1370 C   0  0  0  0  0  0  0  0  0  0  0  0
   61.3760   33.9470   48.9560 C   0  0  0  0  0  0  0  0  0  0  0  0
   60.1630   34.2770   48.3920 C   0  0  0  0  0  0  0  0  0  0  0  0
   59.9880   34.2300   47.0200 C   0  0  0  0  0  0  0  0  0  0  0  0
   58.6530   34.5960   46.4330 C   0  0  0  0  0  0  0  0  0  0  0  0
   57.7570   33.3780   46.4820 C   0  0  0  0  0  0  0  0  0  0  0  0
   58.2510   32.2750   45.7110 N   0  0  0  0  0  0  0  0  0  0  0  0
   57.9400   32.0350   44.4850 C   0  0  0  0  0  0  0  0  0  0  0  0
   58.4590   32.7990   43.5250 N   0  0  0  0  0  0  0  0  0  0  0  0
   58.1520   32.5760   42.2200 C   0  0  0  0  0  0  0  0  0  0  0  0
   57.3130   31.5660   41.9240 N   0  0  0  0  0  0  0  0  0  0  0  0
   56.7730   30.7760   42.8790 C   0  0  0  0  0  0  0  0  0  0  0  0
   55.9360   29.7350   42.8570 N   0  0  0  0  0  0  0  0  0  0  0  0
   55.7400   29.3380   44.1240 C   0  0  0  0  0  0  0  0  0  0  0  0
   56.4510   30.1230   44.9520 N   0  0  0  0  0  0  0  0  0  0  0  0
   57.0860   31.0060   44.2020 C   0  0  0  0  0  0  0  0  0  0  0  0
   61.0480   33.8430   46.2070 C   0  0  0  0  0  0  0  0  0  0  0  0
   62.2700   33.5080   46.7660 C   0  0  0  0  0  0  0  0  0  0  0  0
   61.5162   33.9867   50.0463 H   0  0  0  0  0  0  0  0  0  0  0  0
   59.3261   34.5806   49.0381 H   0  0  0  0  0  0  0  0  0  0  0  0
   58.2021   35.4121   47.0167 H   0  0  0  0  0  0  0  0  0  0  0  0
   58.7777   34.9306   45.3926 H   0  0  0  0  0  0  0  0  0  0  0  0
   57.6631   33.0564   47.5297 H   0  0  0  0  0  0  0  0  0  0  0  0
   56.7894   33.6696   46.0476 H   0  0  0  0  0  0  0  0  0  0  0  0
   59.1000   33.5690   43.7750 H   0  0  0  0  0  0  0  0  0  0  0  0
   58.5787   33.2055   41.4252 H   0  0  0  0  0  0  0  0  0  0  0  0
   55.5400   29.3500   41.9640 H   0  0  0  0  0  0  0  0  0  0  0  0
   55.0980   28.5011   44.4361 H   0  0  0  0  0  0  0  0  0  0  0  0
   60.9152   33.8028   45.1158 H   0  0  0  0  0  0  0  0  0  0  0  0
   63.1150   33.2004   46.1324 H   0  0  0  0  0  0  0  0  0  0  0  0
  1  2  1  0
  2  3  2  0
  3  4  1  0
  4  5  2  0
  5  6  1  0
  6  7  1  0
  7  8  1  0
  8  9  2  0
  9 10  1  0
 10 11  1  0
 11 12  2  0
 12 13  1  0
 13 14  1  0
 14 15  1  0
 15 16  2  0
 16 17  1  0
  5 18  1  0
 18 19  2  0
 19  2  1  0
 17  9  1  0
 17 13  2  0
  3 20  1  0
  4 21  1  0
  6 22  1  0
  6 23  1  0
  7 24  1  0
  7 25  1  0
 10 26  1  0
 11 27  1  0
 14 28  1  0
 15 29  1  0
 18 30  1  0
 19 31  1  0
M  END
>  <smiles>  (67) 
Clc1ccc(CCN=c2[nH]cnc3[nH]cnc23)cc1

>  <score_type>  (67) 
oracle

>  <origin>  (67) 
adg

>  <m_score__min__energy>  (67) 
-7.1399999999999997

>  <m_primary>  (67) 
energy

$$$$
68:0
     RDKit          3D

 38 39  0  0  0  0  0  0  0  0999 V2000
   57.0138   28.1134   47.0484 H   0  0  0  0  0  0  0  0  0  0  0  0
   57.4590   27.6610   46.1500 C   0  0  0  0  0  0  0  0  0  0  0  0
   58.2480   28.4240   45.3800 C   0  0  0  0  0  0  0  0  0  0  0  0
   58.8189   27.9446   44.5712 H   0  0  0  0  0  0  0  0  0  0  0  0
   58.3820   29.8850   45.5740 C   0  0  0  0  0  0  0  0  0  0  0  0
   59.5620   30.3700   46.1550 C   0  0  0  0  0  0  0  0  0  0  0  0
   60.3535   29.6631   46.4447 H   0  0  0  0  0  0  0  0  0  0  0  0
   59.7490   31.7460   46.3730 C   0  0  0  0  0  0  0  0  0  0  0  0
   60.9150   32.2550   46.9670 O   0  0  0  0  0  0  0  0  0  0  0  0
   61.9730   31.4550   47.4870 C   0  0  0  0  0  0  0  0  0  0  0  0
   61.9434   31.4774   48.5864 H   0  0  0  0  0  0  0  0  0  0  0  0
   61.8546   30.4186   47.1381 H   0  0  0  0  0  0  0  0  0  0  0  0
   62.9380   31.8514   47.1381 H   0  0  0  0  0  0  0  0  0  0  0  0
   58.7490   32.6490   45.9920 C   0  0  0  0  0  0  0  0  0  0  0  0
   58.9630   34.0170   46.2310 O   0  0  0  0  0  0  0  0  0  0  0  0
   59.2660   34.9760   45.2230 C   0  0  0  0  0  0  0  0  0  0  0  0
   59.5652   35.9230   45.6959 H   0  0  0  0  0  0  0  0  0  0  0  0
   60.0898   34.6023   44.5972 H   0  0  0  0  0  0  0  0  0  0  0  0
   58.3770   35.1435   44.5972 H   0  0  0  0  0  0  0  0  0  0  0  0
   57.5740   32.1720   45.3830 C   0  0  0  0  0  0  0  0  0  0  0  0
   56.7914   32.8836   45.0811 H   0  0  0  0  0  0  0  0  0  0  0  0
   57.3870   30.7950   45.1550 C   0  0  0  0  0  0  0  0  0  0  0  0
   56.2460   30.3090   44.4920 O   0  0  0  0  0  0  0  0  0  0  0  0
   56.2280   29.8200   43.1550 C   0  0  0  0  0  0  0  0  0  0  0  0
   56.1875   28.7208   43.1671 H   0  0  0  0  0  0  0  0  0  0  0  0
   55.3437   30.2137   42.6324 H   0  0  0  0  0  0  0  0  0  0  0  0
   57.1388   30.1477   42.6324 H   0  0  0  0  0  0  0  0  0  0  0  0
   57.1540   26.2380   45.8550 C   0  0  0  0  0  0  0  0  0  0  0  0
   58.1750   25.2860   45.6530 C   0  0  0  0  0  0  0  0  0  0  0  0
   59.2289   25.5974   45.7013 H   0  0  0  0  0  0  0  0  0  0  0  0
   57.8580   23.9500   45.3920 C   0  0  0  0  0  0  0  0  0  0  0  0
   58.6618   23.2177   45.2256 H   0  0  0  0  0  0  0  0  0  0  0  0
   56.5240   23.5430   45.3420 C   0  0  0  0  0  0  0  0  0  0  0  0
   56.2771   22.4913   45.1348 H   0  0  0  0  0  0  0  0  0  0  0  0
   55.5030   24.4710   45.5550 C   0  0  0  0  0  0  0  0  0  0  0  0
   54.4523   24.1476   45.5183 H   0  0  0  0  0  0  0  0  0  0  0  0
   55.8110   25.8110   45.8150 C   0  0  0  0  0  0  0  0  0  0  0  0
   54.7730   26.7140   46.0200 O   0  0  0  0  0  0  0  0  0  0  0  0
  1  2  1  0
  2  3  2  0
  3  4  1  0
  3  5  1  0
  5  6  2  0
  6  7  1  0
  6  8  1  0
  8  9  1  0
  9 10  1  0
 10 11  1  0
 10 12  1  0
 10 13  1  0
  8 14  2  0
 14 15  1  0
 15 16  1  0
 16 17  1  0
 16 18  1  0
 16 19  1  0
 14 20  1  0
 20 21  1  0
 20 22  2  0
 22 23  1  0
 23 24  1  0
 24 25  1  0
 24 26  1  0
 24 27  1  0
  2 28  1  0
 28 29  2  0
 29 30  1  0
 29 31  1  0
 31 32  1  0
 31 33  2  0
 33 34  1  0
 33 35  1  0
 35 36  1  0
 35 37  2  0
 37 38  1  0
 22  5  1  0
 37 28  1  0
M  CHG  1  38  -1
M  END
>  <UniqueID>  (68) 
61

>  <SMILES>  (68) 
COc1cc(OC)c(OC)cc1/C=C/c1ccccc1[O-]

>  <Energy>  (68) 
44.99583512649848

>  <Genealogy>  (68) 
COc1cc(OC)c(OC)cc1C=Cc1ccccc1[O-] (protonated)
COc1cc(OC)c(OC)cc1/C=C/c1ccccc1[O-] (cis-trans isomerization)
COc1cc(OC)c(OC)cc1/C=C/c1ccccc1[O-] (3D coordinates assigned)
COc1cc(OC)c(OC)cc1/C=C/c1ccccc1[O-] (optimized conformer: 44.99583512649848 kcal/mol)

>  <smiles>  (68) 
COc1cc(OC)c(OC)cc1C=Cc1ccccc1O

>  <score_type>  (68) 
oracle

>  <origin>  (68) 
adg

>  <m_score__min__energy>  (68) 
-10.27

>  <m_primary>  (68) 
energy

$$$$
69:0
     RDKit          3D

 17 18  0  0  0  0  0  0  0  0999 V2000
   57.0230   27.3440   45.6110 S   0  0  0  0  0  0  0  0  0  0  0  0
   56.9220   28.9560   45.3750 C   0  0  0  0  0  0  0  0  0  0  0  0
   55.8410   29.5750   44.8680 N   0  0  0  0  0  0  0  0  0  0  0  0
   56.1440   30.8640   44.8330 N   0  0  0  0  0  0  0  0  0  0  0  0
   57.3960   30.9770   45.3210 C   0  0  0  0  0  0  0  0  0  0  0  0
   58.1270   32.2520   45.4590 C   0  0  0  0  0  0  0  0  0  0  0  0
   57.7310   33.3880   44.7320 C   0  0  0  0  0  0  0  0  0  0  0  0
   58.4280   34.5920   44.8700 C   0  0  0  0  0  0  0  0  0  0  0  0
   59.5260   34.6730   45.7310 C   0  0  0  0  0  0  0  0  0  0  0  0
   59.9270   33.5470   46.4570 C   0  0  0  0  0  0  0  0  0  0  0  0
   59.2320   32.3410   46.3230 C   0  0  0  0  0  0  0  0  0  0  0  0
   57.8810   29.8040   45.6570 O   0  0  0  0  0  0  0  0  0  0  0  0
   56.8688   33.3294   44.0514 H   0  0  0  0  0  0  0  0  0  0  0  0
   58.1115   35.4777   44.2996 H   0  0  0  0  0  0  0  0  0  0  0  0
   60.0739   35.6209   45.8374 H   0  0  0  0  0  0  0  0  0  0  0  0
   60.7910   33.6101   47.1349 H   0  0  0  0  0  0  0  0  0  0  0  0
   59.5515   31.4582   46.8962 H   0  0  0  0  0  0  0  0  0  0  0  0
  1  2  2  0
  2  3  1  0
  3  4  1  0
  4  5  2  0
  5  6  1  0
  6  7  2  0
  7  8  1  0
  8  9  2  0
  9 10  1  0
 10 11  2  0
  5 12  1  0
 12  2  1  0
 11  6  1  0
  7 13  1  0
  8 14  1  0
  9 15  1  0
 10 16  1  0
 11 17  1  0
M  CHG  1   3  -1
M  END
>  <UniqueID>  (69) 
62

>  <SMILES>  (69) 
S=c1[n-]nc(-c2ccccc2)o1

>  <Energy>  (69) 
52.77240264456079

>  <Genealogy>  (69) 
S=c1[n-]nc(-c2ccccc2)o1 (protonated)
S=c1[n-]nc(-c2ccccc2)o1 (3D coordinates assigned)
S=c1[n-]nc(-c2ccccc2)o1 (optimized conformer: 52.77240264456079 kcal/mol)

>  <smiles>  (69) 
S=c1[nH]nc(-c2ccccc2)o1

>  <score_type>  (69) 
oracle

>  <origin>  (69) 
adg

>  <m_score__min__energy>  (69) 
-7.2199999999999998

>  <m_primary>  (69) 
energy

$$$$
70:0
     RDKit          3D

 46 50  0  0  0  0  0  0  0  0999 V2000
   58.9880   25.2540   46.7290 H   0  0  0  0  0  0  0  0  0  0  0  0
   58.0860   24.8170   46.8650 O   0  0  0  0  0  0  0  0  0  0  0  0
   56.9210   25.4380   46.4230 C   0  0  0  0  0  0  0  0  0  0  0  0
   55.7270   24.8310   46.3500 N   0  0  0  0  0  0  0  0  0  0  0  0
   54.9300   25.8080   45.8630 C   0  0  0  0  0  0  0  0  0  0  0  0
   53.7010   25.6360   45.6450 O   0  0  0  0  0  0  0  0  0  0  0  0
   55.5510   26.9840   45.6310 N   0  0  0  0  0  0  0  0  0  0  0  0
   56.8190   26.7440   46.0090 C   0  0  0  0  0  0  0  0  0  0  0  0
   57.9330   27.7070   45.9190 C   0  0  0  0  0  0  0  0  0  0  0  0
   58.9560   27.3035   45.8925 H   0  0  0  0  0  0  0  0  0  0  0  0
   57.7870   29.0440   45.8670 C   0  0  0  0  0  0  0  0  0  0  0  0
   57.3280   29.7690   44.7680 C   0  0  0  0  0  0  0  0  0  0  0  0
   56.9685   29.3265   43.8273 H   0  0  0  0  0  0  0  0  0  0  0  0
   57.3890   31.0990   45.0270 N   0  0  0  0  0  0  0  0  0  0  0  0
   57.8720   31.2290   46.2520 N   0  0  0  0  0  0  0  0  0  0  0  0
   58.1660   32.3760   46.9080 C   0  0  0  0  0  0  0  0  0  0  0  0
   57.9340   33.5270   46.3360 N   0  0  0  0  0  0  0  0  0  0  0  0
   58.8260   34.6130   45.8760 C   0  0  0  0  0  0  0  0  0  0  0  0
   58.1441   34.9214   45.0698 H   0  0  0  0  0  0  0  0  0  0  0  0
   59.6350   35.3540   46.9290 C   0  0  0  0  0  0  0  0  0  0  0  0
   59.8210   36.4328   46.8216 H   0  0  0  0  0  0  0  0  0  0  0  0
   59.5671   35.4748   48.0202 H   0  0  0  0  0  0  0  0  0  0  0  0
   60.3240   34.3610   45.9900 C   0  0  0  0  0  0  0  0  0  0  0  0
   61.0050   34.7253   45.2067 H   0  0  0  0  0  0  0  0  0  0  0  0
   60.9567   33.4713   46.1247 H   0  0  0  0  0  0  0  0  0  0  0  0
   58.7150   32.2690   48.1500 N   0  0  0  0  0  0  0  0  0  0  0  0
   58.9650   31.0480   48.7080 C   0  0  0  0  0  0  0  0  0  0  0  0
   59.4840   30.9860   49.8960 N   0  0  0  0  0  0  0  0  0  0  0  0
   60.9170   30.8610   50.1630 C   0  0  0  0  0  0  0  0  0  0  0  0
   61.2898   29.9224   49.7272 H   0  0  0  0  0  0  0  0  0  0  0  0
   61.0864   30.8560   51.2499 H   0  0  0  0  0  0  0  0  0  0  0  0
   61.6500   32.0240   49.5490 C   0  0  0  0  0  0  0  0  0  0  0  0
   61.5280   33.3110   50.0920 C   0  0  0  0  0  0  0  0  0  0  0  0
   60.8814   33.4764   50.9664 H   0  0  0  0  0  0  0  0  0  0  0  0
   62.2230   34.3850   49.5290 C   0  0  0  0  0  0  0  0  0  0  0  0
   62.1216   35.3916   49.9608 H   0  0  0  0  0  0  0  0  0  0  0  0
   63.0460   34.1820   48.4190 C   0  0  0  0  0  0  0  0  0  0  0  0
   63.5991   35.0276   47.9843 H   0  0  0  0  0  0  0  0  0  0  0  0
   63.1690   32.9050   47.8580 C   0  0  0  0  0  0  0  0  0  0  0  0
   64.0220   32.6950   46.7300 N   0  0  0  0  0  0  0  0  0  0  0  0
   64.7720   31.9640   46.7550 H   0  0  0  0  0  0  0  0  0  0  0  0
   63.9300   33.2840   45.8740 H   0  0  0  0  0  0  0  0  0  0  0  0
   62.4640   31.8300   48.4190 C   0  0  0  0  0  0  0  0  0  0  0  0
   62.5485   30.8285   47.9720 H   0  0  0  0  0  0  0  0  0  0  0  0
   58.6740   29.9080   48.0120 N   0  0  0  0  0  0  0  0  0  0  0  0
   58.1150   30.0290   46.7870 C   0  0  0  0  0  0  0  0  0  0  0  0
  1  2  1  0
  2  3  1  0
  3  4  1  0
  4  5  1  0
  5  6  2  0
  5  7  1  0
  7  8  1  0
  8  9  1  0
  9 10  1  0
  9 11  2  3
 11 12  1  0
 12 13  1  0
 12 14  2  0
 14 15  1  0
 15 16  1  0
 16 17  2  3
 17 18  1  0
 18 19  1  0
 18 20  1  0
 20 21  1  0
 20 22  1  0
 20 23  1  0
 23 24  1  0
 23 25  1  0
 16 26  1  0
 26 27  1  0
 27 28  2  0
 28 29  1  0
 29 30  1  0
 29 31  1  0
 29 32  1  0
 32 33  2  0
 33 34  1  0
 33 35  1  0
 35 36  1  0
 35 37  2  0
 37 38  1  0
 37 39  1  0
 39 40  1  0
 40 41  1  0
 40 42  1  0
 39 43  2  0
 43 44  1  0
 27 45  1  0
 45 46  2  0
  8  3  2  0
 46 11  1  0
 46 15  1  0
 23 18  1  0
 43 32  1  0
M  CHG  3   4  -1   7  -1  26  -1
M  END
>  <UniqueID>  (70) 
63

>  <SMILES>  (70) 
Nc1cccc(C/N=c2\nc3c(=Cc4[n-]c(=O)[n-]c4O)cnn3c(=NC3CC3)[n-]2)c1

>  <Energy>  (70) 
395.75130054853827

>  <Genealogy>  (70) 
Nc1cccc(CN=c2nc3c(=Cc4[n-]c(=O)[n-]c4O)cnn3c(=NC3CC3)[n-]2)c1 (protonated)
Nc1cccc(C/N=c2\nc3c(=Cc4[n-]c(=O)[n-]c4O)cnn3c(=NC3CC3)[n-]2)c1 (cis-trans isomerization)
Nc1cccc(C/N=c2\nc3c(=Cc4[n-]c(=O)[n-]c4O)cnn3c(=NC3CC3)[n-]2)c1 (3D coordinates assigned)
Nc1cccc(C/N=c2\nc3c(=Cc4[n-]c(=O)[n-]c4O)cnn3c(=NC3CC3)[n-]2)c1 (nonaromatic ring conformer: 395.75130054853827 kcal/mol)

>  <smiles>  (70) 
Nc1cccc(CN=c2nc3c(=Cc4[nH]c(=O)[nH]c4O)cnn3c(=NC3CC3)[nH]2)c1

>  <score_type>  (70) 
oracle

>  <origin>  (70) 
adg

>  <m_score__min__energy>  (70) 
-14.56

>  <m_primary>  (70) 
energy

$$$$
71:0
     RDKit          3D

 39 41  0  0  0  0  0  0  0  0999 V2000
   64.7941   32.8773   47.8305 H   0  0  0  0  0  0  0  0  0  0  0  0
   63.7390   32.8250   47.5240 C   0  0  0  0  0  0  0  0  0  0  0  0
   63.1770   33.8620   46.7730 C   0  0  0  0  0  0  0  0  0  0  0  0
   63.7910   34.7283   46.4859 H   0  0  0  0  0  0  0  0  0  0  0  0
   61.8350   33.7980   46.3870 C   0  0  0  0  0  0  0  0  0  0  0  0
   61.3991   34.6112   45.7882 H   0  0  0  0  0  0  0  0  0  0  0  0
   61.0400   32.7020   46.7590 C   0  0  0  0  0  0  0  0  0  0  0  0
   59.6640   32.6390   46.3450 N   0  0  0  0  0  0  0  0  0  0  0  0
   58.7040   33.5820   46.5110 C   0  0  0  0  0  0  0  0  0  0  0  0
   58.8900   34.9250   47.1490 C   0  0  0  0  0  0  0  0  0  0  0  0
   58.8749   34.8162   48.2435 H   0  0  0  0  0  0  0  0  0  0  0  0
   59.8555   35.3491   46.8359 H   0  0  0  0  0  0  0  0  0  0  0  0
   58.0761   35.5955   46.8359 H   0  0  0  0  0  0  0  0  0  0  0  0
   57.5180   33.1240   45.9600 C   0  0  0  0  0  0  0  0  0  0  0  0
   56.5439   33.6341   45.9284 H   0  0  0  0  0  0  0  0  0  0  0  0
   57.8440   31.8740   45.4580 C   0  0  0  0  0  0  0  0  0  0  0  0
   57.0680   31.0610   44.8010 N   0  0  0  0  0  0  0  0  0  0  0  0
   56.7450   29.7120   45.1660 C   0  0  0  0  0  0  0  0  0  0  0  0
   55.5380   29.3490   45.1250 O   0  0  0  0  0  0  0  0  0  0  0  0
   57.8240   28.6880   45.4370 C   0  0  0  0  0  0  0  0  0  0  0  0
   57.2970   27.7263   45.3512 H   0  0  0  0  0  0  0  0  0  0  0  0
   58.9880   28.7690   44.4550 C   0  0  0  0  0  0  0  0  0  0  0  0
   58.7803   28.1615   43.5618 H   0  0  0  0  0  0  0  0  0  0  0  0
   59.1592   29.7992   44.1094 H   0  0  0  0  0  0  0  0  0  0  0  0
   60.1940   28.2170   45.2060 C   0  0  0  0  0  0  0  0  0  0  0  0
   60.3930   27.1816   44.8925 H   0  0  0  0  0  0  0  0  0  0  0  0
   61.0946   28.8121   44.9947 H   0  0  0  0  0  0  0  0  0  0  0  0
   59.8490   28.2580   46.6960 C   0  0  0  0  0  0  0  0  0  0  0  0
   59.8435   27.2397   47.1121 H   0  0  0  0  0  0  0  0  0  0  0  0
   60.5908   28.8444   47.2580 H   0  0  0  0  0  0  0  0  0  0  0  0
   58.4620   28.8780   46.8070 C   0  0  0  0  0  0  0  0  0  0  0  0
   57.8719   28.3653   47.5809 H   0  0  0  0  0  0  0  0  0  0  0  0
   58.5096   29.9392   47.0928 H   0  0  0  0  0  0  0  0  0  0  0  0
   59.1420   31.6140   45.6900 N   0  0  0  0  0  0  0  0  0  0  0  0
   59.6590   30.7480   45.4170 H   0  0  0  0  0  0  0  0  0  0  0  0
   61.6180   31.6570   47.5020 C   0  0  0  0  0  0  0  0  0  0  0  0
   61.0107   30.7839   47.7830 H   0  0  0  0  0  0  0  0  0  0  0  0
   62.9610   31.7230   47.8850 C   0  0  0  0  0  0  0  0  0  0  0  0
   63.4055   30.9055   48.4716 H   0  0  0  0  0  0  0  0  0  0  0  0
  1  2  1  0
  2  3  2  0
  3  4  1  0
  3  5  1  0
  5  6  1  0
  5  7  2  0
  7  8  1  0
  8  9  1  0
  9 10  1  0
 10 11  1  0
 10 12  1  0
 10 13  1  0
  9 14  2  0
 14 15  1  0
 14 16  1  0
 16 17  2  0
 17 18  1  0
 18 19  2  0
 18 20  1  0
 20 21  1  0
 20 22  1  0
 22 23  1  0
 22 24  1  0
 22 25  1  0
 25 26  1  0
 25 27  1  0
 25 28  1  0
 28 29  1  0
 28 30  1  0
 28 31  1  0
 31 32  1  0
 31 33  1  0
 16 34  1  0
 34 35  1  0
  7 36  1  0
 36 37  1  0
 36 38  2  0
 38 39  1  0
 38  2  1  0
 34  8  1  0
 31 20  1  0
M  END
>  <UniqueID>  (71) 
64

>  <SMILES>  (71) 
Cc1c/c(=N\C(=O)C2CCCC2)[nH]n1-c1ccccc1

>  <Energy>  (71) 
83.37591073132332

>  <Genealogy>  (71) 
Cc1c/c(=N\C(=O)C2CCCC2)[nH]n1-c1ccccc1 (cis-trans isomerization)
Cc1c/c(=N\C(=O)C2CCCC2)[nH]n1-c1ccccc1 (3D coordinates assigned)
Cc1c/c(=N\C(=O)C2CCCC2)[nH]n1-c1ccccc1 (nonaromatic ring conformer: 83.37591073132332 kcal/mol)

>  <smiles>  (71) 
Cc1cc(=NC(=O)C2CCCC2)[nH]n1-c1ccccc1

>  <score_type>  (71) 
oracle

>  <origin>  (71) 
adg

>  <m_score__min__energy>  (71) 
-7.7300000000000004

>  <m_primary>  (71) 
energy

$$$$
72:0
     RDKit          3D

 45 47  0  0  0  0  0  0  0  0999 V2000
   53.8350   24.9090   45.5490 O   0  0  0  0  0  0  0  0  0  0  0  0
   54.9900   25.3990   45.6270 C   0  0  0  0  0  0  0  0  0  0  0  0
   55.1370   26.7230   46.0210 O   0  0  0  0  0  0  0  0  0  0  0  0
   56.1880   24.5650   45.3850 C   0  0  0  0  0  0  0  0  0  0  0  0
   56.1210   23.6170   44.3490 C   0  0  0  0  0  0  0  0  0  0  0  0
   57.2210   22.8020   44.0330 C   0  0  0  0  0  0  0  0  0  0  0  0
   57.1430   21.8420   42.9620 N   0  0  0  0  0  0  0  0  0  0  0  0
   56.0820   21.6870   42.3220 O   0  0  0  0  0  0  0  0  0  0  0  0
   58.2370   21.0780   42.6270 O   0  0  0  0  0  0  0  0  0  0  0  0
   58.4000   22.9380   44.7760 C   0  0  0  0  0  0  0  0  0  0  0  0
   58.4780   23.8590   45.8200 C   0  0  0  0  0  0  0  0  0  0  0  0
   57.3830   24.6810   46.1490 C   0  0  0  0  0  0  0  0  0  0  0  0
   57.4800   25.5390   47.3120 N   0  0  0  0  0  0  0  0  0  0  0  0
   58.2990   26.6910   47.0200 C   0  0  0  0  0  0  0  0  0  0  0  0
   57.7120   27.9330   46.7180 C   0  0  0  0  0  0  0  0  0  0  0  0
   58.5100   29.0450   46.4380 C   0  0  0  0  0  0  0  0  0  0  0  0
   59.9080   28.9370   46.4560 C   0  0  0  0  0  0  0  0  0  0  0  0
   60.7660   30.1260   46.1030 C   0  0  0  0  0  0  0  0  0  0  0  0
   60.5230   31.3050   47.0550 C   0  0  0  0  0  0  0  0  0  0  0  0
   59.7950   32.4350   46.3720 C   0  0  0  0  0  0  0  0  0  0  0  0
   58.5810   32.1950   45.7080 C   0  0  0  0  0  0  0  0  0  0  0  0
   57.8820   33.2510   45.1150 C   0  0  0  0  0  0  0  0  0  0  0  0
   58.3860   34.5520   45.1860 C   0  0  0  0  0  0  0  0  0  0  0  0
   59.5880   34.8000   45.8530 C   0  0  0  0  0  0  0  0  0  0  0  0
   60.2910   33.7480   46.4470 C   0  0  0  0  0  0  0  0  0  0  0  0
   60.4990   27.6960   46.7390 C   0  0  0  0  0  0  0  0  0  0  0  0
   59.7020   26.5830   47.0170 C   0  0  0  0  0  0  0  0  0  0  0  0
   55.1890   23.5112   43.7744 H   0  0  0  0  0  0  0  0  0  0  0  0
   59.2722   22.3129   44.5340 H   0  0  0  0  0  0  0  0  0  0  0  0
   59.4109   23.9449   46.3965 H   0  0  0  0  0  0  0  0  0  0  0  0
   57.8400   25.0070   48.1350 H   0  0  0  0  0  0  0  0  0  0  0  0
   56.5310   25.8760   47.5980 H   0  0  0  0  0  0  0  0  0  0  0  0
   56.6164   28.0295   46.7022 H   0  0  0  0  0  0  0  0  0  0  0  0
   58.0390   30.0107   46.2021 H   0  0  0  0  0  0  0  0  0  0  0  0
   61.8243   29.8320   46.1628 H   0  0  0  0  0  0  0  0  0  0  0  0
   60.5028   30.4481   45.0847 H   0  0  0  0  0  0  0  0  0  0  0  0
   59.9205   30.9566   47.9068 H   0  0  0  0  0  0  0  0  0  0  0  0
   61.5009   31.6812   47.3901 H   0  0  0  0  0  0  0  0  0  0  0  0
   58.1786   31.1727   45.6542 H   0  0  0  0  0  0  0  0  0  0  0  0
   56.9340   33.0570   44.5919 H   0  0  0  0  0  0  0  0  0  0  0  0
   57.8363   35.3811   44.7166 H   0  0  0  0  0  0  0  0  0  0  0  0
   59.9821   35.8253   45.9109 H   0  0  0  0  0  0  0  0  0  0  0  0
   61.2352   33.9483   46.9747 H   0  0  0  0  0  0  0  0  0  0  0  0
   61.5947   27.5993   46.7419 H   0  0  0  0  0  0  0  0  0  0  0  0
   60.1750   25.6142   47.2354 H   0  0  0  0  0  0  0  0  0  0  0  0
  1  2  2  0
  2  3  1  0
  2  4  1  0
  4  5  2  0
  5  6  1  0
  6  7  1  0
  7  8  2  0
  7  9  1  0
  6 10  2  0
 10 11  1  0
 11 12  2  0
 12 13  1  0
 13 14  1  0
 14 15  2  0
 15 16  1  0
 16 17  2  0
 17 18  1  0
 18 19  1  0
 19 20  1  0
 20 21  2  0
 21 22  1  0
 22 23  2  0
 23 24  1  0
 24 25  2  0
 17 26  1  0
 26 27  2  0
 12  4  1  0
 27 14  1  0
 25 20  1  0
  5 28  1  0
 10 29  1  0
 11 30  1  0
 13 31  1  0
 13 32  1  0
 15 33  1  0
 16 34  1  0
 18 35  1  0
 18 36  1  0
 19 37  1  0
 19 38  1  0
 21 39  1  0
 22 40  1  0
 23 41  1  0
 24 42  1  0
 25 43  1  0
 26 44  1  0
 27 45  1  0
M  CHG  4   3  -1   7   1   9  -1  13   1
M  END
>  <UniqueID>  (72) 
65

>  <SMILES>  (72) 
O=C([O-])c1cc([N+](=O)[O-])ccc1[NH2+]c1ccc(CCc2ccccc2)cc1

>  <Energy>  (72) 
54.126815823136525

>  <Genealogy>  (72) 
O=C([O-])c1cc([N+](=O)[O-])ccc1[NH2+]c1ccc(CCc2ccccc2)cc1 (protonated)
O=C([O-])c1cc([N+](=O)[O-])ccc1[NH2+]c1ccc(CCc2ccccc2)cc1 (3D coordinates assigned)
O=C([O-])c1cc([N+](=O)[O-])ccc1[NH2+]c1ccc(CCc2ccccc2)cc1 (optimized conformer: 54.126815823136525 kcal/mol)

>  <smiles>  (72) 
O=C(O)c1cc([N+](=O)[O-])ccc1Nc1ccc(CCc2ccccc2)cc1

>  <score_type>  (72) 
oracle

>  <origin>  (72) 
adg

>  <m_score__min__energy>  (72) 
-9.6400000000000006

>  <m_primary>  (72) 
energy

$$$$
73:0
     RDKit          3D

 64 68  0  0  0  0  0  0  0  0999 V2000
   66.4380   38.7370   52.9170 C   0  0  0  0  0  0  0  0  0  0  0  0
   67.2420   37.5910   53.1860 O   0  0  0  0  0  0  0  0  0  0  0  0
   67.2230   36.4140   52.4220 C   0  0  0  0  0  0  0  0  0  0  0  0
   68.3350   35.9760   51.6810 C   0  0  0  0  0  0  0  0  0  0  0  0
   68.2660   34.7950   50.9340 C   0  0  0  0  0  0  0  0  0  0  0  0
   67.0860   34.0350   50.9100 C   0  0  0  0  0  0  0  0  0  0  0  0
   66.9940   32.7650   50.0950 C   0  0  0  0  0  0  0  0  0  0  0  0
   65.7490   32.0150   50.4000 N   0  0  0  0  0  0  0  0  0  0  0  0
   64.6450   32.3010   49.6330 C   0  0  0  0  0  0  0  0  0  0  0  0
   64.6900   33.2440   48.7910 O   0  0  0  0  0  0  0  0  0  0  0  0
   63.4540   31.5740   49.7700 C   0  0  0  0  0  0  0  0  0  0  0  0
   62.2660   31.9270   48.9530 C   0  0  0  0  0  0  0  0  0  0  0  0
   61.5620   30.9540   48.4390 N   0  0  0  0  0  0  0  0  0  0  0  0
   60.3970   31.0730   47.6050 C   0  0  0  0  0  0  0  0  0  0  0  0
   59.6380   29.9290   47.3360 C   0  0  0  0  0  0  0  0  0  0  0  0
   58.5170   30.0050   46.5050 C   0  0  0  0  0  0  0  0  0  0  0  0
   58.1410   31.2230   45.9260 C   0  0  0  0  0  0  0  0  0  0  0  0
   56.9760   31.2530   45.0910 N   0  0  0  0  0  0  0  0  0  0  0  0
   56.3600   29.9230   44.1690 S   0  0  0  0  0  0  0  0  0  0  0  0
   57.6220   28.6820   43.9770 C   0  0  0  0  0  0  0  0  0  0  0  0
   55.1500   29.3420   44.8450 O   0  0  0  0  0  0  0  0  0  0  0  0
   55.9640   30.4230   42.8090 O   0  0  0  0  0  0  0  0  0  0  0  0
   58.9170   32.3690   46.1740 C   0  0  0  0  0  0  0  0  0  0  0  0
   60.0400   32.2910   47.0070 C   0  0  0  0  0  0  0  0  0  0  0  0
   61.0400   33.6900   47.2970 S   0  0  0  0  0  0  0  0  0  0  0  0
   60.2020   34.9320   47.4050 O   0  0  0  0  0  0  0  0  0  0  0  0
   62.0510   33.8420   46.1980 O   0  0  0  0  0  0  0  0  0  0  0  0
   61.8430   33.3750   48.8470 C   0  0  0  0  0  0  0  0  0  0  0  0
   63.3870   30.5360   50.7130 C   0  0  0  0  0  0  0  0  0  0  0  0
   62.2400   29.7360   50.7960 O   0  0  0  0  0  0  0  0  0  0  0  0
   64.4850   30.2850   51.5650 C   0  0  0  0  0  0  0  0  0  0  0  0
   64.4230   29.2830   52.5760 C   0  0  0  0  0  0  0  0  0  0  0  0
   63.2560   28.5140   52.7370 O   0  0  0  0  0  0  0  0  0  0  0  0
   63.2190   27.0990   52.9120 C   0  0  0  0  0  0  0  0  0  0  0  0
   65.5300   29.0740   53.4130 C   0  0  0  0  0  0  0  0  0  0  0  0
   66.6740   29.8410   53.2740 C   0  0  0  0  0  0  0  0  0  0  0  0
   66.7510   30.8220   52.2930 C   0  0  0  0  0  0  0  0  0  0  0  0
   65.6740   31.0590   51.4010 C   0  0  0  0  0  0  0  0  0  0  0  0
   65.9770   34.4780   51.6510 C   0  0  0  0  0  0  0  0  0  0  0  0
   66.0500   35.6540   52.4010 C   0  0  0  0  0  0  0  0  0  0  0  0
   66.1188   39.1920   53.8663 H   0  0  0  0  0  0  0  0  0  0  0  0
   67.0226   39.4675   52.3386 H   0  0  0  0  0  0  0  0  0  0  0  0
   65.5522   38.4358   52.3386 H   0  0  0  0  0  0  0  0  0  0  0  0
   69.2640   36.5650   51.6887 H   0  0  0  0  0  0  0  0  0  0  0  0
   69.1431   34.4595   50.3611 H   0  0  0  0  0  0  0  0  0  0  0  0
   67.0030   33.0242   49.0260 H   0  0  0  0  0  0  0  0  0  0  0  0
   67.8536   32.1273   50.3490 H   0  0  0  0  0  0  0  0  0  0  0  0
   59.9250   28.9648   47.7808 H   0  0  0  0  0  0  0  0  0  0  0  0
   57.9249   29.1000   46.3041 H   0  0  0  0  0  0  0  0  0  0  0  0
   57.9617   28.3480   44.9685 H   0  0  0  0  0  0  0  0  0  0  0  0
   57.2123   27.8252   43.4219 H   0  0  0  0  0  0  0  0  0  0  0  0
   58.4718   29.1060   43.4219 H   0  0  0  0  0  0  0  0  0  0  0  0
   58.6414   33.3288   45.7127 H   0  0  0  0  0  0  0  0  0  0  0  0
   62.7327   34.0167   48.9283 H   0  0  0  0  0  0  0  0  0  0  0  0
   61.1348   33.5939   49.6598 H   0  0  0  0  0  0  0  0  0  0  0  0
   62.1010   29.0210   51.5000 H   0  0  0  0  0  0  0  0  0  0  0  0
   63.2128   26.8624   53.9862 H   0  0  0  0  0  0  0  0  0  0  0  0
   62.3100   26.6951   52.4424 H   0  0  0  0  0  0  0  0  0  0  0  0
   64.1057   26.6481   52.4424 H   0  0  0  0  0  0  0  0  0  0  0  0
   65.4882   28.2933   54.1868 H   0  0  0  0  0  0  0  0  0  0  0  0
   67.5288   29.6725   53.9455 H   0  0  0  0  0  0  0  0  0  0  0  0
   67.6656   31.4270   52.2064 H   0  0  0  0  0  0  0  0  0  0  0  0
   65.0447   33.8943   51.6402 H   0  0  0  0  0  0  0  0  0  0  0  0
   65.1759   35.9853   52.9808 H   0  0  0  0  0  0  0  0  0  0  0  0
  1  2  1  0
  2  3  1  0
  3  4  2  0
  4  5  1  0
  5  6  2  0
  6  7  1  0
  7  8  1  0
  8  9  1  0
  9 10  2  0
  9 11  1  0
 11 12  1  0
 12 13  2  0
 13 14  1  0
 14 15  2  0
 15 16  1  0
 16 17  2  0
 17 18  1  0
 18 19  1  0
 19 20  1  0
 19 21  2  0
 19 22  2  0
 17 23  1  0
 23 24  2  0
 24 25  1  0
 25 26  2  0
 25 27  2  0
 25 28  1  0
 11 29  2  0
 29 30  1  0
 29 31  1  0
 31 32  2  0
 32 33  1  0
 33 34  1  0
 32 35  1  0
 35 36  2  0
 36 37  1  0
 37 38  2  0
  6 39  1  0
 39 40  2  0
 40  3  1  0
 38  8  1  0
 28 12  1  0
 38 31  1  0
 24 14  1  0
  1 41  1  0
  1 42  1  0
  1 43  1  0
  4 44  1  0
  5 45  1  0
  7 46  1  0
  7 47  1  0
 15 48  1  0
 16 49  1  0
 20 50  1  0
 20 51  1  0
 20 52  1  0
 23 53  1  0
 28 54  1  0
 28 55  1  0
 30 56  1  0
 34 57  1  0
 34 58  1  0
 34 59  1  0
 35 60  1  0
 36 61  1  0
 37 62  1  0
 39 63  1  0
 40 64  1  0
M  CHG  1  18  -1
M  END
>  <UniqueID>  (73) 
66

>  <SMILES>  (73) 
COc1ccc(Cn2c(=O)c(C3=Nc4ccc([N-]S(C)(=O)=O)cc4S(=O)(=O)C3)c(O)c3c(OC)cccc32)cc1

>  <Energy>  (73) 
95.03941244371053

>  <Genealogy>  (73) 
COc1ccc(Cn2c(=O)c(C3=Nc4ccc([N-]S(C)(=O)=O)cc4S(=O)(=O)C3)c(O)c3c(OC)cccc32)cc1 (protonated)
COc1ccc(Cn2c(=O)c(C3=Nc4ccc([N-]S(C)(=O)=O)cc4S(=O)(=O)C3)c(O)c3c(OC)cccc32)cc1 (3D coordinates assigned)
COc1ccc(Cn2c(=O)c(C3=Nc4ccc([N-]S(C)(=O)=O)cc4S(=O)(=O)C3)c(O)c3c(OC)cccc32)cc1 (nonaromatic ring conformer: 95.03941244371053 kcal/mol)

>  <smiles>  (73) 
COc1ccc(Cn2c(=O)c(C3=Nc4ccc(NS(C)(=O)=O)cc4S(=O)(=O)C3)c(O)c3c(OC)cccc32)cc1

>  <score_type>  (73) 
oracle

>  <origin>  (73) 
adg

>  <m_score__min__energy>  (73) 
-10.539999999999999

>  <m_primary>  (73) 
energy

$$$$
74:0
     RDKit          3D

 61 61  0  0  0  0  0  0  0  0999 V2000
   65.4630   32.7770   49.9890 C   0  0  0  0  0  0  0  0  0  0  0  0
   64.0500   32.6940   49.8440 O   0  0  0  0  0  0  0  0  0  0  0  0
   63.2550   33.8100   49.5660 C   0  0  0  0  0  0  0  0  0  0  0  0
   63.0080   34.6620   50.4640 O   0  0  0  0  0  0  0  0  0  0  0  0
   62.6720   33.9820   48.1980 C   0  0  0  0  0  0  0  0  0  0  0  0
   63.5000   33.2720   47.1110 C   0  0  0  0  0  0  0  0  0  0  0  0
   63.3390   31.7390   47.1040 C   0  0  0  0  0  0  0  0  0  0  0  0
   61.8880   31.2310   47.2010 C   0  0  0  0  0  0  0  0  0  0  0  0
   61.4930   30.6040   48.5570 C   0  0  0  0  0  0  0  0  0  0  0  0
   60.0260   30.8090   48.9860 C   0  0  0  0  0  0  0  0  0  0  0  0
   59.0580   29.7060   48.5080 C   0  0  0  0  0  0  0  0  0  0  0  0
   59.7490   28.5350   47.7880 C   0  0  0  0  0  0  0  0  0  0  0  0
   58.8640   27.7860   46.7720 C   0  0  0  0  0  0  0  0  0  0  0  0
   57.9540   28.6790   45.9090 C   0  0  0  0  0  0  0  0  0  0  0  0
   56.6170   28.0700   45.6020 C   0  0  0  0  0  0  0  0  0  0  0  0
   56.4570   26.8190   45.6380 O   0  0  0  0  0  0  0  0  0  0  0  0
   55.5410   28.9240   45.1990 N   0  0  0  0  0  0  0  0  0  0  0  0
   55.5610   29.7200   43.9780 C   0  0  0  0  0  0  0  0  0  0  0  0
   56.6610   30.7320   44.0450 C   0  0  0  0  0  0  0  0  0  0  0  0
   57.5580   30.7410   43.1600 O   0  0  0  0  0  0  0  0  0  0  0  0
   56.7400   31.6110   45.1730 N   0  0  0  0  0  0  0  0  0  0  0  0
   57.7840   32.5490   45.4670 C   0  0  0  0  0  0  0  0  0  0  0  0
   58.0670   32.8170   46.8120 C   0  0  0  0  0  0  0  0  0  0  0  0
   59.0410   33.7610   47.1680 C   0  0  0  0  0  0  0  0  0  0  0  0
   59.3090   34.0710   48.6110 C   0  0  0  0  0  0  0  0  0  0  0  0
   59.7120   34.4690   46.1630 C   0  0  0  0  0  0  0  0  0  0  0  0
   59.4170   34.2320   44.8180 C   0  0  0  0  0  0  0  0  0  0  0  0
   58.4410   33.2910   44.4610 C   0  0  0  0  0  0  0  0  0  0  0  0
   58.0970   33.1340   43.1200 O   0  0  0  0  0  0  0  0  0  0  0  0
   65.7216   32.7922   51.0581 H   0  0  0  0  0  0  0  0  0  0  0  0
   65.9325   31.9049   49.5105 H   0  0  0  0  0  0  0  0  0  0  0  0
   65.8272   33.6981   49.5105 H   0  0  0  0  0  0  0  0  0  0  0  0
   61.6536   33.5663   48.1936 H   0  0  0  0  0  0  0  0  0  0  0  0
   62.6705   35.0577   47.9680 H   0  0  0  0  0  0  0  0  0  0  0  0
   63.1863   33.6576   46.1297 H   0  0  0  0  0  0  0  0  0  0  0  0
   64.5579   33.4807   47.3286 H   0  0  0  0  0  0  0  0  0  0  0  0
   63.7718   31.3557   46.1682 H   0  0  0  0  0  0  0  0  0  0  0  0
   63.8508   31.3744   48.0068 H   0  0  0  0  0  0  0  0  0  0  0  0
   61.2174   32.0824   47.0129 H   0  0  0  0  0  0  0  0  0  0  0  0
   61.7995   30.4249   46.4578 H   0  0  0  0  0  0  0  0  0  0  0  0
   61.6793   29.5216   48.4960 H   0  0  0  0  0  0  0  0  0  0  0  0
   62.1019   31.1192   49.3145 H   0  0  0  0  0  0  0  0  0  0  0  0
   59.9913   30.8437   50.0849 H   0  0  0  0  0  0  0  0  0  0  0  0
   59.6906   31.7446   48.5147 H   0  0  0  0  0  0  0  0  0  0  0  0
   58.5273   29.3077   49.3853 H   0  0  0  0  0  0  0  0  0  0  0  0
   58.3800   30.1724   47.7781 H   0  0  0  0  0  0  0  0  0  0  0  0
   60.6240   28.9316   47.2522 H   0  0  0  0  0  0  0  0  0  0  0  0
   60.0108   27.8043   48.5674 H   0  0  0  0  0  0  0  0  0  0  0  0
   59.5243   27.2210   46.0976 H   0  0  0  0  0  0  0  0  0  0  0  0
   58.1914   27.1492   47.3654 H   0  0  0  0  0  0  0  0  0  0  0  0
   57.7885   29.6252   46.4450 H   0  0  0  0  0  0  0  0  0  0  0  0
   58.4676   28.8223   44.9469 H   0  0  0  0  0  0  0  0  0  0  0  0
   55.7265   29.0587   43.1147 H   0  0  0  0  0  0  0  0  0  0  0  0
   54.5978   30.2402   43.8702 H   0  0  0  0  0  0  0  0  0  0  0  0
   57.5181   32.2800   47.5996 H   0  0  0  0  0  0  0  0  0  0  0  0
   58.7220   33.3921   49.2470 H   0  0  0  0  0  0  0  0  0  0  0  0
   60.3802   33.9367   48.8221 H   0  0  0  0  0  0  0  0  0  0  0  0
   59.0213   35.1115   48.8221 H   0  0  0  0  0  0  0  0  0  0  0  0
   60.4742   35.2145   46.4336 H   0  0  0  0  0  0  0  0  0  0  0  0
   59.9537   34.7871   44.0345 H   0  0  0  0  0  0  0  0  0  0  0  0
   57.4920   32.3830   42.8080 H   0  0  0  0  0  0  0  0  0  0  0  0
  1  2  1  0
  2  3  1  0
  3  4  2  0
  3  5  1  0
  5  6  1  0
  6  7  1  0
  7  8  1  0
  8  9  1  0
  9 10  1  0
 10 11  1  0
 11 12  1  0
 12 13  1  0
 13 14  1  0
 14 15  1  0
 15 16  2  0
 15 17  1  0
 17 18  1  0
 18 19  1  0
 19 20  2  0
 19 21  1  0
 21 22  1  0
 22 23  2  0
 23 24  1  0
 24 25  1  0
 24 26  2  0
 26 27  1  0
 27 28  2  0
 28 29  1  0
 28 22  1  0
  1 30  1  0
  1 31  1  0
  1 32  1  0
  5 33  1  0
  5 34  1  0
  6 35  1  0
  6 36  1  0
  7 37  1  0
  7 38  1  0
  8 39  1  0
  8 40  1  0
  9 41  1  0
  9 42  1  0
 10 43  1  0
 10 44  1  0
 11 45  1  0
 11 46  1  0
 12 47  1  0
 12 48  1  0
 13 49  1  0
 13 50  1  0
 14 51  1  0
 14 52  1  0
 18 53  1  0
 18 54  1  0
 23 55  1  0
 25 56  1  0
 25 57  1  0
 25 58  1  0
 26 59  1  0
 27 60  1  0
 29 61  1  0
M  CHG  2  17  -1  21  -1
M  END
>  <UniqueID>  (74) 
67

>  <SMILES>  (74) 
COC(=O)CCCCCCCCCCC(=O)[N-]CC(=O)[N-]c1cc(C)ccc1O

>  <Energy>  (74) 
43.17306001198805

>  <Genealogy>  (74) 
COC(=O)CCCCCCCCCCC(=O)[N-]CC(=O)[N-]c1cc(C)ccc1O (protonated)
COC(=O)CCCCCCCCCCC(=O)[N-]CC(=O)[N-]c1cc(C)ccc1O (3D coordinates assigned)
COC(=O)CCCCCCCCCCC(=O)[N-]CC(=O)[N-]c1cc(C)ccc1O (optimized conformer: 43.17306001198805 kcal/mol)

>  <smiles>  (74) 
COC(=O)CCCCCCCCCCC(=O)NCC(=O)Nc1cc(C)ccc1O

>  <score_type>  (74) 
oracle

>  <origin>  (74) 
adg

>  <m_score__min__energy>  (74) 
-12.630000000000001

>  <m_primary>  (74) 
energy

$$$$
75:0
     RDKit          3D

 42 43  0  0  0  0  0  0  0  0999 V2000
   63.3310   33.6990   46.6940 C   0  0  0  0  0  0  0  0  0  0  0  0
   63.0370   32.6430   47.7530 C   0  0  0  0  0  0  0  0  0  0  0  0
   62.7380   31.3870   47.1450 O   0  0  0  0  0  0  0  0  0  0  0  0
   61.4690   30.7980   47.1750 C   0  0  0  0  0  0  0  0  0  0  0  0
   60.6840   31.0220   48.1380 O   0  0  0  0  0  0  0  0  0  0  0  0
   61.0880   29.9110   46.1140 N   0  0  0  0  0  0  0  0  0  0  0  0
   59.7640   29.3790   45.9380 C   0  0  0  0  0  0  0  0  0  0  0  0
   59.3880   28.2290   46.6410 C   0  0  0  0  0  0  0  0  0  0  0  0
   58.1120   27.6870   46.4820 C   0  0  0  0  0  0  0  0  0  0  0  0
   57.1880   28.2840   45.6170 C   0  0  0  0  0  0  0  0  0  0  0  0
   55.8870   27.6970   45.5050 N   0  0  0  0  0  0  0  0  0  0  0  0
   55.5410   26.3960   45.9960 C   0  0  0  0  0  0  0  0  0  0  0  0
   56.3380   25.7620   46.7350 O   0  0  0  0  0  0  0  0  0  0  0  0
   54.3010   25.7900   45.6220 N   0  0  0  0  0  0  0  0  0  0  0  0
   54.0500   24.3550   45.7010 C   0  0  0  0  0  0  0  0  0  0  0  0
   55.0600   23.5990   44.8800 C   0  0  0  0  0  0  0  0  0  0  0  0
   56.2560   23.1550   45.4600 C   0  0  0  0  0  0  0  0  0  0  0  0
   57.1960   22.4730   44.6880 C   0  0  0  0  0  0  0  0  0  0  0  0
   56.9330   22.2400   43.3370 C   0  0  0  0  0  0  0  0  0  0  0  0
   55.7700   22.6780   42.7840 N   0  0  0  0  0  0  0  0  0  0  0  0
   54.8380   23.3440   43.5170 C   0  0  0  0  0  0  0  0  0  0  0  0
   57.5800   29.3990   44.8390 C   0  0  0  0  0  0  0  0  0  0  0  0
   56.6680   30.0100   43.8090 C   0  0  0  0  0  0  0  0  0  0  0  0
   58.8610   29.9490   45.0220 C   0  0  0  0  0  0  0  0  0  0  0  0
   63.5950   34.6472   47.1851 H   0  0  0  0  0  0  0  0  0  0  0  0
   64.1703   33.3651   46.0663 H   0  0  0  0  0  0  0  0  0  0  0  0
   62.4399   33.8468   46.0663 H   0  0  0  0  0  0  0  0  0  0  0  0
   63.9171   32.5289   48.4030 H   0  0  0  0  0  0  0  0  0  0  0  0
   62.1662   32.9664   48.3421 H   0  0  0  0  0  0  0  0  0  0  0  0
   61.8480   29.5620   45.4880 H   0  0  0  0  0  0  0  0  0  0  0  0
   60.1038   27.7485   47.3242 H   0  0  0  0  0  0  0  0  0  0  0  0
   57.8300   26.7828   47.0413 H   0  0  0  0  0  0  0  0  0  0  0  0
   54.1210   24.0320   46.7501 H   0  0  0  0  0  0  0  0  0  0  0  0
   53.0437   24.1469   45.3084 H   0  0  0  0  0  0  0  0  0  0  0  0
   56.4535   23.3447   46.5254 H   0  0  0  0  0  0  0  0  0  0  0  0
   58.1357   22.1220   45.1393 H   0  0  0  0  0  0  0  0  0  0  0  0
   57.6668   21.7018   42.7191 H   0  0  0  0  0  0  0  0  0  0  0  0
   53.9068   23.6842   43.0405 H   0  0  0  0  0  0  0  0  0  0  0  0
   55.8563   30.5538   44.3144 H   0  0  0  0  0  0  0  0  0  0  0  0
   57.2405   30.7075   43.1800 H   0  0  0  0  0  0  0  0  0  0  0  0
   56.2407   29.2152   43.1800 H   0  0  0  0  0  0  0  0  0  0  0  0
   59.1605   30.8348   44.4426 H   0  0  0  0  0  0  0  0  0  0  0  0
  1  2  1  0
  2  3  1  0
  3  4  1  0
  4  5  2  0
  4  6  1  0
  6  7  1  0
  7  8  2  0
  8  9  1  0
  9 10  2  0
 10 11  1  0
 11 12  1  0
 12 13  2  0
 12 14  1  0
 14 15  1  0
 15 16  1  0
 16 17  2  0
 17 18  1  0
 18 19  2  0
 19 20  1  0
 20 21  2  0
 10 22  1  0
 22 23  1  0
 22 24  2  0
 24  7  1  0
 21 16  1  0
  1 25  1  0
  1 26  1  0
  1 27  1  0
  2 28  1  0
  2 29  1  0
  6 30  1  0
  8 31  1  0
  9 32  1  0
 15 33  1  0
 15 34  1  0
 17 35  1  0
 18 36  1  0
 19 37  1  0
 21 38  1  0
 23 39  1  0
 23 40  1  0
 23 41  1  0
 24 42  1  0
M  CHG  2  11  -1  14  -1
M  END
>  <UniqueID>  (75) 
68

>  <SMILES>  (75) 
CCOC(=O)Nc1ccc([N-]C(=O)[N-]Cc2cccnc2)c(C)c1

>  <Energy>  (75) 
45.57966832332286

>  <Genealogy>  (75) 
CCOC(=O)Nc1ccc([N-]C(=O)[N-]Cc2cccnc2)c(C)c1 (protonated)
CCOC(=O)Nc1ccc([N-]C(=O)[N-]Cc2cccnc2)c(C)c1 (3D coordinates assigned)
CCOC(=O)Nc1ccc([N-]C(=O)[N-]Cc2cccnc2)c(C)c1 (optimized conformer: 45.57966832332286 kcal/mol)

>  <smiles>  (75) 
CCOC(=O)Nc1ccc(NC(=O)NCc2cccnc2)c(C)c1

>  <score_type>  (75) 
oracle

>  <origin>  (75) 
adg

>  <m_score__min__energy>  (75) 
-10.82

>  <m_primary>  (75) 
energy

$$$$
76:0
     RDKit          3D

 35 38  0  0  0  0  0  0  0  0999 V2000
   64.1430   33.4160   48.3080 C   0  0  0  0  0  0  0  0  0  0  0  0
   62.8920   32.9620   47.6350 C   0  0  0  0  0  0  0  0  0  0  0  0
   62.0100   33.7720   46.9310 C   0  0  0  0  0  0  0  0  0  0  0  0
   60.8700   33.0930   46.4880 C   0  0  0  0  0  0  0  0  0  0  0  0
   60.8570   31.7450   46.8400 C   0  0  0  0  0  0  0  0  0  0  0  0
   59.7420   30.8050   46.6020 C   0  0  0  0  0  0  0  0  0  0  0  0
   59.9460   29.4400   46.8540 C   0  0  0  0  0  0  0  0  0  0  0  0
   58.9420   28.4920   46.5810 C   0  0  0  0  0  0  0  0  0  0  0  0
   59.1470   27.1230   46.8220 C   0  0  0  0  0  0  0  0  0  0  0  0
   60.2460   26.7200   47.2990 O   0  0  0  0  0  0  0  0  0  0  0  0
   58.1270   26.2010   46.5300 C   0  0  0  0  0  0  0  0  0  0  0  0
   58.3020   24.8220   46.7600 C   0  0  0  0  0  0  0  0  0  0  0  0
   57.2770   23.9220   46.4640 C   0  0  0  0  0  0  0  0  0  0  0  0
   56.0710   24.3820   45.9370 C   0  0  0  0  0  0  0  0  0  0  0  0
   55.8810   25.7450   45.7030 C   0  0  0  0  0  0  0  0  0  0  0  0
   56.9030   26.6720   45.9960 C   0  0  0  0  0  0  0  0  0  0  0  0
   56.7200   28.0100   45.7670 N   0  0  0  0  0  0  0  0  0  0  0  0
   55.5200   28.4490   45.2460 O   0  0  0  0  0  0  0  0  0  0  0  0
   57.7050   28.9220   46.0460 C   0  0  0  0  0  0  0  0  0  0  0  0
   57.5000   30.2940   45.8140 C   0  0  0  0  0  0  0  0  0  0  0  0
   58.4930   31.2340   46.1040 C   0  0  0  0  0  0  0  0  0  0  0  0
   58.1920   32.5840   45.9160 O   0  0  0  0  0  0  0  0  0  0  0  0
   62.2430   31.4140   47.7410 S   0  0  0  0  0  0  0  0  0  0  0  0
   64.0106   33.3680   49.3989 H   0  0  0  0  0  0  0  0  0  0  0  0
   64.9769   32.7632   48.0107 H   0  0  0  0  0  0  0  0  0  0  0  0
   64.3642   34.4517   48.0107 H   0  0  0  0  0  0  0  0  0  0  0  0
   62.1900   34.8404   46.7409 H   0  0  0  0  0  0  0  0  0  0  0  0
   60.0629   33.5760   45.9176 H   0  0  0  0  0  0  0  0  0  0  0  0
   60.9068   29.1050   47.2720 H   0  0  0  0  0  0  0  0  0  0  0  0
   59.2514   24.4527   47.1750 H   0  0  0  0  0  0  0  0  0  0  0  0
   57.4211   22.8469   46.6470 H   0  0  0  0  0  0  0  0  0  0  0  0
   55.2666   23.6686   45.7048 H   0  0  0  0  0  0  0  0  0  0  0  0
   54.9264   26.0991   45.2867 H   0  0  0  0  0  0  0  0  0  0  0  0
   56.5405   30.6335   45.3966 H   0  0  0  0  0  0  0  0  0  0  0  0
   57.4220   32.9040   45.3440 H   0  0  0  0  0  0  0  0  0  0  0  0
  1  2  1  0
  2  3  2  0
  3  4  1  0
  4  5  2  0
  5  6  1  0
  6  7  2  0
  7  8  1  0
  8  9  1  0
  9 10  2  0
  9 11  1  0
 11 12  2  0
 12 13  1  0
 13 14  2  0
 14 15  1  0
 15 16  2  0
 16 17  1  0
 17 18  1  0
 17 19  1  0
 19 20  1  0
 20 21  2  0
 21 22  1  0
  5 23  1  0
 23  2  1  0
 21  6  1  0
 19  8  2  0
 16 11  1  0
  1 24  1  0
  1 25  1  0
  1 26  1  0
  3 27  1  0
  4 28  1  0
  7 29  1  0
 12 30  1  0
 13 31  1  0
 14 32  1  0
 15 33  1  0
 20 34  1  0
 22 35  1  0
M  CHG  1  18  -1
M  END
>  <UniqueID>  (76) 
69

>  <SMILES>  (76) 
Cc1ccc(-c2cc3c(=O)c4ccccc4n([O-])c3cc2O)s1

>  <Energy>  (76) 
83.28439386341364

>  <Genealogy>  (76) 
Cc1ccc(-c2cc3c(=O)c4ccccc4n([O-])c3cc2O)s1 (protonated)
Cc1ccc(-c2cc3c(=O)c4ccccc4n([O-])c3cc2O)s1 (3D coordinates assigned)
Cc1ccc(-c2cc3c(=O)c4ccccc4n([O-])c3cc2O)s1 (optimized conformer: 83.28439386341364 kcal/mol)

>  <smiles>  (76) 
Cc1ccc(-c2cc3c(=O)c4ccccc4n(O)c3cc2O)s1

>  <score_type>  (76) 
oracle

>  <origin>  (76) 
adg

>  <m_score__min__energy>  (76) 
-9.9199999999999999

>  <m_primary>  (76) 
energy

$$$$
77:0
     RDKit          3D

 61 64  0  0  0  0  0  0  0  0999 V2000
   56.5250   29.7960   52.8920 C   0  0  0  0  0  0  0  0  0  0  0  0
   57.5550   29.3430   52.0220 O   0  0  0  0  0  0  0  0  0  0  0  0
   58.1110   30.1090   50.9860 C   0  0  0  0  0  0  0  0  0  0  0  0
   58.5350   29.5410   49.7710 C   0  0  0  0  0  0  0  0  0  0  0  0
   59.0950   30.3440   48.7750 C   0  0  0  0  0  0  0  0  0  0  0  0
   59.2440   31.7260   48.9770 C   0  0  0  0  0  0  0  0  0  0  0  0
   59.8920   32.5640   47.9390 C   0  0  0  0  0  0  0  0  0  0  0  0
   59.2130   33.1070   46.9630 N   0  0  0  0  0  0  0  0  0  0  0  0
   58.4800   32.4880   45.8860 C   0  0  0  0  0  0  0  0  0  0  0  0
   57.9670   31.1830   45.9900 C   0  0  0  0  0  0  0  0  0  0  0  0
   57.3550   30.5470   44.8950 C   0  0  0  0  0  0  0  0  0  0  0  0
   56.7670   29.1840   45.0120 C   0  0  0  0  0  0  0  0  0  0  0  0
   55.5340   29.0290   44.8060 O   0  0  0  0  0  0  0  0  0  0  0  0
   57.5270   28.0410   45.4330 N   0  0  0  0  0  0  0  0  0  0  0  0
   57.1270   26.6660   45.3660 C   0  0  0  0  0  0  0  0  0  0  0  0
   57.4950   25.9100   44.2470 C   0  0  0  0  0  0  0  0  0  0  0  0
   57.0610   24.5880   44.1160 C   0  0  0  0  0  0  0  0  0  0  0  0
   56.2700   24.0030   45.1130 C   0  0  0  0  0  0  0  0  0  0  0  0
   55.6720   22.3610   44.9140 S   0  0  0  0  0  0  0  0  0  0  0  0
   53.9760   22.3270   45.2390 N   0  0  0  0  0  0  0  0  0  0  0  0
   56.3840   21.4370   45.8610 O   0  0  0  0  0  0  0  0  0  0  0  0
   55.9240   21.8950   43.5060 O   0  0  0  0  0  0  0  0  0  0  0  0
   55.9280   24.7470   46.2500 C   0  0  0  0  0  0  0  0  0  0  0  0
   56.3640   26.0700   46.3830 C   0  0  0  0  0  0  0  0  0  0  0  0
   57.2620   31.2460   43.6780 C   0  0  0  0  0  0  0  0  0  0  0  0
   57.7820   32.5340   43.5590 C   0  0  0  0  0  0  0  0  0  0  0  0
   58.4020   33.1530   44.6470 C   0  0  0  0  0  0  0  0  0  0  0  0
   58.9390   34.4280   44.4730 O   0  0  0  0  0  0  0  0  0  0  0  0
   61.3620   32.8060   47.9860 C   0  0  0  0  0  0  0  0  0  0  0  0
   62.1280   32.1920   48.9960 C   0  0  0  0  0  0  0  0  0  0  0  0
   63.5160   32.4060   49.0790 C   0  0  0  0  0  0  0  0  0  0  0  0
   64.3120   31.8130   50.0720 O   0  0  0  0  0  0  0  0  0  0  0  0
   65.6400   32.2200   50.3870 C   0  0  0  0  0  0  0  0  0  0  0  0
   64.1340   33.2430   48.1450 C   0  0  0  0  0  0  0  0  0  0  0  0
   63.3890   33.8470   47.1330 C   0  0  0  0  0  0  0  0  0  0  0  0
   62.0150   33.6290   47.0410 C   0  0  0  0  0  0  0  0  0  0  0  0
   61.3180   34.2210   45.9940 O   0  0  0  0  0  0  0  0  0  0  0  0
   58.8100   32.2960   50.1880 C   0  0  0  0  0  0  0  0  0  0  0  0
   58.9510   33.6610   50.4190 O   0  0  0  0  0  0  0  0  0  0  0  0
   58.2470   31.4890   51.1800 C   0  0  0  0  0  0  0  0  0  0  0  0
   56.8402   29.6574   53.9367 H   0  0  0  0  0  0  0  0  0  0  0  0
   56.3307   30.8626   52.7061 H   0  0  0  0  0  0  0  0  0  0  0  0
   55.6075   29.2183   52.7061 H   0  0  0  0  0  0  0  0  0  0  0  0
   58.4250   28.4592   49.6046 H   0  0  0  0  0  0  0  0  0  0  0  0
   59.4213   29.8916   47.8269 H   0  0  0  0  0  0  0  0  0  0  0  0
   58.0460   30.6482   46.9480 H   0  0  0  0  0  0  0  0  0  0  0  0
   58.1285   26.3583   43.4674 H   0  0  0  0  0  0  0  0  0  0  0  0
   57.3417   24.0047   43.2266 H   0  0  0  0  0  0  0  0  0  0  0  0
   53.6930   21.3220   45.2840 H   0  0  0  0  0  0  0  0  0  0  0  0
   55.3149   24.2897   47.0405 H   0  0  0  0  0  0  0  0  0  0  0  0
   56.1086   26.6441   47.2858 H   0  0  0  0  0  0  0  0  0  0  0  0
   56.7749   30.7724   42.8129 H   0  0  0  0  0  0  0  0  0  0  0  0
   57.7034   33.0674   42.6002 H   0  0  0  0  0  0  0  0  0  0  0  0
   59.6900   34.7850   45.0490 H   0  0  0  0  0  0  0  0  0  0  0  0
   61.6347   31.5369   49.7292 H   0  0  0  0  0  0  0  0  0  0  0  0
   65.7626   32.2576   51.4795 H   0  0  0  0  0  0  0  0  0  0  0  0
   66.3547   31.4997   49.9624 H   0  0  0  0  0  0  0  0  0  0  0  0
   65.8284   33.2171   49.9624 H   0  0  0  0  0  0  0  0  0  0  0  0
   65.2167   33.4265   48.2091 H   0  0  0  0  0  0  0  0  0  0  0  0
   63.8887   34.4999   46.4022 H   0  0  0  0  0  0  0  0  0  0  0  0
   57.9072   31.9424   52.1229 H   0  0  0  0  0  0  0  0  0  0  0  0
  1  2  1  0
  2  3  1  0
  3  4  2  0
  4  5  1  0
  5  6  2  0
  6  7  1  0
  7  8  2  3
  8  9  1  0
  9 10  2  0
 10 11  1  0
 11 12  1  0
 12 13  2  0
 12 14  1  0
 14 15  1  0
 15 16  2  0
 16 17  1  0
 17 18  2  0
 18 19  1  0
 19 20  1  0
 19 21  2  0
 19 22  2  0
 18 23  1  0
 23 24  2  0
 11 25  2  0
 25 26  1  0
 26 27  2  0
 27 28  1  0
  7 29  1  0
 29 30  2  0
 30 31  1  0
 31 32  1  0
 32 33  1  0
 31 34  2  0
 34 35  1  0
 35 36  2  0
 36 37  1  0
  6 38  1  0
 38 39  1  0
 38 40  2  0
 40  3  1  0
 27  9  1  0
 36 29  1  0
 24 15  1  0
  1 41  1  0
  1 42  1  0
  1 43  1  0
  4 44  1  0
  5 45  1  0
 10 46  1  0
 16 47  1  0
 17 48  1  0
 20 49  1  0
 23 50  1  0
 24 51  1  0
 25 52  1  0
 26 53  1  0
 28 54  1  0
 30 55  1  0
 33 56  1  0
 33 57  1  0
 33 58  1  0
 34 59  1  0
 35 60  1  0
 40 61  1  0
M  CHG  4  14  -1  20  -1  37  -1  39  -1
M  END
>  <UniqueID>  (77) 
70

>  <SMILES>  (77) 
COc1ccc(C(=Nc2cc(C(=O)[N-]c3ccc(S([NH-])(=O)=O)cc3)ccc2O)c2cc(OC)ccc2[O-])c([O-])c1

>  <Energy>  (77) 
86.3073497744987

>  <Genealogy>  (77) 
COc1ccc(C(=Nc2cc(C(=O)[N-]c3ccc(S([NH-])(=O)=O)cc3)ccc2O)c2cc(OC)ccc2[O-])c([O-])c1 (protonated)
COc1ccc(C(=Nc2cc(C(=O)[N-]c3ccc(S([NH-])(=O)=O)cc3)ccc2O)c2cc(OC)ccc2[O-])c([O-])c1 (3D coordinates assigned)
COc1ccc(C(=Nc2cc(C(=O)[N-]c3ccc(S([NH-])(=O)=O)cc3)ccc2O)c2cc(OC)ccc2[O-])c([O-])c1 (optimized conformer: 86.3073497744987 kcal/mol)

>  <smiles>  (77) 
COc1ccc(C(=Nc2cc(C(=O)Nc3ccc(S(N)(=O)=O)cc3)ccc2O)c2cc(OC)ccc2O)c(O)c1

>  <score_type>  (77) 
oracle

>  <origin>  (77) 
adg

>  <m_score__min__energy>  (77) 
-15.06

>  <m_primary>  (77) 
energy

$$$$
78:0
     RDKit          3D

 70 74  0  0  1  0  0  0  0  0999 V2000
   61.0270   29.6420   50.5310 C   0  0  0  0  0  0  0  0  0  0  0  0
   61.4690   29.7090   49.2060 O   0  0  0  0  0  0  0  0  0  0  0  0
   60.5510   29.6250   48.1710 C   0  0  0  0  0  0  0  0  0  0  0  0
   59.6390   28.5850   48.1190 C   0  0  0  0  0  0  0  0  0  0  0  0
   58.7090   28.4800   47.0900 C   0  0  0  0  0  0  0  0  0  0  0  0
   57.8260   27.4640   47.0400 N   0  0  0  0  0  0  0  0  0  0  0  0
   56.9620   27.4360   46.0070 C   0  0  0  0  0  0  0  0  0  0  0  0
   56.1240   26.4770   45.9560 N   0  0  0  0  0  0  0  0  0  0  0  0
   56.4480   25.0940   45.9370 C   0  0  0  0  0  0  0  0  0  0  0  0
   56.8000   24.3780   47.0610 C   0  0  0  0  0  0  0  0  0  0  0  0
   57.1020   23.0370   46.9610 C   0  0  0  0  0  0  0  0  0  0  0  0
   57.0460   22.4180   45.7140 C   0  0  0  0  0  0  0  0  0  0  0  0
   56.6940   23.1220   44.5690 C   0  0  0  0  0  0  0  0  0  0  0  0
   56.6280   22.3300   42.9940 Cl  0  0  0  0  0  0  0  0  0  0  0  0
   56.3940   24.4710   44.6910 C   0  0  0  0  0  0  0  0  0  0  0  0
   56.9470   28.3650   45.0370 N   0  0  0  0  0  0  0  0  0  0  0  0
   57.8110   29.3910   45.0530 C   0  0  0  0  0  0  0  0  0  0  0  0
   57.7860   30.2610   44.1260 N   0  0  0  0  0  0  0  0  0  0  0  0
   57.0650   31.5080   44.1160 C   0  0  0  0  0  0  0  0  0  0  0  0
   57.2010   32.2270   45.4580 C   0  0  0  0  0  0  0  0  0  0  0  0
   57.0800   33.7470   45.2650 C   0  0  0  0  0  0  0  0  0  0  0  0
   58.1810   34.2480   44.4890 N   0  0  0  0  0  0  0  0  0  0  0  0
   59.1030   35.0680   45.1960 C   0  0  0  0  0  0  0  0  0  0  0  0
   60.0360   34.2480   46.0750 C   0  0  0  0  0  0  0  0  0  0  0  0
   59.9120   34.8230   47.4760 C   0  0  0  0  0  0  0  0  0  0  0  0
   59.5090   33.8590   48.4560 N   0  0  0  0  0  0  0  0  0  0  0  0
   60.0200   33.8070   49.7110 C   0  0  0  0  0  0  0  0  0  0  0  0
   59.4220   32.7710   50.3980 C   0  0  0  0  0  0  0  0  0  0  0  0
   58.5120   32.1640   49.5360 C   0  0  0  0  0  0  0  0  0  0  0  0
   58.5970   32.8640   48.3530 C   0  0  0  0  0  0  0  0  0  0  0  0
   58.8660   33.2300   43.7540 C   0  0  0  0  0  0  0  0  0  0  0  0
   57.7880   32.3880   43.0930 C   0  0  0  0  0  0  0  0  0  0  0  0
   58.7120   29.4550   46.0990 C   0  0  0  0  0  0  0  0  0  0  0  0
   59.6290   30.4810   46.1700 C   0  0  0  0  0  0  0  0  0  0  0  0
   60.5610   30.5850   47.2030 C   0  0  0  0  0  0  0  0  0  0  0  0
   61.4770   31.6070   47.2790 O   0  0  0  0  0  0  0  0  0  0  0  0
   62.8680   31.4560   47.3710 C   0  0  0  0  0  0  0  0  0  0  0  0
   61.8827   29.7717   51.2100 H   0  0  0  0  0  0  0  0  0  0  0  0
   60.2907   30.4388   50.7127 H   0  0  0  0  0  0  0  0  0  0  0  0
   60.5599   28.6628   50.7127 H   0  0  0  0  0  0  0  0  0  0  0  0
   59.6500   27.8222   48.9115 H   0  0  0  0  0  0  0  0  0  0  0  0
   57.8120   26.7230   47.7780 H   0  0  0  0  0  0  0  0  0  0  0  0
   56.8400   24.8780   48.0400 H   0  0  0  0  0  0  0  0  0  0  0  0
   57.3840   22.4620   47.8554 H   0  0  0  0  0  0  0  0  0  0  0  0
   57.2860   21.3475   45.6342 H   0  0  0  0  0  0  0  0  0  0  0  0
   56.1122   25.0518   43.8004 H   0  0  0  0  0  0  0  0  0  0  0  0
   56.2510   28.2570   44.2870 H   0  0  0  0  0  0  0  0  0  0  0  0
   56.0017   31.3282   43.8990 H   0  0  0  0  0  0  0  0  0  0  0  0
   56.4059   31.8831   46.1359 H   0  0  0  0  0  0  0  0  0  0  0  0
   58.1878   31.9988   45.8872 H   0  0  0  0  0  0  0  0  0  0  0  0
   56.1382   33.9712   44.7428 H   0  0  0  0  0  0  0  0  0  0  0  0
   57.0926   34.2318   46.2523 H   0  0  0  0  0  0  0  0  0  0  0  0
   59.7050   35.6336   44.4696 H   0  0  0  0  0  0  0  0  0  0  0  0
   58.5281   35.7430   45.8470 H   0  0  0  0  0  0  0  0  0  0  0  0
   59.7343   33.1902   46.0688 H   0  0  0  0  0  0  0  0  0  0  0  0
   61.0734   34.2955   45.7124 H   0  0  0  0  0  0  0  0  0  0  0  0
   60.8890   35.2327   47.7719 H   0  0  0  0  0  0  0  0  0  0  0  0
   59.1292   35.5950   47.4407 H   0  0  0  0  0  0  0  0  0  0  0  0
   60.7879   34.4824   50.1161 H   0  0  0  0  0  0  0  0  0  0  0  0
   59.6268   32.4775   51.4382 H   0  0  0  0  0  0  0  0  0  0  0  0
   57.8611   31.3046   49.7545 H   0  0  0  0  0  0  0  0  0  0  0  0
   58.0066   32.6452   47.4510 H   0  0  0  0  0  0  0  0  0  0  0  0
   59.5175   33.6826   42.9919 H   0  0  0  0  0  0  0  0  0  0  0  0
   59.5042   32.6211   44.4112 H   0  0  0  0  0  0  0  0  0  0  0  0
   57.0564   33.0547   42.6131 H   0  0  0  0  0  0  0  0  0  0  0  0
   58.2656   31.7343   42.3483 H   0  0  0  0  0  0  0  0  0  0  0  0
   59.6261   31.2480   45.3815 H   0  0  0  0  0  0  0  0  0  0  0  0
   63.1641   31.4239   48.4299 H   0  0  0  0  0  0  0  0  0  0  0  0
   63.1686   30.5199   46.8776 H   0  0  0  0  0  0  0  0  0  0  0  0
   63.3625   32.3057   46.8776 H   0  0  0  0  0  0  0  0  0  0  0  0
  1  2  1  0
  2  3  1  0
  3  4  2  0
  4  5  1  0
  5  6  1  0
  6  7  1  0
  7  8  2  0
  8  9  1  0
  9 10  2  0
 10 11  1  0
 11 12  2  0
 12 13  1  0
 13 14  1  0
 13 15  2  0
  7 16  1  0
 16 17  1  0
 17 18  2  0
 18 19  1  0
 19 20  1  0
 20 21  1  0
 21 22  1  0
 22 23  1  0
 23 24  1  0
 24 25  1  0
 25 26  1  0
 26 27  1  0
 27 28  2  0
 28 29  1  0
 29 30  2  0
 22 31  1  0
 31 32  1  0
 17 33  1  0
 33 34  1  0
 34 35  2  0
 35 36  1  0
 36 37  1  0
 35  3  1  0
 33  5  2  0
 15  9  1  0
 32 19  1  0
 30 26  1  0
  1 38  1  0
  1 39  1  0
  1 40  1  0
  4 41  1  0
  6 42  1  0
 10 43  1  0
 11 44  1  0
 12 45  1  0
 15 46  1  0
 16 47  1  0
 19 48  1  0
 20 49  1  0
 20 50  1  0
 21 51  1  0
 21 52  1  0
 23 53  1  0
 23 54  1  0
 24 55  1  0
 24 56  1  0
 25 57  1  0
 25 58  1  0
 27 59  1  0
 28 60  1  0
 29 61  1  0
 30 62  1  0
 31 63  1  0
 31 64  1  0
 32 65  1  0
 32 66  1  0
 34 67  1  0
 37 68  1  0
 37 69  1  0
 37 70  1  0
M  END
>  <smiles>  (78) 
COc1cc2[nH]c(=Nc3cccc(Cl)c3)[nH]c(=NC3CCN(CCCn4cccc4)CC3)c2cc1OC

>  <score_type>  (78) 
oracle

>  <origin>  (78) 
adg

>  <m_score__min__energy>  (78) 
-9.5099999999999998

>  <m_primary>  (78) 
energy

$$$$
79:0
     RDKit          3D

 54 57  0  0  1  0  0  0  0  0999 V2000
   58.8730   28.8000   48.3900 C   0  0  0  0  0  0  0  0  0  0  0  0
   59.3830   29.1860   47.0320 C   0  0  0  0  0  0  0  0  0  0  0  0
   60.2330   28.0580   46.4780 C   0  0  0  0  0  0  0  0  0  0  0  0
   60.1110   30.4720   47.0640 C   0  0  0  0  0  0  0  0  0  0  0  0
   61.4210   30.5270   47.4200 N   0  0  0  0  0  0  0  0  0  0  0  0
   62.0830   31.7060   47.4480 C   0  0  0  0  0  0  0  0  0  0  0  0
   61.4450   32.8840   47.1150 C   0  0  0  0  0  0  0  0  0  0  0  0
   60.1130   32.8200   46.7530 C   0  0  0  0  0  0  0  0  0  0  0  0
   59.4650   33.9090   46.4290 N   0  0  0  0  0  0  0  0  0  0  0  0
   58.0100   33.8370   46.4650 C   0  0  0  0  0  0  0  0  0  0  0  0
   57.5050   33.7900   45.0180 C   0  0  0  0  0  0  0  0  0  0  0  0
   57.4680   32.3740   44.5720 C   0  0  0  0  0  0  0  0  0  0  0  0
   57.7820   31.9690   43.3310 N   0  0  0  0  0  0  0  0  0  0  0  0
   57.6460   30.6370   43.2600 N   0  0  0  0  0  0  0  0  0  0  0  0
   57.2420   30.1860   44.4640 C   0  0  0  0  0  0  0  0  0  0  0  0
   56.9960   28.7840   44.7410 C   0  0  0  0  0  0  0  0  0  0  0  0
   55.8790   28.4760   45.2340 O   0  0  0  0  0  0  0  0  0  0  0  0
   57.9480   27.7630   44.4800 N   0  0  0  0  0  0  0  0  0  0  0  0
   57.5450   26.4250   44.8120 C   0  0  0  0  0  0  0  0  0  0  0  0
   57.2440   26.1970   46.1500 C   0  0  0  0  0  0  0  0  0  0  0  0
   56.8450   24.9450   46.5820 C   0  0  0  0  0  0  0  0  0  0  0  0
   56.7590   23.9360   45.6420 C   0  0  0  0  0  0  0  0  0  0  0  0
   57.0610   24.1740   44.3130 C   0  0  0  0  0  0  0  0  0  0  0  0
   57.4610   25.4250   43.8650 C   0  0  0  0  0  0  0  0  0  0  0  0
   57.1370   31.2650   45.2590 N   0  0  0  0  0  0  0  0  0  0  0  0
   59.4920   31.6230   46.7400 N   0  0  0  0  0  0  0  0  0  0  0  0
   62.4190   33.9960   47.2380 C   0  0  0  0  0  0  0  0  0  0  0  0
   63.7640   33.2780   47.0710 C   0  0  0  0  0  0  0  0  0  0  0  0
   63.5060   31.9730   47.8070 C   0  0  0  0  0  0  0  0  0  0  0  0
   59.4965   29.2719   49.1636 H   0  0  0  0  0  0  0  0  0  0  0  0
   57.8323   29.1387   48.5008 H   0  0  0  0  0  0  0  0  0  0  0  0
   58.9164   27.7065   48.5008 H   0  0  0  0  0  0  0  0  0  0  0  0
   58.5274   29.3427   46.3586 H   0  0  0  0  0  0  0  0  0  0  0  0
   60.6663   27.4829   47.3096 H   0  0  0  0  0  0  0  0  0  0  0  0
   59.6072   27.3961   45.8614 H   0  0  0  0  0  0  0  0  0  0  0  0
   61.0418   28.4771   45.8614 H   0  0  0  0  0  0  0  0  0  0  0  0
   57.6937   32.9300   47.0010 H   0  0  0  0  0  0  0  0  0  0  0  0
   57.5957   34.7119   46.9874 H   0  0  0  0  0  0  0  0  0  0  0  0
   56.4945   34.2214   44.9645 H   0  0  0  0  0  0  0  0  0  0  0  0
   58.1764   34.3701   44.3679 H   0  0  0  0  0  0  0  0  0  0  0  0
   57.8400   30.1210   42.3860 H   0  0  0  0  0  0  0  0  0  0  0  0
   58.8700   27.9970   44.0750 H   0  0  0  0  0  0  0  0  0  0  0  0
   57.3241   27.0218   46.8734 H   0  0  0  0  0  0  0  0  0  0  0  0
   56.6041   24.7588   47.6390 H   0  0  0  0  0  0  0  0  0  0  0  0
   56.4459   22.9290   45.9548 H   0  0  0  0  0  0  0  0  0  0  0  0
   56.9818   23.3480   43.5909 H   0  0  0  0  0  0  0  0  0  0  0  0
   57.6993   25.6103   42.8072 H   0  0  0  0  0  0  0  0  0  0  0  0
   58.4780   31.5360   46.4690 H   0  0  0  0  0  0  0  0  0  0  0  0
   62.2679   34.7462   46.4478 H   0  0  0  0  0  0  0  0  0  0  0  0
   62.3329   34.5523   48.1830 H   0  0  0  0  0  0  0  0  0  0  0  0
   63.9962   33.1017   46.0103 H   0  0  0  0  0  0  0  0  0  0  0  0
   64.6252   33.8454   47.4536 H   0  0  0  0  0  0  0  0  0  0  0  0
   64.1683   31.1714   47.4480 H   0  0  0  0  0  0  0  0  0  0  0  0
   63.6937   32.0238   48.8897 H   0  0  0  0  0  0  0  0  0  0  0  0
  1  2  1  0
  2  3  1  0
  2  4  1  0
  4  5  2  0
  5  6  1  0
  6  7  2  0
  7  8  1  0
  8  9  2  0
  9 10  1  0
 10 11  1  0
 11 12  1  0
 12 13  2  0
 13 14  1  0
 14 15  1  0
 15 16  1  0
 16 17  2  0
 16 18  1  0
 18 19  1  0
 19 20  2  0
 20 21  1  0
 21 22  2  0
 22 23  1  0
 23 24  2  0
 15 25  2  0
  8 26  1  0
  7 27  1  0
 27 28  1  0
 28 29  1  0
 26  4  1  0
 29  6  1  0
 25 12  1  0
 24 19  1  0
  1 30  1  0
  1 31  1  0
  1 32  1  0
  2 33  1  0
  3 34  1  0
  3 35  1  0
  3 36  1  0
 10 37  1  0
 10 38  1  0
 11 39  1  0
 11 40  1  0
 14 41  1  0
 18 42  1  0
 20 43  1  0
 21 44  1  0
 22 45  1  0
 23 46  1  0
 24 47  1  0
 26 48  1  0
 27 49  1  0
 27 50  1  0
 28 51  1  0
 28 52  1  0
 29 53  1  0
 29 54  1  0
M  END
>  <smiles>  (79) 
CC(C)c1nc2c(c(=NCCc3n[nH]c(C(=O)Nc4ccccc4)n3)[nH]1)CCC2

>  <score_type>  (79) 
oracle

>  <origin>  (79) 
adg

>  <m_score__min__energy>  (79) 
-9.0500000000000007

>  <m_primary>  (79) 
energy

$$$$
80:0
     RDKit          3D

 67 70  0  0  0  0  0  0  0  0999 V2000
   56.1830   29.6530   42.6210 C   0  0  0  0  0  0  0  0  0  0  0  0
   56.6660   30.4390   43.7960 C   0  0  0  0  0  0  0  0  0  0  0  0
   55.9900   30.4310   44.8600 O   0  0  0  0  0  0  0  0  0  0  0  0
   57.9290   31.1200   43.7360 N   0  0  0  0  0  0  0  0  0  0  0  0
   58.3890   32.0560   44.7270 C   0  0  0  0  0  0  0  0  0  0  0  0
   58.5270   31.6380   46.0590 C   0  0  0  0  0  0  0  0  0  0  0  0
   58.9980   32.5200   47.0360 C   0  0  0  0  0  0  0  0  0  0  0  0
   59.3490   33.8350   46.6930 C   0  0  0  0  0  0  0  0  0  0  0  0
   59.8980   34.7680   47.7400 C   0  0  0  0  0  0  0  0  0  0  0  0
   61.0660   34.1660   48.3980 N   0  0  0  0  0  0  0  0  0  0  0  0
   62.2560   33.8420   47.6020 C   0  0  0  0  0  0  0  0  0  0  0  0
   61.0860   34.0000   49.8340 C   0  0  0  0  0  0  0  0  0  0  0  0
   62.0900   34.3660   50.5030 O   0  0  0  0  0  0  0  0  0  0  0  0
   59.9530   33.3820   50.5530 C   0  0  0  0  0  0  0  0  0  0  0  0
   59.2180   34.1850   51.4330 C   0  0  0  0  0  0  0  0  0  0  0  0
   58.1490   33.6540   52.1520 C   0  0  0  0  0  0  0  0  0  0  0  0
   57.7940   32.3150   51.9980 C   0  0  0  0  0  0  0  0  0  0  0  0
   58.5030   31.4840   51.1120 C   0  0  0  0  0  0  0  0  0  0  0  0
   58.1330   30.1300   50.9490 C   0  0  0  0  0  0  0  0  0  0  0  0
   57.0520   29.6230   51.6940 O   0  0  0  0  0  0  0  0  0  0  0  0
   56.8700   29.7560   53.1040 C   0  0  0  0  0  0  0  0  0  0  0  0
   55.4430   29.3270   53.5020 C   0  0  0  0  0  0  0  0  0  0  0  0
   54.4530   29.4400   52.4090 N   0  0  0  0  0  0  0  0  0  0  0  0
   53.0920   29.0000   52.7980 C   0  0  0  0  0  0  0  0  0  0  0  0
   52.0760   29.3310   51.7000 C   0  0  0  0  0  0  0  0  0  0  0  0
   51.9970   30.8490   51.4490 C   0  0  0  0  0  0  0  0  0  0  0  0
   53.2840   31.5920   51.8460 C   0  0  0  0  0  0  0  0  0  0  0  0
   54.5250   30.7110   51.6430 C   0  0  0  0  0  0  0  0  0  0  0  0
   58.8600   29.3240   50.0520 C   0  0  0  0  0  0  0  0  0  0  0  0
   59.9180   29.8550   49.3180 C   0  0  0  0  0  0  0  0  0  0  0  0
   60.2830   31.1910   49.4700 C   0  0  0  0  0  0  0  0  0  0  0  0
   59.5930   32.0230   50.3740 C   0  0  0  0  0  0  0  0  0  0  0  0
   59.2360   34.2500   45.3570 C   0  0  0  0  0  0  0  0  0  0  0  0
   58.7660   33.3660   44.3790 C   0  0  0  0  0  0  0  0  0  0  0  0
   55.6374   28.7651   42.9731 H   0  0  0  0  0  0  0  0  0  0  0  0
   55.5128   30.2778   42.0124 H   0  0  0  0  0  0  0  0  0  0  0  0
   57.0432   29.3373   42.0124 H   0  0  0  0  0  0  0  0  0  0  0  0
   58.5880   30.8520   42.9690 H   0  0  0  0  0  0  0  0  0  0  0  0
   58.2623   30.6072   46.3371 H   0  0  0  0  0  0  0  0  0  0  0  0
   59.0940   32.1819   48.0783 H   0  0  0  0  0  0  0  0  0  0  0  0
   60.1973   35.7129   47.2629 H   0  0  0  0  0  0  0  0  0  0  0  0
   59.1200   34.9565   48.4945 H   0  0  0  0  0  0  0  0  0  0  0  0
   63.0959   33.6133   48.2745 H   0  0  0  0  0  0  0  0  0  0  0  0
   62.0460   32.9683   46.9675 H   0  0  0  0  0  0  0  0  0  0  0  0
   62.5179   34.7015   46.9675 H   0  0  0  0  0  0  0  0  0  0  0  0
   59.4866   35.2443   51.5580 H   0  0  0  0  0  0  0  0  0  0  0  0
   57.5827   34.2944   52.8442 H   0  0  0  0  0  0  0  0  0  0  0  0
   56.9519   31.9045   52.5745 H   0  0  0  0  0  0  0  0  0  0  0  0
   57.5993   29.1189   53.6258 H   0  0  0  0  0  0  0  0  0  0  0  0
   57.0192   30.8086   53.3865 H   0  0  0  0  0  0  0  0  0  0  0  0
   55.4765   28.2779   53.8310 H   0  0  0  0  0  0  0  0  0  0  0  0
   55.1161   30.0111   54.2989 H   0  0  0  0  0  0  0  0  0  0  0  0
   53.0992   27.9130   52.9662 H   0  0  0  0  0  0  0  0  0  0  0  0
   52.8009   29.5290   53.7174 H   0  0  0  0  0  0  0  0  0  0  0  0
   52.3784   28.8292   50.7690 H   0  0  0  0  0  0  0  0  0  0  0  0
   51.0856   28.9813   52.0268 H   0  0  0  0  0  0  0  0  0  0  0  0
   51.8110   31.0179   50.3781 H   0  0  0  0  0  0  0  0  0  0  0  0
   51.1830   31.2439   52.0747 H   0  0  0  0  0  0  0  0  0  0  0  0
   53.3813   32.4955   51.2262 H   0  0  0  0  0  0  0  0  0  0  0  0
   53.2169   31.8551   52.9120 H   0  0  0  0  0  0  0  0  0  0  0  0
   54.6173   30.4731   50.5730 H   0  0  0  0  0  0  0  0  0  0  0  0
   55.3968   31.2728   52.0096 H   0  0  0  0  0  0  0  0  0  0  0  0
   58.5898   28.2647   49.9298 H   0  0  0  0  0  0  0  0  0  0  0  0
   60.4693   29.2150   48.6133 H   0  0  0  0  0  0  0  0  0  0  0  0
   61.1164   31.5995   48.8796 H   0  0  0  0  0  0  0  0  0  0  0  0
   59.5184   35.2756   45.0771 H   0  0  0  0  0  0  0  0  0  0  0  0
   58.6910   33.6972   43.3327 H   0  0  0  0  0  0  0  0  0  0  0  0
  1  2  1  0
  2  3  2  0
  2  4  1  0
  4  5  1  0
  5  6  2  0
  6  7  1  0
  7  8  2  0
  8  9  1  0
  9 10  1  0
 10 11  1  0
 10 12  1  0
 12 13  2  0
 12 14  1  0
 14 15  2  0
 15 16  1  0
 16 17  2  0
 17 18  1  0
 18 19  2  0
 19 20  1  0
 20 21  1  0
 21 22  1  0
 22 23  1  0
 23 24  1  0
 24 25  1  0
 25 26  1  0
 26 27  1  0
 27 28  1  0
 19 29  1  0
 29 30  2  0
 30 31  1  0
 31 32  2  0
  8 33  1  0
 33 34  2  0
 34  5  1  0
 32 14  1  0
 32 18  1  0
 28 23  1  0
  1 35  1  0
  1 36  1  0
  1 37  1  0
  4 38  1  0
  6 39  1  0
  7 40  1  0
  9 41  1  0
  9 42  1  0
 11 43  1  0
 11 44  1  0
 11 45  1  0
 15 46  1  0
 16 47  1  0
 17 48  1  0
 21 49  1  0
 21 50  1  0
 22 51  1  0
 22 52  1  0
 24 53  1  0
 24 54  1  0
 25 55  1  0
 25 56  1  0
 26 57  1  0
 26 58  1  0
 27 59  1  0
 27 60  1  0
 28 61  1  0
 28 62  1  0
 29 63  1  0
 30 64  1  0
 31 65  1  0
 33 66  1  0
 34 67  1  0
M  END
>  <UniqueID>  (80) 
71

>  <SMILES>  (80) 
CC(=O)Nc1ccc(CN(C)C(=O)c2cccc3c(OCCN4CCCCC4)cccc23)cc1

>  <Energy>  (80) 
89.90542588617956

>  <Genealogy>  (80) 
CC(=O)Nc1ccc(CN(C)C(=O)c2cccc3c(OCCN4CCCCC4)cccc23)cc1 (3D coordinates assigned)
CC(=O)Nc1ccc(CN(C)C(=O)c2cccc3c(OCCN4CCCCC4)cccc23)cc1 (nonaromatic ring conformer: 89.90542588617956 kcal/mol)

>  <smiles>  (80) 
CC(=O)Nc1ccc(CN(C)C(=O)c2cccc3c(OCCN4CCCCC4)cccc23)cc1

>  <score_type>  (80) 
oracle

>  <origin>  (80) 
adg

>  <m_score__min__energy>  (80) 
-9.9199999999999999

>  <m_primary>  (80) 
energy

$$$$
81:0
     RDKit          3D

 43 46  0  0  0  0  0  0  0  0999 V2000
   60.0260   34.0300   53.3900 C   0  0  0  0  0  0  0  0  0  0  0  0
   59.3200   33.6840   52.1520 N   0  0  0  0  0  0  0  0  0  0  0  0
   57.8750   33.4120   52.1770 C   0  0  0  0  0  0  0  0  0  0  0  0
   57.6200   31.9810   52.5660 C   0  0  0  0  0  0  0  0  0  0  0  0
   57.2760   31.0180   51.6100 C   0  0  0  0  0  0  0  0  0  0  0  0
   57.0320   29.7380   51.9930 N   0  0  0  0  0  0  0  0  0  0  0  0
   57.1130   29.3720   53.2980 C   0  0  0  0  0  0  0  0  0  0  0  0
   57.4420   30.2890   54.2450 N   0  0  0  0  0  0  0  0  0  0  0  0
   57.6950   31.5800   53.9060 C   0  0  0  0  0  0  0  0  0  0  0  0
   60.0520   33.6300   50.9100 C   0  0  0  0  0  0  0  0  0  0  0  0
   59.4060   33.8050   49.7260 N   0  0  0  0  0  0  0  0  0  0  0  0
   60.0550   33.7520   48.5330 C   0  0  0  0  0  0  0  0  0  0  0  0
   59.2510   33.9160   47.3030 C   0  0  0  0  0  0  0  0  0  0  0  0
   58.1240   33.1040   47.0940 C   0  0  0  0  0  0  0  0  0  0  0  0
   57.3790   33.2250   45.9150 C   0  0  0  0  0  0  0  0  0  0  0  0
   57.7630   34.1430   44.9340 C   0  0  0  0  0  0  0  0  0  0  0  0
   58.8960   34.9380   45.1260 C   0  0  0  0  0  0  0  0  0  0  0  0
   59.6440   34.8200   46.3010 C   0  0  0  0  0  0  0  0  0  0  0  0
   61.4510   33.5320   48.5170 C   0  0  0  0  0  0  0  0  0  0  0  0
   62.2220   33.5320   47.3350 C   0  0  0  0  0  0  0  0  0  0  0  0
   63.6000   33.3020   47.3940 C   0  0  0  0  0  0  0  0  0  0  0  0
   64.2260   33.0840   48.6240 C   0  0  0  0  0  0  0  0  0  0  0  0
   63.4800   33.1080   49.8040 C   0  0  0  0  0  0  0  0  0  0  0  0
   62.1010   33.3400   49.7580 C   0  0  0  0  0  0  0  0  0  0  0  0
   61.3900   33.3930   50.9120 N   0  0  0  0  0  0  0  0  0  0  0  0
   59.4164   33.7312   54.2555 H   0  0  0  0  0  0  0  0  0  0  0  0
   60.9908   33.5026   53.4215 H   0  0  0  0  0  0  0  0  0  0  0  0
   60.2003   35.1156   53.4215 H   0  0  0  0  0  0  0  0  0  0  0  0
   57.3929   34.0782   52.9076 H   0  0  0  0  0  0  0  0  0  0  0  0
   57.4599   33.5897   51.1740 H   0  0  0  0  0  0  0  0  0  0  0  0
   57.2033   31.2979   50.5487 H   0  0  0  0  0  0  0  0  0  0  0  0
   56.9118   28.3305   53.5892 H   0  0  0  0  0  0  0  0  0  0  0  0
   57.5020   29.9980   55.2470 H   0  0  0  0  0  0  0  0  0  0  0  0
   57.9590   32.3110   54.6844 H   0  0  0  0  0  0  0  0  0  0  0  0
   57.8262   32.3713   47.8585 H   0  0  0  0  0  0  0  0  0  0  0  0
   56.4897   32.5963   45.7606 H   0  0  0  0  0  0  0  0  0  0  0  0
   57.1733   34.2398   44.0105 H   0  0  0  0  0  0  0  0  0  0  0  0
   59.1997   35.6576   44.3515 H   0  0  0  0  0  0  0  0  0  0  0  0
   60.5437   35.4370   46.4420 H   0  0  0  0  0  0  0  0  0  0  0  0
   61.7375   33.7135   46.3643 H   0  0  0  0  0  0  0  0  0  0  0  0
   64.1938   33.2926   46.4681 H   0  0  0  0  0  0  0  0  0  0  0  0
   65.3086   32.8931   48.6628 H   0  0  0  0  0  0  0  0  0  0  0  0
   63.9773   32.9442   50.7714 H   0  0  0  0  0  0  0  0  0  0  0  0
  1  2  1  0
  2  3  1  0
  3  4  1  0
  4  5  2  0
  5  6  1  0
  6  7  2  0
  7  8  1  0
  8  9  2  0
  2 10  1  0
 10 11  2  0
 11 12  1  0
 12 13  1  0
 13 14  2  0
 14 15  1  0
 15 16  2  0
 16 17  1  0
 17 18  2  0
 12 19  2  0
 19 20  1  0
 20 21  2  0
 21 22  1  0
 22 23  2  0
 23 24  1  0
 24 25  2  0
  9  4  1  0
 25 10  1  0
 18 13  1  0
 24 19  1  0
  1 26  1  0
  1 27  1  0
  1 28  1  0
  3 29  1  0
  3 30  1  0
  5 31  1  0
  7 32  1  0
  8 33  1  0
  9 34  1  0
 14 35  1  0
 15 36  1  0
 16 37  1  0
 17 38  1  0
 18 39  1  0
 20 40  1  0
 21 41  1  0
 22 42  1  0
 23 43  1  0
M  CHG  1   8   1
M  END
>  <UniqueID>  (81) 
72

>  <SMILES>  (81) 
CN(Cc1cnc[nH+]c1)c1nc(-c2ccccc2)c2ccccc2n1

>  <Energy>  (81) 
56.161858038716545

>  <Genealogy>  (81) 
CN(Cc1cnc[nH+]c1)c1nc(-c2ccccc2)c2ccccc2n1 (protonated)
CN(Cc1cnc[nH+]c1)c1nc(-c2ccccc2)c2ccccc2n1 (3D coordinates assigned)
CN(Cc1cnc[nH+]c1)c1nc(-c2ccccc2)c2ccccc2n1 (optimized conformer: 56.161858038716545 kcal/mol)

>  <smiles>  (81) 
CN(Cc1cncnc1)c1nc(-c2ccccc2)c2ccccc2n1

>  <score_type>  (81) 
oracle

>  <origin>  (81) 
adg

>  <m_score__min__energy>  (81) 
-7.0199999999999996

>  <m_primary>  (81) 
energy

$$$$
82:0
     RDKit          3D

 30 31  0  0  0  0  0  0  0  0999 V2000
   63.0020   32.3780   49.3720 C   0  0  0  0  0  0  0  0  0  0  0  0
   61.9530   32.8090   48.3920 C   0  0  0  0  0  0  0  0  0  0  0  0
   60.6000   32.5210   48.6310 C   0  0  0  0  0  0  0  0  0  0  0  0
   59.6240   32.8930   47.7010 C   0  0  0  0  0  0  0  0  0  0  0  0
   59.9920   33.5470   46.5170 C   0  0  0  0  0  0  0  0  0  0  0  0
   58.7680   34.0280   45.3470 S   0  0  0  0  0  0  0  0  0  0  0  0
   59.1920   35.2690   44.6130 O   0  0  0  0  0  0  0  0  0  0  0  0
   57.4850   34.3060   46.0780 O   0  0  0  0  0  0  0  0  0  0  0  0
   58.5070   32.7520   44.1990 N   0  0  0  0  0  0  0  0  0  0  0  0
   57.7660   31.5530   44.4840 C   0  0  0  0  0  0  0  0  0  0  0  0
   58.1160   30.6920   45.5440 C   0  0  0  0  0  0  0  0  0  0  0  0
   57.3680   29.5380   45.7940 C   0  0  0  0  0  0  0  0  0  0  0  0
   56.2690   29.2250   44.9900 C   0  0  0  0  0  0  0  0  0  0  0  0
   55.5280   28.0770   45.2410 O   0  0  0  0  0  0  0  0  0  0  0  0
   55.9180   30.0670   43.9330 C   0  0  0  0  0  0  0  0  0  0  0  0
   56.6620   31.2240   43.6790 C   0  0  0  0  0  0  0  0  0  0  0  0
   61.3440   33.8140   46.2660 C   0  0  0  0  0  0  0  0  0  0  0  0
   62.3200   33.4440   47.1960 C   0  0  0  0  0  0  0  0  0  0  0  0
   62.6314   32.5303   50.3964 H   0  0  0  0  0  0  0  0  0  0  0  0
   63.2309   31.3130   49.2194 H   0  0  0  0  0  0  0  0  0  0  0  0
   63.9136   32.9745   49.2194 H   0  0  0  0  0  0  0  0  0  0  0  0
   60.3061   32.0002   49.5542 H   0  0  0  0  0  0  0  0  0  0  0  0
   58.5648   32.6718   47.8991 H   0  0  0  0  0  0  0  0  0  0  0  0
   58.8590   32.9120   43.2290 H   0  0  0  0  0  0  0  0  0  0  0  0
   58.9829   30.9297   46.1781 H   0  0  0  0  0  0  0  0  0  0  0  0
   57.6454   28.8743   46.6262 H   0  0  0  0  0  0  0  0  0  0  0  0
   55.0542   29.8199   43.2984 H   0  0  0  0  0  0  0  0  0  0  0  0
   56.3809   31.8812   42.8429 H   0  0  0  0  0  0  0  0  0  0  0  0
   61.6390   34.3169   45.3332 H   0  0  0  0  0  0  0  0  0  0  0  0
   63.3802   33.6516   46.9892 H   0  0  0  0  0  0  0  0  0  0  0  0
  1  2  1  0
  2  3  2  0
  3  4  1  0
  4  5  2  0
  5  6  1  0
  6  7  2  0
  6  8  2  0
  6  9  1  0
  9 10  1  0
 10 11  2  0
 11 12  1  0
 12 13  2  0
 13 14  1  0
 13 15  1  0
 15 16  2  0
  5 17  1  0
 17 18  2  0
 18  2  1  0
 16 10  1  0
  1 19  1  0
  1 20  1  0
  1 21  1  0
  3 22  1  0
  4 23  1  0
  9 24  1  0
 11 25  1  0
 12 26  1  0
 15 27  1  0
 16 28  1  0
 17 29  1  0
 18 30  1  0
M  CHG  1  14  -1
M  END
>  <UniqueID>  (82) 
73

>  <SMILES>  (82) 
Cc1ccc(S(=O)(=O)Nc2ccc([O-])cc2)cc1

>  <Energy>  (82) 
32.44082149370915

>  <Genealogy>  (82) 
Cc1ccc(S(=O)(=O)Nc2ccc([O-])cc2)cc1 (protonated)
Cc1ccc(S(=O)(=O)Nc2ccc([O-])cc2)cc1 (3D coordinates assigned)
Cc1ccc(S(=O)(=O)Nc2ccc([O-])cc2)cc1 (optimized conformer: 32.44082149370915 kcal/mol)

>  <smiles>  (82) 
Cc1ccc(S(=O)(=O)Nc2ccc(O)cc2)cc1

>  <score_type>  (82) 
oracle

>  <origin>  (82) 
adg

>  <m_score__min__energy>  (82) 
-10.470000000000001

>  <m_primary>  (82) 
energy

$$$$
83:0
     RDKit          3D

 64 69  0  0  1  0  0  0  0  0999 V2000
   56.6370   20.9110   43.4090 C   0  0  0  0  0  0  0  0  0  0  0  0
   57.4260   22.1020   43.2990 N   0  0  0  0  0  0  0  0  0  0  0  0
   56.6920   23.3190   43.2480 C   0  0  0  0  0  0  0  0  0  0  0  0
   56.4760   23.9960   44.5860 C   0  0  0  0  0  0  0  0  0  0  0  0
   57.6900   23.9390   45.3900 N   0  0  0  0  0  0  0  0  0  0  0  0
   58.2650   25.0910   45.9810 C   0  0  0  0  0  0  0  0  0  0  0  0
   59.6320   25.2580   46.0370 C   0  0  0  0  0  0  0  0  0  0  0  0
   60.2160   26.3840   46.6280 C   0  0  0  0  0  0  0  0  0  0  0  0
   59.4410   27.3810   47.1830 C   0  0  0  0  0  0  0  0  0  0  0  0
   60.0510   28.5970   47.8190 C   0  0  0  0  0  0  0  0  0  0  0  0
   59.1060   29.6500   47.9830 N   0  0  0  0  0  0  0  0  0  0  0  0
   58.8510   30.6020   47.1580 C   0  0  0  0  0  0  0  0  0  0  0  0
   59.5230   31.7500   47.1540 N   0  0  0  0  0  0  0  0  0  0  0  0
   59.2650   32.7530   46.2940 C   0  0  0  0  0  0  0  0  0  0  0  0
   59.7730   34.0120   46.0600 C   0  0  0  0  0  0  0  0  0  0  0  0
   60.7710   34.5480   46.7500 C   0  0  0  0  0  0  0  0  0  0  0  0
   61.7840   33.6410   47.2800 C   0  0  0  0  0  0  0  0  0  0  0  0
   61.6550   32.7110   48.2450 N   0  0  0  0  0  0  0  0  0  0  0  0
   62.8670   32.1390   48.3730 C   0  0  0  0  0  0  0  0  0  0  0  0
   63.1540   31.2210   49.1750 O   0  0  0  0  0  0  0  0  0  0  0  0
   63.7460   32.6850   47.5130 N   0  0  0  0  0  0  0  0  0  0  0  0
   63.0870   33.6310   46.8180 C   0  0  0  0  0  0  0  0  0  0  0  0
   63.6530   34.4250   45.8280 O   0  0  0  0  0  0  0  0  0  0  0  0
   59.0580   34.5530   45.0130 C   0  0  0  0  0  0  0  0  0  0  0  0
   58.1500   33.6290   44.6450 N   0  0  0  0  0  0  0  0  0  0  0  0
   58.2540   32.5360   45.4020 N   0  0  0  0  0  0  0  0  0  0  0  0
   57.5710   31.3780   45.4000 C   0  0  0  0  0  0  0  0  0  0  0  0
   56.6370   31.2150   44.5520 N   0  0  0  0  0  0  0  0  0  0  0  0
   56.3260   29.8650   44.1160 C   0  0  0  0  0  0  0  0  0  0  0  0
   57.3710   28.9060   43.7190 C   0  0  0  0  0  0  0  0  0  0  0  0
   56.6180   29.6200   42.6480 C   0  0  0  0  0  0  0  0  0  0  0  0
   57.8630   30.4090   46.2730 N   0  0  0  0  0  0  0  0  0  0  0  0
   58.0740   27.2080   47.1230 C   0  0  0  0  0  0  0  0  0  0  0  0
   57.4920   26.0870   46.5360 C   0  0  0  0  0  0  0  0  0  0  0  0
   58.2580   22.5980   45.5480 C   0  0  0  0  0  0  0  0  0  0  0  0
   58.5890   22.1250   44.1640 C   0  0  0  0  0  0  0  0  0  0  0  0
   56.4791   20.6726   44.4712 H   0  0  0  0  0  0  0  0  0  0  0  0
   55.6644   21.0691   42.9201 H   0  0  0  0  0  0  0  0  0  0  0  0
   57.1619   20.0770   42.9201 H   0  0  0  0  0  0  0  0  0  0  0  0
   57.2364   24.0182   42.5963 H   0  0  0  0  0  0  0  0  0  0  0  0
   55.6918   23.0579   42.8719 H   0  0  0  0  0  0  0  0  0  0  0  0
   56.2017   25.0481   44.4190 H   0  0  0  0  0  0  0  0  0  0  0  0
   55.6699   23.4739   45.1223 H   0  0  0  0  0  0  0  0  0  0  0  0
   60.2828   24.4837   45.6046 H   0  0  0  0  0  0  0  0  0  0  0  0
   61.3119   26.4756   46.6504 H   0  0  0  0  0  0  0  0  0  0  0  0
   60.4467   28.3192   48.8070 H   0  0  0  0  0  0  0  0  0  0  0  0
   60.8496   28.9604   47.1555 H   0  0  0  0  0  0  0  0  0  0  0  0
   60.8327   35.6336   46.9162 H   0  0  0  0  0  0  0  0  0  0  0  0
   60.7660   32.5000   48.7770 H   0  0  0  0  0  0  0  0  0  0  0  0
   64.7550   32.4150   47.4150 H   0  0  0  0  0  0  0  0  0  0  0  0
   63.7490   34.0670   44.8810 H   0  0  0  0  0  0  0  0  0  0  0  0
   59.2014   35.5472   44.5647 H   0  0  0  0  0  0  0  0  0  0  0  0
   55.4863   29.7771   44.8211 H   0  0  0  0  0  0  0  0  0  0  0  0
   58.4294   29.1480   43.8960 H   0  0  0  0  0  0  0  0  0  0  0  0
   57.5688   27.8477   43.9446 H   0  0  0  0  0  0  0  0  0  0  0  0
   57.1137   30.3951   42.0451 H   0  0  0  0  0  0  0  0  0  0  0  0
   56.0285   29.3207   41.7688 H   0  0  0  0  0  0  0  0  0  0  0  0
   57.3160   29.5280   46.2450 H   0  0  0  0  0  0  0  0  0  0  0  0
   57.4212   27.9817   47.5534 H   0  0  0  0  0  0  0  0  0  0  0  0
   56.3960   25.9954   46.5152 H   0  0  0  0  0  0  0  0  0  0  0  0
   59.1671   22.6381   46.1661 H   0  0  0  0  0  0  0  0  0  0  0  0
   57.5534   21.9179   46.0490 H   0  0  0  0  0  0  0  0  0  0  0  0
   59.3403   22.8007   43.7292 H   0  0  0  0  0  0  0  0  0  0  0  0
   58.9717   21.0966   44.2417 H   0  0  0  0  0  0  0  0  0  0  0  0
  1  2  1  0
  2  3  1  0
  3  4  1  0
  4  5  1  0
  5  6  1  0
  6  7  2  0
  7  8  1  0
  8  9  2  0
  9 10  1  0
 10 11  1  0
 11 12  2  0
 12 13  1  0
 13 14  2  0
 14 15  1  0
 15 16  2  0
 16 17  1  0
 17 18  1  0
 18 19  1  0
 19 20  2  0
 19 21  1  0
 21 22  1  0
 22 23  1  0
 15 24  1  0
 24 25  2  0
 25 26  1  0
 26 27  1  0
 27 28  2  0
 28 29  1  0
 29 30  1  0
 30 31  1  0
 27 32  1  0
  9 33  1  0
 33 34  2  0
  5 35  1  0
 35 36  1  0
 36  2  1  0
 34  6  1  0
 32 12  1  0
 26 14  1  0
 31 29  1  0
 22 17  2  0
  1 37  1  0
  1 38  1  0
  1 39  1  0
  3 40  1  0
  3 41  1  0
  4 42  1  0
  4 43  1  0
  7 44  1  0
  8 45  1  0
 10 46  1  0
 10 47  1  0
 16 48  1  0
 18 49  1  0
 21 50  1  0
 23 51  1  0
 24 52  1  0
 29 53  1  0
 30 54  1  0
 30 55  1  0
 31 56  1  0
 31 57  1  0
 32 58  1  0
 33 59  1  0
 34 60  1  0
 35 61  1  0
 35 62  1  0
 36 63  1  0
 36 64  1  0
M  END
>  <smiles>  (83) 
CN1CCN(c2ccc(CN=c3nc4c(=Cc5[nH]c(=O)[nH]c5O)cnn4c(=NC4CC4)[nH]3)cc2)CC1

>  <score_type>  (83) 
oracle

>  <origin>  (83) 
adg

>  <m_score__min__energy>  (83) 
-10.42

>  <m_primary>  (83) 
energy

$$$$
84:0
     RDKit          3D

 47 50  0  0  1  0  0  0  0  0999 V2000
   58.1510   27.3950   43.3460 C   0  0  0  0  0  0  0  0  0  0  0  0
   58.7250   27.6360   44.7000 C   0  0  0  0  0  0  0  0  0  0  0  0
   58.2580   26.9930   45.8320 C   0  0  0  0  0  0  0  0  0  0  0  0
   58.8320   27.2580   47.0790 C   0  0  0  0  0  0  0  0  0  0  0  0
   59.8710   28.1650   47.1740 C   0  0  0  0  0  0  0  0  0  0  0  0
   60.5010   28.4800   48.4170 N   0  0  0  0  0  0  0  0  0  0  0  0
   60.1230   29.5020   49.0960 C   0  0  0  0  0  0  0  0  0  0  0  0
   59.6440   30.6240   48.5260 N   0  0  0  0  0  0  0  0  0  0  0  0
   59.2790   31.6330   49.3450 C   0  0  0  0  0  0  0  0  0  0  0  0
   58.8250   32.6940   48.7980 N   0  0  0  0  0  0  0  0  0  0  0  0
   58.6860   32.7480   47.3900 C   0  0  0  0  0  0  0  0  0  0  0  0
   59.3440   33.7720   46.7240 C   0  0  0  0  0  0  0  0  0  0  0  0
   59.2580   33.8930   45.3520 C   0  0  0  0  0  0  0  0  0  0  0  0
   58.4910   32.9480   44.6930 C   0  0  0  0  0  0  0  0  0  0  0  0
   58.4120   33.0760   43.3380 N   0  0  0  0  0  0  0  0  0  0  0  0
   57.6830   32.1920   42.6320 C   0  0  0  0  0  0  0  0  0  0  0  0
   57.5510   32.2680   41.1490 C   0  0  0  0  0  0  0  0  0  0  0  0
   57.0190   31.1640   43.2720 C   0  0  0  0  0  0  0  0  0  0  0  0
   57.0870   31.0160   44.6620 C   0  0  0  0  0  0  0  0  0  0  0  0
   56.4400   30.0370   45.1580 N   0  0  0  0  0  0  0  0  0  0  0  0
   57.8350   31.9260   45.3610 C   0  0  0  0  0  0  0  0  0  0  0  0
   57.9230   31.8090   46.7310 C   0  0  0  0  0  0  0  0  0  0  0  0
   59.3820   31.5440   50.6840 N   0  0  0  0  0  0  0  0  0  0  0  0
   59.8580   30.4370   51.3040 C   0  0  0  0  0  0  0  0  0  0  0  0
   60.2350   29.3970   50.4790 C   0  0  0  0  0  0  0  0  0  0  0  0
   60.7150   28.2770   51.0600 F   0  0  0  0  0  0  0  0  0  0  0  0
   60.3280   28.8010   46.0310 C   0  0  0  0  0  0  0  0  0  0  0  0
   59.7720   28.5530   44.7890 C   0  0  0  0  0  0  0  0  0  0  0  0
   57.1410   26.9709   43.4461 H   0  0  0  0  0  0  0  0  0  0  0  0
   58.0965   28.3462   42.7962 H   0  0  0  0  0  0  0  0  0  0  0  0
   58.7919   26.6900   42.7962 H   0  0  0  0  0  0  0  0  0  0  0  0
   57.4323   26.2708   45.7509 H   0  0  0  0  0  0  0  0  0  0  0  0
   58.4591   26.7478   47.9793 H   0  0  0  0  0  0  0  0  0  0  0  0
   59.5740   30.6680   47.4890 H   0  0  0  0  0  0  0  0  0  0  0  0
   59.9417   34.4964   47.2967 H   0  0  0  0  0  0  0  0  0  0  0  0
   59.7729   34.6996   44.8096 H   0  0  0  0  0  0  0  0  0  0  0  0
   58.8980   33.8370   42.8190 H   0  0  0  0  0  0  0  0  0  0  0  0
   56.6245   32.8015   40.8902 H   0  0  0  0  0  0  0  0  0  0  0  0
   58.4137   32.8077   40.7313 H   0  0  0  0  0  0  0  0  0  0  0  0
   57.5174   31.2510   40.7313 H   0  0  0  0  0  0  0  0  0  0  0  0
   56.4274   30.4503   42.6799 H   0  0  0  0  0  0  0  0  0  0  0  0
   55.5330   30.0950   45.6160 H   0  0  0  0  0  0  0  0  0  0  0  0
   57.4077   31.0028   47.2737 H   0  0  0  0  0  0  0  0  0  0  0  0
   59.1000   32.3250   51.3340 H   0  0  0  0  0  0  0  0  0  0  0  0
   59.9390   30.3714   52.3990 H   0  0  0  0  0  0  0  0  0  0  0  0
   61.1546   29.5220   46.1134 H   0  0  0  0  0  0  0  0  0  0  0  0
   60.1471   29.0673   43.8919 H   0  0  0  0  0  0  0  0  0  0  0  0
  1  2  1  0
  2  3  2  0
  3  4  1  0
  4  5  2  0
  5  6  1  0
  6  7  2  0
  7  8  1  0
  8  9  1  0
  9 10  2  0
 10 11  1  0
 11 12  2  0
 12 13  1  0
 13 14  2  0
 14 15  1  0
 15 16  1  0
 16 17  1  0
 16 18  2  0
 18 19  1  0
 19 20  2  3
 19 21  1  0
 21 22  2  0
  9 23  1  0
 23 24  1  0
 24 25  2  0
 25 26  1  0
  5 27  1  0
 27 28  2  0
 28  2  1  0
 25  7  1  0
 22 11  1  0
 21 14  1  0
  1 29  1  0
  1 30  1  0
  1 31  1  0
  3 32  1  0
  4 33  1  0
  8 34  1  0
 12 35  1  0
 13 36  1  0
 15 37  1  0
 17 38  1  0
 17 39  1  0
 17 40  1  0
 18 41  1  0
 20 42  1  0
 22 43  1  0
 23 44  1  0
 24 45  1  0
 27 46  1  0
 28 47  1  0
M  END
>  <smiles>  (84) 
Cc1ccc(N=c2[nH]c(=Nc3ccc4[nH]c(C)cc(=N)c4c3)[nH]cc2F)cc1

>  <score_type>  (84) 
oracle

>  <origin>  (84) 
adg

>  <m_score__min__energy>  (84) 
-8.9900000000000002

>  <m_primary>  (84) 
energy

$$$$
85:0
     RDKit          3D

 49 51  0  0  0  0  0  0  0  0999 V2000
   55.5330   28.8260   44.9140 N   0  0  0  0  0  0  0  0  0  0  0  0
   56.8250   29.9450   44.6610 S   0  0  0  0  0  0  0  0  0  0  0  0
   57.4880   29.6590   43.3420 O   0  0  0  0  0  0  0  0  0  0  0  0
   56.2750   31.3430   44.6300 O   0  0  0  0  0  0  0  0  0  0  0  0
   57.9990   29.7940   45.9640 C   0  0  0  0  0  0  0  0  0  0  0  0
   59.0360   30.7270   46.0930 C   0  0  0  0  0  0  0  0  0  0  0  0
   59.9620   30.6110   47.1330 C   0  0  0  0  0  0  0  0  0  0  0  0
   59.8690   29.5520   48.0500 C   0  0  0  0  0  0  0  0  0  0  0  0
   60.8560   29.4350   49.1390 C   0  0  0  0  0  0  0  0  0  0  0  0
   61.1970   28.2910   49.5350 O   0  0  0  0  0  0  0  0  0  0  0  0
   61.4250   30.5850   49.7840 N   0  0  0  0  0  0  0  0  0  0  0  0
   62.8510   30.8640   49.9350 C   0  0  0  0  0  0  0  0  0  0  0  0
   63.4030   31.5720   48.6930 C   0  0  0  0  0  0  0  0  0  0  0  0
   63.5290   33.0250   48.9470 N   0  0  0  0  0  0  0  0  0  0  0  0
   62.4120   33.5590   49.7720 C   0  0  0  0  0  0  0  0  0  0  0  0
   61.3900   34.4140   48.9910 C   0  0  0  0  0  0  0  0  0  0  0  0
   61.2720   33.9660   47.5980 N   0  0  0  0  0  0  0  0  0  0  0  0
   59.9950   33.9960   46.9310 C   0  0  0  0  0  0  0  0  0  0  0  0
   59.9000   34.4230   45.5940 C   0  0  0  0  0  0  0  0  0  0  0  0
   58.6600   34.4550   44.9480 C   0  0  0  0  0  0  0  0  0  0  0  0
   57.5050   34.0650   45.6290 C   0  0  0  0  0  0  0  0  0  0  0  0
   56.3040   34.0970   45.0010 F   0  0  0  0  0  0  0  0  0  0  0  0
   57.5870   33.6390   46.9570 C   0  0  0  0  0  0  0  0  0  0  0  0
   58.8250   33.6040   47.6060 C   0  0  0  0  0  0  0  0  0  0  0  0
   62.4900   33.7430   46.8090 C   0  0  0  0  0  0  0  0  0  0  0  0
   63.7370   33.7920   47.7010 C   0  0  0  0  0  0  0  0  0  0  0  0
   58.8100   28.6370   47.9370 C   0  0  0  0  0  0  0  0  0  0  0  0
   57.8830   28.7550   46.8970 C   0  0  0  0  0  0  0  0  0  0  0  0
   54.7070   29.3810   45.2300 H   0  0  0  0  0  0  0  0  0  0  0  0
   59.1216   31.5541   45.3728 H   0  0  0  0  0  0  0  0  0  0  0  0
   60.7678   31.3530   47.2337 H   0  0  0  0  0  0  0  0  0  0  0  0
   63.0010   31.5085   50.8137 H   0  0  0  0  0  0  0  0  0  0  0  0
   63.3846   29.9106   50.0629 H   0  0  0  0  0  0  0  0  0  0  0  0
   64.3927   31.1586   48.4488 H   0  0  0  0  0  0  0  0  0  0  0  0
   62.7119   31.4130   47.8521 H   0  0  0  0  0  0  0  0  0  0  0  0
   61.8775   32.7077   50.2187 H   0  0  0  0  0  0  0  0  0  0  0  0
   62.8669   34.2230   50.5218 H   0  0  0  0  0  0  0  0  0  0  0  0
   60.4073   34.3313   49.4782 H   0  0  0  0  0  0  0  0  0  0  0  0
   61.7386   35.4573   48.9913 H   0  0  0  0  0  0  0  0  0  0  0  0
   60.8063   34.7335   45.0535 H   0  0  0  0  0  0  0  0  0  0  0  0
   58.5944   34.7880   43.9017 H   0  0  0  0  0  0  0  0  0  0  0  0
   56.6769   33.3309   47.4925 H   0  0  0  0  0  0  0  0  0  0  0  0
   58.8843   33.2676   48.6516 H   0  0  0  0  0  0  0  0  0  0  0  0
   62.4309   32.7562   46.3266 H   0  0  0  0  0  0  0  0  0  0  0  0
   62.5683   34.5370   46.0517 H   0  0  0  0  0  0  0  0  0  0  0  0
   64.5884   33.3627   47.1525 H   0  0  0  0  0  0  0  0  0  0  0  0
   63.9372   34.8409   47.9651 H   0  0  0  0  0  0  0  0  0  0  0  0
   58.7092   27.8233   48.6703 H   0  0  0  0  0  0  0  0  0  0  0  0
   57.0602   28.0300   46.8109 H   0  0  0  0  0  0  0  0  0  0  0  0
  1  2  1  0
  2  3  2  0
  2  4  2  0
  2  5  1  0
  5  6  2  0
  6  7  1  0
  7  8  2  0
  8  9  1  0
  9 10  2  0
  9 11  1  0
 11 12  1  0
 12 13  1  0
 13 14  1  0
 14 15  1  0
 15 16  1  0
 16 17  1  0
 17 18  1  0
 18 19  2  0
 19 20  1  0
 20 21  2  0
 21 22  1  0
 21 23  1  0
 23 24  2  0
 17 25  1  0
 25 26  1  0
  8 27  1  0
 27 28  2  0
 28  5  1  0
 26 14  1  0
 24 18  1  0
  1 29  1  0
  6 30  1  0
  7 31  1  0
 12 32  1  0
 12 33  1  0
 13 34  1  0
 13 35  1  0
 15 36  1  0
 15 37  1  0
 16 38  1  0
 16 39  1  0
 19 40  1  0
 20 41  1  0
 23 42  1  0
 24 43  1  0
 25 44  1  0
 25 45  1  0
 26 46  1  0
 26 47  1  0
 27 48  1  0
 28 49  1  0
M  CHG  2   1  -1  11  -1
M  END
>  <UniqueID>  (85) 
74

>  <SMILES>  (85) 
[NH-]S(=O)(=O)c1ccc(C(=O)[N-]CCN2CCN(c3ccc(F)cc3)CC2)cc1

>  <Energy>  (85) 
64.49879033213642

>  <Genealogy>  (85) 
[NH-]S(=O)(=O)c1ccc(C(=O)[N-]CCN2CCN(c3ccc(F)cc3)CC2)cc1 (protonated)
[NH-]S(=O)(=O)c1ccc(C(=O)[N-]CCN2CCN(c3ccc(F)cc3)CC2)cc1 (3D coordinates assigned)
[NH-]S(=O)(=O)c1ccc(C(=O)[N-]CCN2CCN(c3ccc(F)cc3)CC2)cc1 (nonaromatic ring conformer: 64.49879033213642 kcal/mol)

>  <smiles>  (85) 
NS(=O)(=O)c1ccc(C(=O)NCCN2CCN(c3ccc(F)cc3)CC2)cc1

>  <score_type>  (85) 
oracle

>  <origin>  (85) 
adg

>  <m_score__min__energy>  (85) 
-11.720000000000001

>  <m_primary>  (85) 
energy

$$$$
86:0
     RDKit          3D

 35 36  0  0  0  0  0  0  0  0999 V2000
   60.0460   21.8270   44.0320 C   0  0  0  0  0  0  0  0  0  0  0  0
   59.6120   22.4250   45.2500 O   0  0  0  0  0  0  0  0  0  0  0  0
   58.4710   23.2300   45.3750 C   0  0  0  0  0  0  0  0  0  0  0  0
   57.2590   22.6170   45.6930 C   0  0  0  0  0  0  0  0  0  0  0  0
   56.0940   23.3720   45.8330 C   0  0  0  0  0  0  0  0  0  0  0  0
   56.1130   24.7660   45.6470 C   0  0  0  0  0  0  0  0  0  0  0  0
   54.8400   25.5220   45.7760 C   0  0  0  0  0  0  0  0  0  0  0  0
   54.8270   26.7070   46.2000 O   0  0  0  0  0  0  0  0  0  0  0  0
   53.6370   24.9330   45.4020 O   0  0  0  0  0  0  0  0  0  0  0  0
   57.3390   25.3950   45.3170 C   0  0  0  0  0  0  0  0  0  0  0  0
   57.4330   26.8230   45.1990 N   0  0  0  0  0  0  0  0  0  0  0  0
   57.8150   27.5060   43.9890 C   0  0  0  0  0  0  0  0  0  0  0  0
   58.0720   26.6760   42.5940 S   0  0  0  0  0  0  0  0  0  0  0  0
   58.0400   28.9240   43.9900 N   0  0  0  0  0  0  0  0  0  0  0  0
   57.2370   29.8550   44.7400 C   0  0  0  0  0  0  0  0  0  0  0  0
   56.1880   29.4560   45.3160 O   0  0  0  0  0  0  0  0  0  0  0  0
   57.6110   31.2870   44.8440 C   0  0  0  0  0  0  0  0  0  0  0  0
   57.8070   32.0840   43.7030 C   0  0  0  0  0  0  0  0  0  0  0  0
   58.1520   33.4310   43.8500 C   0  0  0  0  0  0  0  0  0  0  0  0
   58.2920   33.9690   45.0900 N   0  0  0  0  0  0  0  0  0  0  0  0
   58.1000   33.2280   46.2120 C   0  0  0  0  0  0  0  0  0  0  0  0
   57.7520   31.8790   46.1120 C   0  0  0  0  0  0  0  0  0  0  0  0
   58.5070   24.6230   45.1960 C   0  0  0  0  0  0  0  0  0  0  0  0
   60.6785   20.9555   44.2564 H   0  0  0  0  0  0  0  0  0  0  0  0
   59.1704   21.5043   43.4496 H   0  0  0  0  0  0  0  0  0  0  0  0
   60.6242   22.5594   43.4496 H   0  0  0  0  0  0  0  0  0  0  0  0
   57.2213   21.5268   45.8349 H   0  0  0  0  0  0  0  0  0  0  0  0
   55.1495   22.8711   46.0919 H   0  0  0  0  0  0  0  0  0  0  0  0
   57.2650   27.3780   46.0670 H   0  0  0  0  0  0  0  0  0  0  0  0
   58.7990   29.2810   43.3710 H   0  0  0  0  0  0  0  0  0  0  0  0
   57.6895   31.6501   42.6991 H   0  0  0  0  0  0  0  0  0  0  0  0
   58.3105   34.0569   42.9594 H   0  0  0  0  0  0  0  0  0  0  0  0
   58.2189   33.6917   47.2024 H   0  0  0  0  0  0  0  0  0  0  0  0
   57.5889   31.2820   47.0214 H   0  0  0  0  0  0  0  0  0  0  0  0
   59.4614   25.1155   44.9582 H   0  0  0  0  0  0  0  0  0  0  0  0
  1  2  1  0
  2  3  1  0
  3  4  2  0
  4  5  1  0
  5  6  2  0
  6  7  1  0
  7  8  2  0
  7  9  1  0
  6 10  1  0
 10 11  1  0
 11 12  1  0
 12 13  2  0
 12 14  1  0
 14 15  1  0
 15 16  2  0
 15 17  1  0
 17 18  2  0
 18 19  1  0
 19 20  2  0
 20 21  1  0
 21 22  2  0
 10 23  2  0
 23  3  1  0
 22 17  1  0
  1 24  1  0
  1 25  1  0
  1 26  1  0
  4 27  1  0
  5 28  1  0
 11 29  1  0
 14 30  1  0
 18 31  1  0
 19 32  1  0
 21 33  1  0
 22 34  1  0
 23 35  1  0
M  CHG  1   9  -1
M  END
>  <UniqueID>  (86) 
75

>  <SMILES>  (86) 
COc1ccc(C(=O)[O-])c(NC(=S)NC(=O)c2ccncc2)c1

>  <Energy>  (86) 
51.18320936888542

>  <Genealogy>  (86) 
COc1ccc(C(=O)[O-])c(NC(=S)NC(=O)c2ccncc2)c1 (protonated)
COc1ccc(C(=O)[O-])c(NC(=S)NC(=O)c2ccncc2)c1 (3D coordinates assigned)
COc1ccc(C(=O)[O-])c(NC(=S)NC(=O)c2ccncc2)c1 (optimized conformer: 51.18320936888542 kcal/mol)

>  <smiles>  (86) 
COc1ccc(C(=O)O)c(NC(=S)NC(=O)c2ccncc2)c1

>  <score_type>  (86) 
oracle

>  <origin>  (86) 
adg

>  <m_score__min__energy>  (86) 
-9.9600000000000009

>  <m_primary>  (86) 
energy

$$$$
87:0
     RDKit          3D

 64 68  0  0  0  0  0  0  0  0999 V2000
   61.7910   30.5160   46.7910 C   0  0  0  0  0  0  0  0  0  0  0  0
   60.7000   30.1750   47.7190 N   0  0  0  0  0  0  0  0  0  0  0  0
   59.4500   30.9160   47.3710 C   0  0  0  0  0  0  0  0  0  0  0  0
   58.1720   30.0580   47.4060 C   0  0  0  0  0  0  0  0  0  0  0  0
   58.4010   28.7970   46.6190 C   0  0  0  0  0  0  0  0  0  0  0  0
   59.6140   28.1310   46.8320 C   0  0  0  0  0  0  0  0  0  0  0  0
   59.9030   26.9500   46.1350 C   0  0  0  0  0  0  0  0  0  0  0  0
   58.9840   26.4440   45.2130 C   0  0  0  0  0  0  0  0  0  0  0  0
   57.7710   27.1030   44.9960 C   0  0  0  0  0  0  0  0  0  0  0  0
   57.4680   28.2870   45.6920 C   0  0  0  0  0  0  0  0  0  0  0  0
   56.2010   28.9380   45.5200 N   0  0  0  0  0  0  0  0  0  0  0  0
   55.8090   29.7050   44.3750 C   0  0  0  0  0  0  0  0  0  0  0  0
   54.7730   29.3890   43.7280 O   0  0  0  0  0  0  0  0  0  0  0  0
   56.6590   30.8220   43.9060 C   0  0  0  0  0  0  0  0  0  0  0  0
   57.0210   30.9190   42.5510 C   0  0  0  0  0  0  0  0  0  0  0  0
   57.8300   31.9690   42.1090 C   0  0  0  0  0  0  0  0  0  0  0  0
   58.2720   32.9420   43.0080 C   0  0  0  0  0  0  0  0  0  0  0  0
   57.9120   32.8680   44.3630 C   0  0  0  0  0  0  0  0  0  0  0  0
   58.3300   33.9540   45.3220 C   0  0  0  0  0  0  0  0  0  0  0  0
   59.5970   33.6220   45.9720 N   0  0  0  0  0  0  0  0  0  0  0  0
   60.0440   34.2800   47.1680 C   0  0  0  0  0  0  0  0  0  0  0  0
   59.4150   35.2830   47.6040 O   0  0  0  0  0  0  0  0  0  0  0  0
   61.2470   33.8080   47.8890 C   0  0  0  0  0  0  0  0  0  0  0  0
   61.2000   33.5210   49.2650 C   0  0  0  0  0  0  0  0  0  0  0  0
   62.3440   33.0760   49.9360 C   0  0  0  0  0  0  0  0  0  0  0  0
   63.5560   32.9070   49.2460 C   0  0  0  0  0  0  0  0  0  0  0  0
   64.7640   32.4210   49.9550 C   0  0  0  0  0  0  0  0  0  0  0  0
   64.7030   31.2650   50.7550 C   0  0  0  0  0  0  0  0  0  0  0  0
   65.8410   30.8110   51.4300 C   0  0  0  0  0  0  0  0  0  0  0  0
   67.0490   31.5000   51.3060 C   0  0  0  0  0  0  0  0  0  0  0  0
   67.1220   32.6470   50.5120 C   0  0  0  0  0  0  0  0  0  0  0  0
   68.2980   33.3100   50.3840 F   0  0  0  0  0  0  0  0  0  0  0  0
   65.9850   33.1100   49.8420 C   0  0  0  0  0  0  0  0  0  0  0  0
   63.6040   33.2040   47.8740 C   0  0  0  0  0  0  0  0  0  0  0  0
   62.4650   33.6570   47.2040 C   0  0  0  0  0  0  0  0  0  0  0  0
   57.1080   31.8050   44.8070 C   0  0  0  0  0  0  0  0  0  0  0  0
   60.5610   28.7030   47.8540 C   0  0  0  0  0  0  0  0  0  0  0  0
   62.6866   30.7959   47.3650 H   0  0  0  0  0  0  0  0  0  0  0  0
   62.0187   29.6462   46.1573 H   0  0  0  0  0  0  0  0  0  0  0  0
   61.4828   31.3607   46.1573 H   0  0  0  0  0  0  0  0  0  0  0  0
   59.3293   31.7425   48.0867 H   0  0  0  0  0  0  0  0  0  0  0  0
   59.5681   31.2615   46.3334 H   0  0  0  0  0  0  0  0  0  0  0  0
   57.9290   29.8024   48.4479 H   0  0  0  0  0  0  0  0  0  0  0  0
   57.3363   30.6217   46.9657 H   0  0  0  0  0  0  0  0  0  0  0  0
   60.8517   26.4227   46.3137 H   0  0  0  0  0  0  0  0  0  0  0  0
   59.2157   25.5241   44.6561 H   0  0  0  0  0  0  0  0  0  0  0  0
   57.0479   26.6928   44.2756 H   0  0  0  0  0  0  0  0  0  0  0  0
   56.6653   30.1639   41.8346 H   0  0  0  0  0  0  0  0  0  0  0  0
   58.1197   32.0294   41.0495 H   0  0  0  0  0  0  0  0  0  0  0  0
   58.9044   33.7692   42.6533 H   0  0  0  0  0  0  0  0  0  0  0  0
   58.4465   34.8973   44.7682 H   0  0  0  0  0  0  0  0  0  0  0  0
   57.5552   34.0540   46.0964 H   0  0  0  0  0  0  0  0  0  0  0  0
   60.1820   32.8720   45.5400 H   0  0  0  0  0  0  0  0  0  0  0  0
   60.2572   33.6473   49.8174 H   0  0  0  0  0  0  0  0  0  0  0  0
   62.2941   32.8566   51.0127 H   0  0  0  0  0  0  0  0  0  0  0  0
   63.7550   30.7152   50.8501 H   0  0  0  0  0  0  0  0  0  0  0  0
   65.7841   29.9104   52.0590 H   0  0  0  0  0  0  0  0  0  0  0  0
   67.9440   31.1393   51.8340 H   0  0  0  0  0  0  0  0  0  0  0  0
   66.0460   34.0176   49.2235 H   0  0  0  0  0  0  0  0  0  0  0  0
   64.5472   33.0787   47.3220 H   0  0  0  0  0  0  0  0  0  0  0  0
   62.5218   33.8974   46.1321 H   0  0  0  0  0  0  0  0  0  0  0  0
   56.8270   31.7406   45.8685 H   0  0  0  0  0  0  0  0  0  0  0  0
   60.1798   28.4728   48.8598 H   0  0  0  0  0  0  0  0  0  0  0  0
   61.5507   28.2513   47.6913 H   0  0  0  0  0  0  0  0  0  0  0  0
  1  2  1  0
  2  3  1  0
  3  4  1  0
  4  5  1  0
  5  6  2  0
  6  7  1  0
  7  8  2  0
  8  9  1  0
  9 10  2  0
 10 11  1  0
 11 12  1  0
 12 13  2  0
 12 14  1  0
 14 15  2  0
 15 16  1  0
 16 17  2  0
 17 18  1  0
 18 19  1  0
 19 20  1  0
 20 21  1  0
 21 22  2  0
 21 23  1  0
 23 24  2  0
 24 25  1  0
 25 26  2  0
 26 27  1  0
 27 28  2  0
 28 29  1  0
 29 30  2  0
 30 31  1  0
 31 32  1  0
 31 33  2  0
 26 34  1  0
 34 35  2  0
 18 36  2  0
  6 37  1  0
 37  2  1  0
 10  5  1  0
 36 14  1  0
 35 23  1  0
 33 27  1  0
  1 38  1  0
  1 39  1  0
  1 40  1  0
  3 41  1  0
  3 42  1  0
  4 43  1  0
  4 44  1  0
  7 45  1  0
  8 46  1  0
  9 47  1  0
 15 48  1  0
 16 49  1  0
 17 50  1  0
 19 51  1  0
 19 52  1  0
 20 53  1  0
 24 54  1  0
 25 55  1  0
 28 56  1  0
 29 57  1  0
 30 58  1  0
 33 59  1  0
 34 60  1  0
 35 61  1  0
 36 62  1  0
 37 63  1  0
 37 64  1  0
M  CHG  1  11  -1
M  END
>  <UniqueID>  (87) 
76

>  <SMILES>  (87) 
CN1CCc2c(cccc2[N-]C(=O)c2cccc(CNC(=O)c3ccc(-c4cccc(F)c4)cc3)c2)C1

>  <Energy>  (87) 
92.26515333686694

>  <Genealogy>  (87) 
CN1CCc2c(cccc2[N-]C(=O)c2cccc(CNC(=O)c3ccc(-c4cccc(F)c4)cc3)c2)C1 (protonated)
CN1CCc2c(cccc2[N-]C(=O)c2cccc(CNC(=O)c3ccc(-c4cccc(F)c4)cc3)c2)C1 (3D coordinates assigned)
CN1CCc2c(cccc2[N-]C(=O)c2cccc(CNC(=O)c3ccc(-c4cccc(F)c4)cc3)c2)C1 (nonaromatic ring conformer: 92.26515333686694 kcal/mol)

>  <smiles>  (87) 
CN1CCc2c(cccc2NC(=O)c2cccc(CNC(=O)c3ccc(-c4cccc(F)c4)cc3)c2)C1

>  <score_type>  (87) 
oracle

>  <origin>  (87) 
adg

>  <m_score__min__energy>  (87) 
-12.1

>  <m_primary>  (87) 
energy

$$$$
88:0
     RDKit          3D

 52 55  0  0  0  0  0  0  0  0999 V2000
   56.5130   31.3600   52.2100 C   0  0  0  0  0  0  0  0  0  0  0  0
   57.7170   31.9740   51.5600 C   0  0  0  0  0  0  0  0  0  0  0  0
   58.1600   33.2440   51.9540 C   0  0  0  0  0  0  0  0  0  0  0  0
   59.3000   33.8020   51.3710 C   0  0  0  0  0  0  0  0  0  0  0  0
   60.0130   33.0920   50.4020 C   0  0  0  0  0  0  0  0  0  0  0  0
   59.5920   31.8120   50.0120 C   0  0  0  0  0  0  0  0  0  0  0  0
   60.3420   31.0650   49.0410 N   0  0  0  0  0  0  0  0  0  0  0  0
   60.7440   29.6860   49.3300 C   0  0  0  0  0  0  0  0  0  0  0  0
   59.7510   28.7380   48.7360 C   0  0  0  0  0  0  0  0  0  0  0  0
   58.5210   29.0120   48.7770 O   0  0  0  0  0  0  0  0  0  0  0  0
   60.2030   27.5090   48.1630 N   0  0  0  0  0  0  0  0  0  0  0  0
   59.4740   26.8170   47.1110 C   0  0  0  0  0  0  0  0  0  0  0  0
   58.8330   27.8270   46.2050 C   0  0  0  0  0  0  0  0  0  0  0  0
   59.6340   28.7220   45.4490 C   0  0  0  0  0  0  0  0  0  0  0  0
   59.0380   29.6530   44.5790 C   0  0  0  0  0  0  0  0  0  0  0  0
   57.6490   29.6540   44.4810 C   0  0  0  0  0  0  0  0  0  0  0  0
   56.8780   28.7900   45.1870 C   0  0  0  0  0  0  0  0  0  0  0  0
   57.4280   27.8530   46.0590 C   0  0  0  0  0  0  0  0  0  0  0  0
   55.5460   29.0140   44.8910 O   0  0  0  0  0  0  0  0  0  0  0  0
   55.4780   30.0810   43.9340 C   0  0  0  0  0  0  0  0  0  0  0  0
   56.8410   30.4670   43.7080 O   0  0  0  0  0  0  0  0  0  0  0  0
   61.0140   31.8720   47.6530 S   0  0  0  0  0  0  0  0  0  0  0  0
   61.6350   30.8490   46.7430 O   0  0  0  0  0  0  0  0  0  0  0  0
   62.0690   32.8520   48.0870 O   0  0  0  0  0  0  0  0  0  0  0  0
   59.7410   32.7570   46.8200 C   0  0  0  0  0  0  0  0  0  0  0  0
   58.4170   32.3040   46.9030 C   0  0  0  0  0  0  0  0  0  0  0  0
   57.3950   32.9940   46.2430 C   0  0  0  0  0  0  0  0  0  0  0  0
   57.6930   34.1400   45.4970 C   0  0  0  0  0  0  0  0  0  0  0  0
   59.0120   34.5960   45.4120 C   0  0  0  0  0  0  0  0  0  0  0  0
   60.0370   33.9070   46.0700 C   0  0  0  0  0  0  0  0  0  0  0  0
   58.4470   31.2550   50.6010 C   0  0  0  0  0  0  0  0  0  0  0  0
   56.6191   31.4141   53.3035 H   0  0  0  0  0  0  0  0  0  0  0  0
   55.6104   31.9079   51.9016 H   0  0  0  0  0  0  0  0  0  0  0  0
   56.4264   30.3077   51.9016 H   0  0  0  0  0  0  0  0  0  0  0  0
   57.6084   33.8028   52.7244 H   0  0  0  0  0  0  0  0  0  0  0  0
   59.6374   34.8036   51.6758 H   0  0  0  0  0  0  0  0  0  0  0  0
   60.9077   33.5382   49.9432 H   0  0  0  0  0  0  0  0  0  0  0  0
   61.7366   29.4956   48.8960 H   0  0  0  0  0  0  0  0  0  0  0  0
   60.7834   29.5380   50.4193 H   0  0  0  0  0  0  0  0  0  0  0  0
   60.1698   26.1926   46.5313 H   0  0  0  0  0  0  0  0  0  0  0  0
   58.6981   26.1788   47.5588 H   0  0  0  0  0  0  0  0  0  0  0  0
   60.7293   28.6874   45.5441 H   0  0  0  0  0  0  0  0  0  0  0  0
   59.6492   30.3571   43.9953 H   0  0  0  0  0  0  0  0  0  0  0  0
   56.7875   27.1543   46.6172 H   0  0  0  0  0  0  0  0  0  0  0  0
   55.0152   29.7324   42.9990 H   0  0  0  0  0  0  0  0  0  0  0  0
   54.8661   30.9207   44.2953 H   0  0  0  0  0  0  0  0  0  0  0  0
   58.1812   31.4033   47.4888 H   0  0  0  0  0  0  0  0  0  0  0  0
   56.3571   32.6360   46.3103 H   0  0  0  0  0  0  0  0  0  0  0  0
   56.8893   34.6822   44.9774 H   0  0  0  0  0  0  0  0  0  0  0  0
   59.2444   35.4980   44.8268 H   0  0  0  0  0  0  0  0  0  0  0  0
   61.0744   34.2660   45.9998 H   0  0  0  0  0  0  0  0  0  0  0  0
   58.1188   30.2466   50.3088 H   0  0  0  0  0  0  0  0  0  0  0  0
  1  2  1  0
  2  3  2  0
  3  4  1  0
  4  5  2  0
  5  6  1  0
  6  7  1  0
  7  8  1  0
  8  9  1  0
  9 10  2  0
  9 11  1  0
 11 12  1  0
 12 13  1  0
 13 14  2  0
 14 15  1  0
 15 16  2  0
 16 17  1  0
 17 18  2  0
 17 19  1  0
 19 20  1  0
 20 21  1  0
  7 22  1  0
 22 23  2  0
 22 24  2  0
 22 25  1  0
 25 26  2  0
 26 27  1  0
 27 28  2  0
 28 29  1  0
 29 30  2  0
  6 31  2  0
 31  2  1  0
 18 13  1  0
 30 25  1  0
 21 16  1  0
  1 32  1  0
  1 33  1  0
  1 34  1  0
  3 35  1  0
  4 36  1  0
  5 37  1  0
  8 38  1  0
  8 39  1  0
 12 40  1  0
 12 41  1  0
 14 42  1  0
 15 43  1  0
 18 44  1  0
 20 45  1  0
 20 46  1  0
 26 47  1  0
 27 48  1  0
 28 49  1  0
 29 50  1  0
 30 51  1  0
 31 52  1  0
M  CHG  1  11  -1
M  END
>  <UniqueID>  (88) 
77

>  <SMILES>  (88) 
Cc1cccc(N(CC(=O)[N-]Cc2ccc3c(c2)OCO3)S(=O)(=O)c2ccccc2)c1

>  <Energy>  (88) 
83.3687389260813

>  <Genealogy>  (88) 
Cc1cccc(N(CC(=O)[N-]Cc2ccc3c(c2)OCO3)S(=O)(=O)c2ccccc2)c1 (protonated)
Cc1cccc(N(CC(=O)[N-]Cc2ccc3c(c2)OCO3)S(=O)(=O)c2ccccc2)c1 (3D coordinates assigned)
Cc1cccc(N(CC(=O)[N-]Cc2ccc3c(c2)OCO3)S(=O)(=O)c2ccccc2)c1 (nonaromatic ring conformer: 83.3687389260813 kcal/mol)

>  <smiles>  (88) 
Cc1cccc(N(CC(=O)NCc2ccc3c(c2)OCO3)S(=O)(=O)c2ccccc2)c1

>  <score_type>  (88) 
oracle

>  <origin>  (88) 
adg

>  <m_score__min__energy>  (88) 
-12.06

>  <m_primary>  (88) 
energy

$$$$
89:0
     RDKit          3D

 57 60  0  0  0  0  0  0  0  0999 V2000
   58.7810   34.6890   44.5800 N   0  0  0  0  0  0  0  0  0  0  0  0
   58.9330   34.2970   45.9490 C   0  0  0  0  0  0  0  0  0  0  0  0
   59.8820   34.9470   46.7510 C   0  0  0  0  0  0  0  0  0  0  0  0
   60.0430   34.5870   48.0910 C   0  0  0  0  0  0  0  0  0  0  0  0
   59.2610   33.5710   48.6380 C   0  0  0  0  0  0  0  0  0  0  0  0
   58.3140   32.9130   47.8500 C   0  0  0  0  0  0  0  0  0  0  0  0
   58.1270   33.2820   46.5060 C   0  0  0  0  0  0  0  0  0  0  0  0
   57.1600   32.6120   45.6810 N   0  0  0  0  0  0  0  0  0  0  0  0
   57.4400   31.7190   44.5930 C   0  0  0  0  0  0  0  0  0  0  0  0
   57.4160   32.1770   43.4190 O   0  0  0  0  0  0  0  0  0  0  0  0
   57.7000   30.2760   44.8040 C   0  0  0  0  0  0  0  0  0  0  0  0
   57.5430   29.3540   43.7560 C   0  0  0  0  0  0  0  0  0  0  0  0
   57.7590   27.9920   43.9720 C   0  0  0  0  0  0  0  0  0  0  0  0
   58.1650   27.5320   45.2340 C   0  0  0  0  0  0  0  0  0  0  0  0
   58.2980   26.0570   45.4900 C   0  0  0  0  0  0  0  0  0  0  0  0
   57.1040   25.3660   44.9900 N   0  0  0  0  0  0  0  0  0  0  0  0
   57.0770   24.8650   43.6060 C   0  0  0  0  0  0  0  0  0  0  0  0
   56.9600   23.3740   43.5900 C   0  0  0  0  0  0  0  0  0  0  0  0
   57.6650   22.4880   44.3750 C   0  0  0  0  0  0  0  0  0  0  0  0
   57.1880   21.2390   44.0330 C   0  0  0  0  0  0  0  0  0  0  0  0
   56.2600   21.3520   43.1100 O   0  0  0  0  0  0  0  0  0  0  0  0
   56.0960   22.6220   42.8220 C   0  0  0  0  0  0  0  0  0  0  0  0
   55.9470   25.2480   45.8460 C   0  0  0  0  0  0  0  0  0  0  0  0
   55.1740   26.2330   45.9900 O   0  0  0  0  0  0  0  0  0  0  0  0
   55.6170   23.9750   46.5260 C   0  0  0  0  0  0  0  0  0  0  0  0
   56.5580   23.4460   47.4270 C   0  0  0  0  0  0  0  0  0  0  0  0
   56.3230   22.2310   48.0690 C   0  0  0  0  0  0  0  0  0  0  0  0
   55.1560   21.5180   47.8070 C   0  0  0  0  0  0  0  0  0  0  0  0
   54.2150   22.0200   46.9080 C   0  0  0  0  0  0  0  0  0  0  0  0
   54.4170   23.2580   46.2650 C   0  0  0  0  0  0  0  0  0  0  0  0
   53.3770   23.7580   45.2790 C   0  0  0  0  0  0  0  0  0  0  0  0
   52.2320   22.9800   45.3150 F   0  0  0  0  0  0  0  0  0  0  0  0
   53.0080   25.0580   45.5730 F   0  0  0  0  0  0  0  0  0  0  0  0
   53.9000   23.7100   44.0000 F   0  0  0  0  0  0  0  0  0  0  0  0
   58.3420   28.4520   46.2770 C   0  0  0  0  0  0  0  0  0  0  0  0
   58.1200   29.8150   46.0620 C   0  0  0  0  0  0  0  0  0  0  0  0
   58.1690   34.1390   43.9350 H   0  0  0  0  0  0  0  0  0  0  0  0
   59.2800   35.5170   44.1900 H   0  0  0  0  0  0  0  0  0  0  0  0
   60.5042   35.7462   46.3218 H   0  0  0  0  0  0  0  0  0  0  0  0
   60.7866   35.1051   48.7144 H   0  0  0  0  0  0  0  0  0  0  0  0
   59.3900   33.2868   49.6928 H   0  0  0  0  0  0  0  0  0  0  0  0
   57.7109   32.1014   48.2832 H   0  0  0  0  0  0  0  0  0  0  0  0
   57.2475   29.7081   42.7573 H   0  0  0  0  0  0  0  0  0  0  0  0
   57.6104   27.2765   43.1498 H   0  0  0  0  0  0  0  0  0  0  0  0
   59.1886   25.6732   44.9708 H   0  0  0  0  0  0  0  0  0  0  0  0
   58.3998   25.8793   46.5708 H   0  0  0  0  0  0  0  0  0  0  0  0
   56.2150   25.3013   43.0800 H   0  0  0  0  0  0  0  0  0  0  0  0
   58.0130   25.1535   43.1053 H   0  0  0  0  0  0  0  0  0  0  0  0
   58.4423   22.7255   45.1162 H   0  0  0  0  0  0  0  0  0  0  0  0
   57.5335   20.2898   44.4685 H   0  0  0  0  0  0  0  0  0  0  0  0
   55.3834   23.0224   42.0859 H   0  0  0  0  0  0  0  0  0  0  0  0
   57.4891   23.9964   47.6273 H   0  0  0  0  0  0  0  0  0  0  0  0
   57.0601   21.8352   48.7832 H   0  0  0  0  0  0  0  0  0  0  0  0
   54.9757   20.5566   48.3102 H   0  0  0  0  0  0  0  0  0  0  0  0
   53.3030   21.4420   46.6980 H   0  0  0  0  0  0  0  0  0  0  0  0
   58.6573   28.0991   47.2700 H   0  0  0  0  0  0  0  0  0  0  0  0
   58.2752   30.5306   46.8829 H   0  0  0  0  0  0  0  0  0  0  0  0
  1  2  1  0
  2  3  2  0
  3  4  1  0
  4  5  2  0
  5  6  1  0
  6  7  2  0
  7  8  1  0
  8  9  1  0
  9 10  2  0
  9 11  1  0
 11 12  2  0
 12 13  1  0
 13 14  2  0
 14 15  1  0
 15 16  1  0
 16 17  1  0
 17 18  1  0
 18 19  1  0
 19 20  2  0
 20 21  1  0
 21 22  1  0
 16 23  1  0
 23 24  2  0
 23 25  1  0
 25 26  2  0
 26 27  1  0
 27 28  2  0
 28 29  1  0
 29 30  2  0
 30 31  1  0
 31 32  1  0
 31 33  1  0
 31 34  1  0
 14 35  1  0
 35 36  2  0
  7  2  1  0
 36 11  1  0
 22 18  2  0
 30 25  1  0
  1 37  1  0
  1 38  1  0
  3 39  1  0
  4 40  1  0
  5 41  1  0
  6 42  1  0
 12 43  1  0
 13 44  1  0
 15 45  1  0
 15 46  1  0
 17 47  1  0
 17 48  1  0
 19 49  1  0
 20 50  1  0
 22 51  1  0
 26 52  1  0
 27 53  1  0
 28 54  1  0
 29 55  1  0
 35 56  1  0
 36 57  1  0
M  CHG  1   8  -1
M  END
>  <UniqueID>  (89) 
78

>  <SMILES>  (89) 
Nc1ccccc1[N-]C(=O)c1ccc(CN(Cc2ccoc2)C(=O)c2ccccc2C(F)(F)F)cc1

>  <Energy>  (89) 
97.41096806753121

>  <Genealogy>  (89) 
Nc1ccccc1[N-]C(=O)c1ccc(CN(Cc2ccoc2)C(=O)c2ccccc2C(F)(F)F)cc1 (protonated)
Nc1ccccc1[N-]C(=O)c1ccc(CN(Cc2ccoc2)C(=O)c2ccccc2C(F)(F)F)cc1 (3D coordinates assigned)
Nc1ccccc1[N-]C(=O)c1ccc(CN(Cc2ccoc2)C(=O)c2ccccc2C(F)(F)F)cc1 (optimized conformer: 97.41096806753121 kcal/mol)

>  <smiles>  (89) 
Nc1ccccc1NC(=O)c1ccc(CN(Cc2ccoc2)C(=O)c2ccccc2C(F)(F)F)cc1

>  <score_type>  (89) 
oracle

>  <origin>  (89) 
adg

>  <m_score__min__energy>  (89) 
-10.65

>  <m_primary>  (89) 
energy

$$$$
90:0
     RDKit          3D

 72 76  0  0  0  0  0  0  0  0999 V2000
   56.6210   21.7700   46.2720 C   0  0  0  0  0  0  0  0  0  0  0  0
   56.2170   23.0370   46.0190 C   0  0  0  0  0  0  0  0  0  0  0  0
   54.8240   23.2810   45.9490 C   0  0  0  0  0  0  0  0  0  0  0  0
   53.9020   22.2510   46.1390 O   0  0  0  0  0  0  0  0  0  0  0  0
   54.3390   24.5610   45.7000 C   0  0  0  0  0  0  0  0  0  0  0  0
   52.9690   24.7870   45.6300 O   0  0  0  0  0  0  0  0  0  0  0  0
   55.2160   25.6230   45.5200 C   0  0  0  0  0  0  0  0  0  0  0  0
   56.6110   25.4530   45.6410 C   0  0  0  0  0  0  0  0  0  0  0  0
   57.1270   24.1430   45.8780 C   0  0  0  0  0  0  0  0  0  0  0  0
   58.4690   24.0000   45.9810 C   0  0  0  0  0  0  0  0  0  0  0  0
   59.3630   25.1510   46.1550 C   0  0  0  0  0  0  0  0  0  0  0  0
   58.9030   26.4190   46.1030 C   0  0  0  0  0  0  0  0  0  0  0  0
   57.5780   26.6200   45.3200 C   0  0  1  0  0  0  0  0  0  0  0  0
   57.8720   26.5370   43.8010 C   0  0  0  0  0  0  0  0  0  0  0  0
   56.9190   28.0030   45.6100 C   0  0  0  0  0  0  0  0  0  0  0  0
   57.9070   29.1620   45.7410 C   0  0  0  0  0  0  0  0  0  0  0  0
   58.9070   28.8330   46.8720 C   0  0  1  0  0  0  0  0  0  0  0  0
   59.8280   27.6090   46.4890 C   0  0  2  0  0  0  0  0  0  0  0  0
   60.7450   27.8590   45.2490 C   0  0  0  0  0  0  0  0  0  0  0  0
   60.7640   27.2950   47.7280 C   0  0  0  0  0  0  0  0  0  0  0  0
   60.3540   27.9600   49.0480 C   0  0  0  0  0  0  0  0  0  0  0  0
   60.3450   29.5120   48.9320 C   0  0  2  0  0  0  0  0  0  0  0  0
   59.8980   30.1900   50.2860 C   0  0  0  0  0  0  0  0  0  0  0  0
   60.9330   29.8890   51.4100 C   0  0  0  0  0  0  0  0  0  0  0  0
   58.5210   29.6660   50.7930 C   0  0  0  0  0  0  0  0  0  0  0  0
   59.8630   31.7330   50.0830 C   0  0  1  0  0  0  0  0  0  0  0  0
   61.1700   32.2290   49.7470 O   0  0  0  0  0  0  0  0  0  0  0  0
   61.4310   33.5190   49.2660 C   0  0  0  0  0  0  0  0  0  0  0  0
   60.9600   34.5390   49.8510 O   0  0  0  0  0  0  0  0  0  0  0  0
   62.3530   33.6840   48.0990 C   0  0  0  0  0  0  0  0  0  0  0  0
   63.3590   34.5700   48.4350 F   0  0  0  0  0  0  0  0  0  0  0  0
   61.6630   34.1720   47.0020 F   0  0  0  0  0  0  0  0  0  0  0  0
   62.9100   32.4620   47.7760 F   0  0  0  0  0  0  0  0  0  0  0  0
   58.8800   32.1880   48.9910 C   0  0  0  0  0  0  0  0  0  0  0  0
   58.5240   31.1290   47.9380 C   0  0  0  0  0  0  0  0  0  0  0  0
   59.6140   30.0490   47.6100 C   0  0  2  0  0  0  0  0  0  0  0  0
   60.6500   30.7360   46.6760 C   0  0  0  0  0  0  0  0  0  0  0  0
   57.6942   21.5371   46.3347 H   0  0  0  0  0  0  0  0  0  0  0  0
   55.8761   20.9734   46.4149 H   0  0  0  0  0  0  0  0  0  0  0  0
   54.8140   26.6179   45.2779 H   0  0  0  0  0  0  0  0  0  0  0  0
   58.9029   22.9903   45.9328 H   0  0  0  0  0  0  0  0  0  0  0  0
   60.4344   24.9760   46.3322 H   0  0  0  0  0  0  0  0  0  0  0  0
   58.9201   26.2411   43.6460 H   0  0  0  0  0  0  0  0  0  0  0  0
   57.2083   25.7911   43.3393 H   0  0  0  0  0  0  0  0  0  0  0  0
   57.6964   27.5198   43.3393 H   0  0  0  0  0  0  0  0  0  0  0  0
   56.2270   28.2331   44.7865 H   0  0  0  0  0  0  0  0  0  0  0  0
   56.4147   27.9108   46.5832 H   0  0  0  0  0  0  0  0  0  0  0  0
   58.4499   29.2948   44.7936 H   0  0  0  0  0  0  0  0  0  0  0  0
   57.3669   30.0910   45.9759 H   0  0  0  0  0  0  0  0  0  0  0  0
   58.2796   28.4984   47.7113 H   0  0  0  0  0  0  0  0  0  0  0  0
   61.7543   28.1342   45.5889 H   0  0  0  0  0  0  0  0  0  0  0  0
   60.7994   26.9429   44.6425 H   0  0  0  0  0  0  0  0  0  0  0  0
   60.3269   28.6759   44.6425 H   0  0  0  0  0  0  0  0  0  0  0  0
   61.7808   27.6330   47.4793 H   0  0  0  0  0  0  0  0  0  0  0  0
   60.6875   26.2110   47.8984 H   0  0  0  0  0  0  0  0  0  0  0  0
   61.0668   27.6652   49.8322 H   0  0  0  0  0  0  0  0  0  0  0  0
   59.3350   27.6287   49.2969 H   0  0  0  0  0  0  0  0  0  0  0  0
   61.3833   29.8417   48.7797 H   0  0  0  0  0  0  0  0  0  0  0  0
   60.4579   30.0272   52.3925 H   0  0  0  0  0  0  0  0  0  0  0  0
   61.2853   28.8512   51.3157 H   0  0  0  0  0  0  0  0  0  0  0  0
   61.7869   30.5760   51.3157 H   0  0  0  0  0  0  0  0  0  0  0  0
   58.5124   29.6627   51.8930 H   0  0  0  0  0  0  0  0  0  0  0  0
   57.7198   30.3221   50.4220 H   0  0  0  0  0  0  0  0  0  0  0  0
   58.3587   28.6433   50.4220 H   0  0  0  0  0  0  0  0  0  0  0  0
   59.5181   32.1463   51.0423 H   0  0  0  0  0  0  0  0  0  0  0  0
   59.3270   33.0473   48.4696 H   0  0  0  0  0  0  0  0  0  0  0  0
   57.9399   32.4243   49.5109 H   0  0  0  0  0  0  0  0  0  0  0  0
   58.2904   31.6582   47.0024 H   0  0  0  0  0  0  0  0  0  0  0  0
   57.6878   30.5640   48.3756 H   0  0  0  0  0  0  0  0  0  0  0  0
   61.4135   31.2423   47.2849 H   0  0  0  0  0  0  0  0  0  0  0  0
   61.1311   29.9773   46.0412 H   0  0  0  0  0  0  0  0  0  0  0  0
   60.1383   31.4744   46.0412 H   0  0  0  0  0  0  0  0  0  0  0  0
  1  2  2  0
  2  3  1  0
  3  4  1  0
  3  5  2  0
  5  6  1  0
  5  7  1  0
  7  8  2  0
  8  9  1  0
  9 10  2  0
 10 11  1  0
 11 12  2  0
 12 13  1  0
 13 14  1  6
 13 15  1  0
 15 16  1  0
 16 17  1  0
 17 18  1  0
 18 19  1  6
 18 20  1  0
 20 21  1  0
 21 22  1  0
 22 23  1  0
 23 24  1  0
 23 25  1  0
 23 26  1  0
 26 27  1  0
 27 28  1  0
 28 29  2  0
 28 30  1  0
 30 31  1  0
 30 32  1  0
 30 33  1  0
 26 34  1  0
 34 35  1  0
 35 36  1  0
 36 37  1  6
  9  2  1  0
 18 12  1  0
 36 22  1  0
 13  8  1  0
 36 17  1  0
  1 38  1  0
  1 39  1  0
  7 40  1  0
 10 41  1  0
 11 42  1  0
 14 43  1  0
 14 44  1  0
 14 45  1  0
 15 46  1  0
 15 47  1  0
 16 48  1  0
 16 49  1  0
 17 50  1  1
 19 51  1  0
 19 52  1  0
 19 53  1  0
 20 54  1  0
 20 55  1  0
 21 56  1  0
 21 57  1  0
 22 58  1  6
 24 59  1  0
 24 60  1  0
 24 61  1  0
 25 62  1  0
 25 63  1  0
 25 64  1  0
 26 65  1  1
 34 66  1  0
 34 67  1  0
 35 68  1  0
 35 69  1  0
 37 70  1  0
 37 71  1  0
 37 72  1  0
M  CHG  2   4  -1   6  -1
M  END
>  <UniqueID>  (90) 
79

>  <SMILES>  (90) 
C=c1c([O-])c([O-])cc2c1=CC=C1C3(C)CCC4C(C)(C)C(OC(=O)C(F)(F)F)CCC4(C)[C@H]3CC[C@@]12C

>  <Energy>  (90) 
143.7680633685348

>  <Genealogy>  (90) 
C=c1c([O-])c([O-])cc2c1=CC=C1C2(C)CCC2C1(C)CCC1C(C)(C)C(OC(=O)C(F)(F)F)CCC21C (protonated)
C=c1c([O-])c([O-])cc2c1=CC=C1C3(C)CCC4C(C)(C)C(OC(=O)C(F)(F)F)CCC4(C)[C@H]3CC[C@@]12C (chirality)
C=c1c([O-])c([O-])cc2c1=CC=C1C3(C)CCC4C(C)(C)C(OC(=O)C(F)(F)F)CCC4(C)[C@H]3CC[C@@]12C (3D coordinates assigned)
C=c1c([O-])c([O-])cc2c1=CC=C1C3(C)CCC4C(C)(C)C(OC(=O)C(F)(F)F)CCC4(C)[C@H]3CC[C@@]12C (nonaromatic ring conformer: 143.7680633685348 kcal/mol)

>  <smiles>  (90) 
C=c1c(O)c(O)cc2c1=CC=C1C2(C)CCC2C1(C)CCC1C(C)(C)C(OC(=O)C(F)(F)F)CCC21C

>  <score_type>  (90) 
oracle

>  <origin>  (90) 
adg

>  <m_score__min__energy>  (90) 
-11.779999999999999

>  <m_primary>  (90) 
energy

$$$$
91:0
     RDKit          3D

 52 55  0  0  0  0  0  0  0  0999 V2000
   56.6440   22.3070   42.9840 C   0  0  0  0  0  0  0  0  0  0  0  0
   56.2870   21.4450   44.1660 C   0  0  0  0  0  0  0  0  0  0  0  0
   56.1640   20.0590   43.9580 C   0  0  0  0  0  0  0  0  0  0  0  0
   55.9140   19.1980   45.0270 C   0  0  0  0  0  0  0  0  0  0  0  0
   55.7940   19.7050   46.3180 C   0  0  0  0  0  0  0  0  0  0  0  0
   55.8900   21.0790   46.5420 C   0  0  0  0  0  0  0  0  0  0  0  0
   56.0940   21.9700   45.4730 C   0  0  0  0  0  0  0  0  0  0  0  0
   56.1230   23.4240   45.7680 C   0  0  0  0  0  0  0  0  0  0  0  0
   55.0630   24.3020   45.6040 C   0  0  0  0  0  0  0  0  0  0  0  0
   55.5350   25.5410   45.9860 C   0  0  0  0  0  0  0  0  0  0  0  0
   54.7760   26.7060   46.0050 O   0  0  0  0  0  0  0  0  0  0  0  0
   56.8290   25.4780   46.3550 N   0  0  0  0  0  0  0  0  0  0  0  0
   57.6350   26.5760   46.8940 C   0  0  0  0  0  0  0  0  0  0  0  0
   58.6890   27.0540   45.8840 C   0  0  0  0  0  0  0  0  0  0  0  0
   58.1550   27.2840   44.4980 C   0  0  0  0  0  0  0  0  0  0  0  0
   58.0960   26.3430   43.6610 O   0  0  0  0  0  0  0  0  0  0  0  0
   57.7800   28.6110   44.1140 N   0  0  0  0  0  0  0  0  0  0  0  0
   56.9260   29.4790   44.9210 C   0  0  0  0  0  0  0  0  0  0  0  0
   57.7580   30.3460   45.8700 C   0  0  0  0  0  0  0  0  0  0  0  0
   58.0870   31.6830   45.2770 C   0  0  0  0  0  0  0  0  0  0  0  0
   58.0210   32.0260   43.9300 C   0  0  0  0  0  0  0  0  0  0  0  0
   58.4320   33.3010   43.7480 N   0  0  0  0  0  0  0  0  0  0  0  0
   58.7700   33.7610   44.9650 C   0  0  0  0  0  0  0  0  0  0  0  0
   59.2700   35.0240   45.2830 C   0  0  0  0  0  0  0  0  0  0  0  0
   59.5790   35.2880   46.6290 C   0  0  0  0  0  0  0  0  0  0  0  0
   59.3810   34.2980   47.6160 C   0  0  0  0  0  0  0  0  0  0  0  0
   58.8710   33.0340   47.2670 C   0  0  0  0  0  0  0  0  0  0  0  0
   58.5750   32.8010   45.9250 C   0  0  0  0  0  0  0  0  0  0  0  0
   57.1950   24.1890   46.2050 C   0  0  0  0  0  0  0  0  0  0  0  0
   58.4810   23.7180   46.4390 O   0  0  0  0  0  0  0  0  0  0  0  0
   57.0424   23.2690   43.3388 H   0  0  0  0  0  0  0  0  0  0  0  0
   57.4050   21.7972   42.3749 H   0  0  0  0  0  0  0  0  0  0  0  0
   55.7454   22.4845   42.3749 H   0  0  0  0  0  0  0  0  0  0  0  0
   56.2660   19.6499   42.9420 H   0  0  0  0  0  0  0  0  0  0  0  0
   55.8116   18.1173   44.8495 H   0  0  0  0  0  0  0  0  0  0  0  0
   55.6232   19.0215   47.1628 H   0  0  0  0  0  0  0  0  0  0  0  0
   55.8051   21.4699   47.5667 H   0  0  0  0  0  0  0  0  0  0  0  0
   54.0523   24.0604   45.2432 H   0  0  0  0  0  0  0  0  0  0  0  0
   56.9713   27.4174   47.1421 H   0  0  0  0  0  0  0  0  0  0  0  0
   58.1584   26.2104   47.7897 H   0  0  0  0  0  0  0  0  0  0  0  0
   59.1145   27.9997   46.2510 H   0  0  0  0  0  0  0  0  0  0  0  0
   59.4376   26.2519   45.8051 H   0  0  0  0  0  0  0  0  0  0  0  0
   56.3457   30.1328   44.2534 H   0  0  0  0  0  0  0  0  0  0  0  0
   56.2563   28.8472   45.5229 H   0  0  0  0  0  0  0  0  0  0  0  0
   57.1887   30.5011   46.7984 H   0  0  0  0  0  0  0  0  0  0  0  0
   58.7051   29.8208   46.0629 H   0  0  0  0  0  0  0  0  0  0  0  0
   57.6824   31.3548   43.1270 H   0  0  0  0  0  0  0  0  0  0  0  0
   58.4790   33.8140   42.8420 H   0  0  0  0  0  0  0  0  0  0  0  0
   59.4177   35.7885   44.5060 H   0  0  0  0  0  0  0  0  0  0  0  0
   59.9777   36.2725   46.9150 H   0  0  0  0  0  0  0  0  0  0  0  0
   59.6273   34.5165   48.6656 H   0  0  0  0  0  0  0  0  0  0  0  0
   58.7112   32.2557   48.0277 H   0  0  0  0  0  0  0  0  0  0  0  0
  1  2  1  0
  2  3  2  0
  3  4  1  0
  4  5  2  0
  5  6  1  0
  6  7  2  0
  7  8  1  0
  8  9  1  0
  9 10  2  0
 10 11  1  0
 10 12  1  0
 12 13  1  0
 13 14  1  0
 14 15  1  0
 15 16  2  0
 15 17  1  0
 17 18  1  0
 18 19  1  0
 19 20  1  0
 20 21  2  0
 21 22  1  0
 22 23  1  0
 23 24  2  0
 24 25  1  0
 25 26  2  0
 26 27  1  0
 27 28  2  0
 12 29  1  0
 29 30  1  0
  7  2  1  0
 29  8  2  0
 28 20  1  0
 28 23  1  0
  1 31  1  0
  1 32  1  0
  1 33  1  0
  3 34  1  0
  4 35  1  0
  5 36  1  0
  6 37  1  0
  9 38  1  0
 13 39  1  0
 13 40  1  0
 14 41  1  0
 14 42  1  0
 18 43  1  0
 18 44  1  0
 19 45  1  0
 19 46  1  0
 21 47  1  0
 22 48  1  0
 24 49  1  0
 25 50  1  0
 26 51  1  0
 27 52  1  0
M  CHG  3  11  -1  17  -1  30  -1
M  END
>  <UniqueID>  (91) 
80

>  <SMILES>  (91) 
Cc1ccccc1-c1cc([O-])n(CCC(=O)[N-]CCc2c[nH]c3ccccc23)c1[O-]

>  <Energy>  (91) 
113.28922544696574

>  <Genealogy>  (91) 
Cc1ccccc1-c1cc([O-])n(CCC(=O)[N-]CCc2c[nH]c3ccccc23)c1[O-] (protonated)
Cc1ccccc1-c1cc([O-])n(CCC(=O)[N-]CCc2c[nH]c3ccccc23)c1[O-] (3D coordinates assigned)
Cc1ccccc1-c1cc([O-])n(CCC(=O)[N-]CCc2c[nH]c3ccccc23)c1[O-] (optimized conformer: 113.28922544696574 kcal/mol)

>  <smiles>  (91) 
Cc1ccccc1-c1cc(O)n(CCC(=O)NCCc2c[nH]c3ccccc23)c1O

>  <score_type>  (91) 
oracle

>  <origin>  (91) 
adg

>  <m_score__min__energy>  (91) 
-15.27

>  <m_primary>  (91) 
energy

$$$$
92:0
     RDKit          3D

 64 68  0  0  0  0  0  0  0  0999 V2000
   61.3320   30.3440   50.1210 O   0  0  0  0  0  0  0  0  0  0  0  0
   61.2070   30.7830   48.9450 C   0  0  0  0  0  0  0  0  0  0  0  0
   61.8370   32.0210   48.5730 N   0  0  0  0  0  0  0  0  0  0  0  0
   62.9750   32.5830   49.2490 C   0  0  0  0  0  0  0  0  0  0  0  0
   64.2440   32.0230   49.0410 C   0  0  0  0  0  0  0  0  0  0  0  0
   65.3580   32.5180   49.7220 C   0  0  0  0  0  0  0  0  0  0  0  0
   65.2170   33.5630   50.6450 C   0  0  0  0  0  0  0  0  0  0  0  0
   66.6270   34.1750   51.5170 S   0  0  0  0  0  0  0  0  0  0  0  0
   67.6900   34.5530   50.5240 O   0  0  0  0  0  0  0  0  0  0  0  0
   66.2350   35.4140   52.2750 O   0  0  0  0  0  0  0  0  0  0  0  0
   67.2890   33.0110   52.6400 N   0  0  0  0  0  0  0  0  0  0  0  0
   68.2680   32.1280   52.0070 C   0  0  0  0  0  0  0  0  0  0  0  0
   68.2720   30.8380   52.8160 C   0  0  0  0  0  0  0  0  0  0  0  0
   66.9760   30.8580   53.6150 C   0  0  0  0  0  0  0  0  0  0  0  0
   66.2600   32.1270   53.1830 C   0  0  0  0  0  0  0  0  0  0  0  0
   63.9510   34.1260   50.8590 C   0  0  0  0  0  0  0  0  0  0  0  0
   62.8360   33.6370   50.1720 C   0  0  0  0  0  0  0  0  0  0  0  0
   60.3640   30.0480   47.9740 C   0  0  0  0  0  0  0  0  0  0  0  0
   59.2630   29.2920   48.4150 C   0  0  0  0  0  0  0  0  0  0  0  0
   58.4530   28.6170   47.4960 C   0  0  0  0  0  0  0  0  0  0  0  0
   58.7360   28.6780   46.1240 C   0  0  0  0  0  0  0  0  0  0  0  0
   57.8630   27.9670   45.1260 C   0  0  0  0  0  0  0  0  0  0  0  0
   56.5030   28.5100   45.1620 N   0  0  0  0  0  0  0  0  0  0  0  0
   56.2610   29.6820   43.8990 S   0  0  0  0  0  0  0  0  0  0  0  0
   56.7520   29.1120   42.5990 O   0  0  0  0  0  0  0  0  0  0  0  0
   54.7960   29.9900   43.7600 O   0  0  0  0  0  0  0  0  0  0  0  0
   57.1700   31.1500   44.2550 C   0  0  0  0  0  0  0  0  0  0  0  0
   57.6620   31.9290   43.1990 C   0  0  0  0  0  0  0  0  0  0  0  0
   58.3980   33.0880   43.4580 C   0  0  0  0  0  0  0  0  0  0  0  0
   58.6530   33.4810   44.7800 C   0  0  0  0  0  0  0  0  0  0  0  0
   59.3940   34.6420   45.0520 C   0  0  0  0  0  0  0  0  0  0  0  0
   59.6430   35.0220   46.3760 C   0  0  0  0  0  0  0  0  0  0  0  0
   59.1570   34.2490   47.4330 C   0  0  0  0  0  0  0  0  0  0  0  0
   58.4180   33.0880   47.1750 C   0  0  0  0  0  0  0  0  0  0  0  0
   58.1610   32.6950   45.8520 C   0  0  0  0  0  0  0  0  0  0  0  0
   57.4230   31.5340   45.5800 C   0  0  0  0  0  0  0  0  0  0  0  0
   59.8490   29.4070   45.6830 C   0  0  0  0  0  0  0  0  0  0  0  0
   60.6560   30.0880   46.5990 C   0  0  0  0  0  0  0  0  0  0  0  0
   61.3900   32.5890   47.8190 H   0  0  0  0  0  0  0  0  0  0  0  0
   64.3626   31.1872   48.3358 H   0  0  0  0  0  0  0  0  0  0  0  0
   66.3515   32.0854   49.5330 H   0  0  0  0  0  0  0  0  0  0  0  0
   67.9779   31.9230   50.9659 H   0  0  0  0  0  0  0  0  0  0  0  0
   69.2665   32.5892   51.9880 H   0  0  0  0  0  0  0  0  0  0  0  0
   68.2987   29.9647   52.1477 H   0  0  0  0  0  0  0  0  0  0  0  0
   69.1543   30.7674   53.4691 H   0  0  0  0  0  0  0  0  0  0  0  0
   66.3659   29.9728   53.3823 H   0  0  0  0  0  0  0  0  0  0  0  0
   67.1615   30.8398   54.6991 H   0  0  0  0  0  0  0  0  0  0  0  0
   65.5090   31.8977   52.4126 H   0  0  0  0  0  0  0  0  0  0  0  0
   65.7325   32.5965   54.0264 H   0  0  0  0  0  0  0  0  0  0  0  0
   63.8345   34.9565   51.5709 H   0  0  0  0  0  0  0  0  0  0  0  0
   61.8448   34.0781   50.3535 H   0  0  0  0  0  0  0  0  0  0  0  0
   59.0374   29.2312   49.4899 H   0  0  0  0  0  0  0  0  0  0  0  0
   57.5896   28.0354   47.8513 H   0  0  0  0  0  0  0  0  0  0  0  0
   58.2809   28.1018   44.1174 H   0  0  0  0  0  0  0  0  0  0  0  0
   57.8279   26.8972   45.3796 H   0  0  0  0  0  0  0  0  0  0  0  0
   57.4675   31.6260   42.1596 H   0  0  0  0  0  0  0  0  0  0  0  0
   58.7786   33.6941   42.6226 H   0  0  0  0  0  0  0  0  0  0  0  0
   59.7796   35.2541   44.2233 H   0  0  0  0  0  0  0  0  0  0  0  0
   60.2235   35.9327   46.5848 H   0  0  0  0  0  0  0  0  0  0  0  0
   59.3554   34.5532   48.4713 H   0  0  0  0  0  0  0  0  0  0  0  0
   58.0379   32.4824   48.0109 H   0  0  0  0  0  0  0  0  0  0  0  0
   57.0407   30.9215   46.4099 H   0  0  0  0  0  0  0  0  0  0  0  0
   60.0888   29.4434   44.6101 H   0  0  0  0  0  0  0  0  0  0  0  0
   61.5255   30.6592   46.2417 H   0  0  0  0  0  0  0  0  0  0  0  0
  1  2  2  0
  2  3  1  0
  3  4  1  0
  4  5  2  0
  5  6  1  0
  6  7  2  0
  7  8  1  0
  8  9  2  0
  8 10  2  0
  8 11  1  0
 11 12  1  0
 12 13  1  0
 13 14  1  0
 14 15  1  0
  7 16  1  0
 16 17  2  0
  2 18  1  0
 18 19  2  0
 19 20  1  0
 20 21  2  0
 21 22  1  0
 22 23  1  0
 23 24  1  0
 24 25  2  0
 24 26  2  0
 24 27  1  0
 27 28  2  0
 28 29  1  0
 29 30  2  0
 30 31  1  0
 31 32  2  0
 32 33  1  0
 33 34  2  0
 34 35  1  0
 35 36  2  0
 21 37  1  0
 37 38  2  0
 17  4  1  0
 38 18  1  0
 15 11  1  0
 36 27  1  0
 35 30  1  0
  3 39  1  0
  5 40  1  0
  6 41  1  0
 12 42  1  0
 12 43  1  0
 13 44  1  0
 13 45  1  0
 14 46  1  0
 14 47  1  0
 15 48  1  0
 15 49  1  0
 16 50  1  0
 17 51  1  0
 19 52  1  0
 20 53  1  0
 22 54  1  0
 22 55  1  0
 28 56  1  0
 29 57  1  0
 31 58  1  0
 32 59  1  0
 33 60  1  0
 34 61  1  0
 36 62  1  0
 37 63  1  0
 38 64  1  0
M  CHG  1  23  -1
M  END
>  <UniqueID>  (92) 
81

>  <SMILES>  (92) 
O=C(Nc1ccc(S(=O)(=O)N2CCCC2)cc1)c1ccc(C[N-]S(=O)(=O)c2ccc3ccccc3c2)cc1

>  <Energy>  (92) 
78.15366515654912

>  <Genealogy>  (92) 
O=C(Nc1ccc(S(=O)(=O)N2CCCC2)cc1)c1ccc(C[N-]S(=O)(=O)c2ccc3ccccc3c2)cc1 (protonated)
O=C(Nc1ccc(S(=O)(=O)N2CCCC2)cc1)c1ccc(C[N-]S(=O)(=O)c2ccc3ccccc3c2)cc1 (3D coordinates assigned)
O=C(Nc1ccc(S(=O)(=O)N2CCCC2)cc1)c1ccc(C[N-]S(=O)(=O)c2ccc3ccccc3c2)cc1 (nonaromatic ring conformer: 78.15366515654912 kcal/mol)

>  <smiles>  (92) 
O=C(Nc1ccc(S(=O)(=O)N2CCCC2)cc1)c1ccc(CNS(=O)(=O)c2ccc3ccccc3c2)cc1

>  <score_type>  (92) 
oracle

>  <origin>  (92) 
adg

>  <m_score__min__energy>  (92) 
-11.529999999999999

>  <m_primary>  (92) 
energy

$$$$
93:0
     RDKit          3D

 39 41  0  0  0  0  0  0  0  0999 V2000
   55.0990   24.8470   47.1430 H   0  0  0  0  0  0  0  0  0  0  0  0
   55.9800   24.3920   47.3470 O   0  0  0  0  0  0  0  0  0  0  0  0
   57.1170   25.1460   47.5330 N   0  0  0  0  0  0  0  0  0  0  0  0
   57.4930   26.0630   46.6930 C   0  0  0  0  0  0  0  0  0  0  0  0
   56.5040   26.8410   45.9050 C   0  0  0  0  0  0  0  0  0  0  0  0
   55.2800   26.5580   45.9880 O   0  0  0  0  0  0  0  0  0  0  0  0
   56.9150   27.8520   44.9740 N   0  0  0  0  0  0  0  0  0  0  0  0
   56.3260   28.9980   44.7840 C   0  0  0  0  0  0  0  0  0  0  0  0
   55.4440   29.2427   45.3940 H   0  0  0  0  0  0  0  0  0  0  0  0
   56.7980   30.0030   43.7670 C   0  0  0  0  0  0  0  0  0  0  0  0
   57.5333   29.5267   43.1019 H   0  0  0  0  0  0  0  0  0  0  0  0
   55.9323   30.3543   43.1863 H   0  0  0  0  0  0  0  0  0  0  0  0
   57.4340   31.1760   44.4440 C   0  0  0  0  0  0  0  0  0  0  0  0
   57.4010   31.3520   45.7910 N   0  0  0  0  0  0  0  0  0  0  0  0
   58.0290   32.5260   45.9440 C   0  0  0  0  0  0  0  0  0  0  0  0
   58.2900   33.2060   47.1310 C   0  0  0  0  0  0  0  0  0  0  0  0
   57.9794   32.7946   48.1027 H   0  0  0  0  0  0  0  0  0  0  0  0
   58.9650   34.4380   47.0440 C   0  0  0  0  0  0  0  0  0  0  0  0
   59.1904   35.0047   47.9595 H   0  0  0  0  0  0  0  0  0  0  0  0
   59.3550   34.9510   45.7840 C   0  0  0  0  0  0  0  0  0  0  0  0
   59.8813   35.9152   45.7259 H   0  0  0  0  0  0  0  0  0  0  0  0
   59.0740   34.2360   44.6050 C   0  0  0  0  0  0  0  0  0  0  0  0
   59.3715   34.6227   43.6191 H   0  0  0  0  0  0  0  0  0  0  0  0
   58.4050   33.0200   44.7320 C   0  0  0  0  0  0  0  0  0  0  0  0
   58.0330   32.1820   43.7540 N   0  0  0  0  0  0  0  0  0  0  0  0
   58.9640   26.2370   46.4350 C   0  0  0  0  0  0  0  0  0  0  0  0
   59.5344   25.6590   47.1770 H   0  0  0  0  0  0  0  0  0  0  0  0
   59.1968   25.8781   45.4216 H   0  0  0  0  0  0  0  0  0  0  0  0
   59.3390   27.6900   46.5410 C   0  0  0  0  0  0  0  0  0  0  0  0
   59.0380   28.4180   47.7000 C   0  0  0  0  0  0  0  0  0  0  0  0
   58.4999   27.9385   48.5309 H   0  0  0  0  0  0  0  0  0  0  0  0
   59.4260   29.7570   47.7930 C   0  0  0  0  0  0  0  0  0  0  0  0
   59.1874   30.3357   48.6976 H   0  0  0  0  0  0  0  0  0  0  0  0
   60.0980   30.3470   46.7680 N   0  0  0  0  0  0  0  0  0  0  0  0
   60.3830   31.3490   46.8520 H   0  0  0  0  0  0  0  0  0  0  0  0
   60.4140   29.6590   45.6360 C   0  0  0  0  0  0  0  0  0  0  0  0
   60.9616   30.1599   44.8240 H   0  0  0  0  0  0  0  0  0  0  0  0
   60.0440   28.3180   45.5040 C   0  0  0  0  0  0  0  0  0  0  0  0
   60.3039   27.7588   44.5931 H   0  0  0  0  0  0  0  0  0  0  0  0
  1  2  1  0
  2  3  1  0
  3  4  2  3
  4  5  1  0
  5  6  2  0
  5  7  1  0
  7  8  2  0
  8  9  1  0
  8 10  1  0
 10 11  1  0
 10 12  1  0
 10 13  1  0
 13 14  2  0
 14 15  1  0
 15 16  2  0
 16 17  1  0
 16 18  1  0
 18 19  1  0
 18 20  2  0
 20 21  1  0
 20 22  1  0
 22 23  1  0
 22 24  2  0
 24 25  1  0
  4 26  1  0
 26 27  1  0
 26 28  1  0
 26 29  1  0
 29 30  2  0
 30 31  1  0
 30 32  1  0
 32 33  1  0
 32 34  2  0
 34 35  1  0
 34 36  1  0
 36 37  1  0
 36 38  2  0
 38 39  1  0
 25 13  1  0
 38 29  1  0
 24 15  1  0
M  CHG  2  25  -1  34   1
M  END
>  <UniqueID>  (93) 
82

>  <SMILES>  (93) 
O=C(/N=C\Cc1nc2ccccc2[n-]1)C(Cc1cc[nH+]cc1)=NO

>  <Energy>  (93) 
80.84753416659153

>  <Genealogy>  (93) 
O=C(N=CCc1nc2ccccc2[n-]1)C(Cc1cc[nH+]cc1)=NO (protonated)
O=C(/N=C\Cc1nc2ccccc2[n-]1)C(Cc1cc[nH+]cc1)=NO (cis-trans isomerization)
O=C(/N=C\Cc1nc2ccccc2[n-]1)C(Cc1cc[nH+]cc1)=NO (3D coordinates assigned)
O=C(/N=C\Cc1nc2ccccc2[n-]1)C(Cc1cc[nH+]cc1)=NO (optimized conformer: 80.84753416659153 kcal/mol)

>  <smiles>  (93) 
O=C(N=CCc1nc2ccccc2[nH]1)C(Cc1ccncc1)=NO

>  <score_type>  (93) 
oracle

>  <origin>  (93) 
adg

>  <m_score__min__energy>  (93) 
-9.3100000000000005

>  <m_primary>  (93) 
energy

$$$$
94:0
     RDKit          3D

 42 44  0  0  0  0  0  0  0  0999 V2000
   55.1520   28.9680   44.5640 N   0  0  0  0  0  0  0  0  0  0  0  0
   56.5550   29.9360   44.2800 S   0  0  0  0  0  0  0  0  0  0  0  0
   56.9800   29.7800   42.8460 O   0  0  0  0  0  0  0  0  0  0  0  0
   56.2330   31.3810   44.5350 O   0  0  0  0  0  0  0  0  0  0  0  0
   57.8510   29.4220   45.3560 C   0  0  0  0  0  0  0  0  0  0  0  0
   58.2190   28.0720   45.4360 C   0  0  0  0  0  0  0  0  0  0  0  0
   59.2320   27.6730   46.3110 C   0  0  0  0  0  0  0  0  0  0  0  0
   59.8850   28.6170   47.1070 C   0  0  0  0  0  0  0  0  0  0  0  0
   59.5390   29.9750   47.0250 C   0  0  0  0  0  0  0  0  0  0  0  0
   60.2140   30.9260   47.8640 N   0  0  0  0  0  0  0  0  0  0  0  0
   61.5700   31.3540   47.6540 C   0  0  0  0  0  0  0  0  0  0  0  0
   62.2680   30.8390   46.7390 O   0  0  0  0  0  0  0  0  0  0  0  0
   62.1720   32.3710   48.5450 C   0  0  0  0  0  0  0  0  0  0  0  0
   63.5630   32.3510   48.7470 C   0  0  0  0  0  0  0  0  0  0  0  0
   64.1650   33.2450   49.6340 C   0  0  0  0  0  0  0  0  0  0  0  0
   63.3880   34.1680   50.3320 C   0  0  0  0  0  0  0  0  0  0  0  0
   62.0060   34.2140   50.1330 C   0  0  0  0  0  0  0  0  0  0  0  0
   61.3850   33.3370   49.2260 C   0  0  0  0  0  0  0  0  0  0  0  0
   59.9260   33.4820   48.9960 C   0  0  0  0  0  0  0  0  0  0  0  0
   59.1430   33.3250   49.9720 O   0  0  0  0  0  0  0  0  0  0  0  0
   59.3680   33.8290   47.6640 C   0  0  0  0  0  0  0  0  0  0  0  0
   60.1290   34.5920   46.7590 C   0  0  0  0  0  0  0  0  0  0  0  0
   59.6030   34.9420   45.5110 C   0  0  0  0  0  0  0  0  0  0  0  0
   58.3170   34.5300   45.1520 C   0  0  0  0  0  0  0  0  0  0  0  0
   57.5580   33.7600   46.0350 C   0  0  0  0  0  0  0  0  0  0  0  0
   58.0810   33.4050   47.2820 C   0  0  0  0  0  0  0  0  0  0  0  0
   58.5040   30.3680   46.1580 C   0  0  0  0  0  0  0  0  0  0  0  0
   54.6810   29.3560   45.4120 H   0  0  0  0  0  0  0  0  0  0  0  0
   57.7094   27.3257   44.8089 H   0  0  0  0  0  0  0  0  0  0  0  0
   59.5164   26.6122   46.3734 H   0  0  0  0  0  0  0  0  0  0  0  0
   60.6745   28.2946   47.8018 H   0  0  0  0  0  0  0  0  0  0  0  0
   59.7560   31.1920   48.7640 H   0  0  0  0  0  0  0  0  0  0  0  0
   64.1826   31.6243   48.2012 H   0  0  0  0  0  0  0  0  0  0  0  0
   65.2547   33.2211   49.7824 H   0  0  0  0  0  0  0  0  0  0  0  0
   63.8639   34.8615   51.0409 H   0  0  0  0  0  0  0  0  0  0  0  0
   61.3986   34.9423   50.6904 H   0  0  0  0  0  0  0  0  0  0  0  0
   61.1437   34.9152   47.0347 H   0  0  0  0  0  0  0  0  0  0  0  0
   60.2027   35.5425   44.8111 H   0  0  0  0  0  0  0  0  0  0  0  0
   57.9025   34.8126   44.1731 H   0  0  0  0  0  0  0  0  0  0  0  0
   56.5475   33.4323   45.7494 H   0  0  0  0  0  0  0  0  0  0  0  0
   57.4824   32.7898   47.9699 H   0  0  0  0  0  0  0  0  0  0  0  0
   58.2047   31.4254   46.1089 H   0  0  0  0  0  0  0  0  0  0  0  0
  1  2  1  0
  2  3  2  0
  2  4  2  0
  2  5  1  0
  5  6  2  0
  6  7  1  0
  7  8  2  0
  8  9  1  0
  9 10  1  0
 10 11  1  0
 11 12  2  0
 11 13  1  0
 13 14  2  0
 14 15  1  0
 15 16  2  0
 16 17  1  0
 17 18  2  0
 18 19  1  0
 19 20  2  0
 19 21  1  0
 21 22  2  0
 22 23  1  0
 23 24  2  0
 24 25  1  0
 25 26  2  0
  9 27  2  0
 27  5  1  0
 18 13  1  0
 26 21  1  0
  1 28  1  0
  6 29  1  0
  7 30  1  0
  8 31  1  0
 10 32  1  0
 14 33  1  0
 15 34  1  0
 16 35  1  0
 17 36  1  0
 22 37  1  0
 23 38  1  0
 24 39  1  0
 25 40  1  0
 26 41  1  0
 27 42  1  0
M  CHG  1   1  -1
M  END
>  <UniqueID>  (94) 
83

>  <SMILES>  (94) 
[NH-]S(=O)(=O)c1cccc(NC(=O)c2ccccc2C(=O)c2ccccc2)c1

>  <Energy>  (94) 
59.37524927725114

>  <Genealogy>  (94) 
[NH-]S(=O)(=O)c1cccc(NC(=O)c2ccccc2C(=O)c2ccccc2)c1 (protonated)
[NH-]S(=O)(=O)c1cccc(NC(=O)c2ccccc2C(=O)c2ccccc2)c1 (3D coordinates assigned)
[NH-]S(=O)(=O)c1cccc(NC(=O)c2ccccc2C(=O)c2ccccc2)c1 (optimized conformer: 59.37524927725114 kcal/mol)

>  <smiles>  (94) 
NS(=O)(=O)c1cccc(NC(=O)c2ccccc2C(=O)c2ccccc2)c1

>  <score_type>  (94) 
oracle

>  <origin>  (94) 
adg

>  <m_score__min__energy>  (94) 
-12.65

>  <m_primary>  (94) 
energy

$$$$
