0:0
     RDKit          3D

 30 31  0  0  0  0  0  0  0  0999 V2000
   59.1972   35.9285   47.5840 H   0  0  0  0  0  0  0  0  0  0  0  0
   59.4930   34.8700   47.5390 C   0  0  0  0  0  0  0  0  0  0  0  0
   60.3250   34.3990   48.4180 N   0  0  0  0  0  0  0  0  0  0  0  0
   61.6210   33.8560   48.1300 C   0  0  0  0  0  0  0  0  0  0  0  0
   62.2930   33.8400   46.5930 S   0  0  0  0  0  0  0  0  0  0  0  0
   63.7120   33.0870   47.1000 C   0  0  0  0  0  0  0  0  0  0  0  0
   64.5647   32.8155   46.4603 H   0  0  0  0  0  0  0  0  0  0  0  0
   63.6150   32.8690   48.4710 C   0  0  0  0  0  0  0  0  0  0  0  0
   64.4155   32.3878   49.0521 H   0  0  0  0  0  0  0  0  0  0  0  0
   62.4560   33.2960   49.0370 N   0  0  0  0  0  0  0  0  0  0  0  0
   62.2600   33.1910   50.0550 H   0  0  0  0  0  0  0  0  0  0  0  0
   58.9390   34.0030   46.4800 C   0  0  0  0  0  0  0  0  0  0  0  0
   58.3030   32.7880   46.7840 C   0  0  0  0  0  0  0  0  0  0  0  0
   58.2109   32.4673   47.8322 H   0  0  0  0  0  0  0  0  0  0  0  0
   57.7860   31.9830   45.7640 C   0  0  0  0  0  0  0  0  0  0  0  0
   57.2902   31.0348   46.0193 H   0  0  0  0  0  0  0  0  0  0  0  0
   57.8920   32.3710   44.4130 C   0  0  0  0  0  0  0  0  0  0  0  0
   57.3570   31.5360   43.3520 N   0  0  0  0  0  0  0  0  0  0  0  0
   56.7420   30.2390   43.6620 C   0  0  0  0  0  0  0  0  0  0  0  0
   56.6822   30.1130   44.7531 H   0  0  0  0  0  0  0  0  0  0  0  0
   55.7300   30.2011   43.2325 H   0  0  0  0  0  0  0  0  0  0  0  0
   57.3531   29.4314   43.2325 H   0  0  0  0  0  0  0  0  0  0  0  0
   57.4200   31.9740   41.9530 C   0  0  0  0  0  0  0  0  0  0  0  0
   57.5765   33.0622   41.9162 H   0  0  0  0  0  0  0  0  0  0  0  0
   58.2543   31.4662   41.4470 H   0  0  0  0  0  0  0  0  0  0  0  0
   56.4764   31.7220   41.4470 H   0  0  0  0  0  0  0  0  0  0  0  0
   58.5330   33.5930   44.1180 C   0  0  0  0  0  0  0  0  0  0  0  0
   58.6280   33.9179   43.0714 H   0  0  0  0  0  0  0  0  0  0  0  0
   59.0490   34.3960   45.1400 C   0  0  0  0  0  0  0  0  0  0  0  0
   59.5458   35.3449   44.8894 H   0  0  0  0  0  0  0  0  0  0  0  0
  1  2  1  0
  2  3  2  0
  3  4  1  0
  4  5  1  0
  5  6  1  0
  6  7  1  0
  6  8  2  0
  8  9  1  0
  8 10  1  0
 10 11  1  0
  2 12  1  0
 12 13  2  0
 13 14  1  0
 13 15  1  0
 15 16  1  0
 15 17  2  0
 17 18  1  0
 18 19  1  0
 19 20  1  0
 19 21  1  0
 19 22  1  0
 18 23  1  0
 23 24  1  0
 23 25  1  0
 23 26  1  0
 17 27  1  0
 27 28  1  0
 27 29  2  0
 29 30  1  0
 10  4  2  0
 29 12  1  0
M  CHG  1  10   1
M  END
>  <UniqueID>  (1) 
1

>  <SMILES>  (1) 
CN(C)c1ccc(/C=N/c2[nH+]ccs2)cc1

>  <Energy>  (1) 
62.01045851574193

>  <Genealogy>  (1) 
CN(C)c1ccc(C=Nc2[nH+]ccs2)cc1 (protonated)
CN(C)c1ccc(/C=N/c2[nH+]ccs2)cc1 (cis-trans isomerization)
CN(C)c1ccc(/C=N/c2[nH+]ccs2)cc1 (3D coordinates assigned)
CN(C)c1ccc(/C=N/c2[nH+]ccs2)cc1 (optimized conformer: 62.01045851574193 kcal/mol)

>  <smiles>  (1) 
CN(C)c1ccc(C=Nc2nccs2)cc1

>  <score_type>  (1) 
oracle

>  <origin>  (1) 
adg

>  <m_score__min__energy>  (1) 
-4.6299999999999999

>  <m_primary>  (1) 
energy

$$$$
1:0
     RDKit          3D

 41 43  0  0  0  0  0  0  0  0999 V2000
   57.3100   24.9670   44.4340 C   0  0  0  0  0  0  0  0  0  0  0  0
   56.0940   24.8800   45.3530 C   0  0  0  0  0  0  0  0  0  0  0  0
   56.0210   26.0480   46.2310 N   0  0  0  0  0  0  0  0  0  0  0  0
   56.5750   27.1980   45.9870 C   0  0  0  0  0  0  0  0  0  0  0  0
   57.8140   27.4570   46.4780 N   0  0  0  0  0  0  0  0  0  0  0  0
   58.4300   28.6440   46.2450 C   0  0  0  0  0  0  0  0  0  0  0  0
   57.7960   29.6300   45.4760 C   0  0  0  0  0  0  0  0  0  0  0  0
   58.4540   30.9320   45.2230 C   0  0  0  0  0  0  0  0  0  0  0  0
   58.4680   31.4020   44.0520 O   0  0  0  0  0  0  0  0  0  0  0  0
   59.0720   31.6720   46.2900 N   0  0  0  0  0  0  0  0  0  0  0  0
   59.9480   32.8220   46.0350 C   0  0  2  0  0  0  0  0  0  0  0  0
   61.2250   32.7240   46.8570 C   0  0  0  0  0  0  0  0  0  0  0  0
   61.4390   31.6650   47.7620 C   0  0  0  0  0  0  0  0  0  0  0  0
   62.6140   31.6060   48.5170 C   0  0  0  0  0  0  0  0  0  0  0  0
   63.5850   32.6010   48.3820 C   0  0  0  0  0  0  0  0  0  0  0  0
   63.3820   33.6580   47.4900 C   0  0  0  0  0  0  0  0  0  0  0  0
   62.2100   33.7210   46.7320 C   0  0  0  0  0  0  0  0  0  0  0  0
   59.1510   34.1460   46.1920 C   0  0  0  0  0  0  0  0  0  0  0  0
   58.9230   34.9580   44.9240 C   0  0  0  0  0  0  0  0  0  0  0  0
   57.7490   34.2700   45.6020 C   0  0  0  0  0  0  0  0  0  0  0  0
   56.5120   29.3450   44.9860 C   0  0  0  0  0  0  0  0  0  0  0  0
   55.9350   28.1440   45.2470 N   0  0  0  0  0  0  0  0  0  0  0  0
   58.2247   25.0324   45.0414 H   0  0  0  0  0  0  0  0  0  0  0  0
   57.3548   24.0698   43.7992 H   0  0  0  0  0  0  0  0  0  0  0  0
   57.2266   25.8615   43.7992 H   0  0  0  0  0  0  0  0  0  0  0  0
   55.1817   24.8320   44.7403 H   0  0  0  0  0  0  0  0  0  0  0  0
   56.1860   23.9772   45.9746 H   0  0  0  0  0  0  0  0  0  0  0  0
   59.4305   28.8330   46.6612 H   0  0  0  0  0  0  0  0  0  0  0  0
   58.8540   31.4100   47.2780 H   0  0  0  0  0  0  0  0  0  0  0  0
   60.2948   32.8161   44.9911 H   0  0  0  0  0  0  0  0  0  0  0  0
   60.6767   30.8800   47.8749 H   0  0  0  0  0  0  0  0  0  0  0  0
   62.7743   30.7743   49.2188 H   0  0  0  0  0  0  0  0  0  0  0  0
   64.5088   32.5529   48.9772 H   0  0  0  0  0  0  0  0  0  0  0  0
   64.1466   34.4418   47.3846 H   0  0  0  0  0  0  0  0  0  0  0  0
   62.0562   34.5559   46.0325 H   0  0  0  0  0  0  0  0  0  0  0  0
   59.5717   34.3262   47.1923 H   0  0  0  0  0  0  0  0  0  0  0  0
   59.0076   36.0544   44.9510 H   0  0  0  0  0  0  0  0  0  0  0  0
   59.3478   34.9494   43.9094 H   0  0  0  0  0  0  0  0  0  0  0  0
   56.9852   34.8685   46.1201 H   0  0  0  0  0  0  0  0  0  0  0  0
   56.9740   33.5581   45.2819 H   0  0  0  0  0  0  0  0  0  0  0  0
   55.9725   30.0956   44.3898 H   0  0  0  0  0  0  0  0  0  0  0  0
  1  2  1  0
  2  3  1  0
  3  4  2  3
  4  5  1  0
  5  6  2  0
  6  7  1  0
  7  8  1  0
  8  9  2  0
  8 10  1  0
 10 11  1  0
 11 12  1  0
 12 13  2  0
 13 14  1  0
 14 15  2  0
 15 16  1  0
 16 17  2  0
 11 18  1  0
 18 19  1  0
 19 20  1  0
  7 21  2  0
 21 22  1  0
 22  4  1  0
 17 12  1  0
 20 18  1  0
  1 23  1  0
  1 24  1  0
  1 25  1  0
  2 26  1  0
  2 27  1  0
  6 28  1  0
 10 29  1  0
 11 30  1  6
 13 31  1  0
 14 32  1  0
 15 33  1  0
 16 34  1  0
 17 35  1  0
 18 36  1  0
 19 37  1  0
 19 38  1  0
 20 39  1  0
 20 40  1  0
 21 41  1  0
M  CHG  1  22  -1
M  END
>  <UniqueID>  (2) 
2

>  <SMILES>  (2) 
CCN=c1ncc(C(=O)N[C@H](c2ccccc2)C2CC2)c[n-]1

>  <Energy>  (2) 
309.5860943210814

>  <Genealogy>  (2) 
CCN=c1ncc(C(=O)NC(c2ccccc2)C2CC2)c[n-]1 (protonated)
CCN=c1ncc(C(=O)N[C@H](c2ccccc2)C2CC2)c[n-]1 (chirality)
CCN=c1ncc(C(=O)N[C@H](c2ccccc2)C2CC2)c[n-]1 (3D coordinates assigned)
CCN=c1ncc(C(=O)N[C@H](c2ccccc2)C2CC2)c[n-]1 (nonaromatic ring conformer: 309.5860943210814 kcal/mol)

>  <smiles>  (2) 
CCN=c1ncc(C(=O)NC(c2ccccc2)C2CC2)c[nH]1

>  <score_type>  (2) 
oracle

>  <origin>  (2) 
adg

>  <m_score__min__energy>  (2) 
-8.6199999999999992

>  <m_primary>  (2) 
energy

$$$$
2:0
     RDKit          3D

 49 52  0  0  1  0  0  0  0  0999 V2000
   54.3850   25.3840   45.9070 N   0  0  0  0  0  0  0  0  0  0  0  0
   55.6310   25.6570   45.7980 C   0  0  0  0  0  0  0  0  0  0  0  0
   55.9680   26.9760   45.7470 N   0  0  0  0  0  0  0  0  0  0  0  0
   57.2600   27.3400   45.6330 C   0  0  0  0  0  0  0  0  0  0  0  0
   57.6990   28.6780   45.5190 N   0  0  0  0  0  0  0  0  0  0  0  0
   57.6270   29.2790   44.1930 C   0  0  0  0  0  0  0  0  0  0  0  0
   56.8070   30.5820   44.3640 C   0  0  0  0  0  0  0  0  0  0  0  0
   57.4780   31.4690   45.2570 N   0  0  0  0  0  0  0  0  0  0  0  0
   57.9850   32.6730   44.5870 C   0  0  0  0  0  0  0  0  0  0  0  0
   57.5950   33.8860   45.3430 C   0  0  0  0  0  0  0  0  0  0  0  0
   56.5630   34.6560   44.8520 F   0  0  0  0  0  0  0  0  0  0  0  0
   58.1440   34.3090   46.4560 C   0  0  0  0  0  0  0  0  0  0  0  0
   59.4820   34.0410   46.9320 C   0  0  0  0  0  0  0  0  0  0  0  0
   59.6360   33.7940   48.2810 C   0  0  0  0  0  0  0  0  0  0  0  0
   60.8820   33.5570   48.8320 C   0  0  0  0  0  0  0  0  0  0  0  0
   62.0200   33.5600   48.0510 C   0  0  0  0  0  0  0  0  0  0  0  0
   61.8800   33.8060   46.6980 C   0  0  0  0  0  0  0  0  0  0  0  0
   60.6170   34.0420   46.1650 C   0  0  0  0  0  0  0  0  0  0  0  0
   58.5120   30.8960   46.0570 C   0  0  0  0  0  0  0  0  0  0  0  0
   58.1880   29.5110   46.5850 C   0  0  0  0  0  0  0  0  0  0  0  0
   58.2420   26.3890   45.5700 N   0  0  0  0  0  0  0  0  0  0  0  0
   57.9500   25.0800   45.6150 C   0  0  0  0  0  0  0  0  0  0  0  0
   58.9460   24.1370   45.5360 C   0  0  0  0  0  0  0  0  0  0  0  0
   58.6300   22.8050   45.5720 C   0  0  0  0  0  0  0  0  0  0  0  0
   57.3200   22.4040   45.6900 C   0  0  0  0  0  0  0  0  0  0  0  0
   56.3250   23.3820   45.7680 C   0  0  0  0  0  0  0  0  0  0  0  0
   56.6270   24.7100   45.7310 C   0  0  0  0  0  0  0  0  0  0  0  0
   53.6510   25.9210   46.3710 H   0  0  0  0  0  0  0  0  0  0  0  0
   58.6365   29.5078   43.8209 H   0  0  0  0  0  0  0  0  0  0  0  0
   57.1597   28.5992   43.4653 H   0  0  0  0  0  0  0  0  0  0  0  0
   56.6909   31.0701   43.3851 H   0  0  0  0  0  0  0  0  0  0  0  0
   55.8184   30.3339   44.7777 H   0  0  0  0  0  0  0  0  0  0  0  0
   59.0821   32.6200   44.5272 H   0  0  0  0  0  0  0  0  0  0  0  0
   57.5542   32.7278   43.5763 H   0  0  0  0  0  0  0  0  0  0  0  0
   57.5145   34.9397   47.1009 H   0  0  0  0  0  0  0  0  0  0  0  0
   58.7491   33.7855   48.9316 H   0  0  0  0  0  0  0  0  0  0  0  0
   60.9677   33.3627   49.9113 H   0  0  0  0  0  0  0  0  0  0  0  0
   63.0098   33.3721   48.4925 H   0  0  0  0  0  0  0  0  0  0  0  0
   62.7649   33.8151   46.0446 H   0  0  0  0  0  0  0  0  0  0  0  0
   60.5262   34.2369   45.0862 H   0  0  0  0  0  0  0  0  0  0  0  0
   59.4245   30.8287   45.4465 H   0  0  0  0  0  0  0  0  0  0  0  0
   58.6357   31.5496   46.9331 H   0  0  0  0  0  0  0  0  0  0  0  0
   59.0976   29.0616   47.0100 H   0  0  0  0  0  0  0  0  0  0  0  0
   57.4136   29.5937   47.3618 H   0  0  0  0  0  0  0  0  0  0  0  0
   59.2470   26.6780   45.4840 H   0  0  0  0  0  0  0  0  0  0  0  0
   59.9960   24.4515   45.4439 H   0  0  0  0  0  0  0  0  0  0  0  0
   59.4287   22.0515   45.5061 H   0  0  0  0  0  0  0  0  0  0  0  0
   57.0607   21.3355   45.7223 H   0  0  0  0  0  0  0  0  0  0  0  0
   55.2736   23.0725   45.8614 H   0  0  0  0  0  0  0  0  0  0  0  0
  1  2  2  3
  2  3  1  0
  3  4  2  0
  4  5  1  0
  5  6  1  0
  6  7  1  0
  7  8  1  0
  8  9  1  0
  9 10  1  0
 10 11  1  0
 10 12  2  0
 12 13  1  0
 13 14  2  0
 14 15  1  0
 15 16  2  0
 16 17  1  0
 17 18  2  0
  8 19  1  0
 19 20  1  0
  4 21  1  0
 21 22  1  0
 22 23  2  0
 23 24  1  0
 24 25  2  0
 25 26  1  0
 26 27  2  0
 27  2  1  0
 20  5  1  0
 27 22  1  0
 18 13  1  0
  1 28  1  0
  6 29  1  0
  6 30  1  0
  7 31  1  0
  7 32  1  0
  9 33  1  0
  9 34  1  0
 12 35  1  0
 14 36  1  0
 15 37  1  0
 16 38  1  0
 17 39  1  0
 18 40  1  0
 19 41  1  0
 19 42  1  0
 20 43  1  0
 20 44  1  0
 21 45  1  0
 23 46  1  0
 24 47  1  0
 25 48  1  0
 26 49  1  0
M  END
>  <smiles>  (3) 
N=c1nc(N2CCN(CC(F)=Cc3ccccc3)CC2)[nH]c2ccccc12

>  <score_type>  (3) 
oracle

>  <origin>  (3) 
adg

>  <m_score__min__energy>  (3) 
-8.9900000000000002

>  <m_primary>  (3) 
energy

$$$$
3:0
     RDKit          3D

 49 52  0  0  0  0  0  0  0  0999 V2000
   57.0220   31.0810   42.8510 C   0  0  0  0  0  0  0  0  0  0  0  0
   57.0830   29.7710   43.6620 C   0  0  0  0  0  0  0  0  0  0  0  0
   55.8280   29.6430   44.5400 C   0  0  0  0  0  0  0  0  0  0  0  0
   57.1500   28.6220   42.7500 N   0  0  0  0  0  0  0  0  0  0  0  0
   58.2990   29.7720   44.5610 C   0  0  0  0  0  0  0  0  0  0  0  0
   59.3360   28.9210   44.4180 N   0  0  0  0  0  0  0  0  0  0  0  0
   60.1260   29.1830   45.4140 O   0  0  0  0  0  0  0  0  0  0  0  0
   59.6030   30.1350   46.1450 C   0  0  0  0  0  0  0  0  0  0  0  0
   60.2130   30.6720   47.3300 N   0  0  0  0  0  0  0  0  0  0  0  0
   59.9710   30.0710   48.6160 C   0  0  0  0  0  0  0  0  0  0  0  0
   60.4170   28.9140   48.8490 O   0  0  0  0  0  0  0  0  0  0  0  0
   59.2580   30.7910   49.6900 C   0  0  0  0  0  0  0  0  0  0  0  0
   58.3370   30.2250   50.5660 C   0  0  0  0  0  0  0  0  0  0  0  0
   57.8600   31.1210   51.5310 C   0  0  0  0  0  0  0  0  0  0  0  0
   58.4060   32.3940   51.4280 C   0  0  0  0  0  0  0  0  0  0  0  0
   59.4830   32.4000   50.1400 S   0  0  0  0  0  0  0  0  0  0  0  0
   61.2410   31.6760   47.2070 C   0  0  0  0  0  0  0  0  0  0  0  0
   62.5580   31.3680   47.5930 C   0  0  0  0  0  0  0  0  0  0  0  0
   63.5550   32.3440   47.5550 C   0  0  0  0  0  0  0  0  0  0  0  0
   63.2500   33.6400   47.1390 C   0  0  0  0  0  0  0  0  0  0  0  0
   61.9480   33.9620   46.7490 C   0  0  0  0  0  0  0  0  0  0  0  0
   60.9370   32.9870   46.7670 C   0  0  0  0  0  0  0  0  0  0  0  0
   59.5840   33.3480   46.2890 C   0  0  0  0  0  0  0  0  0  0  0  0
   59.4050   33.8610   44.9930 C   0  0  0  0  0  0  0  0  0  0  0  0
   58.1260   34.2080   44.5470 C   0  0  0  0  0  0  0  0  0  0  0  0
   57.0200   34.0360   45.3830 C   0  0  0  0  0  0  0  0  0  0  0  0
   57.1900   33.5110   46.6660 C   0  0  0  0  0  0  0  0  0  0  0  0
   58.4680   33.1670   47.1200 C   0  0  0  0  0  0  0  0  0  0  0  0
   58.4200   30.5540   45.6560 N   0  0  0  0  0  0  0  0  0  0  0  0
   56.9821   31.9374   43.5402 H   0  0  0  0  0  0  0  0  0  0  0  0
   57.9174   31.1619   42.2171 H   0  0  0  0  0  0  0  0  0  0  0  0
   56.1230   31.0783   42.2171 H   0  0  0  0  0  0  0  0  0  0  0  0
   56.1180   29.6726   45.6007 H   0  0  0  0  0  0  0  0  0  0  0  0
   55.1428   30.4759   44.3239 H   0  0  0  0  0  0  0  0  0  0  0  0
   55.3250   28.6889   44.3239 H   0  0  0  0  0  0  0  0  0  0  0  0
   58.1480   28.3320   42.6240 H   0  0  0  0  0  0  0  0  0  0  0  0
   56.6510   27.8070   43.1810 H   0  0  0  0  0  0  0  0  0  0  0  0
   58.0146   29.1750   50.5064 H   0  0  0  0  0  0  0  0  0  0  0  0
   57.1224   30.8428   52.2982 H   0  0  0  0  0  0  0  0  0  0  0  0
   58.1730   33.2503   52.0780 H   0  0  0  0  0  0  0  0  0  0  0  0
   62.8043   30.3495   47.9276 H   0  0  0  0  0  0  0  0  0  0  0  0
   64.5830   32.0908   47.8536 H   0  0  0  0  0  0  0  0  0  0  0  0
   64.0358   34.4094   47.1181 H   0  0  0  0  0  0  0  0  0  0  0  0
   61.7126   34.9866   46.4254 H   0  0  0  0  0  0  0  0  0  0  0  0
   60.2722   33.9897   44.3286 H   0  0  0  0  0  0  0  0  0  0  0  0
   57.9903   34.6175   43.5351 H   0  0  0  0  0  0  0  0  0  0  0  0
   56.0156   34.3140   45.0309 H   0  0  0  0  0  0  0  0  0  0  0  0
   56.3177   33.3677   47.3207 H   0  0  0  0  0  0  0  0  0  0  0  0
   58.5982   32.7536   48.1310 H   0  0  0  0  0  0  0  0  0  0  0  0
  1  2  1  0
  2  3  1  0
  2  4  1  0
  2  5  1  0
  5  6  2  0
  6  7  1  0
  7  8  1  0
  8  9  1  0
  9 10  1  0
 10 11  2  0
 10 12  1  0
 12 13  2  0
 13 14  1  0
 14 15  2  0
 15 16  1  0
  9 17  1  0
 17 18  2  0
 18 19  1  0
 19 20  2  0
 20 21  1  0
 21 22  2  0
 22 23  1  0
 23 24  2  0
 24 25  1  0
 25 26  2  0
 26 27  1  0
 27 28  2  0
  8 29  2  0
 29  5  1  0
 16 12  1  0
 22 17  1  0
 28 23  1  0
  1 30  1  0
  1 31  1  0
  1 32  1  0
  3 33  1  0
  3 34  1  0
  3 35  1  0
  4 36  1  0
  4 37  1  0
 13 38  1  0
 14 39  1  0
 15 40  1  0
 18 41  1  0
 19 42  1  0
 20 43  1  0
 21 44  1  0
 24 45  1  0
 25 46  1  0
 26 47  1  0
 27 48  1  0
 28 49  1  0
M  END
>  <UniqueID>  (4) 
3

>  <SMILES>  (4) 
CC(C)(N)c1noc(N(C(=O)c2cccs2)c2ccccc2-c2ccccc2)n1

>  <Energy>  (4) 
122.62759853573135

>  <Genealogy>  (4) 
CC(C)(N)c1noc(N(C(=O)c2cccs2)c2ccccc2-c2ccccc2)n1 (3D coordinates assigned)
CC(C)(N)c1noc(N(C(=O)c2cccs2)c2ccccc2-c2ccccc2)n1 (optimized conformer: 122.62759853573135 kcal/mol)

>  <smiles>  (4) 
CC(C)(N)c1noc(N(C(=O)c2cccs2)c2ccccc2-c2ccccc2)n1

>  <score_type>  (4) 
oracle

>  <origin>  (4) 
adg

>  <m_score__min__energy>  (4) 
-9.2400000000000002

>  <m_primary>  (4) 
energy

$$$$
4:0
     RDKit          3D

 23 24  0  0  0  0  0  0  0  0999 V2000
   57.5000   27.5820   45.6280 O   0  0  0  0  0  0  0  0  0  0  0  0
   56.2510   27.7300   45.6000 C   0  0  0  0  0  0  0  0  0  0  0  0
   55.4120   26.6370   46.0010 N   0  0  0  0  0  0  0  0  0  0  0  0
   55.5710   25.2660   45.6100 C   0  0  0  0  0  0  0  0  0  0  0  0
   56.8230   24.7430   45.2380 C   0  0  0  0  0  0  0  0  0  0  0  0
   56.9410   23.4010   44.8620 C   0  0  0  0  0  0  0  0  0  0  0  0
   55.8170   22.5700   44.8720 C   0  0  0  0  0  0  0  0  0  0  0  0
   54.5760   23.0780   45.2630 C   0  0  0  0  0  0  0  0  0  0  0  0
   54.4540   24.4210   45.6380 C   0  0  0  0  0  0  0  0  0  0  0  0
   55.7090   28.9850   45.1700 N   0  0  0  0  0  0  0  0  0  0  0  0
   56.3980   29.9550   44.3750 C   0  0  0  0  0  0  0  0  0  0  0  0
   56.2910   30.1260   43.0000 C   0  0  0  0  0  0  0  0  0  0  0  0
   57.0640   31.1920   42.5260 C   0  0  0  0  0  0  0  0  0  0  0  0
   57.7600   31.8630   43.5240 C   0  0  0  0  0  0  0  0  0  0  0  0
   57.4140   31.1340   45.0020 S   0  0  0  0  0  0  0  0  0  0  0  0
   57.7116   25.3914   45.2429 H   0  0  0  0  0  0  0  0  0  0  0  0
   57.9189   22.9992   44.5582 H   0  0  0  0  0  0  0  0  0  0  0  0
   55.9098   21.5158   44.5719 H   0  0  0  0  0  0  0  0  0  0  0  0
   53.6933   22.4217   45.2762 H   0  0  0  0  0  0  0  0  0  0  0  0
   53.4772   24.8145   45.9559 H   0  0  0  0  0  0  0  0  0  0  0  0
   55.6661   29.4919   42.3539 H   0  0  0  0  0  0  0  0  0  0  0  0
   57.1157   31.4722   41.4636 H   0  0  0  0  0  0  0  0  0  0  0  0
   58.4255   32.7259   43.3738 H   0  0  0  0  0  0  0  0  0  0  0  0
  1  2  2  0
  2  3  1  0
  3  4  1  0
  4  5  2  0
  5  6  1  0
  6  7  2  0
  7  8  1  0
  8  9  2  0
  2 10  1  0
 10 11  1  0
 11 12  2  0
 12 13  1  0
 13 14  2  0
 14 15  1  0
  9  4  1  0
 15 11  1  0
  5 16  1  0
  6 17  1  0
  7 18  1  0
  8 19  1  0
  9 20  1  0
 12 21  1  0
 13 22  1  0
 14 23  1  0
M  CHG  2   3  -1  10  -1
M  END
>  <UniqueID>  (5) 
4

>  <SMILES>  (5) 
O=C([N-]c1ccccc1)[N-]c1cccs1

>  <Energy>  (5) 
56.57548799522383

>  <Genealogy>  (5) 
O=C([N-]c1ccccc1)[N-]c1cccs1 (protonated)
O=C([N-]c1ccccc1)[N-]c1cccs1 (3D coordinates assigned)
O=C([N-]c1ccccc1)[N-]c1cccs1 (optimized conformer: 56.57548799522383 kcal/mol)

>  <smiles>  (5) 
O=C(Nc1ccccc1)Nc1cccs1

>  <score_type>  (5) 
oracle

>  <origin>  (5) 
adg

>  <m_score__min__energy>  (5) 
-10.07

>  <m_primary>  (5) 
energy

$$$$
5:0
     RDKit          3D

 26 27  0  0  0  0  0  0  0  0999 V2000
   57.7560   31.8780   42.9260 C   0  0  0  0  0  0  0  0  0  0  0  0
   58.1860   31.5760   44.1580 C   0  0  0  0  0  0  0  0  0  0  0  0
   58.4290   32.6390   45.1710 C   0  0  0  0  0  0  0  0  0  0  0  0
   58.1430   32.4290   46.5360 C   0  0  0  0  0  0  0  0  0  0  0  0
   58.3890   33.4360   47.4740 C   0  0  0  0  0  0  0  0  0  0  0  0
   58.9270   34.6580   47.0670 C   0  0  0  0  0  0  0  0  0  0  0  0
   59.2220   34.8770   45.7200 C   0  0  0  0  0  0  0  0  0  0  0  0
   58.9790   33.8740   44.7770 C   0  0  0  0  0  0  0  0  0  0  0  0
   58.3740   30.1560   44.5370 C   0  0  0  0  0  0  0  0  0  0  0  0
   59.6270   29.7220   44.8700 N   0  0  0  0  0  0  0  0  0  0  0  0
   59.8680   28.4310   45.2250 C   0  0  0  0  0  0  0  0  0  0  0  0
   58.8280   27.5030   45.2470 C   0  0  0  0  0  0  0  0  0  0  0  0
   57.5430   27.9090   44.8930 C   0  0  0  0  0  0  0  0  0  0  0  0
   57.3020   29.2370   44.5300 C   0  0  0  0  0  0  0  0  0  0  0  0
   55.5330   29.7170   43.9630 Br  0  0  0  0  0  0  0  0  0  0  0  0
   57.5826   31.0770   42.1922 H   0  0  0  0  0  0  0  0  0  0  0  0
   57.5763   32.9270   42.6479 H   0  0  0  0  0  0  0  0  0  0  0  0
   57.7237   31.4666   46.8647 H   0  0  0  0  0  0  0  0  0  0  0  0
   58.1579   33.2649   48.5358 H   0  0  0  0  0  0  0  0  0  0  0  0
   59.1186   35.4485   47.8075 H   0  0  0  0  0  0  0  0  0  0  0  0
   59.6463   35.8402   45.4003 H   0  0  0  0  0  0  0  0  0  0  0  0
   59.2195   34.0510   43.7183 H   0  0  0  0  0  0  0  0  0  0  0  0
   60.4270   30.3940   44.8670 H   0  0  0  0  0  0  0  0  0  0  0  0
   60.8873   28.1183   45.4957 H   0  0  0  0  0  0  0  0  0  0  0  0
   59.0199   26.4605   45.5409 H   0  0  0  0  0  0  0  0  0  0  0  0
   56.7166   27.1830   44.8992 H   0  0  0  0  0  0  0  0  0  0  0  0
  1  2  2  0
  2  3  1  0
  3  4  2  0
  4  5  1  0
  5  6  2  0
  6  7  1  0
  7  8  2  0
  2  9  1  0
  9 10  2  0
 10 11  1  0
 11 12  2  0
 12 13  1  0
 13 14  2  0
 14 15  1  0
  8  3  1  0
 14  9  1  0
  1 16  1  0
  1 17  1  0
  4 18  1  0
  5 19  1  0
  6 20  1  0
  7 21  1  0
  8 22  1  0
 10 23  1  0
 11 24  1  0
 12 25  1  0
 13 26  1  0
M  CHG  1  10   1
M  END
>  <UniqueID>  (6) 
5

>  <SMILES>  (6) 
C=C(c1ccccc1)c1[nH+]cccc1Br

>  <Energy>  (6) 
37.370771618857255

>  <Genealogy>  (6) 
C=C(c1ccccc1)c1[nH+]cccc1Br (protonated)
C=C(c1ccccc1)c1[nH+]cccc1Br (3D coordinates assigned)
C=C(c1ccccc1)c1[nH+]cccc1Br (optimized conformer: 37.370771618857255 kcal/mol)

>  <smiles>  (6) 
C=C(c1ccccc1)c1ncccc1Br

>  <score_type>  (6) 
oracle

>  <origin>  (6) 
adg

>  <m_score__min__energy>  (6) 
-5.0300000000000002

>  <m_primary>  (6) 
energy

$$$$
6:0
     RDKit          3D

 45 48  0  0  0  0  0  0  0  0999 V2000
   56.5750   22.8570   47.2120 H   0  0  0  0  0  0  0  0  0  0  0  0
   57.2090   23.6510   46.9760 N   0  0  0  0  0  0  0  0  0  0  0  0
   56.7760   24.8110   46.5940 C   0  0  0  0  0  0  0  0  0  0  0  0
   57.5590   25.9390   46.4920 C   0  0  0  0  0  0  0  0  0  0  0  0
   58.6155   26.0602   46.7731 H   0  0  0  0  0  0  0  0  0  0  0  0
   56.7000   26.8890   45.9500 C   0  0  0  0  0  0  0  0  0  0  0  0
   57.0300   28.2940   45.6090 C   0  0  0  0  0  0  0  0  0  0  0  0
   56.3010   28.9610   44.6100 C   0  0  0  0  0  0  0  0  0  0  0  0
   55.4876   28.4368   44.0870 H   0  0  0  0  0  0  0  0  0  0  0  0
   56.6000   30.2840   44.2750 C   0  0  0  0  0  0  0  0  0  0  0  0
   56.0198   30.7908   43.4898 H   0  0  0  0  0  0  0  0  0  0  0  0
   57.6320   30.9730   44.9290 C   0  0  0  0  0  0  0  0  0  0  0  0
   57.9090   32.3350   44.5580 N   0  0  0  0  0  0  0  0  0  0  0  0
   58.0890   32.5600   43.5540 H   0  0  0  0  0  0  0  0  0  0  0  0
   57.8820   33.6700   45.6670 S   0  0  0  0  0  0  0  0  0  0  0  0
   57.8360   34.9580   44.8940 O   0  0  0  0  0  0  0  0  0  0  0  0
   56.6580   33.5720   46.5330 O   0  0  0  0  0  0  0  0  0  0  0  0
   59.3050   33.6260   46.6900 C   0  0  0  0  0  0  0  0  0  0  0  0
   60.8780   33.9130   46.1700 S   0  0  0  0  0  0  0  0  0  0  0  0
   61.5830   33.6720   47.6770 C   0  0  0  0  0  0  0  0  0  0  0  0
   63.2980   33.7880   48.0140 Cl  0  0  0  0  0  0  0  0  0  0  0  0
   60.5970   33.3620   48.6030 C   0  0  0  0  0  0  0  0  0  0  0  0
   60.8034   33.1571   49.6639 H   0  0  0  0  0  0  0  0  0  0  0  0
   59.3120   33.3370   48.0470 C   0  0  0  0  0  0  0  0  0  0  0  0
   58.4037   33.1119   48.6253 H   0  0  0  0  0  0  0  0  0  0  0  0
   58.3660   30.3060   45.9260 C   0  0  0  0  0  0  0  0  0  0  0  0
   59.1826   30.8295   46.4447 H   0  0  0  0  0  0  0  0  0  0  0  0
   58.0660   28.9830   46.2630 C   0  0  0  0  0  0  0  0  0  0  0  0
   58.6465   28.4760   47.0479 H   0  0  0  0  0  0  0  0  0  0  0  0
   55.4820   26.3390   45.7540 N   0  0  0  0  0  0  0  0  0  0  0  0
   55.5270   25.0780   46.1540 N   0  0  0  0  0  0  0  0  0  0  0  0
   54.3910   24.2000   46.1030 C   0  0  0  0  0  0  0  0  0  0  0  0
   54.3000   23.0910   46.9590 C   0  0  0  0  0  0  0  0  0  0  0  0
   55.1182   22.8721   47.6608 H   0  0  0  0  0  0  0  0  0  0  0  0
   53.1740   22.2640   46.9230 C   0  0  0  0  0  0  0  0  0  0  0  0
   53.1139   21.3897   47.5878 H   0  0  0  0  0  0  0  0  0  0  0  0
   52.1250   22.5450   46.0450 C   0  0  0  0  0  0  0  0  0  0  0  0
   51.2432   21.8880   46.0172 H   0  0  0  0  0  0  0  0  0  0  0  0
   52.1910   23.6620   45.1980 C   0  0  0  0  0  0  0  0  0  0  0  0
   51.0610   23.9820   44.2610 C   0  0  0  0  0  0  0  0  0  0  0  0
   50.2030   23.3359   44.4984 H   0  0  0  0  0  0  0  0  0  0  0  0
   51.4590   23.7590   42.9560 F   0  0  0  0  0  0  0  0  0  0  0  0
   50.6960   25.3080   44.4070 F   0  0  0  0  0  0  0  0  0  0  0  0
   53.3230   24.4920   45.2390 C   0  0  0  0  0  0  0  0  0  0  0  0
   53.3736   25.3781   44.5891 H   0  0  0  0  0  0  0  0  0  0  0  0
  1  2  1  0
  2  3  2  0
  3  4  1  0
  4  5  1  0
  4  6  2  0
  6  7  1  0
  7  8  2  0
  8  9  1  0
  8 10  1  0
 10 11  1  0
 10 12  2  0
 12 13  1  0
 13 14  1  0
 13 15  1  0
 15 16  2  0
 15 17  2  0
 15 18  1  0
 18 19  1  0
 19 20  1  0
 20 21  1  0
 20 22  2  0
 22 23  1  0
 22 24  1  0
 24 25  1  0
 12 26  1  0
 26 27  1  0
 26 28  2  0
 28 29  1  0
  6 30  1  0
 30 31  1  0
 31 32  1  0
 32 33  2  0
 33 34  1  0
 33 35  1  0
 35 36  1  0
 35 37  2  0
 37 38  1  0
 37 39  1  0
 39 40  1  0
 40 41  1  0
 40 42  1  0
 40 43  1  0
 39 44  2  0
 44 45  1  0
 31  3  1  0
 44 32  1  0
 28  7  1  0
 24 18  2  0
M  CHG  1  30  -1
M  END
>  <UniqueID>  (7) 
6

>  <SMILES>  (7) 
[H]/N=c1/cc(-c2ccc(NS(=O)(=O)c3ccc(Cl)s3)cc2)[n-]n1-c1cccc(C(F)F)c1

>  <Energy>  (7) 
117.30215524452271

>  <Genealogy>  (7) 
N=c1cc(-c2ccc(NS(=O)(=O)c3ccc(Cl)s3)cc2)[n-]n1-c1cccc(C(F)F)c1 (protonated)
[H]/N=c1/cc(-c2ccc(NS(=O)(=O)c3ccc(Cl)s3)cc2)[n-]n1-c1cccc(C(F)F)c1 (cis-trans isomerization)
[H]/N=c1/cc(-c2ccc(NS(=O)(=O)c3ccc(Cl)s3)cc2)[n-]n1-c1cccc(C(F)F)c1 (3D coordinates assigned)
[H]/N=c1/cc(-c2ccc(NS(=O)(=O)c3ccc(Cl)s3)cc2)[n-]n1-c1cccc(C(F)F)c1 (optimized conformer: 117.30215524452271 kcal/mol)

>  <smiles>  (7) 
N=c1cc(-c2ccc(NS(=O)(=O)c3ccc(Cl)s3)cc2)[nH]n1-c1cccc(C(F)F)c1

>  <score_type>  (7) 
oracle

>  <origin>  (7) 
adg

>  <m_score__min__energy>  (7) 
-10.27

>  <m_primary>  (7) 
energy

$$$$
7:0
     RDKit          3D

 39 41  0  0  0  0  0  0  0  0999 V2000
   57.2980   31.6360   41.5290 C   0  0  0  0  0  0  0  0  0  0  0  0
   57.4340   31.7190   43.0140 C   0  0  0  0  0  0  0  0  0  0  0  0
   58.0390   32.6940   43.6530 O   0  0  0  0  0  0  0  0  0  0  0  0
   57.9450   32.4300   44.9400 C   0  0  0  0  0  0  0  0  0  0  0  0
   58.4960   33.2900   46.0000 C   0  0  0  0  0  0  0  0  0  0  0  0
   59.0430   34.5450   45.6930 C   0  0  0  0  0  0  0  0  0  0  0  0
   59.5580   35.3390   46.7210 C   0  0  0  0  0  0  0  0  0  0  0  0
   59.5220   34.8780   48.0390 C   0  0  0  0  0  0  0  0  0  0  0  0
   58.9700   33.6250   48.3080 C   0  0  0  0  0  0  0  0  0  0  0  0
   58.4740   32.8670   47.2940 N   0  0  0  0  0  0  0  0  0  0  0  0
   57.2790   31.2800   45.1710 N   0  0  0  0  0  0  0  0  0  0  0  0
   56.9630   30.8170   43.9490 C   0  0  0  0  0  0  0  0  0  0  0  0
   56.1440   29.5910   43.6960 C   0  0  0  0  0  0  0  0  0  0  0  0
   55.9860   28.8430   44.9540 N   0  0  0  0  0  0  0  0  0  0  0  0
   57.1390   27.9940   45.3280 C   0  0  0  0  0  0  0  0  0  0  0  0
   57.7820   27.2670   44.1430 C   0  0  0  0  0  0  0  0  0  0  0  0
   59.0480   28.0410   43.8120 C   0  0  0  0  0  0  0  0  0  0  0  0
   59.4820   28.7170   45.1070 C   0  0  0  0  0  0  0  0  0  0  0  0
   58.2550   28.7920   46.0140 C   0  0  0  0  0  0  0  0  0  0  0  0
   56.3844   31.0784   41.2751 H   0  0  0  0  0  0  0  0  0  0  0  0
   57.2368   32.6509   41.1091 H   0  0  0  0  0  0  0  0  0  0  0  0
   58.1726   31.1176   41.1091 H   0  0  0  0  0  0  0  0  0  0  0  0
   59.0662   34.9007   44.6524 H   0  0  0  0  0  0  0  0  0  0  0  0
   59.9906   36.3243   46.4929 H   0  0  0  0  0  0  0  0  0  0  0  0
   59.9242   35.4956   48.8556 H   0  0  0  0  0  0  0  0  0  0  0  0
   58.9361   33.2500   49.3416 H   0  0  0  0  0  0  0  0  0  0  0  0
   57.0470   30.8450   46.0930 H   0  0  0  0  0  0  0  0  0  0  0  0
   55.1541   29.8826   43.3151 H   0  0  0  0  0  0  0  0  0  0  0  0
   56.6491   28.9577   42.9518 H   0  0  0  0  0  0  0  0  0  0  0  0
   55.1440   28.2270   44.8640 H   0  0  0  0  0  0  0  0  0  0  0  0
   56.7008   27.2571   46.0171 H   0  0  0  0  0  0  0  0  0  0  0  0
   58.0287   26.2310   44.4186 H   0  0  0  0  0  0  0  0  0  0  0  0
   57.1006   27.2221   43.2806 H   0  0  0  0  0  0  0  0  0  0  0  0
   59.8324   27.3560   43.4576 H   0  0  0  0  0  0  0  0  0  0  0  0
   58.8713   28.7775   43.0143 H   0  0  0  0  0  0  0  0  0  0  0  0
   60.2735   28.1272   45.5925 H   0  0  0  0  0  0  0  0  0  0  0  0
   59.8801   29.7227   44.9067 H   0  0  0  0  0  0  0  0  0  0  0  0
   58.4842   28.3529   46.9962 H   0  0  0  0  0  0  0  0  0  0  0  0
   57.9488   29.8364   46.1737 H   0  0  0  0  0  0  0  0  0  0  0  0
  1  2  1  0
  2  3  1  0
  3  4  1  0
  4  5  1  0
  5  6  2  0
  6  7  1  0
  7  8  2  0
  8  9  1  0
  9 10  2  0
  4 11  2  0
 11 12  1  0
 12 13  1  0
 13 14  1  0
 14 15  1  0
 15 16  1  0
 16 17  1  0
 17 18  1  0
 18 19  1  0
 12  2  2  0
 19 15  1  0
 10  5  1  0
  1 20  1  0
  1 21  1  0
  1 22  1  0
  6 23  1  0
  7 24  1  0
  8 25  1  0
  9 26  1  0
 11 27  1  0
 13 28  1  0
 13 29  1  0
 14 30  1  0
 15 31  1  0
 16 32  1  0
 16 33  1  0
 17 34  1  0
 17 35  1  0
 18 36  1  0
 18 37  1  0
 19 38  1  0
 19 39  1  0
M  CHG  1  11   1
M  END
>  <UniqueID>  (8) 
7

>  <SMILES>  (8) 
Cc1oc(-c2ccccn2)[nH+]c1CNC1CCCC1

>  <Energy>  (8) 
72.6217781068927

>  <Genealogy>  (8) 
Cc1oc(-c2ccccn2)[nH+]c1CNC1CCCC1 (protonated)
Cc1oc(-c2ccccn2)[nH+]c1CNC1CCCC1 (3D coordinates assigned)
Cc1oc(-c2ccccn2)[nH+]c1CNC1CCCC1 (nonaromatic ring conformer: 72.6217781068927 kcal/mol)

>  <smiles>  (8) 
Cc1oc(-c2ccccn2)nc1CNC1CCCC1

>  <score_type>  (8) 
oracle

>  <origin>  (8) 
adg

>  <m_score__min__energy>  (8) 
-5.96

>  <m_primary>  (8) 
energy

$$$$
8:0
     RDKit          3D

 31 32  0  0  0  0  0  0  0  0999 V2000
   64.2700   33.0730   48.5870 C   0  0  0  0  0  0  0  0  0  0  0  0
   63.5360   33.5380   47.4580 O   0  0  0  0  0  0  0  0  0  0  0  0
   62.2240   33.1470   47.1510 C   0  0  0  0  0  0  0  0  0  0  0  0
   61.3220   34.1260   46.7220 C   0  0  0  0  0  0  0  0  0  0  0  0
   60.0030   33.7870   46.4060 C   0  0  0  0  0  0  0  0  0  0  0  0
   59.5600   32.4610   46.5170 C   0  0  0  0  0  0  0  0  0  0  0  0
   58.1940   32.1490   46.1900 N   0  0  0  0  0  0  0  0  0  0  0  0
   57.7100   31.3040   44.7530 S   0  0  0  0  0  0  0  0  0  0  0  0
   58.5150   31.8090   43.5880 O   0  0  0  0  0  0  0  0  0  0  0  0
   56.2540   31.5650   44.4900 O   0  0  0  0  0  0  0  0  0  0  0  0
   57.9470   29.5780   44.9630 C   0  0  0  0  0  0  0  0  0  0  0  0
   59.1560   28.9470   44.6930 C   0  0  0  0  0  0  0  0  0  0  0  0
   58.9650   27.3050   44.9970 S   0  0  0  0  0  0  0  0  0  0  0  0
   57.3520   27.3880   45.4730 C   0  0  0  0  0  0  0  0  0  0  0  0
   56.5290   26.2440   45.8910 C   0  0  0  0  0  0  0  0  0  0  0  0
   55.1140   26.3780   45.9950 N   0  0  0  0  0  0  0  0  0  0  0  0
   57.0740   25.1410   46.1570 O   0  0  0  0  0  0  0  0  0  0  0  0
   56.9360   28.7120   45.4010 C   0  0  0  0  0  0  0  0  0  0  0  0
   60.4700   31.4730   46.9410 C   0  0  0  0  0  0  0  0  0  0  0  0
   61.7890   31.8140   47.2580 C   0  0  0  0  0  0  0  0  0  0  0  0
   63.7646   33.3932   49.5101 H   0  0  0  0  0  0  0  0  0  0  0  0
   64.3254   31.9747   48.5613 H   0  0  0  0  0  0  0  0  0  0  0  0
   65.2867   33.4921   48.5613 H   0  0  0  0  0  0  0  0  0  0  0  0
   61.6531   35.1712   46.6325 H   0  0  0  0  0  0  0  0  0  0  0  0
   59.3061   34.5677   46.0671 H   0  0  0  0  0  0  0  0  0  0  0  0
   57.4440   32.3730   46.8810 H   0  0  0  0  0  0  0  0  0  0  0  0
   60.0764   29.4366   44.3419 H   0  0  0  0  0  0  0  0  0  0  0  0
   54.6890   27.0910   46.6290 H   0  0  0  0  0  0  0  0  0  0  0  0
   55.9203   29.0451   45.6604 H   0  0  0  0  0  0  0  0  0  0  0  0
   60.1413   30.4265   47.0234 H   0  0  0  0  0  0  0  0  0  0  0  0
   62.4899   31.0351   47.5928 H   0  0  0  0  0  0  0  0  0  0  0  0
  1  2  1  0
  2  3  1  0
  3  4  2  0
  4  5  1  0
  5  6  2  0
  6  7  1  0
  7  8  1  0
  8  9  2  0
  8 10  2  0
  8 11  1  0
 11 12  2  0
 12 13  1  0
 13 14  1  0
 14 15  1  0
 15 16  1  0
 15 17  2  0
 14 18  2  0
  6 19  1  0
 19 20  2  0
 20  3  1  0
 18 11  1  0
  1 21  1  0
  1 22  1  0
  1 23  1  0
  4 24  1  0
  5 25  1  0
  7 26  1  0
 12 27  1  0
 16 28  1  0
 18 29  1  0
 19 30  1  0
 20 31  1  0
M  CHG  1  16  -1
M  END
>  <UniqueID>  (9) 
8

>  <SMILES>  (9) 
COc1ccc(NS(=O)(=O)c2csc(C([NH-])=O)c2)cc1

>  <Energy>  (9) 
57.424078627645926

>  <Genealogy>  (9) 
COc1ccc(NS(=O)(=O)c2csc(C([NH-])=O)c2)cc1 (protonated)
COc1ccc(NS(=O)(=O)c2csc(C([NH-])=O)c2)cc1 (3D coordinates assigned)
COc1ccc(NS(=O)(=O)c2csc(C([NH-])=O)c2)cc1 (optimized conformer: 57.424078627645926 kcal/mol)

>  <smiles>  (9) 
COc1ccc(NS(=O)(=O)c2csc(C(N)=O)c2)cc1

>  <score_type>  (9) 
oracle

>  <origin>  (9) 
adg

>  <m_score__min__energy>  (9) 
-10.109999999999999

>  <m_primary>  (9) 
energy

$$$$
9:0
     RDKit          3D

 19 19  0  0  0  0  0  0  0  0999 V2000
   54.3300   26.7110   46.7480 H   0  0  0  0  0  0  0  0  0  0  0  0
   54.8960   26.4590   45.9460 O   0  0  0  0  0  0  0  0  0  0  0  0
   56.2850   26.5650   45.9720 C   0  0  0  0  0  0  0  0  0  0  0  0
   57.0330   25.6320   46.6940 C   0  0  0  0  0  0  0  0  0  0  0  0
   56.5242   24.8176   47.2306 H   0  0  0  0  0  0  0  0  0  0  0  0
   58.4250   25.7310   46.7360 C   0  0  0  0  0  0  0  0  0  0  0  0
   59.0098   24.9985   47.3117 H   0  0  0  0  0  0  0  0  0  0  0  0
   59.0780   26.7590   46.0480 C   0  0  0  0  0  0  0  0  0  0  0  0
   60.1746   26.8344   46.0892 H   0  0  0  0  0  0  0  0  0  0  0  0
   58.3380   27.6990   45.3020 C   0  0  0  0  0  0  0  0  0  0  0  0
   58.9790   28.8160   44.5660 C   0  0  0  0  0  0  0  0  0  0  0  0
   59.9272   28.6169   44.0451 H   0  0  0  0  0  0  0  0  0  0  0  0
   58.4690   30.0550   44.4990 C   0  0  0  0  0  0  0  0  0  0  0  0
   59.1015   30.9094   44.7817 H   0  0  0  0  0  0  0  0  0  0  0  0
   57.1220   30.2970   44.0690 N   0  0  0  0  0  0  0  0  0  0  0  0
   56.3540   31.0370   44.7160 O   0  0  0  0  0  0  0  0  0  0  0  0
   56.6710   29.7090   42.9110 O   0  0  0  0  0  0  0  0  0  0  0  0
   56.9360   27.5980   45.2830 C   0  0  0  0  0  0  0  0  0  0  0  0
   56.3441   28.3364   44.7223 H   0  0  0  0  0  0  0  0  0  0  0  0
  1  2  1  0
  2  3  1  0
  3  4  2  0
  4  5  1  0
  4  6  1  0
  6  7  1  0
  6  8  2  0
  8  9  1  0
  8 10  1  0
 10 11  1  0
 11 12  1  0
 11 13  2  0
 13 14  1  0
 13 15  1  0
 15 16  2  0
 15 17  1  0
 10 18  2  0
 18 19  1  0
 18  3  1  0
M  CHG  2  15   1  17  -1
M  END
>  <UniqueID>  (10) 
9

>  <SMILES>  (10) 
O=[N+]([O-])/C=C/c1cccc(O)c1

>  <Energy>  (10) 
18.96203157577747

>  <Genealogy>  (10) 
O=[N+]([O-])/C=C/c1cccc(O)c1 (cis-trans isomerization)
O=[N+]([O-])/C=C/c1cccc(O)c1 (3D coordinates assigned)
O=[N+]([O-])/C=C/c1cccc(O)c1 (optimized conformer: 18.96203157577747 kcal/mol)

>  <smiles>  (10) 
O=[N+]([O-])C=Cc1cccc(O)c1

>  <score_type>  (10) 
oracle

>  <origin>  (10) 
adg

>  <m_score__min__energy>  (10) 
-6.5999999999999996

>  <m_primary>  (10) 
energy

$$$$
10:0
     RDKit          3D

 26 27  0  0  0  0  0  0  0  0999 V2000
   59.9560   35.1691   44.4294 H   0  0  0  0  0  0  0  0  0  0  0  0
   59.2380   34.4780   44.8950 C   0  0  0  0  0  0  0  0  0  0  0  0
   58.6160   33.4920   44.1230 C   0  0  0  0  0  0  0  0  0  0  0  0
   58.8403   33.4158   43.0488 H   0  0  0  0  0  0  0  0  0  0  0  0
   57.7060   32.5980   44.7120 C   0  0  0  0  0  0  0  0  0  0  0  0
   57.0240   31.5410   43.8830 C   0  0  0  0  0  0  0  0  0  0  0  0
   56.2148   32.0064   43.3011 H   0  0  0  0  0  0  0  0  0  0  0  0
   57.7680   31.0867   43.2121 H   0  0  0  0  0  0  0  0  0  0  0  0
   56.4600   30.4920   44.7340 N   0  0  0  0  0  0  0  0  0  0  0  0
   57.0060   29.3480   45.0480 C   0  0  0  0  0  0  0  0  0  0  0  0
   58.4040   29.1830   45.1470 C   0  0  0  0  0  0  0  0  0  0  0  0
   59.0772   30.0314   44.9545 H   0  0  0  0  0  0  0  0  0  0  0  0
   58.9260   27.9350   45.4910 C   0  0  0  0  0  0  0  0  0  0  0  0
   60.0144   27.7978   45.5726 H   0  0  0  0  0  0  0  0  0  0  0  0
   58.0690   26.8630   45.7310 C   0  0  0  0  0  0  0  0  0  0  0  0
   58.4736   25.8772   46.0039 H   0  0  0  0  0  0  0  0  0  0  0  0
   56.6910   27.0550   45.6210 C   0  0  0  0  0  0  0  0  0  0  0  0
   56.0045   26.2156   45.8057 H   0  0  0  0  0  0  0  0  0  0  0  0
   56.1930   28.2770   45.2860 N   0  0  0  0  0  0  0  0  0  0  0  0
   55.1560   28.3880   45.2120 H   0  0  0  0  0  0  0  0  0  0  0  0
   57.4100   32.7220   46.0800 C   0  0  0  0  0  0  0  0  0  0  0  0
   56.6845   32.0400   46.5474 H   0  0  0  0  0  0  0  0  0  0  0  0
   58.0340   33.7090   46.8500 C   0  0  0  0  0  0  0  0  0  0  0  0
   57.8054   33.7954   47.9225 H   0  0  0  0  0  0  0  0  0  0  0  0
   58.9480   34.5860   46.2580 C   0  0  0  0  0  0  0  0  0  0  0  0
   59.5500   35.5430   47.0060 F   0  0  0  0  0  0  0  0  0  0  0  0
  1  2  1  0
  2  3  2  0
  3  4  1  0
  3  5  1  0
  5  6  1  0
  6  7  1  0
  6  8  1  0
  6  9  1  0
  9 10  2  0
 10 11  1  0
 11 12  1  0
 11 13  2  0
 13 14  1  0
 13 15  1  0
 15 16  1  0
 15 17  2  0
 17 18  1  0
 17 19  1  0
 19 20  1  0
  5 21  2  0
 21 22  1  0
 21 23  1  0
 23 24  1  0
 23 25  2  0
 25 26  1  0
 25  2  1  0
 19 10  1  0
M  END
>  <UniqueID>  (11) 
10

>  <SMILES>  (11) 
Fc1ccc(C/N=c2\cccc[nH]2)cc1

>  <Energy>  (11) 
28.667700925601803

>  <Genealogy>  (11) 
Fc1ccc(C/N=c2\cccc[nH]2)cc1 (cis-trans isomerization)
Fc1ccc(C/N=c2\cccc[nH]2)cc1 (3D coordinates assigned)
Fc1ccc(C/N=c2\cccc[nH]2)cc1 (optimized conformer: 28.667700925601803 kcal/mol)

>  <smiles>  (11) 
Fc1ccc(CN=c2cccc[nH]2)cc1

>  <score_type>  (11) 
oracle

>  <origin>  (11) 
adg

>  <m_score__min__energy>  (11) 
-6.3200000000000003

>  <m_primary>  (11) 
energy

$$$$
11:0
     RDKit          3D

 66 71  0  0  1  0  0  0  0  0999 V2000
   60.2140   31.8810   46.2050 O   0  0  0  0  0  0  0  0  0  0  0  0
   59.0620   32.6320   45.5970 S   0  0  0  0  0  0  0  0  0  0  0  0
   59.6760   33.8230   44.9110 O   0  0  0  0  0  0  0  0  0  0  0  0
   58.1520   33.2690   46.9170 N   0  0  0  0  0  0  0  0  0  0  0  0
   58.6530   33.3080   48.2560 C   0  0  0  0  0  0  0  0  0  0  0  0
   59.6740   34.1770   48.6320 C   0  0  0  0  0  0  0  0  0  0  0  0
   60.1460   34.1950   49.9470 C   0  0  0  0  0  0  0  0  0  0  0  0
   59.6250   33.3660   50.9060 C   0  0  0  0  0  0  0  0  0  0  0  0
   60.0740   33.3390   52.2910 C   0  0  0  0  0  0  0  0  0  0  0  0
   61.3830   32.9330   52.5630 C   0  0  0  0  0  0  0  0  0  0  0  0
   61.8570   32.8930   53.8690 C   0  0  0  0  0  0  0  0  0  0  0  0
   61.0400   33.2520   54.9160 C   0  0  0  0  0  0  0  0  0  0  0  0
   59.7410   33.6570   54.6590 C   0  0  0  0  0  0  0  0  0  0  0  0
   59.2520   33.7030   53.3480 C   0  0  0  0  0  0  0  0  0  0  0  0
   58.6190   32.5050   50.5490 C   0  0  0  0  0  0  0  0  0  0  0  0
   58.1430   32.4760   49.2540 C   0  0  0  0  0  0  0  0  0  0  0  0
   58.0660   31.6940   44.5580 C   0  0  0  0  0  0  0  0  0  0  0  0
   57.8070   31.9650   43.2340 C   0  0  0  0  0  0  0  0  0  0  0  0
   57.0080   31.1950   42.4270 C   0  0  0  0  0  0  0  0  0  0  0  0
   56.4260   30.0770   42.9720 C   0  0  0  0  0  0  0  0  0  0  0  0
   56.6380   29.7380   44.2910 C   0  0  0  0  0  0  0  0  0  0  0  0
   56.0430   28.6050   44.8320 O   0  0  0  0  0  0  0  0  0  0  0  0
   57.4640   30.5390   45.1220 C   0  0  0  0  0  0  0  0  0  0  0  0
   57.7210   30.1000   46.3820 N   0  0  0  0  0  0  0  0  0  0  0  0
   58.6580   29.5060   46.9200 C   0  0  0  0  0  0  0  0  0  0  0  0
   59.4250   30.1570   47.8170 N   0  0  0  0  0  0  0  0  0  0  0  0
   60.4670   29.6160   48.4560 C   0  0  0  0  0  0  0  0  0  0  0  0
   61.1510   30.3290   49.3090 N   0  0  0  0  0  0  0  0  0  0  0  0
   62.1150   31.2840   48.8170 C   0  0  0  0  0  0  0  0  0  0  0  0
   62.5190   31.2510   47.4900 C   0  0  0  0  0  0  0  0  0  0  0  0
   63.4400   32.1930   47.0910 C   0  0  0  0  0  0  0  0  0  0  0  0
   63.9640   33.1450   47.9380 C   0  0  0  0  0  0  0  0  0  0  0  0
   63.5610   33.1810   49.2720 C   0  0  0  0  0  0  0  0  0  0  0  0
   62.6340   32.2390   49.6880 C   0  0  0  0  0  0  0  0  0  0  0  0
   60.7660   28.3380   48.1830 N   0  0  0  0  0  0  0  0  0  0  0  0
   60.0220   27.6550   47.2910 C   0  0  0  0  0  0  0  0  0  0  0  0
   60.3670   26.3600   47.0500 C   0  0  0  0  0  0  0  0  0  0  0  0
   59.6200   25.6500   46.1500 C   0  0  0  0  0  0  0  0  0  0  0  0
   58.5480   26.1370   45.4650 C   0  0  0  0  0  0  0  0  0  0  0  0
   58.2090   27.4790   45.7280 C   0  0  0  0  0  0  0  0  0  0  0  0
   58.9430   28.2020   46.6230 C   0  0  0  0  0  0  0  0  0  0  0  0
   57.1790   33.6640   46.8030 H   0  0  0  0  0  0  0  0  0  0  0  0
   60.1133   34.8560   47.8864 H   0  0  0  0  0  0  0  0  0  0  0  0
   60.9540   34.8902   50.2187 H   0  0  0  0  0  0  0  0  0  0  0  0
   62.0456   32.6419   51.7346 H   0  0  0  0  0  0  0  0  0  0  0  0
   62.8906   32.5727   54.0664 H   0  0  0  0  0  0  0  0  0  0  0  0
   61.4157   33.2176   55.9493 H   0  0  0  0  0  0  0  0  0  0  0  0
   59.0860   33.9458   55.4942 H   0  0  0  0  0  0  0  0  0  0  0  0
   58.2184   34.0270   53.1563 H   0  0  0  0  0  0  0  0  0  0  0  0
   58.1870   31.8304   51.3028 H   0  0  0  0  0  0  0  0  0  0  0  0
   57.3351   31.7741   48.9999 H   0  0  0  0  0  0  0  0  0  0  0  0
   58.2718   32.8591   42.7929 H   0  0  0  0  0  0  0  0  0  0  0  0
   56.8386   31.4653   41.3743 H   0  0  0  0  0  0  0  0  0  0  0  0
   55.7809   29.4425   42.3465 H   0  0  0  0  0  0  0  0  0  0  0  0
   56.3240   27.7090   44.4460 H   0  0  0  0  0  0  0  0  0  0  0  0
   59.2160   31.1670   48.0540 H   0  0  0  0  0  0  0  0  0  0  0  0
   62.1206   30.5044   46.7873 H   0  0  0  0  0  0  0  0  0  0  0  0
   63.7745   32.1853   46.0431 H   0  0  0  0  0  0  0  0  0  0  0  0
   64.6976   33.8739   47.5630 H   0  0  0  0  0  0  0  0  0  0  0  0
   63.9644   33.9302   49.9692 H   0  0  0  0  0  0  0  0  0  0  0  0
   62.2985   32.2455   50.7356 H   0  0  0  0  0  0  0  0  0  0  0  0
   61.5810   27.9250   48.6860 H   0  0  0  0  0  0  0  0  0  0  0  0
   61.2223   25.8976   47.5645 H   0  0  0  0  0  0  0  0  0  0  0  0
   59.9075   24.6044   45.9652 H   0  0  0  0  0  0  0  0  0  0  0  0
   57.9821   25.5208   44.7508 H   0  0  0  0  0  0  0  0  0  0  0  0
   57.3547   27.9429   45.2132 H   0  0  0  0  0  0  0  0  0  0  0  0
  1  2  2  0
  2  3  2  0
  2  4  1  0
  4  5  1  0
  5  6  2  0
  6  7  1  0
  7  8  2  0
  8  9  1  0
  9 10  2  0
 10 11  1  0
 11 12  2  0
 12 13  1  0
 13 14  2  0
  8 15  1  0
 15 16  2  0
  2 17  1  0
 17 18  2  0
 18 19  1  0
 19 20  2  0
 20 21  1  0
 21 22  1  0
 21 23  2  0
 23 24  1  0
 24 25  2  0
 25 26  1  0
 26 27  1  0
 27 28  2  0
 28 29  1  0
 29 30  2  0
 30 31  1  0
 31 32  2  0
 32 33  1  0
 33 34  2  0
 27 35  1  0
 35 36  1  0
 36 37  2  0
 37 38  1  0
 38 39  2  0
 39 40  1  0
 40 41  2  0
 16  5  1  0
 23 17  1  0
 41 25  1  0
 14  9  1  0
 34 29  1  0
 41 36  1  0
  4 42  1  0
  6 43  1  0
  7 44  1  0
 10 45  1  0
 11 46  1  0
 12 47  1  0
 13 48  1  0
 14 49  1  0
 15 50  1  0
 16 51  1  0
 18 52  1  0
 19 53  1  0
 20 54  1  0
 22 55  1  0
 26 56  1  0
 30 57  1  0
 31 58  1  0
 32 59  1  0
 33 60  1  0
 34 61  1  0
 35 62  1  0
 37 63  1  0
 38 64  1  0
 39 65  1  0
 40 66  1  0
M  END
>  <smiles>  (12) 
O=S(=O)(Nc1ccc(-c2ccccc2)cc1)c1cccc(O)c1N=c1[nH]c(=Nc2ccccc2)[nH]c2ccccc12

>  <score_type>  (12) 
oracle

>  <origin>  (12) 
adg

>  <m_score__min__energy>  (12) 
-12.06

>  <m_primary>  (12) 
energy

$$$$
12:0
     RDKit          3D

 41 43  0  0  0  0  0  0  0  0999 V2000
   58.1190   32.5860   42.6640 C   0  0  0  0  0  0  0  0  0  0  0  0
   58.3090   32.8790   44.1260 C   0  0  0  0  0  0  0  0  0  0  0  0
   58.9950   34.0430   44.5110 C   0  0  0  0  0  0  0  0  0  0  0  0
   59.1670   34.3510   45.8630 C   0  0  0  0  0  0  0  0  0  0  0  0
   58.6630   33.4970   46.8440 C   0  0  0  0  0  0  0  0  0  0  0  0
   57.9950   32.3280   46.4780 C   0  0  0  0  0  0  0  0  0  0  0  0
   57.8220   32.0000   45.1240 C   0  0  0  0  0  0  0  0  0  0  0  0
   57.1470   30.7820   44.7770 N   0  0  0  0  0  0  0  0  0  0  0  0
   55.9740   30.6430   44.1340 C   0  0  0  0  0  0  0  0  0  0  0  0
   55.6630   29.3420   43.9720 N   0  0  0  0  0  0  0  0  0  0  0  0
   56.6430   28.6340   44.5160 N   0  0  0  0  0  0  0  0  0  0  0  0
   57.5390   29.5140   44.9970 C   0  0  0  0  0  0  0  0  0  0  0  0
   59.0340   29.0330   45.8670 S   0  0  0  0  0  0  0  0  0  0  0  0
   58.1570   28.1050   47.1730 C   0  0  0  0  0  0  0  0  0  0  0  0
   58.0730   26.6510   46.8260 C   0  0  0  0  0  0  0  0  0  0  0  0
   58.3280   25.7890   47.7110 O   0  0  0  0  0  0  0  0  0  0  0  0
   57.6350   26.2520   45.5180 N   0  0  0  0  0  0  0  0  0  0  0  0
   57.6570   24.8950   45.0410 C   0  0  0  0  0  0  0  0  0  0  0  0
   56.6170   24.4400   44.2160 C   0  0  0  0  0  0  0  0  0  0  0  0
   56.6240   23.1330   43.7230 C   0  0  0  0  0  0  0  0  0  0  0  0
   57.6780   22.2710   44.0370 C   0  0  0  0  0  0  0  0  0  0  0  0
   58.7360   22.7170   44.8400 C   0  0  0  0  0  0  0  0  0  0  0  0
   59.8250   21.8410   45.1460 N   0  0  0  0  0  0  0  0  0  0  0  0
   58.7270   24.0290   45.3350 C   0  0  0  0  0  0  0  0  0  0  0  0
   57.5238   31.6682   42.5483 H   0  0  0  0  0  0  0  0  0  0  0  0
   57.5935   33.4264   42.1869 H   0  0  0  0  0  0  0  0  0  0  0  0
   59.1006   32.4490   42.1869 H   0  0  0  0  0  0  0  0  0  0  0  0
   59.3999   34.7173   43.7420 H   0  0  0  0  0  0  0  0  0  0  0  0
   59.7004   35.2679   46.1541 H   0  0  0  0  0  0  0  0  0  0  0  0
   58.7924   33.7455   47.9077 H   0  0  0  0  0  0  0  0  0  0  0  0
   57.6008   31.6582   47.2564 H   0  0  0  0  0  0  0  0  0  0  0  0
   55.3511   31.4804   43.7864 H   0  0  0  0  0  0  0  0  0  0  0  0
   58.7001   28.2184   48.1228 H   0  0  0  0  0  0  0  0  0  0  0  0
   57.1366   28.5052   47.2657 H   0  0  0  0  0  0  0  0  0  0  0  0
   57.1870   26.9760   44.9130 H   0  0  0  0  0  0  0  0  0  0  0  0
   55.7903   25.1174   43.9557 H   0  0  0  0  0  0  0  0  0  0  0  0
   55.7984   22.7818   43.0865 H   0  0  0  0  0  0  0  0  0  0  0  0
   57.6771   21.2402   43.6530 H   0  0  0  0  0  0  0  0  0  0  0  0
   59.6520   20.8560   45.4460 H   0  0  0  0  0  0  0  0  0  0  0  0
   60.8130   22.1720   45.0730 H   0  0  0  0  0  0  0  0  0  0  0  0
   59.5618   24.3838   45.9573 H   0  0  0  0  0  0  0  0  0  0  0  0
  1  2  1  0
  2  3  2  0
  3  4  1  0
  4  5  2  0
  5  6  1  0
  6  7  2  0
  7  8  1  0
  8  9  1  0
  9 10  2  0
 10 11  1  0
 11 12  2  0
 12 13  1  0
 13 14  1  0
 14 15  1  0
 15 16  2  0
 15 17  1  0
 17 18  1  0
 18 19  2  0
 19 20  1  0
 20 21  2  0
 21 22  1  0
 22 23  1  0
 22 24  2  0
  7  2  1  0
 12  8  1  0
 24 18  1  0
  1 25  1  0
  1 26  1  0
  1 27  1  0
  3 28  1  0
  4 29  1  0
  5 30  1  0
  6 31  1  0
  9 32  1  0
 14 33  1  0
 14 34  1  0
 17 35  1  0
 19 36  1  0
 20 37  1  0
 21 38  1  0
 23 39  1  0
 23 40  1  0
 24 41  1  0
M  END
>  <UniqueID>  (13) 
11

>  <SMILES>  (13) 
Cc1ccccc1-n1cnnc1SCC(=O)Nc1cccc(N)c1

>  <Energy>  (13) 
80.93347243554913

>  <Genealogy>  (13) 
Cc1ccccc1-n1cnnc1SCC(=O)Nc1cccc(N)c1 (3D coordinates assigned)
Cc1ccccc1-n1cnnc1SCC(=O)Nc1cccc(N)c1 (optimized conformer: 80.93347243554913 kcal/mol)

>  <smiles>  (13) 
Cc1ccccc1-n1cnnc1SCC(=O)Nc1cccc(N)c1

>  <score_type>  (13) 
oracle

>  <origin>  (13) 
adg

>  <m_score__min__energy>  (13) 
-8.1699999999999999

>  <m_primary>  (13) 
energy

$$$$
13:0
     RDKit          3D

 41 43  0  0  0  0  0  0  0  0999 V2000
   56.6948   20.2137   42.1254 H   0  0  0  0  0  0  0  0  0  0  0  0
   56.6200   20.8870   42.9920 C   0  0  0  0  0  0  0  0  0  0  0  0
   56.6300   22.2730   42.8040 C   0  0  0  0  0  0  0  0  0  0  0  0
   56.7151   22.6888   41.7892 H   0  0  0  0  0  0  0  0  0  0  0  0
   56.5320   23.1310   43.9040 C   0  0  0  0  0  0  0  0  0  0  0  0
   56.5435   24.2206   43.7538 H   0  0  0  0  0  0  0  0  0  0  0  0
   56.4190   22.6030   45.1990 C   0  0  0  0  0  0  0  0  0  0  0  0
   56.3200   23.6800   46.5870 S   0  0  0  0  0  0  0  0  0  0  0  0
   54.9950   23.4990   47.2750 O   0  0  0  0  0  0  0  0  0  0  0  0
   57.4120   23.3660   47.5710 O   0  0  0  0  0  0  0  0  0  0  0  0
   56.4780   25.3370   46.0460 C   0  0  0  0  0  0  0  0  0  0  0  0
   55.4870   26.2510   46.1270 N   0  0  0  0  0  0  0  0  0  0  0  0
   55.8310   27.4370   45.6290 N   0  0  0  0  0  0  0  0  0  0  0  0
   55.1480   28.2220   45.5990 H   0  0  0  0  0  0  0  0  0  0  0  0
   57.0990   27.4690   45.1480 C   0  0  0  0  0  0  0  0  0  0  0  0
   57.6720   28.4920   44.5820 N   0  0  0  0  0  0  0  0  0  0  0  0
   57.1890   29.8420   44.4930 C   0  0  0  0  0  0  0  0  0  0  0  0
   56.0320   30.1510   44.8840 O   0  0  0  0  0  0  0  0  0  0  0  0
   58.1180   30.9160   44.0320 C   0  0  0  0  0  0  0  0  0  0  0  0
   57.5356   31.7902   43.7057 H   0  0  0  0  0  0  0  0  0  0  0  0
   58.7214   30.5445   43.1906 H   0  0  0  0  0  0  0  0  0  0  0  0
   58.9760   31.2900   45.1050 O   0  0  0  0  0  0  0  0  0  0  0  0
   59.0530   32.5810   45.6550 C   0  0  0  0  0  0  0  0  0  0  0  0
   59.0650   33.7350   44.8470 C   0  0  0  0  0  0  0  0  0  0  0  0
   59.0110   33.6368   43.7527 H   0  0  0  0  0  0  0  0  0  0  0  0
   59.1450   35.0030   45.4270 C   0  0  0  0  0  0  0  0  0  0  0  0
   59.1520   35.8991   44.7891 H   0  0  0  0  0  0  0  0  0  0  0  0
   59.2160   35.1350   46.8140 C   0  0  0  0  0  0  0  0  0  0  0  0
   59.2815   36.1349   47.2678 H   0  0  0  0  0  0  0  0  0  0  0  0
   59.2040   34.0000   47.6270 C   0  0  0  0  0  0  0  0  0  0  0  0
   59.2614   34.1092   48.7201 H   0  0  0  0  0  0  0  0  0  0  0  0
   59.1190   32.7190   47.0560 C   0  0  0  0  0  0  0  0  0  0  0  0
   59.1130   31.5010   47.9360 C   0  0  0  0  0  0  0  0  0  0  0  0
   59.1145   31.8111   48.9914 H   0  0  0  0  0  0  0  0  0  0  0  0
   58.2119   30.9045   47.7304 H   0  0  0  0  0  0  0  0  0  0  0  0
   60.0082   30.8957   47.7304 H   0  0  0  0  0  0  0  0  0  0  0  0
   57.8560   25.9750   45.3160 S   0  0  0  0  0  0  0  0  0  0  0  0
   56.4170   21.2130   45.3840 C   0  0  0  0  0  0  0  0  0  0  0  0
   56.3382   20.7942   46.3981 H   0  0  0  0  0  0  0  0  0  0  0  0
   56.5150   20.3580   44.2810 C   0  0  0  0  0  0  0  0  0  0  0  0
   56.5094   19.2680   44.4287 H   0  0  0  0  0  0  0  0  0  0  0  0
  1  2  1  0
  2  3  2  0
  3  4  1  0
  3  5  1  0
  5  6  1  0
  5  7  2  0
  7  8  1  0
  8  9  2  0
  8 10  2  0
  8 11  1  0
 11 12  2  0
 12 13  1  0
 13 14  1  0
 13 15  1  0
 15 16  2  0
 16 17  1  0
 17 18  2  0
 17 19  1  0
 19 20  1  0
 19 21  1  0
 19 22  1  0
 22 23  1  0
 23 24  2  0
 24 25  1  0
 24 26  1  0
 26 27  1  0
 26 28  2  0
 28 29  1  0
 28 30  1  0
 30 31  1  0
 30 32  2  0
 32 33  1  0
 33 34  1  0
 33 35  1  0
 33 36  1  0
 15 37  1  0
  7 38  1  0
 38 39  1  0
 38 40  2  0
 40 41  1  0
 40  2  1  0
 37 11  1  0
 32 23  1  0
M  END
>  <UniqueID>  (14) 
12

>  <SMILES>  (14) 
Cc1ccccc1OCC(=O)/N=c1\[nH]nc(S(=O)(=O)c2ccccc2)s1

>  <Energy>  (14) 
82.2800729585072

>  <Genealogy>  (14) 
Cc1ccccc1OCC(=O)/N=c1\[nH]nc(S(=O)(=O)c2ccccc2)s1 (cis-trans isomerization)
Cc1ccccc1OCC(=O)/N=c1\[nH]nc(S(=O)(=O)c2ccccc2)s1 (3D coordinates assigned)
Cc1ccccc1OCC(=O)/N=c1\[nH]nc(S(=O)(=O)c2ccccc2)s1 (optimized conformer: 82.2800729585072 kcal/mol)

>  <smiles>  (14) 
Cc1ccccc1OCC(=O)N=c1[nH]nc(S(=O)(=O)c2ccccc2)s1

>  <score_type>  (14) 
oracle

>  <origin>  (14) 
adg

>  <m_score__min__energy>  (14) 
-8.9299999999999997

>  <m_primary>  (14) 
energy

$$$$
14:0
     RDKit          3D

 27 29  0  0  0  0  0  0  0  0999 V2000
   58.2410   24.2760   46.0880 H   0  0  0  0  0  0  0  0  0  0  0  0
   58.1480   23.3260   46.4240 O   0  0  0  0  0  0  0  0  0  0  0  0
   57.0550   22.9170   47.1840 C   0  0  0  0  0  0  0  0  0  0  0  0
   57.0680   21.7990   47.9340 N   0  0  0  0  0  0  0  0  0  0  0  0
   55.8810   21.7850   48.5790 C   0  0  0  0  0  0  0  0  0  0  0  0
   55.5645   20.9968   49.2779 H   0  0  0  0  0  0  0  0  0  0  0  0
   55.1150   22.8870   48.2490 C   0  0  0  0  0  0  0  0  0  0  0  0
   54.1184   23.1443   48.6372 H   0  0  0  0  0  0  0  0  0  0  0  0
   55.8580   23.5940   47.3350 C   0  0  0  0  0  0  0  0  0  0  0  0
   55.4620   24.8340   46.7350 N   0  0  0  0  0  0  0  0  0  0  0  0
   56.2540   25.8430   46.5290 C   0  0  0  0  0  0  0  0  0  0  0  0
   57.4560   25.9450   47.1290 N   0  0  0  0  0  0  0  0  0  0  0  0
   57.9340   27.1210   46.6850 C   0  0  0  0  0  0  0  0  0  0  0  0
   58.9084   27.5539   46.9553 H   0  0  0  0  0  0  0  0  0  0  0  0
   57.0100   27.7010   45.8360 C   0  0  0  0  0  0  0  0  0  0  0  0
   57.1370   29.0030   45.1290 C   0  0  0  0  0  0  0  0  0  0  0  0
   58.3780   29.6710   45.0890 C   0  0  0  0  0  0  0  0  0  0  0  0
   59.2541   29.2221   45.5797 H   0  0  0  0  0  0  0  0  0  0  0  0
   58.5060   30.8980   44.4320 C   0  0  0  0  0  0  0  0  0  0  0  0
   59.4799   31.4088   44.4078 H   0  0  0  0  0  0  0  0  0  0  0  0
   57.4010   31.4760   43.8070 C   0  0  0  0  0  0  0  0  0  0  0  0
   57.5037   32.4418   43.2906 H   0  0  0  0  0  0  0  0  0  0  0  0
   56.1660   30.8290   43.8370 C   0  0  0  0  0  0  0  0  0  0  0  0
   55.2968   31.2879   43.3432 H   0  0  0  0  0  0  0  0  0  0  0  0
   56.0250   29.6000   44.4910 C   0  0  0  0  0  0  0  0  0  0  0  0
   54.7800   28.9820   44.4870 O   0  0  0  0  0  0  0  0  0  0  0  0
   55.9380   26.8920   45.7400 N   0  0  0  0  0  0  0  0  0  0  0  0
  1  2  1  0
  2  3  1  0
  3  4  1  0
  4  5  1  0
  5  6  1  0
  5  7  2  0
  7  8  1  0
  7  9  1  0
  9 10  1  0
 10 11  2  0
 11 12  1  0
 12 13  1  0
 13 14  1  0
 13 15  2  0
 15 16  1  0
 16 17  2  0
 17 18  1  0
 17 19  1  0
 19 20  1  0
 19 21  2  0
 21 22  1  0
 21 23  1  0
 23 24  1  0
 23 25  2  0
 25 26  1  0
 15 27  1  0
  9  3  2  0
 27 11  1  0
 25 16  1  0
M  CHG  4   4  -1  12  -1  26  -1  27  -1
M  END
>  <UniqueID>  (15) 
13

>  <SMILES>  (15) 
[O-]c1ccccc1-c1c[n-]/c(=N/c2cc[n-]c2O)[n-]1

>  <Energy>  (15) 
93.40415700058847

>  <Genealogy>  (15) 
[O-]c1ccccc1-c1c[n-]c(=Nc2cc[n-]c2O)[n-]1 (protonated)
[O-]c1ccccc1-c1c[n-]/c(=N/c2cc[n-]c2O)[n-]1 (cis-trans isomerization)
[O-]c1ccccc1-c1c[n-]/c(=N/c2cc[n-]c2O)[n-]1 (3D coordinates assigned)
[O-]c1ccccc1-c1c[n-]/c(=N/c2cc[n-]c2O)[n-]1 (optimized conformer: 93.40415700058847 kcal/mol)

>  <smiles>  (15) 
Oc1ccccc1-c1c[nH]c(=Nc2cc[nH]c2O)[nH]1

>  <score_type>  (15) 
oracle

>  <origin>  (15) 
adg

>  <m_score__min__energy>  (15) 
-14.960000000000001

>  <m_primary>  (15) 
energy

$$$$
15:0
     RDKit          3D

 43 45  0  0  0  0  0  0  0  0999 V2000
   55.1550   29.3450   44.8830 N   0  0  0  0  0  0  0  0  0  0  0  0
   56.5820   29.4340   43.9140 S   0  0  0  0  0  0  0  0  0  0  0  0
   57.4870   28.2820   44.2450 O   0  0  0  0  0  0  0  0  0  0  0  0
   56.2060   29.3490   42.4600 O   0  0  0  0  0  0  0  0  0  0  0  0
   57.4150   30.9510   44.2310 C   0  0  0  0  0  0  0  0  0  0  0  0
   57.6680   31.8530   43.1890 C   0  0  0  0  0  0  0  0  0  0  0  0
   58.3190   33.0610   43.4480 C   0  0  0  0  0  0  0  0  0  0  0  0
   58.7280   33.3730   44.7480 C   0  0  0  0  0  0  0  0  0  0  0  0
   58.4940   32.4700   45.7960 C   0  0  0  0  0  0  0  0  0  0  0  0
   58.9480   32.7980   47.1610 C   0  0  0  0  0  0  0  0  0  0  0  0
   58.4220   33.7850   47.7430 O   0  0  0  0  0  0  0  0  0  0  0  0
   59.9800   32.0300   47.8280 N   0  0  0  0  0  0  0  0  0  0  0  0
   59.6830   30.7820   48.5520 C   0  0  0  0  0  0  0  0  0  0  0  0
   59.7330   29.5930   47.6270 C   0  0  0  0  0  0  0  0  0  0  0  0
   59.0300   28.4160   47.9350 C   0  0  0  0  0  0  0  0  0  0  0  0
   59.0590   27.3280   47.0590 C   0  0  0  0  0  0  0  0  0  0  0  0
   59.7970   27.4020   45.8740 C   0  0  0  0  0  0  0  0  0  0  0  0
   60.5100   28.5640   45.5660 C   0  0  0  0  0  0  0  0  0  0  0  0
   60.4810   29.6560   46.4390 C   0  0  0  0  0  0  0  0  0  0  0  0
   61.3500   32.4630   47.7500 C   0  0  0  0  0  0  0  0  0  0  0  0
   62.2960   32.0120   48.6850 C   0  0  0  0  0  0  0  0  0  0  0  0
   63.6210   32.4530   48.6150 C   0  0  0  0  0  0  0  0  0  0  0  0
   64.0080   33.3490   47.6150 C   0  0  0  0  0  0  0  0  0  0  0  0
   63.0700   33.8100   46.6860 C   0  0  0  0  0  0  0  0  0  0  0  0
   61.7440   33.3710   46.7540 C   0  0  0  0  0  0  0  0  0  0  0  0
   57.8140   31.2700   45.5370 C   0  0  0  0  0  0  0  0  0  0  0  0
   55.3280   28.6210   45.6150 H   0  0  0  0  0  0  0  0  0  0  0  0
   57.3528   31.6088   42.1638 H   0  0  0  0  0  0  0  0  0  0  0  0
   58.5104   33.7684   42.6276 H   0  0  0  0  0  0  0  0  0  0  0  0
   59.2343   34.3285   44.9496 H   0  0  0  0  0  0  0  0  0  0  0  0
   60.4250   30.6458   49.3526 H   0  0  0  0  0  0  0  0  0  0  0  0
   58.6693   30.8549   48.9727 H   0  0  0  0  0  0  0  0  0  0  0  0
   58.4542   28.3509   48.8700 H   0  0  0  0  0  0  0  0  0  0  0  0
   58.5005   26.4120   47.3020 H   0  0  0  0  0  0  0  0  0  0  0  0
   59.8166   26.5456   45.1839 H   0  0  0  0  0  0  0  0  0  0  0  0
   61.0946   28.6196   44.6359 H   0  0  0  0  0  0  0  0  0  0  0  0
   61.0458   30.5678   46.1949 H   0  0  0  0  0  0  0  0  0  0  0  0
   61.9934   31.3092   49.4753 H   0  0  0  0  0  0  0  0  0  0  0  0
   64.3591   32.0944   49.3475 H   0  0  0  0  0  0  0  0  0  0  0  0
   65.0516   33.6921   47.5585 H   0  0  0  0  0  0  0  0  0  0  0  0
   63.3752   34.5181   45.9015 H   0  0  0  0  0  0  0  0  0  0  0  0
   61.0070   33.7383   46.0247 H   0  0  0  0  0  0  0  0  0  0  0  0
   57.5930   30.5767   46.3619 H   0  0  0  0  0  0  0  0  0  0  0  0
  1  2  1  0
  2  3  2  0
  2  4  2  0
  2  5  1  0
  5  6  2  0
  6  7  1  0
  7  8  2  0
  8  9  1  0
  9 10  1  0
 10 11  2  0
 10 12  1  0
 12 13  1  0
 13 14  1  0
 14 15  2  0
 15 16  1  0
 16 17  2  0
 17 18  1  0
 18 19  2  0
 12 20  1  0
 20 21  2  0
 21 22  1  0
 22 23  2  0
 23 24  1  0
 24 25  2  0
  9 26  2  0
 26  5  1  0
 19 14  1  0
 25 20  1  0
  1 27  1  0
  6 28  1  0
  7 29  1  0
  8 30  1  0
 13 31  1  0
 13 32  1  0
 15 33  1  0
 16 34  1  0
 17 35  1  0
 18 36  1  0
 19 37  1  0
 21 38  1  0
 22 39  1  0
 23 40  1  0
 24 41  1  0
 25 42  1  0
 26 43  1  0
M  CHG  1   1  -1
M  END
>  <UniqueID>  (16) 
14

>  <SMILES>  (16) 
[NH-]S(=O)(=O)c1cccc(C(=O)N(Cc2ccccc2)c2ccccc2)c1

>  <Energy>  (16) 
55.121464769007055

>  <Genealogy>  (16) 
[NH-]S(=O)(=O)c1cccc(C(=O)N(Cc2ccccc2)c2ccccc2)c1 (protonated)
[NH-]S(=O)(=O)c1cccc(C(=O)N(Cc2ccccc2)c2ccccc2)c1 (3D coordinates assigned)
[NH-]S(=O)(=O)c1cccc(C(=O)N(Cc2ccccc2)c2ccccc2)c1 (optimized conformer: 55.121464769007055 kcal/mol)

>  <smiles>  (16) 
NS(=O)(=O)c1cccc(C(=O)N(Cc2ccccc2)c2ccccc2)c1

>  <score_type>  (16) 
oracle

>  <origin>  (16) 
adg

>  <m_score__min__energy>  (16) 
-12.16

>  <m_primary>  (16) 
energy

$$$$
16:0
     RDKit          3D

 53 55  0  0  0  0  0  0  0  0999 V2000
   56.5690   25.1960   44.8740 C   0  0  0  0  0  0  0  0  0  0  0  0
   57.2040   23.8510   44.7200 C   0  0  0  0  0  0  0  0  0  0  0  0
   56.4460   22.8520   44.2110 N   0  0  0  0  0  0  0  0  0  0  0  0
   57.0330   21.6300   44.0760 C   0  0  0  0  0  0  0  0  0  0  0  0
   56.2770   20.6960   43.5850 N   0  0  0  0  0  0  0  0  0  0  0  0
   58.3120   21.4100   44.4280 N   0  0  0  0  0  0  0  0  0  0  0  0
   59.0920   22.3890   44.9390 C   0  0  0  0  0  0  0  0  0  0  0  0
   60.3090   22.2080   45.2820 N   0  0  0  0  0  0  0  0  0  0  0  0
   58.5350   23.6420   45.0920 C   0  0  0  0  0  0  0  0  0  0  0  0
   59.2560   24.7640   45.6210 C   0  0  0  0  0  0  0  0  0  0  0  0
   59.8780   25.7010   46.0530 C   0  0  0  0  0  0  0  0  0  0  0  0
   60.6520   26.8340   46.5600 C   0  0  0  0  0  0  0  0  0  0  0  0
   60.2190   27.1690   47.8700 N   0  0  0  0  0  0  0  0  0  0  0  0
   58.8940   27.6480   48.0240 C   0  0  0  0  0  0  0  0  0  0  0  0
   58.4480   28.3790   46.8110 C   0  0  0  0  0  0  0  0  0  0  0  0
   57.4050   27.9680   46.0110 C   0  0  0  0  0  0  0  0  0  0  0  0
   57.0270   28.6970   44.8770 C   0  0  0  0  0  0  0  0  0  0  0  0
   57.7310   29.8610   44.5670 C   0  0  0  0  0  0  0  0  0  0  0  0
   57.3840   30.6710   43.3970 C   0  0  0  0  0  0  0  0  0  0  0  0
   56.3970   30.3840   42.6760 O   0  0  0  0  0  0  0  0  0  0  0  0
   58.1370   31.7580   43.0740 O   0  0  0  0  0  0  0  0  0  0  0  0
   57.9480   33.0930   43.3970 C   0  0  0  0  0  0  0  0  0  0  0  0
   58.3140   33.5010   44.7520 C   0  0  0  0  0  0  0  0  0  0  0  0
   59.4320   34.2330   45.0920 C   0  0  0  0  0  0  0  0  0  0  0  0
   59.7280   34.5880   46.4020 C   0  0  0  0  0  0  0  0  0  0  0  0
   58.8890   34.2090   47.4220 C   0  0  0  0  0  0  0  0  0  0  0  0
   57.7600   33.4760   47.1070 C   0  0  0  0  0  0  0  0  0  0  0  0
   57.4600   33.1160   45.7890 C   0  0  0  0  0  0  0  0  0  0  0  0
   58.7740   30.2570   45.3860 C   0  0  0  0  0  0  0  0  0  0  0  0
   59.1510   29.5420   46.5040 C   0  0  0  0  0  0  0  0  0  0  0  0
   56.4589   25.4292   45.9433 H   0  0  0  0  0  0  0  0  0  0  0  0
   57.2027   25.9575   44.3960 H   0  0  0  0  0  0  0  0  0  0  0  0
   55.5783   25.1907   44.3960 H   0  0  0  0  0  0  0  0  0  0  0  0
   55.4490   23.0040   43.9310 H   0  0  0  0  0  0  0  0  0  0  0  0
   56.6170   19.7410   43.3610 H   0  0  0  0  0  0  0  0  0  0  0  0
   58.7110   20.4330   44.2970 H   0  0  0  0  0  0  0  0  0  0  0  0
   61.0690   21.9930   44.6330 H   0  0  0  0  0  0  0  0  0  0  0  0
   61.7182   26.5645   46.5863 H   0  0  0  0  0  0  0  0  0  0  0  0
   60.5028   27.6993   45.8975 H   0  0  0  0  0  0  0  0  0  0  0  0
   60.6630   26.7030   48.6600 H   0  0  0  0  0  0  0  0  0  0  0  0
   58.2212   26.7953   48.1978 H   0  0  0  0  0  0  0  0  0  0  0  0
   58.8686   28.3396   48.8790 H   0  0  0  0  0  0  0  0  0  0  0  0
   56.8581   27.0488   46.2681 H   0  0  0  0  0  0  0  0  0  0  0  0
   56.1930   28.3593   44.2442 H   0  0  0  0  0  0  0  0  0  0  0  0
   58.5463   33.6931   42.6956 H   0  0  0  0  0  0  0  0  0  0  0  0
   56.8619   33.2543   43.3311 H   0  0  0  0  0  0  0  0  0  0  0  0
   60.1182   34.5491   44.2925 H   0  0  0  0  0  0  0  0  0  0  0  0
   60.6336   35.1722   46.6226 H   0  0  0  0  0  0  0  0  0  0  0  0
   59.1104   34.4823   48.4643 H   0  0  0  0  0  0  0  0  0  0  0  0
   57.0794   33.1676   47.9143 H   0  0  0  0  0  0  0  0  0  0  0  0
   56.5544   32.5315   45.5694 H   0  0  0  0  0  0  0  0  0  0  0  0
   59.3232   31.1767   45.1360 H   0  0  0  0  0  0  0  0  0  0  0  0
   59.9847   29.8812   47.1364 H   0  0  0  0  0  0  0  0  0  0  0  0
  1  2  1  0
  2  3  1  0
  3  4  1  0
  4  5  2  3
  4  6  1  0
  6  7  1  0
  7  8  2  3
  7  9  1  0
  9 10  1  0
 10 11  3  0
 11 12  1  0
 12 13  1  0
 13 14  1  0
 14 15  1  0
 15 16  2  0
 16 17  1  0
 17 18  2  0
 18 19  1  0
 19 20  2  0
 19 21  1  0
 21 22  1  0
 22 23  1  0
 23 24  2  0
 24 25  1  0
 25 26  2  0
 26 27  1  0
 27 28  2  0
 18 29  1  0
 29 30  2  0
  9  2  2  0
 30 15  1  0
 28 23  1  0
  1 31  1  0
  1 32  1  0
  1 33  1  0
  3 34  1  0
  5 35  1  0
  6 36  1  0
  8 37  1  0
 12 38  1  0
 12 39  1  0
 13 40  1  0
 14 41  1  0
 14 42  1  0
 16 43  1  0
 17 44  1  0
 22 45  1  0
 22 46  1  0
 24 47  1  0
 25 48  1  0
 26 49  1  0
 27 50  1  0
 28 51  1  0
 29 52  1  0
 30 53  1  0
M  END
>  <smiles>  (17) 
Cc1[nH]c(=N)[nH]c(=N)c1C#CCNCc1ccc(C(=O)OCc2ccccc2)cc1

>  <score_type>  (17) 
oracle

>  <origin>  (17) 
adg

>  <m_score__min__energy>  (17) 
-9.0299999999999994

>  <m_primary>  (17) 
energy

$$$$
17:0
     RDKit          3D

 50 52  0  0  0  0  0  0  0  0999 V2000
   57.3520   31.8570   42.1200 C   0  0  0  0  0  0  0  0  0  0  0  0
   57.4340   31.5950   43.5580 N   0  0  0  0  0  0  0  0  0  0  0  0
   57.8440   32.6390   44.4630 C   0  0  0  0  0  0  0  0  0  0  0  0
   57.1860   32.8150   45.6950 C   0  0  0  0  0  0  0  0  0  0  0  0
   57.5800   33.8320   46.5700 C   0  0  0  0  0  0  0  0  0  0  0  0
   58.6310   34.6850   46.2260 C   0  0  0  0  0  0  0  0  0  0  0  0
   59.0110   35.6720   47.0750 F   0  0  0  0  0  0  0  0  0  0  0  0
   59.2880   34.5230   45.0040 C   0  0  0  0  0  0  0  0  0  0  0  0
   58.8980   33.5080   44.1260 C   0  0  0  0  0  0  0  0  0  0  0  0
   57.0200   30.0130   44.1570 S   0  0  0  0  0  0  0  0  0  0  0  0
   57.1370   29.0080   43.0430 O   0  0  0  0  0  0  0  0  0  0  0  0
   55.5960   30.0070   44.6360 O   0  0  0  0  0  0  0  0  0  0  0  0
   58.0870   29.5720   45.4870 C   0  0  0  0  0  0  0  0  0  0  0  0
   57.8780   28.3720   46.1800 C   0  0  0  0  0  0  0  0  0  0  0  0
   58.7290   28.0090   47.2270 C   0  0  0  0  0  0  0  0  0  0  0  0
   59.7960   28.8370   47.5860 C   0  0  0  0  0  0  0  0  0  0  0  0
   60.0180   30.0430   46.8990 C   0  0  0  0  0  0  0  0  0  0  0  0
   61.1540   30.9220   47.2440 C   0  0  0  0  0  0  0  0  0  0  0  0
   62.0660   30.4810   47.9970 O   0  0  0  0  0  0  0  0  0  0  0  0
   61.1950   32.2870   46.7960 N   0  0  0  0  0  0  0  0  0  0  0  0
   61.9880   33.3020   47.4890 C   0  0  0  0  0  0  0  0  0  0  0  0
   61.1370   34.0400   48.5320 C   0  0  0  0  0  0  0  0  0  0  0  0
   60.4010   33.0800   49.4320 C   0  0  0  0  0  0  0  0  0  0  0  0
   61.0860   32.3950   50.4500 C   0  0  0  0  0  0  0  0  0  0  0  0
   60.4220   31.4450   51.2310 C   0  0  0  0  0  0  0  0  0  0  0  0
   59.0710   31.1680   51.0010 C   0  0  0  0  0  0  0  0  0  0  0  0
   58.3810   31.8440   49.9910 C   0  0  0  0  0  0  0  0  0  0  0  0
   59.0420   32.7960   49.2070 C   0  0  0  0  0  0  0  0  0  0  0  0
   59.1530   30.4050   45.8540 C   0  0  0  0  0  0  0  0  0  0  0  0
   57.0272   32.8948   41.9543 H   0  0  0  0  0  0  0  0  0  0  0  0
   58.3407   31.7048   41.6626 H   0  0  0  0  0  0  0  0  0  0  0  0
   56.6264   31.1683   41.6626 H   0  0  0  0  0  0  0  0  0  0  0  0
   56.3562   32.1479   45.9712 H   0  0  0  0  0  0  0  0  0  0  0  0
   57.0611   33.9605   47.5313 H   0  0  0  0  0  0  0  0  0  0  0  0
   60.1145   35.1960   44.7320 H   0  0  0  0  0  0  0  0  0  0  0  0
   59.4188   33.3876   43.1646 H   0  0  0  0  0  0  0  0  0  0  0  0
   57.0421   27.7144   45.8991 H   0  0  0  0  0  0  0  0  0  0  0  0
   58.5585   27.0681   47.7707 H   0  0  0  0  0  0  0  0  0  0  0  0
   60.4644   28.5439   48.4090 H   0  0  0  0  0  0  0  0  0  0  0  0
   60.4540   32.6320   46.1440 H   0  0  0  0  0  0  0  0  0  0  0  0
   62.8352   32.8150   47.9940 H   0  0  0  0  0  0  0  0  0  0  0  0
   62.3508   34.0314   46.7499 H   0  0  0  0  0  0  0  0  0  0  0  0
   61.7952   34.6715   49.1468 H   0  0  0  0  0  0  0  0  0  0  0  0
   60.3924   34.6488   47.9982 H   0  0  0  0  0  0  0  0  0  0  0  0
   62.1497   32.6075   50.6330 H   0  0  0  0  0  0  0  0  0  0  0  0
   60.9633   30.9143   52.0281 H   0  0  0  0  0  0  0  0  0  0  0  0
   58.5511   30.4179   51.6151 H   0  0  0  0  0  0  0  0  0  0  0  0
   57.3174   31.6275   49.8122 H   0  0  0  0  0  0  0  0  0  0  0  0
   58.4965   33.3245   48.4113 H   0  0  0  0  0  0  0  0  0  0  0  0
   59.3135   31.3520   45.3178 H   0  0  0  0  0  0  0  0  0  0  0  0
  1  2  1  0
  2  3  1  0
  3  4  2  0
  4  5  1  0
  5  6  2  0
  6  7  1  0
  6  8  1  0
  8  9  2  0
  2 10  1  0
 10 11  2  0
 10 12  2  0
 10 13  1  0
 13 14  2  0
 14 15  1  0
 15 16  2  0
 16 17  1  0
 17 18  1  0
 18 19  2  0
 18 20  1  0
 20 21  1  0
 21 22  1  0
 22 23  1  0
 23 24  2  0
 24 25  1  0
 25 26  2  0
 26 27  1  0
 27 28  2  0
 17 29  2  0
  9  3  1  0
 29 13  1  0
 28 23  1  0
  1 30  1  0
  1 31  1  0
  1 32  1  0
  4 33  1  0
  5 34  1  0
  8 35  1  0
  9 36  1  0
 14 37  1  0
 15 38  1  0
 16 39  1  0
 20 40  1  0
 21 41  1  0
 21 42  1  0
 22 43  1  0
 22 44  1  0
 24 45  1  0
 25 46  1  0
 26 47  1  0
 27 48  1  0
 28 49  1  0
 29 50  1  0
M  END
>  <UniqueID>  (18) 
15

>  <SMILES>  (18) 
CN(c1ccc(F)cc1)S(=O)(=O)c1cccc(C(=O)NCCc2ccccc2)c1

>  <Energy>  (18) 
53.79837937888933

>  <Genealogy>  (18) 
CN(c1ccc(F)cc1)S(=O)(=O)c1cccc(C(=O)NCCc2ccccc2)c1 (3D coordinates assigned)
CN(c1ccc(F)cc1)S(=O)(=O)c1cccc(C(=O)NCCc2ccccc2)c1 (optimized conformer: 53.79837937888933 kcal/mol)

>  <smiles>  (18) 
CN(c1ccc(F)cc1)S(=O)(=O)c1cccc(C(=O)NCCc2ccccc2)c1

>  <score_type>  (18) 
oracle

>  <origin>  (18) 
adg

>  <m_score__min__energy>  (18) 
-9.4399999999999995

>  <m_primary>  (18) 
energy

$$$$
18:0
     RDKit          3D

 45 47  0  0  0  0  0  0  0  0999 V2000
   57.7473   23.4259   47.6265 H   0  0  0  0  0  0  0  0  0  0  0  0
   57.7850   24.3230   46.9910 C   0  0  0  0  0  0  0  0  0  0  0  0
   57.6510   24.2050   45.6080 C   0  0  0  0  0  0  0  0  0  0  0  0
   57.5000   23.2145   45.1540 H   0  0  0  0  0  0  0  0  0  0  0  0
   57.7080   25.3410   44.7980 C   0  0  0  0  0  0  0  0  0  0  0  0
   57.5917   25.2374   43.7091 H   0  0  0  0  0  0  0  0  0  0  0  0
   57.9130   26.6210   45.3580 C   0  0  0  0  0  0  0  0  0  0  0  0
   57.9310   27.8400   44.4250 C   0  0  2  0  0  0  0  0  0  0  0  0
   58.1020   27.4720   42.9390 C   0  0  0  0  0  0  0  0  0  0  0  0
   58.5643   26.4771   42.8585 H   0  0  0  0  0  0  0  0  0  0  0  0
   57.1174   27.4596   42.4487 H   0  0  0  0  0  0  0  0  0  0  0  0
   58.7464   28.2165   42.4487 H   0  0  0  0  0  0  0  0  0  0  0  0
   59.0870   28.7450   44.8220 C   0  0  0  0  0  0  0  0  0  0  0  0
   60.1950   28.2390   45.1570 O   0  0  0  0  0  0  0  0  0  0  0  0
   58.9760   30.1690   44.7250 N   0  0  0  0  0  0  0  0  0  0  0  0
   59.8300   30.7570   44.8580 H   0  0  0  0  0  0  0  0  0  0  0  0
   57.7370   30.7940   44.3890 C   0  0  0  0  0  0  0  0  0  0  0  0
   57.7390   32.0620   44.0810 N   0  0  0  0  0  0  0  0  0  0  0  0
   57.6700   33.1760   44.9830 C   0  0  0  0  0  0  0  0  0  0  0  0
   56.6800   33.9500   44.9110 O   0  0  0  0  0  0  0  0  0  0  0  0
   58.6900   33.3810   46.0430 C   0  0  0  0  0  0  0  0  0  0  0  0
   58.7140   32.5660   47.1890 C   0  0  0  0  0  0  0  0  0  0  0  0
   57.9597   31.7748   47.3116 H   0  0  0  0  0  0  0  0  0  0  0  0
   59.6880   32.7530   48.1730 C   0  0  0  0  0  0  0  0  0  0  0  0
   59.7020   32.1031   49.0604 H   0  0  0  0  0  0  0  0  0  0  0  0
   60.6480   33.7660   48.0340 C   0  0  0  0  0  0  0  0  0  0  0  0
   61.7160   33.9580   49.0750 C   0  0  0  0  0  0  0  0  0  0  0  0
   61.4523   34.8158   49.7111 H   0  0  0  0  0  0  0  0  0  0  0  0
   61.7895   33.0449   49.6840 H   0  0  0  0  0  0  0  0  0  0  0  0
   62.9760   34.2030   48.4540 O   0  0  0  0  0  0  0  0  0  0  0  0
   63.4790   33.3960   47.4510 N   0  0  0  0  0  0  0  0  0  0  0  0
   63.7770   32.2030   47.6700 O   0  0  0  0  0  0  0  0  0  0  0  0
   63.6800   33.9230   46.1990 O   0  0  0  0  0  0  0  0  0  0  0  0
   60.6220   34.5890   46.8990 C   0  0  0  0  0  0  0  0  0  0  0  0
   61.3717   35.3856   46.7832 H   0  0  0  0  0  0  0  0  0  0  0  0
   59.6480   34.4020   45.9140 C   0  0  0  0  0  0  0  0  0  0  0  0
   59.6309   35.0584   45.0315 H   0  0  0  0  0  0  0  0  0  0  0  0
   56.5150   29.9640   44.4470 C   0  0  0  0  0  0  0  0  0  0  0  0
   55.3670   30.4830   44.4750 O   0  0  0  0  0  0  0  0  0  0  0  0
   56.6430   28.5430   44.5560 N   0  0  0  0  0  0  0  0  0  0  0  0
   55.7650   27.9740   44.5710 H   0  0  0  0  0  0  0  0  0  0  0  0
   58.0250   26.7230   46.7640 C   0  0  0  0  0  0  0  0  0  0  0  0
   58.1591   27.7106   47.2295 H   0  0  0  0  0  0  0  0  0  0  0  0
   57.9670   25.5810   47.5680 C   0  0  0  0  0  0  0  0  0  0  0  0
   58.0652   25.6740   48.6597 H   0  0  0  0  0  0  0  0  0  0  0  0
  1  2  1  0
  2  3  2  0
  3  4  1  0
  3  5  1  0
  5  6  1  0
  5  7  2  0
  7  8  1  0
  8  9  1  6
  9 10  1  0
  9 11  1  0
  9 12  1  0
  8 13  1  0
 13 14  2  0
 13 15  1  0
 15 16  1  0
 15 17  1  0
 17 18  2  0
 18 19  1  0
 19 20  2  0
 19 21  1  0
 21 22  2  0
 22 23  1  0
 22 24  1  0
 24 25  1  0
 24 26  2  0
 26 27  1  0
 27 28  1  0
 27 29  1  0
 27 30  1  0
 30 31  1  0
 31 32  2  0
 31 33  1  0
 26 34  1  0
 34 35  1  0
 34 36  2  0
 36 37  1  0
 17 38  1  0
 38 39  2  0
 38 40  1  0
 40 41  1  0
  7 42  1  0
 42 43  1  0
 42 44  2  0
 44 45  1  0
 44  2  1  0
 40  8  1  0
 36 21  1  0
M  CHG  2  31   1  33  -1
M  END
>  <UniqueID>  (19) 
16

>  <SMILES>  (19) 
C[C@]1(c2ccccc2)NC(=O)/C(=N\C(=O)c2ccc(CO[N+](=O)[O-])cc2)NC1=O

>  <Energy>  (19) 
58.6618273681587

>  <Genealogy>  (19) 
C[C@]1(c2ccccc2)NC(=O)C(=NC(=O)c2ccc(CO[N+](=O)[O-])cc2)NC1=O (chirality)
C[C@]1(c2ccccc2)NC(=O)/C(=N\C(=O)c2ccc(CO[N+](=O)[O-])cc2)NC1=O (cis-trans isomerization)
C[C@]1(c2ccccc2)NC(=O)/C(=N\C(=O)c2ccc(CO[N+](=O)[O-])cc2)NC1=O (3D coordinates assigned)
C[C@]1(c2ccccc2)NC(=O)/C(=N\C(=O)c2ccc(CO[N+](=O)[O-])cc2)NC1=O (nonaromatic ring conformer: 58.6618273681587 kcal/mol)

>  <smiles>  (19) 
CC1(c2ccccc2)NC(=O)C(=NC(=O)c2ccc(CO[N+](=O)[O-])cc2)NC1=O

>  <score_type>  (19) 
oracle

>  <origin>  (19) 
adg

>  <m_score__min__energy>  (19) 
-9.3399999999999999

>  <m_primary>  (19) 
energy

$$$$
19:0
     RDKit          3D

 49 52  0  0  0  0  0  0  0  0999 V2000
   58.6410   34.0990   52.1020 H   0  0  0  0  0  0  0  0  0  0  0  0
   57.9450   33.6030   52.7030 N   0  0  0  0  0  0  0  0  0  0  0  0
   57.8080   32.3180   52.6610 C   0  0  0  0  0  0  0  0  0  0  0  0
   58.8990   31.5190   52.7740 N   0  0  0  0  0  0  0  0  0  0  0  0
   58.7660   30.1710   52.7280 C   0  0  0  0  0  0  0  0  0  0  0  0
   59.8240   29.4210   52.8400 N   0  0  0  0  0  0  0  0  0  0  0  0
   60.4380   28.6730   51.7420 C   0  0  0  0  0  0  0  0  0  0  0  0
   61.5312   28.6854   51.8635 H   0  0  0  0  0  0  0  0  0  0  0  0
   60.0632   27.6391   51.7652 H   0  0  0  0  0  0  0  0  0  0  0  0
   60.0810   29.2880   50.4140 C   0  0  0  0  0  0  0  0  0  0  0  0
   59.6000   28.4940   49.3640 C   0  0  0  0  0  0  0  0  0  0  0  0
   59.4594   27.4136   49.5158 H   0  0  0  0  0  0  0  0  0  0  0  0
   59.2980   29.0660   48.1260 C   0  0  0  0  0  0  0  0  0  0  0  0
   58.9257   28.4314   47.3083 H   0  0  0  0  0  0  0  0  0  0  0  0
   59.4660   30.4470   47.9160 C   0  0  0  0  0  0  0  0  0  0  0  0
   59.1610   31.0610   46.6020 C   0  0  0  0  0  0  0  0  0  0  0  0
   60.0550   31.7180   46.0000 O   0  0  0  0  0  0  0  0  0  0  0  0
   57.8460   30.9590   46.0280 N   0  0  0  0  0  0  0  0  0  0  0  0
   57.0330   30.8640   46.6770 H   0  0  0  0  0  0  0  0  0  0  0  0
   57.5720   31.1260   44.6260 C   0  0  0  0  0  0  0  0  0  0  0  0
   56.6440   30.2800   43.9990 C   0  0  0  0  0  0  0  0  0  0  0  0
   56.1225   29.5102   44.5867 H   0  0  0  0  0  0  0  0  0  0  0  0
   56.3780   30.4090   42.6330 C   0  0  0  0  0  0  0  0  0  0  0  0
   55.6416   29.7483   42.1522 H   0  0  0  0  0  0  0  0  0  0  0  0
   57.0460   31.3760   41.8770 C   0  0  0  0  0  0  0  0  0  0  0  0
   56.8329   31.4790   40.8028 H   0  0  0  0  0  0  0  0  0  0  0  0
   57.9850   32.2120   42.4870 C   0  0  0  0  0  0  0  0  0  0  0  0
   58.6460   33.1390   41.7490 F   0  0  0  0  0  0  0  0  0  0  0  0
   58.2540   32.0850   43.8540 C   0  0  0  0  0  0  0  0  0  0  0  0
   59.0020   32.7377   44.3277 H   0  0  0  0  0  0  0  0  0  0  0  0
   59.9600   31.2380   48.9700 C   0  0  0  0  0  0  0  0  0  0  0  0
   60.1104   32.3171   48.8184 H   0  0  0  0  0  0  0  0  0  0  0  0
   60.2610   30.6630   50.2080 C   0  0  0  0  0  0  0  0  0  0  0  0
   60.6414   31.2931   51.0255 H   0  0  0  0  0  0  0  0  0  0  0  0
   57.5320   29.6220   52.5670 N   0  0  0  0  0  0  0  0  0  0  0  0
   56.4350   30.4120   52.4670 C   0  0  0  0  0  0  0  0  0  0  0  0
   55.2680   29.8590   52.2970 N   0  0  0  0  0  0  0  0  0  0  0  0
   54.0040   30.5290   52.1600 C   0  0  0  0  0  0  0  0  0  0  0  0
   53.1800   30.8070   53.2680 C   0  0  0  0  0  0  0  0  0  0  0  0
   53.5138   30.5362   54.2805 H   0  0  0  0  0  0  0  0  0  0  0  0
   51.9390   31.4260   53.0860 C   0  0  0  0  0  0  0  0  0  0  0  0
   51.3061   31.6543   53.9562 H   0  0  0  0  0  0  0  0  0  0  0  0
   51.5020   31.7550   51.7990 C   0  0  0  0  0  0  0  0  0  0  0  0
   50.2690   32.3710   51.6200 O   0  0  0  0  0  0  0  0  0  0  0  0
   52.3020   31.4550   50.6920 C   0  0  0  0  0  0  0  0  0  0  0  0
   51.9549   31.7061   49.6789 H   0  0  0  0  0  0  0  0  0  0  0  0
   53.5430   30.8360   50.8720 C   0  0  0  0  0  0  0  0  0  0  0  0
   54.1618   30.5882   49.9970 H   0  0  0  0  0  0  0  0  0  0  0  0
   56.5790   31.7640   52.5040 N   0  0  0  0  0  0  0  0  0  0  0  0
  1  2  1  0
  2  3  2  3
  3  4  1  0
  4  5  1  0
  5  6  2  0
  6  7  1  0
  7  8  1  0
  7  9  1  0
  7 10  1  0
 10 11  2  0
 11 12  1  0
 11 13  1  0
 13 14  1  0
 13 15  2  0
 15 16  1  0
 16 17  2  0
 16 18  1  0
 18 19  1  0
 18 20  1  0
 20 21  2  0
 21 22  1  0
 21 23  1  0
 23 24  1  0
 23 25  2  0
 25 26  1  0
 25 27  1  0
 27 28  1  0
 27 29  2  0
 29 30  1  0
 15 31  1  0
 31 32  1  0
 31 33  2  0
 33 34  1  0
  5 35  1  0
 35 36  1  0
 36 37  2  0
 37 38  1  0
 38 39  2  0
 39 40  1  0
 39 41  1  0
 41 42  1  0
 41 43  2  0
 43 44  1  0
 43 45  1  0
 45 46  1  0
 45 47  2  0
 47 48  1  0
 36 49  1  0
 49  3  1  0
 33 10  1  0
 47 38  1  0
 29 20  1  0
M  CHG  4   4  -1  35  -1  44  -1  49  -1
M  END
>  <UniqueID>  (20) 
17

>  <SMILES>  (20) 
N=c1[n-]/c(=N/Cc2ccc(C(=O)Nc3cccc(F)c3)cc2)[n-]/c(=N/c2ccc([O-])cc2)[n-]1

>  <Energy>  (20) 
65.21122250722411

>  <Genealogy>  (20) 
N=c1[n-]c(=NCc2ccc(C(=O)Nc3cccc(F)c3)cc2)[n-]c(=Nc2ccc([O-])cc2)[n-]1 (protonated)
N=c1[n-]/c(=N/Cc2ccc(C(=O)Nc3cccc(F)c3)cc2)[n-]/c(=N/c2ccc([O-])cc2)[n-]1 (cis-trans isomerization)
N=c1[n-]/c(=N/Cc2ccc(C(=O)Nc3cccc(F)c3)cc2)[n-]/c(=N/c2ccc([O-])cc2)[n-]1 (3D coordinates assigned)
N=c1[n-]/c(=N/Cc2ccc(C(=O)Nc3cccc(F)c3)cc2)[n-]/c(=N/c2ccc([O-])cc2)[n-]1 (optimized conformer: 65.21122250722411 kcal/mol)

>  <smiles>  (20) 
N=c1[nH]c(=NCc2ccc(C(=O)Nc3cccc(F)c3)cc2)[nH]c(=Nc2ccc(O)cc2)[nH]1

>  <score_type>  (20) 
oracle

>  <origin>  (20) 
adg

>  <m_score__min__energy>  (20) 
-13.67

>  <m_primary>  (20) 
energy

$$$$
20:0
     RDKit          3D

 46 47  0  0  0  0  0  0  0  0999 V2000
   57.4330   32.2300   41.6970 C   0  0  0  0  0  0  0  0  0  0  0  0
   57.6790   32.0880   43.1360 N   0  0  0  0  0  0  0  0  0  0  0  0
   58.5170   33.0780   43.8340 C   0  0  0  0  0  0  0  0  0  0  0  0
   57.7080   33.9050   44.8540 C   0  0  0  0  0  0  0  0  0  0  0  0
   57.7920   33.3670   46.2900 C   0  0  0  0  0  0  0  0  0  0  0  0
   59.1370   33.6010   46.9290 C   0  0  0  0  0  0  0  0  0  0  0  0
   59.2380   33.8490   48.3080 C   0  0  0  0  0  0  0  0  0  0  0  0
   60.4840   34.0920   48.8920 C   0  0  0  0  0  0  0  0  0  0  0  0
   61.6370   34.1060   48.1020 C   0  0  0  0  0  0  0  0  0  0  0  0
   61.5440   33.8770   46.7270 C   0  0  0  0  0  0  0  0  0  0  0  0
   60.3010   33.6220   46.1410 C   0  0  0  0  0  0  0  0  0  0  0  0
   57.2230   30.9090   43.8400 C   0  0  0  0  0  0  0  0  0  0  0  0
   56.1900   30.9770   44.5630 O   0  0  0  0  0  0  0  0  0  0  0  0
   57.9350   29.6620   43.7490 N   0  0  0  0  0  0  0  0  0  0  0  0
   57.4210   28.4280   44.3440 C   0  0  0  0  0  0  0  0  0  0  0  0
   57.5080   28.4830   45.8730 C   0  0  0  0  0  0  0  0  0  0  0  0
   58.7540   29.2050   46.3170 C   0  0  0  0  0  0  0  0  0  0  0  0
   59.9480   29.0730   45.5880 C   0  0  0  0  0  0  0  0  0  0  0  0
   61.1140   29.7080   46.0240 C   0  0  0  0  0  0  0  0  0  0  0  0
   61.1000   30.4690   47.1960 C   0  0  0  0  0  0  0  0  0  0  0  0
   59.9210   30.5940   47.9340 C   0  0  0  0  0  0  0  0  0  0  0  0
   58.7510   29.9640   47.4990 C   0  0  0  0  0  0  0  0  0  0  0  0
   56.4903   32.7741   41.5381 H   0  0  0  0  0  0  0  0  0  0  0  0
   58.2611   32.7890   41.2369 H   0  0  0  0  0  0  0  0  0  0  0  0
   57.3631   31.2333   41.2369 H   0  0  0  0  0  0  0  0  0  0  0  0
   59.3228   32.5498   44.3647 H   0  0  0  0  0  0  0  0  0  0  0  0
   58.9225   33.7702   43.0814 H   0  0  0  0  0  0  0  0  0  0  0  0
   58.0907   34.9363   44.8465 H   0  0  0  0  0  0  0  0  0  0  0  0
   56.6524   33.8469   44.5501 H   0  0  0  0  0  0  0  0  0  0  0  0
   57.0235   33.8676   46.8974 H   0  0  0  0  0  0  0  0  0  0  0  0
   57.6346   32.2793   46.2435 H   0  0  0  0  0  0  0  0  0  0  0  0
   58.3316   33.8519   48.9313 H   0  0  0  0  0  0  0  0  0  0  0  0
   60.5575   34.2725   49.9746 H   0  0  0  0  0  0  0  0  0  0  0  0
   62.6173   34.2973   48.5628 H   0  0  0  0  0  0  0  0  0  0  0  0
   62.4506   33.8974   46.1045 H   0  0  0  0  0  0  0  0  0  0  0  0
   60.2332   33.4370   45.0588 H   0  0  0  0  0  0  0  0  0  0  0  0
   58.8630   29.6140   43.2750 H   0  0  0  0  0  0  0  0  0  0  0  0
   56.3702   28.2951   44.0472 H   0  0  0  0  0  0  0  0  0  0  0  0
   58.0297   27.5844   43.9866 H   0  0  0  0  0  0  0  0  0  0  0  0
   56.6267   29.0120   46.2647 H   0  0  0  0  0  0  0  0  0  0  0  0
   57.5427   27.4537   46.2595 H   0  0  0  0  0  0  0  0  0  0  0  0
   59.9650   28.4671   44.6700 H   0  0  0  0  0  0  0  0  0  0  0  0
   62.0435   29.6088   45.4442 H   0  0  0  0  0  0  0  0  0  0  0  0
   62.0180   30.9698   47.5374 H   0  0  0  0  0  0  0  0  0  0  0  0
   59.9128   31.1891   48.8591 H   0  0  0  0  0  0  0  0  0  0  0  0
   57.8250   30.0631   48.0844 H   0  0  0  0  0  0  0  0  0  0  0  0
  1  2  1  0
  2  3  1  0
  3  4  1  0
  4  5  1  0
  5  6  1  0
  6  7  2  0
  7  8  1  0
  8  9  2  0
  9 10  1  0
 10 11  2  0
  2 12  1  0
 12 13  2  0
 12 14  1  0
 14 15  1  0
 15 16  1  0
 16 17  1  0
 17 18  2  0
 18 19  1  0
 19 20  2  0
 20 21  1  0
 21 22  2  0
 11  6  1  0
 22 17  1  0
  1 23  1  0
  1 24  1  0
  1 25  1  0
  3 26  1  0
  3 27  1  0
  4 28  1  0
  4 29  1  0
  5 30  1  0
  5 31  1  0
  7 32  1  0
  8 33  1  0
  9 34  1  0
 10 35  1  0
 11 36  1  0
 14 37  1  0
 15 38  1  0
 15 39  1  0
 16 40  1  0
 16 41  1  0
 18 42  1  0
 19 43  1  0
 20 44  1  0
 21 45  1  0
 22 46  1  0
M  END
>  <UniqueID>  (21) 
18

>  <SMILES>  (21) 
CN(CCCc1ccccc1)C(=O)NCCc1ccccc1

>  <Energy>  (21) 
33.885897101653704

>  <Genealogy>  (21) 
CN(CCCc1ccccc1)C(=O)NCCc1ccccc1 (3D coordinates assigned)
CN(CCCc1ccccc1)C(=O)NCCc1ccccc1 (optimized conformer: 33.885897101653704 kcal/mol)

>  <smiles>  (21) 
CN(CCCc1ccccc1)C(=O)NCCc1ccccc1

>  <score_type>  (21) 
oracle

>  <origin>  (21) 
adg

>  <m_score__min__energy>  (21) 
-7.5199999999999996

>  <m_primary>  (21) 
energy

$$$$
21:0
     RDKit          3D

 40 42  0  0  0  0  0  0  0  0999 V2000
   64.8005   33.1157   48.2969 H   0  0  0  0  0  0  0  0  0  0  0  0
   63.7630   33.4210   48.0960 C   0  0  0  0  0  0  0  0  0  0  0  0
   63.2790   33.4330   46.7840 C   0  0  0  0  0  0  0  0  0  0  0  0
   63.9372   33.1399   45.9528 H   0  0  0  0  0  0  0  0  0  0  0  0
   61.9600   33.8170   46.5280 C   0  0  0  0  0  0  0  0  0  0  0  0
   61.5833   33.8273   45.4946 H   0  0  0  0  0  0  0  0  0  0  0  0
   61.1130   34.1900   47.5850 C   0  0  0  0  0  0  0  0  0  0  0  0
   59.7020   34.6550   47.3070 C   0  0  0  0  0  0  0  0  0  0  0  0
   59.5959   35.6952   47.6486 H   0  0  0  0  0  0  0  0  0  0  0  0
   59.0103   33.9901   47.8450 H   0  0  0  0  0  0  0  0  0  0  0  0
   59.3780   34.5890   45.8720 N   0  0  0  0  0  0  0  0  0  0  0  0
   58.7260   35.3740   45.6410 H   0  0  0  0  0  0  0  0  0  0  0  0
   60.2460   34.7330   45.3030 H   0  0  0  0  0  0  0  0  0  0  0  0
   58.7470   33.3360   45.5300 C   0  0  0  0  0  0  0  0  0  0  0  0
   58.0390   33.2020   44.3230 C   0  0  0  0  0  0  0  0  0  0  0  0
   57.9922   34.0470   43.6202 H   0  0  0  0  0  0  0  0  0  0  0  0
   57.3940   32.0020   44.0100 C   0  0  0  0  0  0  0  0  0  0  0  0
   56.8442   31.9058   43.0622 H   0  0  0  0  0  0  0  0  0  0  0  0
   57.4460   30.9220   44.9000 C   0  0  0  0  0  0  0  0  0  0  0  0
   56.6360   29.4070   44.5130 S   0  0  0  0  0  0  0  0  0  0  0  0
   56.9740   28.9690   43.1150 O   0  0  0  0  0  0  0  0  0  0  0  0
   55.1510   29.6090   44.6170 O   0  0  0  0  0  0  0  0  0  0  0  0
   57.1230   28.1690   45.6270 N   0  0  0  0  0  0  0  0  0  0  0  0
   56.6390   26.9640   45.6360 C   0  0  0  0  0  0  0  0  0  0  0  0
   55.3730   26.6980   46.0220 N   0  0  0  0  0  0  0  0  0  0  0  0
   55.0720   25.4020   45.9600 N   0  0  0  0  0  0  0  0  0  0  0  0
   56.0990   24.6320   45.5380 C   0  0  0  0  0  0  0  0  0  0  0  0
   55.9930   23.1600   45.3250 C   0  0  0  0  0  0  0  0  0  0  0  0
   55.9563   22.6503   46.2991 H   0  0  0  0  0  0  0  0  0  0  0  0
   55.0764   22.9364   44.7594 H   0  0  0  0  0  0  0  0  0  0  0  0
   56.8681   22.8074   44.7594 H   0  0  0  0  0  0  0  0  0  0  0  0
   57.4610   25.5580   45.1840 S   0  0  0  0  0  0  0  0  0  0  0  0
   58.1420   31.0530   46.1080 C   0  0  0  0  0  0  0  0  0  0  0  0
   58.1792   30.2092   46.8127 H   0  0  0  0  0  0  0  0  0  0  0  0
   58.7890   32.2500   46.4220 C   0  0  0  0  0  0  0  0  0  0  0  0
   59.3346   32.3438   47.3726 H   0  0  0  0  0  0  0  0  0  0  0  0
   61.6080   34.1830   48.8990 C   0  0  0  0  0  0  0  0  0  0  0  0
   60.9552   34.4822   49.7322 H   0  0  0  0  0  0  0  0  0  0  0  0
   62.9280   33.7970   49.1520 C   0  0  0  0  0  0  0  0  0  0  0  0
   63.3098   33.7893   50.1836 H   0  0  0  0  0  0  0  0  0  0  0  0
  1  2  1  0
  2  3  2  0
  3  4  1  0
  3  5  1  0
  5  6  1  0
  5  7  2  0
  7  8  1  0
  8  9  1  0
  8 10  1  0
  8 11  1  0
 11 12  1  0
 11 13  1  0
 11 14  1  0
 14 15  2  0
 15 16  1  0
 15 17  1  0
 17 18  1  0
 17 19  2  0
 19 20  1  0
 20 21  2  0
 20 22  2  0
 20 23  1  0
 23 24  2  0
 24 25  1  0
 25 26  1  0
 26 27  2  0
 27 28  1  0
 28 29  1  0
 28 30  1  0
 28 31  1  0
 27 32  1  0
 19 33  1  0
 33 34  1  0
 33 35  2  0
 35 36  1  0
  7 37  1  0
 37 38  1  0
 37 39  2  0
 39 40  1  0
 39  2  1  0
 35 14  1  0
 32 24  1  0
M  CHG  2  11   1  25  -1
M  END
>  <UniqueID>  (22) 
19

>  <SMILES>  (22) 
Cc1n[n-]/c(=N/S(=O)(=O)c2ccc([NH2+]Cc3ccccc3)cc2)s1

>  <Energy>  (22) 
78.11121837945542

>  <Genealogy>  (22) 
Cc1n[n-]c(=NS(=O)(=O)c2ccc([NH2+]Cc3ccccc3)cc2)s1 (protonated)
Cc1n[n-]/c(=N/S(=O)(=O)c2ccc([NH2+]Cc3ccccc3)cc2)s1 (cis-trans isomerization)
Cc1n[n-]/c(=N/S(=O)(=O)c2ccc([NH2+]Cc3ccccc3)cc2)s1 (3D coordinates assigned)
Cc1n[n-]/c(=N/S(=O)(=O)c2ccc([NH2+]Cc3ccccc3)cc2)s1 (optimized conformer: 78.11121837945542 kcal/mol)

>  <smiles>  (22) 
Cc1n[nH]c(=NS(=O)(=O)c2ccc(NCc3ccccc3)cc2)s1

>  <score_type>  (22) 
oracle

>  <origin>  (22) 
adg

>  <m_score__min__energy>  (22) 
-9.8000000000000007

>  <m_primary>  (22) 
energy

$$$$
22:0
     RDKit          3D

 43 44  0  0  0  0  0  0  0  0999 V2000
   57.6700   28.5460   43.7690 C   0  0  0  0  0  0  0  0  0  0  0  0
   57.0090   30.1970   43.8660 S   0  0  0  0  0  0  0  0  0  0  0  0
   56.6160   30.6890   42.5020 O   0  0  0  0  0  0  0  0  0  0  0  0
   55.7840   30.1690   44.7370 O   0  0  0  0  0  0  0  0  0  0  0  0
   58.1750   31.2690   44.5750 N   0  0  0  0  0  0  0  0  0  0  0  0
   58.3310   31.4860   45.9910 C   0  0  0  0  0  0  0  0  0  0  0  0
   58.7880   30.4750   46.8570 C   0  0  0  0  0  0  0  0  0  0  0  0
   58.9280   30.7250   48.2260 C   0  0  0  0  0  0  0  0  0  0  0  0
   58.6280   31.9910   48.7510 C   0  0  0  0  0  0  0  0  0  0  0  0
   58.7420   32.2470   50.2260 C   0  0  0  0  0  0  0  0  0  0  0  0
   58.4520   31.0130   50.9500 N   0  0  0  0  0  0  0  0  0  0  0  0
   57.1160   31.2610   52.0300 S   0  0  0  0  0  0  0  0  0  0  0  0
   56.6700   32.6970   51.9630 O   0  0  0  0  0  0  0  0  0  0  0  0
   57.5740   30.9670   53.4310 O   0  0  0  0  0  0  0  0  0  0  0  0
   55.8190   30.1660   51.6320 N   0  0  0  0  0  0  0  0  0  0  0  0
   54.5670   30.5320   52.2960 C   0  0  0  0  0  0  0  0  0  0  0  0
   53.4660   30.8340   51.2760 C   0  0  0  0  0  0  0  0  0  0  0  0
   52.3210   31.4750   51.9210 N   0  0  0  0  0  0  0  0  0  0  0  0
   51.8690   31.2170   53.2800 C   0  0  0  0  0  0  0  0  0  0  0  0
   50.5900   32.0720   53.4570 C   0  0  0  0  0  0  0  0  0  0  0  0
   50.3320   32.7090   52.1690 N   0  0  0  0  0  0  0  0  0  0  0  0
   51.3780   32.3250   51.3060 C   0  0  0  0  0  0  0  0  0  0  0  0
   51.4430   32.6870   50.1020 O   0  0  0  0  0  0  0  0  0  0  0  0
   58.1610   32.9970   47.8920 C   0  0  0  0  0  0  0  0  0  0  0  0
   58.0230   32.7470   46.5240 C   0  0  0  0  0  0  0  0  0  0  0  0
   57.8271   28.1537   44.7846 H   0  0  0  0  0  0  0  0  0  0  0  0
   56.9618   27.8985   43.2313 H   0  0  0  0  0  0  0  0  0  0  0  0
   58.6294   28.5661   43.2313 H   0  0  0  0  0  0  0  0  0  0  0  0
   58.7560   31.8300   43.9140 H   0  0  0  0  0  0  0  0  0  0  0  0
   59.0366   29.4819   46.4546 H   0  0  0  0  0  0  0  0  0  0  0  0
   59.2755   29.9241   48.8952 H   0  0  0  0  0  0  0  0  0  0  0  0
   59.7624   32.5821   50.4637 H   0  0  0  0  0  0  0  0  0  0  0  0
   58.0256   33.0272   50.5227 H   0  0  0  0  0  0  0  0  0  0  0  0
   54.2436   29.6982   52.9364 H   0  0  0  0  0  0  0  0  0  0  0  0
   54.7431   31.4369   52.8961 H   0  0  0  0  0  0  0  0  0  0  0  0
   53.8661   31.5054   50.5019 H   0  0  0  0  0  0  0  0  0  0  0  0
   53.1325   29.8868   50.8270 H   0  0  0  0  0  0  0  0  0  0  0  0
   51.6398   30.1494   53.4133 H   0  0  0  0  0  0  0  0  0  0  0  0
   52.6387   31.4735   54.0228 H   0  0  0  0  0  0  0  0  0  0  0  0
   49.7417   31.4316   53.7403 H   0  0  0  0  0  0  0  0  0  0  0  0
   50.7211   32.8219   54.2510 H   0  0  0  0  0  0  0  0  0  0  0  0
   57.9024   33.9866   48.2969 H   0  0  0  0  0  0  0  0  0  0  0  0
   57.6691   33.5475   45.8577 H   0  0  0  0  0  0  0  0  0  0  0  0
  1  2  1  0
  2  3  2  0
  2  4  2  0
  2  5  1  0
  5  6  1  0
  6  7  2  0
  7  8  1  0
  8  9  2  0
  9 10  1  0
 10 11  1  0
 11 12  1  0
 12 13  2  0
 12 14  2  0
 12 15  1  0
 15 16  1  0
 16 17  1  0
 17 18  1  0
 18 19  1  0
 19 20  1  0
 20 21  1  0
 21 22  1  0
 22 23  2  0
  9 24  1  0
 24 25  2  0
 25  6  1  0
 22 18  1  0
  1 26  1  0
  1 27  1  0
  1 28  1  0
  5 29  1  0
  7 30  1  0
  8 31  1  0
 10 32  1  0
 10 33  1  0
 16 34  1  0
 16 35  1  0
 17 36  1  0
 17 37  1  0
 19 38  1  0
 19 39  1  0
 20 40  1  0
 20 41  1  0
 24 42  1  0
 25 43  1  0
M  CHG  3  11  -1  15  -1  21  -1
M  END
>  <UniqueID>  (23) 
20

>  <SMILES>  (23) 
CS(=O)(=O)Nc1ccc(C[N-]S(=O)(=O)[N-]CCN2CC[N-]C2=O)cc1

>  <Energy>  (23) 
47.20084537994846

>  <Genealogy>  (23) 
CS(=O)(=O)Nc1ccc(C[N-]S(=O)(=O)[N-]CCN2CC[N-]C2=O)cc1 (protonated)
CS(=O)(=O)Nc1ccc(C[N-]S(=O)(=O)[N-]CCN2CC[N-]C2=O)cc1 (3D coordinates assigned)
CS(=O)(=O)Nc1ccc(C[N-]S(=O)(=O)[N-]CCN2CC[N-]C2=O)cc1 (nonaromatic ring conformer: 47.20084537994846 kcal/mol)

>  <smiles>  (23) 
CS(=O)(=O)Nc1ccc(CNS(=O)(=O)NCCN2CCNC2=O)cc1

>  <score_type>  (23) 
oracle

>  <origin>  (23) 
adg

>  <m_score__min__energy>  (23) 
-13.18

>  <m_primary>  (23) 
energy

$$$$
23:0
     RDKit          3D

 70 73  0  0  0  0  0  0  0  0999 V2000
   57.6406   35.1532   44.4271 H   0  0  0  0  0  0  0  0  0  0  0  0
   58.1150   34.5420   45.2090 C   0  0  0  0  0  0  0  0  0  0  0  0
   57.3230   33.8150   46.1050 C   0  0  0  0  0  0  0  0  0  0  0  0
   56.2269   33.8400   46.0157 H   0  0  0  0  0  0  0  0  0  0  0  0
   57.9260   33.0560   47.1150 C   0  0  0  0  0  0  0  0  0  0  0  0
   57.3025   32.4674   47.8041 H   0  0  0  0  0  0  0  0  0  0  0  0
   59.3230   33.0430   47.2520 C   0  0  0  0  0  0  0  0  0  0  0  0
   59.9100   32.3390   48.3080 O   0  0  0  0  0  0  0  0  0  0  0  0
   59.5400   32.5160   49.6480 C   0  0  0  0  0  0  0  0  0  0  0  0
   59.6570   33.7910   50.2160 C   0  0  0  0  0  0  0  0  0  0  0  0
   60.0559   34.6218   49.6154 H   0  0  0  0  0  0  0  0  0  0  0  0
   59.2710   34.0150   51.5390 C   0  0  0  0  0  0  0  0  0  0  0  0
   59.3538   35.0229   51.9718 H   0  0  0  0  0  0  0  0  0  0  0  0
   58.7800   32.9620   52.3140 C   0  0  0  0  0  0  0  0  0  0  0  0
   58.4600   33.1450   53.3504 H   0  0  0  0  0  0  0  0  0  0  0  0
   58.6950   31.6770   51.7740 C   0  0  0  0  0  0  0  0  0  0  0  0
   58.3157   30.8481   52.3897 H   0  0  0  0  0  0  0  0  0  0  0  0
   59.0930   31.4380   50.4440 C   0  0  0  0  0  0  0  0  0  0  0  0
   59.1060   30.1500   49.8960 O   0  0  0  0  0  0  0  0  0  0  0  0
   59.2880   29.8440   48.5170 C   0  0  0  0  0  0  0  0  0  0  0  0
   58.3122   29.6389   48.0525 H   0  0  0  0  0  0  0  0  0  0  0  0
   59.7584   30.6966   48.0054 H   0  0  0  0  0  0  0  0  0  0  0  0
   60.1860   28.6060   48.3960 C   0  0  0  0  0  0  0  0  0  0  0  0
   60.7309   28.6608   47.4420 H   0  0  0  0  0  0  0  0  0  0  0  0
   60.8666   28.6091   49.2602 H   0  0  0  0  0  0  0  0  0  0  0  0
   59.4560   27.3770   48.4330 O   0  0  0  0  0  0  0  0  0  0  0  0
   58.2590   27.2120   47.7630 N   0  0  0  0  0  0  0  0  0  0  0  0
   58.1800   27.0780   46.4710 C   0  0  0  0  0  0  0  0  0  0  0  0
   58.0850   28.2530   45.5600 C   0  0  0  0  0  0  0  0  0  0  0  0
   56.8430   28.6720   45.0480 C   0  0  0  0  0  0  0  0  0  0  0  0
   55.9307   28.1133   45.3041 H   0  0  0  0  0  0  0  0  0  0  0  0
   56.7590   29.7960   44.2140 C   0  0  0  0  0  0  0  0  0  0  0  0
   55.7859   30.1059   43.8054 H   0  0  0  0  0  0  0  0  0  0  0  0
   57.9100   30.5220   43.9020 C   0  0  0  0  0  0  0  0  0  0  0  0
   57.7930   32.0770   42.7970 Br  0  0  0  0  0  0  0  0  0  0  0  0
   59.1500   30.1130   44.4020 C   0  0  0  0  0  0  0  0  0  0  0  0
   60.0567   30.6850   44.1557 H   0  0  0  0  0  0  0  0  0  0  0  0
   59.2400   28.9790   45.2140 C   0  0  0  0  0  0  0  0  0  0  0  0
   60.2220   28.6511   45.5858 H   0  0  0  0  0  0  0  0  0  0  0  0
   58.2820   25.6880   45.8890 C   0  0  0  0  0  0  0  0  0  0  0  0
   59.1508   25.6401   45.2161 H   0  0  0  0  0  0  0  0  0  0  0  0
   58.3986   24.9659   46.7105 H   0  0  0  0  0  0  0  0  0  0  0  0
   57.0140   25.3420   45.1010 C   0  0  0  0  0  0  0  0  0  0  0  0
   56.9246   26.0267   44.2448 H   0  0  0  0  0  0  0  0  0  0  0  0
   57.0896   24.3004   44.7554 H   0  0  0  0  0  0  0  0  0  0  0  0
   55.7940   25.4720   45.9620 C   0  0  0  0  0  0  0  0  0  0  0  0
   55.4340   24.5110   46.6970 O   0  0  0  0  0  0  0  0  0  0  0  0
   55.0970   26.6720   46.0000 O   0  0  0  0  0  0  0  0  0  0  0  0
   60.1220   33.7210   46.3030 C   0  0  0  0  0  0  0  0  0  0  0  0
   61.5540   33.6130   46.3130 N   0  0  0  0  0  0  0  0  0  0  0  0
   62.3410   33.3620   47.4840 C   0  0  0  0  0  0  0  0  0  0  0  0
   63.0000   34.3110   47.9850 O   0  0  0  0  0  0  0  0  0  0  0  0
   62.3620   32.0590   48.0930 N   0  0  0  0  0  0  0  0  0  0  0  0
   61.7410   31.3070   47.7180 H   0  0  0  0  0  0  0  0  0  0  0  0
   63.1640   31.7450   49.2380 C   0  0  0  0  0  0  0  0  0  0  0  0
   64.4420   32.3020   49.3610 C   0  0  0  0  0  0  0  0  0  0  0  0
   64.8367   32.9464   48.5617 H   0  0  0  0  0  0  0  0  0  0  0  0
   65.2210   32.0440   50.4950 C   0  0  0  0  0  0  0  0  0  0  0  0
   66.2370   32.4591   50.5689 H   0  0  0  0  0  0  0  0  0  0  0  0
   64.7080   31.2560   51.5390 C   0  0  0  0  0  0  0  0  0  0  0  0
   65.5400   30.9780   52.7560 C   0  0  0  0  0  0  0  0  0  0  0  0
   64.9454   31.1767   53.6599 H   0  0  0  0  0  0  0  0  0  0  0  0
   65.8577   29.9249   52.7502 H   0  0  0  0  0  0  0  0  0  0  0  0
   66.4270   31.6286   52.7502 H   0  0  0  0  0  0  0  0  0  0  0  0
   63.4210   30.7030   51.4200 C   0  0  0  0  0  0  0  0  0  0  0  0
   63.0143   30.0796   52.2299 H   0  0  0  0  0  0  0  0  0  0  0  0
   62.6570   30.9440   50.2740 C   0  0  0  0  0  0  0  0  0  0  0  0
   61.6531   30.5036   50.1835 H   0  0  0  0  0  0  0  0  0  0  0  0
   59.5100   34.4920   45.3070 C   0  0  0  0  0  0  0  0  0  0  0  0
   60.1291   35.0613   44.5980 H   0  0  0  0  0  0  0  0  0  0  0  0
  1  2  1  0
  2  3  2  0
  3  4  1  0
  3  5  1  0
  5  6  1  0
  5  7  2  0
  7  8  1  0
  8  9  1  0
  9 10  2  0
 10 11  1  0
 10 12  1  0
 12 13  1  0
 12 14  2  0
 14 15  1  0
 14 16  1  0
 16 17  1  0
 16 18  2  0
 18 19  1  0
 19 20  1  0
 20 21  1  0
 20 22  1  0
 20 23  1  0
 23 24  1  0
 23 25  1  0
 23 26  1  0
 26 27  1  0
 27 28  2  0
 28 29  1  0
 29 30  2  0
 30 31  1  0
 30 32  1  0
 32 33  1  0
 32 34  2  0
 34 35  1  0
 34 36  1  0
 36 37  1  0
 36 38  2  0
 38 39  1  0
 28 40  1  0
 40 41  1  0
 40 42  1  0
 40 43  1  0
 43 44  1  0
 43 45  1  0
 43 46  1  0
 46 47  2  0
 46 48  1  0
  7 49  1  0
 49 50  1  0
 50 51  1  0
 51 52  2  0
 51 53  1  0
 53 54  1  0
 53 55  1  0
 55 56  2  0
 56 57  1  0
 56 58  1  0
 58 59  1  0
 58 60  2  0
 60 61  1  0
 61 62  1  0
 61 63  1  0
 61 64  1  0
 60 65  1  0
 65 66  1  0
 65 67  2  0
 67 68  1  0
 49 69  2  0
 69 70  1  0
 69  2  1  0
 18  9  1  0
 38 29  1  0
 67 55  1  0
M  CHG  2  48  -1  50  -1
M  END
>  <UniqueID>  (24) 
21

>  <SMILES>  (24) 
Cc1ccc(NC(=O)[N-]c2ccccc2Oc2ccccc2OCCO/N=C(/CCC(=O)[O-])c2ccc(Br)cc2)cc1

>  <Energy>  (24) 
91.55047407175577

>  <Genealogy>  (24) 
Cc1ccc(NC(=O)[N-]c2ccccc2Oc2ccccc2OCCON=C(CCC(=O)[O-])c2ccc(Br)cc2)cc1 (protonated)
Cc1ccc(NC(=O)[N-]c2ccccc2Oc2ccccc2OCCO/N=C(/CCC(=O)[O-])c2ccc(Br)cc2)cc1 (cis-trans isomerization)
Cc1ccc(NC(=O)[N-]c2ccccc2Oc2ccccc2OCCO/N=C(/CCC(=O)[O-])c2ccc(Br)cc2)cc1 (3D coordinates assigned)
Cc1ccc(NC(=O)[N-]c2ccccc2Oc2ccccc2OCCO/N=C(/CCC(=O)[O-])c2ccc(Br)cc2)cc1 (optimized conformer: 91.55047407175577 kcal/mol)

>  <smiles>  (24) 
Cc1ccc(NC(=O)Nc2ccccc2Oc2ccccc2OCCON=C(CCC(=O)O)c2ccc(Br)cc2)cc1

>  <score_type>  (24) 
oracle

>  <origin>  (24) 
adg

>  <m_score__min__energy>  (24) 
-15.880000000000001

>  <m_primary>  (24) 
energy

$$$$
24:0
     RDKit          3D

 59 62  0  0  1  0  0  0  0  0999 V2000
   57.1740   29.1160   43.3220 C   0  0  0  0  0  0  0  0  0  0  0  0
   56.7180   30.3090   44.5360 S   0  0  0  0  0  0  0  0  0  0  0  0
   55.2080   30.4020   44.5160 O   0  0  0  0  0  0  0  0  0  0  0  0
   57.1010   29.8810   45.9180 O   0  0  0  0  0  0  0  0  0  0  0  0
   57.3440   31.8950   44.1650 N   0  0  0  0  0  0  0  0  0  0  0  0
   58.0710   32.6310   45.1420 C   0  0  0  0  0  0  0  0  0  0  0  0
   57.5220   33.8130   45.5860 C   0  0  0  0  0  0  0  0  0  0  0  0
   58.2340   34.5160   46.5320 C   0  0  0  0  0  0  0  0  0  0  0  0
   59.4410   34.0870   47.0330 C   0  0  0  0  0  0  0  0  0  0  0  0
   60.0210   32.8620   46.5820 C   0  0  0  0  0  0  0  0  0  0  0  0
   60.4250   29.0080   49.6450 N   0  0  0  0  0  0  0  0  0  0  0  0
   61.1410   30.0250   49.4030 C   0  0  0  0  0  0  0  0  0  0  0  0
   60.8610   30.8220   48.3650 N   0  0  0  0  0  0  0  0  0  0  0  0
   61.6110   31.9330   48.0710 C   0  0  0  0  0  0  0  0  0  0  0  0
   61.2700   32.5760   47.0670 N   0  0  0  0  0  0  0  0  0  0  0  0
   59.9040   28.1550   48.6030 C   0  0  0  0  0  0  0  0  0  0  0  0
   58.6090   28.3370   48.1170 C   0  0  0  0  0  0  0  0  0  0  0  0
   58.1430   27.4880   47.1070 C   0  0  0  0  0  0  0  0  0  0  0  0
   58.9470   26.4890   46.6010 C   0  0  0  0  0  0  0  0  0  0  0  0
   58.3900   25.6460   45.5500 C   0  0  0  0  0  0  0  0  0  0  0  0
   58.1710   26.1770   44.4310 O   0  0  0  0  0  0  0  0  0  0  0  0
   58.0880   24.2690   45.7370 N   0  0  0  0  0  0  0  0  0  0  0  0
   57.5420   23.4720   44.6870 C   0  0  0  0  0  0  0  0  0  0  0  0
   58.2060   22.2760   44.4000 C   0  0  0  0  0  0  0  0  0  0  0  0
   57.7500   21.4440   43.4030 C   0  0  0  0  0  0  0  0  0  0  0  0
   56.6280   21.8060   42.6870 C   0  0  0  0  0  0  0  0  0  0  0  0
   55.9760   22.9930   42.9760 C   0  0  0  0  0  0  0  0  0  0  0  0
   56.4190   23.8400   43.9730 C   0  0  0  0  0  0  0  0  0  0  0  0
   60.2150   26.3380   47.1010 C   0  0  0  0  0  0  0  0  0  0  0  0
   60.7190   27.1560   48.1020 C   0  0  0  0  0  0  0  0  0  0  0  0
   62.1850   30.3400   50.1590 N   0  0  0  0  0  0  0  0  0  0  0  0
   62.9450   31.4150   49.9100 C   0  0  0  0  0  0  0  0  0  0  0  0
   62.7040   32.2970   48.8340 C   0  0  0  0  0  0  0  0  0  0  0  0
   63.5100   33.4920   48.6370 C   0  0  0  0  0  0  0  0  0  0  0  0
   63.7390   33.4320   47.2060 F   0  0  0  0  0  0  0  0  0  0  0  0
   62.9970   34.7210   48.6260 F   0  0  0  0  0  0  0  0  0  0  0  0
   64.8770   33.3490   48.9020 F   0  0  0  0  0  0  0  0  0  0  0  0
   59.2750   32.1990   45.6400 C   0  0  0  0  0  0  0  0  0  0  0  0
   57.5240   28.2003   43.8211 H   0  0  0  0  0  0  0  0  0  0  0  0
   56.3024   28.8808   42.6935 H   0  0  0  0  0  0  0  0  0  0  0  0
   57.9803   29.5221   42.6935 H   0  0  0  0  0  0  0  0  0  0  0  0
   57.2020   32.3370   43.2270 H   0  0  0  0  0  0  0  0  0  0  0  0
   56.5583   34.1792   45.2024 H   0  0  0  0  0  0  0  0  0  0  0  0
   57.8185   35.4641   46.9041 H   0  0  0  0  0  0  0  0  0  0  0  0
   59.9643   34.6926   47.7876 H   0  0  0  0  0  0  0  0  0  0  0  0
   60.0330   30.5540   47.7830 H   0  0  0  0  0  0  0  0  0  0  0  0
   57.9661   29.1332   48.5203 H   0  0  0  0  0  0  0  0  0  0  0  0
   57.1245   27.6191   46.7127 H   0  0  0  0  0  0  0  0  0  0  0  0
   58.2640   23.8170   46.6600 H   0  0  0  0  0  0  0  0  0  0  0  0
   59.1008   21.9973   44.9760 H   0  0  0  0  0  0  0  0  0  0  0  0
   58.2735   20.5026   43.1800 H   0  0  0  0  0  0  0  0  0  0  0  0
   56.2513   21.1520   41.8867 H   0  0  0  0  0  0  0  0  0  0  0  0
   55.0824   23.2684   42.3967 H   0  0  0  0  0  0  0  0  0  0  0  0
   55.8923   24.7806   44.1919 H   0  0  0  0  0  0  0  0  0  0  0  0
   60.8546   25.5408   46.6944 H   0  0  0  0  0  0  0  0  0  0  0  0
   61.7396   27.0138   48.4869 H   0  0  0  0  0  0  0  0  0  0  0  0
   62.4060   29.7150   50.9740 H   0  0  0  0  0  0  0  0  0  0  0  0
   63.7968   31.6201   50.5751 H   0  0  0  0  0  0  0  0  0  0  0  0
   59.6724   31.2485   45.2545 H   0  0  0  0  0  0  0  0  0  0  0  0
  1  2  1  0
  2  3  2  0
  2  4  2  0
  2  5  1  0
  5  6  1  0
  6  7  2  0
  7  8  1  0
  8  9  2  0
  9 10  1  0
 10 11  1  0
 11 12  2  0
 12 13  1  0
 13 14  1  0
 14 15  2  0
 15 16  1  0
 16 17  2  0
 17 18  1  0
 18 19  2  0
 19 20  1  0
 20 21  2  0
 20 22  1  0
 22 23  1  0
 23 24  2  0
 24 25  1  0
 25 26  2  0
 26 27  1  0
 27 28  2  0
 19 29  1  0
 29 30  2  0
 14 31  1  0
 31 32  1  0
 32 33  2  0
 33 34  1  0
 34 35  1  0
 34 36  1  0
 34 37  1  0
 10 38  2  0
 38  6  1  0
 33 12  1  0
 30 16  1  0
 28 23  1  0
  1 39  1  0
  1 40  1  0
  1 41  1  0
  5 42  1  0
  7 43  1  0
  8 44  1  0
  9 45  1  0
 13 46  1  0
 17 47  1  0
 18 48  1  0
 22 49  1  0
 24 50  1  0
 25 51  1  0
 26 52  1  0
 27 53  1  0
 28 54  1  0
 29 55  1  0
 30 56  1  0
 31 57  1  0
 32 58  1  0
 38 59  1  0
M  END
>  <smiles>  (25) 
CS(=O)(=O)Nc1cccc(N=c2[nH]c(=Nc3ccc(C(=O)Nc4ccccc4)cc3)[nH]cc2C(F)(F)F)c1

>  <score_type>  (25) 
oracle

>  <origin>  (25) 
adg

>  <m_score__min__energy>  (25) 
-10.539999999999999

>  <m_primary>  (25) 
energy

$$$$
25:0
     RDKit          3D

 39 40  0  0  0  0  0  0  0  0999 V2000
   61.8900   33.9000   48.1710 C   0  0  0  0  0  0  0  0  0  0  0  0
   60.6550   34.4710   47.7490 O   0  0  0  0  0  0  0  0  0  0  0  0
   59.6930   33.8010   46.9790 C   0  0  0  0  0  0  0  0  0  0  0  0
   59.2600   34.2910   45.7320 C   0  0  0  0  0  0  0  0  0  0  0  0
   58.2680   33.6190   45.0160 C   0  0  0  0  0  0  0  0  0  0  0  0
   57.6810   32.4610   45.5410 C   0  0  0  0  0  0  0  0  0  0  0  0
   56.5900   31.8110   44.8740 N   0  0  0  0  0  0  0  0  0  0  0  0
   56.7040   30.8380   43.8230 C   0  0  0  0  0  0  0  0  0  0  0  0
   57.6700   30.9230   43.0210 O   0  0  0  0  0  0  0  0  0  0  0  0
   55.7190   29.7120   43.6520 C   0  0  0  0  0  0  0  0  0  0  0  0
   55.5270   29.0180   44.9190 N   0  0  0  0  0  0  0  0  0  0  0  0
   56.4090   28.0010   45.4020 C   0  0  0  0  0  0  0  0  0  0  0  0
   55.9450   26.8780   45.7410 O   0  0  0  0  0  0  0  0  0  0  0  0
   57.8520   28.2910   45.5610 C   0  0  0  0  0  0  0  0  0  0  0  0
   58.3770   28.6430   46.8190 C   0  0  0  0  0  0  0  0  0  0  0  0
   59.7280   28.9780   46.9540 C   0  0  0  0  0  0  0  0  0  0  0  0
   60.5690   28.9640   45.8400 C   0  0  0  0  0  0  0  0  0  0  0  0
   60.0620   28.6100   44.5870 C   0  0  0  0  0  0  0  0  0  0  0  0
   58.7120   28.2720   44.4470 C   0  0  0  0  0  0  0  0  0  0  0  0
   58.1500   31.9370   46.7490 C   0  0  0  0  0  0  0  0  0  0  0  0
   59.1460   32.6110   47.4830 C   0  0  0  0  0  0  0  0  0  0  0  0
   59.6030   32.1420   48.7250 O   0  0  0  0  0  0  0  0  0  0  0  0
   58.7870   31.9980   49.8820 C   0  0  0  0  0  0  0  0  0  0  0  0
   61.9290   33.8820   49.2702 H   0  0  0  0  0  0  0  0  0  0  0  0
   61.9704   32.8733   47.7844 H   0  0  0  0  0  0  0  0  0  0  0  0
   62.7242   34.5038   47.7844 H   0  0  0  0  0  0  0  0  0  0  0  0
   59.7059   35.2083   45.3199 H   0  0  0  0  0  0  0  0  0  0  0  0
   57.9461   34.0004   44.0357 H   0  0  0  0  0  0  0  0  0  0  0  0
   54.7560   30.1197   43.3109 H   0  0  0  0  0  0  0  0  0  0  0  0
   56.1094   29.0020   42.9081 H   0  0  0  0  0  0  0  0  0  0  0  0
   57.7203   28.6546   47.7014 H   0  0  0  0  0  0  0  0  0  0  0  0
   60.1290   29.2533   47.9406 H   0  0  0  0  0  0  0  0  0  0  0  0
   61.6304   29.2315   45.9485 H   0  0  0  0  0  0  0  0  0  0  0  0
   60.7254   28.5971   43.7096 H   0  0  0  0  0  0  0  0  0  0  0  0
   58.3196   27.9893   43.4590 H   0  0  0  0  0  0  0  0  0  0  0  0
   57.7381   30.9907   47.1297 H   0  0  0  0  0  0  0  0  0  0  0  0
   59.4071   32.1074   50.7839 H   0  0  0  0  0  0  0  0  0  0  0  0
   58.0055   32.7721   49.8782 H   0  0  0  0  0  0  0  0  0  0  0  0
   58.3177   31.0032   49.8782 H   0  0  0  0  0  0  0  0  0  0  0  0
  1  2  1  0
  2  3  1  0
  3  4  2  0
  4  5  1  0
  5  6  2  0
  6  7  1  0
  7  8  1  0
  8  9  2  0
  8 10  1  0
 10 11  1  0
 11 12  1  0
 12 13  2  0
 12 14  1  0
 14 15  2  0
 15 16  1  0
 16 17  2  0
 17 18  1  0
 18 19  2  0
  6 20  1  0
 20 21  2  0
 21 22  1  0
 22 23  1  0
 21  3  1  0
 19 14  1  0
  1 24  1  0
  1 25  1  0
  1 26  1  0
  4 27  1  0
  5 28  1  0
 10 29  1  0
 10 30  1  0
 15 31  1  0
 16 32  1  0
 17 33  1  0
 18 34  1  0
 19 35  1  0
 20 36  1  0
 23 37  1  0
 23 38  1  0
 23 39  1  0
M  CHG  2   7  -1  11  -1
M  END
>  <UniqueID>  (26) 
22

>  <SMILES>  (26) 
COc1ccc([N-]C(=O)C[N-]C(=O)c2ccccc2)cc1OC

>  <Energy>  (26) 
38.92648179940117

>  <Genealogy>  (26) 
COc1ccc([N-]C(=O)C[N-]C(=O)c2ccccc2)cc1OC (protonated)
COc1ccc([N-]C(=O)C[N-]C(=O)c2ccccc2)cc1OC (3D coordinates assigned)
COc1ccc([N-]C(=O)C[N-]C(=O)c2ccccc2)cc1OC (optimized conformer: 38.92648179940117 kcal/mol)

>  <smiles>  (26) 
COc1ccc(NC(=O)CNC(=O)c2ccccc2)cc1OC

>  <score_type>  (26) 
oracle

>  <origin>  (26) 
adg

>  <m_score__min__energy>  (26) 
-10.390000000000001

>  <m_primary>  (26) 
energy

$$$$
26:0
     RDKit          3D

 48 51  0  0  0  0  0  0  0  0999 V2000
   59.2840   25.1500   45.9910 C   0  0  0  0  0  0  0  0  0  0  0  0
   59.4100   26.3680   46.8560 C   0  0  0  0  0  0  0  0  0  0  0  0
   58.2860   27.1750   47.0920 C   0  0  0  0  0  0  0  0  0  0  0  0
   58.3890   28.3070   47.9060 C   0  0  0  0  0  0  0  0  0  0  0  0
   59.6160   28.6390   48.5010 C   0  0  0  0  0  0  0  0  0  0  0  0
   59.7690   30.1020   49.4700 S   0  0  0  0  0  0  0  0  0  0  0  0
   58.4260   30.7530   49.6400 O   0  0  0  0  0  0  0  0  0  0  0  0
   60.2910   29.7280   50.8300 O   0  0  0  0  0  0  0  0  0  0  0  0
   60.8490   31.2210   48.6940 N   0  0  0  0  0  0  0  0  0  0  0  0
   60.3490   32.0930   47.6280 C   0  0  0  0  0  0  0  0  0  0  0  0
   59.6510   31.2800   46.5860 C   0  0  0  0  0  0  0  0  0  0  0  0
   60.2020   30.2140   45.8840 C   0  0  0  0  0  0  0  0  0  0  0  0
   59.2940   29.5940   45.0220 C   0  0  0  0  0  0  0  0  0  0  0  0
   58.0390   30.1860   45.0430 C   0  0  0  0  0  0  0  0  0  0  0  0
   56.6430   29.6270   44.1500 S   0  0  0  0  0  0  0  0  0  0  0  0
   55.5190   28.8900   45.2340 N   0  0  0  0  0  0  0  0  0  0  0  0
   57.0660   28.6150   43.1260 O   0  0  0  0  0  0  0  0  0  0  0  0
   55.9920   30.7930   43.4650 O   0  0  0  0  0  0  0  0  0  0  0  0
   58.0450   31.4730   46.1210 S   0  0  0  0  0  0  0  0  0  0  0  0
   62.1720   31.4100   49.2100 C   0  0  0  0  0  0  0  0  0  0  0  0
   62.6460   30.7810   50.3090 N   0  0  0  0  0  0  0  0  0  0  0  0
   63.8850   31.2850   50.4690 C   0  0  0  0  0  0  0  0  0  0  0  0
   64.7850   30.9570   51.4800 C   0  0  0  0  0  0  0  0  0  0  0  0
   66.0240   31.6140   51.4870 C   0  0  0  0  0  0  0  0  0  0  0  0
   66.3270   32.5740   50.5000 C   0  0  0  0  0  0  0  0  0  0  0  0
   67.8740   33.3970   50.5120 Cl  0  0  0  0  0  0  0  0  0  0  0  0
   65.3790   32.8680   49.5080 C   0  0  0  0  0  0  0  0  0  0  0  0
   64.1960   32.2030   49.5340 N   0  0  0  0  0  0  0  0  0  0  0  0
   63.1250   32.2960   48.7270 C   0  0  0  0  0  0  0  0  0  0  0  0
   62.9480   33.4370   47.4030 Cl  0  0  0  0  0  0  0  0  0  0  0  0
   60.7360   27.8250   48.2780 C   0  0  0  0  0  0  0  0  0  0  0  0
   60.6340   26.6930   47.4640 C   0  0  0  0  0  0  0  0  0  0  0  0
   59.1916   24.2569   46.6265 H   0  0  0  0  0  0  0  0  0  0  0  0
   58.3906   25.2421   45.3559 H   0  0  0  0  0  0  0  0  0  0  0  0
   60.1773   25.0573   45.3559 H   0  0  0  0  0  0  0  0  0  0  0  0
   57.3199   26.9156   46.6345 H   0  0  0  0  0  0  0  0  0  0  0  0
   57.5059   28.9392   48.0806 H   0  0  0  0  0  0  0  0  0  0  0  0
   59.6436   32.8214   48.0544 H   0  0  0  0  0  0  0  0  0  0  0  0
   61.1968   32.6201   47.1660 H   0  0  0  0  0  0  0  0  0  0  0  0
   61.2476   29.8912   45.9960 H   0  0  0  0  0  0  0  0  0  0  0  0
   59.5472   28.7279   44.3929 H   0  0  0  0  0  0  0  0  0  0  0  0
   54.5940   29.3450   45.0710 H   0  0  0  0  0  0  0  0  0  0  0  0
   62.1600   30.0720   50.9030 H   0  0  0  0  0  0  0  0  0  0  0  0
   64.5329   30.2089   52.2461 H   0  0  0  0  0  0  0  0  0  0  0  0
   66.7634   31.3790   52.2668 H   0  0  0  0  0  0  0  0  0  0  0  0
   65.5889   33.6171   48.7303 H   0  0  0  0  0  0  0  0  0  0  0  0
   61.6989   28.0783   48.7456 H   0  0  0  0  0  0  0  0  0  0  0  0
   61.5147   26.0549   47.2991 H   0  0  0  0  0  0  0  0  0  0  0  0
  1  2  1  0
  2  3  2  0
  3  4  1  0
  4  5  2  0
  5  6  1  0
  6  7  2  0
  6  8  2  0
  6  9  1  0
  9 10  1  0
 10 11  1  0
 11 12  2  0
 12 13  1  0
 13 14  2  0
 14 15  1  0
 15 16  1  0
 15 17  2  0
 15 18  2  0
 14 19  1  0
  9 20  1  0
 20 21  1  0
 21 22  2  0
 22 23  1  0
 23 24  2  0
 24 25  1  0
 25 26  1  0
 25 27  2  0
 27 28  1  0
 28 29  1  0
 29 30  1  0
  5 31  1  0
 31 32  2  0
 32  2  1  0
 19 11  1  0
 29 20  2  0
 28 22  1  0
  1 33  1  0
  1 34  1  0
  1 35  1  0
  3 36  1  0
  4 37  1  0
 10 38  1  0
 10 39  1  0
 12 40  1  0
 13 41  1  0
 16 42  1  0
 21 43  1  0
 23 44  1  0
 24 45  1  0
 27 46  1  0
 31 47  1  0
 32 48  1  0
M  CHG  2  16  -1  21   1
M  END
>  <UniqueID>  (27) 
23

>  <SMILES>  (27) 
Cc1ccc(S(=O)(=O)N(Cc2ccc(S([NH-])(=O)=O)s2)c2[nH+]c3ccc(Cl)cn3c2Cl)cc1

>  <Energy>  (27) 
114.84654518833344

>  <Genealogy>  (27) 
Cc1ccc(S(=O)(=O)N(Cc2ccc(S([NH-])(=O)=O)s2)c2[nH+]c3ccc(Cl)cn3c2Cl)cc1 (protonated)
Cc1ccc(S(=O)(=O)N(Cc2ccc(S([NH-])(=O)=O)s2)c2[nH+]c3ccc(Cl)cn3c2Cl)cc1 (3D coordinates assigned)
Cc1ccc(S(=O)(=O)N(Cc2ccc(S([NH-])(=O)=O)s2)c2[nH+]c3ccc(Cl)cn3c2Cl)cc1 (optimized conformer: 114.84654518833344 kcal/mol)

>  <smiles>  (27) 
Cc1ccc(S(=O)(=O)N(Cc2ccc(S(N)(=O)=O)s2)c2nc3ccc(Cl)cn3c2Cl)cc1

>  <score_type>  (27) 
oracle

>  <origin>  (27) 
adg

>  <m_score__min__energy>  (27) 
-11.359999999999999

>  <m_primary>  (27) 
energy

$$$$
27:0
     RDKit          3D

 44 45  0  0  0  0  0  0  0  0999 V2000
   58.6354   22.1770   45.3932 H   0  0  0  0  0  0  0  0  0  0  0  0
   58.2740   23.1930   45.1760 C   0  0  0  0  0  0  0  0  0  0  0  0
   57.1590   23.3780   44.3610 C   0  0  0  0  0  0  0  0  0  0  0  0
   56.6359   22.5118   43.9295 H   0  0  0  0  0  0  0  0  0  0  0  0
   56.7130   24.6740   44.0980 C   0  0  0  0  0  0  0  0  0  0  0  0
   55.8330   24.8310   43.4569 H   0  0  0  0  0  0  0  0  0  0  0  0
   57.3630   25.7450   44.6320 N   0  0  0  0  0  0  0  0  0  0  0  0
   57.0080   26.7000   44.4070 H   0  0  0  0  0  0  0  0  0  0  0  0
   58.4660   25.5930   45.4260 C   0  0  0  0  0  0  0  0  0  0  0  0
   59.1180   26.7480   45.9910 N   0  0  0  0  0  0  0  0  0  0  0  0
   59.6480   27.7950   45.1110 C   0  0  0  0  0  0  0  0  0  0  0  0
   58.9193   27.9985   44.3125 H   0  0  0  0  0  0  0  0  0  0  0  0
   60.5988   27.4472   44.6809 H   0  0  0  0  0  0  0  0  0  0  0  0
   59.9060   29.0850   45.8970 C   0  0  0  0  0  0  0  0  0  0  0  0
   59.9930   29.9288   45.1966 H   0  0  0  0  0  0  0  0  0  0  0  0
   60.8397   28.9824   46.4694 H   0  0  0  0  0  0  0  0  0  0  0  0
   58.7860   29.3330   46.8280 N   0  0  0  0  0  0  0  0  0  0  0  0
   58.8880   30.6870   47.4200 C   0  0  0  0  0  0  0  0  0  0  0  0
   59.6331   30.6666   48.2290 H   0  0  0  0  0  0  0  0  0  0  0  0
   57.8959   30.9682   47.8030 H   0  0  0  0  0  0  0  0  0  0  0  0
   59.3130   31.7360   46.3780 C   0  0  0  0  0  0  0  0  0  0  0  0
   59.8227   31.2211   45.5503 H   0  0  0  0  0  0  0  0  0  0  0  0
   59.9745   32.4538   46.8852 H   0  0  0  0  0  0  0  0  0  0  0  0
   58.1520   32.5130   45.8170 C   0  0  0  0  0  0  0  0  0  0  0  0
   57.0280   31.9010   45.6050 N   0  0  0  0  0  0  0  0  0  0  0  0
   56.7890   31.1970   44.4460 O   0  0  0  0  0  0  0  0  0  0  0  0
   57.1180   29.8210   44.3630 C   0  0  0  0  0  0  0  0  0  0  0  0
   57.3468   29.5606   43.3191 H   0  0  0  0  0  0  0  0  0  0  0  0
   57.9963   29.6144   44.9922 H   0  0  0  0  0  0  0  0  0  0  0  0
   55.9630   29.0070   44.8370 C   0  0  0  0  0  0  0  0  0  0  0  0
   54.7890   29.3160   44.4990 O   0  0  0  0  0  0  0  0  0  0  0  0
   56.1810   27.8720   45.6090 O   0  0  0  0  0  0  0  0  0  0  0  0
   58.3040   33.9730   45.4930 C   0  0  0  0  0  0  0  0  0  0  0  0
   58.3642   34.5514   46.4267 H   0  0  0  0  0  0  0  0  0  0  0  0
   59.2228   34.1250   44.9076 H   0  0  0  0  0  0  0  0  0  0  0  0
   57.4362   34.3110   44.9076 H   0  0  0  0  0  0  0  0  0  0  0  0
   58.6800   28.2760   47.8730 C   0  0  0  0  0  0  0  0  0  0  0  0
   57.6172   28.1389   48.1214 H   0  0  0  0  0  0  0  0  0  0  0  0
   59.2726   28.6163   48.7350 H   0  0  0  0  0  0  0  0  0  0  0  0
   59.2570   26.9160   47.4400 C   0  0  0  0  0  0  0  0  0  0  0  0
   58.7127   26.1098   47.9535 H   0  0  0  0  0  0  0  0  0  0  0  0
   60.3236   26.8764   47.7062 H   0  0  0  0  0  0  0  0  0  0  0  0
   58.9310   24.2990   45.7160 C   0  0  0  0  0  0  0  0  0  0  0  0
   59.8080   24.1589   46.3651 H   0  0  0  0  0  0  0  0  0  0  0  0
  1  2  1  0
  2  3  2  0
  3  4  1  0
  3  5  1  0
  5  6  1  0
  5  7  2  0
  7  8  1  0
  7  9  1  0
  9 10  1  0
 10 11  1  0
 11 12  1  0
 11 13  1  0
 11 14  1  0
 14 15  1  0
 14 16  1  0
 14 17  1  0
 17 18  1  0
 18 19  1  0
 18 20  1  0
 18 21  1  0
 21 22  1  0
 21 23  1  0
 21 24  1  0
 24 25  2  0
 25 26  1  0
 26 27  1  0
 27 28  1  0
 27 29  1  0
 27 30  1  0
 30 31  2  0
 30 32  1  0
 24 33  1  0
 33 34  1  0
 33 35  1  0
 33 36  1  0
 17 37  1  0
 37 38  1  0
 37 39  1  0
 37 40  1  0
 40 41  1  0
 40 42  1  0
  9 43  2  0
 43 44  1  0
 43  2  1  0
 40 10  1  0
M  CHG  2   7   1  32  -1
M  END
>  <UniqueID>  (28) 
24

>  <SMILES>  (28) 
C/C(CCN1CCN(c2cccc[nH+]2)CC1)=N\OCC(=O)[O-]

>  <Energy>  (28) 
44.89855984125572

>  <Genealogy>  (28) 
CC(CCN1CCN(c2cccc[nH+]2)CC1)=NOCC(=O)[O-] (protonated)
C/C(CCN1CCN(c2cccc[nH+]2)CC1)=N\OCC(=O)[O-] (cis-trans isomerization)
C/C(CCN1CCN(c2cccc[nH+]2)CC1)=N\OCC(=O)[O-] (3D coordinates assigned)
C/C(CCN1CCN(c2cccc[nH+]2)CC1)=N\OCC(=O)[O-] (nonaromatic ring conformer: 44.89855984125572 kcal/mol)

>  <smiles>  (28) 
CC(CCN1CCN(c2ccccn2)CC1)=NOCC(=O)O

>  <score_type>  (28) 
oracle

>  <origin>  (28) 
adg

>  <m_score__min__energy>  (28) 
-9.5999999999999996

>  <m_primary>  (28) 
energy

$$$$
28:0
     RDKit          3D

 45 49  0  0  1  0  0  0  0  0999 V2000
   59.5550   22.8610   45.2300 C   0  0  0  0  0  0  0  0  0  0  0  0
   58.1460   22.9970   44.7540 C   0  0  0  0  0  0  0  0  0  0  0  0
   57.7840   22.2200   43.6730 C   0  0  0  0  0  0  0  0  0  0  0  0
   56.4910   22.3270   43.2170 C   0  0  0  0  0  0  0  0  0  0  0  0
   55.5620   23.1760   43.8010 C   0  0  0  0  0  0  0  0  0  0  0  0
   55.9770   23.9420   44.8910 C   0  0  0  0  0  0  0  0  0  0  0  0
   54.7890   25.0120   45.6200 Cl  0  0  0  0  0  0  0  0  0  0  0  0
   57.2670   23.8630   45.3800 C   0  0  0  0  0  0  0  0  0  0  0  0
   57.6760   24.6500   46.4930 N   0  0  0  0  0  0  0  0  0  0  0  0
   58.4340   25.6740   46.2860 C   0  0  0  0  0  0  0  0  0  0  0  0
   59.7550   25.5400   46.5140 N   0  0  0  0  0  0  0  0  0  0  0  0
   60.6350   26.5280   46.3360 C   0  0  0  0  0  0  0  0  0  0  0  0
   60.1570   27.7570   45.8900 C   0  0  0  0  0  0  0  0  0  0  0  0
   58.8370   27.9160   45.6540 N   0  0  0  0  0  0  0  0  0  0  0  0
   57.9750   26.8920   45.8460 C   0  0  0  0  0  0  0  0  0  0  0  0
   56.7370   27.3050   45.5440 N   0  0  0  0  0  0  0  0  0  0  0  0
   56.8400   28.5910   45.1630 C   0  0  0  0  0  0  0  0  0  0  0  0
   55.9010   29.5200   44.7440 C   0  0  0  0  0  0  0  0  0  0  0  0
   56.2470   30.7750   44.4080 N   0  0  0  0  0  0  0  0  0  0  0  0
   57.5380   31.1370   44.4800 C   0  0  0  0  0  0  0  0  0  0  0  0
   57.8340   32.3490   44.1490 N   0  0  0  0  0  0  0  0  0  0  0  0
   58.3850   33.2640   45.0820 C   0  0  0  0  0  0  0  0  0  0  0  0
   58.1440   33.0570   46.4380 C   0  0  0  0  0  0  0  0  0  0  0  0
   58.6350   33.8880   47.4120 C   0  0  0  0  0  0  0  0  0  0  0  0
   59.3940   34.9660   47.0030 C   0  0  0  0  0  0  0  0  0  0  0  0
   59.6500   35.2000   45.6650 C   0  0  0  0  0  0  0  0  0  0  0  0
   59.1480   34.3540   44.7270 C   0  0  0  0  0  0  0  0  0  0  0  0
   58.5130   30.2700   44.8850 N   0  0  0  0  0  0  0  0  0  0  0  0
   58.1690   29.0030   45.2250 C   0  0  0  0  0  0  0  0  0  0  0  0
   59.5719   22.8594   46.3299 H   0  0  0  0  0  0  0  0  0  0  0  0
   59.9792   21.9177   44.8554 H   0  0  0  0  0  0  0  0  0  0  0  0
   60.1517   23.7057   44.8554 H   0  0  0  0  0  0  0  0  0  0  0  0
   58.5033   21.5398   43.1934 H   0  0  0  0  0  0  0  0  0  0  0  0
   56.1815   21.7160   42.3562 H   0  0  0  0  0  0  0  0  0  0  0  0
   54.5331   23.2430   43.4177 H   0  0  0  0  0  0  0  0  0  0  0  0
   60.1240   24.6230   46.8480 H   0  0  0  0  0  0  0  0  0  0  0  0
   61.7059   26.3755   46.5358 H   0  0  0  0  0  0  0  0  0  0  0  0
   60.8515   28.5950   45.7305 H   0  0  0  0  0  0  0  0  0  0  0  0
   54.8437   29.2225   44.6847 H   0  0  0  0  0  0  0  0  0  0  0  0
   55.5190   31.4810   44.0880 H   0  0  0  0  0  0  0  0  0  0  0  0
   57.5352   32.1920   46.7398 H   0  0  0  0  0  0  0  0  0  0  0  0
   58.4321   33.7029   48.4772 H   0  0  0  0  0  0  0  0  0  0  0  0
   59.8037   35.6533   47.7578 H   0  0  0  0  0  0  0  0  0  0  0  0
   60.2565   36.0659   45.3610 H   0  0  0  0  0  0  0  0  0  0  0  0
   59.3553   34.5438   43.6635 H   0  0  0  0  0  0  0  0  0  0  0  0
  1  2  1  0
  2  3  2  0
  3  4  1  0
  4  5  2  0
  5  6  1  0
  6  7  1  0
  6  8  2  0
  8  9  1  0
  9 10  2  0
 10 11  1  0
 11 12  1  0
 12 13  2  0
 13 14  1  0
 14 15  1  0
 15 16  2  0
 16 17  1  0
 17 18  2  0
 18 19  1  0
 19 20  1  0
 20 21  2  0
 21 22  1  0
 22 23  2  0
 23 24  1  0
 24 25  2  0
 25 26  1  0
 26 27  2  0
 20 28  1  0
 28 29  2  0
  8  2  1  0
 15 10  1  0
 29 17  1  0
 29 14  1  0
 27 22  1  0
  1 30  1  0
  1 31  1  0
  1 32  1  0
  3 33  1  0
  4 34  1  0
  5 35  1  0
 11 36  1  0
 12 37  1  0
 13 38  1  0
 18 39  1  0
 19 40  1  0
 23 41  1  0
 24 42  1  0
 25 43  1  0
 26 44  1  0
 27 45  1  0
M  END
>  <smiles>  (29) 
Cc1cccc(Cl)c1N=c1[nH]ccn2c1nc1c[nH]c(=Nc3ccccc3)nc12

>  <score_type>  (29) 
oracle

>  <origin>  (29) 
adg

>  <m_score__min__energy>  (29) 
-8.1300000000000008

>  <m_primary>  (29) 
energy

$$$$
29:0
     RDKit          3D

 26 28  0  0  0  0  0  0  0  0999 V2000
   55.0950   29.3430   44.5600 O   0  0  0  0  0  0  0  0  0  0  0  0
   56.2860   29.7490   44.5870 C   0  0  0  0  0  0  0  0  0  0  0  0
   56.6610   31.0850   44.5070 O   0  0  0  0  0  0  0  0  0  0  0  0
   58.0890   31.2010   44.5620 C   0  0  1  0  0  0  0  0  0  0  0  0
   58.5180   32.0320   45.7470 C   0  0  0  0  0  0  0  0  0  0  0  0
   58.8480   33.3900   45.5920 C   0  0  0  0  0  0  0  0  0  0  0  0
   59.2130   34.1580   46.7010 C   0  0  0  0  0  0  0  0  0  0  0  0
   59.2450   33.5860   47.9770 C   0  0  0  0  0  0  0  0  0  0  0  0
   59.7070   34.5860   49.3470 Cl  0  0  0  0  0  0  0  0  0  0  0  0
   58.9040   32.2340   48.1430 C   0  0  0  0  0  0  0  0  0  0  0  0
   58.9210   31.4780   49.7320 Cl  0  0  0  0  0  0  0  0  0  0  0  0
   58.5390   31.4650   47.0310 C   0  0  0  0  0  0  0  0  0  0  0  0
   58.5430   29.7720   44.7010 C   0  0  0  0  0  0  0  0  0  0  0  0
   59.8430   29.2710   44.7940 C   0  0  0  0  0  0  0  0  0  0  0  0
   60.0180   27.8800   44.9090 C   0  0  0  0  0  0  0  0  0  0  0  0
   58.9000   27.0190   44.9240 C   0  0  0  0  0  0  0  0  0  0  0  0
   57.6000   27.5420   44.8230 C   0  0  0  0  0  0  0  0  0  0  0  0
   57.4600   28.9240   44.7110 C   0  0  0  0  0  0  0  0  0  0  0  0
   58.5189   31.7034   43.6829 H   0  0  0  0  0  0  0  0  0  0  0  0
   58.8187   33.8500   44.5932 H   0  0  0  0  0  0  0  0  0  0  0  0
   59.4765   35.2179   46.5698 H   0  0  0  0  0  0  0  0  0  0  0  0
   58.2665   30.4077   47.1648 H   0  0  0  0  0  0  0  0  0  0  0  0
   60.7098   29.9481   44.7777 H   0  0  0  0  0  0  0  0  0  0  0  0
   61.0320   27.4610   44.9877 H   0  0  0  0  0  0  0  0  0  0  0  0
   59.0472   25.9327   45.0152 H   0  0  0  0  0  0  0  0  0  0  0  0
   56.7204   26.8815   44.8320 H   0  0  0  0  0  0  0  0  0  0  0  0
  1  2  2  0
  2  3  1  0
  3  4  1  0
  4  5  1  0
  5  6  2  0
  6  7  1  0
  7  8  2  0
  8  9  1  0
  8 10  1  0
 10 11  1  0
 10 12  2  0
  4 13  1  0
 13 14  2  0
 14 15  1  0
 15 16  2  0
 16 17  1  0
 17 18  2  0
 18  2  1  0
 12  5  1  0
 18 13  1  0
  4 19  1  6
  6 20  1  0
  7 21  1  0
 12 22  1  0
 14 23  1  0
 15 24  1  0
 16 25  1  0
 17 26  1  0
M  END
>  <UniqueID>  (30) 
25

>  <SMILES>  (30) 
O=C1O[C@@H](c2ccc(Cl)c(Cl)c2)c2ccccc21

>  <Energy>  (30) 
53.194127913785906

>  <Genealogy>  (30) 
O=C1O[C@@H](c2ccc(Cl)c(Cl)c2)c2ccccc21 (chirality)
O=C1O[C@@H](c2ccc(Cl)c(Cl)c2)c2ccccc21 (3D coordinates assigned)
O=C1O[C@@H](c2ccc(Cl)c(Cl)c2)c2ccccc21 (nonaromatic ring conformer: 53.194127913785906 kcal/mol)

>  <smiles>  (30) 
O=C1OC(c2ccc(Cl)c(Cl)c2)c2ccccc21

>  <score_type>  (30) 
oracle

>  <origin>  (30) 
adg

>  <m_score__min__energy>  (30) 
-7.4299999999999997

>  <m_primary>  (30) 
energy

$$$$
30:0
     RDKit          3D

 43 45  0  0  0  0  0  0  0  0999 V2000
   58.7330   31.5690   48.9360 C   0  0  0  0  0  0  0  0  0  0  0  0
   59.8550   31.2090   48.0700 N   0  0  0  0  0  0  0  0  0  0  0  0
   59.8380   30.7750   46.7860 C   0  0  0  0  0  0  0  0  0  0  0  0
   58.6380   30.6440   45.9340 C   0  0  0  0  0  0  0  0  0  0  0  0
   58.2950   31.6440   45.0110 C   0  0  0  0  0  0  0  0  0  0  0  0
   57.1700   31.4940   44.1970 C   0  0  0  0  0  0  0  0  0  0  0  0
   56.3870   30.3420   44.2880 C   0  0  0  0  0  0  0  0  0  0  0  0
   56.7230   29.3240   45.1890 C   0  0  0  0  0  0  0  0  0  0  0  0
   55.8920   28.1550   45.2410 N   0  0  0  0  0  0  0  0  0  0  0  0
   56.3760   26.5890   45.8060 S   0  0  0  0  0  0  0  0  0  0  0  0
   57.4270   25.8000   44.6040 C   0  0  0  0  0  0  0  0  0  0  0  0
   57.1470   26.7550   47.0840 O   0  0  0  0  0  0  0  0  0  0  0  0
   55.1630   25.7430   46.0780 O   0  0  0  0  0  0  0  0  0  0  0  0
   57.8590   29.4760   46.0060 C   0  0  0  0  0  0  0  0  0  0  0  0
   61.0800   30.4660   46.3550 N   0  0  0  0  0  0  0  0  0  0  0  0
   61.8990   30.7260   47.3610 N   0  0  0  0  0  0  0  0  0  0  0  0
   61.1650   31.1840   48.3880 C   0  0  0  0  0  0  0  0  0  0  0  0
   61.8600   31.7200   49.9550 S   0  0  0  0  0  0  0  0  0  0  0  0
   62.3510   33.3720   49.3470 C   0  0  0  0  0  0  0  0  0  0  0  0
   61.3860   33.8830   48.3100 C   0  0  0  0  0  0  0  0  0  0  0  0
   60.1460   34.4070   48.7120 C   0  0  0  0  0  0  0  0  0  0  0  0
   59.2250   34.8530   47.7590 C   0  0  0  0  0  0  0  0  0  0  0  0
   59.5340   34.7770   46.3990 C   0  0  0  0  0  0  0  0  0  0  0  0
   60.7630   34.2550   45.9880 C   0  0  0  0  0  0  0  0  0  0  0  0
   61.6880   33.8080   46.9360 C   0  0  0  0  0  0  0  0  0  0  0  0
   62.8710   33.2940   46.5110 F   0  0  0  0  0  0  0  0  0  0  0  0
   59.0365   31.4716   49.9888 H   0  0  0  0  0  0  0  0  0  0  0  0
   58.4337   32.6083   48.7353 H   0  0  0  0  0  0  0  0  0  0  0  0
   57.8849   30.8979   48.7353 H   0  0  0  0  0  0  0  0  0  0  0  0
   58.9144   32.5492   44.9283 H   0  0  0  0  0  0  0  0  0  0  0  0
   56.9003   32.2856   43.4824 H   0  0  0  0  0  0  0  0  0  0  0  0
   55.4995   30.2330   43.6473 H   0  0  0  0  0  0  0  0  0  0  0  0
   58.2031   25.2173   45.1218 H   0  0  0  0  0  0  0  0  0  0  0  0
   56.8243   25.1294   43.9739 H   0  0  0  0  0  0  0  0  0  0  0  0
   57.9027   26.5659   43.9739 H   0  0  0  0  0  0  0  0  0  0  0  0
   58.1393   28.6750   46.7059 H   0  0  0  0  0  0  0  0  0  0  0  0
   62.9350   30.6050   47.3340 H   0  0  0  0  0  0  0  0  0  0  0  0
   62.3717   34.0738   50.1938 H   0  0  0  0  0  0  0  0  0  0  0  0
   63.3458   33.2901   48.8848 H   0  0  0  0  0  0  0  0  0  0  0  0
   59.8983   34.4668   49.7821 H   0  0  0  0  0  0  0  0  0  0  0  0
   58.2566   35.2639   48.0806 H   0  0  0  0  0  0  0  0  0  0  0  0
   58.8087   35.1286   45.6505 H   0  0  0  0  0  0  0  0  0  0  0  0
   61.0033   34.1956   44.9162 H   0  0  0  0  0  0  0  0  0  0  0  0
  1  2  1  0
  2  3  1  0
  3  4  1  0
  4  5  2  0
  5  6  1  0
  6  7  2  0
  7  8  1  0
  8  9  1  0
  9 10  1  0
 10 11  1  0
 10 12  2  0
 10 13  2  0
  8 14  2  0
  3 15  2  0
 15 16  1  0
 16 17  2  0
 17 18  1  0
 18 19  1  0
 19 20  1  0
 20 21  2  0
 21 22  1  0
 22 23  2  0
 23 24  1  0
 24 25  2  0
 25 26  1  0
 17  2  1  0
 25 20  1  0
 14  4  1  0
  1 27  1  0
  1 28  1  0
  1 29  1  0
  5 30  1  0
  6 31  1  0
  7 32  1  0
 11 33  1  0
 11 34  1  0
 11 35  1  0
 14 36  1  0
 16 37  1  0
 19 38  1  0
 19 39  1  0
 21 40  1  0
 22 41  1  0
 23 42  1  0
 24 43  1  0
M  CHG  2   9  -1  16   1
M  END
>  <UniqueID>  (31) 
26

>  <SMILES>  (31) 
Cn1c(-c2cccc([N-]S(C)(=O)=O)c2)n[nH+]c1SCc1ccccc1F

>  <Energy>  (31) 
77.72027471777105

>  <Genealogy>  (31) 
Cn1c(-c2cccc([N-]S(C)(=O)=O)c2)n[nH+]c1SCc1ccccc1F (protonated)
Cn1c(-c2cccc([N-]S(C)(=O)=O)c2)n[nH+]c1SCc1ccccc1F (3D coordinates assigned)
Cn1c(-c2cccc([N-]S(C)(=O)=O)c2)n[nH+]c1SCc1ccccc1F (optimized conformer: 77.72027471777105 kcal/mol)

>  <smiles>  (31) 
Cn1c(SCc2ccccc2F)nnc1-c1cccc(NS(C)(=O)=O)c1

>  <score_type>  (31) 
oracle

>  <origin>  (31) 
adg

>  <m_score__min__energy>  (31) 
-9.7899999999999991

>  <m_primary>  (31) 
energy

$$$$
31:0
     RDKit          3D

 45 47  0  0  0  0  0  0  0  0999 V2000
   59.3100   29.0260   49.1780 C   0  0  0  0  0  0  0  0  0  0  0  0
   59.8940   27.9990   48.2000 C   0  0  0  0  0  0  0  0  0  0  0  0
   60.3940   26.7530   48.9430 C   0  0  0  0  0  0  0  0  0  0  0  0
   58.8850   27.6290   47.1280 C   0  0  0  0  0  0  0  0  0  0  0  0
   58.9210   26.3520   46.5400 C   0  0  0  0  0  0  0  0  0  0  0  0
   57.9980   26.0030   45.5510 C   0  0  0  0  0  0  0  0  0  0  0  0
   57.0370   26.9230   45.1290 C   0  0  0  0  0  0  0  0  0  0  0  0
   57.0000   28.2120   45.6900 C   0  0  0  0  0  0  0  0  0  0  0  0
   56.0170   29.1810   45.3010 N   0  0  0  0  0  0  0  0  0  0  0  0
   55.8280   29.7220   43.9880 C   0  0  0  0  0  0  0  0  0  0  0  0
   54.7880   29.4580   43.3260 O   0  0  0  0  0  0  0  0  0  0  0  0
   56.9250   30.5160   43.3500 C   0  0  0  0  0  0  0  0  0  0  0  0
   58.0920   30.6440   44.2960 C   0  0  0  0  0  0  0  0  0  0  0  0
   59.0480   29.6790   44.2450 N   0  0  0  0  0  0  0  0  0  0  0  0
   60.1100   29.6620   45.0520 N   0  0  0  0  0  0  0  0  0  0  0  0
   61.0810   28.5780   44.9040 C   0  0  0  0  0  0  0  0  0  0  0  0
   60.2840   30.6320   45.9990 C   0  0  0  0  0  0  0  0  0  0  0  0
   61.2930   30.6000   46.7600 O   0  0  0  0  0  0  0  0  0  0  0  0
   59.3330   31.6620   46.1230 C   0  0  0  0  0  0  0  0  0  0  0  0
   59.4770   32.6710   47.0960 C   0  0  0  0  0  0  0  0  0  0  0  0
   58.5220   33.6810   47.2110 C   0  0  0  0  0  0  0  0  0  0  0  0
   57.4160   33.6990   46.3620 C   0  0  0  0  0  0  0  0  0  0  0  0
   57.2580   32.7080   45.3920 C   0  0  0  0  0  0  0  0  0  0  0  0
   58.2110   31.6740   45.2590 C   0  0  0  0  0  0  0  0  0  0  0  0
   57.9100   28.5490   46.6990 C   0  0  0  0  0  0  0  0  0  0  0  0
   59.4973   28.6966   50.2107 H   0  0  0  0  0  0  0  0  0  0  0  0
   59.7877   30.0029   49.0124 H   0  0  0  0  0  0  0  0  0  0  0  0
   58.2262   29.1150   49.0124 H   0  0  0  0  0  0  0  0  0  0  0  0
   60.7578   28.4625   47.7011 H   0  0  0  0  0  0  0  0  0  0  0  0
   60.3265   26.9213   50.0279 H   0  0  0  0  0  0  0  0  0  0  0  0
   59.7735   25.8878   48.6668 H   0  0  0  0  0  0  0  0  0  0  0  0
   61.4405   26.5567   48.6668 H   0  0  0  0  0  0  0  0  0  0  0  0
   59.6804   25.6236   46.8607 H   0  0  0  0  0  0  0  0  0  0  0  0
   58.0288   24.9988   45.1030 H   0  0  0  0  0  0  0  0  0  0  0  0
   56.3073   26.6393   44.3563 H   0  0  0  0  0  0  0  0  0  0  0  0
   57.2552   30.0076   42.4321 H   0  0  0  0  0  0  0  0  0  0  0  0
   56.5473   31.5203   43.1075 H   0  0  0  0  0  0  0  0  0  0  0  0
   61.3944   28.2281   45.8987 H   0  0  0  0  0  0  0  0  0  0  0  0
   60.6204   27.7461   44.3510 H   0  0  0  0  0  0  0  0  0  0  0  0
   61.9584   28.9446   44.3510 H   0  0  0  0  0  0  0  0  0  0  0  0
   60.3474   32.6621   47.7686 H   0  0  0  0  0  0  0  0  0  0  0  0
   58.6416   34.4651   47.9731 H   0  0  0  0  0  0  0  0  0  0  0  0
   56.6652   34.4973   46.4571 H   0  0  0  0  0  0  0  0  0  0  0  0
   56.3835   32.7324   44.7251 H   0  0  0  0  0  0  0  0  0  0  0  0
   57.8625   29.5455   47.1625 H   0  0  0  0  0  0  0  0  0  0  0  0
  1  2  1  0
  2  3  1  0
  2  4  1  0
  4  5  2  0
  5  6  1  0
  6  7  2  0
  7  8  1  0
  8  9  1  0
  9 10  1  0
 10 11  2  0
 10 12  1  0
 12 13  1  0
 13 14  2  0
 14 15  1  0
 15 16  1  0
 15 17  1  0
 17 18  2  0
 17 19  1  0
 19 20  2  0
 20 21  1  0
 21 22  2  0
 22 23  1  0
 23 24  2  0
  8 25  2  0
 25  4  1  0
 24 13  1  0
 24 19  1  0
  1 26  1  0
  1 27  1  0
  1 28  1  0
  2 29  1  0
  3 30  1  0
  3 31  1  0
  3 32  1  0
  5 33  1  0
  6 34  1  0
  7 35  1  0
 12 36  1  0
 12 37  1  0
 16 38  1  0
 16 39  1  0
 16 40  1  0
 20 41  1  0
 21 42  1  0
 22 43  1  0
 23 44  1  0
 25 45  1  0
M  CHG  1   9  -1
M  END
>  <UniqueID>  (32) 
27

>  <SMILES>  (32) 
CC(C)c1cccc([N-]C(=O)Cc2nn(C)c(=O)c3ccccc23)c1

>  <Energy>  (32) 
52.45084153381418

>  <Genealogy>  (32) 
CC(C)c1cccc([N-]C(=O)Cc2nn(C)c(=O)c3ccccc23)c1 (protonated)
CC(C)c1cccc([N-]C(=O)Cc2nn(C)c(=O)c3ccccc23)c1 (3D coordinates assigned)
CC(C)c1cccc([N-]C(=O)Cc2nn(C)c(=O)c3ccccc23)c1 (optimized conformer: 52.45084153381418 kcal/mol)

>  <smiles>  (32) 
CC(C)c1cccc(NC(=O)Cc2nn(C)c(=O)c3ccccc23)c1

>  <score_type>  (32) 
oracle

>  <origin>  (32) 
adg

>  <m_score__min__energy>  (32) 
-10.19

>  <m_primary>  (32) 
energy

$$$$
32:0
     RDKit          3D

 57 59  0  0  0  0  0  0  0  0999 V2000
   63.6480   31.7240   48.0720 C   0  0  0  0  0  0  0  0  0  0  0  0
   63.7120   33.1960   48.1090 N   0  0  0  0  0  0  0  0  0  0  0  0
   63.2600   33.7990   46.8400 C   0  0  0  0  0  0  0  0  0  0  0  0
   61.7350   33.6630   46.6270 C   0  0  0  0  0  0  0  0  0  0  0  0
   61.0120   33.3990   47.8850 N   0  0  0  0  0  0  0  0  0  0  0  0
   59.3140   33.7450   47.6790 S   0  0  0  0  0  0  0  0  0  0  0  0
   59.0700   35.2260   47.7690 O   0  0  0  0  0  0  0  0  0  0  0  0
   58.5230   33.0630   48.7610 O   0  0  0  0  0  0  0  0  0  0  0  0
   58.7740   33.1420   46.1130 C   0  0  0  0  0  0  0  0  0  0  0  0
   58.9790   33.9120   44.9620 C   0  0  0  0  0  0  0  0  0  0  0  0
   58.5180   33.4610   43.7220 C   0  0  0  0  0  0  0  0  0  0  0  0
   57.8420   32.2420   43.6270 C   0  0  0  0  0  0  0  0  0  0  0  0
   57.6280   31.4650   44.7750 C   0  0  0  0  0  0  0  0  0  0  0  0
   56.7130   29.9620   44.6770 S   0  0  0  0  0  0  0  0  0  0  0  0
   55.2750   30.2870   44.3880 O   0  0  0  0  0  0  0  0  0  0  0  0
   56.7780   29.2320   45.9900 O   0  0  0  0  0  0  0  0  0  0  0  0
   57.3300   28.9410   43.4110 N   0  0  0  0  0  0  0  0  0  0  0  0
   57.9940   27.7500   43.9520 C   0  0  0  0  0  0  0  0  0  0  0  0
   59.4850   28.0090   44.2000 C   0  0  0  0  0  0  0  0  0  0  0  0
   59.7510   28.4840   45.6060 C   0  0  0  0  0  0  0  0  0  0  0  0
   59.2640   27.7570   46.7030 C   0  0  0  0  0  0  0  0  0  0  0  0
   59.5330   28.1800   48.0060 C   0  0  0  0  0  0  0  0  0  0  0  0
   60.2880   29.3390   48.2300 C   0  0  0  0  0  0  0  0  0  0  0  0
   60.6280   29.8680   49.8730 S   0  0  0  0  0  0  0  0  0  0  0  0
   60.1010   31.5010   50.0730 N   0  0  0  0  0  0  0  0  0  0  0  0
   59.9060   28.9840   50.8510 O   0  0  0  0  0  0  0  0  0  0  0  0
   62.1060   29.7760   50.1420 O   0  0  0  0  0  0  0  0  0  0  0  0
   60.7490   30.0860   47.1380 C   0  0  0  0  0  0  0  0  0  0  0  0
   60.4820   29.6620   45.8320 C   0  0  0  0  0  0  0  0  0  0  0  0
   58.0950   31.9180   46.0170 C   0  0  0  0  0  0  0  0  0  0  0  0
   61.5640   34.2080   48.9780 C   0  0  0  0  0  0  0  0  0  0  0  0
   63.0080   33.7620   49.2850 C   0  0  0  0  0  0  0  0  0  0  0  0
   63.6309   31.3318   49.0996 H   0  0  0  0  0  0  0  0  0  0  0  0
   62.7353   31.4098   47.5444 H   0  0  0  0  0  0  0  0  0  0  0  0
   64.5299   31.3318   47.5444 H   0  0  0  0  0  0  0  0  0  0  0  0
   63.5211   34.8676   46.8451 H   0  0  0  0  0  0  0  0  0  0  0  0
   63.7600   33.2630   46.0198 H   0  0  0  0  0  0  0  0  0  0  0  0
   61.3546   34.5984   46.1908 H   0  0  0  0  0  0  0  0  0  0  0  0
   61.5654   32.8071   45.9572 H   0  0  0  0  0  0  0  0  0  0  0  0
   59.5048   34.8755   45.0337 H   0  0  0  0  0  0  0  0  0  0  0  0
   58.6877   34.0667   42.8196 H   0  0  0  0  0  0  0  0  0  0  0  0
   57.4770   31.8911   42.6504 H   0  0  0  0  0  0  0  0  0  0  0  0
   57.5151   27.4733   44.9029 H   0  0  0  0  0  0  0  0  0  0  0  0
   57.8999   26.9360   43.2182 H   0  0  0  0  0  0  0  0  0  0  0  0
   60.0405   27.0749   44.0299 H   0  0  0  0  0  0  0  0  0  0  0  0
   59.8118   28.7989   43.5077 H   0  0  0  0  0  0  0  0  0  0  0  0
   58.6668   26.8486   46.5353 H   0  0  0  0  0  0  0  0  0  0  0  0
   59.1509   27.6013   48.8599 H   0  0  0  0  0  0  0  0  0  0  0  0
   60.3550   32.0150   49.1990 H   0  0  0  0  0  0  0  0  0  0  0  0
   59.0570   31.4810   50.1200 H   0  0  0  0  0  0  0  0  0  0  0  0
   61.3228   31.0089   47.3082 H   0  0  0  0  0  0  0  0  0  0  0  0
   60.8458   30.2533   44.9788 H   0  0  0  0  0  0  0  0  0  0  0  0
   57.9284   31.3115   46.9195 H   0  0  0  0  0  0  0  0  0  0  0  0
   61.5647   35.2677   48.6828 H   0  0  0  0  0  0  0  0  0  0  0  0
   60.9447   34.0723   49.8769 H   0  0  0  0  0  0  0  0  0  0  0  0
   63.5737   34.6346   49.6434 H   0  0  0  0  0  0  0  0  0  0  0  0
   62.9481   32.9660   50.0418 H   0  0  0  0  0  0  0  0  0  0  0  0
  1  2  1  0
  2  3  1  0
  3  4  1  0
  4  5  1  0
  5  6  1  0
  6  7  2  0
  6  8  2  0
  6  9  1  0
  9 10  2  0
 10 11  1  0
 11 12  2  0
 12 13  1  0
 13 14  1  0
 14 15  2  0
 14 16  2  0
 14 17  1  0
 17 18  1  0
 18 19  1  0
 19 20  1  0
 20 21  2  0
 21 22  1  0
 22 23  2  0
 23 24  1  0
 24 25  1  0
 24 26  2  0
 24 27  2  0
 23 28  1  0
 28 29  2  0
 13 30  2  0
  5 31  1  0
 31 32  1  0
 32  2  1  0
 30  9  1  0
 29 20  1  0
  1 33  1  0
  1 34  1  0
  1 35  1  0
  3 36  1  0
  3 37  1  0
  4 38  1  0
  4 39  1  0
 10 40  1  0
 11 41  1  0
 12 42  1  0
 18 43  1  0
 18 44  1  0
 19 45  1  0
 19 46  1  0
 21 47  1  0
 22 48  1  0
 25 49  1  0
 25 50  1  0
 28 51  1  0
 29 52  1  0
 30 53  1  0
 31 54  1  0
 31 55  1  0
 32 56  1  0
 32 57  1  0
M  CHG  1  17  -1
M  END
>  <UniqueID>  (33) 
28

>  <SMILES>  (33) 
CN1CCN(S(=O)(=O)c2cccc(S(=O)(=O)[N-]CCc3ccc(S(N)(=O)=O)cc3)c2)CC1

>  <Energy>  (33) 
57.77034010079625

>  <Genealogy>  (33) 
CN1CCN(S(=O)(=O)c2cccc(S(=O)(=O)[N-]CCc3ccc(S(N)(=O)=O)cc3)c2)CC1 (protonated)
CN1CCN(S(=O)(=O)c2cccc(S(=O)(=O)[N-]CCc3ccc(S(N)(=O)=O)cc3)c2)CC1 (3D coordinates assigned)
CN1CCN(S(=O)(=O)c2cccc(S(=O)(=O)[N-]CCc3ccc(S(N)(=O)=O)cc3)c2)CC1 (nonaromatic ring conformer: 57.77034010079625 kcal/mol)

>  <smiles>  (33) 
CN1CCN(S(=O)(=O)c2cccc(S(=O)(=O)NCCc3ccc(S(N)(=O)=O)cc3)c2)CC1

>  <score_type>  (33) 
oracle

>  <origin>  (33) 
adg

>  <m_score__min__energy>  (33) 
-12.300000000000001

>  <m_primary>  (33) 
energy

$$$$
33:0
     RDKit          3D

 41 44  0  0  0  0  0  0  0  0999 V2000
   57.3272   31.6281   42.4647 H   0  0  0  0  0  0  0  0  0  0  0  0
   57.1330   30.9100   43.2750 C   0  0  0  0  0  0  0  0  0  0  0  0
   56.5210   29.3540   43.0860 S   0  0  0  0  0  0  0  0  0  0  0  0
   56.5630   29.0310   44.7280 C   0  0  0  0  0  0  0  0  0  0  0  0
   56.1770   27.9040   45.2480 N   0  0  0  0  0  0  0  0  0  0  0  0
   56.9590   27.0340   46.0820 C   0  0  0  0  0  0  0  0  0  0  0  0
   57.4070   27.4490   47.1870 O   0  0  0  0  0  0  0  0  0  0  0  0
   57.2660   25.6440   45.6450 C   0  0  0  0  0  0  0  0  0  0  0  0
   56.3630   24.9850   44.7860 C   0  0  0  0  0  0  0  0  0  0  0  0
   55.4545   25.5065   44.4505 H   0  0  0  0  0  0  0  0  0  0  0  0
   56.6060   23.6810   44.3560 C   0  0  0  0  0  0  0  0  0  0  0  0
   55.8852   23.1775   43.6951 H   0  0  0  0  0  0  0  0  0  0  0  0
   57.7600   23.0150   44.7620 C   0  0  0  0  0  0  0  0  0  0  0  0
   57.9514   21.9883   44.4168 H   0  0  0  0  0  0  0  0  0  0  0  0
   58.6730   23.6470   45.6050 C   0  0  0  0  0  0  0  0  0  0  0  0
   59.5890   23.1196   45.9098 H   0  0  0  0  0  0  0  0  0  0  0  0
   58.4330   24.9550   46.0700 C   0  0  0  0  0  0  0  0  0  0  0  0
   59.4010   25.6260   46.8930 N   0  0  0  0  0  0  0  0  0  0  0  0
   60.4760   26.4680   46.4580 C   0  0  0  0  0  0  0  0  0  0  0  0
   61.5450   25.9730   46.0130 O   0  0  0  0  0  0  0  0  0  0  0  0
   60.3510   27.9250   46.5940 C   0  0  0  0  0  0  0  0  0  0  0  0
   60.1020   28.7520   48.0370 S   0  0  0  0  0  0  0  0  0  0  0  0
   60.0580   30.2920   47.3610 C   0  0  0  0  0  0  0  0  0  0  0  0
   59.9118   31.2332   47.9112 H   0  0  0  0  0  0  0  0  0  0  0  0
   60.2380   30.1710   45.9890 C   0  0  0  0  0  0  0  0  0  0  0  0
   60.2512   31.0331   45.3059 H   0  0  0  0  0  0  0  0  0  0  0  0
   60.4010   28.8500   45.5570 C   0  0  0  0  0  0  0  0  0  0  0  0
   60.5533   28.5716   44.5038 H   0  0  0  0  0  0  0  0  0  0  0  0
   57.0330   30.0780   45.4400 N   0  0  0  0  0  0  0  0  0  0  0  0
   57.3530   31.1350   44.6400 C   0  0  0  0  0  0  0  0  0  0  0  0
   57.8960   32.3970   45.2070 C   0  0  0  0  0  0  0  0  0  0  0  0
   57.8430   32.6680   46.5900 C   0  0  0  0  0  0  0  0  0  0  0  0
   57.3870   31.9359   47.2727 H   0  0  0  0  0  0  0  0  0  0  0  0
   58.3660   33.8610   47.1000 C   0  0  0  0  0  0  0  0  0  0  0  0
   58.3171   34.0644   48.1799 H   0  0  0  0  0  0  0  0  0  0  0  0
   58.9500   34.7940   46.2410 C   0  0  0  0  0  0  0  0  0  0  0  0
   59.3590   35.7321   46.6444 H   0  0  0  0  0  0  0  0  0  0  0  0
   59.0150   34.5370   44.8710 C   0  0  0  0  0  0  0  0  0  0  0  0
   59.4770   35.2721   44.1955 H   0  0  0  0  0  0  0  0  0  0  0  0
   58.4940   33.3470   44.3560 C   0  0  0  0  0  0  0  0  0  0  0  0
   58.5514   33.1501   43.2753 H   0  0  0  0  0  0  0  0  0  0  0  0
  1  2  1  0
  2  3  1  0
  3  4  1  0
  4  5  2  0
  5  6  1  0
  6  7  2  0
  6  8  1  0
  8  9  2  0
  9 10  1  0
  9 11  1  0
 11 12  1  0
 11 13  2  0
 13 14  1  0
 13 15  1  0
 15 16  1  0
 15 17  2  0
 17 18  1  0
 18 19  1  0
 19 20  2  0
 19 21  1  0
 21 22  1  0
 22 23  1  0
 23 24  1  0
 23 25  2  0
 25 26  1  0
 25 27  1  0
 27 28  1  0
  4 29  1  0
 29 30  1  0
 30 31  1  0
 31 32  2  0
 32 33  1  0
 32 34  1  0
 34 35  1  0
 34 36  2  0
 36 37  1  0
 36 38  1  0
 38 39  1  0
 38 40  2  0
 40 41  1  0
 30  2  2  0
 40 31  1  0
 17  8  1  0
 27 21  2  0
M  CHG  2  18  -1  29  -1
M  END
>  <UniqueID>  (34) 
29

>  <SMILES>  (34) 
O=C([N-]c1ccccc1C(=O)/N=c1\[n-]c(-c2ccccc2)cs1)c1cccs1

>  <Energy>  (34) 
111.29324631432925

>  <Genealogy>  (34) 
O=C([N-]c1ccccc1C(=O)N=c1[n-]c(-c2ccccc2)cs1)c1cccs1 (protonated)
O=C([N-]c1ccccc1C(=O)/N=c1\[n-]c(-c2ccccc2)cs1)c1cccs1 (cis-trans isomerization)
O=C([N-]c1ccccc1C(=O)/N=c1\[n-]c(-c2ccccc2)cs1)c1cccs1 (3D coordinates assigned)
O=C([N-]c1ccccc1C(=O)/N=c1\[n-]c(-c2ccccc2)cs1)c1cccs1 (optimized conformer: 111.29324631432925 kcal/mol)

>  <smiles>  (34) 
O=C(Nc1ccccc1C(=O)N=c1[nH]c(-c2ccccc2)cs1)c1cccs1

>  <score_type>  (34) 
oracle

>  <origin>  (34) 
adg

>  <m_score__min__energy>  (34) 
-13.039999999999999

>  <m_primary>  (34) 
energy

$$$$
34:0
     RDKit          3D

 32 33  0  0  0  0  0  0  0  0999 V2000
   56.9200   21.5940   43.2790 C   0  0  0  0  0  0  0  0  0  0  0  0
   56.5780   22.9720   43.8050 C   0  0  0  0  0  0  0  0  0  0  0  0
   57.3260   24.0060   43.1380 N   0  0  0  0  0  0  0  0  0  0  0  0
   57.4370   25.2060   43.5170 C   0  0  0  0  0  0  0  0  0  0  0  0
   57.2150   25.4950   44.8320 N   0  0  0  0  0  0  0  0  0  0  0  0
   57.3290   26.7820   45.2670 C   0  0  0  0  0  0  0  0  0  0  0  0
   57.6680   27.7790   44.3740 C   0  0  0  0  0  0  0  0  0  0  0  0
   57.7730   29.1350   44.9030 C   0  0  0  0  0  0  0  0  0  0  0  0
   57.2520   29.3880   45.9990 O   0  0  0  0  0  0  0  0  0  0  0  0
   58.4470   30.1860   44.2240 N   0  0  0  0  0  0  0  0  0  0  0  0
   58.4820   31.4670   44.8440 C   0  0  0  0  0  0  0  0  0  0  0  0
   57.7710   32.5040   44.2740 C   0  0  0  0  0  0  0  0  0  0  0  0
   57.7790   33.7590   44.8460 C   0  0  0  0  0  0  0  0  0  0  0  0
   58.5170   33.9310   45.9960 C   0  0  0  0  0  0  0  0  0  0  0  0
   58.5210   35.1670   46.5520 F   0  0  0  0  0  0  0  0  0  0  0  0
   59.2380   32.9080   46.5860 C   0  0  0  0  0  0  0  0  0  0  0  0
   60.1740   33.1530   48.0570 Cl  0  0  0  0  0  0  0  0  0  0  0  0
   59.2300   31.6370   46.0090 C   0  0  0  0  0  0  0  0  0  0  0  0
   57.8880   27.4650   43.0490 C   0  0  0  0  0  0  0  0  0  0  0  0
   57.7660   26.1780   42.6520 N   0  0  0  0  0  0  0  0  0  0  0  0
   57.0896   20.9106   44.1241 H   0  0  0  0  0  0  0  0  0  0  0  0
   56.0877   21.2188   42.6654 H   0  0  0  0  0  0  0  0  0  0  0  0
   57.8311   21.6515   42.6654 H   0  0  0  0  0  0  0  0  0  0  0  0
   55.5043   23.1546   43.6503 H   0  0  0  0  0  0  0  0  0  0  0  0
   56.8372   23.0013   44.8736 H   0  0  0  0  0  0  0  0  0  0  0  0
   57.1516   27.0251   46.3250 H   0  0  0  0  0  0  0  0  0  0  0  0
   58.8960   30.0050   43.3000 H   0  0  0  0  0  0  0  0  0  0  0  0
   57.1927   32.3277   43.3550 H   0  0  0  0  0  0  0  0  0  0  0  0
   57.2163   34.5923   44.3999 H   0  0  0  0  0  0  0  0  0  0  0  0
   59.7912   30.8028   46.4552 H   0  0  0  0  0  0  0  0  0  0  0  0
   58.1585   28.2492   42.3266 H   0  0  0  0  0  0  0  0  0  0  0  0
   57.9390   25.9670   41.6430 H   0  0  0  0  0  0  0  0  0  0  0  0
  1  2  1  0
  2  3  1  0
  3  4  2  3
  4  5  1  0
  5  6  2  0
  6  7  1  0
  7  8  1  0
  8  9  2  0
  8 10  1  0
 10 11  1  0
 11 12  2  0
 12 13  1  0
 13 14  2  0
 14 15  1  0
 14 16  1  0
 16 17  1  0
 16 18  2  0
  7 19  2  0
 19 20  1  0
 20  4  1  0
 18 11  1  0
  1 21  1  0
  1 22  1  0
  1 23  1  0
  2 24  1  0
  2 25  1  0
  6 26  1  0
 10 27  1  0
 12 28  1  0
 13 29  1  0
 18 30  1  0
 19 31  1  0
 20 32  1  0
M  END
>  <smiles>  (35) 
CCN=c1ncc(C(=O)Nc2ccc(F)c(Cl)c2)c[nH]1

>  <score_type>  (35) 
oracle

>  <origin>  (35) 
adg

>  <m_score__min__energy>  (35) 
-5.8399999999999999

>  <m_primary>  (35) 
energy

$$$$
35:0
     RDKit          3D

 48 51  0  0  0  0  0  0  0  0999 V2000
   55.1500   28.6410   45.6190 H   0  0  0  0  0  0  0  0  0  0  0  0
   55.1390   29.3390   44.8420 N   0  0  0  0  0  0  0  0  0  0  0  0
   56.3450   29.7200   44.1860 C   0  0  0  0  0  0  0  0  0  0  0  0
   56.6610   29.1910   43.0870 O   0  0  0  0  0  0  0  0  0  0  0  0
   57.1630   30.7990   44.7330 C   0  0  0  0  0  0  0  0  0  0  0  0
   56.8620   32.1340   44.4860 C   0  0  0  0  0  0  0  0  0  0  0  0
   56.0114   32.5334   43.9141 H   0  0  0  0  0  0  0  0  0  0  0  0
   57.8540   32.8440   45.1090 C   0  0  0  0  0  0  0  0  0  0  0  0
   58.0860   34.2120   45.1610 C   0  0  0  0  0  0  0  0  0  0  0  0
   57.3975   34.9203   44.6770 H   0  0  0  0  0  0  0  0  0  0  0  0
   59.1900   34.6540   45.8280 N   0  0  0  0  0  0  0  0  0  0  0  0
   60.0720   33.8030   46.4390 C   0  0  0  0  0  0  0  0  0  0  0  0
   61.1090   34.3170   47.0390 N   0  0  0  0  0  0  0  0  0  0  0  0
   62.0500   33.6480   47.8940 C   0  0  0  0  0  0  0  0  0  0  0  0
   62.8110   32.6460   47.3790 N   0  0  0  0  0  0  0  0  0  0  0  0
   63.7500   32.0030   48.1230 C   0  0  0  0  0  0  0  0  0  0  0  0
   64.3404   31.1887   47.6775 H   0  0  0  0  0  0  0  0  0  0  0  0
   63.9660   32.3740   49.4500 C   0  0  0  0  0  0  0  0  0  0  0  0
   64.7169   31.8454   50.0556 H   0  0  0  0  0  0  0  0  0  0  0  0
   63.2250   33.4200   50.0080 C   0  0  0  0  0  0  0  0  0  0  0  0
   63.4680   33.7750   51.3430 O   0  0  0  0  0  0  0  0  0  0  0  0
   64.6020   34.5160   51.7830 C   0  0  0  0  0  0  0  0  0  0  0  0
   64.6257   34.5315   52.8826 H   0  0  0  0  0  0  0  0  0  0  0  0
   65.5193   34.0425   51.4031 H   0  0  0  0  0  0  0  0  0  0  0  0
   64.5367   35.5462   51.4031 H   0  0  0  0  0  0  0  0  0  0  0  0
   62.2680   34.0770   49.2130 C   0  0  0  0  0  0  0  0  0  0  0  0
   61.6942   34.9215   49.6223 H   0  0  0  0  0  0  0  0  0  0  0  0
   59.8530   32.4020   46.3630 C   0  0  0  0  0  0  0  0  0  0  0  0
   60.5629   31.6920   46.8124 H   0  0  0  0  0  0  0  0  0  0  0  0
   58.7050   31.9520   45.6980 C   0  0  0  0  0  0  0  0  0  0  0  0
   58.2920   30.6740   45.4980 N   0  0  0  0  0  0  0  0  0  0  0  0
   59.0310   29.4750   45.9680 C   0  0  0  0  0  0  0  0  0  0  0  0
   59.8172   29.8611   46.6334 H   0  0  0  0  0  0  0  0  0  0  0  0
   58.2500   28.5310   46.9290 C   0  0  0  0  0  0  0  0  0  0  0  0
   58.9494   28.1932   47.7079 H   0  0  0  0  0  0  0  0  0  0  0  0
   57.4056   29.1283   47.3034 H   0  0  0  0  0  0  0  0  0  0  0  0
   57.6150   27.2770   46.2920 C   0  0  0  0  0  0  0  0  0  0  0  0
   57.4251   26.5393   47.0855 H   0  0  0  0  0  0  0  0  0  0  0  0
   56.6868   27.5957   45.7952 H   0  0  0  0  0  0  0  0  0  0  0  0
   58.5010   26.6310   45.2300 C   0  0  0  0  0  0  0  0  0  0  0  0
   59.4087   26.2340   45.7081 H   0  0  0  0  0  0  0  0  0  0  0  0
   57.9412   25.8172   44.7459 H   0  0  0  0  0  0  0  0  0  0  0  0
   58.8980   27.6560   44.1710 C   0  0  0  0  0  0  0  0  0  0  0  0
   59.4787   27.1573   43.3810 H   0  0  0  0  0  0  0  0  0  0  0  0
   57.9888   28.1015   43.7410 H   0  0  0  0  0  0  0  0  0  0  0  0
   59.7450   28.7570   44.8020 C   0  0  0  0  0  0  0  0  0  0  0  0
   60.6746   28.3091   45.1830 H   0  0  0  0  0  0  0  0  0  0  0  0
   59.9402   29.5088   44.0231 H   0  0  0  0  0  0  0  0  0  0  0  0
  1  2  1  0
  2  3  1  0
  3  4  2  0
  3  5  1  0
  5  6  2  0
  6  7  1  0
  6  8  1  0
  8  9  2  0
  9 10  1  0
  9 11  1  0
 11 12  1  0
 12 13  2  0
 13 14  1  0
 14 15  2  0
 15 16  1  0
 16 17  1  0
 16 18  2  0
 18 19  1  0
 18 20  1  0
 20 21  1  0
 21 22  1  0
 22 23  1  0
 22 24  1  0
 22 25  1  0
 20 26  2  0
 26 27  1  0
 12 28  1  0
 28 29  1  0
 28 30  2  0
 30 31  1  0
 31 32  1  0
 32 33  1  0
 32 34  1  0
 34 35  1  0
 34 36  1  0
 34 37  1  0
 37 38  1  0
 37 39  1  0
 37 40  1  0
 40 41  1  0
 40 42  1  0
 40 43  1  0
 43 44  1  0
 43 45  1  0
 43 46  1  0
 46 47  1  0
 46 48  1  0
 31  5  1  0
 46 32  1  0
 30  8  1  0
 26 14  1  0
M  CHG  2   2  -1  11  -1
M  END
>  <UniqueID>  (36) 
30

>  <SMILES>  (36) 
COc1ccnc(/N=c2\cc3c(c[n-]2)cc(C([NH-])=O)n3C2CCCCC2)c1

>  <Energy>  (36) 
108.45155142913413

>  <Genealogy>  (36) 
COc1ccnc(N=c2cc3c(c[n-]2)cc(C([NH-])=O)n3C2CCCCC2)c1 (protonated)
COc1ccnc(/N=c2\cc3c(c[n-]2)cc(C([NH-])=O)n3C2CCCCC2)c1 (cis-trans isomerization)
COc1ccnc(/N=c2\cc3c(c[n-]2)cc(C([NH-])=O)n3C2CCCCC2)c1 (3D coordinates assigned)
COc1ccnc(/N=c2\cc3c(c[n-]2)cc(C([NH-])=O)n3C2CCCCC2)c1 (nonaromatic ring conformer: 108.45155142913413 kcal/mol)

>  <smiles>  (36) 
COc1ccnc(N=c2cc3c(c[nH]2)cc(C(N)=O)n3C2CCCCC2)c1

>  <score_type>  (36) 
oracle

>  <origin>  (36) 
adg

>  <m_score__min__energy>  (36) 
-12.24

>  <m_primary>  (36) 
energy

$$$$
36:0
     RDKit          3D

 48 50  0  0  0  0  0  0  0  0999 V2000
   57.6680   32.3340   41.5480 C   0  0  0  0  0  0  0  0  0  0  0  0
   57.3640   31.4590   42.7340 C   0  0  0  0  0  0  0  0  0  0  0  0
   56.6450   30.2660   42.5380 C   0  0  0  0  0  0  0  0  0  0  0  0
   56.3580   29.4240   43.6140 C   0  0  0  0  0  0  0  0  0  0  0  0
   56.7860   29.7590   44.8980 C   0  0  0  0  0  0  0  0  0  0  0  0
   57.4970   30.9410   45.1120 C   0  0  0  0  0  0  0  0  0  0  0  0
   57.7840   31.8090   44.0440 C   0  0  0  0  0  0  0  0  0  0  0  0
   58.5730   33.0720   44.3230 C   0  0  0  0  0  0  0  0  0  0  0  0
   57.8490   34.0080   45.2750 C   0  0  0  0  0  0  0  0  0  0  0  0
   56.8800   34.6290   44.8580 O   0  0  0  0  0  0  0  0  0  0  0  0
   58.3340   34.2940   46.6220 N   0  0  0  0  0  0  0  0  0  0  0  0
   59.7670   34.6590   46.6230 C   0  0  0  0  0  0  0  0  0  0  0  0
   60.7140   33.4430   46.4800 C   0  0  0  0  0  0  0  0  0  0  0  0
   60.0330   32.1660   46.7650 N   0  0  0  0  0  0  0  0  0  0  0  0
   61.0060   31.0680   46.9240 C   0  0  0  0  0  0  0  0  0  0  0  0
   60.3600   29.7570   46.5650 C   0  0  0  0  0  0  0  0  0  0  0  0
   59.6870   28.9990   47.5370 C   0  0  0  0  0  0  0  0  0  0  0  0
   59.0590   27.8000   47.1830 C   0  0  0  0  0  0  0  0  0  0  0  0
   59.0960   27.3520   45.8590 C   0  0  0  0  0  0  0  0  0  0  0  0
   58.4850   26.1920   45.5180 F   0  0  0  0  0  0  0  0  0  0  0  0
   59.7620   28.1040   44.8860 C   0  0  0  0  0  0  0  0  0  0  0  0
   60.3930   29.3010   45.2360 C   0  0  0  0  0  0  0  0  0  0  0  0
   59.1620   32.2980   47.9420 C   0  0  0  0  0  0  0  0  0  0  0  0
   57.9930   33.2510   47.6270 C   0  0  0  0  0  0  0  0  0  0  0  0
   58.0103   33.3193   41.8974 H   0  0  0  0  0  0  0  0  0  0  0  0
   58.4563   31.8664   40.9398 H   0  0  0  0  0  0  0  0  0  0  0  0
   56.7596   32.4559   40.9398 H   0  0  0  0  0  0  0  0  0  0  0  0
   56.3057   29.9940   41.5276 H   0  0  0  0  0  0  0  0  0  0  0  0
   55.7932   28.4947   43.4485 H   0  0  0  0  0  0  0  0  0  0  0  0
   56.5631   29.0912   45.7432 H   0  0  0  0  0  0  0  0  0  0  0  0
   57.8363   31.1960   46.1268 H   0  0  0  0  0  0  0  0  0  0  0  0
   59.5396   32.7937   44.7681 H   0  0  0  0  0  0  0  0  0  0  0  0
   58.7067   33.6019   43.3684 H   0  0  0  0  0  0  0  0  0  0  0  0
   57.8240   35.1580   46.9320 H   0  0  0  0  0  0  0  0  0  0  0  0
   59.9521   35.3451   45.7834 H   0  0  0  0  0  0  0  0  0  0  0  0
   59.9818   35.1237   47.5966 H   0  0  0  0  0  0  0  0  0  0  0  0
   61.1011   33.4153   45.4507 H   0  0  0  0  0  0  0  0  0  0  0  0
   61.5265   33.5616   47.2120 H   0  0  0  0  0  0  0  0  0  0  0  0
   61.8666   31.2442   46.2619 H   0  0  0  0  0  0  0  0  0  0  0  0
   61.3439   31.0314   47.9702 H   0  0  0  0  0  0  0  0  0  0  0  0
   59.6535   29.3489   48.5793 H   0  0  0  0  0  0  0  0  0  0  0  0
   58.5349   27.2084   47.9480 H   0  0  0  0  0  0  0  0  0  0  0  0
   59.7893   27.7530   43.8439 H   0  0  0  0  0  0  0  0  0  0  0  0
   60.9176   29.8886   44.4682 H   0  0  0  0  0  0  0  0  0  0  0  0
   58.7633   31.3093   48.2131 H   0  0  0  0  0  0  0  0  0  0  0  0
   59.7459   32.7067   48.7798 H   0  0  0  0  0  0  0  0  0  0  0  0
   57.1527   32.6558   47.2402 H   0  0  0  0  0  0  0  0  0  0  0  0
   57.7385   33.7721   48.5617 H   0  0  0  0  0  0  0  0  0  0  0  0
  1  2  1  0
  2  3  2  0
  3  4  1  0
  4  5  2  0
  5  6  1  0
  6  7  2  0
  7  8  1  0
  8  9  1  0
  9 10  2  0
  9 11  1  0
 11 12  1  0
 12 13  1  0
 13 14  1  0
 14 15  1  0
 15 16  1  0
 16 17  2  0
 17 18  1  0
 18 19  2  0
 19 20  1  0
 19 21  1  0
 21 22  2  0
 14 23  1  0
 23 24  1  0
  7  2  1  0
 24 11  1  0
 22 16  1  0
  1 25  1  0
  1 26  1  0
  1 27  1  0
  3 28  1  0
  4 29  1  0
  5 30  1  0
  6 31  1  0
  8 32  1  0
  8 33  1  0
 11 34  1  0
 12 35  1  0
 12 36  1  0
 13 37  1  0
 13 38  1  0
 15 39  1  0
 15 40  1  0
 17 41  1  0
 18 42  1  0
 21 43  1  0
 22 44  1  0
 23 45  1  0
 23 46  1  0
 24 47  1  0
 24 48  1  0
M  CHG  1  11   1
M  END
>  <UniqueID>  (37) 
31

>  <SMILES>  (37) 
Cc1ccccc1CC(=O)[NH+]1CCN(Cc2ccc(F)cc2)CC1

>  <Energy>  (37) 
63.26181013881534

>  <Genealogy>  (37) 
Cc1ccccc1CC(=O)[NH+]1CCN(Cc2ccc(F)cc2)CC1 (protonated)
Cc1ccccc1CC(=O)[NH+]1CCN(Cc2ccc(F)cc2)CC1 (3D coordinates assigned)
Cc1ccccc1CC(=O)[NH+]1CCN(Cc2ccc(F)cc2)CC1 (nonaromatic ring conformer: 63.26181013881534 kcal/mol)

>  <smiles>  (37) 
Cc1ccccc1CC(=O)N1CCN(Cc2ccc(F)cc2)CC1

>  <score_type>  (37) 
oracle

>  <origin>  (37) 
adg

>  <m_score__min__energy>  (37) 
-6.3300000000000001

>  <m_primary>  (37) 
energy

$$$$
37:0
     RDKit          3D

 33 34  0  0  0  0  0  0  0  0999 V2000
   57.3210   26.0930   45.5920 O   0  0  0  0  0  0  0  0  0  0  0  0
   56.4770   27.0270   45.6580 C   0  0  0  0  0  0  0  0  0  0  0  0
   55.1520   26.7180   45.9450 O   0  0  0  0  0  0  0  0  0  0  0  0
   56.8870   28.4300   45.4290 C   0  0  0  0  0  0  0  0  0  0  0  0
   57.8470   29.0330   46.2590 C   0  0  0  0  0  0  0  0  0  0  0  0
   58.2190   30.3660   46.0580 C   0  0  0  0  0  0  0  0  0  0  0  0
   57.6460   31.1100   45.0210 C   0  0  0  0  0  0  0  0  0  0  0  0
   58.0920   32.8010   44.8090 S   0  0  0  0  0  0  0  0  0  0  0  0
   58.2120   33.1020   43.3420 O   0  0  0  0  0  0  0  0  0  0  0  0
   57.0360   33.6980   45.3960 O   0  0  0  0  0  0  0  0  0  0  0  0
   59.6200   33.0950   45.5810 N   0  0  0  0  0  0  0  0  0  0  0  0
   59.6600   34.4350   46.1740 C   0  0  0  0  0  0  0  0  0  0  0  0
   60.0170   34.3370   47.6580 C   0  0  0  0  0  0  0  0  0  0  0  0
   61.4380   33.8720   47.8460 C   0  0  0  0  0  0  0  0  0  0  0  0
   62.3250   33.8320   46.7590 C   0  0  0  0  0  0  0  0  0  0  0  0
   63.6290   33.3730   46.9530 C   0  0  0  0  0  0  0  0  0  0  0  0
   64.0320   32.9610   48.1840 N   0  0  0  0  0  0  0  0  0  0  0  0
   63.1910   32.9770   49.2510 C   0  0  0  0  0  0  0  0  0  0  0  0
   61.8770   33.4260   49.1020 C   0  0  0  0  0  0  0  0  0  0  0  0
   56.6920   30.5140   44.1870 C   0  0  0  0  0  0  0  0  0  0  0  0
   56.3130   29.1840   44.3890 C   0  0  0  0  0  0  0  0  0  0  0  0
   58.3087   28.4531   47.0717 H   0  0  0  0  0  0  0  0  0  0  0  0
   58.9655   30.8316   46.7182 H   0  0  0  0  0  0  0  0  0  0  0  0
   60.4179   35.0407   45.6557 H   0  0  0  0  0  0  0  0  0  0  0  0
   58.6719   34.9069   46.0696 H   0  0  0  0  0  0  0  0  0  0  0  0
   59.8990   35.3275   48.1218 H   0  0  0  0  0  0  0  0  0  0  0  0
   59.3452   33.6055   48.1308 H   0  0  0  0  0  0  0  0  0  0  0  0
   61.9952   34.1597   45.7621 H   0  0  0  0  0  0  0  0  0  0  0  0
   64.3321   33.3447   46.1075 H   0  0  0  0  0  0  0  0  0  0  0  0
   63.5459   32.6355   50.2346 H   0  0  0  0  0  0  0  0  0  0  0  0
   61.1916   33.4300   49.9624 H   0  0  0  0  0  0  0  0  0  0  0  0
   56.2392   31.0947   43.3699 H   0  0  0  0  0  0  0  0  0  0  0  0
   55.5613   28.7239   43.7308 H   0  0  0  0  0  0  0  0  0  0  0  0
  1  2  2  0
  2  3  1  0
  2  4  1  0
  4  5  2  0
  5  6  1  0
  6  7  2  0
  7  8  1  0
  8  9  2  0
  8 10  2  0
  8 11  1  0
 11 12  1  0
 12 13  1  0
 13 14  1  0
 14 15  2  0
 15 16  1  0
 16 17  2  0
 17 18  1  0
 18 19  2  0
  7 20  1  0
 20 21  2  0
 21  4  1  0
 19 14  1  0
  5 22  1  0
  6 23  1  0
 12 24  1  0
 12 25  1  0
 13 26  1  0
 13 27  1  0
 15 28  1  0
 16 29  1  0
 18 30  1  0
 19 31  1  0
 20 32  1  0
 21 33  1  0
M  CHG  2   3  -1  11  -1
M  END
>  <UniqueID>  (38) 
32

>  <SMILES>  (38) 
O=C([O-])c1ccc(S(=O)(=O)[N-]CCc2ccncc2)cc1

>  <Energy>  (38) 
27.98673692767896

>  <Genealogy>  (38) 
O=C([O-])c1ccc(S(=O)(=O)[N-]CCc2ccncc2)cc1 (protonated)
O=C([O-])c1ccc(S(=O)(=O)[N-]CCc2ccncc2)cc1 (3D coordinates assigned)
O=C([O-])c1ccc(S(=O)(=O)[N-]CCc2ccncc2)cc1 (optimized conformer: 27.98673692767896 kcal/mol)

>  <smiles>  (38) 
O=C(O)c1ccc(S(=O)(=O)NCCc2ccncc2)cc1

>  <score_type>  (38) 
oracle

>  <origin>  (38) 
adg

>  <m_score__min__energy>  (38) 
-10.220000000000001

>  <m_primary>  (38) 
energy

$$$$
38:0
     RDKit          3D

 40 42  0  0  0  0  0  0  0  0999 V2000
   55.9850   24.4600   46.3680 O   0  0  0  0  0  0  0  0  0  0  0  0
   55.9440   25.7190   46.3240 C   0  0  0  0  0  0  0  0  0  0  0  0
   54.7740   26.3410   45.9010 O   0  0  0  0  0  0  0  0  0  0  0  0
   57.1220   26.5240   46.7160 C   0  0  0  0  0  0  0  0  0  0  0  0
   57.2300   27.8660   46.3130 C   0  0  0  0  0  0  0  0  0  0  0  0
   58.3420   28.6290   46.6810 C   0  0  0  0  0  0  0  0  0  0  0  0
   59.3740   28.0630   47.4460 C   0  0  0  0  0  0  0  0  0  0  0  0
   60.5760   28.8940   47.8460 C   0  0  0  0  0  0  0  0  0  0  0  0
   60.3910   30.3480   47.6430 N   0  0  0  0  0  0  0  0  0  0  0  0
   61.6460   31.1070   47.5680 C   0  0  0  0  0  0  0  0  0  0  0  0
   61.3450   32.5040   47.0290 C   0  0  0  0  0  0  0  0  0  0  0  0
   60.3440   33.2260   47.8570 N   0  0  0  0  0  0  0  0  0  0  0  0
   59.4080   34.0050   47.0610 C   0  0  0  0  0  0  0  0  0  0  0  0
   59.2740   35.2350   47.3140 O   0  0  0  0  0  0  0  0  0  0  0  0
   58.5460   33.4350   45.9950 C   0  0  0  0  0  0  0  0  0  0  0  0
   58.2470   33.9560   44.7500 C   0  0  0  0  0  0  0  0  0  0  0  0
   57.3900   33.1360   44.1190 N   0  0  0  0  0  0  0  0  0  0  0  0
   57.1900   32.1450   45.0070 C   0  0  0  0  0  0  0  0  0  0  0  0
   56.4300   31.1680   44.7760 O   0  0  0  0  0  0  0  0  0  0  0  0
   57.8640   32.2870   46.1630 N   0  0  0  0  0  0  0  0  0  0  0  0
   59.6620   32.4230   48.9080 C   0  0  0  0  0  0  0  0  0  0  0  0
   59.3680   30.9570   48.5230 C   0  0  0  0  0  0  0  0  0  0  0  0
   59.2550   26.7280   47.8670 C   0  0  0  0  0  0  0  0  0  0  0  0
   58.1450   25.9640   47.5000 C   0  0  0  0  0  0  0  0  0  0  0  0
   56.4340   28.3191   45.7038 H   0  0  0  0  0  0  0  0  0  0  0  0
   58.4089   29.6816   46.3686 H   0  0  0  0  0  0  0  0  0  0  0  0
   60.7815   28.7160   48.9119 H   0  0  0  0  0  0  0  0  0  0  0  0
   61.4097   28.5837   47.1990 H   0  0  0  0  0  0  0  0  0  0  0  0
   62.0910   31.1857   48.5709 H   0  0  0  0  0  0  0  0  0  0  0  0
   62.3539   30.5935   46.9008 H   0  0  0  0  0  0  0  0  0  0  0  0
   62.2782   33.0862   47.0151 H   0  0  0  0  0  0  0  0  0  0  0  0
   60.9261   32.3910   46.0182 H   0  0  0  0  0  0  0  0  0  0  0  0
   60.9010   33.9320   48.3980 H   0  0  0  0  0  0  0  0  0  0  0  0
   58.6479   34.8948   44.3402 H   0  0  0  0  0  0  0  0  0  0  0  0
   60.3018   32.4188   49.8028 H   0  0  0  0  0  0  0  0  0  0  0  0
   58.6840   32.8993   49.0717 H   0  0  0  0  0  0  0  0  0  0  0  0
   59.3080   30.3624   49.4465 H   0  0  0  0  0  0  0  0  0  0  0  0
   58.4239   30.9598   47.9584 H   0  0  0  0  0  0  0  0  0  0  0  0
   60.0427   26.2807   48.4910 H   0  0  0  0  0  0  0  0  0  0  0  0
   58.0710   24.9163   47.8270 H   0  0  0  0  0  0  0  0  0  0  0  0
  1  2  2  0
  2  3  1  0
  2  4  1  0
  4  5  2  0
  5  6  1  0
  6  7  2  0
  7  8  1  0
  8  9  1  0
  9 10  1  0
 10 11  1  0
 11 12  1  0
 12 13  1  0
 13 14  2  0
 13 15  1  0
 15 16  2  0
 16 17  1  0
 17 18  1  0
 18 19  2  0
 18 20  1  0
 12 21  1  0
 21 22  1  0
  7 23  1  0
 23 24  2  0
 24  4  1  0
 22  9  1  0
 20 15  1  0
  5 25  1  0
  6 26  1  0
  8 27  1  0
  8 28  1  0
 10 29  1  0
 10 30  1  0
 11 31  1  0
 11 32  1  0
 12 33  1  0
 16 34  1  0
 21 35  1  0
 21 36  1  0
 22 37  1  0
 22 38  1  0
 23 39  1  0
 24 40  1  0
M  CHG  4   3  -1  12   1  17  -1  20  -1
M  END
>  <UniqueID>  (39) 
33

>  <SMILES>  (39) 
O=C([O-])c1ccc(CN2CC[NH+](C(=O)c3c[n-]c(=O)[n-]3)CC2)cc1

>  <Energy>  (39) 
93.81442755361707

>  <Genealogy>  (39) 
O=C([O-])c1ccc(CN2CC[NH+](C(=O)c3c[n-]c(=O)[n-]3)CC2)cc1 (protonated)
O=C([O-])c1ccc(CN2CC[NH+](C(=O)c3c[n-]c(=O)[n-]3)CC2)cc1 (3D coordinates assigned)
O=C([O-])c1ccc(CN2CC[NH+](C(=O)c3c[n-]c(=O)[n-]3)CC2)cc1 (nonaromatic ring conformer: 93.81442755361707 kcal/mol)

>  <smiles>  (39) 
O=C(O)c1ccc(CN2CCN(C(=O)c3c[nH]c(=O)[nH]3)CC2)cc1

>  <score_type>  (39) 
oracle

>  <origin>  (39) 
adg

>  <m_score__min__energy>  (39) 
-11.23

>  <m_primary>  (39) 
energy

$$$$
39:0
     RDKit          3D

 34 36  0  0  0  0  0  0  0  0999 V2000
   56.6231   31.0600   42.7794 H   0  0  0  0  0  0  0  0  0  0  0  0
   57.0770   31.3240   43.7460 C   0  0  0  0  0  0  0  0  0  0  0  0
   58.5250   30.7190   47.2460 N   0  0  0  0  0  0  0  0  0  0  0  0
   57.9790   29.7500   45.2250 C   0  0  0  0  0  0  0  0  0  0  0  0
   58.2570   28.7600   44.3020 C   0  0  0  0  0  0  0  0  0  0  0  0
   57.6459   28.6914   43.3899 H   0  0  0  0  0  0  0  0  0  0  0  0
   59.2800   27.8560   44.4940 C   0  0  0  0  0  0  0  0  0  0  0  0
   59.4946   27.0720   43.7528 H   0  0  0  0  0  0  0  0  0  0  0  0
   60.0210   27.9700   45.6440 C   0  0  0  0  0  0  0  0  0  0  0  0
   60.8424   27.2603   45.8221 H   0  0  0  0  0  0  0  0  0  0  0  0
   59.7730   28.9220   46.5580 N   0  0  0  0  0  0  0  0  0  0  0  0
   60.3760   28.9330   47.3980 H   0  0  0  0  0  0  0  0  0  0  0  0
   58.7560   29.8130   46.3540 C   0  0  0  0  0  0  0  0  0  0  0  0
   56.9140   30.6220   44.9260 N   0  0  0  0  0  0  0  0  0  0  0  0
   59.3500   31.8670   47.3890 C   0  0  0  0  0  0  0  0  0  0  0  0
   60.5560   32.0260   46.7520 C   0  0  0  0  0  0  0  0  0  0  0  0
   60.9399   31.2352   46.0907 H   0  0  0  0  0  0  0  0  0  0  0  0
   61.2880   33.1880   46.9460 C   0  0  0  0  0  0  0  0  0  0  0  0
   62.2508   33.2991   46.4257 H   0  0  0  0  0  0  0  0  0  0  0  0
   60.8560   34.2100   47.7660 C   0  0  0  0  0  0  0  0  0  0  0  0
   61.4595   35.1194   47.9033 H   0  0  0  0  0  0  0  0  0  0  0  0
   59.6310   34.0560   48.4160 C   0  0  0  0  0  0  0  0  0  0  0  0
   59.2393   34.8423   49.0781 H   0  0  0  0  0  0  0  0  0  0  0  0
   58.9220   32.8850   48.2040 C   0  0  0  0  0  0  0  0  0  0  0  0
   57.9580   32.7637   48.7198 H   0  0  0  0  0  0  0  0  0  0  0  0
   57.9340   32.4540   43.9830 C   0  0  0  0  0  0  0  0  0  0  0  0
   58.7030   33.4650   44.1970 C   0  0  0  0  0  0  0  0  0  0  0  0
   59.6297   33.4784   43.6045 H   0  0  0  0  0  0  0  0  0  0  0  0
   58.5500   34.4890   45.0190 C   0  0  0  0  0  0  0  0  0  0  0  0
   59.2143   35.3483   45.1932 H   0  0  0  0  0  0  0  0  0  0  0  0
   57.3680   34.2000   45.5840 C   0  0  0  0  0  0  0  0  0  0  0  0
   56.8573   34.8077   46.3455 H   0  0  0  0  0  0  0  0  0  0  0  0
   56.9320   33.1030   45.0930 N   0  0  0  0  0  0  0  0  0  0  0  0
   56.0730   32.6360   45.3240 H   0  0  0  0  0  0  0  0  0  0  0  0
  1  2  1  0
  2  3  2  0
  3  4  1  0
  4  5  2  0
  5  6  1  0
  5  7  1  0
  7  8  1  0
  7  9  2  0
  9 10  1  0
  9 11  1  0
 11 12  1  0
 11 13  1  0
 13 14  2  0
 14 15  1  0
 15 16  2  0
 16 17  1  0
 16 18  1  0
 18 19  1  0
 18 20  2  0
 20 21  1  0
 20 22  1  0
 22 23  1  0
 22 24  2  0
 24 25  1  0
  2 26  1  0
 26 27  2  0
 27 28  1  0
 27 29  1  0
 29 30  1  0
 29 31  2  0
 31 32  1  0
 31 33  1  0
 33 34  1  0
 13  4  1  0
 24 15  1  0
 33 26  1  0
M  END
>  <UniqueID>  (40) 
34

>  <SMILES>  (40) 
C(=N/c1ccc[nH]/c1=N\c1ccccc1)\c1ccc[nH]1

>  <Energy>  (40) 
295.55629719879755

>  <Genealogy>  (40) 
C(=N/c1ccc[nH]/c1=N\c1ccccc1)\c1ccc[nH]1 (cis-trans isomerization)
C(=N/c1ccc[nH]/c1=N\c1ccccc1)\c1ccc[nH]1 (3D coordinates assigned)
C(=N/c1ccc[nH]/c1=N\c1ccccc1)\c1ccc[nH]1 (optimized conformer: 295.55629719879755 kcal/mol)

>  <smiles>  (40) 
C(=Nc1ccc[nH]c1=Nc1ccccc1)c1ccc[nH]1

>  <score_type>  (40) 
oracle

>  <origin>  (40) 
adg

>  <m_score__min__energy>  (40) 
-6.6900000000000004

>  <m_primary>  (40) 
energy

$$$$
40:0
     RDKit          3D

 39 40  0  0  0  0  0  0  0  0999 V2000
   65.3190   32.7920   49.8320 C   0  0  0  0  0  0  0  0  0  0  0  0
   64.3310   33.8030   49.6710 O   0  0  0  0  0  0  0  0  0  0  0  0
   63.1890   33.6730   48.8650 C   0  0  0  0  0  0  0  0  0  0  0  0
   63.2500   33.1970   47.5420 C   0  0  0  0  0  0  0  0  0  0  0  0
   62.0830   33.0870   46.7790 C   0  0  0  0  0  0  0  0  0  0  0  0
   60.8430   33.4640   47.3140 C   0  0  0  0  0  0  0  0  0  0  0  0
   59.6560   33.3190   46.5150 N   0  0  0  0  0  0  0  0  0  0  0  0
   59.0300   34.3950   45.7990 C   0  0  0  0  0  0  0  0  0  0  0  0
   59.6250   35.4970   45.6450 O   0  0  0  0  0  0  0  0  0  0  0  0
   57.6980   34.1840   45.1460 C   0  0  0  0  0  0  0  0  0  0  0  0
   57.7460   32.9760   44.2100 C   0  0  0  0  0  0  0  0  0  0  0  0
   57.2240   31.7600   44.9060 C   0  0  0  0  0  0  0  0  0  0  0  0
   56.1650   31.2120   44.4940 O   0  0  0  0  0  0  0  0  0  0  0  0
   57.9310   31.2400   45.9970 O   0  0  0  0  0  0  0  0  0  0  0  0
   58.7620   30.1090   45.9620 C   0  0  0  0  0  0  0  0  0  0  0  0
   58.9250   29.3420   44.7920 C   0  0  0  0  0  0  0  0  0  0  0  0
   59.7510   28.2130   44.7980 C   0  0  0  0  0  0  0  0  0  0  0  0
   60.4110   27.8340   45.9690 C   0  0  0  0  0  0  0  0  0  0  0  0
   60.2390   28.5770   47.1400 C   0  0  0  0  0  0  0  0  0  0  0  0
   59.4130   29.7080   47.1400 C   0  0  0  0  0  0  0  0  0  0  0  0
   59.2120   30.6250   48.6260 Cl  0  0  0  0  0  0  0  0  0  0  0  0
   60.7830   33.9190   48.6440 C   0  0  0  0  0  0  0  0  0  0  0  0
   61.9490   34.0280   49.4060 C   0  0  0  0  0  0  0  0  0  0  0  0
   65.4916   32.6154   50.9039 H   0  0  0  0  0  0  0  0  0  0  0  0
   64.9723   31.8617   49.3583 H   0  0  0  0  0  0  0  0  0  0  0  0
   66.2570   33.1172   49.3583 H   0  0  0  0  0  0  0  0  0  0  0  0
   64.2187   32.9105   47.1066 H   0  0  0  0  0  0  0  0  0  0  0  0
   62.1385   32.7014   45.7503 H   0  0  0  0  0  0  0  0  0  0  0  0
   59.2740   32.3560   46.3750 H   0  0  0  0  0  0  0  0  0  0  0  0
   56.9378   34.0108   45.9219 H   0  0  0  0  0  0  0  0  0  0  0  0
   57.4437   35.0789   44.5592 H   0  0  0  0  0  0  0  0  0  0  0  0
   57.1285   33.1795   43.3227 H   0  0  0  0  0  0  0  0  0  0  0  0
   58.7890   32.7968   43.9098 H   0  0  0  0  0  0  0  0  0  0  0  0
   58.4006   29.6320   43.8696 H   0  0  0  0  0  0  0  0  0  0  0  0
   59.8809   27.6228   43.8789 H   0  0  0  0  0  0  0  0  0  0  0  0
   61.0663   26.9505   45.9696 H   0  0  0  0  0  0  0  0  0  0  0  0
   60.7534   28.2729   48.0636 H   0  0  0  0  0  0  0  0  0  0  0  0
   59.8130   34.1903   49.0862 H   0  0  0  0  0  0  0  0  0  0  0  0
   61.8913   34.3964   50.4409 H   0  0  0  0  0  0  0  0  0  0  0  0
  1  2  1  0
  2  3  1  0
  3  4  2  0
  4  5  1  0
  5  6  2  0
  6  7  1  0
  7  8  1  0
  8  9  2  0
  8 10  1  0
 10 11  1  0
 11 12  1  0
 12 13  2  0
 12 14  1  0
 14 15  1  0
 15 16  2  0
 16 17  1  0
 17 18  2  0
 18 19  1  0
 19 20  2  0
 20 21  1  0
  6 22  1  0
 22 23  2  0
 23  3  1  0
 20 15  1  0
  1 24  1  0
  1 25  1  0
  1 26  1  0
  4 27  1  0
  5 28  1  0
  7 29  1  0
 10 30  1  0
 10 31  1  0
 11 32  1  0
 11 33  1  0
 16 34  1  0
 17 35  1  0
 18 36  1  0
 19 37  1  0
 22 38  1  0
 23 39  1  0
M  END
>  <UniqueID>  (41) 
35

>  <SMILES>  (41) 
COc1ccc(NC(=O)CCC(=O)Oc2ccccc2Cl)cc1

>  <Energy>  (41) 
41.805977107683276

>  <Genealogy>  (41) 
COc1ccc(NC(=O)CCC(=O)Oc2ccccc2Cl)cc1 (3D coordinates assigned)
COc1ccc(NC(=O)CCC(=O)Oc2ccccc2Cl)cc1 (optimized conformer: 41.805977107683276 kcal/mol)

>  <smiles>  (41) 
COc1ccc(NC(=O)CCC(=O)Oc2ccccc2Cl)cc1

>  <score_type>  (41) 
oracle

>  <origin>  (41) 
adg

>  <m_score__min__energy>  (41) 
-7.8499999999999996

>  <m_primary>  (41) 
energy

$$$$
41:0
     RDKit          3D

 49 52  0  0  0  0  0  0  0  0999 V2000
   60.7270   28.3940   45.4330 C   0  0  0  0  0  0  0  0  0  0  0  0
   59.4630   29.2070   45.3770 C   0  0  0  0  0  0  0  0  0  0  0  0
   59.3120   30.5260   45.7860 C   0  0  0  0  0  0  0  0  0  0  0  0
   60.2530   31.4080   46.3320 O   0  0  0  0  0  0  0  0  0  0  0  0
   60.0740   32.1440   47.5110 C   0  0  0  0  0  0  0  0  0  0  0  0
   59.1160   31.6960   48.4310 C   0  0  0  0  0  0  0  0  0  0  0  0
   58.8940   32.3940   49.6210 C   0  0  0  0  0  0  0  0  0  0  0  0
   59.6300   33.5470   49.9030 C   0  0  0  0  0  0  0  0  0  0  0  0
   59.4130   34.2260   51.0580 F   0  0  0  0  0  0  0  0  0  0  0  0
   60.6030   33.9910   49.0050 C   0  0  0  0  0  0  0  0  0  0  0  0
   60.8440   33.2900   47.8170 C   0  0  0  0  0  0  0  0  0  0  0  0
   62.1740   33.8230   46.7930 Cl  0  0  0  0  0  0  0  0  0  0  0  0
   57.9930   30.8260   45.5480 C   0  0  0  0  0  0  0  0  0  0  0  0
   57.3960   32.0670   45.7840 O   0  0  0  0  0  0  0  0  0  0  0  0
   57.4810   33.1600   44.8730 C   0  0  0  0  0  0  0  0  0  0  0  0
   58.1140   32.7020   43.5540 C   0  0  0  0  0  0  0  0  0  0  0  0
   58.3200   34.2670   45.5070 C   0  0  0  0  0  0  0  0  0  0  0  0
   57.3540   29.7400   45.0760 N   0  0  0  0  0  0  0  0  0  0  0  0
   58.2420   28.7580   44.9780 N   0  0  0  0  0  0  0  0  0  0  0  0
   57.8770   27.4320   44.5500 C   0  0  0  0  0  0  0  0  0  0  0  0
   58.1150   27.0240   43.2300 C   0  0  0  0  0  0  0  0  0  0  0  0
   57.7650   25.7340   42.8310 C   0  0  0  0  0  0  0  0  0  0  0  0
   57.1850   24.8370   43.7510 C   0  0  0  0  0  0  0  0  0  0  0  0
   56.7770   23.4130   43.4110 C   0  0  0  0  0  0  0  0  0  0  0  0
   56.1040   22.6070   44.5140 C   0  0  0  0  0  0  0  0  0  0  0  0
   57.5330   22.2820   44.0950 C   0  0  0  0  0  0  0  0  0  0  0  0
   56.9730   25.2880   45.0630 C   0  0  0  0  0  0  0  0  0  0  0  0
   57.3210   26.5510   45.4250 N   0  0  0  0  0  0  0  0  0  0  0  0
   61.0027   28.2167   46.4830 H   0  0  0  0  0  0  0  0  0  0  0  0
   60.5656   27.4300   44.9285 H   0  0  0  0  0  0  0  0  0  0  0  0
   61.5373   28.9407   44.9285 H   0  0  0  0  0  0  0  0  0  0  0  0
   58.5344   30.7878   48.2145 H   0  0  0  0  0  0  0  0  0  0  0  0
   58.1391   32.0352   50.3361 H   0  0  0  0  0  0  0  0  0  0  0  0
   61.1838   34.8971   49.2323 H   0  0  0  0  0  0  0  0  0  0  0  0
   56.4720   33.5406   44.6562 H   0  0  0  0  0  0  0  0  0  0  0  0
   58.9883   32.0694   43.7671 H   0  0  0  0  0  0  0  0  0  0  0  0
   57.3775   32.1263   42.9742 H   0  0  0  0  0  0  0  0  0  0  0  0
   58.4304   33.5816   42.9742 H   0  0  0  0  0  0  0  0  0  0  0  0
   58.2614   34.1896   46.6027 H   0  0  0  0  0  0  0  0  0  0  0  0
   59.3673   34.1619   45.1875 H   0  0  0  0  0  0  0  0  0  0  0  0
   57.9357   35.2469   45.1875 H   0  0  0  0  0  0  0  0  0  0  0  0
   58.5758   27.7183   42.5119 H   0  0  0  0  0  0  0  0  0  0  0  0
   57.9424   25.4151   41.7933 H   0  0  0  0  0  0  0  0  0  0  0  0
   56.5357   23.6633   42.3674 H   0  0  0  0  0  0  0  0  0  0  0  0
   55.9095   23.0696   45.4929 H   0  0  0  0  0  0  0  0  0  0  0  0
   55.1688   22.0342   44.5990 H   0  0  0  0  0  0  0  0  0  0  0  0
   58.3699   22.5100   44.7715 H   0  0  0  0  0  0  0  0  0  0  0  0
   58.0566   21.3773   43.7523 H   0  0  0  0  0  0  0  0  0  0  0  0
   56.5211   24.6133   45.8050 H   0  0  0  0  0  0  0  0  0  0  0  0
  1  2  1  0
  2  3  2  0
  3  4  1  0
  4  5  1  0
  5  6  2  0
  6  7  1  0
  7  8  2  0
  8  9  1  0
  8 10  1  0
 10 11  2  0
 11 12  1  0
  3 13  1  0
 13 14  1  0
 14 15  1  0
 15 16  1  0
 15 17  1  0
 13 18  2  0
 18 19  1  0
 19 20  1  0
 20 21  2  0
 21 22  1  0
 22 23  2  0
 23 24  1  0
 24 25  1  0
 25 26  1  0
 23 27  1  0
 27 28  2  0
 19  2  1  0
 28 20  1  0
 11  5  1  0
 26 24  1  0
  1 29  1  0
  1 30  1  0
  1 31  1  0
  6 32  1  0
  7 33  1  0
 10 34  1  0
 15 35  1  0
 16 36  1  0
 16 37  1  0
 16 38  1  0
 17 39  1  0
 17 40  1  0
 17 41  1  0
 21 42  1  0
 22 43  1  0
 24 44  1  0
 25 45  1  0
 25 46  1  0
 26 47  1  0
 26 48  1  0
 27 49  1  0
M  END
>  <UniqueID>  (42) 
36

>  <SMILES>  (42) 
Cc1c(Oc2ccc(F)cc2Cl)c(OC(C)C)nn1-c1ccc(C2CC2)cn1

>  <Energy>  (42) 
359.0418673631495

>  <Genealogy>  (42) 
Cc1c(Oc2ccc(F)cc2Cl)c(OC(C)C)nn1-c1ccc(C2CC2)cn1 (3D coordinates assigned)
Cc1c(Oc2ccc(F)cc2Cl)c(OC(C)C)nn1-c1ccc(C2CC2)cn1 (nonaromatic ring conformer: 359.0418673631495 kcal/mol)

>  <smiles>  (42) 
Cc1c(Oc2ccc(F)cc2Cl)c(OC(C)C)nn1-c1ccc(C2CC2)cn1

>  <score_type>  (42) 
oracle

>  <origin>  (42) 
adg

>  <m_score__min__energy>  (42) 
-8.0999999999999996

>  <m_primary>  (42) 
energy

$$$$
42:0
     RDKit          3D

 32 33  0  0  0  0  0  0  0  0999 V2000
   57.7750   25.7710   45.1210 C   0  0  0  0  0  0  0  0  0  0  0  0
   56.5760   26.2270   45.8970 C   0  0  0  0  0  0  0  0  0  0  0  0
   56.1860   25.5410   46.8770 O   0  0  0  0  0  0  0  0  0  0  0  0
   55.9290   27.4800   45.6210 N   0  0  0  0  0  0  0  0  0  0  0  0
   56.4860   28.6240   45.3370 C   0  0  0  0  0  0  0  0  0  0  0  0
   57.8620   28.8680   45.5160 C   0  0  0  0  0  0  0  0  0  0  0  0
   58.3890   30.1160   45.1800 C   0  0  0  0  0  0  0  0  0  0  0  0
   57.5590   31.1170   44.6720 C   0  0  0  0  0  0  0  0  0  0  0  0
   58.1260   32.3860   44.3180 N   0  0  0  0  0  0  0  0  0  0  0  0
   58.1400   33.5650   45.1350 C   0  0  0  0  0  0  0  0  0  0  0  0
   57.3210   34.4860   44.8760 O   0  0  0  0  0  0  0  0  0  0  0  0
   59.1200   33.7510   46.2320 C   0  0  0  0  0  0  0  0  0  0  0  0
   58.6970   34.1320   47.5160 C   0  0  0  0  0  0  0  0  0  0  0  0
   59.6260   34.3000   48.5430 C   0  0  0  0  0  0  0  0  0  0  0  0
   60.9840   34.0810   48.3060 C   0  0  0  0  0  0  0  0  0  0  0  0
   61.4300   33.6850   47.0340 C   0  0  0  0  0  0  0  0  0  0  0  0
   62.8310   33.4550   46.7940 N   0  0  0  0  0  0  0  0  0  0  0  0
   63.4960   34.2450   46.0930 O   0  0  0  0  0  0  0  0  0  0  0  0
   63.4620   32.3590   47.3360 O   0  0  0  0  0  0  0  0  0  0  0  0
   60.4870   33.5170   46.0020 C   0  0  0  0  0  0  0  0  0  0  0  0
   56.2030   30.8250   44.4660 C   0  0  0  0  0  0  0  0  0  0  0  0
   55.7100   29.6030   44.8000 N   0  0  0  0  0  0  0  0  0  0  0  0
   58.5700   25.4687   45.8186 H   0  0  0  0  0  0  0  0  0  0  0  0
   57.4981   24.9154   44.4875 H   0  0  0  0  0  0  0  0  0  0  0  0
   58.1366   26.5944   44.4875 H   0  0  0  0  0  0  0  0  0  0  0  0
   58.5164   28.0804   45.9178 H   0  0  0  0  0  0  0  0  0  0  0  0
   59.4629   30.3117   45.3160 H   0  0  0  0  0  0  0  0  0  0  0  0
   57.6277   34.2988   47.7128 H   0  0  0  0  0  0  0  0  0  0  0  0
   59.2870   34.6063   49.5436 H   0  0  0  0  0  0  0  0  0  0  0  0
   61.7100   34.2194   49.1208 H   0  0  0  0  0  0  0  0  0  0  0  0
   60.8238   33.1990   45.0043 H   0  0  0  0  0  0  0  0  0  0  0  0
   55.5371   31.5861   44.0334 H   0  0  0  0  0  0  0  0  0  0  0  0
  1  2  1  0
  2  3  2  0
  2  4  1  0
  4  5  2  3
  5  6  1  0
  6  7  2  0
  7  8  1  0
  8  9  1  0
  9 10  1  0
 10 11  2  0
 10 12  1  0
 12 13  2  0
 13 14  1  0
 14 15  2  0
 15 16  1  0
 16 17  1  0
 17 18  2  0
 17 19  1  0
 16 20  2  0
  8 21  2  0
 21 22  1  0
 22  5  1  0
 20 12  1  0
  1 23  1  0
  1 24  1  0
  1 25  1  0
  6 26  1  0
  7 27  1  0
 13 28  1  0
 14 29  1  0
 15 30  1  0
 20 31  1  0
 21 32  1  0
M  CHG  4   9  -1  17   1  19  -1  22  -1
M  END
>  <UniqueID>  (43) 
37

>  <SMILES>  (43) 
CC(=O)N=c1ccc([N-]C(=O)c2cccc([N+](=O)[O-])c2)c[n-]1

>  <Energy>  (43) 
49.37991884264231

>  <Genealogy>  (43) 
CC(=O)N=c1ccc([N-]C(=O)c2cccc([N+](=O)[O-])c2)c[n-]1 (protonated)
CC(=O)N=c1ccc([N-]C(=O)c2cccc([N+](=O)[O-])c2)c[n-]1 (3D coordinates assigned)
CC(=O)N=c1ccc([N-]C(=O)c2cccc([N+](=O)[O-])c2)c[n-]1 (optimized conformer: 49.37991884264231 kcal/mol)

>  <smiles>  (43) 
CC(=O)N=c1ccc(NC(=O)c2cccc([N+](=O)[O-])c2)c[nH]1

>  <score_type>  (43) 
oracle

>  <origin>  (43) 
adg

>  <m_score__min__energy>  (43) 
-10.949999999999999

>  <m_primary>  (43) 
energy

$$$$
43:0
     RDKit          3D

 34 35  0  0  0  0  0  0  0  0999 V2000
   58.3220   32.7330   43.8530 C   0  0  0  0  0  0  0  0  0  0  0  0
   57.9330   31.6890   44.9060 C   0  0  0  0  0  0  0  0  0  0  0  0
   57.7870   32.3560   46.2790 C   0  0  0  0  0  0  0  0  0  0  0  0
   56.6470   31.0990   44.5230 N   0  0  0  0  0  0  0  0  0  0  0  0
   56.3030   29.7500   44.8400 C   0  0  0  0  0  0  0  0  0  0  0  0
   55.1180   29.3540   44.6750 O   0  0  0  0  0  0  0  0  0  0  0  0
   57.3500   28.8340   45.3200 C   0  0  0  0  0  0  0  0  0  0  0  0
   57.0610   27.5110   45.6940 C   0  0  0  0  0  0  0  0  0  0  0  0
   58.0890   26.6510   46.1070 C   0  0  0  0  0  0  0  0  0  0  0  0
   57.7740   25.2320   46.4970 C   0  0  0  0  0  0  0  0  0  0  0  0
   56.4550   25.1450   47.1270 N   0  0  0  0  0  0  0  0  0  0  0  0
   55.2300   24.7370   45.9600 S   0  0  0  0  0  0  0  0  0  0  0  0
   56.0220   24.1590   44.4770 C   0  0  0  0  0  0  0  0  0  0  0  0
   54.3440   23.6480   46.4960 O   0  0  0  0  0  0  0  0  0  0  0  0
   54.4000   25.9480   45.6320 O   0  0  0  0  0  0  0  0  0  0  0  0
   59.4100   27.1220   46.1410 C   0  0  0  0  0  0  0  0  0  0  0  0
   59.7010   28.4360   45.7670 C   0  0  0  0  0  0  0  0  0  0  0  0
   58.6740   29.3000   45.3620 C   0  0  0  0  0  0  0  0  0  0  0  0
   58.9740   30.6530   44.9810 N   0  0  0  0  0  0  0  0  0  0  0  0
   58.6638   33.6502   44.3549 H   0  0  0  0  0  0  0  0  0  0  0  0
   59.1323   32.3354   43.2243 H   0  0  0  0  0  0  0  0  0  0  0  0
   57.4491   32.9625   43.2243 H   0  0  0  0  0  0  0  0  0  0  0  0
   57.9506   31.6084   47.0691 H   0  0  0  0  0  0  0  0  0  0  0  0
   58.5302   33.1611   46.3764 H   0  0  0  0  0  0  0  0  0  0  0  0
   56.7754   32.7770   46.3764 H   0  0  0  0  0  0  0  0  0  0  0  0
   56.0232   27.1478   45.6628 H   0  0  0  0  0  0  0  0  0  0  0  0
   57.7859   24.5998   45.5969 H   0  0  0  0  0  0  0  0  0  0  0  0
   58.5313   24.8885   47.2171 H   0  0  0  0  0  0  0  0  0  0  0  0
   56.8841   23.5298   44.7431 H   0  0  0  0  0  0  0  0  0  0  0  0
   55.3065   23.5693   43.8852 H   0  0  0  0  0  0  0  0  0  0  0  0
   56.3654   25.0203   43.8852 H   0  0  0  0  0  0  0  0  0  0  0  0
   60.2211   26.4529   46.4640 H   0  0  0  0  0  0  0  0  0  0  0  0
   60.7407   28.7944   45.7904 H   0  0  0  0  0  0  0  0  0  0  0  0
   59.9750   30.9560   44.9710 H   0  0  0  0  0  0  0  0  0  0  0  0
  1  2  1  0
  2  3  1  0
  2  4  1  0
  4  5  1  0
  5  6  2  0
  5  7  1  0
  7  8  2  0
  8  9  1  0
  9 10  1  0
 10 11  1  0
 11 12  1  0
 12 13  1  0
 12 14  2  0
 12 15  2  0
  9 16  2  0
 16 17  1  0
 17 18  2  0
 18 19  1  0
 19  2  1  0
 18  7  1  0
  1 20  1  0
  1 21  1  0
  1 22  1  0
  3 23  1  0
  3 24  1  0
  3 25  1  0
  8 26  1  0
 10 27  1  0
 10 28  1  0
 13 29  1  0
 13 30  1  0
 13 31  1  0
 16 32  1  0
 17 33  1  0
 19 34  1  0
M  CHG  2   4  -1  11  -1
M  END
>  <UniqueID>  (44) 
38

>  <SMILES>  (44) 
CC1(C)[N-]C(=O)c2cc(C[N-]S(C)(=O)=O)ccc2N1

>  <Energy>  (44) 
25.21235595550361

>  <Genealogy>  (44) 
CC1(C)[N-]C(=O)c2cc(C[N-]S(C)(=O)=O)ccc2N1 (protonated)
CC1(C)[N-]C(=O)c2cc(C[N-]S(C)(=O)=O)ccc2N1 (3D coordinates assigned)
CC1(C)[N-]C(=O)c2cc(C[N-]S(C)(=O)=O)ccc2N1 (nonaromatic ring conformer: 25.21235595550361 kcal/mol)

>  <smiles>  (44) 
CC1(C)NC(=O)c2cc(CNS(C)(=O)=O)ccc2N1

>  <score_type>  (44) 
oracle

>  <origin>  (44) 
adg

>  <m_score__min__energy>  (44) 
-10.869999999999999

>  <m_primary>  (44) 
energy

$$$$
44:0
     RDKit          3D

 89 94  0  0  0  0  0  0  0  0999 V2000
   56.1640   29.6190   53.0300 O   0  0  0  0  0  0  0  0  0  0  0  0
   57.2480   29.9300   52.4720 C   0  0  0  0  0  0  0  0  0  0  0  0
   58.5150   29.9230   53.2200 C   0  0  0  0  0  0  0  0  0  0  0  0
   59.5010   29.0610   52.9440 C   0  0  0  0  0  0  0  0  0  0  0  0
   60.8640   29.4870   52.5450 C   0  0  0  0  0  0  0  0  0  0  0  0
   61.8480   28.5630   52.1360 C   0  0  0  0  0  0  0  0  0  0  0  0
   63.1020   29.0120   51.7010 C   0  0  0  0  0  0  0  0  0  0  0  0
   63.3850   30.3810   51.6620 C   0  0  0  0  0  0  0  0  0  0  0  0
   62.4130   31.3040   52.0600 C   0  0  0  0  0  0  0  0  0  0  0  0
   61.1590   30.8610   52.4970 C   0  0  0  0  0  0  0  0  0  0  0  0
   57.2560   30.3470   51.1080 N   0  0  0  0  0  0  0  0  0  0  0  0
   58.4100   30.9740   50.4770 C   0  0  0  0  0  0  0  0  0  0  0  0
   58.6320   30.3640   49.0760 C   0  0  2  0  0  0  0  0  0  0  0  0
   59.8200   29.3770   49.1160 C   0  0  0  0  0  0  0  0  0  0  0  0
   61.1840   30.0860   49.1020 C   0  0  0  0  0  0  0  0  0  0  0  0
   61.4640   30.6850   47.7870 N   0  0  0  0  0  0  0  0  0  0  0  0
   62.7850   31.2960   47.5300 C   0  0  0  0  0  0  0  0  0  0  0  0
   62.8940   32.8060   47.8910 C   0  0  0  0  0  0  0  0  0  0  0  0
   61.5690   33.5590   47.7510 C   0  0  0  0  0  0  0  0  0  0  0  0
   60.6420   33.6470   48.8090 C   0  0  0  0  0  0  0  0  0  0  0  0
   59.4320   34.3290   48.6400 C   0  0  0  0  0  0  0  0  0  0  0  0
   59.1300   34.9400   47.4210 C   0  0  0  0  0  0  0  0  0  0  0  0
   60.0430   34.8730   46.3690 C   0  0  0  0  0  0  0  0  0  0  0  0
   61.2540   34.1880   46.5280 C   0  0  0  0  0  0  0  0  0  0  0  0
   63.6710   33.0800   49.1770 C   0  0  0  0  0  0  0  0  0  0  0  0
   63.2740   34.0420   50.1340 C   0  0  0  0  0  0  0  0  0  0  0  0
   64.0140   34.2230   51.3090 C   0  0  0  0  0  0  0  0  0  0  0  0
   65.1550   33.4560   51.5500 C   0  0  0  0  0  0  0  0  0  0  0  0
   65.5690   32.5160   50.6080 C   0  0  0  0  0  0  0  0  0  0  0  0
   64.8460   32.3400   49.4230 C   0  0  0  0  0  0  0  0  0  0  0  0
   60.5600   30.4450   46.6870 C   0  0  0  0  0  0  0  0  0  0  0  0
   60.9870   29.8870   45.6420 O   0  0  0  0  0  0  0  0  0  0  0  0
   59.1300   30.9470   46.7330 C   0  0  2  0  0  0  0  0  0  0  0  0
   58.8620   32.0560   45.6850 C   0  0  0  0  0  0  0  0  0  0  0  0
   57.4140   32.0770   45.1740 C   0  0  0  0  0  0  0  0  0  0  0  0
   57.1820   30.8900   44.3600 N   0  0  0  0  0  0  0  0  0  0  0  0
   56.3990   29.7740   44.7950 C   0  0  0  0  0  0  0  0  0  0  0  0
   55.1520   29.9080   44.9500 O   0  0  0  0  0  0  0  0  0  0  0  0
   57.0490   28.4730   45.0710 C   0  0  0  0  0  0  0  0  0  0  0  0
   58.4240   28.2990   44.8500 C   0  0  0  0  0  0  0  0  0  0  0  0
   59.0420   27.0780   45.1390 C   0  0  0  0  0  0  0  0  0  0  0  0
   58.2930   26.0190   45.6700 C   0  0  0  0  0  0  0  0  0  0  0  0
   58.9030   24.7940   45.9800 C   0  0  0  0  0  0  0  0  0  0  0  0
   58.1500   23.7510   46.5320 C   0  0  0  0  0  0  0  0  0  0  0  0
   56.7860   23.9240   46.7740 C   0  0  0  0  0  0  0  0  0  0  0  0
   56.1660   25.1360   46.4610 C   0  0  0  0  0  0  0  0  0  0  0  0
   56.9100   26.1880   45.9060 C   0  0  0  0  0  0  0  0  0  0  0  0
   56.2960   27.4070   45.5930 C   0  0  0  0  0  0  0  0  0  0  0  0
   58.8670   31.4500   48.0970 N   0  0  0  0  0  0  0  0  0  0  0  0
   58.6566   30.6503   54.0330 H   0  0  0  0  0  0  0  0  0  0  0  0
   59.2898   27.9839   53.0167 H   0  0  0  0  0  0  0  0  0  0  0  0
   61.6300   27.4851   52.1586 H   0  0  0  0  0  0  0  0  0  0  0  0
   63.8665   28.2852   51.3891 H   0  0  0  0  0  0  0  0  0  0  0  0
   64.3699   30.7308   51.3190 H   0  0  0  0  0  0  0  0  0  0  0  0
   62.6343   32.3811   52.0296 H   0  0  0  0  0  0  0  0  0  0  0  0
   60.3985   31.5935   52.8053 H   0  0  0  0  0  0  0  0  0  0  0  0
   58.2318   32.0552   50.3811 H   0  0  0  0  0  0  0  0  0  0  0  0
   59.3028   30.8004   51.0957 H   0  0  0  0  0  0  0  0  0  0  0  0
   57.7370   29.8050   48.7653 H   0  0  0  0  0  0  0  0  0  0  0  0
   59.7461   28.7751   50.0337 H   0  0  0  0  0  0  0  0  0  0  0  0
   59.7621   28.7522   48.2125 H   0  0  0  0  0  0  0  0  0  0  0  0
   61.1828   30.8795   49.8639 H   0  0  0  0  0  0  0  0  0  0  0  0
   61.9640   29.3406   49.3162 H   0  0  0  0  0  0  0  0  0  0  0  0
   63.5345   30.7491   48.1210 H   0  0  0  0  0  0  0  0  0  0  0  0
   62.9489   31.2273   46.4445 H   0  0  0  0  0  0  0  0  0  0  0  0
   63.5329   33.2530   47.1151 H   0  0  0  0  0  0  0  0  0  0  0  0
   60.8717   33.1755   49.7759 H   0  0  0  0  0  0  0  0  0  0  0  0
   58.7145   34.3842   49.4720 H   0  0  0  0  0  0  0  0  0  0  0  0
   58.1759   35.4719   47.2912 H   0  0  0  0  0  0  0  0  0  0  0  0
   59.8110   35.3602   45.4104 H   0  0  0  0  0  0  0  0  0  0  0  0
   61.9665   34.1399   45.6913 H   0  0  0  0  0  0  0  0  0  0  0  0
   62.3771   34.6529   49.9542 H   0  0  0  0  0  0  0  0  0  0  0  0
   63.6942   34.9740   52.0464 H   0  0  0  0  0  0  0  0  0  0  0  0
   65.7256   33.5930   52.4804 H   0  0  0  0  0  0  0  0  0  0  0  0
   66.4675   31.9102   50.7968 H   0  0  0  0  0  0  0  0  0  0  0  0
   65.1985   31.6155   48.6741 H   0  0  0  0  0  0  0  0  0  0  0  0
   58.4522   30.1168   46.4852 H   0  0  0  0  0  0  0  0  0  0  0  0
   59.0835   33.0305   46.1446 H   0  0  0  0  0  0  0  0  0  0  0  0
   59.5081   31.8472   44.8196 H   0  0  0  0  0  0  0  0  0  0  0  0
   56.7212   32.0798   46.0284 H   0  0  0  0  0  0  0  0  0  0  0  0
   57.2454   32.9810   44.5704 H   0  0  0  0  0  0  0  0  0  0  0  0
   59.0208   29.1300   44.4460 H   0  0  0  0  0  0  0  0  0  0  0  0
   60.1178   26.9486   44.9492 H   0  0  0  0  0  0  0  0  0  0  0  0
   59.9770   24.6527   45.7885 H   0  0  0  0  0  0  0  0  0  0  0  0
   58.6338   22.7936   46.7755 H   0  0  0  0  0  0  0  0  0  0  0  0
   56.1981   23.1040   47.2122 H   0  0  0  0  0  0  0  0  0  0  0  0
   55.0903   25.2661   46.6504 H   0  0  0  0  0  0  0  0  0  0  0  0
   55.2154   27.5314   45.7570 H   0  0  0  0  0  0  0  0  0  0  0  0
   58.0120   32.0530   48.0730 H   0  0  0  0  0  0  0  0  0  0  0  0
  1  2  2  0
  2  3  1  0
  3  4  2  3
  4  5  1  0
  5  6  2  0
  6  7  1  0
  7  8  2  0
  8  9  1  0
  9 10  2  0
  2 11  1  0
 11 12  1  0
 12 13  1  0
 13 14  1  0
 14 15  1  0
 15 16  1  0
 16 17  1  0
 17 18  1  0
 18 19  1  0
 19 20  2  0
 20 21  1  0
 21 22  2  0
 22 23  1  0
 23 24  2  0
 18 25  1  0
 25 26  2  0
 26 27  1  0
 27 28  2  0
 28 29  1  0
 29 30  2  0
 16 31  1  0
 31 32  2  0
 31 33  1  0
 33 34  1  0
 34 35  1  0
 35 36  1  0
 36 37  1  0
 37 38  2  0
 37 39  1  0
 39 40  2  0
 40 41  1  0
 41 42  2  0
 42 43  1  0
 43 44  2  0
 44 45  1  0
 45 46  2  0
 46 47  1  0
 47 48  2  0
 33 49  1  0
 10  5  1  0
 49 13  1  0
 24 19  1  0
 30 25  1  0
 48 39  1  0
 47 42  1  0
  3 50  1  0
  4 51  1  0
  6 52  1  0
  7 53  1  0
  8 54  1  0
  9 55  1  0
 10 56  1  0
 12 57  1  0
 12 58  1  0
 13 59  1  6
 14 60  1  0
 14 61  1  0
 15 62  1  0
 15 63  1  0
 17 64  1  0
 17 65  1  0
 18 66  1  0
 20 67  1  0
 21 68  1  0
 22 69  1  0
 23 70  1  0
 24 71  1  0
 26 72  1  0
 27 73  1  0
 28 74  1  0
 29 75  1  0
 30 76  1  0
 33 77  1  6
 34 78  1  0
 34 79  1  0
 35 80  1  0
 35 81  1  0
 40 82  1  0
 41 83  1  0
 43 84  1  0
 44 85  1  0
 45 86  1  0
 46 87  1  0
 48 88  1  0
 49 89  1  0
M  CHG  2  11  -1  36  -1
M  END
>  <UniqueID>  (45) 
39

>  <SMILES>  (45) 
O=C(C=Cc1ccccc1)[N-]C[C@@H]1CCN(CC(c2ccccc2)c2ccccc2)C(=O)[C@H](CC[N-]C(=O)c2ccc3ccccc3c2)N1

>  <Energy>  (45) 
113.03814126194415

>  <Genealogy>  (45) 
O=C(C=Cc1ccccc1)[N-]CC1CCN(CC(c2ccccc2)c2ccccc2)C(=O)C(CC[N-]C(=O)c2ccc3ccccc3c2)N1 (protonated)
O=C(C=Cc1ccccc1)[N-]C[C@@H]1CCN(CC(c2ccccc2)c2ccccc2)C(=O)[C@H](CC[N-]C(=O)c2ccc3ccccc3c2)N1 (chirality)
O=C(C=Cc1ccccc1)[N-]C[C@@H]1CCN(CC(c2ccccc2)c2ccccc2)C(=O)[C@H](CC[N-]C(=O)c2ccc3ccccc3c2)N1 (3D coordinates assigned)
O=C(C=Cc1ccccc1)[N-]C[C@@H]1CCN(CC(c2ccccc2)c2ccccc2)C(=O)[C@H](CC[N-]C(=O)c2ccc3ccccc3c2)N1 (nonaromatic ring conformer: 113.03814126194415 kcal/mol)

>  <smiles>  (45) 
O=C(C=Cc1ccccc1)NCC1CCN(CC(c2ccccc2)c2ccccc2)C(=O)C(CCNC(=O)c2ccc3ccccc3c2)N1

>  <score_type>  (45) 
oracle

>  <origin>  (45) 
adg

>  <m_score__min__energy>  (45) 
-10.890000000000001

>  <m_primary>  (45) 
energy

$$$$
45:0
     RDKit          3D

 53 55  0  0  0  0  0  0  0  0999 V2000
   63.6350   33.7500   47.1510 C   0  0  0  0  0  0  0  0  0  0  0  0
   63.0540   32.3770   47.4480 C   0  0  0  0  0  0  0  0  0  0  0  0
   61.6480   32.4020   47.2220 O   0  0  0  0  0  0  0  0  0  0  0  0
   60.7360   31.4770   47.7540 C   0  0  0  0  0  0  0  0  0  0  0  0
   60.4970   30.2310   47.1420 C   0  0  0  0  0  0  0  0  0  0  0  0
   59.5680   29.3260   47.6860 C   0  0  0  0  0  0  0  0  0  0  0  0
   59.3210   28.0210   47.0260 C   0  0  0  0  0  0  0  0  0  0  0  0
   60.0160   27.0190   47.3490 O   0  0  0  0  0  0  0  0  0  0  0  0
   58.3360   27.8980   45.9850 N   0  0  0  0  0  0  0  0  0  0  0  0
   57.7420   26.6510   45.5840 C   0  0  0  0  0  0  0  0  0  0  0  0
   56.9880   25.9170   46.5120 C   0  0  0  0  0  0  0  0  0  0  0  0
   56.4200   24.6910   46.1560 C   0  0  0  0  0  0  0  0  0  0  0  0
   56.6170   24.1660   44.8670 C   0  0  0  0  0  0  0  0  0  0  0  0
   56.0270   22.9260   44.4500 N   0  0  0  0  0  0  0  0  0  0  0  0
   56.6020   21.9660   43.5550 C   0  0  0  0  0  0  0  0  0  0  0  0
   57.9850   21.4660   43.8080 C   0  0  0  0  0  0  0  0  0  0  0  0
   55.9220   21.4630   42.6220 O   0  0  0  0  0  0  0  0  0  0  0  0
   57.3690   24.8970   43.9400 C   0  0  0  0  0  0  0  0  0  0  0  0
   57.9410   26.1220   44.2970 C   0  0  0  0  0  0  0  0  0  0  0  0
   58.8920   29.6740   48.8660 C   0  0  0  0  0  0  0  0  0  0  0  0
   59.1240   30.9060   49.4780 C   0  0  0  0  0  0  0  0  0  0  0  0
   60.0430   31.8110   48.9310 C   0  0  0  0  0  0  0  0  0  0  0  0
   60.3100   33.3700   49.7150 S   0  0  0  0  0  0  0  0  0  0  0  0
   59.6270   33.3780   51.0540 O   0  0  0  0  0  0  0  0  0  0  0  0
   61.7890   33.5780   49.8860 O   0  0  0  0  0  0  0  0  0  0  0  0
   59.6520   34.6450   48.7390 N   0  0  0  0  0  0  0  0  0  0  0  0
   59.1870   34.4940   47.3900 C   0  0  0  0  0  0  0  0  0  0  0  0
   59.7570   35.2040   46.3150 C   0  0  0  0  0  0  0  0  0  0  0  0
   59.2700   35.0230   45.0150 C   0  0  0  0  0  0  0  0  0  0  0  0
   58.2160   34.1380   44.7790 C   0  0  0  0  0  0  0  0  0  0  0  0
   57.6430   33.4340   45.8420 C   0  0  0  0  0  0  0  0  0  0  0  0
   56.6150   32.5790   45.6130 F   0  0  0  0  0  0  0  0  0  0  0  0
   58.1270   33.6110   47.1430 C   0  0  0  0  0  0  0  0  0  0  0  0
   63.8541   34.2678   48.0965 H   0  0  0  0  0  0  0  0  0  0  0  0
   64.5628   33.6379   46.5708 H   0  0  0  0  0  0  0  0  0  0  0  0
   62.9085   34.3379   46.5708 H   0  0  0  0  0  0  0  0  0  0  0  0
   63.5191   31.6304   46.7875 H   0  0  0  0  0  0  0  0  0  0  0  0
   63.2541   32.1111   48.4965 H   0  0  0  0  0  0  0  0  0  0  0  0
   61.0442   29.9622   46.2264 H   0  0  0  0  0  0  0  0  0  0  0  0
   58.1110   28.7490   45.4210 H   0  0  0  0  0  0  0  0  0  0  0  0
   56.8427   26.3102   47.5290 H   0  0  0  0  0  0  0  0  0  0  0  0
   55.8160   24.1343   46.8876 H   0  0  0  0  0  0  0  0  0  0  0  0
   58.1595   21.4029   44.8922 H   0  0  0  0  0  0  0  0  0  0  0  0
   58.1021   20.4686   43.3591 H   0  0  0  0  0  0  0  0  0  0  0  0
   58.7129   22.1579   43.3591 H   0  0  0  0  0  0  0  0  0  0  0  0
   57.5112   24.5046   42.9223 H   0  0  0  0  0  0  0  0  0  0  0  0
   58.5501   26.6748   43.5666 H   0  0  0  0  0  0  0  0  0  0  0  0
   58.1738   28.9699   49.3115 H   0  0  0  0  0  0  0  0  0  0  0  0
   58.5809   31.1690   50.3977 H   0  0  0  0  0  0  0  0  0  0  0  0
   60.5869   35.9025   46.4975 H   0  0  0  0  0  0  0  0  0  0  0  0
   59.7183   35.5788   44.1782 H   0  0  0  0  0  0  0  0  0  0  0  0
   57.8366   33.9948   43.7565 H   0  0  0  0  0  0  0  0  0  0  0  0
   57.6732   33.0543   47.9761 H   0  0  0  0  0  0  0  0  0  0  0  0
  1  2  1  0
  2  3  1  0
  3  4  1  0
  4  5  2  0
  5  6  1  0
  6  7  1  0
  7  8  2  0
  7  9  1  0
  9 10  1  0
 10 11  2  0
 11 12  1  0
 12 13  2  0
 13 14  1  0
 14 15  1  0
 15 16  1  0
 15 17  2  0
 13 18  1  0
 18 19  2  0
  6 20  2  0
 20 21  1  0
 21 22  2  0
 22 23  1  0
 23 24  2  0
 23 25  2  0
 23 26  1  0
 26 27  1  0
 27 28  2  0
 28 29  1  0
 29 30  2  0
 30 31  1  0
 31 32  1  0
 31 33  2  0
 22  4  1  0
 33 27  1  0
 19 10  1  0
  1 34  1  0
  1 35  1  0
  1 36  1  0
  2 37  1  0
  2 38  1  0
  5 39  1  0
  9 40  1  0
 11 41  1  0
 12 42  1  0
 16 43  1  0
 16 44  1  0
 16 45  1  0
 18 46  1  0
 19 47  1  0
 20 48  1  0
 21 49  1  0
 28 50  1  0
 29 51  1  0
 30 52  1  0
 33 53  1  0
M  CHG  2  14  -1  26  -1
M  END
>  <UniqueID>  (46) 
40

>  <SMILES>  (46) 
CCOc1cc(C(=O)Nc2ccc([N-]C(C)=O)cc2)ccc1S(=O)(=O)[N-]c1cccc(F)c1

>  <Energy>  (46) 
63.92487442768666

>  <Genealogy>  (46) 
CCOc1cc(C(=O)Nc2ccc([N-]C(C)=O)cc2)ccc1S(=O)(=O)[N-]c1cccc(F)c1 (protonated)
CCOc1cc(C(=O)Nc2ccc([N-]C(C)=O)cc2)ccc1S(=O)(=O)[N-]c1cccc(F)c1 (3D coordinates assigned)
CCOc1cc(C(=O)Nc2ccc([N-]C(C)=O)cc2)ccc1S(=O)(=O)[N-]c1cccc(F)c1 (optimized conformer: 63.92487442768666 kcal/mol)

>  <smiles>  (46) 
CCOc1cc(C(=O)Nc2ccc(NC(C)=O)cc2)ccc1S(=O)(=O)Nc1cccc(F)c1

>  <score_type>  (46) 
oracle

>  <origin>  (46) 
adg

>  <m_score__min__energy>  (46) 
-10.789999999999999

>  <m_primary>  (46) 
energy

$$$$
46:0
     RDKit          3D

 38 39  0  0  0  0  0  0  0  0999 V2000
   55.8810   30.0790   43.7490 C   0  0  0  0  0  0  0  0  0  0  0  0
   56.9320   30.8290   44.4880 C   0  0  0  0  0  0  0  0  0  0  0  0
   57.3950   32.0670   44.0930 C   0  0  0  0  0  0  0  0  0  0  0  0
   58.3790   32.6660   44.8650 C   0  0  0  0  0  0  0  0  0  0  0  0
   58.9230   33.9960   44.5030 C   0  0  0  0  0  0  0  0  0  0  0  0
   58.8770   32.0630   45.9790 N   0  0  0  0  0  0  0  0  0  0  0  0
   61.7850   33.8310   47.2240 C   0  0  0  0  0  0  0  0  0  0  0  0
   58.8760   30.2540   47.4150 N   0  0  0  0  0  0  0  0  0  0  0  0
   60.0200   30.7950   48.0560 C   0  0  0  0  0  0  0  0  0  0  0  0
   61.0470   30.9730   47.3300 O   0  0  0  0  0  0  0  0  0  0  0  0
   60.0780   31.1530   49.4950 C   0  0  0  0  0  0  0  0  0  0  0  0
   59.8200   32.9510   49.5770 S   0  0  0  0  0  0  0  0  0  0  0  0
   61.4450   33.7460   49.7830 C   0  0  0  0  0  0  0  0  0  0  0  0
   62.1740   33.5440   48.4990 C   0  0  0  0  0  0  0  0  0  0  0  0
   63.4440   32.9930   48.4190 C   0  0  0  0  0  0  0  0  0  0  0  0
   64.2680   32.5280   49.5750 C   0  0  0  0  0  0  0  0  0  0  0  0
   63.7890   32.9580   47.1190 N   0  0  0  0  0  0  0  0  0  0  0  0
   62.7780   33.4650   46.4140 N   0  0  0  0  0  0  0  0  0  0  0  0
   58.4120   30.8580   46.3490 C   0  0  0  0  0  0  0  0  0  0  0  0
   60.6650   34.3500   46.9270 O   0  0  0  0  0  0  0  0  0  0  0  0
   57.4520   30.2770   45.5910 N   0  0  0  0  0  0  0  0  0  0  0  0
   55.2026   29.5949   44.4670 H   0  0  0  0  0  0  0  0  0  0  0  0
   55.3099   30.7749   43.1168 H   0  0  0  0  0  0  0  0  0  0  0  0
   56.3533   29.3127   43.1168 H   0  0  0  0  0  0  0  0  0  0  0  0
   56.9968   32.5626   43.1953 H   0  0  0  0  0  0  0  0  0  0  0  0
   59.1535   34.5596   45.4191 H   0  0  0  0  0  0  0  0  0  0  0  0
   59.8409   33.8678   43.9106 H   0  0  0  0  0  0  0  0  0  0  0  0
   58.1784   34.5479   43.9106 H   0  0  0  0  0  0  0  0  0  0  0  0
   59.6220   32.5410   46.5460 H   0  0  0  0  0  0  0  0  0  0  0  0
   59.2875   30.6280   50.0513 H   0  0  0  0  0  0  0  0  0  0  0  0
   61.0402   30.8639   49.9430 H   0  0  0  0  0  0  0  0  0  0  0  0
   61.3208   34.8200   49.9858 H   0  0  0  0  0  0  0  0  0  0  0  0
   61.9980   33.3130   50.6296 H   0  0  0  0  0  0  0  0  0  0  0  0
   63.7713   32.8083   50.5156 H   0  0  0  0  0  0  0  0  0  0  0  0
   64.3783   31.4345   49.5303 H   0  0  0  0  0  0  0  0  0  0  0  0
   65.2611   32.9988   49.5303 H   0  0  0  0  0  0  0  0  0  0  0  0
   64.6840   32.6030   46.6900 H   0  0  0  0  0  0  0  0  0  0  0  0
   62.7890   33.5560   45.3600 H   0  0  0  0  0  0  0  0  0  0  0  0
  1  2  1  0
  2  3  1  0
  3  4  2  0
  4  5  1  0
  4  6  1  0
  6  7  1  0
  7  8  2  3
  8  9  1  0
  9 10  2  0
  9 11  1  0
 11 12  1  0
 12 13  1  0
 13 14  1  0
 14 15  2  0
 15 16  1  0
 15 17  1  0
 17 18  1  0
 18 19  1  0
 19 20  2  0
  7 21  1  0
 21  2  2  0
 19 14  1  0
  1 22  1  0
  1 23  1  0
  1 24  1  0
  3 25  1  0
  5 26  1  0
  5 27  1  0
  5 28  1  0
  6 29  1  0
 11 30  1  0
 11 31  1  0
 13 32  1  0
 13 33  1  0
 16 34  1  0
 16 35  1  0
 16 36  1  0
 17 37  1  0
 18 38  1  0
M  END
>  <smiles>  (47) 
Cc1cc(C)[nH]c(=NC(=O)CSCc2c(C)[nH][nH]c2=O)n1

>  <score_type>  (47) 
oracle

>  <origin>  (47) 
adg

>  <m_score__min__energy>  (47) 
-7.4900000000000002

>  <m_primary>  (47) 
energy

$$$$
47:0
     RDKit          3D

 41 42  0  0  0  0  0  0  0  0999 V2000
   59.3380   34.2290   44.7190 C   0  0  0  0  0  0  0  0  0  0  0  0
   58.2140   33.2770   44.7110 N   0  0  0  0  0  0  0  0  0  0  0  0
   57.0110   33.9390   45.2410 C   0  0  0  0  0  0  0  0  0  0  0  0
   57.9560   32.7690   43.3440 C   0  0  0  0  0  0  0  0  0  0  0  0
   57.5950   31.2820   43.3640 C   0  0  0  0  0  0  0  0  0  0  0  0
   56.5960   31.0250   44.3940 N   0  0  0  0  0  0  0  0  0  0  0  0
   56.3590   29.7250   44.9400 C   0  0  0  0  0  0  0  0  0  0  0  0
   55.2190   29.1970   44.8200 O   0  0  0  0  0  0  0  0  0  0  0  0
   57.4420   29.0190   45.6710 C   0  0  0  0  0  0  0  0  0  0  0  0
   57.4510   27.6120   45.6820 C   0  0  0  0  0  0  0  0  0  0  0  0
   58.4760   26.9080   46.3150 C   0  0  0  0  0  0  0  0  0  0  0  0
   59.5070   27.5960   46.9540 C   0  0  0  0  0  0  0  0  0  0  0  0
   60.7890   26.7080   47.7560 Cl  0  0  0  0  0  0  0  0  0  0  0  0
   59.5100   28.9920   46.9670 C   0  0  0  0  0  0  0  0  0  0  0  0
   58.4880   29.7170   46.3270 C   0  0  0  0  0  0  0  0  0  0  0  0
   58.4710   31.1510   46.4350 N   0  0  0  0  0  0  0  0  0  0  0  0
   59.4580   31.9100   47.1560 C   0  0  0  0  0  0  0  0  0  0  0  0
   60.8100   31.9050   46.7620 C   0  0  0  0  0  0  0  0  0  0  0  0
   61.7530   32.6630   47.4620 C   0  0  0  0  0  0  0  0  0  0  0  0
   63.0530   32.6490   47.0750 F   0  0  0  0  0  0  0  0  0  0  0  0
   61.3580   33.4420   48.5530 C   0  0  0  0  0  0  0  0  0  0  0  0
   62.2740   34.1770   49.2300 F   0  0  0  0  0  0  0  0  0  0  0  0
   60.0150   33.4660   48.9420 C   0  0  0  0  0  0  0  0  0  0  0  0
   59.6320   34.2270   49.9990 F   0  0  0  0  0  0  0  0  0  0  0  0
   59.0670   32.7090   48.2450 C   0  0  0  0  0  0  0  0  0  0  0  0
   57.7690   32.7420   48.6390 F   0  0  0  0  0  0  0  0  0  0  0  0
   59.6135   34.4623   45.7581 H   0  0  0  0  0  0  0  0  0  0  0  0
   60.2004   33.7824   44.2025 H   0  0  0  0  0  0  0  0  0  0  0  0
   59.0395   35.1532   44.2025 H   0  0  0  0  0  0  0  0  0  0  0  0
   57.0385   33.9239   46.3406 H   0  0  0  0  0  0  0  0  0  0  0  0
   56.9807   34.9808   44.8893 H   0  0  0  0  0  0  0  0  0  0  0  0
   56.1147   33.4071   44.8893 H   0  0  0  0  0  0  0  0  0  0  0  0
   57.1221   33.3346   42.9027 H   0  0  0  0  0  0  0  0  0  0  0  0
   58.8710   32.8968   42.7470 H   0  0  0  0  0  0  0  0  0  0  0  0
   57.1898   30.9924   42.3832 H   0  0  0  0  0  0  0  0  0  0  0  0
   58.4986   30.6941   43.5829 H   0  0  0  0  0  0  0  0  0  0  0  0
   56.6396   27.0600   45.1852 H   0  0  0  0  0  0  0  0  0  0  0  0
   58.4708   25.8080   46.3100 H   0  0  0  0  0  0  0  0  0  0  0  0
   60.3190   29.5303   47.4825 H   0  0  0  0  0  0  0  0  0  0  0  0
   57.6660   31.6590   46.0030 H   0  0  0  0  0  0  0  0  0  0  0  0
   61.1258   31.3012   45.8985 H   0  0  0  0  0  0  0  0  0  0  0  0
  1  2  1  0
  2  3  1  0
  2  4  1  0
  4  5  1  0
  5  6  1  0
  6  7  1  0
  7  8  2  0
  7  9  1  0
  9 10  2  0
 10 11  1  0
 11 12  2  0
 12 13  1  0
 12 14  1  0
 14 15  2  0
 15 16  1  0
 16 17  1  0
 17 18  2  0
 18 19  1  0
 19 20  1  0
 19 21  2  0
 21 22  1  0
 21 23  1  0
 23 24  1  0
 23 25  2  0
 25 26  1  0
 15  9  1  0
 25 17  1  0
  1 27  1  0
  1 28  1  0
  1 29  1  0
  3 30  1  0
  3 31  1  0
  3 32  1  0
  4 33  1  0
  4 34  1  0
  5 35  1  0
  5 36  1  0
 10 37  1  0
 11 38  1  0
 14 39  1  0
 16 40  1  0
 18 41  1  0
M  CHG  1   6  -1
M  END
>  <UniqueID>  (48) 
41

>  <SMILES>  (48) 
CN(C)CC[N-]C(=O)c1ccc(Cl)cc1Nc1cc(F)c(F)c(F)c1F

>  <Energy>  (48) 
47.58084791537026

>  <Genealogy>  (48) 
CN(C)CC[N-]C(=O)c1ccc(Cl)cc1Nc1cc(F)c(F)c(F)c1F (protonated)
CN(C)CC[N-]C(=O)c1ccc(Cl)cc1Nc1cc(F)c(F)c(F)c1F (3D coordinates assigned)
CN(C)CC[N-]C(=O)c1ccc(Cl)cc1Nc1cc(F)c(F)c(F)c1F (optimized conformer: 47.58084791537026 kcal/mol)

>  <smiles>  (48) 
CN(C)CCNC(=O)c1ccc(Cl)cc1Nc1cc(F)c(F)c(F)c1F

>  <score_type>  (48) 
oracle

>  <origin>  (48) 
adg

>  <m_score__min__energy>  (48) 
-8.1799999999999997

>  <m_primary>  (48) 
energy

$$$$
48:0
     RDKit          3D

 39 41  0  0  0  0  0  0  0  0999 V2000
   55.3850   26.5050   45.9680 N   0  0  0  0  0  0  0  0  0  0  0  0
   57.0950   26.2430   45.9370 S   0  0  0  0  0  0  0  0  0  0  0  0
   57.5640   25.8240   47.3010 O   0  0  0  0  0  0  0  0  0  0  0  0
   57.3980   25.1560   44.9460 O   0  0  0  0  0  0  0  0  0  0  0  0
   57.9150   27.7280   45.4670 C   0  0  0  0  0  0  0  0  0  0  0  0
   59.2970   27.7310   45.2390 C   0  0  0  0  0  0  0  0  0  0  0  0
   59.9470   28.9150   44.8860 C   0  0  0  0  0  0  0  0  0  0  0  0
   59.2220   30.1030   44.7540 C   0  0  0  0  0  0  0  0  0  0  0  0
   57.8320   30.1090   44.9630 C   0  0  0  0  0  0  0  0  0  0  0  0
   57.0520   31.3090   44.8660 N   0  0  0  0  0  0  0  0  0  0  0  0
   57.4090   32.6050   45.3670 C   0  0  0  0  0  0  0  0  0  0  0  0
   56.6590   33.5960   45.1500 O   0  0  0  0  0  0  0  0  0  0  0  0
   58.6320   32.7720   46.1880 C   0  0  0  0  0  0  0  0  0  0  0  0
   59.6510   33.6510   45.7800 C   0  0  0  0  0  0  0  0  0  0  0  0
   60.8060   33.8070   46.5520 C   0  0  0  0  0  0  0  0  0  0  0  0
   60.9680   33.0910   47.7500 C   0  0  0  0  0  0  0  0  0  0  0  0
   62.1940   33.2590   48.5700 C   0  0  0  0  0  0  0  0  0  0  0  0
   62.1830   34.0780   49.7160 C   0  0  0  0  0  0  0  0  0  0  0  0
   63.3390   34.2340   50.4860 C   0  0  0  0  0  0  0  0  0  0  0  0
   64.5170   33.5760   50.1250 C   0  0  0  0  0  0  0  0  0  0  0  0
   64.5420   32.7610   48.9910 C   0  0  0  0  0  0  0  0  0  0  0  0
   63.3880   32.6010   48.2170 C   0  0  0  0  0  0  0  0  0  0  0  0
   59.9490   32.2130   48.1580 C   0  0  0  0  0  0  0  0  0  0  0  0
   58.7950   32.0540   47.3850 C   0  0  0  0  0  0  0  0  0  0  0  0
   57.1900   28.9220   45.3420 C   0  0  0  0  0  0  0  0  0  0  0  0
   55.1440   27.0500   45.1100 H   0  0  0  0  0  0  0  0  0  0  0  0
   59.8715   26.7982   45.3383 H   0  0  0  0  0  0  0  0  0  0  0  0
   61.0330   28.9131   44.7112 H   0  0  0  0  0  0  0  0  0  0  0  0
   59.7406   31.0353   44.4859 H   0  0  0  0  0  0  0  0  0  0  0  0
   59.5384   34.2205   44.8457 H   0  0  0  0  0  0  0  0  0  0  0  0
   61.5953   34.4967   46.2184 H   0  0  0  0  0  0  0  0  0  0  0  0
   61.2585   34.5982   50.0069 H   0  0  0  0  0  0  0  0  0  0  0  0
   63.3210   34.8766   51.3786 H   0  0  0  0  0  0  0  0  0  0  0  0
   65.4249   33.6996   50.7337 H   0  0  0  0  0  0  0  0  0  0  0  0
   65.4704   32.2443   48.7062 H   0  0  0  0  0  0  0  0  0  0  0  0
   63.4133   31.9564   47.3260 H   0  0  0  0  0  0  0  0  0  0  0  0
   60.0605   31.6459   49.0939 H   0  0  0  0  0  0  0  0  0  0  0  0
   58.0078   31.3609   47.7166 H   0  0  0  0  0  0  0  0  0  0  0  0
   56.1085   28.9270   45.5431 H   0  0  0  0  0  0  0  0  0  0  0  0
  1  2  1  0
  2  3  2  0
  2  4  2  0
  2  5  1  0
  5  6  2  0
  6  7  1  0
  7  8  2  0
  8  9  1  0
  9 10  1  0
 10 11  1  0
 11 12  2  0
 11 13  1  0
 13 14  2  0
 14 15  1  0
 15 16  2  0
 16 17  1  0
 17 18  2  0
 18 19  1  0
 19 20  2  0
 20 21  1  0
 21 22  2  0
 16 23  1  0
 23 24  2  0
  9 25  2  0
 25  5  1  0
 24 13  1  0
 22 17  1  0
  1 26  1  0
  6 27  1  0
  7 28  1  0
  8 29  1  0
 14 30  1  0
 15 31  1  0
 18 32  1  0
 19 33  1  0
 20 34  1  0
 21 35  1  0
 22 36  1  0
 23 37  1  0
 24 38  1  0
 25 39  1  0
M  CHG  2   1  -1  10  -1
M  END
>  <UniqueID>  (49) 
42

>  <SMILES>  (49) 
[NH-]S(=O)(=O)c1cccc([N-]C(=O)c2ccc(-c3ccccc3)cc2)c1

>  <Energy>  (49) 
51.492851179902274

>  <Genealogy>  (49) 
[NH-]S(=O)(=O)c1cccc([N-]C(=O)c2ccc(-c3ccccc3)cc2)c1 (protonated)
[NH-]S(=O)(=O)c1cccc([N-]C(=O)c2ccc(-c3ccccc3)cc2)c1 (3D coordinates assigned)
[NH-]S(=O)(=O)c1cccc([N-]C(=O)c2ccc(-c3ccccc3)cc2)c1 (optimized conformer: 51.492851179902274 kcal/mol)

>  <smiles>  (49) 
NS(=O)(=O)c1cccc(NC(=O)c2ccc(-c3ccccc3)cc2)c1

>  <score_type>  (49) 
oracle

>  <origin>  (49) 
adg

>  <m_score__min__energy>  (49) 
-13.06

>  <m_primary>  (49) 
energy

$$$$
49:0
     RDKit          3D

 39 41  0  0  0  0  0  0  0  0999 V2000
   60.0610   30.6750   51.2010 C   0  0  0  0  0  0  0  0  0  0  0  0
   58.5070   30.6690   50.3290 S   0  0  0  0  0  0  0  0  0  0  0  0
   57.4030   30.2140   51.2420 O   0  0  0  0  0  0  0  0  0  0  0  0
   58.6170   29.7170   49.1700 O   0  0  0  0  0  0  0  0  0  0  0  0
   58.1570   32.2570   49.7300 N   0  0  0  0  0  0  0  0  0  0  0  0
   59.0680   32.9350   48.8520 C   0  0  0  0  0  0  0  0  0  0  0  0
   60.2030   33.5630   49.3880 C   0  0  0  0  0  0  0  0  0  0  0  0
   61.1130   34.2180   48.5560 C   0  0  0  0  0  0  0  0  0  0  0  0
   60.9030   34.2550   47.1780 C   0  0  0  0  0  0  0  0  0  0  0  0
   59.7830   33.6310   46.6210 C   0  0  0  0  0  0  0  0  0  0  0  0
   59.6020   33.6500   45.2730 N   0  0  0  0  0  0  0  0  0  0  0  0
   58.5490   33.0310   44.6810 C   0  0  0  0  0  0  0  0  0  0  0  0
   57.6120   32.3380   45.4520 C   0  0  0  0  0  0  0  0  0  0  0  0
   56.5370   31.6580   44.7890 N   0  0  0  0  0  0  0  0  0  0  0  0
   56.5290   29.9720   44.3830 S   0  0  0  0  0  0  0  0  0  0  0  0
   56.5920   29.8230   42.8900 O   0  0  0  0  0  0  0  0  0  0  0  0
   55.2570   29.3460   44.8790 O   0  0  0  0  0  0  0  0  0  0  0  0
   57.9380   29.1850   45.0940 C   0  0  0  0  0  0  0  0  0  0  0  0
   59.2190   29.4910   44.6160 C   0  0  0  0  0  0  0  0  0  0  0  0
   60.3480   28.8900   45.1880 C   0  0  0  0  0  0  0  0  0  0  0  0
   60.1970   27.9840   46.2410 C   0  0  0  0  0  0  0  0  0  0  0  0
   58.9210   27.6710   46.7180 C   0  0  0  0  0  0  0  0  0  0  0  0
   57.7900   28.2680   46.1460 C   0  0  0  0  0  0  0  0  0  0  0  0
   57.7630   32.3200   46.8470 C   0  0  0  0  0  0  0  0  0  0  0  0
   58.8540   32.9660   47.4530 C   0  0  0  0  0  0  0  0  0  0  0  0
   59.8733   30.6743   52.2849 H   0  0  0  0  0  0  0  0  0  0  0  0
   60.6380   29.7791   50.9282 H   0  0  0  0  0  0  0  0  0  0  0  0
   60.6310   31.5754   50.9282 H   0  0  0  0  0  0  0  0  0  0  0  0
   57.2040   32.6480   49.8990 H   0  0  0  0  0  0  0  0  0  0  0  0
   60.3772   33.5389   50.4738 H   0  0  0  0  0  0  0  0  0  0  0  0
   61.9984   34.7064   48.9889 H   0  0  0  0  0  0  0  0  0  0  0  0
   61.6205   34.7766   46.5276 H   0  0  0  0  0  0  0  0  0  0  0  0
   58.4326   33.0751   43.5881 H   0  0  0  0  0  0  0  0  0  0  0  0
   59.3388   30.2058   43.7885 H   0  0  0  0  0  0  0  0  0  0  0  0
   61.3520   29.1311   44.8086 H   0  0  0  0  0  0  0  0  0  0  0  0
   61.0832   27.5166   46.6950 H   0  0  0  0  0  0  0  0  0  0  0  0
   58.8046   26.9543   47.5443 H   0  0  0  0  0  0  0  0  0  0  0  0
   56.7866   28.0181   46.5212 H   0  0  0  0  0  0  0  0  0  0  0  0
   57.0227   31.7969   47.4701 H   0  0  0  0  0  0  0  0  0  0  0  0
  1  2  1  0
  2  3  2  0
  2  4  2  0
  2  5  1  0
  5  6  1  0
  6  7  2  0
  7  8  1  0
  8  9  2  0
  9 10  1  0
 10 11  2  0
 11 12  1  0
 12 13  2  0
 13 14  1  0
 14 15  1  0
 15 16  2  0
 15 17  2  0
 15 18  1  0
 18 19  2  0
 19 20  1  0
 20 21  2  0
 21 22  1  0
 22 23  2  0
 13 24  1  0
 24 25  2  0
 25  6  1  0
 25 10  1  0
 23 18  1  0
  1 26  1  0
  1 27  1  0
  1 28  1  0
  5 29  1  0
  7 30  1  0
  8 31  1  0
  9 32  1  0
 12 33  1  0
 19 34  1  0
 20 35  1  0
 21 36  1  0
 22 37  1  0
 23 38  1  0
 24 39  1  0
M  CHG  1  14  -1
M  END
>  <UniqueID>  (50) 
43

>  <SMILES>  (50) 
CS(=O)(=O)Nc1cccc2ncc([N-]S(=O)(=O)c3ccccc3)cc12

>  <Energy>  (50) 
48.175193385917055

>  <Genealogy>  (50) 
CS(=O)(=O)Nc1cccc2ncc([N-]S(=O)(=O)c3ccccc3)cc12 (protonated)
CS(=O)(=O)Nc1cccc2ncc([N-]S(=O)(=O)c3ccccc3)cc12 (3D coordinates assigned)
CS(=O)(=O)Nc1cccc2ncc([N-]S(=O)(=O)c3ccccc3)cc12 (optimized conformer: 48.175193385917055 kcal/mol)

>  <smiles>  (50) 
CS(=O)(=O)Nc1cccc2ncc(NS(=O)(=O)c3ccccc3)cc12

>  <score_type>  (50) 
oracle

>  <origin>  (50) 
adg

>  <m_score__min__energy>  (50) 
-10.73

>  <m_primary>  (50) 
energy

$$$$
50:0
     RDKit          3D

 32 32  0  0  0  0  0  0  0  0999 V2000
   56.1527   31.8616   45.7078 H   0  0  0  0  0  0  0  0  0  0  0  0
   57.0140   32.0060   45.0390 C   0  0  0  0  0  0  0  0  0  0  0  0
   57.0220   31.3330   43.8730 C   0  0  0  0  0  0  0  0  0  0  0  0
   57.6770   31.8790   42.7050 C   0  0  0  0  0  0  0  0  0  0  0  0
   58.2000   32.3140   41.7680 N   0  0  0  0  0  0  0  0  0  0  0  0
   56.2320   30.0830   43.7400 C   0  0  0  0  0  0  0  0  0  0  0  0
   55.8580   29.7120   42.5960 O   0  0  0  0  0  0  0  0  0  0  0  0
   55.8540   29.2820   44.8690 N   0  0  0  0  0  0  0  0  0  0  0  0
   56.6700   28.2460   45.4890 C   0  0  0  0  0  0  0  0  0  0  0  0
   56.0448   27.3671   45.7050 H   0  0  0  0  0  0  0  0  0  0  0  0
   57.0997   28.6297   46.4261 H   0  0  0  0  0  0  0  0  0  0  0  0
   57.7990   27.8470   44.5360 C   0  0  0  0  0  0  0  0  0  0  0  0
   57.9036   28.6274   43.7678 H   0  0  0  0  0  0  0  0  0  0  0  0
   57.5337   26.8751   44.0943 H   0  0  0  0  0  0  0  0  0  0  0  0
   59.1470   27.6790   45.2530 C   0  0  0  0  0  0  0  0  0  0  0  0
   59.5102   26.6547   45.0832 H   0  0  0  0  0  0  0  0  0  0  0  0
   58.9813   27.8812   46.3215 H   0  0  0  0  0  0  0  0  0  0  0  0
   60.2070   28.6610   44.7580 C   0  0  0  0  0  0  0  0  0  0  0  0
   60.7080   29.1251   45.6203 H   0  0  0  0  0  0  0  0  0  0  0  0
   60.9486   28.1237   44.1486 H   0  0  0  0  0  0  0  0  0  0  0  0
   59.7278   29.4414   44.1486 H   0  0  0  0  0  0  0  0  0  0  0  0
   58.0870   32.9290   45.4840 C   0  0  0  0  0  0  0  0  0  0  0  0
   58.2260   34.1980   44.8920 C   0  0  0  0  0  0  0  0  0  0  0  0
   57.5176   34.5184   44.1139 H   0  0  0  0  0  0  0  0  0  0  0  0
   59.2580   35.0540   45.2860 C   0  0  0  0  0  0  0  0  0  0  0  0
   59.3513   36.0496   44.8277 H   0  0  0  0  0  0  0  0  0  0  0  0
   60.1700   34.6470   46.2600 C   0  0  0  0  0  0  0  0  0  0  0  0
   60.9791   35.3238   46.5721 H   0  0  0  0  0  0  0  0  0  0  0  0
   60.0570   33.3820   46.8390 C   0  0  0  0  0  0  0  0  0  0  0  0
   60.7812   33.0634   47.6032 H   0  0  0  0  0  0  0  0  0  0  0  0
   59.0260   32.5160   46.4520 C   0  0  0  0  0  0  0  0  0  0  0  0
   58.9180   30.7970   47.2990 Br  0  0  0  0  0  0  0  0  0  0  0  0
  1  2  1  0
  2  3  2  0
  3  4  1  0
  4  5  3  0
  3  6  1  0
  6  7  2  0
  6  8  1  0
  8  9  1  0
  9 10  1  0
  9 11  1  0
  9 12  1  0
 12 13  1  0
 12 14  1  0
 12 15  1  0
 15 16  1  0
 15 17  1  0
 15 18  1  0
 18 19  1  0
 18 20  1  0
 18 21  1  0
  2 22  1  0
 22 23  2  0
 23 24  1  0
 23 25  1  0
 25 26  1  0
 25 27  2  0
 27 28  1  0
 27 29  1  0
 29 30  1  0
 29 31  2  0
 31 32  1  0
 31 22  1  0
M  CHG  1   8  -1
M  END
>  <UniqueID>  (51) 
44

>  <SMILES>  (51) 
CCCC[N-]C(=O)/C(C#N)=C/c1ccccc1Br

>  <Energy>  (51) 
32.700496297906234

>  <Genealogy>  (51) 
CCCC[N-]C(=O)C(C#N)=Cc1ccccc1Br (protonated)
CCCC[N-]C(=O)/C(C#N)=C/c1ccccc1Br (cis-trans isomerization)
CCCC[N-]C(=O)/C(C#N)=C/c1ccccc1Br (3D coordinates assigned)
CCCC[N-]C(=O)/C(C#N)=C/c1ccccc1Br (optimized conformer: 32.700496297906234 kcal/mol)

>  <smiles>  (51) 
CCCCNC(=O)C(C#N)=Cc1ccccc1Br

>  <score_type>  (51) 
oracle

>  <origin>  (51) 
adg

>  <m_score__min__energy>  (51) 
-8.6799999999999997

>  <m_primary>  (51) 
energy

$$$$
51:0
     RDKit          3D

 38 39  0  0  0  0  0  0  0  0999 V2000
   58.9000   34.9540   45.2980 C   0  0  0  0  0  0  0  0  0  0  0  0
   59.8880   34.2680   46.2410 C   0  0  0  0  0  0  0  0  0  0  0  0
   59.2060   33.3010   47.2240 C   0  0  0  0  0  0  0  0  0  0  0  0
   57.8530   32.7360   46.7360 C   0  0  0  0  0  0  0  0  0  0  0  0
   57.9410   31.4130   46.0920 N   0  0  0  0  0  0  0  0  0  0  0  0
   58.8020   30.3760   46.6120 C   0  0  0  0  0  0  0  0  0  0  0  0
   59.4840   29.4920   45.7600 C   0  0  0  0  0  0  0  0  0  0  0  0
   60.2810   28.4800   46.2960 C   0  0  0  0  0  0  0  0  0  0  0  0
   60.3760   28.3450   47.6810 C   0  0  0  0  0  0  0  0  0  0  0  0
   59.6900   29.1900   48.4990 N   0  0  0  0  0  0  0  0  0  0  0  0
   58.9080   30.1840   47.9980 C   0  0  0  0  0  0  0  0  0  0  0  0
   57.6240   31.3480   44.6860 C   0  0  0  0  0  0  0  0  0  0  0  0
   58.2440   32.2490   43.8020 C   0  0  0  0  0  0  0  0  0  0  0  0
   57.9400   32.2320   42.4390 C   0  0  0  0  0  0  0  0  0  0  0  0
   57.0120   31.3170   41.9430 C   0  0  0  0  0  0  0  0  0  0  0  0
   56.3880   30.4150   42.8070 C   0  0  0  0  0  0  0  0  0  0  0  0
   56.6870   30.4180   44.1790 C   0  0  0  0  0  0  0  0  0  0  0  0
   56.0480   29.4610   45.0290 N   0  0  0  0  0  0  0  0  0  0  0  0
   58.1374   35.4835   45.8879 H   0  0  0  0  0  0  0  0  0  0  0  0
   59.4380   35.6739   44.6637 H   0  0  0  0  0  0  0  0  0  0  0  0
   58.4135   34.1984   44.6637 H   0  0  0  0  0  0  0  0  0  0  0  0
   60.6130   33.7017   45.6380 H   0  0  0  0  0  0  0  0  0  0  0  0
   60.3754   35.0540   46.8365 H   0  0  0  0  0  0  0  0  0  0  0  0
   59.8869   32.4555   47.4016 H   0  0  0  0  0  0  0  0  0  0  0  0
   58.9918   33.8809   48.1338 H   0  0  0  0  0  0  0  0  0  0  0  0
   57.1824   32.6520   47.6039 H   0  0  0  0  0  0  0  0  0  0  0  0
   57.4800   33.4328   45.9709 H   0  0  0  0  0  0  0  0  0  0  0  0
   59.3897   29.5976   44.6691 H   0  0  0  0  0  0  0  0  0  0  0  0
   60.8293   27.7950   45.6325 H   0  0  0  0  0  0  0  0  0  0  0  0
   61.0065   27.5541   48.1133 H   0  0  0  0  0  0  0  0  0  0  0  0
   59.7640   29.0700   49.5330 H   0  0  0  0  0  0  0  0  0  0  0  0
   58.3548   30.8420   48.6843 H   0  0  0  0  0  0  0  0  0  0  0  0
   58.9755   32.9742   44.1878 H   0  0  0  0  0  0  0  0  0  0  0  0
   58.4326   32.9404   41.7567 H   0  0  0  0  0  0  0  0  0  0  0  0
   56.7713   31.3058   40.8697 H   0  0  0  0  0  0  0  0  0  0  0  0
   55.6562   29.6962   42.4097 H   0  0  0  0  0  0  0  0  0  0  0  0
   55.7050   29.7180   45.9760 H   0  0  0  0  0  0  0  0  0  0  0  0
   55.9400   28.4670   44.7280 H   0  0  0  0  0  0  0  0  0  0  0  0
  1  2  1  0
  2  3  1  0
  3  4  1  0
  4  5  1  0
  5  6  1  0
  6  7  2  0
  7  8  1  0
  8  9  2  0
  9 10  1  0
 10 11  2  0
  5 12  1  0
 12 13  2  0
 13 14  1  0
 14 15  2  0
 15 16  1  0
 16 17  2  0
 17 18  1  0
 11  6  1  0
 17 12  1  0
  1 19  1  0
  1 20  1  0
  1 21  1  0
  2 22  1  0
  2 23  1  0
  3 24  1  0
  3 25  1  0
  4 26  1  0
  4 27  1  0
  7 28  1  0
  8 29  1  0
  9 30  1  0
 10 31  1  0
 11 32  1  0
 13 33  1  0
 14 34  1  0
 15 35  1  0
 16 36  1  0
 18 37  1  0
 18 38  1  0
M  CHG  1  10   1
M  END
>  <UniqueID>  (52) 
45

>  <SMILES>  (52) 
CCCCN(c1ccc[nH+]c1)c1ccccc1N

>  <Energy>  (52) 
45.72079776064229

>  <Genealogy>  (52) 
CCCCN(c1ccc[nH+]c1)c1ccccc1N (protonated)
CCCCN(c1ccc[nH+]c1)c1ccccc1N (3D coordinates assigned)
CCCCN(c1ccc[nH+]c1)c1ccccc1N (optimized conformer: 45.72079776064229 kcal/mol)

>  <smiles>  (52) 
CCCCN(c1cccnc1)c1ccccc1N

>  <score_type>  (52) 
oracle

>  <origin>  (52) 
adg

>  <m_score__min__energy>  (52) 
-4.7000000000000002

>  <m_primary>  (52) 
energy

$$$$
52:0
     RDKit          3D

 23 24  0  0  0  0  0  0  0  0999 V2000
   55.1910   29.7210   43.7360 C   0  0  0  0  0  0  0  0  0  0  0  0
   55.5270   28.9680   44.9350 N   0  0  0  0  0  0  0  0  0  0  0  0
   56.8770   28.7640   45.3680 C   0  0  0  0  0  0  0  0  0  0  0  0
   57.3240   27.5930   45.5050 O   0  0  0  0  0  0  0  0  0  0  0  0
   57.7520   29.9160   45.6560 C   0  0  0  0  0  0  0  0  0  0  0  0
   58.9540   29.7600   46.3630 C   0  0  0  0  0  0  0  0  0  0  0  0
   59.7580   30.8720   46.6170 C   0  0  0  0  0  0  0  0  0  0  0  0
   59.3660   32.1440   46.1660 C   0  0  0  0  0  0  0  0  0  0  0  0
   60.1430   33.3000   46.3980 C   0  0  0  0  0  0  0  0  0  0  0  0
   61.6730   33.2470   47.2710 Cl  0  0  0  0  0  0  0  0  0  0  0  0
   59.6980   34.5410   45.9240 C   0  0  0  0  0  0  0  0  0  0  0  0
   58.4940   34.6420   45.2250 C   0  0  0  0  0  0  0  0  0  0  0  0
   57.7190   33.5050   44.9930 C   0  0  0  0  0  0  0  0  0  0  0  0
   58.1470   32.2570   45.4580 C   0  0  0  0  0  0  0  0  0  0  0  0
   57.3860   31.1540   45.2270 N   0  0  0  0  0  0  0  0  0  0  0  0
   54.7581   30.6911   44.0215 H   0  0  0  0  0  0  0  0  0  0  0  0
   56.1006   29.8865   43.1400 H   0  0  0  0  0  0  0  0  0  0  0  0
   54.4602   29.1546   43.1400 H   0  0  0  0  0  0  0  0  0  0  0  0
   59.2615   28.7645   46.7158 H   0  0  0  0  0  0  0  0  0  0  0  0
   60.7006   30.7527   47.1714 H   0  0  0  0  0  0  0  0  0  0  0  0
   60.3020   35.4426   46.1040 H   0  0  0  0  0  0  0  0  0  0  0  0
   58.1550   35.6212   44.8558 H   0  0  0  0  0  0  0  0  0  0  0  0
   56.7699   33.5902   44.4435 H   0  0  0  0  0  0  0  0  0  0  0  0
  1  2  1  0
  2  3  1  0
  3  4  2  0
  3  5  1  0
  5  6  2  0
  6  7  1  0
  7  8  2  0
  8  9  1  0
  9 10  1  0
  9 11  2  0
 11 12  1  0
 12 13  2  0
 13 14  1  0
 14 15  2  0
 15  5  1  0
 14  8  1  0
  1 16  1  0
  1 17  1  0
  1 18  1  0
  6 19  1  0
  7 20  1  0
 11 21  1  0
 12 22  1  0
 13 23  1  0
M  CHG  1   2  -1
M  END
>  <UniqueID>  (53) 
46

>  <SMILES>  (53) 
C[N-]C(=O)c1ccc2c(Cl)cccc2n1

>  <Energy>  (53) 
25.54743906481271

>  <Genealogy>  (53) 
C[N-]C(=O)c1ccc2c(Cl)cccc2n1 (protonated)
C[N-]C(=O)c1ccc2c(Cl)cccc2n1 (3D coordinates assigned)
C[N-]C(=O)c1ccc2c(Cl)cccc2n1 (optimized conformer: 25.54743906481271 kcal/mol)

>  <smiles>  (53) 
CNC(=O)c1ccc2c(Cl)cccc2n1

>  <score_type>  (53) 
oracle

>  <origin>  (53) 
adg

>  <m_score__min__energy>  (53) 
-8.7899999999999991

>  <m_primary>  (53) 
energy

$$$$
53:0
     RDKit          3D

 49 51  0  0  0  0  0  0  0  0999 V2000
   59.8470   25.3780   45.2860 H   0  0  0  0  0  0  0  0  0  0  0  0
   59.0380   24.8070   45.6220 N   0  0  0  0  0  0  0  0  0  0  0  0
   57.8400   25.2900   45.7330 C   0  0  0  0  0  0  0  0  0  0  0  0
   56.7700   24.4540   46.0910 C   0  0  0  0  0  0  0  0  0  0  0  0
   56.9421   23.3839   46.2788 H   0  0  0  0  0  0  0  0  0  0  0  0
   55.4850   24.9910   46.2070 C   0  0  0  0  0  0  0  0  0  0  0  0
   54.6413   24.3406   46.4809 H   0  0  0  0  0  0  0  0  0  0  0  0
   55.2750   26.3160   45.9820 N   0  0  0  0  0  0  0  0  0  0  0  0
   56.2910   27.1500   45.6340 C   0  0  0  0  0  0  0  0  0  0  0  0
   56.0873   28.2172   45.4619 H   0  0  0  0  0  0  0  0  0  0  0  0
   57.5980   26.6580   45.4930 C   0  0  0  0  0  0  0  0  0  0  0  0
   58.8990   27.7420   44.9770 S   0  0  0  0  0  0  0  0  0  0  0  0
   59.1720   27.5160   43.5150 O   0  0  0  0  0  0  0  0  0  0  0  0
   60.1500   27.4530   45.7620 O   0  0  0  0  0  0  0  0  0  0  0  0
   58.4040   29.3920   45.2500 N   0  0  0  0  0  0  0  0  0  0  0  0
   59.3950   30.0830   46.0950 C   0  0  0  0  0  0  0  0  0  0  0  0
   59.6040   29.4698   46.9840 H   0  0  0  0  0  0  0  0  0  0  0  0
   60.3171   30.2327   45.5143 H   0  0  0  0  0  0  0  0  0  0  0  0
   58.8550   31.4580   46.5410 C   0  0  0  0  0  0  0  0  0  0  0  0
   58.4707   31.3736   47.5682 H   0  0  0  0  0  0  0  0  0  0  0  0
   59.6798   32.1838   46.4862 H   0  0  0  0  0  0  0  0  0  0  0  0
   57.7170   31.9530   45.6200 C   0  0  0  0  0  0  0  0  0  0  0  0
   56.7940   31.4227   45.8973 H   0  0  0  0  0  0  0  0  0  0  0  0
   57.4460   33.4250   45.8130 C   0  0  0  0  0  0  0  0  0  0  0  0
   56.6420   33.8010   46.7100 O   0  0  0  0  0  0  0  0  0  0  0  0
   58.0510   34.4140   44.9640 N   0  0  0  0  0  0  0  0  0  0  0  0
   59.2810   35.1470   45.2700 C   0  0  0  0  0  0  0  0  0  0  0  0
   59.9599   35.0774   44.4073 H   0  0  0  0  0  0  0  0  0  0  0  0
   59.0104   36.1923   45.4800 H   0  0  0  0  0  0  0  0  0  0  0  0
   59.9800   34.5940   46.4850 C   0  0  0  0  0  0  0  0  0  0  0  0
   61.1820   33.8780   46.3450 C   0  0  0  0  0  0  0  0  0  0  0  0
   61.6427   33.7687   45.3521 H   0  0  0  0  0  0  0  0  0  0  0  0
   61.7940   33.3040   47.4650 C   0  0  0  0  0  0  0  0  0  0  0  0
   62.7233   32.7274   47.3475 H   0  0  0  0  0  0  0  0  0  0  0  0
   61.2230   33.4630   48.7410 C   0  0  0  0  0  0  0  0  0  0  0  0
   61.8530   32.8260   49.9470 C   0  0  0  0  0  0  0  0  0  0  0  0
   61.4213   33.2625   50.8598 H   0  0  0  0  0  0  0  0  0  0  0  0
   61.6609   31.7430   49.9321 H   0  0  0  0  0  0  0  0  0  0  0  0
   62.9380   33.0061   49.9321 H   0  0  0  0  0  0  0  0  0  0  0  0
   60.0300   34.1890   48.8820 C   0  0  0  0  0  0  0  0  0  0  0  0
   59.5753   34.3091   49.8764 H   0  0  0  0  0  0  0  0  0  0  0  0
   59.4190   34.7590   47.7640 C   0  0  0  0  0  0  0  0  0  0  0  0
   58.4932   35.3407   47.8840 H   0  0  0  0  0  0  0  0  0  0  0  0
   58.0380   31.6230   44.1560 C   0  0  0  0  0  0  0  0  0  0  0  0
   57.2075   31.9636   43.5201 H   0  0  0  0  0  0  0  0  0  0  0  0
   58.9713   32.1346   43.8781 H   0  0  0  0  0  0  0  0  0  0  0  0
   58.2340   30.0970   43.9600 C   0  0  0  0  0  0  0  0  0  0  0  0
   57.3520   29.6885   43.4451 H   0  0  0  0  0  0  0  0  0  0  0  0
   59.1467   29.9443   43.3653 H   0  0  0  0  0  0  0  0  0  0  0  0
  1  2  1  0
  2  3  2  0
  3  4  1  0
  4  5  1  0
  4  6  2  0
  6  7  1  0
  6  8  1  0
  8  9  1  0
  9 10  1  0
  9 11  2  0
 11 12  1  0
 12 13  2  0
 12 14  2  0
 12 15  1  0
 15 16  1  0
 16 17  1  0
 16 18  1  0
 16 19  1  0
 19 20  1  0
 19 21  1  0
 19 22  1  0
 22 23  1  0
 22 24  1  0
 24 25  2  0
 24 26  1  0
 26 27  1  0
 27 28  1  0
 27 29  1  0
 27 30  1  0
 30 31  2  0
 31 32  1  0
 31 33  1  0
 33 34  1  0
 33 35  2  0
 35 36  1  0
 36 37  1  0
 36 38  1  0
 36 39  1  0
 35 40  1  0
 40 41  1  0
 40 42  2  0
 42 43  1  0
 22 44  1  0
 44 45  1  0
 44 46  1  0
 44 47  1  0
 47 48  1  0
 47 49  1  0
 11  3  1  0
 47 15  1  0
 42 30  1  0
M  CHG  2   8  -1  26  -1
M  END
>  <UniqueID>  (54) 
47

>  <SMILES>  (54) 
[H]/N=c1\cc[n-]cc1S(=O)(=O)N1CCC(C(=O)[N-]Cc2ccc(C)cc2)CC1

>  <Energy>  (54) 
57.17058574339373

>  <Genealogy>  (54) 
Cc1ccc(C[N-]C(=O)C2CCN(S(=O)(=O)c3c[n-]ccc3=N)CC2)cc1 (protonated)
[H]/N=c1\cc[n-]cc1S(=O)(=O)N1CCC(C(=O)[N-]Cc2ccc(C)cc2)CC1 (cis-trans isomerization)
[H]/N=c1\cc[n-]cc1S(=O)(=O)N1CCC(C(=O)[N-]Cc2ccc(C)cc2)CC1 (3D coordinates assigned)
[H]/N=c1\cc[n-]cc1S(=O)(=O)N1CCC(C(=O)[N-]Cc2ccc(C)cc2)CC1 (nonaromatic ring conformer: 57.17058574339373 kcal/mol)

>  <smiles>  (54) 
Cc1ccc(CNC(=O)C2CCN(S(=O)(=O)c3c[nH]ccc3=N)CC2)cc1

>  <score_type>  (54) 
oracle

>  <origin>  (54) 
adg

>  <m_score__min__energy>  (54) 
-11.74

>  <m_primary>  (54) 
energy

$$$$
54:0
     RDKit          3D

 33 35  0  0  0  0  0  0  0  0999 V2000
   57.3750   26.2750   45.7210 O   0  0  0  0  0  0  0  0  0  0  0  0
   56.4600   27.1410   45.7230 C   0  0  0  0  0  0  0  0  0  0  0  0
   55.1560   26.7400   45.9870 O   0  0  0  0  0  0  0  0  0  0  0  0
   56.7710   28.5540   45.3950 C   0  0  0  0  0  0  0  0  0  0  0  0
   55.9270   29.2550   44.5190 C   0  0  0  0  0  0  0  0  0  0  0  0
   56.1290   30.5740   44.2760 N   0  0  0  0  0  0  0  0  0  0  0  0
   57.1490   31.2430   44.8670 C   0  0  0  0  0  0  0  0  0  0  0  0
   57.3980   32.9790   44.5220 S   0  0  0  0  0  0  0  0  0  0  0  0
   58.4800   33.1890   45.9360 C   0  0  0  0  0  0  0  0  0  0  0  0
   57.9830   33.0090   47.2320 C   0  0  0  0  0  0  0  0  0  0  0  0
   58.8290   33.1640   48.3350 C   0  0  0  0  0  0  0  0  0  0  0  0
   60.1730   33.5030   48.1440 C   0  0  0  0  0  0  0  0  0  0  0  0
   61.2340   33.6970   49.5270 Cl  0  0  0  0  0  0  0  0  0  0  0  0
   60.6700   33.6870   46.8490 C   0  0  0  0  0  0  0  0  0  0  0  0
   59.8250   33.5310   45.7450 C   0  0  0  0  0  0  0  0  0  0  0  0
   57.9960   30.5910   45.7000 N   0  0  0  0  0  0  0  0  0  0  0  0
   57.8510   29.2660   45.9750 C   0  0  0  0  0  0  0  0  0  0  0  0
   58.8740   28.6260   46.8250 C   0  0  0  0  0  0  0  0  0  0  0  0
   59.7530   27.6800   46.2710 C   0  0  0  0  0  0  0  0  0  0  0  0
   60.6990   27.0410   47.0770 C   0  0  0  0  0  0  0  0  0  0  0  0
   60.7640   27.3260   48.4430 C   0  0  0  0  0  0  0  0  0  0  0  0
   59.8780   28.2480   49.0070 C   0  0  0  0  0  0  0  0  0  0  0  0
   58.9300   28.8910   48.2050 C   0  0  0  0  0  0  0  0  0  0  0  0
   55.0954   28.7304   44.0259 H   0  0  0  0  0  0  0  0  0  0  0  0
   56.9258   32.7453   47.3833 H   0  0  0  0  0  0  0  0  0  0  0  0
   58.4376   33.0194   49.3528 H   0  0  0  0  0  0  0  0  0  0  0  0
   61.7263   33.9546   46.6988 H   0  0  0  0  0  0  0  0  0  0  0  0
   60.2165   33.6768   44.7274 H   0  0  0  0  0  0  0  0  0  0  0  0
   59.6962   27.4415   45.1987 H   0  0  0  0  0  0  0  0  0  0  0  0
   61.3940   26.3120   46.6348 H   0  0  0  0  0  0  0  0  0  0  0  0
   61.5123   26.8249   49.0746 H   0  0  0  0  0  0  0  0  0  0  0  0
   59.9265   28.4682   50.0836 H   0  0  0  0  0  0  0  0  0  0  0  0
   58.2258   29.6063   48.6549 H   0  0  0  0  0  0  0  0  0  0  0  0
  1  2  2  0
  2  3  1  0
  2  4  1  0
  4  5  2  0
  5  6  1  0
  6  7  2  0
  7  8  1  0
  8  9  1  0
  9 10  2  0
 10 11  1  0
 11 12  2  0
 12 13  1  0
 12 14  1  0
 14 15  2  0
  7 16  1  0
 16 17  2  0
 17 18  1  0
 18 19  2  0
 19 20  1  0
 20 21  2  0
 21 22  1  0
 22 23  2  0
 17  4  1  0
 23 18  1  0
 15  9  1  0
  5 24  1  0
 10 25  1  0
 11 26  1  0
 14 27  1  0
 15 28  1  0
 19 29  1  0
 20 30  1  0
 21 31  1  0
 22 32  1  0
 23 33  1  0
M  CHG  1   3  -1
M  END
>  <UniqueID>  (55) 
48

>  <SMILES>  (55) 
O=C([O-])c1cnc(Sc2ccc(Cl)cc2)nc1-c1ccccc1

>  <Energy>  (55) 
42.66829774684185

>  <Genealogy>  (55) 
O=C([O-])c1cnc(Sc2ccc(Cl)cc2)nc1-c1ccccc1 (protonated)
O=C([O-])c1cnc(Sc2ccc(Cl)cc2)nc1-c1ccccc1 (3D coordinates assigned)
O=C([O-])c1cnc(Sc2ccc(Cl)cc2)nc1-c1ccccc1 (optimized conformer: 42.66829774684185 kcal/mol)

>  <smiles>  (55) 
O=C(O)c1cnc(Sc2ccc(Cl)cc2)nc1-c1ccccc1

>  <score_type>  (55) 
oracle

>  <origin>  (55) 
adg

>  <m_score__min__energy>  (55) 
-10.33

>  <m_primary>  (55) 
energy

$$$$
55:0
     RDKit          3D

 46 49  0  0  0  0  0  0  0  0999 V2000
   54.2770   25.8120   45.7670 O   0  0  0  0  0  0  0  0  0  0  0  0
   55.5230   25.7170   45.9230 C   0  0  0  0  0  0  0  0  0  0  0  0
   56.1870   26.6920   46.7390 N   0  0  0  0  0  0  0  0  0  0  0  0
   57.3930   27.3970   46.4110 C   0  0  0  0  0  0  0  0  0  0  0  0
   58.6040   27.1330   47.0710 C   0  0  0  0  0  0  0  0  0  0  0  0
   59.7560   27.8420   46.7290 C   0  0  0  0  0  0  0  0  0  0  0  0
   59.7140   28.8040   45.7170 C   0  0  0  0  0  0  0  0  0  0  0  0
   58.5210   29.0580   45.0210 C   0  0  0  0  0  0  0  0  0  0  0  0
   58.5230   30.0630   43.9880 N   0  0  0  0  0  0  0  0  0  0  0  0
   57.2050   31.1330   43.6090 S   0  0  0  0  0  0  0  0  0  0  0  0
   56.1060   31.0090   44.6260 O   0  0  0  0  0  0  0  0  0  0  0  0
   56.6460   30.7390   42.2700 O   0  0  0  0  0  0  0  0  0  0  0  0
   57.7760   32.8240   43.4990 C   0  0  0  0  0  0  0  0  0  0  0  0
   58.2620   33.3240   44.8290 C   0  0  0  0  0  0  0  0  0  0  0  0
   59.1390   34.4200   44.8970 C   0  0  0  0  0  0  0  0  0  0  0  0
   59.6160   34.8640   46.1340 C   0  0  0  0  0  0  0  0  0  0  0  0
   59.2270   34.2140   47.3090 C   0  0  0  0  0  0  0  0  0  0  0  0
   58.3610   33.1190   47.2490 C   0  0  0  0  0  0  0  0  0  0  0  0
   57.8780   32.6740   46.0150 C   0  0  0  0  0  0  0  0  0  0  0  0
   57.3630   28.3410   45.3770 C   0  0  0  0  0  0  0  0  0  0  0  0
   56.2450   24.5750   45.3110 C   0  0  0  0  0  0  0  0  0  0  0  0
   57.6130   24.3500   45.6230 C   0  0  0  0  0  0  0  0  0  0  0  0
   58.3140   23.2780   45.0410 C   0  0  0  0  0  0  0  0  0  0  0  0
   57.6290   22.4600   44.1500 C   0  0  0  0  0  0  0  0  0  0  0  0
   56.3260   22.6730   43.8370 C   0  0  0  0  0  0  0  0  0  0  0  0
   55.5970   23.7200   44.3890 C   0  0  0  0  0  0  0  0  0  0  0  0
   55.9090   21.7190   42.9300 O   0  0  0  0  0  0  0  0  0  0  0  0
   57.0180   20.8500   42.6580 C   0  0  0  0  0  0  0  0  0  0  0  0
   58.0940   21.3600   43.4580 O   0  0  0  0  0  0  0  0  0  0  0  0
   58.6445   26.3662   47.8587 H   0  0  0  0  0  0  0  0  0  0  0  0
   60.6998   27.6429   47.2577 H   0  0  0  0  0  0  0  0  0  0  0  0
   60.6237   29.3678   45.4629 H   0  0  0  0  0  0  0  0  0  0  0  0
   59.3580   30.1320   43.3630 H   0  0  0  0  0  0  0  0  0  0  0  0
   58.6008   32.8771   42.7732 H   0  0  0  0  0  0  0  0  0  0  0  0
   56.9337   33.4544   43.1781 H   0  0  0  0  0  0  0  0  0  0  0  0
   59.4512   34.9303   43.9739 H   0  0  0  0  0  0  0  0  0  0  0  0
   60.2981   35.7256   46.1827 H   0  0  0  0  0  0  0  0  0  0  0  0
   59.6029   34.5648   48.2814 H   0  0  0  0  0  0  0  0  0  0  0  0
   58.0589   32.6064   48.1742 H   0  0  0  0  0  0  0  0  0  0  0  0
   57.1953   31.8126   45.9718 H   0  0  0  0  0  0  0  0  0  0  0  0
   56.4228   28.5245   44.8362 H   0  0  0  0  0  0  0  0  0  0  0  0
   58.1288   25.0204   46.3263 H   0  0  0  0  0  0  0  0  0  0  0  0
   59.3709   23.0930   45.2834 H   0  0  0  0  0  0  0  0  0  0  0  0
   54.5435   23.8795   44.1159 H   0  0  0  0  0  0  0  0  0  0  0  0
   56.7785   19.8158   42.9461 H   0  0  0  0  0  0  0  0  0  0  0  0
   57.2730   20.8278   41.5882 H   0  0  0  0  0  0  0  0  0  0  0  0
  1  2  2  0
  2  3  1  0
  3  4  1  0
  4  5  2  0
  5  6  1  0
  6  7  2  0
  7  8  1  0
  8  9  1  0
  9 10  1  0
 10 11  2  0
 10 12  2  0
 10 13  1  0
 13 14  1  0
 14 15  2  0
 15 16  1  0
 16 17  2  0
 17 18  1  0
 18 19  2  0
  8 20  2  0
  2 21  1  0
 21 22  2  0
 22 23  1  0
 23 24  2  0
 24 25  1  0
 25 26  2  0
 25 27  1  0
 27 28  1  0
 28 29  1  0
 20  4  1  0
 26 21  1  0
 19 14  1  0
 29 24  1  0
  5 30  1  0
  6 31  1  0
  7 32  1  0
  9 33  1  0
 13 34  1  0
 13 35  1  0
 15 36  1  0
 16 37  1  0
 17 38  1  0
 18 39  1  0
 19 40  1  0
 20 41  1  0
 22 42  1  0
 23 43  1  0
 26 44  1  0
 28 45  1  0
 28 46  1  0
M  CHG  1   3  -1
M  END
>  <UniqueID>  (56) 
49

>  <SMILES>  (56) 
O=C([N-]c1cccc(NS(=O)(=O)Cc2ccccc2)c1)c1ccc2c(c1)OCO2

>  <Energy>  (56) 
80.20991333882193

>  <Genealogy>  (56) 
O=C([N-]c1cccc(NS(=O)(=O)Cc2ccccc2)c1)c1ccc2c(c1)OCO2 (protonated)
O=C([N-]c1cccc(NS(=O)(=O)Cc2ccccc2)c1)c1ccc2c(c1)OCO2 (3D coordinates assigned)
O=C([N-]c1cccc(NS(=O)(=O)Cc2ccccc2)c1)c1ccc2c(c1)OCO2 (nonaromatic ring conformer: 80.20991333882193 kcal/mol)

>  <smiles>  (56) 
O=C(Nc1cccc(NS(=O)(=O)Cc2ccccc2)c1)c1ccc2c(c1)OCO2

>  <score_type>  (56) 
oracle

>  <origin>  (56) 
adg

>  <m_score__min__energy>  (56) 
-12.42

>  <m_primary>  (56) 
energy

$$$$
56:0
     RDKit          3D

 29 30  0  0  0  0  0  0  0  0999 V2000
   54.5940   25.9940   45.9920 N   0  0  0  0  0  0  0  0  0  0  0  0
   55.1640   24.7290   45.5390 C   0  0  0  0  0  0  0  0  0  0  0  0
   56.5560   24.9420   44.9430 C   0  0  0  0  0  0  0  0  0  0  0  0
   56.9520   26.3460   45.0450 N   0  0  0  0  0  0  0  0  0  0  0  0
   57.3500   26.9530   46.2860 C   0  0  0  0  0  0  0  0  0  0  0  0
   57.2900   26.2870   47.3570 O   0  0  0  0  0  0  0  0  0  0  0  0
   57.8260   28.3540   46.3190 C   0  0  0  0  0  0  0  0  0  0  0  0
   58.7470   28.7830   47.2890 C   0  0  0  0  0  0  0  0  0  0  0  0
   59.1830   30.1110   47.2970 C   0  0  0  0  0  0  0  0  0  0  0  0
   60.0100   30.4850   48.1730 O   0  0  0  0  0  0  0  0  0  0  0  0
   58.6940   31.0120   46.3330 C   0  0  0  0  0  0  0  0  0  0  0  0
   59.0990   32.3600   46.2970 C   0  0  0  0  0  0  0  0  0  0  0  0
   58.5870   33.2210   45.3200 C   0  0  0  0  0  0  0  0  0  0  0  0
   59.0960   34.8990   45.2800 Cl  0  0  0  0  0  0  0  0  0  0  0  0
   57.6720   32.7470   44.3750 C   0  0  0  0  0  0  0  0  0  0  0  0
   57.2640   31.4100   44.4020 C   0  0  0  0  0  0  0  0  0  0  0  0
   57.7690   30.5410   45.3750 C   0  0  0  0  0  0  0  0  0  0  0  0
   57.3670   29.2430   45.3960 N   0  0  0  0  0  0  0  0  0  0  0  0
   55.1730   26.3360   46.7920 H   0  0  0  0  0  0  0  0  0  0  0  0
   53.6390   25.8030   46.3760 H   0  0  0  0  0  0  0  0  0  0  0  0
   55.2394   24.0409   46.3939 H   0  0  0  0  0  0  0  0  0  0  0  0
   54.5095   24.3058   44.7628 H   0  0  0  0  0  0  0  0  0  0  0  0
   57.2816   24.3214   45.4892 H   0  0  0  0  0  0  0  0  0  0  0  0
   56.5336   24.6569   43.8808 H   0  0  0  0  0  0  0  0  0  0  0  0
   57.0190   26.8940   44.1580 H   0  0  0  0  0  0  0  0  0  0  0  0
   59.1246   28.0748   48.0413 H   0  0  0  0  0  0  0  0  0  0  0  0
   59.8191   32.7369   47.0382 H   0  0  0  0  0  0  0  0  0  0  0  0
   57.2723   33.4274   43.6087 H   0  0  0  0  0  0  0  0  0  0  0  0
   56.5444   31.0406   43.6566 H   0  0  0  0  0  0  0  0  0  0  0  0
  1  2  1  0
  2  3  1  0
  3  4  1  0
  4  5  1  0
  5  6  2  0
  5  7  1  0
  7  8  2  0
  8  9  1  0
  9 10  2  0
  9 11  1  0
 11 12  2  0
 12 13  1  0
 13 14  1  0
 13 15  2  0
 15 16  1  0
 16 17  2  0
 17 18  1  0
 18  7  1  0
 17 11  1  0
  1 19  1  0
  1 20  1  0
  2 21  1  0
  2 22  1  0
  3 23  1  0
  3 24  1  0
  4 25  1  0
  8 26  1  0
 12 27  1  0
 15 28  1  0
 16 29  1  0
M  CHG  1  18  -1
M  END
>  <UniqueID>  (57) 
50

>  <SMILES>  (57) 
NCCNC(=O)c1cc(=O)c2cc(Cl)ccc2[n-]1

>  <Energy>  (57) 
29.13531817043002

>  <Genealogy>  (57) 
NCCNC(=O)c1cc(=O)c2cc(Cl)ccc2[n-]1 (protonated)
NCCNC(=O)c1cc(=O)c2cc(Cl)ccc2[n-]1 (3D coordinates assigned)
NCCNC(=O)c1cc(=O)c2cc(Cl)ccc2[n-]1 (optimized conformer: 29.13531817043002 kcal/mol)

>  <smiles>  (57) 
NCCNC(=O)c1cc(=O)c2cc(Cl)ccc2[nH]1

>  <score_type>  (57) 
oracle

>  <origin>  (57) 
adg

>  <m_score__min__energy>  (57) 
-8.0600000000000005

>  <m_primary>  (57) 
energy

$$$$
57:0
     RDKit          3D

 31 33  0  0  0  0  0  0  0  0999 V2000
   57.1430   34.0830   44.9780 C   0  0  0  0  0  0  0  0  0  0  0  0
   57.7710   32.9170   44.4580 O   0  0  0  0  0  0  0  0  0  0  0  0
   57.6750   31.6330   45.0250 C   0  0  0  0  0  0  0  0  0  0  0  0
   56.6380   30.7490   44.6630 C   0  0  0  0  0  0  0  0  0  0  0  0
   56.5480   29.4850   45.2460 C   0  0  0  0  0  0  0  0  0  0  0  0
   55.5200   28.6230   44.8830 O   0  0  0  0  0  0  0  0  0  0  0  0
   57.4880   29.0850   46.1940 C   0  0  0  0  0  0  0  0  0  0  0  0
   58.5230   29.9450   46.5620 C   0  0  0  0  0  0  0  0  0  0  0  0
   58.6320   31.2260   45.9870 C   0  0  0  0  0  0  0  0  0  0  0  0
   59.7490   32.1210   46.3870 C   0  0  0  0  0  0  0  0  0  0  0  0
   60.5390   31.9090   47.4620 N   0  0  0  0  0  0  0  0  0  0  0  0
   61.3770   32.9660   47.4100 C   0  0  0  0  0  0  0  0  0  0  0  0
   62.4620   33.2160   48.3790 C   0  0  0  0  0  0  0  0  0  0  0  0
   62.2460   34.0310   49.5010 C   0  0  0  0  0  0  0  0  0  0  0  0
   63.2880   34.2510   50.4050 C   0  0  0  0  0  0  0  0  0  0  0  0
   64.5040   33.6780   50.1960 N   0  0  0  0  0  0  0  0  0  0  0  0
   64.7420   32.8850   49.1190 C   0  0  0  0  0  0  0  0  0  0  0  0
   63.7260   32.6380   48.1920 C   0  0  0  0  0  0  0  0  0  0  0  0
   61.1070   33.7430   46.3870 O   0  0  0  0  0  0  0  0  0  0  0  0
   60.1030   33.2470   45.7360 N   0  0  0  0  0  0  0  0  0  0  0  0
   57.1609   34.0498   46.0774 H   0  0  0  0  0  0  0  0  0  0  0  0
   57.6820   34.9762   44.6293 H   0  0  0  0  0  0  0  0  0  0  0  0
   56.1005   34.1245   44.6293 H   0  0  0  0  0  0  0  0  0  0  0  0
   55.8937   31.0587   43.9146 H   0  0  0  0  0  0  0  0  0  0  0  0
   57.4136   28.0883   46.6534 H   0  0  0  0  0  0  0  0  0  0  0  0
   59.2617   29.6192   47.3091 H   0  0  0  0  0  0  0  0  0  0  0  0
   61.2621   34.4938   49.6675 H   0  0  0  0  0  0  0  0  0  0  0  0
   63.1251   34.8882   51.2867 H   0  0  0  0  0  0  0  0  0  0  0  0
   65.7363   32.4365   48.9764 H   0  0  0  0  0  0  0  0  0  0  0  0
   63.9165   31.9940   47.3208 H   0  0  0  0  0  0  0  0  0  0  0  0
   59.6930   33.6540   44.8680 H   0  0  0  0  0  0  0  0  0  0  0  0
  1  2  1  0
  2  3  1  0
  3  4  2  0
  4  5  1  0
  5  6  1  0
  5  7  2  0
  7  8  1  0
  8  9  2  0
  9 10  1  0
 10 11  1  0
 11 12  2  0
 12 13  1  0
 13 14  2  0
 14 15  1  0
 15 16  2  0
 16 17  1  0
 17 18  2  0
 12 19  1  0
 19 20  1  0
  9  3  1  0
 20 10  2  0
 18 13  1  0
  1 21  1  0
  1 22  1  0
  1 23  1  0
  4 24  1  0
  7 25  1  0
  8 26  1  0
 14 27  1  0
 15 28  1  0
 17 29  1  0
 18 30  1  0
 20 31  1  0
M  CHG  2   6  -1  20   1
M  END
>  <UniqueID>  (58) 
51

>  <SMILES>  (58) 
COc1cc([O-])ccc1-c1nc(-c2ccncc2)o[nH+]1

>  <Energy>  (58) 
71.4511911090994

>  <Genealogy>  (58) 
COc1cc([O-])ccc1-c1nc(-c2ccncc2)o[nH+]1 (protonated)
COc1cc([O-])ccc1-c1nc(-c2ccncc2)o[nH+]1 (3D coordinates assigned)
COc1cc([O-])ccc1-c1nc(-c2ccncc2)o[nH+]1 (optimized conformer: 71.4511911090994 kcal/mol)

>  <smiles>  (58) 
COc1cc(O)ccc1-c1noc(-c2ccncc2)n1

>  <score_type>  (58) 
oracle

>  <origin>  (58) 
adg

>  <m_score__min__energy>  (58) 
-7.4800000000000004

>  <m_primary>  (58) 
energy

$$$$
58:0
     RDKit          3D

 77 81  0  0  0  0  0  0  0  0999 V2000
   57.5520   21.4050   43.3760 C   0  0  0  0  0  0  0  0  0  0  0  0
   56.5670   22.0340   44.1870 O   0  0  0  0  0  0  0  0  0  0  0  0
   56.7340   23.2750   44.8230 C   0  0  0  0  0  0  0  0  0  0  0  0
   57.9860   23.7080   45.2950 C   0  0  0  0  0  0  0  0  0  0  0  0
   58.1250   24.9580   45.9180 C   0  0  0  0  0  0  0  0  0  0  0  0
   56.9870   25.7610   46.1220 C   0  0  0  0  0  0  0  0  0  0  0  0
   55.7420   25.3390   45.6310 C   0  0  0  0  0  0  0  0  0  0  0  0
   55.6120   24.1000   44.9750 C   0  0  0  0  0  0  0  0  0  0  0  0
   54.3840   23.6560   44.4580 O   0  0  0  0  0  0  0  0  0  0  0  0
   53.1120   24.0090   44.9890 C   0  0  0  0  0  0  0  0  0  0  0  0
   57.1270   27.1160   46.7600 C   0  0  0  0  0  0  0  0  0  0  0  0
   57.9260   28.0870   45.8690 C   0  0  0  0  0  0  0  0  0  0  0  0
   59.3970   28.0140   46.0410 N   0  0  0  0  0  0  0  0  0  0  0  0
   60.1330   29.2630   45.7230 C   0  0  0  0  0  0  0  0  0  0  0  0
   60.6940   29.9370   46.9830 C   0  0  0  0  0  0  0  0  0  0  0  0
   60.6470   31.4350   46.8440 C   0  0  0  0  0  0  0  0  0  0  0  0
   61.6280   32.3720   47.2000 C   0  0  0  0  0  0  0  0  0  0  0  0
   62.9860   32.0610   47.7870 C   0  0  1  0  0  0  0  0  0  0  0  0
   63.7440   31.2670   46.9070 O   0  0  0  0  0  0  0  0  0  0  0  0
   63.7340   33.3450   48.1760 C   0  0  0  0  0  0  0  0  0  0  0  0
   62.9090   34.1660   49.0010 O   0  0  0  0  0  0  0  0  0  0  0  0
   62.3340   33.7610   50.2140 C   0  0  0  0  0  0  0  0  0  0  0  0
   63.0770   33.9300   51.3870 C   0  0  0  0  0  0  0  0  0  0  0  0
   62.5570   33.5190   52.6160 C   0  0  0  0  0  0  0  0  0  0  0  0
   61.2900   32.9330   52.6840 C   0  0  0  0  0  0  0  0  0  0  0  0
   60.5240   32.7650   51.5250 C   0  0  0  0  0  0  0  0  0  0  0  0
   59.2300   32.1550   51.6450 N   0  0  0  0  0  0  0  0  0  0  0  0
   58.5420   31.0080   50.5440 S   0  0  0  0  0  0  0  0  0  0  0  0
   59.6890   29.6870   50.2110 C   0  0  0  0  0  0  0  0  0  0  0  0
   57.3130   30.4150   51.1790 O   0  0  0  0  0  0  0  0  0  0  0  0
   58.1440   31.6930   49.2650 O   0  0  0  0  0  0  0  0  0  0  0  0
   61.0450   33.1910   50.2890 C   0  0  0  0  0  0  0  0  0  0  0  0
   61.1500   33.6320   47.0460 N   0  0  0  0  0  0  0  0  0  0  0  0
   59.8910   33.5040   46.5930 C   0  0  0  0  0  0  0  0  0  0  0  0
   58.9860   34.5280   46.3200 C   0  0  0  0  0  0  0  0  0  0  0  0
   57.6950   34.1710   45.8940 C   0  0  0  0  0  0  0  0  0  0  0  0
   57.3370   32.8110   45.7560 C   0  0  0  0  0  0  0  0  0  0  0  0
   58.2710   31.7980   46.0400 C   0  0  0  0  0  0  0  0  0  0  0  0
   59.5480   32.1840   46.4580 C   0  0  0  0  0  0  0  0  0  0  0  0
   60.0230   26.7290   45.6380 C   0  0  0  0  0  0  0  0  0  0  0  0
   59.4980   25.4370   46.3350 C   0  0  0  0  0  0  0  0  0  0  0  0
   58.3042   20.9247   44.0190 H   0  0  0  0  0  0  0  0  0  0  0  0
   57.0733   20.6450   42.7409 H   0  0  0  0  0  0  0  0  0  0  0  0
   58.0401   22.1589   42.7409 H   0  0  0  0  0  0  0  0  0  0  0  0
   58.8664   23.0596   45.1745 H   0  0  0  0  0  0  0  0  0  0  0  0
   54.8591   25.9824   45.7599 H   0  0  0  0  0  0  0  0  0  0  0  0
   53.1572   23.9965   46.0880 H   0  0  0  0  0  0  0  0  0  0  0  0
   52.8379   25.0172   44.6448 H   0  0  0  0  0  0  0  0  0  0  0  0
   52.3576   23.2863   44.6448 H   0  0  0  0  0  0  0  0  0  0  0  0
   56.1242   27.5339   46.9324 H   0  0  0  0  0  0  0  0  0  0  0  0
   57.6720   26.9936   47.7076 H   0  0  0  0  0  0  0  0  0  0  0  0
   57.6917   27.8603   44.8184 H   0  0  0  0  0  0  0  0  0  0  0  0
   57.6271   29.1024   46.1683 H   0  0  0  0  0  0  0  0  0  0  0  0
   60.9674   29.0214   45.0481 H   0  0  0  0  0  0  0  0  0  0  0  0
   59.4276   29.9617   45.2496 H   0  0  0  0  0  0  0  0  0  0  0  0
   60.0929   29.6350   47.8533 H   0  0  0  0  0  0  0  0  0  0  0  0
   61.7400   29.6246   47.1182 H   0  0  0  0  0  0  0  0  0  0  0  0
   62.8314   31.4821   48.7095 H   0  0  0  0  0  0  0  0  0  0  0  0
   64.6170   31.7110   46.7580 H   0  0  0  0  0  0  0  0  0  0  0  0
   64.6487   33.0799   48.7265 H   0  0  0  0  0  0  0  0  0  0  0  0
   63.9927   33.9001   47.2622 H   0  0  0  0  0  0  0  0  0  0  0  0
   64.0757   34.3888   51.3411 H   0  0  0  0  0  0  0  0  0  0  0  0
   63.1468   33.6570   53.5342 H   0  0  0  0  0  0  0  0  0  0  0  0
   60.8924   32.6018   53.6547 H   0  0  0  0  0  0  0  0  0  0  0  0
   60.0523   29.2686   51.1612 H   0  0  0  0  0  0  0  0  0  0  0  0
   59.1834   28.8994   49.6330 H   0  0  0  0  0  0  0  0  0  0  0  0
   60.5398   30.0771   49.6330 H   0  0  0  0  0  0  0  0  0  0  0  0
   60.4434   33.0789   49.3749 H   0  0  0  0  0  0  0  0  0  0  0  0
   61.6380   34.5290   47.2630 H   0  0  0  0  0  0  0  0  0  0  0  0
   59.2733   35.5836   46.4344 H   0  0  0  0  0  0  0  0  0  0  0  0
   56.9584   34.9556   45.6665 H   0  0  0  0  0  0  0  0  0  0  0  0
   56.3228   32.5430   45.4248 H   0  0  0  0  0  0  0  0  0  0  0  0
   58.0049   30.7357   45.9364 H   0  0  0  0  0  0  0  0  0  0  0  0
   59.8672   26.6089   44.5557 H   0  0  0  0  0  0  0  0  0  0  0  0
   61.0749   26.8138   45.9483 H   0  0  0  0  0  0  0  0  0  0  0  0
   60.2131   24.6284   46.1232 H   0  0  0  0  0  0  0  0  0  0  0  0
   59.4058   25.6965   47.4000 H   0  0  0  0  0  0  0  0  0  0  0  0
  1  2  1  0
  2  3  1  0
  3  4  2  0
  4  5  1  0
  5  6  2  0
  6  7  1  0
  7  8  2  0
  8  9  1  0
  9 10  1  0
  6 11  1  0
 11 12  1  0
 12 13  1  0
 13 14  1  0
 14 15  1  0
 15 16  1  0
 16 17  2  0
 17 18  1  0
 18 19  1  0
 18 20  1  0
 20 21  1  0
 21 22  1  0
 22 23  2  0
 23 24  1  0
 24 25  2  0
 25 26  1  0
 26 27  1  0
 27 28  1  0
 28 29  1  0
 28 30  2  0
 28 31  2  0
 26 32  2  0
 17 33  1  0
 33 34  1  0
 34 35  2  0
 35 36  1  0
 36 37  2  0
 37 38  1  0
 38 39  2  0
 13 40  1  0
 40 41  1  0
  8  3  1  0
 39 16  1  0
 41  5  1  0
 32 22  1  0
 39 34  1  0
  1 42  1  0
  1 43  1  0
  1 44  1  0
  4 45  1  0
  7 46  1  0
 10 47  1  0
 10 48  1  0
 10 49  1  0
 11 50  1  0
 11 51  1  0
 12 52  1  0
 12 53  1  0
 14 54  1  0
 14 55  1  0
 15 56  1  0
 15 57  1  0
 18 58  1  1
 19 59  1  0
 20 60  1  0
 20 61  1  0
 23 62  1  0
 24 63  1  0
 25 64  1  0
 29 65  1  0
 29 66  1  0
 29 67  1  0
 32 68  1  0
 33 69  1  0
 35 70  1  0
 36 71  1  0
 37 72  1  0
 38 73  1  0
 40 74  1  0
 40 75  1  0
 41 76  1  0
 41 77  1  0
M  CHG  1  27  -1
M  END
>  <UniqueID>  (59) 
52

>  <SMILES>  (59) 
COc1cc2c(cc1OC)CCN(CCc1c([C@@H](O)COc3cccc([N-]S(C)(=O)=O)c3)[nH]c3ccccc13)CC2

>  <Energy>  (59) 
126.30334972659372

>  <Genealogy>  (59) 
COc1cc2c(cc1OC)CCN(CCc1c(C(O)COc3cccc([N-]S(C)(=O)=O)c3)[nH]c3ccccc13)CC2 (protonated)
COc1cc2c(cc1OC)CCN(CCc1c([C@@H](O)COc3cccc([N-]S(C)(=O)=O)c3)[nH]c3ccccc13)CC2 (chirality)
COc1cc2c(cc1OC)CCN(CCc1c([C@@H](O)COc3cccc([N-]S(C)(=O)=O)c3)[nH]c3ccccc13)CC2 (3D coordinates assigned)
COc1cc2c(cc1OC)CCN(CCc1c([C@@H](O)COc3cccc([N-]S(C)(=O)=O)c3)[nH]c3ccccc13)CC2 (nonaromatic ring conformer: 126.30334972659372 kcal/mol)

>  <smiles>  (59) 
COc1cc2c(cc1OC)CCN(CCc1c(C(O)COc3cccc(NS(C)(=O)=O)c3)[nH]c3ccccc13)CC2

>  <score_type>  (59) 
oracle

>  <origin>  (59) 
adg

>  <m_score__min__energy>  (59) 
-9.2799999999999994

>  <m_primary>  (59) 
energy

$$$$
59:0
     RDKit          3D

 32 33  0  0  0  0  0  0  0  0999 V2000
   55.3890   24.6470   46.4880 O   0  0  0  0  0  0  0  0  0  0  0  0
   56.1000   25.6540   46.2340 C   0  0  0  0  0  0  0  0  0  0  0  0
   57.4920   25.5640   46.2720 C   0  0  0  0  0  0  0  0  0  0  0  0
   58.2520   26.6950   45.9860 C   0  0  0  0  0  0  0  0  0  0  0  0
   57.6020   27.8930   45.6650 C   0  0  0  0  0  0  0  0  0  0  0  0
   58.3840   29.1460   45.3750 C   0  0  0  0  0  0  0  0  0  0  0  0
   57.6140   30.3610   45.6940 N   0  0  0  0  0  0  0  0  0  0  0  0
   57.5720   31.2990   44.5590 C   0  0  0  0  0  0  0  0  0  0  0  0
   56.9920   32.6520   44.9920 C   0  0  0  0  0  0  0  0  0  0  0  0
   57.9790   33.4010   45.8470 C   0  0  0  0  0  0  0  0  0  0  0  0
   58.7940   34.3950   45.2810 C   0  0  0  0  0  0  0  0  0  0  0  0
   59.7330   35.0680   46.0700 C   0  0  0  0  0  0  0  0  0  0  0  0
   59.8720   34.7450   47.4220 C   0  0  0  0  0  0  0  0  0  0  0  0
   59.0730   33.7490   47.9890 C   0  0  0  0  0  0  0  0  0  0  0  0
   58.1320   33.0730   47.2050 C   0  0  0  0  0  0  0  0  0  0  0  0
   56.2410   27.9240   45.6480 N   0  0  0  0  0  0  0  0  0  0  0  0
   55.5140   26.8390   45.9230 N   0  0  0  0  0  0  0  0  0  0  0  0
   57.9823   24.6122   46.5245 H   0  0  0  0  0  0  0  0  0  0  0  0
   59.3507   26.6480   46.0119 H   0  0  0  0  0  0  0  0  0  0  0  0
   59.3034   29.1390   45.9788 H   0  0  0  0  0  0  0  0  0  0  0  0
   58.6155   29.1619   44.2998 H   0  0  0  0  0  0  0  0  0  0  0  0
   58.0780   30.8320   46.5060 H   0  0  0  0  0  0  0  0  0  0  0  0
   56.6410   30.1000   45.9780 H   0  0  0  0  0  0  0  0  0  0  0  0
   58.5927   31.4496   44.1775 H   0  0  0  0  0  0  0  0  0  0  0  0
   56.9288   30.8744   43.7741 H   0  0  0  0  0  0  0  0  0  0  0  0
   56.7615   33.2496   44.0977 H   0  0  0  0  0  0  0  0  0  0  0  0
   56.0774   32.4755   45.5771 H   0  0  0  0  0  0  0  0  0  0  0  0
   58.6937   34.6450   44.2145 H   0  0  0  0  0  0  0  0  0  0  0  0
   60.3627   35.8526   45.6252 H   0  0  0  0  0  0  0  0  0  0  0  0
   60.6111   35.2752   48.0406 H   0  0  0  0  0  0  0  0  0  0  0  0
   59.1840   33.4959   49.0537 H   0  0  0  0  0  0  0  0  0  0  0  0
   57.5106   32.2832   47.6523 H   0  0  0  0  0  0  0  0  0  0  0  0
  1  2  2  0
  2  3  1  0
  3  4  2  0
  4  5  1  0
  5  6  1  0
  6  7  1  0
  7  8  1  0
  8  9  1  0
  9 10  1  0
 10 11  2  0
 11 12  1  0
 12 13  2  0
 13 14  1  0
 14 15  2  0
  5 16  2  0
 16 17  1  0
 17  2  1  0
 15 10  1  0
  3 18  1  0
  4 19  1  0
  6 20  1  0
  6 21  1  0
  7 22  1  0
  7 23  1  0
  8 24  1  0
  8 25  1  0
  9 26  1  0
  9 27  1  0
 11 28  1  0
 12 29  1  0
 13 30  1  0
 14 31  1  0
 15 32  1  0
M  CHG  2   7   1  17  -1
M  END
>  <UniqueID>  (60) 
53

>  <SMILES>  (60) 
O=c1ccc(C[NH2+]CCc2ccccc2)n[n-]1

>  <Energy>  (60) 
30.251459356432207

>  <Genealogy>  (60) 
O=c1ccc(C[NH2+]CCc2ccccc2)n[n-]1 (protonated)
O=c1ccc(C[NH2+]CCc2ccccc2)n[n-]1 (3D coordinates assigned)
O=c1ccc(C[NH2+]CCc2ccccc2)n[n-]1 (optimized conformer: 30.251459356432207 kcal/mol)

>  <smiles>  (60) 
O=c1ccc(CNCCc2ccccc2)n[nH]1

>  <score_type>  (60) 
oracle

>  <origin>  (60) 
adg

>  <m_score__min__energy>  (60) 
-8.2899999999999991

>  <m_primary>  (60) 
energy

$$$$
60:0
     RDKit          3D

 29 30  0  0  0  0  0  0  0  0999 V2000
   56.3800   30.1050   42.9590 O   0  0  0  0  0  0  0  0  0  0  0  0
   56.0420   30.1550   44.1730 C   0  0  0  0  0  0  0  0  0  0  0  0
   55.6500   28.9640   44.8600 N   0  0  0  0  0  0  0  0  0  0  0  0
   56.5960   27.9950   45.4020 C   0  0  0  0  0  0  0  0  0  0  0  0
   57.9420   28.6360   45.6030 C   0  0  0  0  0  0  0  0  0  0  0  0
   58.1950   29.4290   46.7350 C   0  0  0  0  0  0  0  0  0  0  0  0
   59.4570   30.0010   46.9260 C   0  0  0  0  0  0  0  0  0  0  0  0
   60.4740   29.7830   45.9920 C   0  0  0  0  0  0  0  0  0  0  0  0
   60.2310   28.9910   44.8670 C   0  0  0  0  0  0  0  0  0  0  0  0
   58.9710   28.4170   44.6720 C   0  0  0  0  0  0  0  0  0  0  0  0
   55.9890   31.3780   44.8530 O   0  0  0  0  0  0  0  0  0  0  0  0
   57.0580   32.2750   44.9930 C   0  0  0  0  0  0  0  0  0  0  0  0
   57.8390   32.6920   43.8970 C   0  0  0  0  0  0  0  0  0  0  0  0
   58.9030   33.5800   44.0900 C   0  0  0  0  0  0  0  0  0  0  0  0
   59.2030   34.0490   45.3710 C   0  0  0  0  0  0  0  0  0  0  0  0
   58.4430   33.6240   46.4650 C   0  0  0  0  0  0  0  0  0  0  0  0
   57.3800   32.7360   46.2760 C   0  0  0  0  0  0  0  0  0  0  0  0
   56.2226   27.6245   46.3681 H   0  0  0  0  0  0  0  0  0  0  0  0
   56.6993   27.1604   44.6929 H   0  0  0  0  0  0  0  0  0  0  0  0
   57.3979   29.6005   47.4734 H   0  0  0  0  0  0  0  0  0  0  0  0
   59.6495   30.6233   47.8124 H   0  0  0  0  0  0  0  0  0  0  0  0
   61.4655   30.2350   46.1428 H   0  0  0  0  0  0  0  0  0  0  0  0
   61.0323   28.8187   44.1334 H   0  0  0  0  0  0  0  0  0  0  0  0
   58.7848   27.7917   43.7864 H   0  0  0  0  0  0  0  0  0  0  0  0
   57.6118   32.3187   42.8875 H   0  0  0  0  0  0  0  0  0  0  0  0
   59.5049   33.9097   43.2304 H   0  0  0  0  0  0  0  0  0  0  0  0
   60.0361   34.7518   45.5190 H   0  0  0  0  0  0  0  0  0  0  0  0
   58.6817   33.9886   47.4750 H   0  0  0  0  0  0  0  0  0  0  0  0
   56.7919   32.3966   47.1414 H   0  0  0  0  0  0  0  0  0  0  0  0
  1  2  2  0
  2  3  1  0
  3  4  1  0
  4  5  1  0
  5  6  2  0
  6  7  1  0
  7  8  2  0
  8  9  1  0
  9 10  2  0
  2 11  1  0
 11 12  1  0
 12 13  2  0
 13 14  1  0
 14 15  2  0
 15 16  1  0
 16 17  2  0
 10  5  1  0
 17 12  1  0
  4 18  1  0
  4 19  1  0
  6 20  1  0
  7 21  1  0
  8 22  1  0
  9 23  1  0
 10 24  1  0
 13 25  1  0
 14 26  1  0
 15 27  1  0
 16 28  1  0
 17 29  1  0
M  CHG  1   3  -1
M  END
>  <UniqueID>  (61) 
54

>  <SMILES>  (61) 
O=C([N-]Cc1ccccc1)Oc1ccccc1

>  <Energy>  (61) 
31.640101033339846

>  <Genealogy>  (61) 
O=C([N-]Cc1ccccc1)Oc1ccccc1 (protonated)
O=C([N-]Cc1ccccc1)Oc1ccccc1 (3D coordinates assigned)
O=C([N-]Cc1ccccc1)Oc1ccccc1 (optimized conformer: 31.640101033339846 kcal/mol)

>  <smiles>  (61) 
O=C(NCc1ccccc1)Oc1ccccc1

>  <score_type>  (61) 
oracle

>  <origin>  (61) 
adg

>  <m_score__min__energy>  (61) 
-8.2200000000000006

>  <m_primary>  (61) 
energy

$$$$
61:0
     RDKit          3D

 55 58  0  0  0  0  0  0  0  0999 V2000
   55.0990   25.8970   46.7440 H   0  0  0  0  0  0  0  0  0  0  0  0
   54.7620   25.4080   45.9230 O   0  0  0  0  0  0  0  0  0  0  0  0
   55.4180   24.3080   45.3630 C   0  0  0  0  0  0  0  0  0  0  0  0
   55.2700   24.0880   43.9880 C   0  0  0  0  0  0  0  0  0  0  0  0
   54.6911   24.7989   43.3801 H   0  0  0  0  0  0  0  0  0  0  0  0
   55.8520   22.9730   43.3840 C   0  0  0  0  0  0  0  0  0  0  0  0
   55.7281   22.8063   42.3038 H   0  0  0  0  0  0  0  0  0  0  0  0
   56.5910   22.0690   44.1480 C   0  0  0  0  0  0  0  0  0  0  0  0
   57.0395   21.1850   43.6712 H   0  0  0  0  0  0  0  0  0  0  0  0
   56.7620   22.2850   45.5170 C   0  0  0  0  0  0  0  0  0  0  0  0
   57.3478   21.5695   46.1127 H   0  0  0  0  0  0  0  0  0  0  0  0
   56.1910   23.4110   46.1420 C   0  0  0  0  0  0  0  0  0  0  0  0
   56.4180   23.6610   47.5440 N   0  0  0  0  0  0  0  0  0  0  0  0
   55.8870   23.1120   48.2560 H   0  0  0  0  0  0  0  0  0  0  0  0
   57.3720   24.6500   48.0440 C   0  0  0  0  0  0  0  0  0  0  0  0
   58.2928   24.1372   48.3589 H   0  0  0  0  0  0  0  0  0  0  0  0
   56.9207   25.1789   48.8964 H   0  0  0  0  0  0  0  0  0  0  0  0
   57.7050   25.6500   46.9750 C   0  0  0  0  0  0  0  0  0  0  0  0
   58.6590   25.5030   45.9860 C   0  0  0  0  0  0  0  0  0  0  0  0
   59.5250   24.3730   45.7810 C   0  0  0  0  0  0  0  0  0  0  0  0
   60.2250   23.4660   45.6160 N   0  0  0  0  0  0  0  0  0  0  0  0
   58.6320   26.6510   45.2220 C   0  0  0  0  0  0  0  0  0  0  0  0
   59.2577   26.8791   44.3465 H   0  0  0  0  0  0  0  0  0  0  0  0
   57.6520   27.4610   45.7850 C   0  0  0  0  0  0  0  0  0  0  0  0
   57.2580   28.8130   45.3360 C   0  0  0  0  0  0  0  0  0  0  0  0
   58.0520   29.8690   45.6540 N   0  0  0  0  0  0  0  0  0  0  0  0
   57.7570   31.1350   45.2460 C   0  0  0  0  0  0  0  0  0  0  0  0
   58.5340   32.1320   45.5510 N   0  0  0  0  0  0  0  0  0  0  0  0
   58.1230   33.3180   46.3110 C   0  0  1  0  0  0  0  0  0  0  0  0
   57.0718   33.5478   46.0825 H   0  0  0  0  0  0  0  0  0  0  0  0
   58.2080   33.0600   47.8410 C   0  0  0  0  0  0  0  0  0  0  0  0
   57.3510   33.5530   48.3232 H   0  0  0  0  0  0  0  0  0  0  0  0
   58.2022   31.9690   47.9809 H   0  0  0  0  0  0  0  0  0  0  0  0
   59.5010   33.5870   48.4940 C   0  0  0  0  0  0  0  0  0  0  0  0
   59.3626   34.6454   48.7598 H   0  0  0  0  0  0  0  0  0  0  0  0
   59.7076   32.9844   49.3907 H   0  0  0  0  0  0  0  0  0  0  0  0
   60.7000   33.4630   47.5390 C   0  0  2  0  0  0  0  0  0  0  0  0
   60.7822   32.4090   47.2352 H   0  0  0  0  0  0  0  0  0  0  0  0
   62.0030   33.8570   48.2440 C   0  0  0  0  0  0  0  0  0  0  0  0
   61.8581   33.8132   49.3335 H   0  0  0  0  0  0  0  0  0  0  0  0
   62.8029   33.1606   47.9522 H   0  0  0  0  0  0  0  0  0  0  0  0
   62.2830   34.8800   47.9522 H   0  0  0  0  0  0  0  0  0  0  0  0
   60.4840   34.3100   46.2570 C   0  0  0  0  0  0  0  0  0  0  0  0
   60.9416   35.2983   46.4113 H   0  0  0  0  0  0  0  0  0  0  0  0
   60.9481   33.7612   45.4243 H   0  0  0  0  0  0  0  0  0  0  0  0
   58.9970   34.5110   45.8960 C   0  0  0  0  0  0  0  0  0  0  0  0
   58.6288   35.4125   46.4076 H   0  0  0  0  0  0  0  0  0  0  0  0
   58.9295   34.6096   44.8025 H   0  0  0  0  0  0  0  0  0  0  0  0
   56.6400   31.3600   44.5080 N   0  0  0  0  0  0  0  0  0  0  0  0
   55.8110   30.3400   44.1690 C   0  0  0  0  0  0  0  0  0  0  0  0
   54.9081   30.5411   43.5738 H   0  0  0  0  0  0  0  0  0  0  0  0
   56.1020   29.0370   44.5740 C   0  0  0  0  0  0  0  0  0  0  0  0
   55.4387   28.2029   44.3014 H   0  0  0  0  0  0  0  0  0  0  0  0
   57.0930   26.8420   46.8450 N   0  0  0  0  0  0  0  0  0  0  0  0
   56.3340   27.2160   47.4590 H   0  0  0  0  0  0  0  0  0  0  0  0
  1  2  1  0
  2  3  1  0
  3  4  2  0
  4  5  1  0
  4  6  1  0
  6  7  1  0
  6  8  2  0
  8  9  1  0
  8 10  1  0
 10 11  1  0
 10 12  2  0
 12 13  1  0
 13 14  1  0
 13 15  1  0
 15 16  1  0
 15 17  1  0
 15 18  1  0
 18 19  2  0
 19 20  1  0
 20 21  3  0
 19 22  1  0
 22 23  1  0
 22 24  2  0
 24 25  1  0
 25 26  2  0
 26 27  1  0
 27 28  2  0
 28 29  1  0
 29 30  1  1
 29 31  1  0
 31 32  1  0
 31 33  1  0
 31 34  1  0
 34 35  1  0
 34 36  1  0
 34 37  1  0
 37 38  1  1
 37 39  1  0
 39 40  1  0
 39 41  1  0
 39 42  1  0
 37 43  1  0
 43 44  1  0
 43 45  1  0
 43 46  1  0
 46 47  1  0
 46 48  1  0
 27 49  1  0
 49 50  1  0
 50 51  1  0
 50 52  2  0
 52 53  1  0
 24 54  1  0
 54 55  1  0
 12  3  1  0
 54 18  1  0
 52 25  1  0
 46 29  1  0
M  CHG  1  49  -1
M  END
>  <UniqueID>  (62) 
55

>  <SMILES>  (62) 
CC1CCC(/N=c2\nc(-c3cc(C#N)c(CNc4ccccc4O)[nH]3)cc[n-]2)CC1

>  <Energy>  (62) 
86.04992824634856

>  <Genealogy>  (62) 
CC1CCC(N=c2nc(-c3cc(C#N)c(CNc4ccccc4O)[nH]3)cc[n-]2)CC1 (protonated)
CC1CCC(/N=c2\nc(-c3cc(C#N)c(CNc4ccccc4O)[nH]3)cc[n-]2)CC1 (cis-trans isomerization)
CC1CCC(/N=c2\nc(-c3cc(C#N)c(CNc4ccccc4O)[nH]3)cc[n-]2)CC1 (3D coordinates assigned)
CC1CCC(/N=c2\nc(-c3cc(C#N)c(CNc4ccccc4O)[nH]3)cc[n-]2)CC1 (nonaromatic ring conformer: 86.04992824634856 kcal/mol)

>  <smiles>  (62) 
CC1CCC(N=c2nc(-c3cc(C#N)c(CNc4ccccc4O)[nH]3)cc[nH]2)CC1

>  <score_type>  (62) 
oracle

>  <origin>  (62) 
adg

>  <m_score__min__energy>  (62) 
-11.539999999999999

>  <m_primary>  (62) 
energy

$$$$
62:0
     RDKit          3D

 51 54  0  0  0  0  0  0  0  0999 V2000
   56.6500   27.5440   43.8890 H   0  0  0  0  0  0  0  0  0  0  0  0
   57.0130   28.4660   44.0930 O   0  0  0  0  0  0  0  0  0  0  0  0
   57.6790   28.7580   45.2830 C   0  0  0  0  0  0  0  0  0  0  0  0
   57.7780   30.0270   45.8250 C   0  0  0  0  0  0  0  0  0  0  0  0
   57.2160   31.2110   45.2510 N   0  0  0  0  0  0  0  0  0  0  0  0
   57.9370   32.1060   44.7070 N   0  0  0  0  0  0  0  0  0  0  0  0
   58.1340   33.3920   45.3060 C   0  0  0  0  0  0  0  0  0  0  0  0
   57.3800   34.3380   44.9560 O   0  0  0  0  0  0  0  0  0  0  0  0
   59.1840   33.6400   46.3220 C   0  0  0  0  0  0  0  0  0  0  0  0
   60.5360   33.4310   45.9980 C   0  0  0  0  0  0  0  0  0  0  0  0
   60.8107   33.1079   44.9831 H   0  0  0  0  0  0  0  0  0  0  0  0
   61.5340   33.6310   46.9570 C   0  0  0  0  0  0  0  0  0  0  0  0
   62.5896   33.4700   46.6930 H   0  0  0  0  0  0  0  0  0  0  0  0
   61.1920   34.0350   48.2500 C   0  0  0  0  0  0  0  0  0  0  0  0
   62.4440   34.2830   49.4540 Cl  0  0  0  0  0  0  0  0  0  0  0  0
   59.8480   34.2280   48.5870 C   0  0  0  0  0  0  0  0  0  0  0  0
   59.5773   34.5395   49.6067 H   0  0  0  0  0  0  0  0  0  0  0  0
   58.8480   34.0260   47.6310 C   0  0  0  0  0  0  0  0  0  0  0  0
   57.7924   34.1700   47.9049 H   0  0  0  0  0  0  0  0  0  0  0  0
   58.5520   29.8990   46.9670 C   0  0  0  0  0  0  0  0  0  0  0  0
   59.0060   30.8360   47.9010 C   0  0  0  0  0  0  0  0  0  0  0  0
   58.7343   31.8985   47.8157 H   0  0  0  0  0  0  0  0  0  0  0  0
   59.8200   30.3790   48.9520 C   0  0  0  0  0  0  0  0  0  0  0  0
   60.1903   31.0910   49.7043 H   0  0  0  0  0  0  0  0  0  0  0  0
   60.1660   29.0150   49.0500 C   0  0  0  0  0  0  0  0  0  0  0  0
   60.8055   28.6719   49.8766 H   0  0  0  0  0  0  0  0  0  0  0  0
   59.7000   28.0920   48.1000 C   0  0  0  0  0  0  0  0  0  0  0  0
   59.9711   27.0279   48.1657 H   0  0  0  0  0  0  0  0  0  0  0  0
   58.8810   28.5630   47.0670 C   0  0  0  0  0  0  0  0  0  0  0  0
   58.3380   27.8520   46.0500 N   0  0  0  0  0  0  0  0  0  0  0  0
   58.5220   26.4220   45.7820 C   0  0  0  0  0  0  0  0  0  0  0  0
   59.2343   26.2981   44.9530 H   0  0  0  0  0  0  0  0  0  0  0  0
   58.9084   25.9373   46.6907 H   0  0  0  0  0  0  0  0  0  0  0  0
   57.2120   25.7810   45.4090 C   0  0  0  0  0  0  0  0  0  0  0  0
   56.1370   26.3840   45.6800 O   0  0  0  0  0  0  0  0  0  0  0  0
   57.1590   24.4810   44.7870 N   0  0  0  0  0  0  0  0  0  0  0  0
   58.2800   23.5360   44.9110 C   0  0  0  0  0  0  0  0  0  0  0  0
   58.9770   23.6895   44.0740 H   0  0  0  0  0  0  0  0  0  0  0  0
   58.7915   23.7147   45.8683 H   0  0  0  0  0  0  0  0  0  0  0  0
   57.7700   22.0910   44.8840 C   0  0  0  0  0  0  0  0  0  0  0  0
   58.6343   21.4113   44.9149 H   0  0  0  0  0  0  0  0  0  0  0  0
   57.1144   21.9517   45.7562 H   0  0  0  0  0  0  0  0  0  0  0  0
   56.9430   21.7810   43.6230 C   0  0  0  0  0  0  0  0  0  0  0  0
   57.6075   21.3216   42.8764 H   0  0  0  0  0  0  0  0  0  0  0  0
   56.1283   21.1090   43.9308 H   0  0  0  0  0  0  0  0  0  0  0  0
   56.2870   23.0220   42.9910 C   0  0  0  0  0  0  0  0  0  0  0  0
   56.9781   23.4490   42.2494 H   0  0  0  0  0  0  0  0  0  0  0  0
   55.3439   22.7038   42.5228 H   0  0  0  0  0  0  0  0  0  0  0  0
   55.9560   24.0960   44.0330 C   0  0  0  0  0  0  0  0  0  0  0  0
   55.5520   24.9822   43.5216 H   0  0  0  0  0  0  0  0  0  0  0  0
   55.2148   23.6883   44.7361 H   0  0  0  0  0  0  0  0  0  0  0  0
  1  2  1  0
  2  3  1  0
  3  4  2  0
  4  5  1  0
  5  6  2  0
  6  7  1  0
  7  8  2  0
  7  9  1  0
  9 10  2  0
 10 11  1  0
 10 12  1  0
 12 13  1  0
 12 14  2  0
 14 15  1  0
 14 16  1  0
 16 17  1  0
 16 18  2  0
 18 19  1  0
  4 20  1  0
 20 21  2  0
 21 22  1  0
 21 23  1  0
 23 24  1  0
 23 25  2  0
 25 26  1  0
 25 27  1  0
 27 28  1  0
 27 29  2  0
 29 30  1  0
 30 31  1  0
 31 32  1  0
 31 33  1  0
 31 34  1  0
 34 35  2  0
 34 36  1  0
 36 37  1  0
 37 38  1  0
 37 39  1  0
 37 40  1  0
 40 41  1  0
 40 42  1  0
 40 43  1  0
 43 44  1  0
 43 45  1  0
 43 46  1  0
 46 47  1  0
 46 48  1  0
 46 49  1  0
 49 50  1  0
 49 51  1  0
 30  3  1  0
 49 36  1  0
 18  9  1  0
 29 20  1  0
M  END
>  <UniqueID>  (63) 
56

>  <SMILES>  (63) 
O=C(/N=N/c1c(O)n(CC(=O)N2CCCCC2)c2ccccc12)c1ccc(Cl)cc1

>  <Energy>  (63) 
95.18839524704998

>  <Genealogy>  (63) 
O=C(/N=N/c1c(O)n(CC(=O)N2CCCCC2)c2ccccc12)c1ccc(Cl)cc1 (cis-trans isomerization)
O=C(/N=N/c1c(O)n(CC(=O)N2CCCCC2)c2ccccc12)c1ccc(Cl)cc1 (3D coordinates assigned)
O=C(/N=N/c1c(O)n(CC(=O)N2CCCCC2)c2ccccc12)c1ccc(Cl)cc1 (nonaromatic ring conformer: 95.18839524704998 kcal/mol)

>  <smiles>  (63) 
O=C(N=Nc1c(O)n(CC(=O)N2CCCCC2)c2ccccc12)c1ccc(Cl)cc1

>  <score_type>  (63) 
oracle

>  <origin>  (63) 
adg

>  <m_score__min__energy>  (63) 
-10.91

>  <m_primary>  (63) 
energy

$$$$
63:0
     RDKit          3D

 42 43  0  0  0  0  0  0  0  0999 V2000
   64.5990   32.9670   49.3430 C   0  0  0  0  0  0  0  0  0  0  0  0
   63.5210   32.2840   48.5080 C   0  0  0  0  0  0  0  0  0  0  0  0
   62.9580   33.2280   47.4790 C   0  0  0  0  0  0  0  0  0  0  0  0
   63.7120   34.1400   47.0420 O   0  0  0  0  0  0  0  0  0  0  0  0
   61.5730   33.1040   46.9410 C   0  0  0  0  0  0  0  0  0  0  0  0
   60.9420   34.2250   46.3690 C   0  0  0  0  0  0  0  0  0  0  0  0
   59.6470   34.1310   45.8530 C   0  0  0  0  0  0  0  0  0  0  0  0
   58.9520   32.9190   45.8890 C   0  0  0  0  0  0  0  0  0  0  0  0
   57.6640   32.8730   45.3280 O   0  0  0  0  0  0  0  0  0  0  0  0
   57.3150   32.1840   44.1260 C   0  0  0  0  0  0  0  0  0  0  0  0
   57.1040   30.7240   44.3940 C   0  0  0  0  0  0  0  0  0  0  0  0
   55.9850   30.3240   44.8170 O   0  0  0  0  0  0  0  0  0  0  0  0
   58.1550   29.7860   44.1290 N   0  0  0  0  0  0  0  0  0  0  0  0
   58.3580   28.5840   44.8920 C   0  0  0  0  0  0  0  0  0  0  0  0
   59.5960   28.3610   45.5110 C   0  0  0  0  0  0  0  0  0  0  0  0
   59.8020   27.2180   46.2880 C   0  0  0  0  0  0  0  0  0  0  0  0
   58.7670   26.2970   46.4700 C   0  0  0  0  0  0  0  0  0  0  0  0
   57.5170   26.5190   45.8800 C   0  0  0  0  0  0  0  0  0  0  0  0
   56.2110   25.3640   46.1240 S   0  0  0  0  0  0  0  0  0  0  0  0
   54.6920   26.1660   45.9250 N   0  0  0  0  0  0  0  0  0  0  0  0
   56.3310   24.2500   45.1200 O   0  0  0  0  0  0  0  0  0  0  0  0
   56.2910   24.7790   47.5080 O   0  0  0  0  0  0  0  0  0  0  0  0
   57.3150   27.6590   45.0900 C   0  0  0  0  0  0  0  0  0  0  0  0
   59.5670   31.7960   46.4700 C   0  0  0  0  0  0  0  0  0  0  0  0
   60.8640   31.8860   46.9840 C   0  0  0  0  0  0  0  0  0  0  0  0
   64.3785   32.8273   50.4116 H   0  0  0  0  0  0  0  0  0  0  0  0
   65.5787   32.5245   49.1098 H   0  0  0  0  0  0  0  0  0  0  0  0
   64.6173   34.0418   49.1098 H   0  0  0  0  0  0  0  0  0  0  0  0
   63.9590   31.4140   47.9968 H   0  0  0  0  0  0  0  0  0  0  0  0
   62.7069   31.9678   49.1768 H   0  0  0  0  0  0  0  0  0  0  0  0
   61.4749   35.1864   46.3278 H   0  0  0  0  0  0  0  0  0  0  0  0
   59.1698   35.0196   45.4141 H   0  0  0  0  0  0  0  0  0  0  0  0
   56.3878   32.6142   43.7195 H   0  0  0  0  0  0  0  0  0  0  0  0
   58.1366   32.2957   43.4032 H   0  0  0  0  0  0  0  0  0  0  0  0
   58.8260   30.0070   43.3590 H   0  0  0  0  0  0  0  0  0  0  0  0
   60.4099   29.0900   45.3843 H   0  0  0  0  0  0  0  0  0  0  0  0
   60.7812   27.0428   46.7575 H   0  0  0  0  0  0  0  0  0  0  0  0
   58.9347   25.3958   47.0780 H   0  0  0  0  0  0  0  0  0  0  0  0
   54.7720   27.0900   46.4080 H   0  0  0  0  0  0  0  0  0  0  0  0
   56.3350   27.8323   44.6215 H   0  0  0  0  0  0  0  0  0  0  0  0
   59.0242   30.8406   46.5204 H   0  0  0  0  0  0  0  0  0  0  0  0
   61.3366   30.9968   47.4268 H   0  0  0  0  0  0  0  0  0  0  0  0
  1  2  1  0
  2  3  1  0
  3  4  2  0
  3  5  1  0
  5  6  2  0
  6  7  1  0
  7  8  2  0
  8  9  1  0
  9 10  1  0
 10 11  1  0
 11 12  2  0
 11 13  1  0
 13 14  1  0
 14 15  2  0
 15 16  1  0
 16 17  2  0
 17 18  1  0
 18 19  1  0
 19 20  1  0
 19 21  2  0
 19 22  2  0
 18 23  2  0
  8 24  1  0
 24 25  2  0
 25  5  1  0
 23 14  1  0
  1 26  1  0
  1 27  1  0
  1 28  1  0
  2 29  1  0
  2 30  1  0
  6 31  1  0
  7 32  1  0
 10 33  1  0
 10 34  1  0
 13 35  1  0
 15 36  1  0
 16 37  1  0
 17 38  1  0
 20 39  1  0
 23 40  1  0
 24 41  1  0
 25 42  1  0
M  CHG  1  20  -1
M  END
>  <UniqueID>  (64) 
57

>  <SMILES>  (64) 
CCC(=O)c1ccc(OCC(=O)Nc2cccc(S([NH-])(=O)=O)c2)cc1

>  <Energy>  (64) 
41.626232300078605

>  <Genealogy>  (64) 
CCC(=O)c1ccc(OCC(=O)Nc2cccc(S([NH-])(=O)=O)c2)cc1 (protonated)
CCC(=O)c1ccc(OCC(=O)Nc2cccc(S([NH-])(=O)=O)c2)cc1 (3D coordinates assigned)
CCC(=O)c1ccc(OCC(=O)Nc2cccc(S([NH-])(=O)=O)c2)cc1 (optimized conformer: 41.626232300078605 kcal/mol)

>  <smiles>  (64) 
CCC(=O)c1ccc(OCC(=O)Nc2cccc(S(N)(=O)=O)c2)cc1

>  <score_type>  (64) 
oracle

>  <origin>  (64) 
adg

>  <m_score__min__energy>  (64) 
-12.390000000000001

>  <m_primary>  (64) 
energy

$$$$
64:0
     RDKit          3D

 51 54  0  0  0  0  0  0  0  0999 V2000
   56.3350   29.6100   42.5680 C   0  0  0  0  0  0  0  0  0  0  0  0
   57.4380   29.7240   43.5130 N   0  0  0  0  0  0  0  0  0  0  0  0
   57.4320   30.7070   44.5580 C   0  0  0  0  0  0  0  0  0  0  0  0
   56.3950   31.3910   44.7740 O   0  0  0  0  0  0  0  0  0  0  0  0
   58.6450   30.9470   45.3690 C   0  0  0  0  0  0  0  0  0  0  0  0
   59.6440   29.9880   45.5280 C   0  0  0  0  0  0  0  0  0  0  0  0
   59.6120   28.6760   44.9480 N   0  0  0  0  0  0  0  0  0  0  0  0
   58.7750   27.5860   45.3520 C   0  0  0  0  0  0  0  0  0  0  0  0
   57.7370   27.2880   44.7020 O   0  0  0  0  0  0  0  0  0  0  0  0
   59.1590   26.7680   46.5430 C   0  0  0  0  0  0  0  0  0  0  0  0
   59.4220   27.6470   47.7240 C   0  0  0  0  0  0  0  0  0  0  0  0
   58.6290   28.6960   48.1430 C   0  0  0  0  0  0  0  0  0  0  0  0
   59.3210   29.2130   49.2250 C   0  0  0  0  0  0  0  0  0  0  0  0
   58.9380   30.3660   50.0710 C   0  0  0  0  0  0  0  0  0  0  0  0
   59.3850   31.6690   49.7810 C   0  0  0  0  0  0  0  0  0  0  0  0
   59.0270   32.7390   50.6070 C   0  0  0  0  0  0  0  0  0  0  0  0
   58.2210   32.5230   51.7270 C   0  0  0  0  0  0  0  0  0  0  0  0
   57.7710   31.2350   52.0240 C   0  0  0  0  0  0  0  0  0  0  0  0
   58.1280   30.1600   51.2030 C   0  0  0  0  0  0  0  0  0  0  0  0
   60.4190   28.5080   49.3930 O   0  0  0  0  0  0  0  0  0  0  0  0
   60.5150   27.5600   48.5050 N   0  0  0  0  0  0  0  0  0  0  0  0
   60.9120   30.6520   46.4090 S   0  0  0  0  0  0  0  0  0  0  0  0
   60.2170   32.1680   46.6180 C   0  0  0  0  0  0  0  0  0  0  0  0
   58.9560   32.1720   46.0060 C   0  0  0  0  0  0  0  0  0  0  0  0
   58.0290   33.3560   46.0870 C   0  0  0  0  0  0  0  0  0  0  0  0
   58.6400   34.6100   45.4380 C   0  0  0  0  0  0  0  0  0  0  0  0
   59.7070   35.3230   46.2940 C   0  0  0  0  0  0  0  0  0  0  0  0
   60.0530   34.5730   47.5940 C   0  0  0  0  0  0  0  0  0  0  0  0
   60.8880   33.2870   47.3820 C   0  0  0  0  0  0  0  0  0  0  0  0
   55.3883   29.5122   43.1195 H   0  0  0  0  0  0  0  0  0  0  0  0
   56.2996   30.5093   41.9355 H   0  0  0  0  0  0  0  0  0  0  0  0
   56.4843   28.7225   41.9355 H   0  0  0  0  0  0  0  0  0  0  0  0
   58.2510   29.0740   43.4180 H   0  0  0  0  0  0  0  0  0  0  0  0
   58.3401   26.0743   46.7841 H   0  0  0  0  0  0  0  0  0  0  0  0
   60.0759   26.2079   46.3072 H   0  0  0  0  0  0  0  0  0  0  0  0
   57.6742   29.0396   47.7183 H   0  0  0  0  0  0  0  0  0  0  0  0
   60.0193   31.8464   48.9000 H   0  0  0  0  0  0  0  0  0  0  0  0
   59.3813   33.7540   50.3740 H   0  0  0  0  0  0  0  0  0  0  0  0
   57.9409   33.3669   52.3746 H   0  0  0  0  0  0  0  0  0  0  0  0
   57.1347   31.0653   52.9051 H   0  0  0  0  0  0  0  0  0  0  0  0
   57.7732   29.1471   51.4440 H   0  0  0  0  0  0  0  0  0  0  0  0
   57.0907   33.1089   45.5687 H   0  0  0  0  0  0  0  0  0  0  0  0
   57.8497   33.5758   47.1498 H   0  0  0  0  0  0  0  0  0  0  0  0
   59.1064   34.3114   44.4876 H   0  0  0  0  0  0  0  0  0  0  0  0
   57.8154   35.3264   45.3086 H   0  0  0  0  0  0  0  0  0  0  0  0
   60.6242   35.4230   45.6950 H   0  0  0  0  0  0  0  0  0  0  0  0
   59.2901   36.2986   46.5843 H   0  0  0  0  0  0  0  0  0  0  0  0
   60.6252   35.2527   48.2425 H   0  0  0  0  0  0  0  0  0  0  0  0
   59.0983   34.2596   48.0416 H   0  0  0  0  0  0  0  0  0  0  0  0
   61.7998   33.5666   46.8339 H   0  0  0  0  0  0  0  0  0  0  0  0
   61.0675   32.8857   48.3903 H   0  0  0  0  0  0  0  0  0  0  0  0
  1  2  1  0
  2  3  1  0
  3  4  2  0
  3  5  1  0
  5  6  2  0
  6  7  1  0
  7  8  1  0
  8  9  2  0
  8 10  1  0
 10 11  1  0
 11 12  1  0
 12 13  2  0
 13 14  1  0
 14 15  2  0
 15 16  1  0
 16 17  2  0
 17 18  1  0
 18 19  2  0
 13 20  1  0
 20 21  1  0
  6 22  1  0
 22 23  1  0
 23 24  2  0
 24 25  1  0
 25 26  1  0
 26 27  1  0
 27 28  1  0
 28 29  1  0
 24  5  1  0
 21 11  2  0
 29 23  1  0
 19 14  1  0
  1 30  1  0
  1 31  1  0
  1 32  1  0
  2 33  1  0
 10 34  1  0
 10 35  1  0
 12 36  1  0
 15 37  1  0
 16 38  1  0
 17 39  1  0
 18 40  1  0
 19 41  1  0
 25 42  1  0
 25 43  1  0
 26 44  1  0
 26 45  1  0
 27 46  1  0
 27 47  1  0
 28 48  1  0
 28 49  1  0
 29 50  1  0
 29 51  1  0
M  CHG  1   7  -1
M  END
>  <UniqueID>  (65) 
58

>  <SMILES>  (65) 
CNC(=O)c1c([N-]C(=O)Cc2cc(-c3ccccc3)on2)sc2c1CCCCC2

>  <Energy>  (65) 
117.29074178072736

>  <Genealogy>  (65) 
CNC(=O)c1c([N-]C(=O)Cc2cc(-c3ccccc3)on2)sc2c1CCCCC2 (protonated)
CNC(=O)c1c([N-]C(=O)Cc2cc(-c3ccccc3)on2)sc2c1CCCCC2 (3D coordinates assigned)
CNC(=O)c1c([N-]C(=O)Cc2cc(-c3ccccc3)on2)sc2c1CCCCC2 (nonaromatic ring conformer: 117.29074178072736 kcal/mol)

>  <smiles>  (65) 
CNC(=O)c1c(NC(=O)Cc2cc(-c3ccccc3)on2)sc2c1CCCCC2

>  <score_type>  (65) 
oracle

>  <origin>  (65) 
adg

>  <m_score__min__energy>  (65) 
-8.8399999999999999

>  <m_primary>  (65) 
energy

$$$$
65:0
     RDKit          3D

 49 51  0  0  0  0  0  0  0  0999 V2000
   63.3340   33.8590   48.8170 C   0  0  0  0  0  0  0  0  0  0  0  0
   62.6470   32.7630   47.5930 S   0  0  0  0  0  0  0  0  0  0  0  0
   63.6870   31.7870   47.1190 O   0  0  0  0  0  0  0  0  0  0  0  0
   62.1830   33.5810   46.4210 O   0  0  0  0  0  0  0  0  0  0  0  0
   61.2870   31.9100   48.2500 N   0  0  0  0  0  0  0  0  0  0  0  0
   60.8260   30.6140   47.8420 C   0  0  0  0  0  0  0  0  0  0  0  0
   60.7990   29.5900   48.7910 C   0  0  0  0  0  0  0  0  0  0  0  0
   60.3570   28.3130   48.4430 C   0  0  0  0  0  0  0  0  0  0  0  0
   59.9500   28.0380   47.1280 C   0  0  0  0  0  0  0  0  0  0  0  0
   59.4360   26.7420   46.7770 N   0  0  0  0  0  0  0  0  0  0  0  0
   58.1860   26.3820   46.6860 C   0  0  0  0  0  0  0  0  0  0  0  0
   57.2090   27.1680   46.0400 C   0  0  0  0  0  0  0  0  0  0  0  0
   55.8860   26.7210   45.9950 C   0  0  0  0  0  0  0  0  0  0  0  0
   55.5410   25.5450   46.5800 N   0  0  0  0  0  0  0  0  0  0  0  0
   56.4570   24.7750   47.2230 C   0  0  0  0  0  0  0  0  0  0  0  0
   57.7910   25.1830   47.2940 C   0  0  0  0  0  0  0  0  0  0  0  0
   59.9340   29.0650   46.1710 C   0  0  0  0  0  0  0  0  0  0  0  0
   59.4720   28.7550   44.8790 O   0  0  0  0  0  0  0  0  0  0  0  0
   58.4870   29.4640   44.1250 C   0  0  0  0  0  0  0  0  0  0  0  0
   57.6150   30.3430   45.0310 C   0  0  0  0  0  0  0  0  0  0  0  0
   57.3610   31.7370   44.4460 C   0  0  0  0  0  0  0  0  0  0  0  0
   58.0140   32.7930   45.2980 C   0  0  0  0  0  0  0  0  0  0  0  0
   58.7270   33.8440   44.6990 C   0  0  0  0  0  0  0  0  0  0  0  0
   59.3570   34.8080   45.4920 C   0  0  0  0  0  0  0  0  0  0  0  0
   59.2880   34.7240   46.8860 C   0  0  0  0  0  0  0  0  0  0  0  0
   58.5910   33.6730   47.4890 C   0  0  0  0  0  0  0  0  0  0  0  0
   57.9590   32.7070   46.6990 C   0  0  0  0  0  0  0  0  0  0  0  0
   60.3910   30.3500   46.5310 C   0  0  0  0  0  0  0  0  0  0  0  0
   63.0969   33.4807   49.8223 H   0  0  0  0  0  0  0  0  0  0  0  0
   64.4257   33.9096   48.6924 H   0  0  0  0  0  0  0  0  0  0  0  0
   62.9037   34.8637   48.6924 H   0  0  0  0  0  0  0  0  0  0  0  0
   61.1287   29.7916   49.8209 H   0  0  0  0  0  0  0  0  0  0  0  0
   60.3274   27.5181   49.2027 H   0  0  0  0  0  0  0  0  0  0  0  0
   57.4866   28.1256   45.5752 H   0  0  0  0  0  0  0  0  0  0  0  0
   55.1210   27.3239   45.4838 H   0  0  0  0  0  0  0  0  0  0  0  0
   56.1474   23.8278   47.6889 H   0  0  0  0  0  0  0  0  0  0  0  0
   58.5293   24.5648   47.8257 H   0  0  0  0  0  0  0  0  0  0  0  0
   58.9931   30.1027   43.3861 H   0  0  0  0  0  0  0  0  0  0  0  0
   57.8377   28.7295   43.6261 H   0  0  0  0  0  0  0  0  0  0  0  0
   56.6465   29.8426   45.1784 H   0  0  0  0  0  0  0  0  0  0  0  0
   58.1557   30.4771   45.9795 H   0  0  0  0  0  0  0  0  0  0  0  0
   57.7771   31.7841   43.4288 H   0  0  0  0  0  0  0  0  0  0  0  0
   56.2767   31.9203   44.4208 H   0  0  0  0  0  0  0  0  0  0  0  0
   58.7901   33.9091   43.6027 H   0  0  0  0  0  0  0  0  0  0  0  0
   59.9079   35.6339   45.0183 H   0  0  0  0  0  0  0  0  0  0  0  0
   59.7821   35.4848   47.5081 H   0  0  0  0  0  0  0  0  0  0  0  0
   58.5395   33.6055   48.5857 H   0  0  0  0  0  0  0  0  0  0  0  0
   57.4171   31.8773   47.1764 H   0  0  0  0  0  0  0  0  0  0  0  0
   60.4073   31.1530   45.7794 H   0  0  0  0  0  0  0  0  0  0  0  0
  1  2  1  0
  2  3  2  0
  2  4  2  0
  2  5  1  0
  5  6  1  0
  6  7  2  0
  7  8  1  0
  8  9  2  0
  9 10  1  0
 10 11  2  3
 11 12  1  0
 12 13  2  0
 13 14  1  0
 14 15  1  0
 15 16  2  0
  9 17  1  0
 17 18  1  0
 18 19  1  0
 19 20  1  0
 20 21  1  0
 21 22  1  0
 22 23  2  0
 23 24  1  0
 24 25  2  0
 25 26  1  0
 26 27  2  0
 17 28  2  0
 28  6  1  0
 16 11  1  0
 27 22  1  0
  1 29  1  0
  1 30  1  0
  1 31  1  0
  7 32  1  0
  8 33  1  0
 12 34  1  0
 13 35  1  0
 15 36  1  0
 16 37  1  0
 19 38  1  0
 19 39  1  0
 20 40  1  0
 20 41  1  0
 21 42  1  0
 21 43  1  0
 23 44  1  0
 24 45  1  0
 25 46  1  0
 26 47  1  0
 27 48  1  0
 28 49  1  0
M  CHG  2   5  -1  14  -1
M  END
>  <UniqueID>  (66) 
59

>  <SMILES>  (66) 
CS(=O)(=O)[N-]c1ccc(N=c2cc[n-]cc2)c(OCCCc2ccccc2)c1

>  <Energy>  (66) 
57.86155091010637

>  <Genealogy>  (66) 
CS(=O)(=O)[N-]c1ccc(N=c2cc[n-]cc2)c(OCCCc2ccccc2)c1 (protonated)
CS(=O)(=O)[N-]c1ccc(N=c2cc[n-]cc2)c(OCCCc2ccccc2)c1 (3D coordinates assigned)
CS(=O)(=O)[N-]c1ccc(N=c2cc[n-]cc2)c(OCCCc2ccccc2)c1 (optimized conformer: 57.86155091010637 kcal/mol)

>  <smiles>  (66) 
CS(=O)(=O)Nc1ccc(N=c2cc[nH]cc2)c(OCCCc2ccccc2)c1

>  <score_type>  (66) 
oracle

>  <origin>  (66) 
adg

>  <m_score__min__energy>  (66) 
-10.619999999999999

>  <m_primary>  (66) 
energy

$$$$
66:0
     RDKit          3D

 38 40  0  0  0  0  0  0  0  0999 V2000
   58.3860   34.4620   45.4910 O   0  0  0  0  0  0  0  0  0  0  0  0
   58.5430   33.2120   45.4580 C   0  0  0  0  0  0  0  0  0  0  0  0
   57.7940   32.4460   44.3930 C   0  0  0  0  0  0  0  0  0  0  0  0
   56.6280   31.7160   44.9110 N   0  0  0  0  0  0  0  0  0  0  0  0
   56.6210   30.0490   44.4060 S   0  0  0  0  0  0  0  0  0  0  0  0
   56.6910   29.9950   42.9060 O   0  0  0  0  0  0  0  0  0  0  0  0
   55.3480   29.3770   44.8460 O   0  0  0  0  0  0  0  0  0  0  0  0
   58.0180   29.1960   45.0590 C   0  0  0  0  0  0  0  0  0  0  0  0
   57.8710   28.2740   46.1060 C   0  0  0  0  0  0  0  0  0  0  0  0
   58.9850   27.5800   46.5920 C   0  0  0  0  0  0  0  0  0  0  0  0
   60.2480   27.8060   46.0370 C   0  0  0  0  0  0  0  0  0  0  0  0
   60.3990   28.7240   44.9950 C   0  0  0  0  0  0  0  0  0  0  0  0
   59.2880   29.4180   44.5060 C   0  0  0  0  0  0  0  0  0  0  0  0
   59.3910   32.5960   46.4540 N   0  0  0  0  0  0  0  0  0  0  0  0
   58.8960   31.5150   47.3110 C   0  0  0  0  0  0  0  0  0  0  0  0
   60.1240   30.9190   48.0290 C   0  0  0  0  0  0  0  0  0  0  0  0
   61.2250   31.8310   47.6270 C   0  0  0  0  0  0  0  0  0  0  0  0
   62.5410   31.8160   48.0900 C   0  0  0  0  0  0  0  0  0  0  0  0
   63.4170   32.8200   47.6520 C   0  0  0  0  0  0  0  0  0  0  0  0
   62.9580   33.8260   46.7870 C   0  0  0  0  0  0  0  0  0  0  0  0
   61.6270   33.8250   46.3390 C   0  0  0  0  0  0  0  0  0  0  0  0
   60.7770   32.7830   46.7440 C   0  0  0  0  0  0  0  0  0  0  0  0
   57.4486   33.1581   43.6290 H   0  0  0  0  0  0  0  0  0  0  0  0
   58.4884   31.6990   43.9809 H   0  0  0  0  0  0  0  0  0  0  0  0
   55.7430   32.1580   44.5850 H   0  0  0  0  0  0  0  0  0  0  0  0
   56.8785   28.0962   46.5458 H   0  0  0  0  0  0  0  0  0  0  0  0
   58.8666   26.8559   47.4116 H   0  0  0  0  0  0  0  0  0  0  0  0
   61.1230   27.2609   46.4208 H   0  0  0  0  0  0  0  0  0  0  0  0
   61.3931   28.9011   44.5586 H   0  0  0  0  0  0  0  0  0  0  0  0
   59.4102   30.1402   43.6853 H   0  0  0  0  0  0  0  0  0  0  0  0
   58.1822   31.9123   48.0477 H   0  0  0  0  0  0  0  0  0  0  0  0
   58.3742   30.7488   46.7188 H   0  0  0  0  0  0  0  0  0  0  0  0
   59.9848   30.9250   49.1201 H   0  0  0  0  0  0  0  0  0  0  0  0
   60.3133   29.8688   47.7620 H   0  0  0  0  0  0  0  0  0  0  0  0
   62.8840   31.0339   48.7833 H   0  0  0  0  0  0  0  0  0  0  0  0
   64.4649   32.8192   47.9866 H   0  0  0  0  0  0  0  0  0  0  0  0
   63.6450   34.6197   46.4582 H   0  0  0  0  0  0  0  0  0  0  0  0
   61.2568   34.6262   45.6825 H   0  0  0  0  0  0  0  0  0  0  0  0
  1  2  2  0
  2  3  1  0
  3  4  1  0
  4  5  1  0
  5  6  2  0
  5  7  2  0
  5  8  1  0
  8  9  2  0
  9 10  1  0
 10 11  2  0
 11 12  1  0
 12 13  2  0
  2 14  1  0
 14 15  1  0
 15 16  1  0
 16 17  1  0
 17 18  2  0
 18 19  1  0
 19 20  2  0
 20 21  1  0
 21 22  2  0
 13  8  1  0
 22 14  1  0
 22 17  1  0
  3 23  1  0
  3 24  1  0
  4 25  1  0
  9 26  1  0
 10 27  1  0
 11 28  1  0
 12 29  1  0
 13 30  1  0
 15 31  1  0
 15 32  1  0
 16 33  1  0
 16 34  1  0
 18 35  1  0
 19 36  1  0
 20 37  1  0
 21 38  1  0
M  END
>  <UniqueID>  (67) 
60

>  <SMILES>  (67) 
O=C(CNS(=O)(=O)c1ccccc1)N1CCc2ccccc21

>  <Energy>  (67) 
56.461752781259065

>  <Genealogy>  (67) 
O=C(CNS(=O)(=O)c1ccccc1)N1CCc2ccccc21 (3D coordinates assigned)
O=C(CNS(=O)(=O)c1ccccc1)N1CCc2ccccc21 (nonaromatic ring conformer: 56.461752781259065 kcal/mol)

>  <smiles>  (67) 
O=C(CNS(=O)(=O)c1ccccc1)N1CCc2ccccc21

>  <score_type>  (67) 
oracle

>  <origin>  (67) 
adg

>  <m_score__min__energy>  (67) 
-8.0999999999999996

>  <m_primary>  (67) 
energy

$$$$
67:0
     RDKit          3D

 50 52  0  0  0  0  0  0  0  0999 V2000
   57.7290   31.3310   51.1650 C   0  0  0  0  0  0  0  0  0  0  0  0
   58.7570   31.2950   50.1810 O   0  0  0  0  0  0  0  0  0  0  0  0
   58.9390   32.2650   49.1810 C   0  0  0  0  0  0  0  0  0  0  0  0
   58.6310   32.0050   47.8310 C   0  0  0  0  0  0  0  0  0  0  0  0
   58.8210   32.9920   46.8530 C   0  0  0  0  0  0  0  0  0  0  0  0
   58.5130   32.7340   45.5070 C   0  0  0  0  0  0  0  0  0  0  0  0
   58.7060   33.7250   44.5400 C   0  0  0  0  0  0  0  0  0  0  0  0
   59.2090   34.9760   44.9070 C   0  0  0  0  0  0  0  0  0  0  0  0
   59.5200   35.2440   46.2430 C   0  0  0  0  0  0  0  0  0  0  0  0
   59.3300   34.2570   47.2240 C   0  0  0  0  0  0  0  0  0  0  0  0
   59.6380   34.5160   48.5650 C   0  0  0  0  0  0  0  0  0  0  0  0
   59.4430   33.5310   49.5460 C   0  0  0  0  0  0  0  0  0  0  0  0
   59.7630   33.8380   50.9890 C   0  0  0  0  0  0  0  0  0  0  0  0
   60.8070   32.9360   51.4960 N   0  0  0  0  0  0  0  0  0  0  0  0
   62.1710   33.4180   51.2190 C   0  0  0  0  0  0  0  0  0  0  0  0
   62.6140   33.1150   49.7990 C   0  0  0  0  0  0  0  0  0  0  0  0
   63.0280   34.1750   48.9730 C   0  0  0  0  0  0  0  0  0  0  0  0
   63.3850   33.9430   47.6430 C   0  0  0  0  0  0  0  0  0  0  0  0
   63.3310   32.6510   47.1190 C   0  0  0  0  0  0  0  0  0  0  0  0
   62.9300   31.5850   47.9260 C   0  0  0  0  0  0  0  0  0  0  0  0
   62.5820   31.8020   49.2670 C   0  0  0  0  0  0  0  0  0  0  0  0
   62.1970   30.6390   50.0900 C   0  0  0  0  0  0  0  0  0  0  0  0
   61.0900   30.0790   49.8640 O   0  0  0  0  0  0  0  0  0  0  0  0
   63.0690   30.1280   51.1170 N   0  0  0  0  0  0  0  0  0  0  0  0
   64.4880   30.4980   51.1350 C   0  0  0  0  0  0  0  0  0  0  0  0
   62.5340   29.1900   52.1080 C   0  0  0  0  0  0  0  0  0  0  0  0
   58.1807   31.3152   52.1679 H   0  0  0  0  0  0  0  0  0  0  0  0
   57.1374   32.2504   51.0438 H   0  0  0  0  0  0  0  0  0  0  0  0
   57.0745   30.4552   51.0438 H   0  0  0  0  0  0  0  0  0  0  0  0
   58.2381   31.0192   47.5415 H   0  0  0  0  0  0  0  0  0  0  0  0
   58.1190   31.7499   45.2131 H   0  0  0  0  0  0  0  0  0  0  0  0
   58.4613   33.5194   43.4875 H   0  0  0  0  0  0  0  0  0  0  0  0
   59.3606   35.7520   44.1423 H   0  0  0  0  0  0  0  0  0  0  0  0
   59.9147   36.2307   46.5270 H   0  0  0  0  0  0  0  0  0  0  0  0
   60.0364   35.5002   48.8525 H   0  0  0  0  0  0  0  0  0  0  0  0
   60.1153   34.8771   51.0670 H   0  0  0  0  0  0  0  0  0  0  0  0
   58.8525   33.6960   51.5897 H   0  0  0  0  0  0  0  0  0  0  0  0
   60.6730   31.9950   51.0600 H   0  0  0  0  0  0  0  0  0  0  0  0
   62.1992   34.5068   51.3732 H   0  0  0  0  0  0  0  0  0  0  0  0
   62.8567   32.8964   51.9030 H   0  0  0  0  0  0  0  0  0  0  0  0
   63.0711   35.1967   49.3783 H   0  0  0  0  0  0  0  0  0  0  0  0
   63.7093   34.7802   47.0075 H   0  0  0  0  0  0  0  0  0  0  0  0
   63.6048   32.4723   46.0687 H   0  0  0  0  0  0  0  0  0  0  0  0
   62.8867   30.5686   47.5075 H   0  0  0  0  0  0  0  0  0  0  0  0
   64.8305   30.5873   52.1765 H   0  0  0  0  0  0  0  0  0  0  0  0
   65.0755   29.7230   50.6210 H   0  0  0  0  0  0  0  0  0  0  0  0
   64.6223   31.4612   50.6210 H   0  0  0  0  0  0  0  0  0  0  0  0
   62.7476   29.5645   53.1200 H   0  0  0  0  0  0  0  0  0  0  0  0
   61.4463   29.0958   51.9739 H   0  0  0  0  0  0  0  0  0  0  0  0
   63.0066   28.2058   51.9739 H   0  0  0  0  0  0  0  0  0  0  0  0
  1  2  1  0
  2  3  1  0
  3  4  2  0
  4  5  1  0
  5  6  2  0
  6  7  1  0
  7  8  2  0
  8  9  1  0
  9 10  2  0
 10 11  1  0
 11 12  2  0
 12 13  1  0
 13 14  1  0
 14 15  1  0
 15 16  1  0
 16 17  2  0
 17 18  1  0
 18 19  2  0
 19 20  1  0
 20 21  2  0
 21 22  1  0
 22 23  2  0
 22 24  1  0
 24 25  1  0
 24 26  1  0
 12  3  1  0
 21 16  1  0
 10  5  1  0
  1 27  1  0
  1 28  1  0
  1 29  1  0
  4 30  1  0
  6 31  1  0
  7 32  1  0
  8 33  1  0
  9 34  1  0
 11 35  1  0
 13 36  1  0
 13 37  1  0
 14 38  1  0
 15 39  1  0
 15 40  1  0
 17 41  1  0
 18 42  1  0
 19 43  1  0
 20 44  1  0
 25 45  1  0
 25 46  1  0
 25 47  1  0
 26 48  1  0
 26 49  1  0
 26 50  1  0
M  END
>  <UniqueID>  (68) 
61

>  <SMILES>  (68) 
COc1cc2ccccc2cc1CNCc1ccccc1C(=O)N(C)C

>  <Energy>  (68) 
59.91733050133963

>  <Genealogy>  (68) 
COc1cc2ccccc2cc1CNCc1ccccc1C(=O)N(C)C (3D coordinates assigned)
COc1cc2ccccc2cc1CNCc1ccccc1C(=O)N(C)C (optimized conformer: 59.91733050133963 kcal/mol)

>  <smiles>  (68) 
COc1cc2ccccc2cc1CNCc1ccccc1C(=O)N(C)C

>  <score_type>  (68) 
oracle

>  <origin>  (68) 
adg

>  <m_score__min__energy>  (68) 
-9.0999999999999996

>  <m_primary>  (68) 
energy

$$$$
68:0
     RDKit          3D

 61 64  0  0  0  0  0  0  0  0999 V2000
   59.5090   25.5640   46.2880 C   0  0  0  0  0  0  0  0  0  0  0  0
   58.1460   26.0070   45.9920 N   0  0  0  0  0  0  0  0  0  0  0  0
   57.9080   27.3350   45.4940 C   0  0  0  0  0  0  0  0  0  0  0  0
   57.8300   27.5740   44.1120 C   0  0  0  0  0  0  0  0  0  0  0  0
   57.6210   28.8700   43.6290 C   0  0  0  0  0  0  0  0  0  0  0  0
   57.4720   29.9490   44.5190 C   0  0  0  0  0  0  0  0  0  0  0  0
   57.2260   31.3180   44.0110 C   0  0  0  0  0  0  0  0  0  0  0  0
   57.4800   31.5930   42.8090 O   0  0  0  0  0  0  0  0  0  0  0  0
   56.6800   32.3190   44.8840 N   0  0  0  0  0  0  0  0  0  0  0  0
   57.3460   33.5080   45.4280 C   0  0  0  0  0  0  0  0  0  0  0  0
   58.7470   33.7540   44.8090 C   0  0  0  0  0  0  0  0  0  0  0  0
   59.8710   33.6840   45.8510 C   0  0  0  0  0  0  0  0  0  0  0  0
   59.6760   32.5000   46.7050 N   0  0  0  0  0  0  0  0  0  0  0  0
   60.8830   32.1950   47.5020 C   0  0  0  0  0  0  0  0  0  0  0  0
   60.7660   30.8290   48.1310 C   0  0  0  0  0  0  0  0  0  0  0  0
   60.7650   30.6820   49.5290 C   0  0  0  0  0  0  0  0  0  0  0  0
   60.6580   29.4090   50.1000 C   0  0  0  0  0  0  0  0  0  0  0  0
   60.5540   28.2790   49.2850 C   0  0  0  0  0  0  0  0  0  0  0  0
   60.5580   28.4180   47.8940 C   0  0  0  0  0  0  0  0  0  0  0  0
   60.6620   29.6890   47.3180 C   0  0  0  0  0  0  0  0  0  0  0  0
   58.4870   32.6340   47.5810 C   0  0  0  0  0  0  0  0  0  0  0  0
   57.3530   33.4870   46.9670 C   0  0  0  0  0  0  0  0  0  0  0  0
   57.5470   29.7050   45.9030 C   0  0  0  0  0  0  0  0  0  0  0  0
   57.7660   28.4120   46.3840 C   0  0  0  0  0  0  0  0  0  0  0  0
   56.8050   24.9240   46.2290 S   0  0  0  0  0  0  0  0  0  0  0  0
   55.5040   25.6610   46.0580 O   0  0  0  0  0  0  0  0  0  0  0  0
   56.8570   24.3490   47.6190 O   0  0  0  0  0  0  0  0  0  0  0  0
   56.8790   23.6430   45.0180 C   0  0  0  0  0  0  0  0  0  0  0  0
   56.0830   23.7370   43.8660 C   0  0  0  0  0  0  0  0  0  0  0  0
   56.1590   22.7500   42.8770 C   0  0  0  0  0  0  0  0  0  0  0  0
   57.0350   21.6680   43.0300 C   0  0  0  0  0  0  0  0  0  0  0  0
   57.8380   21.5740   44.1730 C   0  0  0  0  0  0  0  0  0  0  0  0
   57.7620   22.5600   45.1660 C   0  0  0  0  0  0  0  0  0  0  0  0
   59.6510   25.5178   47.3778 H   0  0  0  0  0  0  0  0  0  0  0  0
   59.6726   24.5664   45.8543 H   0  0  0  0  0  0  0  0  0  0  0  0
   60.2279   26.2747   45.8543 H   0  0  0  0  0  0  0  0  0  0  0  0
   57.9339   26.7372   43.4056 H   0  0  0  0  0  0  0  0  0  0  0  0
   57.5728   29.0468   42.5444 H   0  0  0  0  0  0  0  0  0  0  0  0
   56.7500   34.3818   45.1258 H   0  0  0  0  0  0  0  0  0  0  0  0
   58.9316   32.9901   44.0394 H   0  0  0  0  0  0  0  0  0  0  0  0
   58.7501   34.7678   44.3820 H   0  0  0  0  0  0  0  0  0  0  0  0
   60.8417   33.6108   45.3388 H   0  0  0  0  0  0  0  0  0  0  0  0
   59.8518   34.5914   46.4725 H   0  0  0  0  0  0  0  0  0  0  0  0
   61.7658   32.2177   46.8461 H   0  0  0  0  0  0  0  0  0  0  0  0
   60.9845   32.9471   48.2982 H   0  0  0  0  0  0  0  0  0  0  0  0
   60.8484   31.5686   50.1748 H   0  0  0  0  0  0  0  0  0  0  0  0
   60.6558   29.2976   51.1943 H   0  0  0  0  0  0  0  0  0  0  0  0
   60.4690   27.2801   49.7378 H   0  0  0  0  0  0  0  0  0  0  0  0
   60.4794   27.5281   47.2522 H   0  0  0  0  0  0  0  0  0  0  0  0
   60.6623   29.7955   46.2232 H   0  0  0  0  0  0  0  0  0  0  0  0
   58.0922   31.6280   47.7862 H   0  0  0  0  0  0  0  0  0  0  0  0
   58.8181   33.1504   48.4941 H   0  0  0  0  0  0  0  0  0  0  0  0
   56.3903   33.0814   47.3114 H   0  0  0  0  0  0  0  0  0  0  0  0
   57.5201   34.5227   47.2978 H   0  0  0  0  0  0  0  0  0  0  0  0
   57.4323   30.5388   46.6113 H   0  0  0  0  0  0  0  0  0  0  0  0
   57.8277   28.2360   47.4681 H   0  0  0  0  0  0  0  0  0  0  0  0
   55.3979   24.5884   43.7402 H   0  0  0  0  0  0  0  0  0  0  0  0
   55.5297   22.8241   41.9779 H   0  0  0  0  0  0  0  0  0  0  0  0
   57.0921   20.8922   42.2523 H   0  0  0  0  0  0  0  0  0  0  0  0
   58.5287   20.7261   44.2917 H   0  0  0  0  0  0  0  0  0  0  0  0
   58.3947   22.4860   46.0628 H   0  0  0  0  0  0  0  0  0  0  0  0
  1  2  1  0
  2  3  1  0
  3  4  2  0
  4  5  1  0
  5  6  2  0
  6  7  1  0
  7  8  2  0
  7  9  1  0
  9 10  1  0
 10 11  1  0
 11 12  1  0
 12 13  1  0
 13 14  1  0
 14 15  1  0
 15 16  2  0
 16 17  1  0
 17 18  2  0
 18 19  1  0
 19 20  2  0
 13 21  1  0
 21 22  1  0
  6 23  1  0
 23 24  2  0
  2 25  1  0
 25 26  2  0
 25 27  2  0
 25 28  1  0
 28 29  2  0
 29 30  1  0
 30 31  2  0
 31 32  1  0
 32 33  2  0
 24  3  1  0
 33 28  1  0
 22 10  1  0
 20 15  1  0
  1 34  1  0
  1 35  1  0
  1 36  1  0
  4 37  1  0
  5 38  1  0
 10 39  1  0
 11 40  1  0
 11 41  1  0
 12 42  1  0
 12 43  1  0
 14 44  1  0
 14 45  1  0
 16 46  1  0
 17 47  1  0
 18 48  1  0
 19 49  1  0
 20 50  1  0
 21 51  1  0
 21 52  1  0
 22 53  1  0
 22 54  1  0
 23 55  1  0
 24 56  1  0
 29 57  1  0
 30 58  1  0
 31 59  1  0
 32 60  1  0
 33 61  1  0
M  CHG  1   9  -1
M  END
>  <UniqueID>  (69) 
62

>  <SMILES>  (69) 
CN(c1ccc(C(=O)[N-]C2CCN(Cc3ccccc3)CC2)cc1)S(=O)(=O)c1ccccc1

>  <Energy>  (69) 
78.18628345665158

>  <Genealogy>  (69) 
CN(c1ccc(C(=O)[N-]C2CCN(Cc3ccccc3)CC2)cc1)S(=O)(=O)c1ccccc1 (protonated)
CN(c1ccc(C(=O)[N-]C2CCN(Cc3ccccc3)CC2)cc1)S(=O)(=O)c1ccccc1 (3D coordinates assigned)
CN(c1ccc(C(=O)[N-]C2CCN(Cc3ccccc3)CC2)cc1)S(=O)(=O)c1ccccc1 (nonaromatic ring conformer: 78.18628345665158 kcal/mol)

>  <smiles>  (69) 
CN(c1ccc(C(=O)NC2CCN(Cc3ccccc3)CC2)cc1)S(=O)(=O)c1ccccc1

>  <score_type>  (69) 
oracle

>  <origin>  (69) 
adg

>  <m_score__min__energy>  (69) 
-12.119999999999999

>  <m_primary>  (69) 
energy

$$$$
69:0
     RDKit          3D

 44 46  0  0  0  0  0  0  0  0999 V2000
   59.2770   35.3460   45.2200 C   0  0  0  0  0  0  0  0  0  0  0  0
   58.7850   33.9330   45.1950 C   0  0  0  0  0  0  0  0  0  0  0  0
   58.7280   33.1830   46.3740 C   0  0  0  0  0  0  0  0  0  0  0  0
   58.2760   31.8640   46.3250 C   0  0  0  0  0  0  0  0  0  0  0  0
   57.8760   31.2950   45.1040 C   0  0  0  0  0  0  0  0  0  0  0  0
   57.4000   29.8910   45.0470 C   0  0  0  0  0  0  0  0  0  0  0  0
   56.1610   29.6600   44.9870 O   0  0  0  0  0  0  0  0  0  0  0  0
   58.3310   28.7970   45.0100 N   0  0  0  0  0  0  0  0  0  0  0  0
   57.9890   27.4450   45.3590 C   0  0  0  0  0  0  0  0  0  0  0  0
   58.9570   26.4240   45.3730 C   0  0  0  0  0  0  0  0  0  0  0  0
   58.5950   25.1130   45.6950 C   0  0  0  0  0  0  0  0  0  0  0  0
   57.2640   24.8020   46.0000 C   0  0  0  0  0  0  0  0  0  0  0  0
   56.8210   23.1460   46.4050 S   0  0  0  0  0  0  0  0  0  0  0  0
   57.0130   22.9200   47.8800 O   0  0  0  0  0  0  0  0  0  0  0  0
   55.3720   22.9450   46.0600 O   0  0  0  0  0  0  0  0  0  0  0  0
   57.8210   22.0370   45.4880 N   0  0  0  0  0  0  0  0  0  0  0  0
   57.2450   20.6740   45.4540 C   0  0  0  0  0  0  0  0  0  0  0  0
   56.5060   20.3730   44.1370 C   0  0  0  0  0  0  0  0  0  0  0  0
   55.9060   21.5450   43.6340 O   0  0  0  0  0  0  0  0  0  0  0  0
   56.9010   22.4530   43.1910 C   0  0  0  0  0  0  0  0  0  0  0  0
   58.1170   22.5560   44.1420 C   0  0  0  0  0  0  0  0  0  0  0  0
   56.2930   25.8100   45.9620 C   0  0  0  0  0  0  0  0  0  0  0  0
   56.6520   27.1210   45.6390 C   0  0  0  0  0  0  0  0  0  0  0  0
   57.9640   32.0840   43.9440 C   0  0  0  0  0  0  0  0  0  0  0  0
   58.4110   33.3650   44.0160 N   0  0  0  0  0  0  0  0  0  0  0  0
   59.3919   35.6759   46.2631 H   0  0  0  0  0  0  0  0  0  0  0  0
   60.2486   35.4051   44.7077 H   0  0  0  0  0  0  0  0  0  0  0  0
   58.5522   35.9958   44.7077 H   0  0  0  0  0  0  0  0  0  0  0  0
   59.0367   33.6289   47.3310 H   0  0  0  0  0  0  0  0  0  0  0  0
   58.2325   31.2661   47.2473 H   0  0  0  0  0  0  0  0  0  0  0  0
   59.2760   28.9710   44.5990 H   0  0  0  0  0  0  0  0  0  0  0  0
   60.0037   26.6587   45.1294 H   0  0  0  0  0  0  0  0  0  0  0  0
   59.3591   24.3218   45.7089 H   0  0  0  0  0  0  0  0  0  0  0  0
   58.0596   19.9447   45.5749 H   0  0  0  0  0  0  0  0  0  0  0  0
   56.5109   20.6034   46.2701 H   0  0  0  0  0  0  0  0  0  0  0  0
   57.2237   19.9869   43.3982 H   0  0  0  0  0  0  0  0  0  0  0  0
   55.7233   19.6243   44.3289 H   0  0  0  0  0  0  0  0  0  0  0  0
   57.2586   22.1223   42.2047 H   0  0  0  0  0  0  0  0  0  0  0  0
   56.4349   23.4488   43.1563 H   0  0  0  0  0  0  0  0  0  0  0  0
   58.9495   21.9774   43.7152 H   0  0  0  0  0  0  0  0  0  0  0  0
   58.3762   23.6204   44.2418 H   0  0  0  0  0  0  0  0  0  0  0  0
   55.2437   25.5689   46.1873 H   0  0  0  0  0  0  0  0  0  0  0  0
   55.8814   27.9051   45.6038 H   0  0  0  0  0  0  0  0  0  0  0  0
   57.6692   31.6617   42.9720 H   0  0  0  0  0  0  0  0  0  0  0  0
  1  2  1  0
  2  3  2  0
  3  4  1  0
  4  5  2  0
  5  6  1  0
  6  7  2  0
  6  8  1  0
  8  9  1  0
  9 10  2  0
 10 11  1  0
 11 12  2  0
 12 13  1  0
 13 14  2  0
 13 15  2  0
 13 16  1  0
 16 17  1  0
 17 18  1  0
 18 19  1  0
 19 20  1  0
 20 21  1  0
 12 22  1  0
 22 23  2  0
  5 24  1  0
 24 25  2  0
 25  2  1  0
 23  9  1  0
 21 16  1  0
  1 26  1  0
  1 27  1  0
  1 28  1  0
  3 29  1  0
  4 30  1  0
  8 31  1  0
 10 32  1  0
 11 33  1  0
 17 34  1  0
 17 35  1  0
 18 36  1  0
 18 37  1  0
 20 38  1  0
 20 39  1  0
 21 40  1  0
 21 41  1  0
 22 42  1  0
 23 43  1  0
 24 44  1  0
M  END
>  <UniqueID>  (70) 
63

>  <SMILES>  (70) 
Cc1ccc(C(=O)Nc2ccc(S(=O)(=O)N3CCOCC3)cc2)cn1

>  <Energy>  (70) 
61.19457415186671

>  <Genealogy>  (70) 
Cc1ccc(C(=O)Nc2ccc(S(=O)(=O)N3CCOCC3)cc2)cn1 (3D coordinates assigned)
Cc1ccc(C(=O)Nc2ccc(S(=O)(=O)N3CCOCC3)cc2)cn1 (nonaromatic ring conformer: 61.19457415186671 kcal/mol)

>  <smiles>  (70) 
Cc1ccc(C(=O)Nc2ccc(S(=O)(=O)N3CCOCC3)cc2)cn1

>  <score_type>  (70) 
oracle

>  <origin>  (70) 
adg

>  <m_score__min__energy>  (70) 
-8.2899999999999991

>  <m_primary>  (70) 
energy

$$$$
70:0
     RDKit          3D

 51 54  0  0  1  0  0  0  0  0999 V2000
   59.6110   35.1110   46.0390 C   0  0  0  0  0  0  0  0  0  0  0  0
   59.2680   34.0120   46.8250 O   0  0  0  0  0  0  0  0  0  0  0  0
   58.9970   32.7570   46.3320 C   0  0  0  0  0  0  0  0  0  0  0  0
   57.7880   32.5950   45.6660 C   0  0  0  0  0  0  0  0  0  0  0  0
   57.4230   31.3800   45.1360 C   0  0  0  0  0  0  0  0  0  0  0  0
   56.2610   31.2250   44.4960 N   0  0  0  0  0  0  0  0  0  0  0  0
   55.9120   30.0220   43.9770 C   0  0  0  0  0  0  0  0  0  0  0  0
   56.7710   28.9980   44.1290 N   0  0  0  0  0  0  0  0  0  0  0  0
   57.9510   29.1140   44.7690 C   0  0  0  0  0  0  0  0  0  0  0  0
   58.7700   28.1130   44.9060 N   0  0  0  0  0  0  0  0  0  0  0  0
   58.2730   26.7810   44.7520 C   0  0  0  0  0  0  0  0  0  0  0  0
   57.8860   26.3060   43.5130 C   0  0  0  0  0  0  0  0  0  0  0  0
   57.4090   25.0080   43.3980 C   0  0  0  0  0  0  0  0  0  0  0  0
   57.3220   24.1980   44.5180 C   0  0  0  0  0  0  0  0  0  0  0  0
   56.8150   22.7980   44.4370 C   0  0  0  0  0  0  0  0  0  0  0  0
   57.7130   24.6810   45.7640 C   0  0  0  0  0  0  0  0  0  0  0  0
   57.6170   23.8630   46.8410 F   0  0  0  0  0  0  0  0  0  0  0  0
   58.1870   25.9690   45.8730 C   0  0  0  0  0  0  0  0  0  0  0  0
   58.3110   30.3370   45.2980 C   0  0  0  0  0  0  0  0  0  0  0  0
   59.4920   30.5010   45.9490 C   0  0  0  0  0  0  0  0  0  0  0  0
   59.8890   31.7390   46.5030 C   0  0  0  0  0  0  0  0  0  0  0  0
   61.0870   31.7580   47.1230 O   0  0  0  0  0  0  0  0  0  0  0  0
   61.9050   32.8070   47.3870 C   0  0  1  0  0  0  0  0  0  0  0  0
   61.7920   33.2950   48.8530 C   0  0  0  0  0  0  0  0  0  0  0  0
   63.0100   34.1950   48.8750 C   0  0  0  0  0  0  0  0  0  0  0  0
   64.0310   33.3160   48.3360 N   0  0  0  0  0  0  0  0  0  0  0  0
   64.5880   32.5540   49.4360 C   0  0  0  0  0  0  0  0  0  0  0  0
   63.3890   32.4480   47.3910 C   0  0  0  0  0  0  0  0  0  0  0  0
   59.8754   35.9583   46.6888 H   0  0  0  0  0  0  0  0  0  0  0  0
   60.4715   34.8534   45.4040 H   0  0  0  0  0  0  0  0  0  0  0  0
   58.7568   35.3886   45.4040 H   0  0  0  0  0  0  0  0  0  0  0  0
   57.1103   33.4551   45.5609 H   0  0  0  0  0  0  0  0  0  0  0  0
   54.9567   29.8876   43.4484 H   0  0  0  0  0  0  0  0  0  0  0  0
   56.4850   28.0800   43.7240 H   0  0  0  0  0  0  0  0  0  0  0  0
   57.9556   26.9518   42.6252 H   0  0  0  0  0  0  0  0  0  0  0  0
   57.0995   24.6218   42.4156 H   0  0  0  0  0  0  0  0  0  0  0  0
   56.6712   22.4008   45.4526 H   0  0  0  0  0  0  0  0  0  0  0  0
   55.8554   22.7861   43.8993 H   0  0  0  0  0  0  0  0  0  0  0  0
   57.5444   22.1744   43.8993 H   0  0  0  0  0  0  0  0  0  0  0  0
   58.4991   26.3560   46.8542 H   0  0  0  0  0  0  0  0  0  0  0  0
   60.1653   29.6368   46.0488 H   0  0  0  0  0  0  0  0  0  0  0  0
   61.5999   33.5224   46.6091 H   0  0  0  0  0  0  0  0  0  0  0  0
   60.8606   33.8511   49.0356 H   0  0  0  0  0  0  0  0  0  0  0  0
   61.7615   32.5080   49.6209 H   0  0  0  0  0  0  0  0  0  0  0  0
   62.8662   35.0809   48.2390 H   0  0  0  0  0  0  0  0  0  0  0  0
   63.2484   34.6018   49.8688 H   0  0  0  0  0  0  0  0  0  0  0  0
   64.2644   32.9966   50.3896 H   0  0  0  0  0  0  0  0  0  0  0  0
   64.2360   31.5135   49.3766 H   0  0  0  0  0  0  0  0  0  0  0  0
   65.6862   32.5735   49.3766 H   0  0  0  0  0  0  0  0  0  0  0  0
   63.8164   32.5994   46.3888 H   0  0  0  0  0  0  0  0  0  0  0  0
   63.5357   31.3931   47.6662 H   0  0  0  0  0  0  0  0  0  0  0  0
  1  2  1  0
  2  3  1  0
  3  4  2  0
  4  5  1  0
  5  6  1  0
  6  7  2  0
  7  8  1  0
  8  9  1  0
  9 10  2  0
 10 11  1  0
 11 12  2  0
 12 13  1  0
 13 14  2  0
 14 15  1  0
 14 16  1  0
 16 17  1  0
 16 18  2  0
  9 19  1  0
 19 20  1  0
 20 21  2  0
 21 22  1  0
 22 23  1  0
 23 24  1  0
 24 25  1  0
 25 26  1  0
 26 27  1  0
 26 28  1  0
 21  3  1  0
 28 23  1  0
 19  5  2  0
 18 11  1  0
  1 29  1  0
  1 30  1  0
  1 31  1  0
  4 32  1  0
  7 33  1  0
  8 34  1  0
 12 35  1  0
 13 36  1  0
 15 37  1  0
 15 38  1  0
 15 39  1  0
 18 40  1  0
 20 41  1  0
 23 42  1  6
 24 43  1  0
 24 44  1  0
 25 45  1  0
 25 46  1  0
 27 47  1  0
 27 48  1  0
 27 49  1  0
 28 50  1  0
 28 51  1  0
M  END
>  <smiles>  (71) 
COc1cc2nc[nH]c(=Nc3ccc(C)c(F)c3)c2cc1OC1CCN(C)C1

>  <score_type>  (71) 
oracle

>  <origin>  (71) 
adg

>  <m_score__min__energy>  (71) 
-7.9500000000000002

>  <m_primary>  (71) 
energy

$$$$
71:0
     RDKit          3D

 51 53  0  0  1  0  0  0  0  0999 V2000
   57.0600   31.2340   42.5710 C   0  0  0  0  0  0  0  0  0  0  0  0
   57.7510   30.2900   43.4390 N   0  0  0  0  0  0  0  0  0  0  0  0
   57.0890   29.8970   44.6260 C   0  0  0  0  0  0  0  0  0  0  0  0
   55.9500   30.3960   44.8360 O   0  0  0  0  0  0  0  0  0  0  0  0
   57.6590   28.9610   45.5870 C   0  0  0  0  0  0  0  0  0  0  0  0
   57.1460   27.7020   45.8200 C   0  0  0  0  0  0  0  0  0  0  0  0
   57.7130   26.8360   46.7420 C   0  0  0  0  0  0  0  0  0  0  0  0
   58.8250   27.2590   47.4430 C   0  0  0  0  0  0  0  0  0  0  0  0
   59.3660   28.4860   47.2480 C   0  0  0  0  0  0  0  0  0  0  0  0
   60.5090   28.9930   47.9310 N   0  0  0  0  0  0  0  0  0  0  0  0
   60.6460   30.2050   48.3290 C   0  0  0  0  0  0  0  0  0  0  0  0
   61.5670   30.9760   47.7460 N   0  0  0  0  0  0  0  0  0  0  0  0
   61.7700   32.2540   48.1110 C   0  0  0  0  0  0  0  0  0  0  0  0
   62.7660   33.0730   47.4710 N   0  0  0  0  0  0  0  0  0  0  0  0
   64.1200   33.0840   47.9870 C   0  0  0  0  0  0  0  0  0  0  0  0
   62.3480   33.8430   46.3400 C   0  0  0  0  0  0  0  0  0  0  0  0
   61.0130   32.7650   49.1000 N   0  0  0  0  0  0  0  0  0  0  0  0
   60.0630   32.0070   49.7180 C   0  0  0  0  0  0  0  0  0  0  0  0
   59.2910   32.5460   50.7340 C   0  0  0  0  0  0  0  0  0  0  0  0
   58.3440   31.7360   51.3250 C   0  0  0  0  0  0  0  0  0  0  0  0
   57.5820   32.2940   52.3380 O   0  0  0  0  0  0  0  0  0  0  0  0
   58.0830   33.3760   53.1340 C   0  0  0  0  0  0  0  0  0  0  0  0
   58.1230   30.4290   50.9640 C   0  0  0  0  0  0  0  0  0  0  0  0
   57.1410   29.7200   51.6350 O   0  0  0  0  0  0  0  0  0  0  0  0
   57.3850   29.3520   52.9770 C   0  0  0  0  0  0  0  0  0  0  0  0
   58.8950   29.8980   49.9530 C   0  0  0  0  0  0  0  0  0  0  0  0
   59.8550   30.6930   49.3430 C   0  0  0  0  0  0  0  0  0  0  0  0
   58.7710   29.3230   46.3170 C   0  0  0  0  0  0  0  0  0  0  0  0
   56.5211   31.9703   43.1854 H   0  0  0  0  0  0  0  0  0  0  0  0
   57.7933   31.7528   41.9361 H   0  0  0  0  0  0  0  0  0  0  0  0
   56.3438   30.6918   41.9361 H   0  0  0  0  0  0  0  0  0  0  0  0
   58.6990   29.9070   43.2130 H   0  0  0  0  0  0  0  0  0  0  0  0
   56.2595   27.3750   45.2567 H   0  0  0  0  0  0  0  0  0  0  0  0
   57.2874   25.8359   46.9112 H   0  0  0  0  0  0  0  0  0  0  0  0
   59.2836   26.5822   48.1790 H   0  0  0  0  0  0  0  0  0  0  0  0
   64.0933   33.0838   49.0867 H   0  0  0  0  0  0  0  0  0  0  0  0
   64.6546   32.1902   47.6330 H   0  0  0  0  0  0  0  0  0  0  0  0
   64.6400   33.9864   47.6330 H   0  0  0  0  0  0  0  0  0  0  0  0
   61.8497   34.7609   46.6853 H   0  0  0  0  0  0  0  0  0  0  0  0
   63.2258   34.1086   45.7326 H   0  0  0  0  0  0  0  0  0  0  0  0
   61.6471   33.2516   45.7326 H   0  0  0  0  0  0  0  0  0  0  0  0
   61.1380   33.7550   49.4150 H   0  0  0  0  0  0  0  0  0  0  0  0
   59.4290   33.5877   51.0594 H   0  0  0  0  0  0  0  0  0  0  0  0
   57.9692   33.1302   54.2001 H   0  0  0  0  0  0  0  0  0  0  0  0
   59.1471   33.5366   52.9063 H   0  0  0  0  0  0  0  0  0  0  0  0
   57.5171   34.2914   52.9063 H   0  0  0  0  0  0  0  0  0  0  0  0
   56.9039   30.0775   53.6494 H   0  0  0  0  0  0  0  0  0  0  0  0
   56.9720   28.3496   53.1632 H   0  0  0  0  0  0  0  0  0  0  0  0
   58.4691   29.3423   53.1632 H   0  0  0  0  0  0  0  0  0  0  0  0
   58.7516   28.8553   49.6332 H   0  0  0  0  0  0  0  0  0  0  0  0
   59.2054   30.3203   46.1534 H   0  0  0  0  0  0  0  0  0  0  0  0
  1  2  1  0
  2  3  1  0
  3  4  2  0
  3  5  1  0
  5  6  2  0
  6  7  1  0
  7  8  2  0
  8  9  1  0
  9 10  1  0
 10 11  2  0
 11 12  1  0
 12 13  2  0
 13 14  1  0
 14 15  1  0
 14 16  1  0
 13 17  1  0
 17 18  1  0
 18 19  2  0
 19 20  1  0
 20 21  1  0
 21 22  1  0
 20 23  2  0
 23 24  1  0
 24 25  1  0
 23 26  1  0
 26 27  2  0
  9 28  2  0
 28  5  1  0
 27 11  1  0
 27 18  1  0
  1 29  1  0
  1 30  1  0
  1 31  1  0
  2 32  1  0
  6 33  1  0
  7 34  1  0
  8 35  1  0
 15 36  1  0
 15 37  1  0
 15 38  1  0
 16 39  1  0
 16 40  1  0
 16 41  1  0
 17 42  1  0
 19 43  1  0
 22 44  1  0
 22 45  1  0
 22 46  1  0
 25 47  1  0
 25 48  1  0
 25 49  1  0
 26 50  1  0
 28 51  1  0
M  END
>  <smiles>  (72) 
CNC(=O)c1cccc(N=c2nc(N(C)C)[nH]c3cc(OC)c(OC)cc23)c1

>  <score_type>  (72) 
oracle

>  <origin>  (72) 
adg

>  <m_score__min__energy>  (72) 
-7.7199999999999998

>  <m_primary>  (72) 
energy

$$$$
72:0
     RDKit          3D

 34 35  0  0  0  0  0  0  0  0999 V2000
   57.3729   30.7368   46.4703 H   0  0  0  0  0  0  0  0  0  0  0  0
   57.6950   31.4770   45.7230 C   0  0  0  0  0  0  0  0  0  0  0  0
   57.4150   31.2740   44.3550 C   0  0  0  0  0  0  0  0  0  0  0  0
   56.5450   29.8080   43.8570 S   0  0  0  0  0  0  0  0  0  0  0  0
   55.4950   29.4840   44.8820 O   0  0  0  0  0  0  0  0  0  0  0  0
   55.8890   30.0390   42.5250 O   0  0  0  0  0  0  0  0  0  0  0  0
   57.6050   28.4480   43.7050 N   0  0  0  0  0  0  0  0  0  0  0  0
   58.2830   28.6590   42.9400 H   0  0  0  0  0  0  0  0  0  0  0  0
   57.0280   27.6300   43.4060 H   0  0  0  0  0  0  0  0  0  0  0  0
   57.8240   32.2550   43.3980 C   0  0  0  0  0  0  0  0  0  0  0  0
   57.5540   32.0860   41.9260 C   0  0  0  0  0  0  0  0  0  0  0  0
   56.6291   31.5071   41.7870 H   0  0  0  0  0  0  0  0  0  0  0  0
   57.4413   33.0751   41.4580 H   0  0  0  0  0  0  0  0  0  0  0  0
   58.3944   31.5524   41.4580 H   0  0  0  0  0  0  0  0  0  0  0  0
   58.5260   33.4000   43.8290 C   0  0  0  0  0  0  0  0  0  0  0  0
   58.8612   34.1570   43.1047 H   0  0  0  0  0  0  0  0  0  0  0  0
   58.7860   33.5540   45.1830 C   0  0  0  0  0  0  0  0  0  0  0  0
   59.5810   34.8140   45.9580 S   0  0  0  0  0  0  0  0  0  0  0  0
   59.3770   34.0860   47.4820 C   0  0  0  0  0  0  0  0  0  0  0  0
   59.7550   34.5870   48.6200 N   0  0  0  0  0  0  0  0  0  0  0  0
   60.8400   34.1090   49.4270 C   0  0  0  0  0  0  0  0  0  0  0  0
   60.5810   33.5100   50.5030 O   0  0  0  0  0  0  0  0  0  0  0  0
   62.2410   34.2230   48.9890 C   0  0  0  0  0  0  0  0  0  0  0  0
   63.1410   34.5270   49.8190 O   0  0  0  0  0  0  0  0  0  0  0  0
   62.5570   34.0200   47.6430 O   0  0  0  0  0  0  0  0  0  0  0  0
   63.2450   32.8610   47.1830 C   0  0  0  0  0  0  0  0  0  0  0  0
   64.2150   32.7835   47.6959 H   0  0  0  0  0  0  0  0  0  0  0  0
   63.4072   32.9393   46.0979 H   0  0  0  0  0  0  0  0  0  0  0  0
   62.4150   31.6230   47.4810 C   0  0  0  0  0  0  0  0  0  0  0  0
   62.3280   31.4932   48.5698 H   0  0  0  0  0  0  0  0  0  0  0  0
   61.4122   31.7401   47.0444 H   0  0  0  0  0  0  0  0  0  0  0  0
   62.9042   30.7398   47.0444 H   0  0  0  0  0  0  0  0  0  0  0  0
   58.7030   32.9140   47.4060 N   0  0  0  0  0  0  0  0  0  0  0  0
   58.3820   32.6210   46.1200 C   0  0  0  0  0  0  0  0  0  0  0  0
  1  2  1  0
  2  3  2  0
  3  4  1  0
  4  5  2  0
  4  6  2  0
  4  7  1  0
  7  8  1  0
  7  9  1  0
  3 10  1  0
 10 11  1  0
 11 12  1  0
 11 13  1  0
 11 14  1  0
 10 15  2  0
 15 16  1  0
 15 17  1  0
 17 18  1  0
 18 19  1  0
 19 20  2  0
 20 21  1  0
 21 22  2  0
 21 23  1  0
 23 24  2  0
 23 25  1  0
 25 26  1  0
 26 27  1  0
 26 28  1  0
 26 29  1  0
 29 30  1  0
 29 31  1  0
 29 32  1  0
 19 33  1  0
 33 34  1  0
 34  2  1  0
 34 17  2  0
M  CHG  1  33  -1
M  END
>  <UniqueID>  (73) 
64

>  <SMILES>  (73) 
CCOC(=O)C(=O)/N=c1/[n-]c2cc(S(N)(=O)=O)c(C)cc2s1

>  <Energy>  (73) 
70.86574088350329

>  <Genealogy>  (73) 
CCOC(=O)C(=O)N=c1[n-]c2cc(S(N)(=O)=O)c(C)cc2s1 (protonated)
CCOC(=O)C(=O)/N=c1/[n-]c2cc(S(N)(=O)=O)c(C)cc2s1 (cis-trans isomerization)
CCOC(=O)C(=O)/N=c1/[n-]c2cc(S(N)(=O)=O)c(C)cc2s1 (3D coordinates assigned)
CCOC(=O)C(=O)/N=c1/[n-]c2cc(S(N)(=O)=O)c(C)cc2s1 (optimized conformer: 70.86574088350329 kcal/mol)

>  <smiles>  (73) 
CCOC(=O)C(=O)N=c1[nH]c2cc(S(N)(=O)=O)c(C)cc2s1

>  <score_type>  (73) 
oracle

>  <origin>  (73) 
adg

>  <m_score__min__energy>  (73) 
-9.0999999999999996

>  <m_primary>  (73) 
energy

$$$$
73:0
     RDKit          3D

 55 58  0  0  0  0  0  0  0  0999 V2000
   57.7670   25.9260   43.5910 C   0  0  0  0  0  0  0  0  0  0  0  0
   58.0670   27.2950   42.9920 C   0  0  0  0  0  0  0  0  0  0  0  0
   57.7610   28.3530   43.9630 N   0  0  0  0  0  0  0  0  0  0  0  0
   56.7530   29.3760   43.6530 C   0  0  0  0  0  0  0  0  0  0  0  0
   57.4050   30.7480   43.5270 C   0  0  0  0  0  0  0  0  0  0  0  0
   58.4900   28.4150   45.2020 C   0  0  0  0  0  0  0  0  0  0  0  0
   59.7750   27.8610   45.2960 C   0  0  0  0  0  0  0  0  0  0  0  0
   60.4780   27.9110   46.5020 C   0  0  0  0  0  0  0  0  0  0  0  0
   59.9060   28.5040   47.6340 C   0  0  0  0  0  0  0  0  0  0  0  0
   60.6760   28.5550   48.8430 N   0  0  0  0  0  0  0  0  0  0  0  0
   60.9140   29.7080   49.6620 C   0  0  0  0  0  0  0  0  0  0  0  0
   60.8500   29.6280   50.9180 O   0  0  0  0  0  0  0  0  0  0  0  0
   61.2210   31.0100   49.0310 C   0  0  0  0  0  0  0  0  0  0  0  0
   60.2470   31.5790   48.2000 C   0  0  0  0  0  0  0  0  0  0  0  0
   60.5100   32.7710   47.5100 C   0  0  0  0  0  0  0  0  0  0  0  0
   59.4800   33.3630   46.6190 C   0  0  0  0  0  0  0  0  0  0  0  0
   58.1490   32.9030   46.6510 C   0  0  0  0  0  0  0  0  0  0  0  0
   57.1870   33.4650   45.8070 C   0  0  0  0  0  0  0  0  0  0  0  0
   57.5390   34.4890   44.9260 C   0  0  0  0  0  0  0  0  0  0  0  0
   58.8550   34.9540   44.8860 C   0  0  0  0  0  0  0  0  0  0  0  0
   59.8230   34.3950   45.7270 C   0  0  0  0  0  0  0  0  0  0  0  0
   61.7210   33.3810   47.6590 N   0  0  0  0  0  0  0  0  0  0  0  0
   62.6870   32.8770   48.4800 C   0  0  0  0  0  0  0  0  0  0  0  0
   63.9090   33.5540   48.6200 C   0  0  0  0  0  0  0  0  0  0  0  0
   64.8900   33.0690   49.4840 C   0  0  0  0  0  0  0  0  0  0  0  0
   64.6580   31.9110   50.2260 C   0  0  0  0  0  0  0  0  0  0  0  0
   63.4500   31.2210   50.0950 C   0  0  0  0  0  0  0  0  0  0  0  0
   62.4560   31.6790   49.2030 C   0  0  0  0  0  0  0  0  0  0  0  0
   58.6300   29.0860   47.5340 C   0  0  0  0  0  0  0  0  0  0  0  0
   57.9240   29.0330   46.3280 C   0  0  0  0  0  0  0  0  0  0  0  0
   57.7821   25.9948   44.6887 H   0  0  0  0  0  0  0  0  0  0  0  0
   56.7739   25.5898   43.2583 H   0  0  0  0  0  0  0  0  0  0  0  0
   58.5285   25.2053   43.2583 H   0  0  0  0  0  0  0  0  0  0  0  0
   59.1319   27.3475   42.7214 H   0  0  0  0  0  0  0  0  0  0  0  0
   57.4438   27.4389   42.0970 H   0  0  0  0  0  0  0  0  0  0  0  0
   56.2592   29.1215   42.7036 H   0  0  0  0  0  0  0  0  0  0  0  0
   56.0152   29.4066   44.4683 H   0  0  0  0  0  0  0  0  0  0  0  0
   57.5986   31.1555   44.5302 H   0  0  0  0  0  0  0  0  0  0  0  0
   58.3546   30.6538   42.9799 H   0  0  0  0  0  0  0  0  0  0  0  0
   56.7322   31.4248   42.9799 H   0  0  0  0  0  0  0  0  0  0  0  0
   60.2315   27.3848   44.4157 H   0  0  0  0  0  0  0  0  0  0  0  0
   61.4887   27.4812   46.5628 H   0  0  0  0  0  0  0  0  0  0  0  0
   59.2694   31.0873   48.0881 H   0  0  0  0  0  0  0  0  0  0  0  0
   57.8652   32.0972   47.3439 H   0  0  0  0  0  0  0  0  0  0  0  0
   56.1499   33.0995   45.8371 H   0  0  0  0  0  0  0  0  0  0  0  0
   56.7796   34.9296   44.2633 H   0  0  0  0  0  0  0  0  0  0  0  0
   59.1311   35.7614   44.1918 H   0  0  0  0  0  0  0  0  0  0  0  0
   60.8584   34.7646   45.6905 H   0  0  0  0  0  0  0  0  0  0  0  0
   61.9190   34.2550   47.1200 H   0  0  0  0  0  0  0  0  0  0  0  0
   64.0937   34.4730   48.0443 H   0  0  0  0  0  0  0  0  0  0  0  0
   65.8483   33.6004   49.5806 H   0  0  0  0  0  0  0  0  0  0  0  0
   65.4290   31.5394   50.9170 H   0  0  0  0  0  0  0  0  0  0  0  0
   63.2721   30.3140   50.6914 H   0  0  0  0  0  0  0  0  0  0  0  0
   58.1854   29.5849   48.4077 H   0  0  0  0  0  0  0  0  0  0  0  0
   56.9202   29.4778   46.2615 H   0  0  0  0  0  0  0  0  0  0  0  0
  1  2  1  0
  2  3  1  0
  3  4  1  0
  4  5  1  0
  3  6  1  0
  6  7  2  0
  7  8  1  0
  8  9  2  0
  9 10  1  0
 10 11  1  0
 11 12  2  0
 11 13  1  0
 13 14  2  0
 14 15  1  0
 15 16  1  0
 16 17  2  0
 17 18  1  0
 18 19  2  0
 19 20  1  0
 20 21  2  0
 15 22  2  0
 22 23  1  0
 23 24  2  0
 24 25  1  0
 25 26  2  0
 26 27  1  0
 27 28  2  0
  9 29  1  0
 29 30  2  0
 30  6  1  0
 28 13  1  0
 21 16  1  0
 28 23  1  0
  1 31  1  0
  1 32  1  0
  1 33  1  0
  2 34  1  0
  2 35  1  0
  4 36  1  0
  4 37  1  0
  5 38  1  0
  5 39  1  0
  5 40  1  0
  7 41  1  0
  8 42  1  0
 14 43  1  0
 17 44  1  0
 18 45  1  0
 19 46  1  0
 20 47  1  0
 21 48  1  0
 22 49  1  0
 24 50  1  0
 25 51  1  0
 26 52  1  0
 27 53  1  0
 29 54  1  0
 30 55  1  0
M  CHG  2  10  -1  22   1
M  END
>  <UniqueID>  (74) 
65

>  <SMILES>  (74) 
CCN(CC)c1ccc([N-]C(=O)c2cc(-c3ccccc3)[nH+]c3ccccc23)cc1

>  <Energy>  (74) 
75.86961225529997

>  <Genealogy>  (74) 
CCN(CC)c1ccc([N-]C(=O)c2cc(-c3ccccc3)[nH+]c3ccccc23)cc1 (protonated)
CCN(CC)c1ccc([N-]C(=O)c2cc(-c3ccccc3)[nH+]c3ccccc23)cc1 (3D coordinates assigned)
CCN(CC)c1ccc([N-]C(=O)c2cc(-c3ccccc3)[nH+]c3ccccc23)cc1 (optimized conformer: 75.86961225529997 kcal/mol)

>  <smiles>  (74) 
CCN(CC)c1ccc(NC(=O)c2cc(-c3ccccc3)nc3ccccc23)cc1

>  <score_type>  (74) 
oracle

>  <origin>  (74) 
adg

>  <m_score__min__energy>  (74) 
-8.1099999999999994

>  <m_primary>  (74) 
energy

$$$$
74:0
     RDKit          3D

 58 61  0  0  0  0  0  0  0  0999 V2000
   58.0987   29.1098   47.1556 H   0  0  0  0  0  0  0  0  0  0  0  0
   57.7470   29.6240   46.2490 C   0  0  0  0  0  0  0  0  0  0  0  0
   58.1460   30.9390   45.9960 C   0  0  0  0  0  0  0  0  0  0  0  0
   58.8340   31.4456   46.6889 H   0  0  0  0  0  0  0  0  0  0  0  0
   57.6720   31.6170   44.8600 C   0  0  0  0  0  0  0  0  0  0  0  0
   58.1050   33.0290   44.5780 C   0  0  0  0  0  0  0  0  0  0  0  0
   57.2184   33.6457   44.3690 H   0  0  0  0  0  0  0  0  0  0  0  0
   58.7781   33.0302   43.7080 H   0  0  0  0  0  0  0  0  0  0  0  0
   58.8340   33.5950   45.7600 C   0  0  0  0  0  0  0  0  0  0  0  0
   58.3770   34.6200   46.3340 O   0  0  0  0  0  0  0  0  0  0  0  0
   60.0570   32.9920   46.2100 N   0  0  0  0  0  0  0  0  0  0  0  0
   60.5660   32.3580   45.5530 H   0  0  0  0  0  0  0  0  0  0  0  0
   60.6830   33.3020   47.4660 C   0  0  0  0  0  0  0  0  0  0  0  0
   62.0760   33.3670   47.5410 C   0  0  0  0  0  0  0  0  0  0  0  0
   62.6778   33.1961   46.6362 H   0  0  0  0  0  0  0  0  0  0  0  0
   62.7170   33.6480   48.7580 C   0  0  0  0  0  0  0  0  0  0  0  0
   64.1160   33.7420   48.8540 O   0  0  0  0  0  0  0  0  0  0  0  0
   64.9350   32.8610   49.6160 C   0  0  0  0  0  0  0  0  0  0  0  0
   64.7680   33.0406   50.6883 H   0  0  0  0  0  0  0  0  0  0  0  0
   64.6770   31.8194   49.3742 H   0  0  0  0  0  0  0  0  0  0  0  0
   65.9926   33.0424   49.3742 H   0  0  0  0  0  0  0  0  0  0  0  0
   61.9580   33.8460   49.9250 C   0  0  0  0  0  0  0  0  0  0  0  0
   62.6740   34.1230   51.1050 O   0  0  0  0  0  0  0  0  0  0  0  0
   62.5840   33.4200   52.3380 C   0  0  0  0  0  0  0  0  0  0  0  0
   62.6750   34.1306   53.1727 H   0  0  0  0  0  0  0  0  0  0  0  0
   61.6128   32.9069   52.3975 H   0  0  0  0  0  0  0  0  0  0  0  0
   63.3946   32.6788   52.3975 H   0  0  0  0  0  0  0  0  0  0  0  0
   60.5430   33.7560   49.8650 C   0  0  0  0  0  0  0  0  0  0  0  0
   59.7780   33.9390   51.0290 O   0  0  0  0  0  0  0  0  0  0  0  0
   58.7270   33.0800   51.4610 C   0  0  0  0  0  0  0  0  0  0  0  0
   58.7000   33.0579   52.5604 H   0  0  0  0  0  0  0  0  0  0  0  0
   57.7663   33.4548   51.0781 H   0  0  0  0  0  0  0  0  0  0  0  0
   58.9031   32.0639   51.0781 H   0  0  0  0  0  0  0  0  0  0  0  0
   59.9230   33.4820   48.6300 C   0  0  0  0  0  0  0  0  0  0  0  0
   58.8267   33.4082   48.5784 H   0  0  0  0  0  0  0  0  0  0  0  0
   56.8040   30.9550   43.9770 C   0  0  0  0  0  0  0  0  0  0  0  0
   56.4321   31.4753   43.0821 H   0  0  0  0  0  0  0  0  0  0  0  0
   56.4100   29.6370   44.2300 C   0  0  0  0  0  0  0  0  0  0  0  0
   55.7125   29.1331   43.5447 H   0  0  0  0  0  0  0  0  0  0  0  0
   56.8990   28.9560   45.3510 C   0  0  0  0  0  0  0  0  0  0  0  0
   56.4210   27.6340   45.6380 N   0  0  0  0  0  0  0  0  0  0  0  0
   57.0750   26.5050   45.6060 C   0  0  0  0  0  0  0  0  0  0  0  0
   56.6370   25.5430   44.7480 N   0  0  0  0  0  0  0  0  0  0  0  0
   57.2420   24.3310   44.6520 C   0  0  0  0  0  0  0  0  0  0  0  0
   56.7540   23.3590   43.7720 C   0  0  0  0  0  0  0  0  0  0  0  0
   55.8789   23.5769   43.1421 H   0  0  0  0  0  0  0  0  0  0  0  0
   57.3810   22.1060   43.6930 C   0  0  0  0  0  0  0  0  0  0  0  0
   56.8860   21.1090   42.7940 N   0  0  0  0  0  0  0  0  0  0  0  0
   57.0130   20.0930   42.9990 H   0  0  0  0  0  0  0  0  0  0  0  0
   56.4020   21.3810   41.9100 H   0  0  0  0  0  0  0  0  0  0  0  0
   58.4980   21.8350   44.5000 C   0  0  0  0  0  0  0  0  0  0  0  0
   58.9908   20.8534   44.4409 H   0  0  0  0  0  0  0  0  0  0  0  0
   58.9870   22.8080   45.3790 C   0  0  0  0  0  0  0  0  0  0  0  0
   59.8628   22.5915   46.0084 H   0  0  0  0  0  0  0  0  0  0  0  0
   58.3610   24.0550   45.4560 C   0  0  0  0  0  0  0  0  0  0  0  0
   58.8260   25.0150   46.2950 N   0  0  0  0  0  0  0  0  0  0  0  0
   58.2290   26.2330   46.3890 C   0  0  0  0  0  0  0  0  0  0  0  0
   58.7420   27.1000   47.1430 O   0  0  0  0  0  0  0  0  0  0  0  0
  1  2  1  0
  2  3  2  0
  3  4  1  0
  3  5  1  0
  5  6  1  0
  6  7  1  0
  6  8  1  0
  6  9  1  0
  9 10  2  0
  9 11  1  0
 11 12  1  0
 11 13  1  0
 13 14  2  0
 14 15  1  0
 14 16  1  0
 16 17  1  0
 17 18  1  0
 18 19  1  0
 18 20  1  0
 18 21  1  0
 16 22  2  0
 22 23  1  0
 23 24  1  0
 24 25  1  0
 24 26  1  0
 24 27  1  0
 22 28  1  0
 28 29  1  0
 29 30  1  0
 30 31  1  0
 30 32  1  0
 30 33  1  0
 28 34  2  0
 34 35  1  0
  5 36  2  0
 36 37  1  0
 36 38  1  0
 38 39  1  0
 38 40  2  0
 40 41  1  0
 41 42  2  0
 42 43  1  0
 43 44  1  0
 44 45  2  0
 45 46  1  0
 45 47  1  0
 47 48  1  0
 48 49  1  0
 48 50  1  0
 47 51  2  0
 51 52  1  0
 51 53  1  0
 53 54  1  0
 53 55  2  0
 55 56  1  0
 56 57  1  0
 57 58  2  0
 40  2  1  0
 57 42  1  0
 34 13  1  0
 55 44  1  0
M  CHG  2  43  -1  56  -1
M  END
>  <UniqueID>  (75) 
66

>  <SMILES>  (75) 
COc1cc(NC(=O)Cc2ccc(/N=c3/[n-]c4cc(N)ccc4[n-]c3=O)cc2)cc(OC)c1OC

>  <Energy>  (75) 
81.75245373699583

>  <Genealogy>  (75) 
COc1cc(NC(=O)Cc2ccc(N=c3[n-]c4cc(N)ccc4[n-]c3=O)cc2)cc(OC)c1OC (protonated)
COc1cc(NC(=O)Cc2ccc(/N=c3/[n-]c4cc(N)ccc4[n-]c3=O)cc2)cc(OC)c1OC (cis-trans isomerization)
COc1cc(NC(=O)Cc2ccc(/N=c3/[n-]c4cc(N)ccc4[n-]c3=O)cc2)cc(OC)c1OC (3D coordinates assigned)
COc1cc(NC(=O)Cc2ccc(/N=c3/[n-]c4cc(N)ccc4[n-]c3=O)cc2)cc(OC)c1OC (optimized conformer: 81.75245373699583 kcal/mol)

>  <smiles>  (75) 
COc1cc(NC(=O)Cc2ccc(N=c3[nH]c4cc(N)ccc4[nH]c3=O)cc2)cc(OC)c1OC

>  <score_type>  (75) 
oracle

>  <origin>  (75) 
adg

>  <m_score__min__energy>  (75) 
-10.699999999999999

>  <m_primary>  (75) 
energy

$$$$
75:0
     RDKit          3D

 59 62  0  0  0  0  0  0  0  0999 V2000
   55.6600   29.3690   44.7590 C   0  0  0  0  0  0  0  0  0  0  0  0
   55.8870   29.8670   43.3330 C   0  0  0  0  0  0  0  0  0  0  0  0
   57.2690   30.5190   43.1330 C   0  0  0  0  0  0  0  0  0  0  0  0
   58.3280   30.0300   44.1390 C   0  0  0  0  0  0  0  0  0  0  0  0
   58.6440   31.0620   45.2080 C   0  0  0  0  0  0  0  0  0  0  0  0
   57.7100   32.0250   45.4140 N   0  0  0  0  0  0  0  0  0  0  0  0
   57.8750   33.0170   46.3130 C   0  0  0  0  0  0  0  0  0  0  0  0
   56.9590   33.8700   46.4600 O   0  0  0  0  0  0  0  0  0  0  0  0
   59.0610   33.0930   47.0460 C   0  0  0  0  0  0  0  0  0  0  0  0
   59.2840   34.1430   47.9580 C   0  0  0  0  0  0  0  0  0  0  0  0
   60.4900   34.2310   48.6490 C   0  0  0  0  0  0  0  0  0  0  0  0
   61.4880   33.2880   48.4290 C   0  0  0  0  0  0  0  0  0  0  0  0
   61.2810   32.2350   47.5340 C   0  0  0  0  0  0  0  0  0  0  0  0
   60.0470   32.0920   46.8450 C   0  0  0  0  0  0  0  0  0  0  0  0
   59.7950   31.0390   45.9780 N   0  0  0  0  0  0  0  0  0  0  0  0
   60.7080   29.8720   45.9050 C   0  0  0  0  0  0  0  0  0  0  0  0
   60.0460   28.5940   46.3730 C   0  0  0  0  0  0  0  0  0  0  0  0
   60.4760   27.3650   45.8500 C   0  0  0  0  0  0  0  0  0  0  0  0
   59.8700   26.1710   46.2500 C   0  0  0  0  0  0  0  0  0  0  0  0
   58.8240   26.1860   47.1880 C   0  0  0  0  0  0  0  0  0  0  0  0
   58.1590   24.9850   47.6050 N   0  0  0  0  0  0  0  0  0  0  0  0
   56.9450   24.4520   47.0640 C   0  0  0  0  0  0  0  0  0  0  0  0
   55.8610   24.5920   47.6880 O   0  0  0  0  0  0  0  0  0  0  0  0
   56.9790   23.7290   45.7690 C   0  0  0  0  0  0  0  0  0  0  0  0
   58.2080   23.1840   45.3550 C   0  0  0  0  0  0  0  0  0  0  0  0
   58.3020   22.4480   44.1740 C   0  0  0  0  0  0  0  0  0  0  0  0
   57.1730   22.2480   43.3840 C   0  0  0  0  0  0  0  0  0  0  0  0
   55.9480   22.7930   43.7650 C   0  0  0  0  0  0  0  0  0  0  0  0
   55.8320   23.5450   44.9470 C   0  0  0  0  0  0  0  0  0  0  0  0
   54.2590   24.2690   45.3200 S   0  0  0  0  0  0  0  0  0  0  0  0
   54.4500   25.9610   45.6180 N   0  0  0  0  0  0  0  0  0  0  0  0
   53.3120   24.0590   44.1710 O   0  0  0  0  0  0  0  0  0  0  0  0
   53.6680   23.6250   46.5440 O   0  0  0  0  0  0  0  0  0  0  0  0
   58.3660   27.4130   47.6790 C   0  0  0  0  0  0  0  0  0  0  0  0
   58.9640   28.6090   47.2740 C   0  0  0  0  0  0  0  0  0  0  0  0
   56.0071   30.1305   45.4729 H   0  0  0  0  0  0  0  0  0  0  0  0
   54.5875   29.1815   44.9155 H   0  0  0  0  0  0  0  0  0  0  0  0
   56.2220   28.4364   44.9155 H   0  0  0  0  0  0  0  0  0  0  0  0
   55.8004   29.0124   42.6458 H   0  0  0  0  0  0  0  0  0  0  0  0
   55.1285   30.6374   43.1300 H   0  0  0  0  0  0  0  0  0  0  0  0
   57.6202   30.2868   42.1167 H   0  0  0  0  0  0  0  0  0  0  0  0
   57.1440   31.6001   43.2932 H   0  0  0  0  0  0  0  0  0  0  0  0
   57.9533   29.1194   44.6292 H   0  0  0  0  0  0  0  0  0  0  0  0
   59.2548   29.8391   43.5782 H   0  0  0  0  0  0  0  0  0  0  0  0
   58.5014   34.8976   48.1254 H   0  0  0  0  0  0  0  0  0  0  0  0
   60.6531   35.0466   49.3689 H   0  0  0  0  0  0  0  0  0  0  0  0
   62.4462   33.3714   48.9627 H   0  0  0  0  0  0  0  0  0  0  0  0
   62.0859   31.5057   47.3603 H   0  0  0  0  0  0  0  0  0  0  0  0
   61.0319   29.7411   44.8619 H   0  0  0  0  0  0  0  0  0  0  0  0
   61.5620   30.0711   46.5691 H   0  0  0  0  0  0  0  0  0  0  0  0
   61.2974   27.3412   45.1187 H   0  0  0  0  0  0  0  0  0  0  0  0
   60.2135   25.2148   45.8285 H   0  0  0  0  0  0  0  0  0  0  0  0
   59.1062   23.3403   45.9705 H   0  0  0  0  0  0  0  0  0  0  0  0
   59.2696   22.0249   43.8662 H   0  0  0  0  0  0  0  0  0  0  0  0
   57.2479   21.6591   42.4579 H   0  0  0  0  0  0  0  0  0  0  0  0
   55.0617   22.6328   43.1334 H   0  0  0  0  0  0  0  0  0  0  0  0
   53.5090   26.3340   45.8760 H   0  0  0  0  0  0  0  0  0  0  0  0
   57.5274   27.4366   48.3905 H   0  0  0  0  0  0  0  0  0  0  0  0
   58.5876   29.5674   47.6610 H   0  0  0  0  0  0  0  0  0  0  0  0
  1  2  1  0
  2  3  1  0
  3  4  1  0
  4  5  1  0
  5  6  2  0
  6  7  1  0
  7  8  2  0
  7  9  1  0
  9 10  2  0
 10 11  1  0
 11 12  2  0
 12 13  1  0
 13 14  2  0
 14 15  1  0
 15 16  1  0
 16 17  1  0
 17 18  2  0
 18 19  1  0
 19 20  2  0
 20 21  1  0
 21 22  1  0
 22 23  2  0
 22 24  1  0
 24 25  2  0
 25 26  1  0
 26 27  2  0
 27 28  1  0
 28 29  2  0
 29 30  1  0
 30 31  1  0
 30 32  2  0
 30 33  2  0
 20 34  1  0
 34 35  2  0
 15  5  1  0
 35 17  1  0
 14  9  1  0
 29 24  1  0
  1 36  1  0
  1 37  1  0
  1 38  1  0
  2 39  1  0
  2 40  1  0
  3 41  1  0
  3 42  1  0
  4 43  1  0
  4 44  1  0
 10 45  1  0
 11 46  1  0
 12 47  1  0
 13 48  1  0
 16 49  1  0
 16 50  1  0
 18 51  1  0
 19 52  1  0
 25 53  1  0
 26 54  1  0
 27 55  1  0
 28 56  1  0
 31 57  1  0
 34 58  1  0
 35 59  1  0
M  CHG  2  21  -1  31  -1
M  END
>  <UniqueID>  (76) 
67

>  <SMILES>  (76) 
CCCCc1nc(=O)c2ccccc2n1Cc1ccc([N-]C(=O)c2ccccc2S([NH-])(=O)=O)cc1

>  <Energy>  (76) 
82.32600762582182

>  <Genealogy>  (76) 
CCCCc1nc(=O)c2ccccc2n1Cc1ccc([N-]C(=O)c2ccccc2S([NH-])(=O)=O)cc1 (protonated)
CCCCc1nc(=O)c2ccccc2n1Cc1ccc([N-]C(=O)c2ccccc2S([NH-])(=O)=O)cc1 (3D coordinates assigned)
CCCCc1nc(=O)c2ccccc2n1Cc1ccc([N-]C(=O)c2ccccc2S([NH-])(=O)=O)cc1 (optimized conformer: 82.32600762582182 kcal/mol)

>  <smiles>  (76) 
CCCCc1nc(=O)c2ccccc2n1Cc1ccc(NC(=O)c2ccccc2S(N)(=O)=O)cc1

>  <score_type>  (76) 
oracle

>  <origin>  (76) 
adg

>  <m_score__min__energy>  (76) 
-15.27

>  <m_primary>  (76) 
energy

$$$$
76:0
     RDKit          3D

 39 40  0  0  0  0  0  0  0  0999 V2000
   56.6720   22.5380   43.6870 C   0  0  0  0  0  0  0  0  0  0  0  0
   55.8540   23.8170   43.8630 C   0  0  0  0  0  0  0  0  0  0  0  0
   55.4620   24.0630   45.3260 C   0  0  0  0  0  0  0  0  0  0  0  0
   55.8600   25.4370   45.7810 C   0  0  0  0  0  0  0  0  0  0  0  0
   54.9640   26.2980   45.9950 O   0  0  0  0  0  0  0  0  0  0  0  0
   57.2470   25.7610   45.9680 N   0  0  0  0  0  0  0  0  0  0  0  0
   57.7470   27.1000   46.1120 C   0  0  0  0  0  0  0  0  0  0  0  0
   58.1320   27.6080   47.3650 C   0  0  0  0  0  0  0  0  0  0  0  0
   58.5800   28.9260   47.4840 C   0  0  0  0  0  0  0  0  0  0  0  0
   58.6450   29.7500   46.3590 C   0  0  0  0  0  0  0  0  0  0  0  0
   58.2640   29.2590   45.0980 C   0  0  0  0  0  0  0  0  0  0  0  0
   58.2880   30.0970   43.9290 N   0  0  0  0  0  0  0  0  0  0  0  0
   57.4540   31.2510   43.7590 C   0  0  0  0  0  0  0  0  0  0  0  0
   57.3920   31.9720   42.2850 S   0  0  0  0  0  0  0  0  0  0  0  0
   56.9170   31.9180   44.9100 N   0  0  0  0  0  0  0  0  0  0  0  0
   57.2790   33.2280   45.3670 C   0  0  0  0  0  0  0  0  0  0  0  0
   56.6460   34.2210   44.9240 O   0  0  0  0  0  0  0  0  0  0  0  0
   58.4060   33.4500   46.2920 C   0  0  0  0  0  0  0  0  0  0  0  0
   59.5560   34.1910   46.0390 C   0  0  0  0  0  0  0  0  0  0  0  0
   60.4240   34.2590   47.1360 C   0  0  0  0  0  0  0  0  0  0  0  0
   59.9590   33.5850   48.2580 C   0  0  0  0  0  0  0  0  0  0  0  0
   58.4650   32.9100   47.8840 S   0  0  0  0  0  0  0  0  0  0  0  0
   57.7910   27.9420   44.9900 C   0  0  0  0  0  0  0  0  0  0  0  0
   56.9326   22.1306   44.6750 H   0  0  0  0  0  0  0  0  0  0  0  0
   56.0794   21.7975   43.1297 H   0  0  0  0  0  0  0  0  0  0  0  0
   57.5927   22.7654   43.1297 H   0  0  0  0  0  0  0  0  0  0  0  0
   56.4514   24.6701   43.5089 H   0  0  0  0  0  0  0  0  0  0  0  0
   54.9271   23.7054   43.2813 H   0  0  0  0  0  0  0  0  0  0  0  0
   54.3719   23.9555   45.4264 H   0  0  0  0  0  0  0  0  0  0  0  0
   55.9885   23.3273   45.9517 H   0  0  0  0  0  0  0  0  0  0  0  0
   57.9250   24.9710   46.0650 H   0  0  0  0  0  0  0  0  0  0  0  0
   58.0803   26.9648   48.2559 H   0  0  0  0  0  0  0  0  0  0  0  0
   58.8825   29.3156   48.4672 H   0  0  0  0  0  0  0  0  0  0  0  0
   58.9958   30.7877   46.4596 H   0  0  0  0  0  0  0  0  0  0  0  0
   58.9890   29.8810   43.1840 H   0  0  0  0  0  0  0  0  0  0  0  0
   59.7629   34.6754   45.0733 H   0  0  0  0  0  0  0  0  0  0  0  0
   61.3838   34.7957   47.1114 H   0  0  0  0  0  0  0  0  0  0  0  0
   60.4784   33.5064   49.2244 H   0  0  0  0  0  0  0  0  0  0  0  0
   57.4507   27.5652   44.0142 H   0  0  0  0  0  0  0  0  0  0  0  0
  1  2  1  0
  2  3  1  0
  3  4  1  0
  4  5  2  0
  4  6  1  0
  6  7  1  0
  7  8  2  0
  8  9  1  0
  9 10  2  0
 10 11  1  0
 11 12  1  0
 12 13  1  0
 13 14  2  0
 13 15  1  0
 15 16  1  0
 16 17  2  0
 16 18  1  0
 18 19  2  0
 19 20  1  0
 20 21  2  0
 21 22  1  0
 11 23  2  0
 23  7  1  0
 22 18  1  0
  1 24  1  0
  1 25  1  0
  1 26  1  0
  2 27  1  0
  2 28  1  0
  3 29  1  0
  3 30  1  0
  6 31  1  0
  8 32  1  0
  9 33  1  0
 10 34  1  0
 12 35  1  0
 19 36  1  0
 20 37  1  0
 21 38  1  0
 23 39  1  0
M  CHG  1  15  -1
M  END
>  <UniqueID>  (77) 
68

>  <SMILES>  (77) 
CCCC(=O)Nc1cccc(NC(=S)[N-]C(=O)c2cccs2)c1

>  <Energy>  (77) 
70.43037874330496

>  <Genealogy>  (77) 
CCCC(=O)Nc1cccc(NC(=S)[N-]C(=O)c2cccs2)c1 (protonated)
CCCC(=O)Nc1cccc(NC(=S)[N-]C(=O)c2cccs2)c1 (3D coordinates assigned)
CCCC(=O)Nc1cccc(NC(=S)[N-]C(=O)c2cccs2)c1 (optimized conformer: 70.43037874330496 kcal/mol)

>  <smiles>  (77) 
CCCC(=O)Nc1cccc(NC(=S)NC(=O)c2cccs2)c1

>  <score_type>  (77) 
oracle

>  <origin>  (77) 
adg

>  <m_score__min__energy>  (77) 
-9.5

>  <m_primary>  (77) 
energy

$$$$
77:0
     RDKit          3D

 32 34  0  0  0  0  0  0  0  0999 V2000
   55.1340   26.2840   46.9190 H   0  0  0  0  0  0  0  0  0  0  0  0
   55.4720   26.4470   45.9780 O   0  0  0  0  0  0  0  0  0  0  0  0
   56.2680   27.5510   45.6920 C   0  0  0  0  0  0  0  0  0  0  0  0
   55.7560   28.6870   45.1470 N   0  0  0  0  0  0  0  0  0  0  0  0
   56.7200   29.6150   44.9610 C   0  0  0  0  0  0  0  0  0  0  0  0
   56.5140   30.7960   44.4590 N   0  0  0  0  0  0  0  0  0  0  0  0
   57.3190   31.9590   44.6950 C   0  0  0  0  0  0  0  0  0  0  0  0
   57.5790   32.4730   45.9170 N   0  0  0  0  0  0  0  0  0  0  0  0
   58.3740   33.5750   45.8350 C   0  0  0  0  0  0  0  0  0  0  0  0
   58.8560   34.2910   47.0630 C   0  0  0  0  0  0  0  0  0  0  0  0
   59.5879   35.0566   46.7660 H   0  0  0  0  0  0  0  0  0  0  0  0
   57.9872   34.7499   47.5577 H   0  0  0  0  0  0  0  0  0  0  0  0
   59.5190   33.3260   48.0540 C   0  0  0  0  0  0  0  0  0  0  0  0
   59.2572   33.6310   49.0779 H   0  0  0  0  0  0  0  0  0  0  0  0
   59.1545   32.3105   47.8397 H   0  0  0  0  0  0  0  0  0  0  0  0
   61.0200   33.3260   47.9130 C   0  0  0  0  0  0  0  0  0  0  0  0
   61.6190   33.7860   46.7280 C   0  0  0  0  0  0  0  0  0  0  0  0
   60.9926   34.1787   45.9135 H   0  0  0  0  0  0  0  0  0  0  0  0
   63.0100   33.7460   46.5810 C   0  0  0  0  0  0  0  0  0  0  0  0
   63.4751   34.1126   45.6540 H   0  0  0  0  0  0  0  0  0  0  0  0
   63.8090   33.2410   47.6100 C   0  0  0  0  0  0  0  0  0  0  0  0
   64.9024   33.2113   47.4930 H   0  0  0  0  0  0  0  0  0  0  0  0
   63.2200   32.7740   48.7870 C   0  0  0  0  0  0  0  0  0  0  0  0
   63.8504   32.3754   49.5955 H   0  0  0  0  0  0  0  0  0  0  0  0
   61.8300   32.8120   48.9400 C   0  0  0  0  0  0  0  0  0  0  0  0
   61.3698   32.4386   49.8667 H   0  0  0  0  0  0  0  0  0  0  0  0
   58.7610   33.9320   44.5450 C   0  0  0  0  0  0  0  0  0  0  0  0
   59.4051   34.7815   44.2740 H   0  0  0  0  0  0  0  0  0  0  0  0
   58.0690   32.8340   43.4760 S   0  0  0  0  0  0  0  0  0  0  0  0
   58.2270   29.0690   45.4610 S   0  0  0  0  0  0  0  0  0  0  0  0
   57.6360   27.5670   45.9420 C   0  0  0  0  0  0  0  0  0  0  0  0
   58.2260   26.7462   46.3759 H   0  0  0  0  0  0  0  0  0  0  0  0
  1  2  1  0
  2  3  1  0
  3  4  1  0
  4  5  1  0
  5  6  2  0
  6  7  1  0
  7  8  2  0
  8  9  1  0
  9 10  1  0
 10 11  1  0
 10 12  1  0
 10 13  1  0
 13 14  1  0
 13 15  1  0
 13 16  1  0
 16 17  2  0
 17 18  1  0
 17 19  1  0
 19 20  1  0
 19 21  2  0
 21 22  1  0
 21 23  1  0
 23 24  1  0
 23 25  2  0
 25 26  1  0
  9 27  2  0
 27 28  1  0
 27 29  1  0
  5 30  1  0
 30 31  1  0
 31 32  1  0
 31  3  2  0
 29  7  1  0
 25 16  1  0
M  CHG  1   4  -1
M  END
>  <UniqueID>  (78) 
69

>  <SMILES>  (78) 
Oc1cs/c(=N/c2nc(CCc3ccccc3)cs2)[n-]1

>  <Energy>  (78) 
90.60032922405779

>  <Genealogy>  (78) 
Oc1csc(=Nc2nc(CCc3ccccc3)cs2)[n-]1 (protonated)
Oc1cs/c(=N/c2nc(CCc3ccccc3)cs2)[n-]1 (cis-trans isomerization)
Oc1cs/c(=N/c2nc(CCc3ccccc3)cs2)[n-]1 (3D coordinates assigned)
Oc1cs/c(=N/c2nc(CCc3ccccc3)cs2)[n-]1 (optimized conformer: 90.60032922405779 kcal/mol)

>  <smiles>  (78) 
Oc1csc(=Nc2nc(CCc3ccccc3)cs2)[nH]1

>  <score_type>  (78) 
oracle

>  <origin>  (78) 
adg

>  <m_score__min__energy>  (78) 
-10.289999999999999

>  <m_primary>  (78) 
energy

$$$$
78:0
     RDKit          3D

 43 46  0  0  0  0  0  0  0  0999 V2000
   58.1190   27.8130   46.7800 C   0  0  0  0  0  0  0  0  0  0  0  0
   57.5180   27.2830   45.5500 N   0  0  0  0  0  0  0  0  0  0  0  0
   57.6340   28.0490   44.3040 C   0  0  0  0  0  0  0  0  0  0  0  0
   57.4060   29.5020   44.5680 C   0  0  0  0  0  0  0  0  0  0  0  0
   58.3770   30.3670   44.9130 N   0  0  0  0  0  0  0  0  0  0  0  0
   57.6760   31.5120   45.0570 C   0  0  0  0  0  0  0  0  0  0  0  0
   58.2810   32.7850   45.5160 C   0  0  0  0  0  0  0  0  0  0  0  0
   58.4490   33.8050   44.5680 C   0  0  0  0  0  0  0  0  0  0  0  0
   59.0800   34.9940   44.9220 C   0  0  0  0  0  0  0  0  0  0  0  0
   59.5370   35.1810   46.1870 N   0  0  0  0  0  0  0  0  0  0  0  0
   59.3740   34.2320   47.1520 C   0  0  0  0  0  0  0  0  0  0  0  0
   59.8360   34.4740   48.4560 C   0  0  0  0  0  0  0  0  0  0  0  0
   59.6410   33.5270   49.4610 C   0  0  0  0  0  0  0  0  0  0  0  0
   58.9740   32.3370   49.1790 C   0  0  0  0  0  0  0  0  0  0  0  0
   58.5100   32.0750   47.8880 C   0  0  0  0  0  0  0  0  0  0  0  0
   58.7240   33.0050   46.8460 C   0  0  0  0  0  0  0  0  0  0  0  0
   56.3570   31.3350   44.8390 N   0  0  0  0  0  0  0  0  0  0  0  0
   56.2320   30.0810   44.5330 O   0  0  0  0  0  0  0  0  0  0  0  0
   56.6220   26.1570   45.6190 C   0  0  0  0  0  0  0  0  0  0  0  0
   55.4740   26.3010   46.1230 O   0  0  0  0  0  0  0  0  0  0  0  0
   57.0190   24.8230   45.1240 C   0  0  0  0  0  0  0  0  0  0  0  0
   56.2450   24.1860   44.1400 C   0  0  0  0  0  0  0  0  0  0  0  0
   56.6140   22.9260   43.6590 C   0  0  0  0  0  0  0  0  0  0  0  0
   57.7640   22.3000   44.1440 C   0  0  0  0  0  0  0  0  0  0  0  0
   58.5520   22.9360   45.1070 C   0  0  0  0  0  0  0  0  0  0  0  0
   58.1880   24.1960   45.5940 C   0  0  0  0  0  0  0  0  0  0  0  0
   58.9970   24.8180   46.4890 F   0  0  0  0  0  0  0  0  0  0  0  0
   57.6174   27.3706   47.6533 H   0  0  0  0  0  0  0  0  0  0  0  0
   59.1890   27.5591   46.8042 H   0  0  0  0  0  0  0  0  0  0  0  0
   58.0009   28.9064   46.8042 H   0  0  0  0  0  0  0  0  0  0  0  0
   58.6412   27.9097   43.8843 H   0  0  0  0  0  0  0  0  0  0  0  0
   56.8770   27.6908   43.5908 H   0  0  0  0  0  0  0  0  0  0  0  0
   58.0807   33.6647   43.5410 H   0  0  0  0  0  0  0  0  0  0  0  0
   59.2094   35.7879   44.1717 H   0  0  0  0  0  0  0  0  0  0  0  0
   60.0120   36.0840   46.4130 H   0  0  0  0  0  0  0  0  0  0  0  0
   60.3548   35.4163   48.6860 H   0  0  0  0  0  0  0  0  0  0  0  0
   60.0143   33.7199   50.4776 H   0  0  0  0  0  0  0  0  0  0  0  0
   58.8117   31.5989   49.9783 H   0  0  0  0  0  0  0  0  0  0  0  0
   57.9737   31.1372   47.6808 H   0  0  0  0  0  0  0  0  0  0  0  0
   55.3448   24.6805   43.7462 H   0  0  0  0  0  0  0  0  0  0  0  0
   55.9972   22.4270   42.8971 H   0  0  0  0  0  0  0  0  0  0  0  0
   58.0496   21.3064   43.7681 H   0  0  0  0  0  0  0  0  0  0  0  0
   59.4613   22.4444   45.4833 H   0  0  0  0  0  0  0  0  0  0  0  0
  1  2  1  0
  2  3  1  0
  3  4  1  0
  4  5  2  0
  5  6  1  0
  6  7  1  0
  7  8  2  0
  8  9  1  0
  9 10  2  0
 10 11  1  0
 11 12  2  0
 12 13  1  0
 13 14  2  0
 14 15  1  0
 15 16  2  0
  6 17  2  0
 17 18  1  0
  2 19  1  0
 19 20  2  0
 19 21  1  0
 21 22  2  0
 22 23  1  0
 23 24  2  0
 24 25  1  0
 25 26  2  0
 26 27  1  0
 18  4  1  0
 26 21  1  0
 16  7  1  0
 16 11  1  0
  1 28  1  0
  1 29  1  0
  1 30  1  0
  3 31  1  0
  3 32  1  0
  8 33  1  0
  9 34  1  0
 10 35  1  0
 12 36  1  0
 13 37  1  0
 14 38  1  0
 15 39  1  0
 22 40  1  0
 23 41  1  0
 24 42  1  0
 25 43  1  0
M  CHG  1  10   1
M  END
>  <UniqueID>  (79) 
70

>  <SMILES>  (79) 
CN(Cc1nc(-c2cc[nH+]c3ccccc23)no1)C(=O)c1ccccc1F

>  <Energy>  (79) 
93.7730536658612

>  <Genealogy>  (79) 
CN(Cc1nc(-c2cc[nH+]c3ccccc23)no1)C(=O)c1ccccc1F (protonated)
CN(Cc1nc(-c2cc[nH+]c3ccccc23)no1)C(=O)c1ccccc1F (3D coordinates assigned)
CN(Cc1nc(-c2cc[nH+]c3ccccc23)no1)C(=O)c1ccccc1F (optimized conformer: 93.7730536658612 kcal/mol)

>  <smiles>  (79) 
CN(Cc1nc(-c2ccnc3ccccc23)no1)C(=O)c1ccccc1F

>  <score_type>  (79) 
oracle

>  <origin>  (79) 
adg

>  <m_score__min__energy>  (79) 
-8.1300000000000008

>  <m_primary>  (79) 
energy

$$$$
79:0
     RDKit          3D

 49 53  0  0  0  0  0  0  0  0999 V2000
   56.2740   34.9890   44.9200 O   0  0  0  0  0  0  0  0  0  0  0  0
   57.0630   34.0660   45.2450 C   0  0  0  0  0  0  0  0  0  0  0  0
   56.8780   32.7790   44.8690 N   0  0  0  0  0  0  0  0  0  0  0  0
   57.8810   32.0040   45.3540 C   0  0  0  0  0  0  0  0  0  0  0  0
   57.9760   30.6720   45.1190 N   0  0  0  0  0  0  0  0  0  0  0  0
   59.0260   29.9450   45.6100 C   0  0  0  0  0  0  0  0  0  0  0  0
   59.1110   28.5360   45.3220 N   0  0  0  0  0  0  0  0  0  0  0  0
   58.5290   27.9820   44.0900 C   0  0  0  0  0  0  0  0  0  0  0  0
   58.2520   26.4780   44.2520 C   0  0  0  0  0  0  0  0  0  0  0  0
   57.7350   26.2120   45.6210 N   0  0  0  0  0  0  0  0  0  0  0  0
   57.1140   24.8750   45.8520 C   0  0  0  0  0  0  0  0  0  0  0  0
   55.7930   24.5850   45.1620 C   0  0  0  0  0  0  0  0  0  0  0  0
   55.0920   24.5400   46.3840 O   0  0  0  0  0  0  0  0  0  0  0  0
   56.2770   24.7720   47.1110 C   0  0  0  0  0  0  0  0  0  0  0  0
   58.7910   26.4470   46.6370 C   0  0  0  0  0  0  0  0  0  0  0  0
   59.7430   27.6120   46.2760 C   0  0  0  0  0  0  0  0  0  0  0  0
   60.0270   30.5960   46.3780 C   0  0  0  0  0  0  0  0  0  0  0  0
   59.9310   31.9740   46.6350 C   0  0  0  0  0  0  0  0  0  0  0  0
   60.9290   32.6420   47.4170 N   0  0  0  0  0  0  0  0  0  0  0  0
   60.5210   33.2700   48.6810 C   0  0  0  0  0  0  0  0  0  0  0  0
   61.6080   34.2210   49.2110 C   0  0  0  0  0  0  0  0  0  0  0  0
   62.8980   33.6490   49.1010 O   0  0  0  0  0  0  0  0  0  0  0  0
   63.2110   33.4840   47.7340 C   0  0  0  0  0  0  0  0  0  0  0  0
   62.3430   32.3800   47.1320 C   0  0  0  0  0  0  0  0  0  0  0  0
   58.8430   32.6610   46.0990 C   0  0  0  0  0  0  0  0  0  0  0  0
   58.4570   34.2970   46.1750 S   0  0  0  0  0  0  0  0  0  0  0  0
   57.5849   28.5020   43.8704 H   0  0  0  0  0  0  0  0  0  0  0  0
   59.2424   28.1247   43.2650 H   0  0  0  0  0  0  0  0  0  0  0  0
   57.5043   26.1612   43.5100 H   0  0  0  0  0  0  0  0  0  0  0  0
   59.1845   25.9154   44.0973 H   0  0  0  0  0  0  0  0  0  0  0  0
   56.9730   26.9090   45.8120 H   0  0  0  0  0  0  0  0  0  0  0  0
   58.0277   24.2965   45.6508 H   0  0  0  0  0  0  0  0  0  0  0  0
   55.4598   25.3933   44.4944 H   0  0  0  0  0  0  0  0  0  0  0  0
   55.7260   23.7274   44.4765 H   0  0  0  0  0  0  0  0  0  0  0  0
   56.2552   25.7007   47.7001 H   0  0  0  0  0  0  0  0  0  0  0  0
   56.5730   24.0540   47.8900 H   0  0  0  0  0  0  0  0  0  0  0  0
   58.3060   26.6778   47.5970 H   0  0  0  0  0  0  0  0  0  0  0  0
   59.4012   25.5332   46.6884 H   0  0  0  0  0  0  0  0  0  0  0  0
   60.0005   28.1627   47.1927 H   0  0  0  0  0  0  0  0  0  0  0  0
   60.6470   27.1929   45.8099 H   0  0  0  0  0  0  0  0  0  0  0  0
   60.8781   30.0213   46.7720 H   0  0  0  0  0  0  0  0  0  0  0  0
   59.5957   33.8411   48.5147 H   0  0  0  0  0  0  0  0  0  0  0  0
   60.3612   32.4768   49.4262 H   0  0  0  0  0  0  0  0  0  0  0  0
   61.5804   35.1544   48.6296 H   0  0  0  0  0  0  0  0  0  0  0  0
   61.4069   34.4154   50.2748 H   0  0  0  0  0  0  0  0  0  0  0  0
   63.0235   34.4274   47.2003 H   0  0  0  0  0  0  0  0  0  0  0  0
   64.2707   33.2059   47.6358 H   0  0  0  0  0  0  0  0  0  0  0  0
   62.4955   32.3498   46.0430 H   0  0  0  0  0  0  0  0  0  0  0  0
   62.6278   31.4146   47.5757 H   0  0  0  0  0  0  0  0  0  0  0  0
  1  2  2  0
  2  3  1  0
  3  4  1  0
  4  5  2  0
  5  6  1  0
  6  7  1  0
  7  8  1  0
  8  9  1  0
  9 10  1  0
 10 11  1  0
 11 12  1  0
 12 13  1  0
 13 14  1  0
 10 15  1  0
 15 16  1  0
  6 17  2  0
 17 18  1  0
 18 19  1  0
 19 20  1  0
 20 21  1  0
 21 22  1  0
 22 23  1  0
 23 24  1  0
 18 25  2  0
 25 26  1  0
 26  2  1  0
 25  4  1  0
 16  7  1  0
 24 19  1  0
 14 11  1  0
  8 27  1  0
  8 28  1  0
  9 29  1  0
  9 30  1  0
 10 31  1  0
 11 32  1  0
 12 33  1  0
 12 34  1  0
 14 35  1  0
 14 36  1  0
 15 37  1  0
 15 38  1  0
 16 39  1  0
 16 40  1  0
 17 41  1  0
 20 42  1  0
 20 43  1  0
 21 44  1  0
 21 45  1  0
 23 46  1  0
 23 47  1  0
 24 48  1  0
 24 49  1  0
M  CHG  2   3  -1  10   1
M  END
>  <UniqueID>  (80) 
71

>  <SMILES>  (80) 
O=c1[n-]c2nc(N3CC[NH+](C4COC4)CC3)cc(N3CCOCC3)c2s1

>  <Energy>  (80) 
176.39382720259778

>  <Genealogy>  (80) 
O=c1[n-]c2nc(N3CC[NH+](C4COC4)CC3)cc(N3CCOCC3)c2s1 (protonated)
O=c1[n-]c2nc(N3CC[NH+](C4COC4)CC3)cc(N3CCOCC3)c2s1 (3D coordinates assigned)
O=c1[n-]c2nc(N3CC[NH+](C4COC4)CC3)cc(N3CCOCC3)c2s1 (nonaromatic ring conformer: 176.39382720259778 kcal/mol)

>  <smiles>  (80) 
O=c1[nH]c2nc(N3CCN(C4COC4)CC3)cc(N3CCOCC3)c2s1

>  <score_type>  (80) 
oracle

>  <origin>  (80) 
adg

>  <m_score__min__energy>  (80) 
-6.6399999999999997

>  <m_primary>  (80) 
energy

$$$$
80:0
     RDKit          3D

 22 22  0  0  0  0  0  0  0  0999 V2000
   57.4120   32.7030   44.4980 C   0  0  0  0  0  0  0  0  0  0  0  0
   57.9550   32.1050   43.2000 C   0  0  0  0  0  0  0  0  0  0  0  0
   57.0180   31.0440   42.6170 C   0  0  0  0  0  0  0  0  0  0  0  0
   56.0510   30.2270   43.9340 S   0  0  0  0  0  0  0  0  0  0  0  0
   57.3980   29.1440   44.4130 C   0  0  0  0  0  0  0  0  0  0  0  0
   58.4170   29.6240   45.2440 C   0  0  0  0  0  0  0  0  0  0  0  0
   59.4590   28.7700   45.6100 C   0  0  0  0  0  0  0  0  0  0  0  0
   59.4720   27.4540   45.1450 C   0  0  0  0  0  0  0  0  0  0  0  0
   58.4370   27.0090   44.3210 C   0  0  0  0  0  0  0  0  0  0  0  0
   57.4270   27.8540   43.9740 N   0  0  0  0  0  0  0  0  0  0  0  0
   57.8737   32.1945   45.3573 H   0  0  0  0  0  0  0  0  0  0  0  0
   57.6507   33.7761   44.5353 H   0  0  0  0  0  0  0  0  0  0  0  0
   56.3209   32.5686   44.5353 H   0  0  0  0  0  0  0  0  0  0  0  0
   58.0792   32.9119   42.4627 H   0  0  0  0  0  0  0  0  0  0  0  0
   58.9157   31.6197   43.4272 H   0  0  0  0  0  0  0  0  0  0  0  0
   56.3268   31.5248   41.9092 H   0  0  0  0  0  0  0  0  0  0  0  0
   57.6262   30.2829   42.1062 H   0  0  0  0  0  0  0  0  0  0  0  0
   58.3970   30.6630   45.6048 H   0  0  0  0  0  0  0  0  0  0  0  0
   60.2668   29.1329   46.2625 H   0  0  0  0  0  0  0  0  0  0  0  0
   60.2901   26.7741   45.4252 H   0  0  0  0  0  0  0  0  0  0  0  0
   58.4372   25.9731   43.9510 H   0  0  0  0  0  0  0  0  0  0  0  0
   56.6630   27.5020   43.3540 H   0  0  0  0  0  0  0  0  0  0  0  0
  1  2  1  0
  2  3  1  0
  3  4  1  0
  4  5  1  0
  5  6  2  0
  6  7  1  0
  7  8  2  0
  8  9  1  0
  9 10  2  0
 10  5  1  0
  1 11  1  0
  1 12  1  0
  1 13  1  0
  2 14  1  0
  2 15  1  0
  3 16  1  0
  3 17  1  0
  6 18  1  0
  7 19  1  0
  8 20  1  0
  9 21  1  0
 10 22  1  0
M  CHG  1  10   1
M  END
>  <UniqueID>  (81) 
72

>  <SMILES>  (81) 
CCCSc1cccc[nH+]1

>  <Energy>  (81) 
11.666245473774072

>  <Genealogy>  (81) 
CCCSc1cccc[nH+]1 (protonated)
CCCSc1cccc[nH+]1 (3D coordinates assigned)
CCCSc1cccc[nH+]1 (optimized conformer: 11.666245473774072 kcal/mol)

>  <smiles>  (81) 
CCCSc1ccccn1

>  <score_type>  (81) 
oracle

>  <origin>  (81) 
adg

>  <m_score__min__energy>  (81) 
-3.1099999999999999

>  <m_primary>  (81) 
energy

$$$$
81:0
     RDKit          3D

 29 30  0  0  0  0  0  0  0  0999 V2000
   60.3286   34.2564   46.8649 H   0  0  0  0  0  0  0  0  0  0  0  0
   59.4620   33.8160   46.3500 C   0  0  0  0  0  0  0  0  0  0  0  0
   58.6590   34.6120   45.5370 C   0  0  0  0  0  0  0  0  0  0  0  0
   58.8898   35.6790   45.4021 H   0  0  0  0  0  0  0  0  0  0  0  0
   57.5600   34.0430   44.8960 C   0  0  0  0  0  0  0  0  0  0  0  0
   56.9166   34.6662   44.2575 H   0  0  0  0  0  0  0  0  0  0  0  0
   57.2780   32.7220   45.0550 N   0  0  0  0  0  0  0  0  0  0  0  0
   56.4220   32.3590   44.5820 H   0  0  0  0  0  0  0  0  0  0  0  0
   58.0610   31.9060   45.8320 C   0  0  0  0  0  0  0  0  0  0  0  0
   57.7880   30.6380   45.9770 N   0  0  0  0  0  0  0  0  0  0  0  0
   57.0740   29.8120   45.0510 C   0  0  0  0  0  0  0  0  0  0  0  0
   55.9800   30.2210   44.5790 O   0  0  0  0  0  0  0  0  0  0  0  0
   57.5350   28.4150   44.7550 C   0  0  0  0  0  0  0  0  0  0  0  0
   56.7275   27.8663   44.2482 H   0  0  0  0  0  0  0  0  0  0  0  0
   58.4234   28.4612   44.1080 H   0  0  0  0  0  0  0  0  0  0  0  0
   57.9720   27.5500   46.3020 S   0  0  0  0  0  0  0  0  0  0  0  0
   56.6730   26.3150   46.1710 C   0  0  0  0  0  0  0  0  0  0  0  0
   55.3850   26.7090   46.0030 N   0  0  0  0  0  0  0  0  0  0  0  0
   54.3970   25.8160   45.9110 N   0  0  0  0  0  0  0  0  0  0  0  0
   54.6560   24.4840   45.9860 C   0  0  0  0  0  0  0  0  0  0  0  0
   53.7170   23.6530   45.8970 O   0  0  0  0  0  0  0  0  0  0  0  0
   55.9320   24.0560   46.1610 N   0  0  0  0  0  0  0  0  0  0  0  0
   56.9510   24.9470   46.2580 C   0  0  0  0  0  0  0  0  0  0  0  0
   58.1300   24.5360   46.4220 O   0  0  0  0  0  0  0  0  0  0  0  0
   59.1690   32.4550   46.5140 C   0  0  0  0  0  0  0  0  0  0  0  0
   60.0470   31.5980   47.3870 C   0  0  0  0  0  0  0  0  0  0  0  0
   59.8305   31.8093   48.4446 H   0  0  0  0  0  0  0  0  0  0  0  0
   59.8486   30.5366   47.1771 H   0  0  0  0  0  0  0  0  0  0  0  0
   61.1033   31.8221   47.1771 H   0  0  0  0  0  0  0  0  0  0  0  0
  1  2  1  0
  2  3  1  0
  3  4  1  0
  3  5  2  0
  5  6  1  0
  5  7  1  0
  7  8  1  0
  7  9  1  0
  9 10  2  0
 10 11  1  0
 11 12  2  0
 11 13  1  0
 13 14  1  0
 13 15  1  0
 13 16  1  0
 16 17  1  0
 17 18  2  0
 18 19  1  0
 19 20  1  0
 20 21  2  0
 20 22  1  0
 22 23  1  0
 23 24  2  0
  9 25  1  0
 25 26  1  0
 26 27  1  0
 26 28  1  0
 26 29  1  0
 25  2  2  0
 23 17  1  0
M  CHG  2  19  -1  22  -1
M  END
>  <UniqueID>  (82) 
73

>  <SMILES>  (82) 
Cc1ccc[nH]/c1=N/C(=O)CSc1n[n-]c(=O)[n-]c1=O

>  <Energy>  (82) 
38.155775544960015

>  <Genealogy>  (82) 
Cc1ccc[nH]c1=NC(=O)CSc1n[n-]c(=O)[n-]c1=O (protonated)
Cc1ccc[nH]/c1=N/C(=O)CSc1n[n-]c(=O)[n-]c1=O (cis-trans isomerization)
Cc1ccc[nH]/c1=N/C(=O)CSc1n[n-]c(=O)[n-]c1=O (3D coordinates assigned)
Cc1ccc[nH]/c1=N/C(=O)CSc1n[n-]c(=O)[n-]c1=O (optimized conformer: 38.155775544960015 kcal/mol)

>  <smiles>  (82) 
Cc1ccc[nH]c1=NC(=O)CSc1n[nH]c(=O)[nH]c1=O

>  <score_type>  (82) 
oracle

>  <origin>  (82) 
adg

>  <m_score__min__energy>  (82) 
-11.460000000000001

>  <m_primary>  (82) 
energy

$$$$
82:0
     RDKit          3D

 43 44  0  0  0  0  0  0  0  0999 V2000
   61.4658   30.8677   47.1700 H   0  0  0  0  0  0  0  0  0  0  0  0
   60.6130   31.4330   46.7660 C   0  0  0  0  0  0  0  0  0  0  0  0
   59.4850   30.7840   46.4420 C   0  0  0  0  0  0  0  0  0  0  0  0
   59.3940   29.3550   46.6230 N   0  0  0  0  0  0  0  0  0  0  0  0
   59.5340   28.4670   45.4560 C   0  0  0  0  0  0  0  0  0  0  0  0
   58.7689   28.7325   44.7116 H   0  0  0  0  0  0  0  0  0  0  0  0
   59.4073   27.4288   45.7967 H   0  0  0  0  0  0  0  0  0  0  0  0
   60.9140   28.5940   44.8150 C   0  0  0  0  0  0  0  0  0  0  0  0
   61.6789   28.6644   45.6023 H   0  0  0  0  0  0  0  0  0  0  0  0
   61.1109   27.7102   44.1904 H   0  0  0  0  0  0  0  0  0  0  0  0
   60.9463   29.4989   44.1904 H   0  0  0  0  0  0  0  0  0  0  0  0
   59.0750   28.8090   47.9540 C   0  0  0  0  0  0  0  0  0  0  0  0
   58.1389   28.2350   47.8893 H   0  0  0  0  0  0  0  0  0  0  0  0
   59.9094   28.1660   48.2708 H   0  0  0  0  0  0  0  0  0  0  0  0
   58.9060   29.9170   48.9910 C   0  0  0  0  0  0  0  0  0  0  0  0
   58.9716   29.4868   50.0013 H   0  0  0  0  0  0  0  0  0  0  0  0
   59.7002   30.6666   48.8594 H   0  0  0  0  0  0  0  0  0  0  0  0
   57.9244   30.3958   48.8594 H   0  0  0  0  0  0  0  0  0  0  0  0
   58.3350   31.5500   45.9090 C   0  0  0  0  0  0  0  0  0  0  0  0
   57.2960   30.9470   45.5270 O   0  0  0  0  0  0  0  0  0  0  0  0
   58.4070   33.0230   45.8100 C   0  0  0  0  0  0  0  0  0  0  0  0
   56.9870   33.9060   45.2520 Cl  0  0  0  0  0  0  0  0  0  0  0  0
   59.5410   33.6670   46.1400 C   0  0  0  0  0  0  0  0  0  0  0  0
   59.6450   35.4250   46.0240 Cl  0  0  0  0  0  0  0  0  0  0  0  0
   60.7290   32.9030   46.5880 C   0  0  0  0  0  0  0  0  0  0  0  0
   61.8270   33.5530   46.8600 N   0  0  0  0  0  0  0  0  0  0  0  0
   62.6030   33.4720   48.0690 C   0  0  0  0  0  0  0  0  0  0  0  0
   63.9650   33.1330   48.0200 C   0  0  0  0  0  0  0  0  0  0  0  0
   64.4351   32.8982   47.0536 H   0  0  0  0  0  0  0  0  0  0  0  0
   64.7260   33.0920   49.1890 C   0  0  0  0  0  0  0  0  0  0  0  0
   65.7849   32.7979   49.1429 H   0  0  0  0  0  0  0  0  0  0  0  0
   64.1470   33.4240   50.4220 C   0  0  0  0  0  0  0  0  0  0  0  0
   64.9550   33.3390   51.6820 C   0  0  0  0  0  0  0  0  0  0  0  0
   64.2858   33.4094   52.5522 H   0  0  0  0  0  0  0  0  0  0  0  0
   65.4921   32.3794   51.7092 H   0  0  0  0  0  0  0  0  0  0  0  0
   65.6800   34.1658   51.7092 H   0  0  0  0  0  0  0  0  0  0  0  0
   62.7910   33.7780   50.4730 C   0  0  0  0  0  0  0  0  0  0  0  0
   62.3278   34.0206   51.4408 H   0  0  0  0  0  0  0  0  0  0  0  0
   62.0180   33.8260   49.3010 C   0  0  0  0  0  0  0  0  0  0  0  0
   60.5670   34.2160   49.3700 C   0  0  0  0  0  0  0  0  0  0  0  0
   60.2592   34.2987   50.4228 H   0  0  0  0  0  0  0  0  0  0  0  0
   60.4234   35.1846   48.8688 H   0  0  0  0  0  0  0  0  0  0  0  0
   59.9572   33.4499   48.8688 H   0  0  0  0  0  0  0  0  0  0  0  0
  1  2  1  0
  2  3  2  0
  3  4  1  0
  4  5  1  0
  5  6  1  0
  5  7  1  0
  5  8  1  0
  8  9  1  0
  8 10  1  0
  8 11  1  0
  4 12  1  0
 12 13  1  0
 12 14  1  0
 12 15  1  0
 15 16  1  0
 15 17  1  0
 15 18  1  0
  3 19  1  0
 19 20  2  0
 19 21  1  0
 21 22  1  0
 21 23  2  0
 23 24  1  0
 23 25  1  0
 25 26  2  0
 26 27  1  0
 27 28  2  0
 28 29  1  0
 28 30  1  0
 30 31  1  0
 30 32  2  0
 32 33  1  0
 33 34  1  0
 33 35  1  0
 33 36  1  0
 32 37  1  0
 37 38  1  0
 37 39  2  0
 39 40  1  0
 40 41  1  0
 40 42  1  0
 40 43  1  0
 25  2  1  0
 39 27  1  0
M  END
>  <UniqueID>  (83) 
74

>  <SMILES>  (83) 
CCN(CC)C1=C/C(=N\c2ccc(C)cc2C)C(Cl)=C(Cl)C1=O

>  <Energy>  (83) 
49.888583234200006

>  <Genealogy>  (83) 
CCN(CC)C1=C/C(=N\c2ccc(C)cc2C)C(Cl)=C(Cl)C1=O (cis-trans isomerization)
CCN(CC)C1=C/C(=N\c2ccc(C)cc2C)C(Cl)=C(Cl)C1=O (3D coordinates assigned)
CCN(CC)C1=C/C(=N\c2ccc(C)cc2C)C(Cl)=C(Cl)C1=O (nonaromatic ring conformer: 49.888583234200006 kcal/mol)

>  <smiles>  (83) 
CCN(CC)C1=CC(=Nc2ccc(C)cc2C)C(Cl)=C(Cl)C1=O

>  <score_type>  (83) 
oracle

>  <origin>  (83) 
adg

>  <m_score__min__energy>  (83) 
-7.6399999999999997

>  <m_primary>  (83) 
energy

$$$$
83:0
     RDKit          3D

 35 37  0  0  0  0  0  0  0  0999 V2000
   57.0660   23.5970   44.0000 C   0  0  0  0  0  0  0  0  0  0  0  0
   57.5510   24.5340   44.9570 O   0  0  0  0  0  0  0  0  0  0  0  0
   57.4920   25.9270   44.8010 C   0  0  0  0  0  0  0  0  0  0  0  0
   57.8600   26.4750   43.5670 C   0  0  0  0  0  0  0  0  0  0  0  0
   57.8170   27.8570   43.3610 C   0  0  0  0  0  0  0  0  0  0  0  0
   57.4050   28.7160   44.3930 C   0  0  0  0  0  0  0  0  0  0  0  0
   57.3580   30.1760   44.1830 C   0  0  0  0  0  0  0  0  0  0  0  0
   57.5520   30.7830   42.9920 N   0  0  0  0  0  0  0  0  0  0  0  0
   57.4310   32.0780   43.2330 N   0  0  0  0  0  0  0  0  0  0  0  0
   57.1690   32.2230   44.5420 C   0  0  0  0  0  0  0  0  0  0  0  0
   56.9980   33.5340   45.2360 C   0  0  0  0  0  0  0  0  0  0  0  0
   58.1770   33.7970   46.1300 C   0  0  0  0  0  0  0  0  0  0  0  0
   58.2290   33.2380   47.4180 C   0  0  0  0  0  0  0  0  0  0  0  0
   59.3430   33.4540   48.2350 C   0  0  0  0  0  0  0  0  0  0  0  0
   60.4150   34.2200   47.7690 C   0  0  0  0  0  0  0  0  0  0  0  0
   60.3770   34.7670   46.4840 C   0  0  0  0  0  0  0  0  0  0  0  0
   59.2650   34.5540   45.6630 C   0  0  0  0  0  0  0  0  0  0  0  0
   57.1270   31.0540   45.1360 O   0  0  0  0  0  0  0  0  0  0  0  0
   57.0350   28.1690   45.6320 C   0  0  0  0  0  0  0  0  0  0  0  0
   57.0780   26.7870   45.8370 C   0  0  0  0  0  0  0  0  0  0  0  0
   56.6209   22.7370   44.5218 H   0  0  0  0  0  0  0  0  0  0  0  0
   56.3037   24.0781   43.3696 H   0  0  0  0  0  0  0  0  0  0  0  0
   57.8989   23.2523   43.3696 H   0  0  0  0  0  0  0  0  0  0  0  0
   58.1860   25.8123   42.7518 H   0  0  0  0  0  0  0  0  0  0  0  0
   58.1074   28.2740   42.3854 H   0  0  0  0  0  0  0  0  0  0  0  0
   57.5340   32.8310   42.5180 H   0  0  0  0  0  0  0  0  0  0  0  0
   56.9221   34.3360   44.4870 H   0  0  0  0  0  0  0  0  0  0  0  0
   56.0818   33.5052   45.8440 H   0  0  0  0  0  0  0  0  0  0  0  0
   57.3903   32.6282   47.7850 H   0  0  0  0  0  0  0  0  0  0  0  0
   59.3756   33.0206   49.2455 H   0  0  0  0  0  0  0  0  0  0  0  0
   61.2891   34.3923   48.4142 H   0  0  0  0  0  0  0  0  0  0  0  0
   61.2233   35.3664   46.1173 H   0  0  0  0  0  0  0  0  0  0  0  0
   59.2420   34.9801   44.6491 H   0  0  0  0  0  0  0  0  0  0  0  0
   56.7091   28.8324   46.4467 H   0  0  0  0  0  0  0  0  0  0  0  0
   56.7872   26.3690   46.8120 H   0  0  0  0  0  0  0  0  0  0  0  0
  1  2  1  0
  2  3  1  0
  3  4  2  0
  4  5  1  0
  5  6  2  0
  6  7  1  0
  7  8  2  0
  8  9  1  0
  9 10  2  0
 10 11  1  0
 11 12  1  0
 12 13  2  0
 13 14  1  0
 14 15  2  0
 15 16  1  0
 16 17  2  0
 10 18  1  0
  6 19  1  0
 19 20  2  0
 20  3  1  0
 18  7  1  0
 17 12  1  0
  1 21  1  0
  1 22  1  0
  1 23  1  0
  4 24  1  0
  5 25  1  0
  9 26  1  0
 11 27  1  0
 11 28  1  0
 13 29  1  0
 14 30  1  0
 15 31  1  0
 16 32  1  0
 17 33  1  0
 19 34  1  0
 20 35  1  0
M  CHG  1   9   1
M  END
>  <UniqueID>  (84) 
75

>  <SMILES>  (84) 
COc1ccc(-c2n[nH+]c(Cc3ccccc3)o2)cc1

>  <Energy>  (84) 
70.11454865011304

>  <Genealogy>  (84) 
COc1ccc(-c2n[nH+]c(Cc3ccccc3)o2)cc1 (protonated)
COc1ccc(-c2n[nH+]c(Cc3ccccc3)o2)cc1 (3D coordinates assigned)
COc1ccc(-c2n[nH+]c(Cc3ccccc3)o2)cc1 (optimized conformer: 70.11454865011304 kcal/mol)

>  <smiles>  (84) 
COc1ccc(-c2nnc(Cc3ccccc3)o2)cc1

>  <score_type>  (84) 
oracle

>  <origin>  (84) 
adg

>  <m_score__min__energy>  (84) 
-5.5099999999999998

>  <m_primary>  (84) 
energy

$$$$
84:0
     RDKit          3D

 39 41  0  0  0  0  0  0  0  0999 V2000
   55.1320   26.3690   46.0190 N   0  0  0  0  0  0  0  0  0  0  0  0
   56.8420   26.6040   45.9360 S   0  0  0  0  0  0  0  0  0  0  0  0
   57.4260   26.5190   47.3190 O   0  0  0  0  0  0  0  0  0  0  0  0
   57.4590   25.5310   45.0840 O   0  0  0  0  0  0  0  0  0  0  0  0
   57.1820   28.1820   45.2360 C   0  0  0  0  0  0  0  0  0  0  0  0
   56.1260   29.0230   44.8610 C   0  0  0  0  0  0  0  0  0  0  0  0
   56.3900   30.2770   44.3020 C   0  0  0  0  0  0  0  0  0  0  0  0
   57.7150   30.6920   44.0920 C   0  0  0  0  0  0  0  0  0  0  0  0
   58.0100   31.9770   43.5310 N   0  0  0  0  0  0  0  0  0  0  0  0
   58.3040   33.1670   44.2770 C   0  0  0  0  0  0  0  0  0  0  0  0
   59.2470   33.9070   43.8910 O   0  0  0  0  0  0  0  0  0  0  0  0
   57.4410   33.6210   45.4170 C   0  0  0  0  0  0  0  0  0  0  0  0
   58.4780   34.4400   46.6740 S   0  0  0  0  0  0  0  0  0  0  0  0
   59.3580   32.9290   47.1110 C   0  0  0  0  0  0  0  0  0  0  0  0
   58.6020   31.8060   47.4700 C   0  0  0  0  0  0  0  0  0  0  0  0
   59.2290   30.6180   47.8450 C   0  0  0  0  0  0  0  0  0  0  0  0
   60.6210   30.5330   47.8650 C   0  0  0  0  0  0  0  0  0  0  0  0
   61.4020   31.6400   47.5010 C   0  0  0  0  0  0  0  0  0  0  0  0
   62.8020   31.5520   47.5160 C   0  0  0  0  0  0  0  0  0  0  0  0
   63.5810   32.6480   47.1430 C   0  0  0  0  0  0  0  0  0  0  0  0
   62.9690   33.8390   46.7490 C   0  0  0  0  0  0  0  0  0  0  0  0
   61.5770   33.9470   46.7360 C   0  0  0  0  0  0  0  0  0  0  0  0
   60.7720   32.8530   47.1120 C   0  0  0  0  0  0  0  0  0  0  0  0
   58.7680   29.8690   44.5070 C   0  0  0  0  0  0  0  0  0  0  0  0
   58.5040   28.6160   45.0700 C   0  0  0  0  0  0  0  0  0  0  0  0
   54.7600   27.0730   46.6930 H   0  0  0  0  0  0  0  0  0  0  0  0
   55.0860   28.6956   45.0068 H   0  0  0  0  0  0  0  0  0  0  0  0
   55.5573   30.9406   44.0258 H   0  0  0  0  0  0  0  0  0  0  0  0
   56.6859   34.3296   45.0460 H   0  0  0  0  0  0  0  0  0  0  0  0
   56.9381   32.7516   45.8656 H   0  0  0  0  0  0  0  0  0  0  0  0
   57.5035   31.8615   47.4561 H   0  0  0  0  0  0  0  0  0  0  0  0
   58.6230   29.7441   48.1263 H   0  0  0  0  0  0  0  0  0  0  0  0
   61.1083   29.5943   48.1674 H   0  0  0  0  0  0  0  0  0  0  0  0
   63.2881   30.6143   47.8233 H   0  0  0  0  0  0  0  0  0  0  0  0
   64.6783   32.5733   47.1595 H   0  0  0  0  0  0  0  0  0  0  0  0
   63.5869   34.6975   46.4470 H   0  0  0  0  0  0  0  0  0  0  0  0
   61.1054   34.8925   46.4302 H   0  0  0  0  0  0  0  0  0  0  0  0
   59.8076   30.2088   44.3900 H   0  0  0  0  0  0  0  0  0  0  0  0
   59.3368   27.9693   45.3834 H   0  0  0  0  0  0  0  0  0  0  0  0
  1  2  1  0
  2  3  2  0
  2  4  2  0
  2  5  1  0
  5  6  2  0
  6  7  1  0
  7  8  2  0
  8  9  1  0
  9 10  1  0
 10 11  2  0
 10 12  1  0
 12 13  1  0
 13 14  1  0
 14 15  2  0
 15 16  1  0
 16 17  2  0
 17 18  1  0
 18 19  2  0
 19 20  1  0
 20 21  2  0
 21 22  1  0
 22 23  2  0
  8 24  1  0
 24 25  2  0
 25  5  1  0
 23 14  1  0
 23 18  1  0
  1 26  1  0
  6 27  1  0
  7 28  1  0
 12 29  1  0
 12 30  1  0
 15 31  1  0
 16 32  1  0
 17 33  1  0
 19 34  1  0
 20 35  1  0
 21 36  1  0
 22 37  1  0
 24 38  1  0
 25 39  1  0
M  CHG  2   1  -1   9  -1
M  END
>  <UniqueID>  (85) 
76

>  <SMILES>  (85) 
[NH-]S(=O)(=O)c1ccc([N-]C(=O)CSc2cccc3ccccc23)cc1

>  <Energy>  (85) 
43.3104513572774

>  <Genealogy>  (85) 
[NH-]S(=O)(=O)c1ccc([N-]C(=O)CSc2cccc3ccccc23)cc1 (protonated)
[NH-]S(=O)(=O)c1ccc([N-]C(=O)CSc2cccc3ccccc23)cc1 (3D coordinates assigned)
[NH-]S(=O)(=O)c1ccc([N-]C(=O)CSc2cccc3ccccc23)cc1 (optimized conformer: 43.3104513572774 kcal/mol)

>  <smiles>  (85) 
NS(=O)(=O)c1ccc(NC(=O)CSc2cccc3ccccc23)cc1

>  <score_type>  (85) 
oracle

>  <origin>  (85) 
adg

>  <m_score__min__energy>  (85) 
-12.67

>  <m_primary>  (85) 
energy

$$$$
85:0
     RDKit          3D

 45 47  0  0  0  0  0  0  0  0999 V2000
   56.1200   24.1030   45.6580 C   0  0  0  0  0  0  0  0  0  0  0  0
   56.0040   25.5930   45.7820 C   0  0  0  0  0  0  0  0  0  0  0  0
   54.8600   26.0910   45.9650 O   0  0  0  0  0  0  0  0  0  0  0  0
   57.1920   26.4850   45.6940 C   0  0  0  0  0  0  0  0  0  0  0  0
   58.4860   25.9320   45.6590 C   0  0  0  0  0  0  0  0  0  0  0  0
   59.6100   26.7580   45.5870 C   0  0  0  0  0  0  0  0  0  0  0  0
   59.4620   28.1440   45.5390 C   0  0  0  0  0  0  0  0  0  0  0  0
   58.1810   28.7200   45.5490 C   0  0  0  0  0  0  0  0  0  0  0  0
   58.0010   30.1470   45.5250 N   0  0  0  0  0  0  0  0  0  0  0  0
   56.9160   30.8120   44.8630 C   0  0  0  0  0  0  0  0  0  0  0  0
   55.9140   30.1580   44.4650 O   0  0  0  0  0  0  0  0  0  0  0  0
   56.9430   32.2390   44.7460 N   0  0  0  0  0  0  0  0  0  0  0  0
   57.9380   33.1230   45.2890 C   0  0  0  0  0  0  0  0  0  0  0  0
   58.5630   34.1010   44.5040 C   0  0  0  0  0  0  0  0  0  0  0  0
   59.5290   34.9280   45.0670 C   0  0  0  0  0  0  0  0  0  0  0  0
   59.8840   34.7610   46.4040 C   0  0  0  0  0  0  0  0  0  0  0  0
   59.3130   33.7770   47.1640 N   0  0  0  0  0  0  0  0  0  0  0  0
   59.7420   33.6390   48.5710 C   0  0  0  0  0  0  0  0  0  0  0  0
   61.2020   33.2520   48.6600 C   0  0  0  0  0  0  0  0  0  0  0  0
   62.1360   34.1960   49.1290 C   0  0  0  0  0  0  0  0  0  0  0  0
   63.4940   33.8770   49.1980 C   0  0  0  0  0  0  0  0  0  0  0  0
   63.9380   32.6150   48.8000 C   0  0  0  0  0  0  0  0  0  0  0  0
   63.0250   31.6700   48.3300 C   0  0  0  0  0  0  0  0  0  0  0  0
   61.6610   31.9780   48.2550 C   0  0  0  0  0  0  0  0  0  0  0  0
   60.5640   30.7380   47.6600 Cl  0  0  0  0  0  0  0  0  0  0  0  0
   58.3380   32.9680   46.6280 C   0  0  0  0  0  0  0  0  0  0  0  0
   57.7770   32.0830   47.3320 O   0  0  0  0  0  0  0  0  0  0  0  0
   57.0550   27.8870   45.6450 C   0  0  0  0  0  0  0  0  0  0  0  0
   56.1550   23.6532   46.6612 H   0  0  0  0  0  0  0  0  0  0  0  0
   55.2496   23.7117   45.1109 H   0  0  0  0  0  0  0  0  0  0  0  0
   57.0405   23.8511   45.1109 H   0  0  0  0  0  0  0  0  0  0  0  0
   58.6131   24.8398   45.6886 H   0  0  0  0  0  0  0  0  0  0  0  0
   60.6160   26.3136   45.5681 H   0  0  0  0  0  0  0  0  0  0  0  0
   60.3521   28.7887   45.4931 H   0  0  0  0  0  0  0  0  0  0  0  0
   58.6540   30.7380   46.0870 H   0  0  0  0  0  0  0  0  0  0  0  0
   58.2901   34.2144   43.4444 H   0  0  0  0  0  0  0  0  0  0  0  0
   60.0100   35.7094   44.4604 H   0  0  0  0  0  0  0  0  0  0  0  0
   60.6330   35.4290   46.8543 H   0  0  0  0  0  0  0  0  0  0  0  0
   59.5925   34.5984   49.0879 H   0  0  0  0  0  0  0  0  0  0  0  0
   59.1414   32.8476   49.0433 H   0  0  0  0  0  0  0  0  0  0  0  0
   61.7931   35.1927   49.4436 H   0  0  0  0  0  0  0  0  0  0  0  0
   64.2149   34.6216   49.5666 H   0  0  0  0  0  0  0  0  0  0  0  0
   65.0078   32.3653   48.8568 H   0  0  0  0  0  0  0  0  0  0  0  0
   63.3790   30.6769   48.0165 H   0  0  0  0  0  0  0  0  0  0  0  0
   56.0511   28.3350   45.6825 H   0  0  0  0  0  0  0  0  0  0  0  0
  1  2  1  0
  2  3  2  0
  2  4  1  0
  4  5  2  0
  5  6  1  0
  6  7  2  0
  7  8  1  0
  8  9  1  0
  9 10  1  0
 10 11  2  0
 10 12  1  0
 12 13  1  0
 13 14  2  0
 14 15  1  0
 15 16  2  0
 16 17  1  0
 17 18  1  0
 18 19  1  0
 19 20  2  0
 20 21  1  0
 21 22  2  0
 22 23  1  0
 23 24  2  0
 24 25  1  0
 17 26  1  0
 26 27  2  0
  8 28  2  0
 28  4  1  0
 26 13  1  0
 24 19  1  0
  1 29  1  0
  1 30  1  0
  1 31  1  0
  5 32  1  0
  6 33  1  0
  7 34  1  0
  9 35  1  0
 14 36  1  0
 15 37  1  0
 16 38  1  0
 18 39  1  0
 18 40  1  0
 20 41  1  0
 21 42  1  0
 22 43  1  0
 23 44  1  0
 28 45  1  0
M  CHG  1  12  -1
M  END
>  <UniqueID>  (86) 
77

>  <SMILES>  (86) 
CC(=O)c1cccc(NC(=O)[N-]c2cccn(Cc3ccccc3Cl)c2=O)c1

>  <Energy>  (86) 
59.18368256424364

>  <Genealogy>  (86) 
CC(=O)c1cccc(NC(=O)[N-]c2cccn(Cc3ccccc3Cl)c2=O)c1 (protonated)
CC(=O)c1cccc(NC(=O)[N-]c2cccn(Cc3ccccc3Cl)c2=O)c1 (3D coordinates assigned)
CC(=O)c1cccc(NC(=O)[N-]c2cccn(Cc3ccccc3Cl)c2=O)c1 (optimized conformer: 59.18368256424364 kcal/mol)

>  <smiles>  (86) 
CC(=O)c1cccc(NC(=O)Nc2cccn(Cc3ccccc3Cl)c2=O)c1

>  <score_type>  (86) 
oracle

>  <origin>  (86) 
adg

>  <m_score__min__energy>  (86) 
-11.09

>  <m_primary>  (86) 
energy

$$$$
86:0
     RDKit          3D

 38 40  0  0  0  0  0  0  0  0999 V2000
   61.7870   25.9640   46.0100 C   0  0  0  0  0  0  0  0  0  0  0  0
   60.3840   25.7180   45.9780 O   0  0  0  0  0  0  0  0  0  0  0  0
   59.4170   26.6920   45.6880 C   0  0  0  0  0  0  0  0  0  0  0  0
   59.7510   27.9650   45.2030 C   0  0  0  0  0  0  0  0  0  0  0  0
   58.7530   28.9010   44.9330 C   0  0  0  0  0  0  0  0  0  0  0  0
   57.3950   28.5920   45.1430 C   0  0  0  0  0  0  0  0  0  0  0  0
   56.3650   29.6260   44.8480 C   0  0  0  0  0  0  0  0  0  0  0  0
   55.1460   29.3050   44.8390 O   0  0  0  0  0  0  0  0  0  0  0  0
   56.7500   30.9650   44.5070 N   0  0  0  0  0  0  0  0  0  0  0  0
   57.6300   31.8200   45.2490 C   0  0  0  0  0  0  0  0  0  0  0  0
   57.9410   33.1240   44.8190 C   0  0  0  0  0  0  0  0  0  0  0  0
   58.7830   33.9390   45.5820 C   0  0  0  0  0  0  0  0  0  0  0  0
   59.3130   33.4690   46.7870 C   0  0  0  0  0  0  0  0  0  0  0  0
   60.1150   34.2470   47.5110 O   0  0  0  0  0  0  0  0  0  0  0  0
   60.6430   33.8520   48.6670 C   0  0  0  0  0  0  0  0  0  0  0  0
   61.3960   34.6320   49.3060 O   0  0  0  0  0  0  0  0  0  0  0  0
   60.3640   32.5780   49.1730 C   0  0  0  0  0  0  0  0  0  0  0  0
   59.5270   31.7300   48.4480 C   0  0  0  0  0  0  0  0  0  0  0  0
   58.9880   32.1710   47.2350 C   0  0  0  0  0  0  0  0  0  0  0  0
   58.1430   31.3580   46.4690 C   0  0  0  0  0  0  0  0  0  0  0  0
   57.0500   27.3040   45.6210 C   0  0  0  0  0  0  0  0  0  0  0  0
   55.6970   26.9720   45.8060 O   0  0  0  0  0  0  0  0  0  0  0  0
   55.1610   25.6550   45.7170 C   0  0  0  0  0  0  0  0  0  0  0  0
   58.0710   26.3710   45.8930 C   0  0  0  0  0  0  0  0  0  0  0  0
   62.1251   26.0233   47.0551 H   0  0  0  0  0  0  0  0  0  0  0  0
   62.3147   25.1447   45.4998 H   0  0  0  0  0  0  0  0  0  0  0  0
   62.0044   26.9140   45.4998 H   0  0  0  0  0  0  0  0  0  0  0  0
   60.8061   28.2266   45.0346 H   0  0  0  0  0  0  0  0  0  0  0  0
   59.0303   29.8944   44.5507 H   0  0  0  0  0  0  0  0  0  0  0  0
   57.5190   33.5041   43.8770 H   0  0  0  0  0  0  0  0  0  0  0  0
   59.0289   34.9528   45.2330 H   0  0  0  0  0  0  0  0  0  0  0  0
   60.7984   32.2498   50.1288 H   0  0  0  0  0  0  0  0  0  0  0  0
   59.2930   30.7240   48.8265 H   0  0  0  0  0  0  0  0  0  0  0  0
   57.8805   30.3515   46.8267 H   0  0  0  0  0  0  0  0  0  0  0  0
   54.9986   25.2560   46.7292 H   0  0  0  0  0  0  0  0  0  0  0  0
   54.2034   25.6846   45.1766 H   0  0  0  0  0  0  0  0  0  0  0  0
   55.8671   25.0075   45.1766 H   0  0  0  0  0  0  0  0  0  0  0  0
   57.8048   25.3736   46.2729 H   0  0  0  0  0  0  0  0  0  0  0  0
  1  2  1  0
  2  3  1  0
  3  4  2  0
  4  5  1  0
  5  6  2  0
  6  7  1  0
  7  8  2  0
  7  9  1  0
  9 10  1  0
 10 11  2  0
 11 12  1  0
 12 13  2  0
 13 14  1  0
 14 15  1  0
 15 16  2  0
 15 17  1  0
 17 18  2  0
 18 19  1  0
 19 20  2  0
  6 21  1  0
 21 22  1  0
 22 23  1  0
 21 24  2  0
 24  3  1  0
 20 10  1  0
 19 13  1  0
  1 25  1  0
  1 26  1  0
  1 27  1  0
  4 28  1  0
  5 29  1  0
 11 30  1  0
 12 31  1  0
 17 32  1  0
 18 33  1  0
 20 34  1  0
 23 35  1  0
 23 36  1  0
 23 37  1  0
 24 38  1  0
M  CHG  1   9  -1
M  END
>  <UniqueID>  (87) 
78

>  <SMILES>  (87) 
COc1ccc(C(=O)[N-]c2ccc3oc(=O)ccc3c2)c(OC)c1

>  <Energy>  (87) 
50.10409194367836

>  <Genealogy>  (87) 
COc1ccc(C(=O)[N-]c2ccc3oc(=O)ccc3c2)c(OC)c1 (protonated)
COc1ccc(C(=O)[N-]c2ccc3oc(=O)ccc3c2)c(OC)c1 (3D coordinates assigned)
COc1ccc(C(=O)[N-]c2ccc3oc(=O)ccc3c2)c(OC)c1 (optimized conformer: 50.10409194367836 kcal/mol)

>  <smiles>  (87) 
COc1ccc(C(=O)Nc2ccc3oc(=O)ccc3c2)c(OC)c1

>  <score_type>  (87) 
oracle

>  <origin>  (87) 
adg

>  <m_score__min__energy>  (87) 
-8.8499999999999996

>  <m_primary>  (87) 
energy

$$$$
87:0
     RDKit          3D

 40 43  0  0  0  0  0  0  0  0999 V2000
   56.6950   30.5340   42.3160 O   0  0  0  0  0  0  0  0  0  0  0  0
   56.9990   30.2420   43.5030 C   0  0  0  0  0  0  0  0  0  0  0  0
   56.7250   29.0190   44.0230 N   0  0  0  0  0  0  0  0  0  0  0  0
   57.2740   29.0450   45.5910 S   0  0  0  0  0  0  0  0  0  0  0  0
   57.8770   30.6140   45.6370 C   0  0  0  0  0  0  0  0  0  0  0  0
   57.6400   31.1480   44.3860 C   0  0  0  0  0  0  0  0  0  0  0  0
   58.0180   32.4520   44.1220 C   0  0  0  0  0  0  0  0  0  0  0  0
   57.8030   32.9540   42.9820 O   0  0  0  0  0  0  0  0  0  0  0  0
   58.6420   33.2010   45.1420 C   0  0  0  0  0  0  0  0  0  0  0  0
   59.0160   34.5300   44.8680 C   0  0  0  0  0  0  0  0  0  0  0  0
   59.6310   35.3060   45.8310 C   0  0  0  0  0  0  0  0  0  0  0  0
   59.8950   34.7790   47.0820 C   0  0  0  0  0  0  0  0  0  0  0  0
   59.5500   33.4630   47.4120 C   0  0  0  0  0  0  0  0  0  0  0  0
   60.0570   33.0650   49.0550 Cl  0  0  0  0  0  0  0  0  0  0  0  0
   58.8890   32.6140   46.4430 C   0  0  0  0  0  0  0  0  0  0  0  0
   58.4780   31.2910   46.6690 N   0  0  0  0  0  0  0  0  0  0  0  0
   58.6360   30.5330   47.9330 C   0  0  0  0  0  0  0  0  0  0  0  0
   59.7890   29.4930   47.8700 C   0  0  0  0  0  0  0  0  0  0  0  0
   60.7260   29.7570   46.6570 C   0  0  0  0  0  0  0  0  0  0  0  0
   60.5170   28.7470   45.5230 C   0  0  0  0  0  0  0  0  0  0  0  0
   60.7620   27.2980   45.9930 C   0  0  0  0  0  0  0  0  0  0  0  0
   60.3910   27.0580   47.4710 C   0  0  0  0  0  0  0  0  0  0  0  0
   59.3010   28.0240   47.9440 C   0  0  0  0  0  0  0  0  0  0  0  0
   56.2590   28.2220   43.5360 H   0  0  0  0  0  0  0  0  0  0  0  0
   58.8159   34.9562   43.8739 H   0  0  0  0  0  0  0  0  0  0  0  0
   59.9112   36.3449   45.6025 H   0  0  0  0  0  0  0  0  0  0  0  0
   60.3883   35.4095   47.8364 H   0  0  0  0  0  0  0  0  0  0  0  0
   58.8476   31.2439   48.7453 H   0  0  0  0  0  0  0  0  0  0  0  0
   57.7007   29.9811   48.1079 H   0  0  0  0  0  0  0  0  0  0  0  0
   60.3878   29.6366   48.7815 H   0  0  0  0  0  0  0  0  0  0  0  0
   60.5267   30.7674   46.2706 H   0  0  0  0  0  0  0  0  0  0  0  0
   61.7636   29.6556   47.0079 H   0  0  0  0  0  0  0  0  0  0  0  0
   59.4834   28.8323   45.1564 H   0  0  0  0  0  0  0  0  0  0  0  0
   61.2398   28.9743   44.7255 H   0  0  0  0  0  0  0  0  0  0  0  0
   60.1582   26.6229   45.3687 H   0  0  0  0  0  0  0  0  0  0  0  0
   61.8405   27.1048   45.8953 H   0  0  0  0  0  0  0  0  0  0  0  0
   60.0270   26.0262   47.5844 H   0  0  0  0  0  0  0  0  0  0  0  0
   61.2894   27.2278   48.0826 H   0  0  0  0  0  0  0  0  0  0  0  0
   58.4143   27.9070   47.3036 H   0  0  0  0  0  0  0  0  0  0  0  0
   59.0551   27.7892   48.9901 H   0  0  0  0  0  0  0  0  0  0  0  0
  1  2  2  0
  2  3  1  0
  3  4  1  0
  4  5  1  0
  5  6  2  0
  6  7  1  0
  7  8  2  0
  7  9  1  0
  9 10  2  0
 10 11  1  0
 11 12  2  0
 12 13  1  0
 13 14  1  0
 13 15  2  0
 15 16  1  0
 16 17  1  0
 17 18  1  0
 18 19  1  0
 19 20  1  0
 20 21  1  0
 21 22  1  0
 22 23  1  0
  6  2  1  0
 15  9  1  0
 23 18  1  0
 16  5  1  0
  3 24  1  0
 10 25  1  0
 11 26  1  0
 12 27  1  0
 17 28  1  0
 17 29  1  0
 18 30  1  0
 19 31  1  0
 19 32  1  0
 20 33  1  0
 20 34  1  0
 21 35  1  0
 21 36  1  0
 22 37  1  0
 22 38  1  0
 23 39  1  0
 23 40  1  0
M  END
>  <UniqueID>  (88) 
79

>  <SMILES>  (88) 
O=c1[nH]sc2c1c(=O)c1cccc(Cl)c1n2CC1CCCCC1

>  <Energy>  (88) 
112.45284259524597

>  <Genealogy>  (88) 
O=c1[nH]sc2c1c(=O)c1cccc(Cl)c1n2CC1CCCCC1 (3D coordinates assigned)
O=c1[nH]sc2c1c(=O)c1cccc(Cl)c1n2CC1CCCCC1 (nonaromatic ring conformer: 112.45284259524597 kcal/mol)

>  <smiles>  (88) 
O=c1[nH]sc2c1c(=O)c1cccc(Cl)c1n2CC1CCCCC1

>  <score_type>  (88) 
oracle

>  <origin>  (88) 
adg

>  <m_score__min__energy>  (88) 
-8.4299999999999997

>  <m_primary>  (88) 
energy

$$$$
88:0
     RDKit          3D

 36 38  0  0  0  0  0  0  0  0999 V2000
   60.8630   32.7500   47.1140 C   0  0  0  0  0  0  0  0  0  0  0  0
   59.7410   33.6940   47.2680 N   0  0  0  0  0  0  0  0  0  0  0  0
   59.6470   34.1740   48.6570 C   0  0  0  0  0  0  0  0  0  0  0  0
   59.7810   34.7960   46.2740 C   0  0  0  0  0  0  0  0  0  0  0  0
   59.2180   34.4470   44.8790 C   0  0  0  0  0  0  0  0  0  0  0  0
   57.4090   34.1950   44.9320 S   0  0  0  0  0  0  0  0  0  0  0  0
   57.5410   32.4120   44.8650 C   0  0  0  0  0  0  0  0  0  0  0  0
   57.8070   31.6480   45.9500 N   0  0  0  0  0  0  0  0  0  0  0  0
   57.8470   30.3330   45.6140 C   0  0  0  0  0  0  0  0  0  0  0  0
   58.0980   29.2990   46.5170 C   0  0  0  0  0  0  0  0  0  0  0  0
   58.1120   27.9710   46.0430 C   0  0  0  0  0  0  0  0  0  0  0  0
   58.3610   26.9060   46.9220 C   0  0  0  0  0  0  0  0  0  0  0  0
   58.3730   25.5910   46.4470 C   0  0  0  0  0  0  0  0  0  0  0  0
   58.1390   25.3280   45.0950 C   0  0  0  0  0  0  0  0  0  0  0  0
   57.8900   26.3760   44.2040 C   0  0  0  0  0  0  0  0  0  0  0  0
   57.8730   27.7010   44.6620 C   0  0  0  0  0  0  0  0  0  0  0  0
   57.6220   28.7630   43.7710 C   0  0  0  0  0  0  0  0  0  0  0  0
   57.6160   30.0590   44.2760 C   0  0  0  0  0  0  0  0  0  0  0  0
   57.3490   31.4980   43.4540 S   0  0  0  0  0  0  0  0  0  0  0  0
   61.2249   32.4455   48.1071 H   0  0  0  0  0  0  0  0  0  0  0  0
   60.5224   31.8628   46.5600 H   0  0  0  0  0  0  0  0  0  0  0  0
   61.6788   33.2374   46.5600 H   0  0  0  0  0  0  0  0  0  0  0  0
   58.8650   33.1520   47.0760 H   0  0  0  0  0  0  0  0  0  0  0  0
   59.8116   33.3335   49.3473 H   0  0  0  0  0  0  0  0  0  0  0  0
   60.4110   34.9461   48.8306 H   0  0  0  0  0  0  0  0  0  0  0  0
   58.6482   34.6009   48.8306 H   0  0  0  0  0  0  0  0  0  0  0  0
   59.1969   35.6372   46.6755 H   0  0  0  0  0  0  0  0  0  0  0  0
   60.8449   35.0308   46.1227 H   0  0  0  0  0  0  0  0  0  0  0  0
   59.4442   35.2706   44.1858 H   0  0  0  0  0  0  0  0  0  0  0  0
   59.6874   33.5113   44.5411 H   0  0  0  0  0  0  0  0  0  0  0  0
   58.2817   29.5161   47.5796 H   0  0  0  0  0  0  0  0  0  0  0  0
   58.5472   27.1061   47.9875 H   0  0  0  0  0  0  0  0  0  0  0  0
   58.5675   24.7599   47.1409 H   0  0  0  0  0  0  0  0  0  0  0  0
   58.1508   24.2905   44.7296 H   0  0  0  0  0  0  0  0  0  0  0  0
   57.7070   26.1606   43.1409 H   0  0  0  0  0  0  0  0  0  0  0  0
   57.4356   28.5723   42.7038 H   0  0  0  0  0  0  0  0  0  0  0  0
  1  2  1  0
  2  3  1  0
  2  4  1  0
  4  5  1  0
  5  6  1  0
  6  7  1  0
  7  8  2  0
  8  9  1  0
  9 10  2  0
 10 11  1  0
 11 12  2  0
 12 13  1  0
 13 14  2  0
 14 15  1  0
 15 16  2  0
 16 17  1  0
 17 18  2  0
 18 19  1  0
 19  7  1  0
 18  9  1  0
 16 11  1  0
  1 20  1  0
  1 21  1  0
  1 22  1  0
  2 23  1  0
  3 24  1  0
  3 25  1  0
  3 26  1  0
  4 27  1  0
  4 28  1  0
  5 29  1  0
  5 30  1  0
 10 31  1  0
 12 32  1  0
 13 33  1  0
 14 34  1  0
 15 35  1  0
 17 36  1  0
M  CHG  1   2   1
M  END
>  <UniqueID>  (89) 
80

>  <SMILES>  (89) 
C[NH+](C)CCSc1nc2cc3ccccc3cc2s1

>  <Energy>  (89) 
74.6621180300839

>  <Genealogy>  (89) 
C[NH+](C)CCSc1nc2cc3ccccc3cc2s1 (protonated)
C[NH+](C)CCSc1nc2cc3ccccc3cc2s1 (3D coordinates assigned)
C[NH+](C)CCSc1nc2cc3ccccc3cc2s1 (optimized conformer: 74.6621180300839 kcal/mol)

>  <smiles>  (89) 
CN(C)CCSc1nc2cc3ccccc3cc2s1

>  <score_type>  (89) 
oracle

>  <origin>  (89) 
adg

>  <m_score__min__energy>  (89) 
-5.8700000000000001

>  <m_primary>  (89) 
energy

$$$$
89:0
     RDKit          3D

 26 27  0  0  0  0  0  0  0  0999 V2000
   55.8990   22.4910   41.8160 H   0  0  0  0  0  0  0  0  0  0  0  0
   55.6260   22.3930   42.7870 O   0  0  0  0  0  0  0  0  0  0  0  0
   56.0110   23.3240   43.7490 C   0  0  0  0  0  0  0  0  0  0  0  0
   57.3620   23.4980   44.0740 C   0  0  0  0  0  0  0  0  0  0  0  0
   58.1297   22.8943   43.5679 H   0  0  0  0  0  0  0  0  0  0  0  0
   57.7380   24.4360   45.0390 C   0  0  0  0  0  0  0  0  0  0  0  0
   58.8015   24.5672   45.2876 H   0  0  0  0  0  0  0  0  0  0  0  0
   56.7650   25.2150   45.6960 C   0  0  0  0  0  0  0  0  0  0  0  0
   57.1560   26.2100   46.7210 C   0  0  0  0  0  0  0  0  0  0  0  0
   57.7438   25.8898   47.5939 H   0  0  0  0  0  0  0  0  0  0  0  0
   56.8120   27.4570   46.6000 N   0  0  0  0  0  0  0  0  0  0  0  0
   57.3840   28.4210   45.6980 C   0  0  0  0  0  0  0  0  0  0  0  0
   58.7770   28.6190   45.5800 C   0  0  0  0  0  0  0  0  0  0  0  0
   59.4684   28.0309   46.2014 H   0  0  0  0  0  0  0  0  0  0  0  0
   59.2810   29.5590   44.6770 C   0  0  0  0  0  0  0  0  0  0  0  0
   60.3671   29.7132   44.5955 H   0  0  0  0  0  0  0  0  0  0  0  0
   58.4110   30.3030   43.8780 C   0  0  0  0  0  0  0  0  0  0  0  0
   58.8112   31.0454   43.1718 H   0  0  0  0  0  0  0  0  0  0  0  0
   57.0320   30.1040   43.9760 C   0  0  0  0  0  0  0  0  0  0  0  0
   56.3469   30.6872   43.3431 H   0  0  0  0  0  0  0  0  0  0  0  0
   56.5200   29.1640   44.8780 C   0  0  0  0  0  0  0  0  0  0  0  0
   55.1450   28.9750   44.9590 O   0  0  0  0  0  0  0  0  0  0  0  0
   55.4070   25.0320   45.3640 C   0  0  0  0  0  0  0  0  0  0  0  0
   54.4150   25.7800   45.9900 O   0  0  0  0  0  0  0  0  0  0  0  0
   55.0400   24.0910   44.3950 C   0  0  0  0  0  0  0  0  0  0  0  0
   53.9785   23.9549   44.1407 H   0  0  0  0  0  0  0  0  0  0  0  0
  1  2  1  0
  2  3  1  0
  3  4  2  0
  4  5  1  0
  4  6  1  0
  6  7  1  0
  6  8  2  0
  8  9  1  0
  9 10  1  0
  9 11  2  0
 11 12  1  0
 12 13  2  0
 13 14  1  0
 13 15  1  0
 15 16  1  0
 15 17  2  0
 17 18  1  0
 17 19  1  0
 19 20  1  0
 19 21  2  0
 21 22  1  0
  8 23  1  0
 23 24  1  0
 23 25  2  0
 25 26  1  0
 25  3  1  0
 21 12  1  0
M  CHG  2  22  -1  24  -1
M  END
>  <UniqueID>  (90) 
81

>  <SMILES>  (90) 
[O-]c1cc(O)ccc1/C=N/c1ccccc1[O-]

>  <Energy>  (90) 
30.690900236598832

>  <Genealogy>  (90) 
[O-]c1cc(O)ccc1C=Nc1ccccc1[O-] (protonated)
[O-]c1cc(O)ccc1/C=N/c1ccccc1[O-] (cis-trans isomerization)
[O-]c1cc(O)ccc1/C=N/c1ccccc1[O-] (3D coordinates assigned)
[O-]c1cc(O)ccc1/C=N/c1ccccc1[O-] (optimized conformer: 30.690900236598832 kcal/mol)

>  <smiles>  (90) 
Oc1ccc(C=Nc2ccccc2O)c(O)c1

>  <score_type>  (90) 
oracle

>  <origin>  (90) 
adg

>  <m_score__min__energy>  (90) 
-13.289999999999999

>  <m_primary>  (90) 
energy

$$$$
90:0
     RDKit          3D

 32 33  0  0  0  0  0  0  0  0999 V2000
   59.6070   35.4500   46.3840 C   0  0  0  0  0  0  0  0  0  0  0  0
   59.6280   34.0640   46.8420 N   0  0  0  0  0  0  0  0  0  0  0  0
   58.9160   32.9980   46.1850 C   0  0  0  0  0  0  0  0  0  0  0  0
   57.7810   33.3000   45.4190 C   0  0  0  0  0  0  0  0  0  0  0  0
   57.0710   32.2870   44.7680 C   0  0  0  0  0  0  0  0  0  0  0  0
   57.4900   30.9550   44.8740 C   0  0  0  0  0  0  0  0  0  0  0  0
   56.6030   29.6890   44.0300 S   0  0  0  0  0  0  0  0  0  0  0  0
   55.5370   30.2800   43.1500 O   0  0  0  0  0  0  0  0  0  0  0  0
   57.5660   28.9130   43.1770 O   0  0  0  0  0  0  0  0  0  0  0  0
   55.8620   28.6180   45.1770 N   0  0  0  0  0  0  0  0  0  0  0  0
   56.5270   27.4730   45.7470 C   0  0  0  0  0  0  0  0  0  0  0  0
   57.9230   27.4530   45.9340 C   0  0  0  0  0  0  0  0  0  0  0  0
   58.5510   26.3280   46.4790 C   0  0  0  0  0  0  0  0  0  0  0  0
   60.2910   26.3150   46.6960 Cl  0  0  0  0  0  0  0  0  0  0  0  0
   57.7930   25.2160   46.8510 C   0  0  0  0  0  0  0  0  0  0  0  0
   56.4070   25.2270   46.6820 C   0  0  0  0  0  0  0  0  0  0  0  0
   55.7720   26.3470   46.1330 C   0  0  0  0  0  0  0  0  0  0  0  0
   54.3920   26.3300   45.9690 O   0  0  0  0  0  0  0  0  0  0  0  0
   58.6180   30.6430   45.6420 C   0  0  0  0  0  0  0  0  0  0  0  0
   59.3300   31.6560   46.2930 C   0  0  0  0  0  0  0  0  0  0  0  0
   59.5968   36.1234   47.2537 H   0  0  0  0  0  0  0  0  0  0  0  0
   60.5022   35.6491   45.7766 H   0  0  0  0  0  0  0  0  0  0  0  0
   58.7061   35.6218   45.7766 H   0  0  0  0  0  0  0  0  0  0  0  0
   60.1910   33.8450   47.6950 H   0  0  0  0  0  0  0  0  0  0  0  0
   57.4461   34.3440   45.3295 H   0  0  0  0  0  0  0  0  0  0  0  0
   56.1813   32.5367   44.1712 H   0  0  0  0  0  0  0  0  0  0  0  0
   54.8510   28.7800   45.3810 H   0  0  0  0  0  0  0  0  0  0  0  0
   58.5242   28.3290   45.6492 H   0  0  0  0  0  0  0  0  0  0  0  0
   58.2879   24.3310   47.2774 H   0  0  0  0  0  0  0  0  0  0  0  0
   55.8117   24.3518   46.9816 H   0  0  0  0  0  0  0  0  0  0  0  0
   58.9458   29.5970   45.7340 H   0  0  0  0  0  0  0  0  0  0  0  0
   60.2173   31.4034   46.8920 H   0  0  0  0  0  0  0  0  0  0  0  0
  1  2  1  0
  2  3  1  0
  3  4  2  0
  4  5  1  0
  5  6  2  0
  6  7  1  0
  7  8  2  0
  7  9  2  0
  7 10  1  0
 10 11  1  0
 11 12  2  0
 12 13  1  0
 13 14  1  0
 13 15  2  0
 15 16  1  0
 16 17  2  0
 17 18  1  0
  6 19  1  0
 19 20  2  0
 20  3  1  0
 17 11  1  0
  1 21  1  0
  1 22  1  0
  1 23  1  0
  2 24  1  0
  4 25  1  0
  5 26  1  0
 10 27  1  0
 12 28  1  0
 15 29  1  0
 16 30  1  0
 19 31  1  0
 20 32  1  0
M  CHG  1  18  -1
M  END
>  <UniqueID>  (91) 
82

>  <SMILES>  (91) 
CNc1ccc(S(=O)(=O)Nc2cc(Cl)ccc2[O-])cc1

>  <Energy>  (91) 
34.216520648872134

>  <Genealogy>  (91) 
CNc1ccc(S(=O)(=O)Nc2cc(Cl)ccc2[O-])cc1 (protonated)
CNc1ccc(S(=O)(=O)Nc2cc(Cl)ccc2[O-])cc1 (3D coordinates assigned)
CNc1ccc(S(=O)(=O)Nc2cc(Cl)ccc2[O-])cc1 (optimized conformer: 34.216520648872134 kcal/mol)

>  <smiles>  (91) 
CNc1ccc(S(=O)(=O)Nc2cc(Cl)ccc2O)cc1

>  <score_type>  (91) 
oracle

>  <origin>  (91) 
adg

>  <m_score__min__energy>  (91) 
-11.199999999999999

>  <m_primary>  (91) 
energy

$$$$
91:0
     RDKit          3D

 46 49  0  0  0  0  0  0  0  0999 V2000
   57.7296   21.6823   43.5551 H   0  0  0  0  0  0  0  0  0  0  0  0
   57.3320   22.5850   44.0420 C   0  0  0  0  0  0  0  0  0  0  0  0
   58.1620   23.3650   44.8510 C   0  0  0  0  0  0  0  0  0  0  0  0
   59.2104   23.0713   45.0076 H   0  0  0  0  0  0  0  0  0  0  0  0
   57.6610   24.5190   45.4620 C   0  0  0  0  0  0  0  0  0  0  0  0
   58.3152   25.1246   46.1064 H   0  0  0  0  0  0  0  0  0  0  0  0
   56.3310   24.9080   45.2580 C   0  0  0  0  0  0  0  0  0  0  0  0
   55.8680   26.0700   45.8960 O   0  0  0  0  0  0  0  0  0  0  0  0
   56.5790   27.2720   45.9990 C   0  0  0  0  0  0  0  0  0  0  0  0
   57.6030   27.4100   46.8810 N   0  0  0  0  0  0  0  0  0  0  0  0
   58.2780   28.5850   46.9800 C   0  0  0  0  0  0  0  0  0  0  0  0
   59.3670   28.7280   47.9160 N   0  0  0  0  0  0  0  0  0  0  0  0
   59.9780   30.0470   48.1320 C   0  0  0  0  0  0  0  0  0  0  0  0
   60.7349   30.2274   47.3545 H   0  0  0  0  0  0  0  0  0  0  0  0
   59.1931   30.8161   48.0816 H   0  0  0  0  0  0  0  0  0  0  0  0
   60.6450   30.1080   49.5090 C   0  0  0  0  0  0  0  0  0  0  0  0
   61.2214   31.0414   49.5898 H   0  0  0  0  0  0  0  0  0  0  0  0
   59.8632   30.0736   50.2821 H   0  0  0  0  0  0  0  0  0  0  0  0
   61.5140   29.0090   49.6930 O   0  0  0  0  0  0  0  0  0  0  0  0
   60.7620   27.8130   49.7300 C   0  0  0  0  0  0  0  0  0  0  0  0
   61.4295   26.9751   49.9797 H   0  0  0  0  0  0  0  0  0  0  0  0
   59.9744   27.9158   50.4910 H   0  0  0  0  0  0  0  0  0  0  0  0
   60.1020   27.5420   48.3750 C   0  0  0  0  0  0  0  0  0  0  0  0
   60.8785   27.2893   47.6379 H   0  0  0  0  0  0  0  0  0  0  0  0
   59.3963   26.7052   48.4833 H   0  0  0  0  0  0  0  0  0  0  0  0
   57.9090   29.6270   46.1920 N   0  0  0  0  0  0  0  0  0  0  0  0
   56.8690   29.5100   45.3250 C   0  0  0  0  0  0  0  0  0  0  0  0
   56.5080   30.5050   44.5680 N   0  0  0  0  0  0  0  0  0  0  0  0
   57.3690   31.5370   44.0570 C   0  0  0  0  0  0  0  0  0  0  0  0
   57.6020   31.5660   42.8190 O   0  0  0  0  0  0  0  0  0  0  0  0
   57.9510   32.5880   44.9250 C   0  0  0  0  0  0  0  0  0  0  0  0
   58.6710   33.6530   44.3570 C   0  0  0  0  0  0  0  0  0  0  0  0
   58.7922   33.7111   43.2652 H   0  0  0  0  0  0  0  0  0  0  0  0
   59.2340   34.6390   45.1730 C   0  0  0  0  0  0  0  0  0  0  0  0
   59.8048   35.4643   44.7225 H   0  0  0  0  0  0  0  0  0  0  0  0
   59.0730   34.5780   46.5590 C   0  0  0  0  0  0  0  0  0  0  0  0
   59.5224   35.3514   47.1993 H   0  0  0  0  0  0  0  0  0  0  0  0
   58.3420   33.5360   47.1320 C   0  0  0  0  0  0  0  0  0  0  0  0
   58.2101   33.4925   48.2232 H   0  0  0  0  0  0  0  0  0  0  0  0
   57.7770   32.5470   46.3200 C   0  0  0  0  0  0  0  0  0  0  0  0
   57.1936   31.7330   46.7749 H   0  0  0  0  0  0  0  0  0  0  0  0
   56.2110   28.3270   45.2280 N   0  0  0  0  0  0  0  0  0  0  0  0
   55.4920   24.1050   44.4610 C   0  0  0  0  0  0  0  0  0  0  0  0
   54.4380   24.3854   44.3177 H   0  0  0  0  0  0  0  0  0  0  0  0
   55.9970   22.9510   43.8510 C   0  0  0  0  0  0  0  0  0  0  0  0
   55.3423   22.3314   43.2205 H   0  0  0  0  0  0  0  0  0  0  0  0
  1  2  1  0
  2  3  2  0
  3  4  1  0
  3  5  1  0
  5  6  1  0
  5  7  2  0
  7  8  1  0
  8  9  1  0
  9 10  2  0
 10 11  1  0
 11 12  1  0
 12 13  1  0
 13 14  1  0
 13 15  1  0
 13 16  1  0
 16 17  1  0
 16 18  1  0
 16 19  1  0
 19 20  1  0
 20 21  1  0
 20 22  1  0
 20 23  1  0
 23 24  1  0
 23 25  1  0
 11 26  2  0
 26 27  1  0
 27 28  2  0
 28 29  1  0
 29 30  2  0
 29 31  1  0
 31 32  2  0
 32 33  1  0
 32 34  1  0
 34 35  1  0
 34 36  2  0
 36 37  1  0
 36 38  1  0
 38 39  1  0
 38 40  2  0
 40 41  1  0
 27 42  1  0
  7 43  1  0
 43 44  1  0
 43 45  2  0
 45 46  1  0
 45  2  1  0
 42  9  1  0
 23 12  1  0
 40 31  1  0
M  CHG  1  42  -1
M  END
>  <UniqueID>  (92) 
83

>  <SMILES>  (92) 
O=C(/N=c1\nc(N2CCOCC2)nc(Oc2ccccc2)[n-]1)c1ccccc1

>  <Energy>  (92) 
62.49687143504873

>  <Genealogy>  (92) 
O=C(N=c1nc(N2CCOCC2)nc(Oc2ccccc2)[n-]1)c1ccccc1 (protonated)
O=C(/N=c1\nc(N2CCOCC2)nc(Oc2ccccc2)[n-]1)c1ccccc1 (cis-trans isomerization)
O=C(/N=c1\nc(N2CCOCC2)nc(Oc2ccccc2)[n-]1)c1ccccc1 (3D coordinates assigned)
O=C(/N=c1\nc(N2CCOCC2)nc(Oc2ccccc2)[n-]1)c1ccccc1 (nonaromatic ring conformer: 62.49687143504873 kcal/mol)

>  <smiles>  (92) 
O=C(N=c1nc(N2CCOCC2)nc(Oc2ccccc2)[nH]1)c1ccccc1

>  <score_type>  (92) 
oracle

>  <origin>  (92) 
adg

>  <m_score__min__energy>  (92) 
-9.5399999999999991

>  <m_primary>  (92) 
energy

$$$$
