0:0
     RDKit          3D

 59 63  0  0  0  0  0  0  0  0999 V2000
   56.6960   23.9620   43.1790 C   0  0  0  0  0  0  0  0  0  0  0  0
   56.4170   23.5530   44.5570 N   0  0  0  0  0  0  0  0  0  0  0  0
   56.2000   24.3510   45.6430 C   0  0  0  0  0  0  0  0  0  0  0  0
   56.2050   25.8320   45.6280 C   0  0  0  0  0  0  0  0  0  0  0  0
   55.1850   26.4720   45.9970 O   0  0  0  0  0  0  0  0  0  0  0  0
   57.3650   26.5400   45.1590 N   0  0  0  0  0  0  0  0  0  0  0  0
   57.5760   27.9480   45.3540 C   0  0  0  0  0  0  0  0  0  0  0  0
   58.4580   28.4280   46.3330 C   0  0  0  0  0  0  0  0  0  0  0  0
   58.6640   29.8010   46.4910 C   0  0  0  0  0  0  0  0  0  0  0  0
   57.9980   30.7420   45.6690 C   0  0  0  0  0  0  0  0  0  0  0  0
   58.1880   32.1810   45.8500 N   0  0  0  0  0  0  0  0  0  0  0  0
   58.0900   32.7410   47.2170 C   0  0  0  0  0  0  0  0  0  0  0  0
   58.4940   34.2190   47.3760 C   0  0  0  0  0  0  0  0  0  0  0  0
   59.2930   34.7400   46.2650 N   0  0  0  0  0  0  0  0  0  0  0  0
   60.7660   34.6180   46.3640 C   0  0  0  0  0  0  0  0  0  0  0  0
   61.2480   33.6430   47.4130 C   0  0  0  0  0  0  0  0  0  0  0  0
   61.6050   34.0950   48.6960 C   0  0  0  0  0  0  0  0  0  0  0  0
   62.0410   33.1900   49.6690 C   0  0  0  0  0  0  0  0  0  0  0  0
   62.1520   31.8320   49.3620 C   0  0  0  0  0  0  0  0  0  0  0  0
   61.8480   31.3810   48.0760 C   0  0  0  0  0  0  0  0  0  0  0  0
   61.4130   32.2830   47.1000 C   0  0  0  0  0  0  0  0  0  0  0  0
   58.6740   34.5020   44.9600 C   0  0  0  0  0  0  0  0  0  0  0  0
   58.4730   33.0160   44.6640 C   0  0  0  0  0  0  0  0  0  0  0  0
   57.1390   30.2370   44.6650 C   0  0  0  0  0  0  0  0  0  0  0  0
   56.9390   28.8630   44.5100 C   0  0  0  0  0  0  0  0  0  0  0  0
   55.9610   23.6480   46.7820 N   0  0  0  0  0  0  0  0  0  0  0  0
   56.0310   22.3680   46.3770 C   0  0  0  0  0  0  0  0  0  0  0  0
   55.8580   21.2260   47.1550 C   0  0  0  0  0  0  0  0  0  0  0  0
   55.9720   19.9760   46.5190 C   0  0  0  0  0  0  0  0  0  0  0  0
   56.2520   19.9010   45.1370 C   0  0  0  0  0  0  0  0  0  0  0  0
   56.4210   21.0740   44.3780 C   0  0  0  0  0  0  0  0  0  0  0  0
   56.3030   22.3010   45.0400 C   0  0  0  0  0  0  0  0  0  0  0  0
   57.3159   24.8707   43.1846 H   0  0  0  0  0  0  0  0  0  0  0  0
   57.2328   23.1552   42.6586 H   0  0  0  0  0  0  0  0  0  0  0  0
   55.7489   24.1674   42.6586 H   0  0  0  0  0  0  0  0  0  0  0  0
   58.0530   26.0220   44.5660 H   0  0  0  0  0  0  0  0  0  0  0  0
   58.9919   27.7180   46.9817 H   0  0  0  0  0  0  0  0  0  0  0  0
   59.3562   30.1573   47.2681 H   0  0  0  0  0  0  0  0  0  0  0  0
   57.0453   32.6411   47.5467 H   0  0  0  0  0  0  0  0  0  0  0  0
   58.8114   32.1715   47.8213 H   0  0  0  0  0  0  0  0  0  0  0  0
   57.5773   34.8217   47.4555 H   0  0  0  0  0  0  0  0  0  0  0  0
   59.1216   34.2826   48.2771 H   0  0  0  0  0  0  0  0  0  0  0  0
   61.1492   34.2880   45.3871 H   0  0  0  0  0  0  0  0  0  0  0  0
   61.1411   35.6079   46.6630 H   0  0  0  0  0  0  0  0  0  0  0  0
   61.5409   35.1667   48.9356 H   0  0  0  0  0  0  0  0  0  0  0  0
   62.2968   33.5481   50.6771 H   0  0  0  0  0  0  0  0  0  0  0  0
   62.4787   31.1183   50.1327 H   0  0  0  0  0  0  0  0  0  0  0  0
   61.9509   30.3138   47.8301 H   0  0  0  0  0  0  0  0  0  0  0  0
   61.1988   31.9261   46.0818 H   0  0  0  0  0  0  0  0  0  0  0  0
   57.6937   35.0005   44.9395 H   0  0  0  0  0  0  0  0  0  0  0  0
   59.3517   34.9046   44.1927 H   0  0  0  0  0  0  0  0  0  0  0  0
   57.6293   32.9173   43.9652 H   0  0  0  0  0  0  0  0  0  0  0  0
   59.4245   32.6512   44.2497 H   0  0  0  0  0  0  0  0  0  0  0  0
   56.6197   30.9380   43.9950 H   0  0  0  0  0  0  0  0  0  0  0  0
   56.2728   28.4968   43.7149 H   0  0  0  0  0  0  0  0  0  0  0  0
   55.6396   21.2987   48.2306 H   0  0  0  0  0  0  0  0  0  0  0  0
   55.8423   19.0521   47.1017 H   0  0  0  0  0  0  0  0  0  0  0  0
   56.3387   18.9185   44.6501 H   0  0  0  0  0  0  0  0  0  0  0  0
   56.6385   21.0278   43.3007 H   0  0  0  0  0  0  0  0  0  0  0  0
  1  2  1  0
  2  3  1  0
  3  4  1  0
  4  5  2  0
  4  6  1  0
  6  7  1  0
  7  8  2  0
  8  9  1  0
  9 10  2  0
 10 11  1  0
 11 12  1  0
 12 13  1  0
 13 14  1  0
 14 15  1  0
 15 16  1  0
 16 17  2  0
 17 18  1  0
 18 19  2  0
 19 20  1  0
 20 21  2  0
 14 22  1  0
 22 23  1  0
 10 24  1  0
 24 25  2  0
  3 26  2  0
 26 27  1  0
 27 28  2  0
 28 29  1  0
 29 30  2  0
 30 31  1  0
 31 32  2  0
 32  2  1  0
 25  7  1  0
 32 27  1  0
 23 11  1  0
 21 16  1  0
  1 33  1  0
  1 34  1  0
  1 35  1  0
  6 36  1  0
  8 37  1  0
  9 38  1  0
 12 39  1  0
 12 40  1  0
 13 41  1  0
 13 42  1  0
 15 43  1  0
 15 44  1  0
 17 45  1  0
 18 46  1  0
 19 47  1  0
 20 48  1  0
 21 49  1  0
 22 50  1  0
 22 51  1  0
 23 52  1  0
 23 53  1  0
 24 54  1  0
 25 55  1  0
 28 56  1  0
 29 57  1  0
 30 58  1  0
 31 59  1  0
M  END
>  <UniqueID>  (1) 
1

>  <SMILES>  (1) 
Cn1c(C(=O)Nc2ccc(N3CCN(Cc4ccccc4)CC3)cc2)nc2ccccc21

>  <Energy>  (1) 
123.67876503291798

>  <Genealogy>  (1) 
Cn1c(C(=O)Nc2ccc(N3CCN(Cc4ccccc4)CC3)cc2)nc2ccccc21 (3D coordinates assigned)
Cn1c(C(=O)Nc2ccc(N3CCN(Cc4ccccc4)CC3)cc2)nc2ccccc21 (nonaromatic ring conformer: 123.67876503291798 kcal/mol)

>  <smiles>  (1) 
Cn1c(C(=O)Nc2ccc(N3CCN(Cc4ccccc4)CC3)cc2)nc2ccccc21

>  <score_type>  (1) 
oracle

>  <origin>  (1) 
adg

>  <m_score__min__energy>  (1) 
-8.8200000000000003

>  <m_primary>  (1) 
energy

$$$$
1:0
     RDKit          3D

 53 56  0  0  0  0  0  0  0  0999 V2000
   58.7050   25.0480   46.4850 O   0  0  0  0  0  0  0  0  0  0  0  0
   58.9050   26.2820   46.6430 C   0  0  0  0  0  0  0  0  0  0  0  0
   59.9660   26.7440   47.4900 N   0  0  0  0  0  0  0  0  0  0  0  0
   59.9100   27.8390   48.4150 C   0  0  0  0  0  0  0  0  0  0  0  0
   59.1170   28.9780   48.1800 C   0  0  0  0  0  0  0  0  0  0  0  0
   59.1140   30.0350   49.0960 C   0  0  0  0  0  0  0  0  0  0  0  0
   59.9080   29.9730   50.2480 C   0  0  0  0  0  0  0  0  0  0  0  0
   59.9080   31.3210   51.3810 S   0  0  0  0  0  0  0  0  0  0  0  0
   58.4880   31.6390   51.7620 O   0  0  0  0  0  0  0  0  0  0  0  0
   60.6650   30.9460   52.6260 O   0  0  0  0  0  0  0  0  0  0  0  0
   60.6340   32.7130   50.6200 N   0  0  0  0  0  0  0  0  0  0  0  0
   59.6350   33.5150   49.9160 C   0  0  0  0  0  0  0  0  0  0  0  0
   60.3640   34.2230   48.7840 C   0  0  0  0  0  0  0  0  0  0  0  0
   61.6590   33.4480   48.5900 C   0  0  0  0  0  0  0  0  0  0  0  0
   61.6050   32.3150   49.6020 C   0  0  0  0  0  0  0  0  0  0  0  0
   60.7230   28.8550   50.4680 C   0  0  0  0  0  0  0  0  0  0  0  0
   60.7250   27.7970   49.5530 C   0  0  0  0  0  0  0  0  0  0  0  0
   58.0520   27.2660   45.9380 C   0  0  0  0  0  0  0  0  0  0  0  0
   56.6510   27.1350   45.8860 C   0  0  0  0  0  0  0  0  0  0  0  0
   55.9810   26.0310   46.4170 O   0  0  0  0  0  0  0  0  0  0  0  0
   55.9150   28.0920   45.2750 N   0  0  0  0  0  0  0  0  0  0  0  0
   56.4830   29.1720   44.6850 C   0  0  0  0  0  0  0  0  0  0  0  0
   55.7370   30.0220   44.1300 O   0  0  0  0  0  0  0  0  0  0  0  0
   57.8450   29.3280   44.6910 N   0  0  0  0  0  0  0  0  0  0  0  0
   58.4710   30.4790   44.0060 C   0  0  0  0  0  0  0  0  0  0  0  0
   58.2530   31.7420   44.7980 C   0  0  0  0  0  0  0  0  0  0  0  0
   58.0100   32.9610   44.1430 C   0  0  0  0  0  0  0  0  0  0  0  0
   57.7780   34.1250   44.8830 C   0  0  0  0  0  0  0  0  0  0  0  0
   57.7810   34.0810   46.2800 C   0  0  0  0  0  0  0  0  0  0  0  0
   58.0190   32.8720   46.9380 C   0  0  0  0  0  0  0  0  0  0  0  0
   58.2540   31.7060   46.2030 C   0  0  0  0  0  0  0  0  0  0  0  0
   58.6330   28.3880   45.3120 C   0  0  0  0  0  0  0  0  0  0  0  0
   59.8860   28.5350   45.3420 O   0  0  0  0  0  0  0  0  0  0  0  0
   58.4976   29.0370   47.2729 H   0  0  0  0  0  0  0  0  0  0  0  0
   58.4855   30.9185   48.9108 H   0  0  0  0  0  0  0  0  0  0  0  0
   58.8444   32.8662   49.5110 H   0  0  0  0  0  0  0  0  0  0  0  0
   59.1580   34.2382   50.5938 H   0  0  0  0  0  0  0  0  0  0  0  0
   59.7607   34.2007   47.8644 H   0  0  0  0  0  0  0  0  0  0  0  0
   60.5518   35.2814   49.0173 H   0  0  0  0  0  0  0  0  0  0  0  0
   61.7190   33.0481   47.5670 H   0  0  0  0  0  0  0  0  0  0  0  0
   62.5436   34.0854   48.7354 H   0  0  0  0  0  0  0  0  0  0  0  0
   61.2827   31.3839   49.1130 H   0  0  0  0  0  0  0  0  0  0  0  0
   62.5943   32.1314   50.0464 H   0  0  0  0  0  0  0  0  0  0  0  0
   61.3625   28.8091   51.3618 H   0  0  0  0  0  0  0  0  0  0  0  0
   61.3720   26.9249   49.7288 H   0  0  0  0  0  0  0  0  0  0  0  0
   56.4470   25.1830   46.7120 H   0  0  0  0  0  0  0  0  0  0  0  0
   59.5510   30.2968   43.9040 H   0  0  0  0  0  0  0  0  0  0  0  0
   58.0126   30.5963   43.0130 H   0  0  0  0  0  0  0  0  0  0  0  0
   58.0022   33.0001   43.0437 H   0  0  0  0  0  0  0  0  0  0  0  0
   57.5928   35.0772   44.3644 H   0  0  0  0  0  0  0  0  0  0  0  0
   57.5962   34.9970   46.8604 H   0  0  0  0  0  0  0  0  0  0  0  0
   58.0215   32.8372   48.0374 H   0  0  0  0  0  0  0  0  0  0  0  0
   58.4404   30.7567   46.7265 H   0  0  0  0  0  0  0  0  0  0  0  0
  1  2  2  0
  2  3  1  0
  3  4  1  0
  4  5  2  0
  5  6  1  0
  6  7  2  0
  7  8  1  0
  8  9  2  0
  8 10  2  0
  8 11  1  0
 11 12  1  0
 12 13  1  0
 13 14  1  0
 14 15  1  0
  7 16  1  0
 16 17  2  0
  2 18  1  0
 18 19  2  0
 19 20  1  0
 19 21  1  0
 21 22  1  0
 22 23  2  0
 22 24  1  0
 24 25  1  0
 25 26  1  0
 26 27  2  0
 27 28  1  0
 28 29  2  0
 29 30  1  0
 30 31  2  0
 24 32  1  0
 32 33  2  0
 17  4  1  0
 32 18  1  0
 15 11  1  0
 31 26  1  0
  5 34  1  0
  6 35  1  0
 12 36  1  0
 12 37  1  0
 13 38  1  0
 13 39  1  0
 14 40  1  0
 14 41  1  0
 15 42  1  0
 15 43  1  0
 16 44  1  0
 17 45  1  0
 20 46  1  0
 25 47  1  0
 25 48  1  0
 27 49  1  0
 28 50  1  0
 29 51  1  0
 30 52  1  0
 31 53  1  0
M  CHG  2   3  -1  21  -1
M  END
>  <UniqueID>  (2) 
2

>  <SMILES>  (2) 
O=C([N-]c1ccc(S(=O)(=O)N2CCCC2)cc1)c1c(O)[n-]c(=O)n(Cc2ccccc2)c1=O

>  <Energy>  (2) 
71.5353154174121

>  <Genealogy>  (2) 
O=C([N-]c1ccc(S(=O)(=O)N2CCCC2)cc1)c1c(O)[n-]c(=O)n(Cc2ccccc2)c1=O (protonated)
O=C([N-]c1ccc(S(=O)(=O)N2CCCC2)cc1)c1c(O)[n-]c(=O)n(Cc2ccccc2)c1=O (3D coordinates assigned)
O=C([N-]c1ccc(S(=O)(=O)N2CCCC2)cc1)c1c(O)[n-]c(=O)n(Cc2ccccc2)c1=O (nonaromatic ring conformer: 71.5353154174121 kcal/mol)

>  <smiles>  (2) 
O=C(Nc1ccc(S(=O)(=O)N2CCCC2)cc1)c1c(O)[nH]c(=O)n(Cc2ccccc2)c1=O

>  <score_type>  (2) 
oracle

>  <origin>  (2) 
adg

>  <m_score__min__energy>  (2) 
-12.77

>  <m_primary>  (2) 
energy

$$$$
2:0
     RDKit          3D

 55 58  0  0  0  0  0  0  0  0999 V2000
   59.6430   31.2020   48.5630 O   0  0  0  0  0  0  0  0  0  0  0  0
   58.8100   32.0370   49.0020 C   0  0  0  0  0  0  0  0  0  0  0  0
   58.3040   33.0440   48.1150 N   0  0  0  0  0  0  0  0  0  0  0  0
   59.1200   33.9690   47.3300 C   0  0  0  0  0  0  0  0  0  0  0  0
   60.5720   33.8590   47.7100 C   0  0  0  0  0  0  0  0  0  0  0  0
   61.0040   34.2930   48.9750 C   0  0  0  0  0  0  0  0  0  0  0  0
   62.3550   34.2070   49.3260 C   0  0  0  0  0  0  0  0  0  0  0  0
   63.2820   33.6850   48.4190 C   0  0  0  0  0  0  0  0  0  0  0  0
   62.8600   33.2490   47.1600 C   0  0  0  0  0  0  0  0  0  0  0  0
   61.5110   33.3330   46.8070 C   0  0  0  0  0  0  0  0  0  0  0  0
   58.4170   31.9790   50.4210 C   0  0  0  0  0  0  0  0  0  0  0  0
   58.8690   32.9660   51.3070 C   0  0  0  0  0  0  0  0  0  0  0  0
   58.4700   32.9430   52.6450 C   0  0  0  0  0  0  0  0  0  0  0  0
   57.6260   31.9310   53.1080 C   0  0  0  0  0  0  0  0  0  0  0  0
   57.1780   30.9220   52.2400 C   0  0  0  0  0  0  0  0  0  0  0  0
   56.2990   29.8990   52.7500 N   0  0  0  0  0  0  0  0  0  0  0  0
   55.0260   30.1570   53.4260 C   0  0  0  0  0  0  0  0  0  0  0  0
   54.1160   28.9370   53.3990 C   0  0  0  0  0  0  0  0  0  0  0  0
   52.7180   29.0650   53.1860 C   0  0  0  0  0  0  0  0  0  0  0  0
   52.0740   30.3660   52.8970 C   0  0  0  0  0  0  0  0  0  0  0  0
   51.7060   31.2250   53.9450 C   0  0  0  0  0  0  0  0  0  0  0  0
   51.1060   32.4560   53.6680 C   0  0  0  0  0  0  0  0  0  0  0  0
   50.8770   32.8440   52.3440 C   0  0  0  0  0  0  0  0  0  0  0  0
   50.2770   34.0690   52.0760 O   0  0  0  0  0  0  0  0  0  0  0  0
   51.2540   31.9990   51.2930 C   0  0  0  0  0  0  0  0  0  0  0  0
   51.0310   32.3810   49.9750 O   0  0  0  0  0  0  0  0  0  0  0  0
   51.8550   30.7660   51.5680 C   0  0  0  0  0  0  0  0  0  0  0  0
   51.9040   27.9260   53.2380 C   0  0  0  0  0  0  0  0  0  0  0  0
   52.4520   26.6690   53.4710 C   0  0  0  0  0  0  0  0  0  0  0  0
   53.8370   26.5070   53.6310 C   0  0  0  0  0  0  0  0  0  0  0  0
   54.3880   25.1470   53.8760 C   0  0  0  0  0  0  0  0  0  0  0  0
   55.2670   24.9680   54.7590 O   0  0  0  0  0  0  0  0  0  0  0  0
   53.9590   24.0540   53.1330 O   0  0  0  0  0  0  0  0  0  0  0  0
   54.6700   27.6460   53.5690 C   0  0  0  0  0  0  0  0  0  0  0  0
   56.0510   27.5020   53.6700 O   0  0  0  0  0  0  0  0  0  0  0  0
   57.5960   30.9440   50.8950 C   0  0  0  0  0  0  0  0  0  0  0  0
   59.0081   33.7307   46.2620 H   0  0  0  0  0  0  0  0  0  0  0  0
   58.7805   34.9956   47.5320 H   0  0  0  0  0  0  0  0  0  0  0  0
   60.2767   34.7019   49.6918 H   0  0  0  0  0  0  0  0  0  0  0  0
   62.6885   34.5503   50.3164 H   0  0  0  0  0  0  0  0  0  0  0  0
   64.3443   33.6174   48.6965 H   0  0  0  0  0  0  0  0  0  0  0  0
   63.5904   32.8395   46.4467 H   0  0  0  0  0  0  0  0  0  0  0  0
   61.1821   32.9854   45.8165 H   0  0  0  0  0  0  0  0  0  0  0  0
   59.5395   33.7606   50.9478 H   0  0  0  0  0  0  0  0  0  0  0  0
   58.8212   33.7236   53.3359 H   0  0  0  0  0  0  0  0  0  0  0  0
   57.3095   31.9243   54.1615 H   0  0  0  0  0  0  0  0  0  0  0  0
   56.5860   28.8990   52.6420 H   0  0  0  0  0  0  0  0  0  0  0  0
   55.2270   30.4285   54.4728 H   0  0  0  0  0  0  0  0  0  0  0  0
   54.5169   30.9760   52.8968 H   0  0  0  0  0  0  0  0  0  0  0  0
   51.8908   30.9277   54.9878 H   0  0  0  0  0  0  0  0  0  0  0  0
   50.8130   33.1216   54.4933 H   0  0  0  0  0  0  0  0  0  0  0  0
   52.1573   30.1071   50.7406 H   0  0  0  0  0  0  0  0  0  0  0  0
   50.8183   28.0270   53.0928 H   0  0  0  0  0  0  0  0  0  0  0  0
   51.7919   25.7911   53.5306 H   0  0  0  0  0  0  0  0  0  0  0  0
   57.2766   30.1440   50.2110 H   0  0  0  0  0  0  0  0  0  0  0  0
  1  2  2  0
  2  3  1  0
  3  4  1  0
  4  5  1  0
  5  6  2  0
  6  7  1  0
  7  8  2  0
  8  9  1  0
  9 10  2  0
  2 11  1  0
 11 12  2  0
 12 13  1  0
 13 14  2  0
 14 15  1  0
 15 16  1  0
 16 17  1  0
 17 18  1  0
 18 19  1  0
 19 20  1  0
 20 21  2  0
 21 22  1  0
 22 23  2  0
 23 24  1  0
 23 25  1  0
 25 26  1  0
 25 27  2  0
 19 28  2  0
 28 29  1  0
 29 30  2  0
 30 31  1  0
 31 32  2  0
 31 33  1  0
 30 34  1  0
 34 35  1  0
 15 36  2  0
 10  5  1  0
 36 11  1  0
 34 18  2  0
 27 20  1  0
  4 37  1  0
  4 38  1  0
  6 39  1  0
  7 40  1  0
  8 41  1  0
  9 42  1  0
 10 43  1  0
 12 44  1  0
 13 45  1  0
 14 46  1  0
 16 47  1  0
 17 48  1  0
 17 49  1  0
 21 50  1  0
 22 51  1  0
 27 52  1  0
 28 53  1  0
 29 54  1  0
 36 55  1  0
M  CHG  5   3  -1  24  -1  26  -1  33  -1  35  -1
M  END
>  <UniqueID>  (3) 
3

>  <SMILES>  (3) 
O=C([N-]Cc1ccccc1)c1cccc(NCc2c(-c3ccc([O-])c([O-])c3)ccc(C(=O)[O-])c2[O-])c1

>  <Energy>  (3) 
68.80566509240316

>  <Genealogy>  (3) 
O=C([N-]Cc1ccccc1)c1cccc(NCc2c(-c3ccc([O-])c([O-])c3)ccc(C(=O)[O-])c2[O-])c1 (protonated)
O=C([N-]Cc1ccccc1)c1cccc(NCc2c(-c3ccc([O-])c([O-])c3)ccc(C(=O)[O-])c2[O-])c1 (3D coordinates assigned)
O=C([N-]Cc1ccccc1)c1cccc(NCc2c(-c3ccc([O-])c([O-])c3)ccc(C(=O)[O-])c2[O-])c1 (optimized conformer: 68.80566509240316 kcal/mol)

>  <smiles>  (3) 
O=C(NCc1ccccc1)c1cccc(NCc2c(-c3ccc(O)c(O)c3)ccc(C(=O)O)c2O)c1

>  <score_type>  (3) 
oracle

>  <origin>  (3) 
adg

>  <m_score__min__energy>  (3) 
-19.149999999999999

>  <m_primary>  (3) 
energy

$$$$
3:0
     RDKit          3D

 55 58  0  0  0  0  0  0  0  0999 V2000
   55.1400   29.3340   44.9100 N   0  0  0  0  0  0  0  0  0  0  0  0
   56.4740   28.8290   44.8650 C   0  0  0  0  0  0  0  0  0  0  0  0
   57.2940   29.3540   44.0660 O   0  0  0  0  0  0  0  0  0  0  0  0
   56.8820   27.7000   45.7500 C   0  0  0  0  0  0  0  0  0  0  0  0
   56.1750   26.4830   45.6850 C   0  0  0  0  0  0  0  0  0  0  0  0
   56.5230   25.3940   46.5000 C   0  0  0  0  0  0  0  0  0  0  0  0
   55.7760   24.0920   46.3830 C   0  0  0  0  0  0  0  0  0  0  0  0
   56.3030   23.2940   45.2220 C   0  0  0  0  0  0  0  0  0  0  0  0
   57.4510   22.4970   45.3720 C   0  0  0  0  0  0  0  0  0  0  0  0
   57.9610   21.7850   44.2820 C   0  0  0  0  0  0  0  0  0  0  0  0
   57.3350   21.8690   43.0350 C   0  0  0  0  0  0  0  0  0  0  0  0
   56.2000   22.6690   42.8740 C   0  0  0  0  0  0  0  0  0  0  0  0
   55.6870   23.3830   43.9620 C   0  0  0  0  0  0  0  0  0  0  0  0
   57.6040   25.5070   47.3830 C   0  0  0  0  0  0  0  0  0  0  0  0
   58.3170   26.7030   47.4670 C   0  0  0  0  0  0  0  0  0  0  0  0
   59.3620   26.8130   48.3290 N   0  0  0  0  0  0  0  0  0  0  0  0
   60.0760   27.9640   48.4360 C   0  0  0  0  0  0  0  0  0  0  0  0
   61.0410   28.0250   49.2440 O   0  0  0  0  0  0  0  0  0  0  0  0
   59.7280   29.0690   47.6390 C   0  0  0  0  0  0  0  0  0  0  0  0
   60.4970   30.3600   47.6900 C   0  0  0  0  0  0  0  0  0  0  0  0
   60.3700   31.1190   46.3670 C   0  0  0  0  0  0  0  0  0  0  0  0
   60.3230   32.5550   46.6150 N   0  0  0  0  0  0  0  0  0  0  0  0
   59.6600   33.1390   47.7400 C   0  0  0  0  0  0  0  0  0  0  0  0
   58.5250   32.7220   48.1010 O   0  0  0  0  0  0  0  0  0  0  0  0
   60.3430   34.2110   48.5270 C   0  0  0  0  0  0  0  0  0  0  0  0
   61.7490   33.7880   48.8480 C   0  0  0  0  0  0  0  0  0  0  0  0
   62.6810   33.5810   47.8180 C   0  0  0  0  0  0  0  0  0  0  0  0
   64.0000   33.2300   48.1210 C   0  0  0  0  0  0  0  0  0  0  0  0
   64.4040   33.0910   49.4560 C   0  0  0  0  0  0  0  0  0  0  0  0
   65.7180   32.7430   49.7650 O   0  0  0  0  0  0  0  0  0  0  0  0
   63.4810   33.3060   50.4870 C   0  0  0  0  0  0  0  0  0  0  0  0
   63.8730   33.1720   51.8130 O   0  0  0  0  0  0  0  0  0  0  0  0
   62.1610   33.6600   50.1840 C   0  0  0  0  0  0  0  0  0  0  0  0
   58.6890   28.9500   46.7700 N   0  0  0  0  0  0  0  0  0  0  0  0
   57.9640   27.8040   46.6570 C   0  0  0  0  0  0  0  0  0  0  0  0
   54.6050   29.3580   45.8060 H   0  0  0  0  0  0  0  0  0  0  0  0
   55.3344   26.3842   44.9824 H   0  0  0  0  0  0  0  0  0  0  0  0
   55.9056   23.5141   47.3099 H   0  0  0  0  0  0  0  0  0  0  0  0
   54.7091   24.3035   46.2187 H   0  0  0  0  0  0  0  0  0  0  0  0
   57.9499   22.4332   46.3503 H   0  0  0  0  0  0  0  0  0  0  0  0
   58.8562   21.1578   44.4060 H   0  0  0  0  0  0  0  0  0  0  0  0
   57.7358   21.3052   42.1797 H   0  0  0  0  0  0  0  0  0  0  0  0
   55.7101   22.7371   41.8914 H   0  0  0  0  0  0  0  0  0  0  0  0
   54.7976   24.0169   43.8308 H   0  0  0  0  0  0  0  0  0  0  0  0
   57.8914   24.6512   48.0114 H   0  0  0  0  0  0  0  0  0  0  0  0
   60.1002   30.9846   48.5039 H   0  0  0  0  0  0  0  0  0  0  0  0
   61.5586   30.1321   47.8660 H   0  0  0  0  0  0  0  0  0  0  0  0
   61.2369   30.8880   45.7305 H   0  0  0  0  0  0  0  0  0  0  0  0
   59.4423   30.8104   45.8628 H   0  0  0  0  0  0  0  0  0  0  0  0
   60.3664   35.1390   47.9368 H   0  0  0  0  0  0  0  0  0  0  0  0
   59.7918   34.3818   49.4635 H   0  0  0  0  0  0  0  0  0  0  0  0
   62.3720   33.6955   46.7685 H   0  0  0  0  0  0  0  0  0  0  0  0
   64.7230   33.0624   47.3091 H   0  0  0  0  0  0  0  0  0  0  0  0
   66.0230   32.6280   50.7240 H   0  0  0  0  0  0  0  0  0  0  0  0
   61.4424   33.8389   50.9974 H   0  0  0  0  0  0  0  0  0  0  0  0
  1  2  1  0
  2  3  2  0
  2  4  1  0
  4  5  2  0
  5  6  1  0
  6  7  1  0
  7  8  1  0
  8  9  2  0
  9 10  1  0
 10 11  2  0
 11 12  1  0
 12 13  2  0
  6 14  2  0
 14 15  1  0
 15 16  1  0
 16 17  1  0
 17 18  2  0
 17 19  1  0
 19 20  1  0
 20 21  1  0
 21 22  1  0
 22 23  1  0
 23 24  2  0
 23 25  1  0
 25 26  1  0
 26 27  2  0
 27 28  1  0
 28 29  2  0
 29 30  1  0
 29 31  1  0
 31 32  1  0
 31 33  2  0
 19 34  2  0
 34 35  1  0
 35  4  1  0
 13  8  1  0
 35 15  2  0
 33 26  1  0
  1 36  1  0
  5 37  1  0
  7 38  1  0
  7 39  1  0
  9 40  1  0
 10 41  1  0
 11 42  1  0
 12 43  1  0
 13 44  1  0
 14 45  1  0
 20 46  1  0
 20 47  1  0
 21 48  1  0
 21 49  1  0
 25 50  1  0
 25 51  1  0
 27 52  1  0
 28 53  1  0
 30 54  1  0
 33 55  1  0
M  CHG  4   1  -1  16  -1  22  -1  32  -1
M  END
>  <UniqueID>  (4) 
4

>  <SMILES>  (4) 
[NH-]C(=O)c1cc(Cc2ccccc2)cc2[n-]c(=O)c(CC[N-]C(=O)Cc3ccc(O)c([O-])c3)nc12

>  <Energy>  (4) 
57.96605552344514

>  <Genealogy>  (4) 
[NH-]C(=O)c1cc(Cc2ccccc2)cc2[n-]c(=O)c(CC[N-]C(=O)Cc3ccc(O)c([O-])c3)nc12 (protonated)
[NH-]C(=O)c1cc(Cc2ccccc2)cc2[n-]c(=O)c(CC[N-]C(=O)Cc3ccc(O)c([O-])c3)nc12 (3D coordinates assigned)
[NH-]C(=O)c1cc(Cc2ccccc2)cc2[n-]c(=O)c(CC[N-]C(=O)Cc3ccc(O)c([O-])c3)nc12 (optimized conformer: 57.96605552344514 kcal/mol)

>  <smiles>  (4) 
NC(=O)c1cc(Cc2ccccc2)cc2[nH]c(=O)c(CCNC(=O)Cc3ccc(O)c(O)c3)nc12

>  <score_type>  (4) 
oracle

>  <origin>  (4) 
adg

>  <m_score__min__energy>  (4) 
-16.68

>  <m_primary>  (4) 
energy

$$$$
4:0
     RDKit          3D

 57 60  0  0  0  0  0  0  0  0999 V2000
   57.0070   30.6650   44.9020 N   0  0  0  0  0  0  0  0  0  0  0  0
   57.6850   31.5730   45.1520 C   0  0  0  0  0  0  0  0  0  0  0  0
   58.5210   32.7090   45.4590 C   0  0  0  0  0  0  0  0  0  0  0  0
   58.0820   34.0090   45.1660 C   0  0  0  0  0  0  0  0  0  0  0  0
   58.9060   35.1080   45.4510 C   0  0  0  0  0  0  0  0  0  0  0  0
   60.1680   34.9110   46.0240 C   0  0  0  0  0  0  0  0  0  0  0  0
   60.6100   33.6120   46.3230 C   0  0  0  0  0  0  0  0  0  0  0  0
   62.2100   33.3720   47.0210 S   0  0  0  0  0  0  0  0  0  0  0  0
   63.2330   34.0500   46.1520 O   0  0  0  0  0  0  0  0  0  0  0  0
   62.5400   31.9050   47.0990 O   0  0  0  0  0  0  0  0  0  0  0  0
   62.2670   34.0600   48.6130 N   0  0  0  0  0  0  0  0  0  0  0  0
   61.4130   33.6480   49.6960 C   0  0  0  0  0  0  0  0  0  0  0  0
   60.0230   33.7790   49.5580 C   0  0  0  0  0  0  0  0  0  0  0  0
   59.1670   33.4400   50.6130 C   0  0  0  0  0  0  0  0  0  0  0  0
   59.6850   32.9470   51.8230 C   0  0  0  0  0  0  0  0  0  0  0  0
   58.7920   32.6830   52.9720 C   0  0  0  0  0  0  0  0  0  0  0  0
   58.6960   33.5240   53.9020 O   0  0  0  0  0  0  0  0  0  0  0  0
   58.0560   31.4570   53.0490 N   0  0  0  0  0  0  0  0  0  0  0  0
   58.6950   30.1640   53.2600 C   0  0  0  0  0  0  0  0  0  0  0  0
   59.0840   29.5980   51.9330 C   0  0  0  0  0  0  0  0  0  0  0  0
   60.1850   28.8310   51.7430 N   0  0  0  0  0  0  0  0  0  0  0  0
   60.4330   28.6150   50.4210 C   0  0  0  0  0  0  0  0  0  0  0  0
   59.5370   29.2320   49.5580 C   0  0  0  0  0  0  0  0  0  0  0  0
   59.6880   29.3200   47.8120 S   0  0  0  0  0  0  0  0  0  0  0  0
   58.4920   30.0430   47.2550 O   0  0  0  0  0  0  0  0  0  0  0  0
   60.9290   30.1120   47.4950 O   0  0  0  0  0  0  0  0  0  0  0  0
   59.8150   27.7190   47.1050 N   0  0  0  0  0  0  0  0  0  0  0  0
   58.7010   26.8380   47.5130 C   0  0  0  0  0  0  0  0  0  0  0  0
   57.3830   27.1440   46.7660 C   0  0  0  0  0  0  0  0  0  0  0  0
   57.5750   27.5870   45.3730 N   0  0  0  0  0  0  0  0  0  0  0  0
   58.8700   27.1680   44.8250 C   0  0  0  0  0  0  0  0  0  0  0  0
   60.0310   27.7730   45.6380 C   0  0  0  0  0  0  0  0  0  0  0  0
   58.4070   30.0820   50.4680 S   0  0  0  0  0  0  0  0  0  0  0  0
   61.0740   32.7740   51.9450 C   0  0  0  0  0  0  0  0  0  0  0  0
   61.9300   33.1190   50.8920 C   0  0  0  0  0  0  0  0  0  0  0  0
   59.7840   32.5100   46.0390 C   0  0  0  0  0  0  0  0  0  0  0  0
   57.0921   34.1664   44.7130 H   0  0  0  0  0  0  0  0  0  0  0  0
   58.5596   36.1270   45.2237 H   0  0  0  0  0  0  0  0  0  0  0  0
   60.8141   35.7746   46.2403 H   0  0  0  0  0  0  0  0  0  0  0  0
   63.0100   34.7680   48.7970 H   0  0  0  0  0  0  0  0  0  0  0  0
   59.6018   34.1514   48.6125 H   0  0  0  0  0  0  0  0  0  0  0  0
   58.0801   33.5605   50.4938 H   0  0  0  0  0  0  0  0  0  0  0  0
   59.5913   30.2919   53.8847 H   0  0  0  0  0  0  0  0  0  0  0  0
   57.9986   29.4810   53.7685 H   0  0  0  0  0  0  0  0  0  0  0  0
   61.2744   28.0018   50.0661 H   0  0  0  0  0  0  0  0  0  0  0  0
   58.9858   25.7954   47.3083 H   0  0  0  0  0  0  0  0  0  0  0  0
   58.5198   27.0120   48.5839 H   0  0  0  0  0  0  0  0  0  0  0  0
   56.7696   26.2310   46.7577 H   0  0  0  0  0  0  0  0  0  0  0  0
   56.8979   27.9737   47.3010 H   0  0  0  0  0  0  0  0  0  0  0  0
   57.5240   28.6320   45.3330 H   0  0  0  0  0  0  0  0  0  0  0  0
   58.9384   26.0707   44.8606 H   0  0  0  0  0  0  0  0  0  0  0  0
   58.9445   27.5233   43.7866 H   0  0  0  0  0  0  0  0  0  0  0  0
   60.9499   27.2169   45.4003 H   0  0  0  0  0  0  0  0  0  0  0  0
   60.1033   28.8347   45.3596 H   0  0  0  0  0  0  0  0  0  0  0  0
   61.4926   32.3639   52.8759 H   0  0  0  0  0  0  0  0  0  0  0  0
   63.0151   32.9752   51.0011 H   0  0  0  0  0  0  0  0  0  0  0  0
   60.1277   31.4912   46.2714 H   0  0  0  0  0  0  0  0  0  0  0  0
  1  2  3  0
  2  3  1  0
  3  4  2  0
  4  5  1  0
  5  6  2  0
  6  7  1  0
  7  8  1  0
  8  9  2  0
  8 10  2  0
  8 11  1  0
 11 12  1  0
 12 13  2  0
 13 14  1  0
 14 15  2  0
 15 16  1  0
 16 17  2  0
 16 18  1  0
 18 19  1  0
 19 20  1  0
 20 21  2  0
 21 22  1  0
 22 23  2  0
 23 24  1  0
 24 25  2  0
 24 26  2  0
 24 27  1  0
 27 28  1  0
 28 29  1  0
 29 30  1  0
 30 31  1  0
 31 32  1  0
 23 33  1  0
 15 34  1  0
 34 35  2  0
  7 36  2  0
 36  3  1  0
 35 12  1  0
 33 20  1  0
 32 27  1  0
  4 37  1  0
  5 38  1  0
  6 39  1  0
 11 40  1  0
 13 41  1  0
 14 42  1  0
 19 43  1  0
 19 44  1  0
 22 45  1  0
 28 46  1  0
 28 47  1  0
 29 48  1  0
 29 49  1  0
 30 50  1  0
 31 51  1  0
 31 52  1  0
 32 53  1  0
 32 54  1  0
 34 55  1  0
 35 56  1  0
 36 57  1  0
M  CHG  1  18  -1
M  END
>  <UniqueID>  (5) 
5

>  <SMILES>  (5) 
N#Cc1cccc(S(=O)(=O)Nc2ccc(C(=O)[N-]Cc3ncc(S(=O)(=O)N4CCNCC4)s3)cc2)c1

>  <Energy>  (5) 
103.13922149603661

>  <Genealogy>  (5) 
N#Cc1cccc(S(=O)(=O)Nc2ccc(C(=O)[N-]Cc3ncc(S(=O)(=O)N4CCNCC4)s3)cc2)c1 (protonated)
N#Cc1cccc(S(=O)(=O)Nc2ccc(C(=O)[N-]Cc3ncc(S(=O)(=O)N4CCNCC4)s3)cc2)c1 (3D coordinates assigned)
N#Cc1cccc(S(=O)(=O)Nc2ccc(C(=O)[N-]Cc3ncc(S(=O)(=O)N4CCNCC4)s3)cc2)c1 (nonaromatic ring conformer: 103.13922149603661 kcal/mol)

>  <smiles>  (5) 
N#Cc1cccc(S(=O)(=O)Nc2ccc(C(=O)NCc3ncc(S(=O)(=O)N4CCNCC4)s3)cc2)c1

>  <score_type>  (5) 
oracle

>  <origin>  (5) 
adg

>  <m_score__min__energy>  (5) 
-11.33

>  <m_primary>  (5) 
energy

$$$$
5:0
     RDKit          3D

 41 43  0  0  0  0  0  0  0  0999 V2000
   58.3430   29.2440   48.2890 O   0  0  0  0  0  0  0  0  0  0  0  0
   59.0530   28.8530   47.3240 C   0  0  0  0  0  0  0  0  0  0  0  0
   58.4660   27.9400   46.2950 C   0  0  0  0  0  0  0  0  0  0  0  0
   57.4520   28.6790   45.4680 C   0  0  0  0  0  0  0  0  0  0  0  0
   56.1480   28.2960   45.2420 C   0  0  0  0  0  0  0  0  0  0  0  0
   55.5540   27.1310   45.7120 O   0  0  0  0  0  0  0  0  0  0  0  0
   55.5040   29.2120   44.4930 N   0  0  0  0  0  0  0  0  0  0  0  0
   56.4490   30.1540   44.2880 C   0  0  0  0  0  0  0  0  0  0  0  0
   56.2380   31.1930   43.6060 O   0  0  0  0  0  0  0  0  0  0  0  0
   57.6340   29.8770   44.8770 N   0  0  0  0  0  0  0  0  0  0  0  0
   58.8630   30.6710   44.7990 C   0  0  0  0  0  0  0  0  0  0  0  0
   58.5230   32.1490   44.5960 C   0  0  0  0  0  0  0  0  0  0  0  0
   58.9120   32.9530   45.8060 C   0  0  0  0  0  0  0  0  0  0  0  0
   58.5650   32.5080   47.0920 C   0  0  0  0  0  0  0  0  0  0  0  0
   58.8960   33.2710   48.2160 C   0  0  0  0  0  0  0  0  0  0  0  0
   59.5670   34.4870   48.0630 C   0  0  0  0  0  0  0  0  0  0  0  0
   59.9040   34.9440   46.7860 C   0  0  0  0  0  0  0  0  0  0  0  0
   59.5740   34.1830   45.6590 C   0  0  0  0  0  0  0  0  0  0  0  0
   60.4430   29.1940   47.2490 N   0  0  0  0  0  0  0  0  0  0  0  0
   61.0920   30.2910   47.9090 C   0  0  0  0  0  0  0  0  0  0  0  0
   60.9990   30.4870   49.2990 C   0  0  0  0  0  0  0  0  0  0  0  0
   61.6290   31.5820   49.8970 C   0  0  0  0  0  0  0  0  0  0  0  0
   62.3450   32.4940   49.1170 C   0  0  0  0  0  0  0  0  0  0  0  0
   62.9520   33.5530   49.7100 F   0  0  0  0  0  0  0  0  0  0  0  0
   62.4230   32.3180   47.7300 C   0  0  0  0  0  0  0  0  0  0  0  0
   63.3070   33.4640   46.7380 Cl  0  0  0  0  0  0  0  0  0  0  0  0
   61.7910   31.2230   47.1300 C   0  0  0  0  0  0  0  0  0  0  0  0
   59.2672   27.5666   45.6403 H   0  0  0  0  0  0  0  0  0  0  0  0
   57.9729   27.0968   46.8008 H   0  0  0  0  0  0  0  0  0  0  0  0
   59.4317   30.5536   45.7332 H   0  0  0  0  0  0  0  0  0  0  0  0
   59.4646   30.3200   43.9476 H   0  0  0  0  0  0  0  0  0  0  0  0
   59.0685   32.5283   43.7193 H   0  0  0  0  0  0  0  0  0  0  0  0
   57.4383   32.2451   44.4403 H   0  0  0  0  0  0  0  0  0  0  0  0
   58.0303   31.5547   47.2156 H   0  0  0  0  0  0  0  0  0  0  0  0
   58.6280   32.9137   49.2213 H   0  0  0  0  0  0  0  0  0  0  0  0
   59.8301   35.0849   48.9481 H   0  0  0  0  0  0  0  0  0  0  0  0
   60.4293   35.9031   46.6667 H   0  0  0  0  0  0  0  0  0  0  0  0
   59.8339   34.5492   44.6548 H   0  0  0  0  0  0  0  0  0  0  0  0
   60.4293   29.7770   49.9165 H   0  0  0  0  0  0  0  0  0  0  0  0
   61.5610   31.7264   50.9854 H   0  0  0  0  0  0  0  0  0  0  0  0
   61.8433   31.0929   46.0390 H   0  0  0  0  0  0  0  0  0  0  0  0
  1  2  2  0
  2  3  1  0
  3  4  1  0
  4  5  2  0
  5  6  1  0
  5  7  1  0
  7  8  1  0
  8  9  2  0
  8 10  1  0
 10 11  1  0
 11 12  1  0
 12 13  1  0
 13 14  2  0
 14 15  1  0
 15 16  2  0
 16 17  1  0
 17 18  2  0
  2 19  1  0
 19 20  1  0
 20 21  2  0
 21 22  1  0
 22 23  2  0
 23 24  1  0
 23 25  1  0
 25 26  1  0
 25 27  2  0
 10  4  1  0
 18 13  1  0
 27 20  1  0
  3 28  1  0
  3 29  1  0
 11 30  1  0
 11 31  1  0
 12 32  1  0
 12 33  1  0
 14 34  1  0
 15 35  1  0
 16 36  1  0
 17 37  1  0
 18 38  1  0
 21 39  1  0
 22 40  1  0
 27 41  1  0
M  CHG  3   6  -1   7  -1  19  -1
M  END
>  <UniqueID>  (6) 
6

>  <SMILES>  (6) 
O=C(Cc1c([O-])[n-]c(=O)n1CCc1ccccc1)[N-]c1ccc(F)c(Cl)c1

>  <Energy>  (6) 
73.08402887602566

>  <Genealogy>  (6) 
O=C(Cc1c([O-])[n-]c(=O)n1CCc1ccccc1)[N-]c1ccc(F)c(Cl)c1 (protonated)
O=C(Cc1c([O-])[n-]c(=O)n1CCc1ccccc1)[N-]c1ccc(F)c(Cl)c1 (3D coordinates assigned)
O=C(Cc1c([O-])[n-]c(=O)n1CCc1ccccc1)[N-]c1ccc(F)c(Cl)c1 (optimized conformer: 73.08402887602566 kcal/mol)

>  <smiles>  (6) 
O=C(Cc1c(O)[nH]c(=O)n1CCc1ccccc1)Nc1ccc(F)c(Cl)c1

>  <score_type>  (6) 
oracle

>  <origin>  (6) 
adg

>  <m_score__min__energy>  (6) 
-15.25

>  <m_primary>  (6) 
energy

$$$$
6:0
     RDKit          3D

 52 53  0  0  0  0  0  0  0  0999 V2000
   63.5190   33.1620   46.8170 C   0  0  0  0  0  0  0  0  0  0  0  0
   62.7760   32.8790   47.9960 O   0  0  0  0  0  0  0  0  0  0  0  0
   61.3730   32.8830   48.0730 C   0  0  0  0  0  0  0  0  0  0  0  0
   60.6150   34.0300   47.7590 C   0  0  0  0  0  0  0  0  0  0  0  0
   59.2210   34.0050   47.8500 C   0  0  0  0  0  0  0  0  0  0  0  0
   58.5670   32.8410   48.2530 C   0  0  0  0  0  0  0  0  0  0  0  0
   59.3050   31.6960   48.5690 C   0  0  0  0  0  0  0  0  0  0  0  0
   60.7080   31.7060   48.4810 C   0  0  0  0  0  0  0  0  0  0  0  0
   61.4930   30.4710   48.8490 C   0  0  0  0  0  0  0  0  0  0  0  0
   60.6330   29.5020   49.5190 N   0  0  0  0  0  0  0  0  0  0  0  0
   60.3110   28.2170   48.9770 C   0  0  0  0  0  0  0  0  0  0  0  0
   60.6300   27.1700   49.6050 O   0  0  0  0  0  0  0  0  0  0  0  0
   59.6230   28.1250   47.6770 C   0  0  0  0  0  0  0  0  0  0  0  0
   58.3410   27.5810   47.5680 C   0  0  0  0  0  0  0  0  0  0  0  0
   57.7470   27.5020   46.3060 C   0  0  0  0  0  0  0  0  0  0  0  0
   56.5840   27.0220   46.2100 O   0  0  0  0  0  0  0  0  0  0  0  0
   58.4180   27.9440   45.1920 N   0  0  0  0  0  0  0  0  0  0  0  0
   57.7820   27.8670   43.8620 C   0  0  0  0  0  0  0  0  0  0  0  0
   57.3660   29.2640   43.3910 C   0  0  0  0  0  0  0  0  0  0  0  0
   56.3470   29.8420   44.3180 C   0  0  0  0  0  0  0  0  0  0  0  0
   55.5170   29.0800   44.8830 O   0  0  0  0  0  0  0  0  0  0  0  0
   56.3690   31.2210   44.5750 O   0  0  0  0  0  0  0  0  0  0  0  0
   57.5180   32.0770   44.5110 C   0  0  0  0  0  0  0  0  0  0  0  0
   58.6980   31.4650   45.2900 C   0  0  0  0  0  0  0  0  0  0  0  0
   57.1280   33.4100   45.1670 C   0  0  0  0  0  0  0  0  0  0  0  0
   57.9120   32.3400   43.0450 C   0  0  0  0  0  0  0  0  0  0  0  0
   59.6660   28.4980   45.3350 C   0  0  0  0  0  0  0  0  0  0  0  0
   60.2880   28.9550   44.3360 O   0  0  0  0  0  0  0  0  0  0  0  0
   60.2500   28.5710   46.5590 N   0  0  0  0  0  0  0  0  0  0  0  0
   64.5141   33.5410   47.0929 H   0  0  0  0  0  0  0  0  0  0  0  0
   63.6285   32.2426   46.2231 H   0  0  0  0  0  0  0  0  0  0  0  0
   62.9891   33.9213   46.2231 H   0  0  0  0  0  0  0  0  0  0  0  0
   61.1249   34.9510   47.4401 H   0  0  0  0  0  0  0  0  0  0  0  0
   58.6384   34.9049   47.6034 H   0  0  0  0  0  0  0  0  0  0  0  0
   57.4693   32.8236   48.3224 H   0  0  0  0  0  0  0  0  0  0  0  0
   58.7842   30.7813   48.8886 H   0  0  0  0  0  0  0  0  0  0  0  0
   61.9057   30.0184   47.9353 H   0  0  0  0  0  0  0  0  0  0  0  0
   62.3075   30.7563   49.5310 H   0  0  0  0  0  0  0  0  0  0  0  0
   57.8083   27.2210   48.4605 H   0  0  0  0  0  0  0  0  0  0  0  0
   58.4956   27.4389   43.1426 H   0  0  0  0  0  0  0  0  0  0  0  0
   56.8874   27.2304   43.9290 H   0  0  0  0  0  0  0  0  0  0  0  0
   58.2501   29.9181   43.3703 H   0  0  0  0  0  0  0  0  0  0  0  0
   56.9304   29.1869   42.3839 H   0  0  0  0  0  0  0  0  0  0  0  0
   58.5133   31.5608   46.3702 H   0  0  0  0  0  0  0  0  0  0  0  0
   58.7981   30.4014   45.0280 H   0  0  0  0  0  0  0  0  0  0  0  0
   59.6251   31.9959   45.0280 H   0  0  0  0  0  0  0  0  0  0  0  0
   57.1593   33.3031   46.2613 H   0  0  0  0  0  0  0  0  0  0  0  0
   57.8347   34.1930   44.8547 H   0  0  0  0  0  0  0  0  0  0  0  0
   56.1107   33.6886   44.8547 H   0  0  0  0  0  0  0  0  0  0  0  0
   58.8266   32.9505   43.0150 H   0  0  0  0  0  0  0  0  0  0  0  0
   58.0940   31.3816   42.5367 H   0  0  0  0  0  0  0  0  0  0  0  0
   57.0967   32.8757   42.5367 H   0  0  0  0  0  0  0  0  0  0  0  0
  1  2  1  0
  2  3  1  0
  3  4  2  0
  4  5  1  0
  5  6  2  0
  6  7  1  0
  7  8  2  0
  8  9  1  0
  9 10  1  0
 10 11  1  0
 11 12  2  0
 11 13  1  0
 13 14  2  0
 14 15  1  0
 15 16  2  0
 15 17  1  0
 17 18  1  0
 18 19  1  0
 19 20  1  0
 20 21  2  0
 20 22  1  0
 22 23  1  0
 23 24  1  0
 23 25  1  0
 23 26  1  0
 17 27  1  0
 27 28  2  0
 27 29  1  0
  8  3  1  0
 29 13  1  0
  1 30  1  0
  1 31  1  0
  1 32  1  0
  4 33  1  0
  5 34  1  0
  6 35  1  0
  7 36  1  0
  9 37  1  0
  9 38  1  0
 14 39  1  0
 18 40  1  0
 18 41  1  0
 19 42  1  0
 19 43  1  0
 24 44  1  0
 24 45  1  0
 24 46  1  0
 25 47  1  0
 25 48  1  0
 25 49  1  0
 26 50  1  0
 26 51  1  0
 26 52  1  0
M  CHG  2  10  -1  29  -1
M  END
>  <UniqueID>  (7) 
7

>  <SMILES>  (7) 
COc1ccccc1C[N-]C(=O)c1cc(=O)n(CCC(=O)OC(C)(C)C)c(=O)[n-]1

>  <Energy>  (7) 
45.140825211151345

>  <Genealogy>  (7) 
COc1ccccc1C[N-]C(=O)c1cc(=O)n(CCC(=O)OC(C)(C)C)c(=O)[n-]1 (protonated)
COc1ccccc1C[N-]C(=O)c1cc(=O)n(CCC(=O)OC(C)(C)C)c(=O)[n-]1 (3D coordinates assigned)
COc1ccccc1C[N-]C(=O)c1cc(=O)n(CCC(=O)OC(C)(C)C)c(=O)[n-]1 (optimized conformer: 45.140825211151345 kcal/mol)

>  <smiles>  (7) 
COc1ccccc1CNC(=O)c1cc(=O)n(CCC(=O)OC(C)(C)C)c(=O)[nH]1

>  <score_type>  (7) 
oracle

>  <origin>  (7) 
adg

>  <m_score__min__energy>  (7) 
-11.779999999999999

>  <m_primary>  (7) 
energy

$$$$
7:0
     RDKit          3D

 50 53  0  0  0  0  0  0  0  0999 V2000
   60.1040   29.2430   46.1700 O   0  0  0  0  0  0  0  0  0  0  0  0
   59.2290   28.7930   46.9600 C   0  0  0  0  0  0  0  0  0  0  0  0
   59.5180   28.6790   48.3610 N   0  0  0  0  0  0  0  0  0  0  0  0
   60.5560   29.4320   49.0090 C   0  0  0  0  0  0  0  0  0  0  0  0
   60.8700   29.1660   50.3490 C   0  0  0  0  0  0  0  0  0  0  0  0
   61.8820   29.8870   50.9920 C   0  0  0  0  0  0  0  0  0  0  0  0
   62.5790   30.8830   50.3050 C   0  0  0  0  0  0  0  0  0  0  0  0
   62.2630   31.1720   48.9710 C   0  0  0  0  0  0  0  0  0  0  0  0
   63.1480   32.4180   48.0910 S   0  0  0  0  0  0  0  0  0  0  0  0
   63.5600   31.8770   46.7510 O   0  0  0  0  0  0  0  0  0  0  0  0
   64.3960   32.7720   48.8510 O   0  0  0  0  0  0  0  0  0  0  0  0
   62.1840   33.8600   47.8680 N   0  0  0  0  0  0  0  0  0  0  0  0
   61.3950   33.8160   46.6170 C   0  0  0  0  0  0  0  0  0  0  0  0
   59.9920   34.4160   46.7690 C   0  0  0  0  0  0  0  0  0  0  0  0
   59.2470   33.6750   47.8770 C   0  0  0  0  0  0  0  0  0  0  0  0
   60.0360   33.6630   49.2040 C   0  0  0  0  0  0  0  0  0  0  0  0
   61.4570   34.2530   49.0970 C   0  0  0  0  0  0  0  0  0  0  0  0
   61.2380   30.4580   48.3330 C   0  0  0  0  0  0  0  0  0  0  0  0
   57.9330   28.3280   46.4310 C   0  0  0  0  0  0  0  0  0  0  0  0
   57.3600   27.1680   46.8030 N   0  0  0  0  0  0  0  0  0  0  0  0
   56.2600   27.0940   46.0270 C   0  0  0  0  0  0  0  0  0  0  0  0
   55.4530   26.1290   46.0810 O   0  0  0  0  0  0  0  0  0  0  0  0
   56.0950   28.1330   45.1840 N   0  0  0  0  0  0  0  0  0  0  0  0
   57.1560   28.9220   45.4450 C   0  0  0  0  0  0  0  0  0  0  0  0
   57.3580   30.2380   44.8000 C   0  0  0  0  0  0  0  0  0  0  0  0
   57.1950   30.3850   43.4110 C   0  0  0  0  0  0  0  0  0  0  0  0
   57.4060   31.6240   42.8000 C   0  0  0  0  0  0  0  0  0  0  0  0
   57.8070   32.7220   43.5650 C   0  0  0  0  0  0  0  0  0  0  0  0
   57.9950   32.5810   44.9440 C   0  0  0  0  0  0  0  0  0  0  0  0
   57.7780   31.3450   45.5630 C   0  0  0  0  0  0  0  0  0  0  0  0
   57.9570   31.2360   46.9060 F   0  0  0  0  0  0  0  0  0  0  0  0
   58.9820   27.9850   48.9290 H   0  0  0  0  0  0  0  0  0  0  0  0
   60.3188   28.3876   50.8969 H   0  0  0  0  0  0  0  0  0  0  0  0
   62.1292   29.6687   52.0414 H   0  0  0  0  0  0  0  0  0  0  0  0
   63.3786   31.4424   50.8127 H   0  0  0  0  0  0  0  0  0  0  0  0
   61.9350   34.3804   45.8425 H   0  0  0  0  0  0  0  0  0  0  0  0
   61.2712   32.7575   46.3445 H   0  0  0  0  0  0  0  0  0  0  0  0
   60.0737   35.4816   47.0294 H   0  0  0  0  0  0  0  0  0  0  0  0
   59.4419   34.3148   45.8218 H   0  0  0  0  0  0  0  0  0  0  0  0
   58.2790   34.1697   48.0450 H   0  0  0  0  0  0  0  0  0  0  0  0
   59.1132   32.6319   47.5545 H   0  0  0  0  0  0  0  0  0  0  0  0
   59.4735   34.2492   49.9456 H   0  0  0  0  0  0  0  0  0  0  0  0
   60.1514   32.6085   49.4949 H   0  0  0  0  0  0  0  0  0  0  0  0
   61.3779   35.3500   49.1157 H   0  0  0  0  0  0  0  0  0  0  0  0
   62.0309   33.8539   49.9463 H   0  0  0  0  0  0  0  0  0  0  0  0
   60.9660   30.7030   47.2957 H   0  0  0  0  0  0  0  0  0  0  0  0
   56.8993   29.5186   42.8011 H   0  0  0  0  0  0  0  0  0  0  0  0
   57.2562   31.7348   41.7159 H   0  0  0  0  0  0  0  0  0  0  0  0
   57.9748   33.6966   43.0834 H   0  0  0  0  0  0  0  0  0  0  0  0
   58.3148   33.4455   45.5443 H   0  0  0  0  0  0  0  0  0  0  0  0
  1  2  2  0
  2  3  1  0
  3  4  1  0
  4  5  2  0
  5  6  1  0
  6  7  2  0
  7  8  1  0
  8  9  1  0
  9 10  2  0
  9 11  2  0
  9 12  1  0
 12 13  1  0
 13 14  1  0
 14 15  1  0
 15 16  1  0
 16 17  1  0
  8 18  2  0
  2 19  1  0
 19 20  1  0
 20 21  1  0
 21 22  2  0
 21 23  1  0
 23 24  1  0
 24 25  1  0
 25 26  2  0
 26 27  1  0
 27 28  2  0
 28 29  1  0
 29 30  2  0
 30 31  1  0
 18  4  1  0
 24 19  2  0
 30 25  1  0
 17 12  1  0
  3 32  1  0
  5 33  1  0
  6 34  1  0
  7 35  1  0
 13 36  1  0
 13 37  1  0
 14 38  1  0
 14 39  1  0
 15 40  1  0
 15 41  1  0
 16 42  1  0
 16 43  1  0
 17 44  1  0
 17 45  1  0
 18 46  1  0
 26 47  1  0
 27 48  1  0
 28 49  1  0
 29 50  1  0
M  CHG  2  20  -1  23  -1
M  END
>  <UniqueID>  (8) 
8

>  <SMILES>  (8) 
O=C(Nc1cccc(S(=O)(=O)N2CCCCC2)c1)c1[n-]c(=O)[n-]c1-c1ccccc1F

>  <Energy>  (8) 
97.81142745187049

>  <Genealogy>  (8) 
O=C(Nc1cccc(S(=O)(=O)N2CCCCC2)c1)c1[n-]c(=O)[n-]c1-c1ccccc1F (protonated)
O=C(Nc1cccc(S(=O)(=O)N2CCCCC2)c1)c1[n-]c(=O)[n-]c1-c1ccccc1F (3D coordinates assigned)
O=C(Nc1cccc(S(=O)(=O)N2CCCCC2)c1)c1[n-]c(=O)[n-]c1-c1ccccc1F (nonaromatic ring conformer: 97.81142745187049 kcal/mol)

>  <smiles>  (8) 
O=C(Nc1cccc(S(=O)(=O)N2CCCCC2)c1)c1[nH]c(=O)[nH]c1-c1ccccc1F

>  <score_type>  (8) 
oracle

>  <origin>  (8) 
adg

>  <m_score__min__energy>  (8) 
-13.199999999999999

>  <m_primary>  (8) 
energy

$$$$
8:0
     RDKit          3D

 62 66  0  0  0  0  0  0  0  0999 V2000
   54.0190   26.3300   46.3830 H   0  0  0  0  0  0  0  0  0  0  0  0
   54.9410   26.4110   45.9680 O   0  0  0  0  0  0  0  0  0  0  0  0
   55.9310   25.4770   46.2510 C   0  0  0  0  0  0  0  0  0  0  0  0
   55.8110   24.5110   47.1780 N   0  0  0  0  0  0  0  0  0  0  0  0
   57.0030   23.8820   47.1040 C   0  0  0  0  0  0  0  0  0  0  0  0
   57.2960   22.8990   47.8320 O   0  0  0  0  0  0  0  0  0  0  0  0
   57.8620   24.3950   46.1940 N   0  0  0  0  0  0  0  0  0  0  0  0
   57.1570   25.3970   45.6350 C   0  0  0  0  0  0  0  0  0  0  0  0
   57.6940   26.3540   44.6540 C   0  0  0  0  0  0  0  0  0  0  0  0
   57.6562   26.0608   43.5945 H   0  0  0  0  0  0  0  0  0  0  0  0
   58.2280   27.5580   44.9400 C   0  0  0  0  0  0  0  0  0  0  0  0
   59.5300   27.7150   45.3940 C   0  0  0  0  0  0  0  0  0  0  0  0
   60.2462   26.9116   45.6211 H   0  0  0  0  0  0  0  0  0  0  0  0
   59.7540   29.0720   45.5060 C   0  0  0  0  0  0  0  0  0  0  0  0
   61.0350   29.6900   45.9820 C   0  0  0  0  0  0  0  0  0  0  0  0
   61.0517   29.6981   47.0818 H   0  0  0  0  0  0  0  0  0  0  0  0
   61.8867   29.1037   45.6066 H   0  0  0  0  0  0  0  0  0  0  0  0
   61.1061   30.7215   45.6066 H   0  0  0  0  0  0  0  0  0  0  0  0
   58.6370   29.7610   45.1830 N   0  0  0  0  0  0  0  0  0  0  0  0
   58.4820   31.1900   45.2570 C   0  0  0  0  0  0  0  0  0  0  0  0
   59.0060   31.8970   46.3500 C   0  0  0  0  0  0  0  0  0  0  0  0
   59.5678   31.3625   47.1302 H   0  0  0  0  0  0  0  0  0  0  0  0
   58.8160   33.2820   46.4510 C   0  0  0  0  0  0  0  0  0  0  0  0
   59.3260   34.0040   47.6290 C   0  0  0  0  0  0  0  0  0  0  0  0
   59.9300   35.0960   47.4440 O   0  0  0  0  0  0  0  0  0  0  0  0
   59.1810   33.4650   48.9630 N   0  0  0  0  0  0  0  0  0  0  0  0
   59.7670   34.1590   50.1210 C   0  0  0  0  0  0  0  0  0  0  0  0
   60.4010   34.9856   49.7677 H   0  0  0  0  0  0  0  0  0  0  0  0
   58.9576   34.5532   50.7530 H   0  0  0  0  0  0  0  0  0  0  0  0
   60.6160   33.1840   50.9420 C   0  0  0  0  0  0  0  0  0  0  0  0
   61.5625   32.9995   50.4127 H   0  0  0  0  0  0  0  0  0  0  0  0
   60.8032   33.6324   51.9289 H   0  0  0  0  0  0  0  0  0  0  0  0
   59.9200   31.9050   51.1380 N   0  0  0  0  0  0  0  0  0  0  0  0
   60.5010   30.9170   52.0010 C   0  0  0  0  0  0  0  0  0  0  0  0
   60.5870   31.1620   53.3780 C   0  0  0  0  0  0  0  0  0  0  0  0
   60.2078   32.1084   53.7909 H   0  0  0  0  0  0  0  0  0  0  0  0
   61.1370   30.2350   54.2050 N   0  0  0  0  0  0  0  0  0  0  0  0
   61.6140   29.0530   53.7340 C   0  0  0  0  0  0  0  0  0  0  0  0
   62.0535   28.3229   54.4296 H   0  0  0  0  0  0  0  0  0  0  0  0
   61.5480   28.7620   52.3690 C   0  0  0  0  0  0  0  0  0  0  0  0
   61.9440   27.8095   51.9870 H   0  0  0  0  0  0  0  0  0  0  0  0
   60.9740   29.6910   51.4880 C   0  0  0  0  0  0  0  0  0  0  0  0
   60.9160   29.3880   50.0170 C   0  0  0  0  0  0  0  0  0  0  0  0
   60.7110   28.3172   49.8710 H   0  0  0  0  0  0  0  0  0  0  0  0
   60.1151   29.9814   49.5517 H   0  0  0  0  0  0  0  0  0  0  0  0
   61.8794   29.6437   49.5517 H   0  0  0  0  0  0  0  0  0  0  0  0
   58.5610   31.7090   50.6250 C   0  0  0  0  0  0  0  0  0  0  0  0
   58.3021   30.6411   50.6760 H   0  0  0  0  0  0  0  0  0  0  0  0
   57.8553   32.2915   51.2354 H   0  0  0  0  0  0  0  0  0  0  0  0
   58.4810   32.1830   49.1690 C   0  0  0  0  0  0  0  0  0  0  0  0
   58.9397   31.4206   48.5222 H   0  0  0  0  0  0  0  0  0  0  0  0
   57.4202   32.3327   48.9195 H   0  0  0  0  0  0  0  0  0  0  0  0
   58.1280   33.9660   45.4390 C   0  0  0  0  0  0  0  0  0  0  0  0
   57.9876   35.0547   45.5098 H   0  0  0  0  0  0  0  0  0  0  0  0
   57.6200   33.2670   44.3400 C   0  0  0  0  0  0  0  0  0  0  0  0
   57.0851   33.8072   43.5450 H   0  0  0  0  0  0  0  0  0  0  0  0
   57.7910   31.8820   44.2500 C   0  0  0  0  0  0  0  0  0  0  0  0
   57.2920   31.2130   43.1810 F   0  0  0  0  0  0  0  0  0  0  0  0
   57.6790   28.8500   44.8670 C   0  0  0  0  0  0  0  0  0  0  0  0
   56.3850   29.1720   44.7040 C   0  0  0  0  0  0  0  0  0  0  0  0
   56.0822   30.2287   44.6626 H   0  0  0  0  0  0  0  0  0  0  0  0
   55.6283   28.3790   44.6119 H   0  0  0  0  0  0  0  0  0  0  0  0
  1  2  1  0
  2  3  1  0
  3  4  1  0
  4  5  1  0
  5  6  2  0
  5  7  1  0
  7  8  1  0
  8  9  1  0
  9 10  1  0
  9 11  2  0
 11 12  1  0
 12 13  1  0
 12 14  2  0
 14 15  1  0
 15 16  1  0
 15 17  1  0
 15 18  1  0
 14 19  1  0
 19 20  1  0
 20 21  2  0
 21 22  1  0
 21 23  1  0
 23 24  1  0
 24 25  2  0
 24 26  1  0
 26 27  1  0
 27 28  1  0
 27 29  1  0
 27 30  1  0
 30 31  1  0
 30 32  1  0
 30 33  1  0
 33 34  1  0
 34 35  2  0
 35 36  1  0
 35 37  1  0
 37 38  2  0
 38 39  1  0
 38 40  1  0
 40 41  1  0
 40 42  2  0
 42 43  1  0
 43 44  1  0
 43 45  1  0
 43 46  1  0
 33 47  1  0
 47 48  1  0
 47 49  1  0
 47 50  1  0
 50 51  1  0
 50 52  1  0
 23 53  2  0
 53 54  1  0
 53 55  1  0
 55 56  1  0
 55 57  2  0
 57 58  1  0
 19 59  1  0
 59 60  2  0
 60 61  1  0
 60 62  1  0
  8  3  2  0
 59 11  1  0
 57 20  1  0
 50 26  1  0
 42 34  1  0
M  CHG  2   4  -1   7  -1
M  END
>  <UniqueID>  (9) 
9

>  <SMILES>  (9) 
C=c1/c(=C\c2[n-]c(=O)[n-]c2O)cc(C)n1-c1cc(C(=O)N2CCN(c3cnccc3C)CC2)ccc1F

>  <Energy>  (9) 
153.99989680023597

>  <Genealogy>  (9) 
C=c1c(=Cc2[n-]c(=O)[n-]c2O)cc(C)n1-c1cc(C(=O)N2CCN(c3cnccc3C)CC2)ccc1F (protonated)
C=c1/c(=C\c2[n-]c(=O)[n-]c2O)cc(C)n1-c1cc(C(=O)N2CCN(c3cnccc3C)CC2)ccc1F (cis-trans isomerization)
C=c1/c(=C\c2[n-]c(=O)[n-]c2O)cc(C)n1-c1cc(C(=O)N2CCN(c3cnccc3C)CC2)ccc1F (3D coordinates assigned)
C=c1/c(=C\c2[n-]c(=O)[n-]c2O)cc(C)n1-c1cc(C(=O)N2CCN(c3cnccc3C)CC2)ccc1F (nonaromatic ring conformer: 153.99989680023597 kcal/mol)

>  <smiles>  (9) 
C=c1c(=Cc2[nH]c(=O)[nH]c2O)cc(C)n1-c1cc(C(=O)N2CCN(c3cnccc3C)CC2)ccc1F

>  <score_type>  (9) 
oracle

>  <origin>  (9) 
adg

>  <m_score__min__energy>  (9) 
-14.800000000000001

>  <m_primary>  (9) 
energy

$$$$
9:0
     RDKit          3D

 35 36  0  0  0  0  0  0  0  0999 V2000
   57.6482   27.6449   43.2994 H   0  0  0  0  0  0  0  0  0  0  0  0
   57.8070   28.1660   44.2550 C   0  0  0  0  0  0  0  0  0  0  0  0
   56.6320   28.3220   45.1310 C   0  0  0  0  0  0  0  0  0  0  0  0
   55.8370   29.2740   44.9080 O   0  0  0  0  0  0  0  0  0  0  0  0
   56.3370   27.3720   46.1590 N   0  0  0  0  0  0  0  0  0  0  0  0
   55.7010   26.1080   45.9400 C   0  0  0  0  0  0  0  0  0  0  0  0
   54.3920   25.9610   45.6720 N   0  0  0  0  0  0  0  0  0  0  0  0
   54.2190   24.6220   45.6680 C   0  0  0  0  0  0  0  0  0  0  0  0
   53.2498   24.1417   45.4684 H   0  0  0  0  0  0  0  0  0  0  0  0
   55.3470   23.9270   45.9320 N   0  0  0  0  0  0  0  0  0  0  0  0
   56.2890   24.8720   46.0990 C   0  0  0  0  0  0  0  0  0  0  0  0
   57.6980   24.5630   46.3990 C   0  0  0  0  0  0  0  0  0  0  0  0
   58.0830   23.3640   46.3690 O   0  0  0  0  0  0  0  0  0  0  0  0
   58.6470   25.5920   46.6840 N   0  0  0  0  0  0  0  0  0  0  0  0
   59.6280   25.3390   46.9370 H   0  0  0  0  0  0  0  0  0  0  0  0
   58.4130   26.6020   46.5660 H   0  0  0  0  0  0  0  0  0  0  0  0
   59.0520   28.5980   44.5100 C   0  0  0  0  0  0  0  0  0  0  0  0
   59.5878   29.0992   43.6905 H   0  0  0  0  0  0  0  0  0  0  0  0
   59.7610   28.4590   45.7900 C   0  0  0  0  0  0  0  0  0  0  0  0
   60.2770   27.3470   46.0830 O   0  0  0  0  0  0  0  0  0  0  0  0
   59.7750   29.5310   46.7370 N   0  0  0  0  0  0  0  0  0  0  0  0
   58.5860   30.2900   47.1110 C   0  0  0  0  0  0  0  0  0  0  0  0
   57.6932   29.6689   46.9460 H   0  0  0  0  0  0  0  0  0  0  0  0
   58.6619   30.5704   48.1719 H   0  0  0  0  0  0  0  0  0  0  0  0
   58.4780   31.5450   46.2810 C   0  0  0  0  0  0  0  0  0  0  0  0
   57.8000   31.5010   45.0520 C   0  0  0  0  0  0  0  0  0  0  0  0
   57.3442   30.5589   44.7134 H   0  0  0  0  0  0  0  0  0  0  0  0
   57.7000   32.6450   44.2560 C   0  0  0  0  0  0  0  0  0  0  0  0
   57.1646   32.6012   43.2961 H   0  0  0  0  0  0  0  0  0  0  0  0
   58.2780   33.8420   44.6770 C   0  0  0  0  0  0  0  0  0  0  0  0
   58.1971   34.7402   44.0472 H   0  0  0  0  0  0  0  0  0  0  0  0
   58.9600   33.9060   45.8960 C   0  0  0  0  0  0  0  0  0  0  0  0
   59.6750   35.4380   46.3800 Cl  0  0  0  0  0  0  0  0  0  0  0  0
   59.0670   32.7580   46.7040 C   0  0  0  0  0  0  0  0  0  0  0  0
   59.9370   32.8490   48.2380 Cl  0  0  0  0  0  0  0  0  0  0  0  0
  1  2  1  0
  2  3  1  0
  3  4  2  0
  3  5  1  0
  5  6  1  0
  6  7  1  0
  7  8  1  0
  8  9  1  0
  8 10  2  0
 10 11  1  0
 11 12  1  0
 12 13  2  0
 12 14  1  0
 14 15  1  0
 14 16  1  0
  2 17  2  0
 17 18  1  0
 17 19  1  0
 19 20  2  0
 19 21  1  0
 21 22  1  0
 22 23  1  0
 22 24  1  0
 22 25  1  0
 25 26  2  0
 26 27  1  0
 26 28  1  0
 28 29  1  0
 28 30  2  0
 30 31  1  0
 30 32  1  0
 32 33  1  0
 32 34  2  0
 34 35  1  0
 11  6  2  0
 34 25  1  0
M  CHG  3   5  -1   7  -1  21  -1
M  END
>  <UniqueID>  (10) 
10

>  <SMILES>  (10) 
NC(=O)c1nc[n-]c1[N-]C(=O)/C=C\C(=O)[N-]Cc1cccc(Cl)c1Cl

>  <Energy>  (10) 
72.28957344665338

>  <Genealogy>  (10) 
NC(=O)c1nc[n-]c1[N-]C(=O)C=CC(=O)[N-]Cc1cccc(Cl)c1Cl (protonated)
NC(=O)c1nc[n-]c1[N-]C(=O)/C=C\C(=O)[N-]Cc1cccc(Cl)c1Cl (cis-trans isomerization)
NC(=O)c1nc[n-]c1[N-]C(=O)/C=C\C(=O)[N-]Cc1cccc(Cl)c1Cl (3D coordinates assigned)
NC(=O)c1nc[n-]c1[N-]C(=O)/C=C\C(=O)[N-]Cc1cccc(Cl)c1Cl (optimized conformer: 72.28957344665338 kcal/mol)

>  <smiles>  (10) 
NC(=O)c1nc[nH]c1NC(=O)C=CC(=O)NCc1cccc(Cl)c1Cl

>  <score_type>  (10) 
oracle

>  <origin>  (10) 
adg

>  <m_score__min__energy>  (10) 
-13.98

>  <m_primary>  (10) 
energy

$$$$
10:0
     RDKit          3D

 53 55  0  0  0  0  0  0  0  0999 V2000
   60.1130   28.7990   45.0270 C   0  0  0  0  0  0  0  0  0  0  0  0
   58.7590   28.1870   45.2680 C   0  0  0  0  0  0  0  0  0  0  0  0
   58.6980   26.8810   45.7860 C   0  0  0  0  0  0  0  0  0  0  0  0
   57.4720   26.2470   46.0010 C   0  0  0  0  0  0  0  0  0  0  0  0
   57.4560   24.9010   46.4920 N   0  0  0  0  0  0  0  0  0  0  0  0
   58.1540   23.8550   45.7430 C   0  0  0  0  0  0  0  0  0  0  0  0
   57.4950   22.5000   46.0220 C   0  0  0  0  0  0  0  0  0  0  0  0
   57.3780   22.2720   47.4140 O   0  0  0  0  0  0  0  0  0  0  0  0
   56.4940   23.2200   47.9830 C   0  0  0  0  0  0  0  0  0  0  0  0
   57.0720   24.6330   47.8790 C   0  0  0  0  0  0  0  0  0  0  0  0
   56.2770   26.9200   45.7050 C   0  0  0  0  0  0  0  0  0  0  0  0
   55.0190   26.2770   45.9420 N   0  0  0  0  0  0  0  0  0  0  0  0
   54.6070   25.0140   45.4000 C   0  0  0  0  0  0  0  0  0  0  0  0
   55.4260   24.3620   44.6990 O   0  0  0  0  0  0  0  0  0  0  0  0
   53.2130   24.4740   45.5870 C   0  0  0  0  0  0  0  0  0  0  0  0
   53.2230   22.9790   45.6730 C   0  0  0  0  0  0  0  0  0  0  0  0
   52.0930   22.2310   45.2310 N   0  0  0  0  0  0  0  0  0  0  0  0
   54.2350   22.3800   46.1250 O   0  0  0  0  0  0  0  0  0  0  0  0
   56.3260   28.2410   45.2410 C   0  0  0  0  0  0  0  0  0  0  0  0
   57.5500   28.8840   45.0110 C   0  0  0  0  0  0  0  0  0  0  0  0
   57.4750   30.5300   44.3490 S   0  0  0  0  0  0  0  0  0  0  0  0
   58.6870   30.7400   43.4840 O   0  0  0  0  0  0  0  0  0  0  0  0
   56.2550   30.7460   43.4980 O   0  0  0  0  0  0  0  0  0  0  0  0
   57.5020   31.6720   45.6690 N   0  0  0  0  0  0  0  0  0  0  0  0
   57.7110   33.0360   45.1570 C   0  0  0  0  0  0  0  0  0  0  0  0
   57.8530   34.0360   46.3230 C   0  0  0  0  0  0  0  0  0  0  0  0
   57.7050   33.4000   47.5790 O   0  0  0  0  0  0  0  0  0  0  0  0
   58.6900   32.3920   47.7210 C   0  0  0  0  0  0  0  0  0  0  0  0
   58.5710   31.3200   46.6170 C   0  0  0  0  0  0  0  0  0  0  0  0
   60.5941   29.0165   45.9920 H   0  0  0  0  0  0  0  0  0  0  0  0
   60.7371   28.0955   44.4564 H   0  0  0  0  0  0  0  0  0  0  0  0
   59.9972   29.7323   44.4564 H   0  0  0  0  0  0  0  0  0  0  0  0
   59.6310   26.3500   46.0258 H   0  0  0  0  0  0  0  0  0  0  0  0
   58.0979   24.0753   44.6667 H   0  0  0  0  0  0  0  0  0  0  0  0
   59.2080   23.8213   46.0561 H   0  0  0  0  0  0  0  0  0  0  0  0
   56.4925   22.4872   45.5695 H   0  0  0  0  0  0  0  0  0  0  0  0
   58.1228   21.7080   45.5878 H   0  0  0  0  0  0  0  0  0  0  0  0
   55.5332   23.1832   47.4487 H   0  0  0  0  0  0  0  0  0  0  0  0
   56.3508   22.9750   49.0458 H   0  0  0  0  0  0  0  0  0  0  0  0
   56.3141   25.3638   48.1976 H   0  0  0  0  0  0  0  0  0  0  0  0
   57.9565   24.7166   48.5276 H   0  0  0  0  0  0  0  0  0  0  0  0
   52.7898   24.8848   46.5155 H   0  0  0  0  0  0  0  0  0  0  0  0
   52.6033   24.7709   44.7209 H   0  0  0  0  0  0  0  0  0  0  0  0
   51.5800   22.4950   44.3610 H   0  0  0  0  0  0  0  0  0  0  0  0
   55.3873   28.7831   45.0539 H   0  0  0  0  0  0  0  0  0  0  0  0
   58.6270   33.0576   44.5483 H   0  0  0  0  0  0  0  0  0  0  0  0
   56.8424   33.3233   44.5463 H   0  0  0  0  0  0  0  0  0  0  0  0
   58.8485   34.5015   46.2742 H   0  0  0  0  0  0  0  0  0  0  0  0
   57.0594   34.7915   46.2255 H   0  0  0  0  0  0  0  0  0  0  0  0
   59.6858   32.8555   47.6623 H   0  0  0  0  0  0  0  0  0  0  0  0
   58.5413   31.9010   48.6940 H   0  0  0  0  0  0  0  0  0  0  0  0
   59.5261   31.2503   46.0758 H   0  0  0  0  0  0  0  0  0  0  0  0
   58.3281   30.3542   47.0841 H   0  0  0  0  0  0  0  0  0  0  0  0
  1  2  1  0
  2  3  2  0
  3  4  1  0
  4  5  1  0
  5  6  1  0
  6  7  1  0
  7  8  1  0
  8  9  1  0
  9 10  1  0
  4 11  2  0
 11 12  1  0
 12 13  1  0
 13 14  2  0
 13 15  1  0
 15 16  1  0
 16 17  1  0
 16 18  2  0
 11 19  1  0
 19 20  2  0
 20 21  1  0
 21 22  2  0
 21 23  2  0
 21 24  1  0
 24 25  1  0
 25 26  1  0
 26 27  1  0
 27 28  1  0
 28 29  1  0
 20  2  1  0
 29 24  1  0
 10  5  1  0
  1 30  1  0
  1 31  1  0
  1 32  1  0
  3 33  1  0
  6 34  1  0
  6 35  1  0
  7 36  1  0
  7 37  1  0
  9 38  1  0
  9 39  1  0
 10 40  1  0
 10 41  1  0
 15 42  1  0
 15 43  1  0
 17 44  1  0
 19 45  1  0
 25 46  1  0
 25 47  1  0
 26 48  1  0
 26 49  1  0
 28 50  1  0
 28 51  1  0
 29 52  1  0
 29 53  1  0
M  CHG  2  12  -1  17  -1
M  END
>  <UniqueID>  (11) 
11

>  <SMILES>  (11) 
Cc1cc(N2CCOCC2)c([N-]C(=O)CC([NH-])=O)cc1S(=O)(=O)N1CCOCC1

>  <Energy>  (11) 
69.82530464072816

>  <Genealogy>  (11) 
Cc1cc(N2CCOCC2)c([N-]C(=O)CC([NH-])=O)cc1S(=O)(=O)N1CCOCC1 (protonated)
Cc1cc(N2CCOCC2)c([N-]C(=O)CC([NH-])=O)cc1S(=O)(=O)N1CCOCC1 (3D coordinates assigned)
Cc1cc(N2CCOCC2)c([N-]C(=O)CC([NH-])=O)cc1S(=O)(=O)N1CCOCC1 (nonaromatic ring conformer: 69.82530464072816 kcal/mol)

>  <smiles>  (11) 
Cc1cc(N2CCOCC2)c(NC(=O)CC(N)=O)cc1S(=O)(=O)N1CCOCC1

>  <score_type>  (11) 
oracle

>  <origin>  (11) 
adg

>  <m_score__min__energy>  (11) 
-11.93

>  <m_primary>  (11) 
energy

$$$$
11:0
     RDKit          3D

 56 59  0  0  0  0  0  0  0  0999 V2000
   61.0480   29.0370   51.7440 C   0  0  0  0  0  0  0  0  0  0  0  0
   60.5120   29.8680   50.6560 N   0  0  0  0  0  0  0  0  0  0  0  0
   59.2110   29.3340   50.1750 C   0  0  0  0  0  0  0  0  0  0  0  0
   58.9660   29.5310   48.6640 C   0  0  0  0  0  0  0  0  0  0  0  0
   59.6260   30.7470   48.1850 N   0  0  0  0  0  0  0  0  0  0  0  0
   58.9220   31.6570   47.3270 C   0  0  0  0  0  0  0  0  0  0  0  0
   58.4530   32.8590   47.8760 C   0  0  0  0  0  0  0  0  0  0  0  0
   57.7180   33.7550   47.1020 C   0  0  0  0  0  0  0  0  0  0  0  0
   57.4440   33.4620   45.7630 C   0  0  0  0  0  0  0  0  0  0  0  0
   56.6910   34.3820   44.9680 N   0  0  0  0  0  0  0  0  0  0  0  0
   57.9060   32.2630   45.2050 C   0  0  0  0  0  0  0  0  0  0  0  0
   58.6510   31.3440   45.9690 C   0  0  0  0  0  0  0  0  0  0  0  0
   59.1620   30.0900   45.3400 C   0  0  0  0  0  0  0  0  0  0  0  0
   60.3620   29.7480   45.5190 O   0  0  0  0  0  0  0  0  0  0  0  0
   58.2930   29.1990   44.4860 C   0  0  0  0  0  0  0  0  0  0  0  0
   57.8840   27.9380   45.2130 C   0  0  0  0  0  0  0  0  0  0  0  0
   58.8470   26.9550   45.5020 C   0  0  0  0  0  0  0  0  0  0  0  0
   58.4920   25.7910   46.1890 C   0  0  0  0  0  0  0  0  0  0  0  0
   57.1740   25.5850   46.5990 C   0  0  0  0  0  0  0  0  0  0  0  0
   56.8430   24.3780   47.3010 N   0  0  0  0  0  0  0  0  0  0  0  0
   57.0410   23.0430   46.8240 C   0  0  0  0  0  0  0  0  0  0  0  0
   57.2520   22.1250   47.6610 O   0  0  0  0  0  0  0  0  0  0  0  0
   56.9530   22.6990   45.3920 C   0  0  0  0  0  0  0  0  0  0  0  0
   56.1210   23.2830   44.4400 C   0  0  0  0  0  0  0  0  0  0  0  0
   56.2280   22.6940   43.1720 C   0  0  0  0  0  0  0  0  0  0  0  0
   57.1330   21.6410   43.1180 C   0  0  0  0  0  0  0  0  0  0  0  0
   57.7890   21.4360   44.6530 S   0  0  0  0  0  0  0  0  0  0  0  0
   56.1930   26.5300   46.2590 C   0  0  0  0  0  0  0  0  0  0  0  0
   56.5420   27.6970   45.5710 C   0  0  0  0  0  0  0  0  0  0  0  0
   55.5430   28.6040   45.2370 O   0  0  0  0  0  0  0  0  0  0  0  0
   61.0080   31.0450   48.5710 C   0  0  0  0  0  0  0  0  0  0  0  0
   61.5120   30.0160   49.5830 C   0  0  0  0  0  0  0  0  0  0  0  0
   60.7657   29.4747   52.7129 H   0  0  0  0  0  0  0  0  0  0  0  0
   60.6349   28.0205   51.6666 H   0  0  0  0  0  0  0  0  0  0  0  0
   62.1444   28.9941   51.6666 H   0  0  0  0  0  0  0  0  0  0  0  0
   59.1791   28.2561   50.3920 H   0  0  0  0  0  0  0  0  0  0  0  0
   58.4249   29.8976   50.6988 H   0  0  0  0  0  0  0  0  0  0  0  0
   59.3662   28.6642   48.1176 H   0  0  0  0  0  0  0  0  0  0  0  0
   57.8837   29.6256   48.4915 H   0  0  0  0  0  0  0  0  0  0  0  0
   58.6674   33.0971   48.9283 H   0  0  0  0  0  0  0  0  0  0  0  0
   57.3532   34.6934   47.5451 H   0  0  0  0  0  0  0  0  0  0  0  0
   56.7710   34.3790   43.9250 H   0  0  0  0  0  0  0  0  0  0  0  0
   56.0270   35.0550   45.4120 H   0  0  0  0  0  0  0  0  0  0  0  0
   57.6831   32.0354   44.1521 H   0  0  0  0  0  0  0  0  0  0  0  0
   57.3870   29.7542   44.2016 H   0  0  0  0  0  0  0  0  0  0  0  0
   58.8756   28.9057   43.6003 H   0  0  0  0  0  0  0  0  0  0  0  0
   59.8896   27.1036   45.1843 H   0  0  0  0  0  0  0  0  0  0  0  0
   59.2570   25.0316   46.4082 H   0  0  0  0  0  0  0  0  0  0  0  0
   55.4465   24.1234   44.6610 H   0  0  0  0  0  0  0  0  0  0  0  0
   55.6491   23.0341   42.3007 H   0  0  0  0  0  0  0  0  0  0  0  0
   57.3778   21.0451   42.2264 H   0  0  0  0  0  0  0  0  0  0  0  0
   55.1433   26.3517   46.5353 H   0  0  0  0  0  0  0  0  0  0  0  0
   61.6481   31.0176   47.6768 H   0  0  0  0  0  0  0  0  0  0  0  0
   61.0429   32.0440   49.0302 H   0  0  0  0  0  0  0  0  0  0  0  0
   61.6610   29.0482   49.0818 H   0  0  0  0  0  0  0  0  0  0  0  0
   62.4682   30.3525   50.0101 H   0  0  0  0  0  0  0  0  0  0  0  0
  1  2  1  0
  2  3  1  0
  3  4  1  0
  4  5  1  0
  5  6  1  0
  6  7  2  0
  7  8  1  0
  8  9  2  0
  9 10  1  0
  9 11  1  0
 11 12  2  0
 12 13  1  0
 13 14  2  0
 13 15  1  0
 15 16  1  0
 16 17  2  0
 17 18  1  0
 18 19  2  0
 19 20  1  0
 20 21  1  0
 21 22  2  0
 21 23  1  0
 23 24  2  0
 24 25  1  0
 25 26  2  0
 26 27  1  0
 19 28  1  0
 28 29  2  0
 29 30  1  0
  5 31  1  0
 31 32  1  0
 32  2  1  0
 12  6  1  0
 29 16  1  0
 27 23  1  0
  1 33  1  0
  1 34  1  0
  1 35  1  0
  3 36  1  0
  3 37  1  0
  4 38  1  0
  4 39  1  0
  7 40  1  0
  8 41  1  0
 10 42  1  0
 10 43  1  0
 11 44  1  0
 15 45  1  0
 15 46  1  0
 17 47  1  0
 18 48  1  0
 24 49  1  0
 25 50  1  0
 26 51  1  0
 28 52  1  0
 31 53  1  0
 31 54  1  0
 32 55  1  0
 32 56  1  0
M  CHG  2  20  -1  30  -1
M  END
>  <UniqueID>  (12) 
12

>  <SMILES>  (12) 
CN1CCN(c2ccc(N)cc2C(=O)Cc2ccc([N-]C(=O)c3cccs3)cc2[O-])CC1

>  <Energy>  (12) 
104.44214280125915

>  <Genealogy>  (12) 
CN1CCN(c2ccc(N)cc2C(=O)Cc2ccc([N-]C(=O)c3cccs3)cc2[O-])CC1 (protonated)
CN1CCN(c2ccc(N)cc2C(=O)Cc2ccc([N-]C(=O)c3cccs3)cc2[O-])CC1 (3D coordinates assigned)
CN1CCN(c2ccc(N)cc2C(=O)Cc2ccc([N-]C(=O)c3cccs3)cc2[O-])CC1 (nonaromatic ring conformer: 104.44214280125915 kcal/mol)

>  <smiles>  (12) 
CN1CCN(c2ccc(N)cc2C(=O)Cc2ccc(NC(=O)c3cccs3)cc2O)CC1

>  <score_type>  (12) 
oracle

>  <origin>  (12) 
adg

>  <m_score__min__energy>  (12) 
-13.300000000000001

>  <m_primary>  (12) 
energy

$$$$
12:0
     RDKit          3D

 68 72  0  0  0  0  0  0  0  0999 V2000
   60.6810   28.4690   45.5500 O   0  0  0  0  0  0  0  0  0  0  0  0
   59.5560   28.6710   46.0780 C   0  0  0  0  0  0  0  0  0  0  0  0
   59.2180   27.9900   47.2970 N   0  0  0  0  0  0  0  0  0  0  0  0
   59.5830   28.4120   48.6180 C   0  0  0  0  0  0  0  0  0  0  0  0
   60.7230   27.8600   49.2140 C   0  0  0  0  0  0  0  0  0  0  0  0
   61.1100   28.2540   50.4980 C   0  0  0  0  0  0  0  0  0  0  0  0
   60.3500   29.1930   51.2020 C   0  0  0  0  0  0  0  0  0  0  0  0
   59.1940   29.7340   50.6260 C   0  0  0  0  0  0  0  0  0  0  0  0
   58.2010   30.8790   51.5250 S   0  0  0  0  0  0  0  0  0  0  0  0
   58.4610   30.7380   52.9980 O   0  0  0  0  0  0  0  0  0  0  0  0
   56.7550   30.5710   51.2470 O   0  0  0  0  0  0  0  0  0  0  0  0
   58.5600   32.5170   51.0250 N   0  0  0  0  0  0  0  0  0  0  0  0
   59.0860   32.5250   49.6480 C   0  0  0  0  0  0  0  0  0  0  0  0
   59.7710   33.8710   49.3490 C   0  0  0  0  0  0  0  0  0  0  0  0
   60.8450   34.2000   50.2230 O   0  0  0  0  0  0  0  0  0  0  0  0
   60.8670   33.4280   51.4150 C   0  0  0  0  0  0  0  0  0  0  0  0
   59.4600   33.1880   51.9920 C   0  0  0  0  0  0  0  0  0  0  0  0
   58.8020   29.3280   49.3440 C   0  0  0  0  0  0  0  0  0  0  0  0
   58.5550   29.5630   45.4200 C   0  0  0  0  0  0  0  0  0  0  0  0
   57.5220   28.9770   44.6580 C   0  0  0  0  0  0  0  0  0  0  0  0
   56.5830   29.7670   43.9900 C   0  0  0  0  0  0  0  0  0  0  0  0
   56.6570   31.1560   44.0650 C   0  0  0  0  0  0  0  0  0  0  0  0
   57.6630   31.7610   44.8170 C   0  0  0  0  0  0  0  0  0  0  0  0
   58.6090   30.9830   45.5050 C   0  0  0  0  0  0  0  0  0  0  0  0
   59.6250   31.6920   46.2980 C   0  0  0  0  0  0  0  0  0  0  0  0
   59.3700   32.8470   46.7370 O   0  0  0  0  0  0  0  0  0  0  0  0
   60.9130   31.0940   46.5090 N   0  0  0  0  0  0  0  0  0  0  0  0
   61.8660   31.5410   47.4900 C   0  0  0  0  0  0  0  0  0  0  0  0
   62.7900   32.5370   47.1400 C   0  0  0  0  0  0  0  0  0  0  0  0
   63.7460   32.9740   48.0610 C   0  0  0  0  0  0  0  0  0  0  0  0
   63.8090   32.4080   49.3440 C   0  0  0  0  0  0  0  0  0  0  0  0
   64.7860   32.8700   50.2960 N   0  0  0  0  0  0  0  0  0  0  0  0
   64.4560   33.9690   51.2120 C   0  0  0  0  0  0  0  0  0  0  0  0
   65.7290   34.5140   51.8620 C   0  0  0  0  0  0  0  0  0  0  0  0
   66.7700   34.5340   50.9070 O   0  0  0  0  0  0  0  0  0  0  0  0
   67.2220   33.2120   50.6480 C   0  0  0  0  0  0  0  0  0  0  0  0
   66.0790   32.1880   50.4430 C   0  0  0  0  0  0  0  0  0  0  0  0
   62.8930   31.4030   49.6920 C   0  0  0  0  0  0  0  0  0  0  0  0
   61.9380   30.9630   48.7700 C   0  0  0  0  0  0  0  0  0  0  0  0
   61.3175   27.1121   48.6689 H   0  0  0  0  0  0  0  0  0  0  0  0
   62.0137   27.8248   50.9553 H   0  0  0  0  0  0  0  0  0  0  0  0
   60.6605   29.5071   52.2094 H   0  0  0  0  0  0  0  0  0  0  0  0
   59.8176   31.7115   49.5336 H   0  0  0  0  0  0  0  0  0  0  0  0
   58.2527   32.3819   48.9443 H   0  0  0  0  0  0  0  0  0  0  0  0
   60.1639   33.8346   48.3222 H   0  0  0  0  0  0  0  0  0  0  0  0
   59.0052   34.6474   49.4927 H   0  0  0  0  0  0  0  0  0  0  0  0
   61.3283   32.4539   51.1952 H   0  0  0  0  0  0  0  0  0  0  0  0
   61.4428   33.9901   52.1650 H   0  0  0  0  0  0  0  0  0  0  0  0
   59.5488   32.5569   52.8886 H   0  0  0  0  0  0  0  0  0  0  0  0
   59.0237   34.1690   52.2313 H   0  0  0  0  0  0  0  0  0  0  0  0
   57.8774   29.7284   48.9027 H   0  0  0  0  0  0  0  0  0  0  0  0
   57.4550   27.8812   44.5888 H   0  0  0  0  0  0  0  0  0  0  0  0
   55.7834   29.2910   43.4035 H   0  0  0  0  0  0  0  0  0  0  0  0
   55.9216   31.7755   43.5308 H   0  0  0  0  0  0  0  0  0  0  0  0
   57.7166   32.8583   44.8722 H   0  0  0  0  0  0  0  0  0  0  0  0
   61.1870   30.3000   45.8860 H   0  0  0  0  0  0  0  0  0  0  0  0
   62.7618   32.9775   46.1325 H   0  0  0  0  0  0  0  0  0  0  0  0
   64.4540   33.7670   47.7785 H   0  0  0  0  0  0  0  0  0  0  0  0
   63.9613   34.7747   50.6498 H   0  0  0  0  0  0  0  0  0  0  0  0
   63.7843   33.5926   51.9975 H   0  0  0  0  0  0  0  0  0  0  0  0
   65.5464   35.5352   52.2278 H   0  0  0  0  0  0  0  0  0  0  0  0
   66.0161   33.8699   52.7062 H   0  0  0  0  0  0  0  0  0  0  0  0
   67.8394   33.2290   49.7378 H   0  0  0  0  0  0  0  0  0  0  0  0
   67.7865   32.8877   51.5347 H   0  0  0  0  0  0  0  0  0  0  0  0
   66.2810   31.5992   49.5361 H   0  0  0  0  0  0  0  0  0  0  0  0
   66.0324   31.5313   51.3242 H   0  0  0  0  0  0  0  0  0  0  0  0
   62.9266   30.9582   50.6975 H   0  0  0  0  0  0  0  0  0  0  0  0
   61.2391   30.1602   49.0476 H   0  0  0  0  0  0  0  0  0  0  0  0
  1  2  2  0
  2  3  1  0
  3  4  1  0
  4  5  2  0
  5  6  1  0
  6  7  2  0
  7  8  1  0
  8  9  1  0
  9 10  2  0
  9 11  2  0
  9 12  1  0
 12 13  1  0
 13 14  1  0
 14 15  1  0
 15 16  1  0
 16 17  1  0
  8 18  2  0
  2 19  1  0
 19 20  2  0
 20 21  1  0
 21 22  2  0
 22 23  1  0
 23 24  2  0
 24 25  1  0
 25 26  2  0
 25 27  1  0
 27 28  1  0
 28 29  2  0
 29 30  1  0
 30 31  2  0
 31 32  1  0
 32 33  1  0
 33 34  1  0
 34 35  1  0
 35 36  1  0
 36 37  1  0
 31 38  1  0
 38 39  2  0
 18  4  1  0
 24 19  1  0
 39 28  1  0
 17 12  1  0
 37 32  1  0
  5 40  1  0
  6 41  1  0
  7 42  1  0
 13 43  1  0
 13 44  1  0
 14 45  1  0
 14 46  1  0
 16 47  1  0
 16 48  1  0
 17 49  1  0
 17 50  1  0
 18 51  1  0
 20 52  1  0
 21 53  1  0
 22 54  1  0
 23 55  1  0
 27 56  1  0
 29 57  1  0
 30 58  1  0
 33 59  1  0
 33 60  1  0
 34 61  1  0
 34 62  1  0
 36 63  1  0
 36 64  1  0
 37 65  1  0
 37 66  1  0
 38 67  1  0
 39 68  1  0
M  CHG  1   3  -1
M  END
>  <UniqueID>  (13) 
13

>  <SMILES>  (13) 
O=C([N-]c1cccc(S(=O)(=O)N2CCOCC2)c1)c1ccccc1C(=O)Nc1ccc(N2CCOCC2)cc1

>  <Energy>  (13) 
111.7261043729941

>  <Genealogy>  (13) 
O=C([N-]c1cccc(S(=O)(=O)N2CCOCC2)c1)c1ccccc1C(=O)Nc1ccc(N2CCOCC2)cc1 (protonated)
O=C([N-]c1cccc(S(=O)(=O)N2CCOCC2)c1)c1ccccc1C(=O)Nc1ccc(N2CCOCC2)cc1 (3D coordinates assigned)
O=C([N-]c1cccc(S(=O)(=O)N2CCOCC2)c1)c1ccccc1C(=O)Nc1ccc(N2CCOCC2)cc1 (nonaromatic ring conformer: 111.7261043729941 kcal/mol)

>  <smiles>  (13) 
O=C(Nc1ccc(N2CCOCC2)cc1)c1ccccc1C(=O)Nc1cccc(S(=O)(=O)N2CCOCC2)c1

>  <score_type>  (13) 
oracle

>  <origin>  (13) 
adg

>  <m_score__min__energy>  (13) 
-12.220000000000001

>  <m_primary>  (13) 
energy

$$$$
13:0
     RDKit          3D

 51 54  0  0  0  0  0  0  0  0999 V2000
   58.8860   29.1970   44.4880 C   0  0  0  0  0  0  0  0  0  0  0  0
   58.7600   28.8910   45.7900 C   0  0  0  0  0  0  0  0  0  0  0  0
   58.3520   27.6690   46.3550 C   0  0  0  0  0  0  0  0  0  0  0  0
   58.0760   26.4780   45.7860 C   0  0  0  0  0  0  0  0  0  0  0  0
   56.7890   25.7660   45.8830 C   0  0  0  0  0  0  0  0  0  0  0  0
   55.5710   26.4590   45.7820 C   0  0  0  0  0  0  0  0  0  0  0  0
   55.5560   27.8400   45.6080 O   0  0  0  0  0  0  0  0  0  0  0  0
   54.3960   25.7810   45.8500 N   0  0  0  0  0  0  0  0  0  0  0  0
   54.3750   24.4310   46.0000 C   0  0  0  0  0  0  0  0  0  0  0  0
   53.2730   23.8240   46.0650 O   0  0  0  0  0  0  0  0  0  0  0  0
   55.5400   23.7350   46.0760 N   0  0  0  0  0  0  0  0  0  0  0  0
   56.7410   24.3680   46.0140 C   0  0  0  0  0  0  0  0  0  0  0  0
   57.8030   23.6930   46.0850 O   0  0  0  0  0  0  0  0  0  0  0  0
   58.2830   27.8790   47.7250 C   0  0  0  0  0  0  0  0  0  0  0  0
   58.6720   29.1840   47.9520 C   0  0  0  0  0  0  0  0  0  0  0  0
   58.8030   29.8220   49.2980 C   0  0  0  0  0  0  0  0  0  0  0  0
   58.9640   29.7920   46.7840 N   0  0  0  0  0  0  0  0  0  0  0  0
   59.3830   31.1580   46.6360 C   0  0  0  0  0  0  0  0  0  0  0  0
   60.6820   31.5350   47.0010 C   0  0  0  0  0  0  0  0  0  0  0  0
   61.1260   32.8470   46.7780 C   0  0  0  0  0  0  0  0  0  0  0  0
   62.5170   33.2170   47.0880 C   0  0  0  0  0  0  0  0  0  0  0  0
   63.1940   33.8300   46.2190 O   0  0  0  0  0  0  0  0  0  0  0  0
   63.1020   32.9180   48.3700 N   0  0  0  0  0  0  0  0  0  0  0  0
   64.5180   33.1040   48.6390 C   0  0  0  0  0  0  0  0  0  0  0  0
   64.7550   32.5690   50.0460 C   0  0  0  0  0  0  0  0  0  0  0  0
   63.3780   32.3320   50.6690 C   0  0  0  0  0  0  0  0  0  0  0  0
   62.3560   32.4480   49.5320 C   0  0  1  0  0  0  0  0  0  0  0  0
   61.2530   33.4100   49.8800 C   0  0  0  0  0  0  0  0  0  0  0  0
   61.2580   34.5750   49.4060 O   0  0  0  0  0  0  0  0  0  0  0  0
   60.2160   33.0140   50.7160 O   0  0  0  0  0  0  0  0  0  0  0  0
   60.2440   33.7930   46.2310 C   0  0  0  0  0  0  0  0  0  0  0  0
   58.9410   33.4230   45.8890 C   0  0  0  0  0  0  0  0  0  0  0  0
   58.5100   32.1080   46.0830 C   0  0  0  0  0  0  0  0  0  0  0  0
   57.2500   31.7550   45.7270 F   0  0  0  0  0  0  0  0  0  0  0  0
   59.2182   30.2021   44.1889 H   0  0  0  0  0  0  0  0  0  0  0  0
   58.6570   28.4425   43.7210 H   0  0  0  0  0  0  0  0  0  0  0  0
   58.8760   25.9991   45.2023 H   0  0  0  0  0  0  0  0  0  0  0  0
   57.9767   27.1454   48.4853 H   0  0  0  0  0  0  0  0  0  0  0  0
   58.6474   29.0640   50.0798 H   0  0  0  0  0  0  0  0  0  0  0  0
   59.8088   30.2550   49.4022 H   0  0  0  0  0  0  0  0  0  0  0  0
   58.0492   30.6163   49.4022 H   0  0  0  0  0  0  0  0  0  0  0  0
   61.3563   30.7996   47.4641 H   0  0  0  0  0  0  0  0  0  0  0  0
   65.1218   32.5430   47.9106 H   0  0  0  0  0  0  0  0  0  0  0  0
   64.8068   34.1623   48.5577 H   0  0  0  0  0  0  0  0  0  0  0  0
   65.3178   31.6249   50.0019 H   0  0  0  0  0  0  0  0  0  0  0  0
   65.3407   33.2819   50.6449 H   0  0  0  0  0  0  0  0  0  0  0  0
   63.3327   31.3293   51.1190 H   0  0  0  0  0  0  0  0  0  0  0  0
   63.1713   33.0638   51.4639 H   0  0  0  0  0  0  0  0  0  0  0  0
   61.8701   31.4801   49.3394 H   0  0  0  0  0  0  0  0  0  0  0  0
   60.5800   34.8282   46.0714 H   0  0  0  0  0  0  0  0  0  0  0  0
   58.2523   34.1690   45.4658 H   0  0  0  0  0  0  0  0  0  0  0  0
  1  2  2  0
  2  3  1  0
  3  4  2  3
  4  5  1  0
  5  6  2  0
  6  7  1  0
  6  8  1  0
  8  9  1  0
  9 10  2  0
  9 11  1  0
 11 12  1  0
 12 13  2  0
  3 14  1  0
 14 15  2  0
 15 16  1  0
 15 17  1  0
 17 18  1  0
 18 19  2  0
 19 20  1  0
 20 21  1  0
 21 22  2  0
 21 23  1  0
 23 24  1  0
 24 25  1  0
 25 26  1  0
 26 27  1  0
 27 28  1  0
 28 29  2  0
 28 30  1  0
 20 31  2  0
 31 32  1  0
 32 33  2  0
 33 34  1  0
 17  2  1  0
 33 18  1  0
 12  5  1  0
 27 23  1  0
  1 35  1  0
  1 36  1  0
  4 37  1  0
 14 38  1  0
 16 39  1  0
 16 40  1  0
 16 41  1  0
 19 42  1  0
 24 43  1  0
 24 44  1  0
 25 45  1  0
 25 46  1  0
 26 47  1  0
 26 48  1  0
 27 49  1  6
 31 50  1  0
 32 51  1  0
M  CHG  4   7  -1   8  -1  11  -1  30  -1
M  END
>  <UniqueID>  (14) 
14

>  <SMILES>  (14) 
C=c1c(=Cc2c([O-])[n-]c(=O)[n-]c2=O)cc(C)n1-c1cc(C(=O)N2CCC[C@H]2C(=O)[O-])ccc1F

>  <Energy>  (14) 
109.56389562878957

>  <Genealogy>  (14) 
C=c1c(=Cc2c([O-])[n-]c(=O)[n-]c2=O)cc(C)n1-c1cc(C(=O)N2CCCC2C(=O)[O-])ccc1F (protonated)
C=c1c(=Cc2c([O-])[n-]c(=O)[n-]c2=O)cc(C)n1-c1cc(C(=O)N2CCC[C@H]2C(=O)[O-])ccc1F (chirality)
C=c1c(=Cc2c([O-])[n-]c(=O)[n-]c2=O)cc(C)n1-c1cc(C(=O)N2CCC[C@H]2C(=O)[O-])ccc1F (3D coordinates assigned)
C=c1c(=Cc2c([O-])[n-]c(=O)[n-]c2=O)cc(C)n1-c1cc(C(=O)N2CCC[C@H]2C(=O)[O-])ccc1F (nonaromatic ring conformer: 109.56389562878957 kcal/mol)

>  <smiles>  (14) 
C=c1c(=Cc2c(O)[nH]c(=O)[nH]c2=O)cc(C)n1-c1cc(C(=O)N2CCCC2C(=O)O)ccc1F

>  <score_type>  (14) 
oracle

>  <origin>  (14) 
adg

>  <m_score__min__energy>  (14) 
-17.41

>  <m_primary>  (14) 
energy

$$$$
14:0
     RDKit          3D

 45 48  0  0  0  0  0  0  0  0999 V2000
   54.0480   26.3370   46.4020 H   0  0  0  0  0  0  0  0  0  0  0  0
   54.9870   26.5710   46.0820 O   0  0  0  0  0  0  0  0  0  0  0  0
   56.0290   25.6630   46.1950 C   0  0  0  0  0  0  0  0  0  0  0  0
   55.8890   24.4870   46.8630 N   0  0  0  0  0  0  0  0  0  0  0  0
   57.0330   23.7790   46.8430 C   0  0  0  0  0  0  0  0  0  0  0  0
   57.1530   22.6540   47.3950 O   0  0  0  0  0  0  0  0  0  0  0  0
   58.2550   24.5630   46.0050 S   0  0  0  0  0  0  0  0  0  0  0  0
   57.2850   25.8920   45.6530 C   0  0  0  0  0  0  0  0  0  0  0  0
   57.7020   27.0990   44.8730 C   0  0  0  0  0  0  0  0  0  0  0  0
   56.8109   27.5743   44.4371 H   0  0  0  0  0  0  0  0  0  0  0  0
   58.3927   26.7872   44.0757 H   0  0  0  0  0  0  0  0  0  0  0  0
   58.3980   28.0790   45.7610 C   0  0  0  0  0  0  0  0  0  0  0  0
   58.2290   28.1660   47.4330 S   0  0  0  0  0  0  0  0  0  0  0  0
   59.3340   29.4210   47.5630 C   0  0  0  0  0  0  0  0  0  0  0  0
   59.6270   29.9960   48.6900 N   0  0  0  0  0  0  0  0  0  0  0  0
   58.8740   31.0370   49.3330 C   0  0  0  0  0  0  0  0  0  0  0  0
   57.9680   30.7610   50.1720 O   0  0  0  0  0  0  0  0  0  0  0  0
   59.1840   32.4130   49.0700 N   0  0  0  0  0  0  0  0  0  0  0  0
   59.0040   33.0580   47.8030 C   0  0  0  0  0  0  0  0  0  0  0  0
   57.7570   32.9500   47.1750 C   0  0  0  0  0  0  0  0  0  0  0  0
   56.9567   32.3626   47.6488 H   0  0  0  0  0  0  0  0  0  0  0  0
   57.5210   33.5820   45.9520 C   0  0  0  0  0  0  0  0  0  0  0  0
   56.5345   33.5013   45.4721 H   0  0  0  0  0  0  0  0  0  0  0  0
   58.5350   34.3140   45.3410 C   0  0  0  0  0  0  0  0  0  0  0  0
   58.3465   34.8160   44.3806 H   0  0  0  0  0  0  0  0  0  0  0  0
   59.7900   34.4130   45.9430 C   0  0  0  0  0  0  0  0  0  0  0  0
   60.5876   34.9894   45.4514 H   0  0  0  0  0  0  0  0  0  0  0  0
   60.0420   33.7820   47.1720 C   0  0  0  0  0  0  0  0  0  0  0  0
   61.3700   33.8060   47.7200 N   0  0  0  0  0  0  0  0  0  0  0  0
   61.5250   34.1690   49.1320 C   0  0  0  0  0  0  0  0  0  0  0  0
   60.8564   35.0101   49.3677 H   0  0  0  0  0  0  0  0  0  0  0  0
   61.2680   33.3023   49.7587 H   0  0  0  0  0  0  0  0  0  0  0  0
   62.9660   34.5770   49.4080 C   0  0  0  0  0  0  0  0  0  0  0  0
   63.1910   35.5066   48.8648 H   0  0  0  0  0  0  0  0  0  0  0  0
   63.0943   34.7340   50.4892 H   0  0  0  0  0  0  0  0  0  0  0  0
   63.8500   33.5610   48.9810 O   0  0  0  0  0  0  0  0  0  0  0  0
   63.8120   33.4660   47.5730 C   0  0  0  0  0  0  0  0  0  0  0  0
   64.0448   34.4507   47.1415 H   0  0  0  0  0  0  0  0  0  0  0  0
   64.5520   32.7161   47.2567 H   0  0  0  0  0  0  0  0  0  0  0  0
   62.4280   33.0180   47.0780 C   0  0  0  0  0  0  0  0  0  0  0  0
   62.3714   33.1568   45.9883 H   0  0  0  0  0  0  0  0  0  0  0  0
   62.2857   31.9578   47.3344 H   0  0  0  0  0  0  0  0  0  0  0  0
   59.8580   29.7720   46.3650 N   0  0  0  0  0  0  0  0  0  0  0  0
   59.3330   29.0260   45.3540 C   0  0  0  0  0  0  0  0  0  0  0  0
   59.6241   29.1609   44.3018 H   0  0  0  0  0  0  0  0  0  0  0  0
  1  2  1  0
  2  3  1  0
  3  4  1  0
  4  5  1  0
  5  6  2  0
  5  7  1  0
  7  8  1  0
  8  9  1  0
  9 10  1  0
  9 11  1  0
  9 12  1  0
 12 13  1  0
 13 14  1  0
 14 15  2  0
 15 16  1  0
 16 17  2  0
 16 18  1  0
 18 19  1  0
 19 20  2  0
 20 21  1  0
 20 22  1  0
 22 23  1  0
 22 24  2  0
 24 25  1  0
 24 26  1  0
 26 27  1  0
 26 28  2  0
 28 29  1  0
 29 30  1  0
 30 31  1  0
 30 32  1  0
 30 33  1  0
 33 34  1  0
 33 35  1  0
 33 36  1  0
 36 37  1  0
 37 38  1  0
 37 39  1  0
 37 40  1  0
 40 41  1  0
 40 42  1  0
 14 43  1  0
 43 44  1  0
 44 45  1  0
  8  3  2  0
 44 12  2  0
 28 19  1  0
 40 29  1  0
M  CHG  3   4  -1  18  -1  43  -1
M  END
>  <UniqueID>  (15) 
15

>  <SMILES>  (15) 
O=C(/N=c1\[n-]cc(Cc2sc(=O)[n-]c2O)s1)[N-]c1ccccc1N1CCOCC1

>  <Energy>  (15) 
117.80777011965824

>  <Genealogy>  (15) 
O=C(N=c1[n-]cc(Cc2sc(=O)[n-]c2O)s1)[N-]c1ccccc1N1CCOCC1 (protonated)
O=C(/N=c1\[n-]cc(Cc2sc(=O)[n-]c2O)s1)[N-]c1ccccc1N1CCOCC1 (cis-trans isomerization)
O=C(/N=c1\[n-]cc(Cc2sc(=O)[n-]c2O)s1)[N-]c1ccccc1N1CCOCC1 (3D coordinates assigned)
O=C(/N=c1\[n-]cc(Cc2sc(=O)[n-]c2O)s1)[N-]c1ccccc1N1CCOCC1 (nonaromatic ring conformer: 117.80777011965824 kcal/mol)

>  <smiles>  (15) 
O=C(N=c1[nH]cc(Cc2sc(=O)[nH]c2O)s1)Nc1ccccc1N1CCOCC1

>  <score_type>  (15) 
oracle

>  <origin>  (15) 
adg

>  <m_score__min__energy>  (15) 
-13.59

>  <m_primary>  (15) 
energy

$$$$
15:0
     RDKit          3D

 60 63  0  0  0  0  0  0  0  0999 V2000
   64.1470   32.9300   46.7950 N   0  0  0  0  0  0  0  0  0  0  0  0
   63.6710   33.3890   48.0650 C   0  0  0  0  0  0  0  0  0  0  0  0
   64.4820   33.4520   49.0280 O   0  0  0  0  0  0  0  0  0  0  0  0
   62.2550   33.7860   48.2700 C   0  0  0  0  0  0  0  0  0  0  0  0
   61.6660   33.7690   49.5500 C   0  0  0  0  0  0  0  0  0  0  0  0
   60.3280   34.1380   49.7210 C   0  0  0  0  0  0  0  0  0  0  0  0
   59.5580   34.5200   48.6230 C   0  0  0  0  0  0  0  0  0  0  0  0
   60.1160   34.5220   47.3370 C   0  0  0  0  0  0  0  0  0  0  0  0
   59.2550   34.8630   46.1480 C   0  0  0  0  0  0  0  0  0  0  0  0
   58.6950   33.6290   45.5560 N   0  0  0  0  0  0  0  0  0  0  0  0
   59.4300   32.4360   46.0340 C   0  0  0  0  0  0  0  0  0  0  0  0
   58.6310   31.1220   45.8930 C   0  0  0  0  0  0  0  0  0  0  0  0
   57.5590   31.2460   44.8950 N   0  0  0  0  0  0  0  0  0  0  0  0
   57.3280   30.2090   43.9190 C   0  0  0  0  0  0  0  0  0  0  0  0
   57.0460   30.5320   42.7350 O   0  0  0  0  0  0  0  0  0  0  0  0
   57.4260   28.7730   44.2740 C   0  0  0  0  0  0  0  0  0  0  0  0
   57.9840   27.8480   43.3770 C   0  0  0  0  0  0  0  0  0  0  0  0
   58.0790   26.4970   43.7200 C   0  0  0  0  0  0  0  0  0  0  0  0
   57.6430   26.0460   44.9770 C   0  0  0  0  0  0  0  0  0  0  0  0
   57.7260   24.6100   45.3160 C   0  0  0  0  0  0  0  0  0  0  0  0
   57.9060   24.2800   46.5180 O   0  0  0  0  0  0  0  0  0  0  0  0
   57.5540   23.5840   44.3210 N   0  0  0  0  0  0  0  0  0  0  0  0
   56.4760   23.7380   43.3270 C   0  0  0  0  0  0  0  0  0  0  0  0
   56.1830   22.4250   42.6000 C   0  0  0  0  0  0  0  0  0  0  0  0
   56.3070   21.3450   43.5000 O   0  0  0  0  0  0  0  0  0  0  0  0
   57.6800   21.1260   43.7580 C   0  0  0  0  0  0  0  0  0  0  0  0
   58.3460   22.3450   44.4390 C   0  0  0  0  0  0  0  0  0  0  0  0
   57.0930   26.9710   45.8800 C   0  0  0  0  0  0  0  0  0  0  0  0
   56.9900   28.3250   45.5330 C   0  0  0  0  0  0  0  0  0  0  0  0
   56.6810   32.4240   44.9040 C   0  0  0  0  0  0  0  0  0  0  0  0
   57.2470   33.5130   45.8120 C   0  0  0  0  0  0  0  0  0  0  0  0
   61.4620   34.1550   47.1670 C   0  0  0  0  0  0  0  0  0  0  0  0
   65.1680   32.7540   46.6540 H   0  0  0  0  0  0  0  0  0  0  0  0
   63.5020   32.7350   46.0000 H   0  0  0  0  0  0  0  0  0  0  0  0
   62.2634   33.4631   50.4215 H   0  0  0  0  0  0  0  0  0  0  0  0
   59.8810   34.1269   50.7260 H   0  0  0  0  0  0  0  0  0  0  0  0
   58.5096   34.8207   48.7664 H   0  0  0  0  0  0  0  0  0  0  0  0
   58.4321   35.5178   46.4705 H   0  0  0  0  0  0  0  0  0  0  0  0
   59.8691   35.3775   45.3943 H   0  0  0  0  0  0  0  0  0  0  0  0
   60.3586   32.3429   45.4518 H   0  0  0  0  0  0  0  0  0  0  0  0
   59.6229   32.5835   47.1069 H   0  0  0  0  0  0  0  0  0  0  0  0
   59.3160   30.3189   45.5834 H   0  0  0  0  0  0  0  0  0  0  0  0
   58.1713   30.8924   46.8656 H   0  0  0  0  0  0  0  0  0  0  0  0
   58.3490   28.1895   42.3971 H   0  0  0  0  0  0  0  0  0  0  0  0
   58.4990   25.7799   42.9993 H   0  0  0  0  0  0  0  0  0  0  0  0
   55.5626   24.0721   43.8410 H   0  0  0  0  0  0  0  0  0  0  0  0
   56.8020   24.4772   42.5804 H   0  0  0  0  0  0  0  0  0  0  0  0
   55.1594   22.4502   42.1979 H   0  0  0  0  0  0  0  0  0  0  0  0
   56.9005   22.2968   41.7761 H   0  0  0  0  0  0  0  0  0  0  0  0
   57.7819   20.2517   44.4177 H   0  0  0  0  0  0  0  0  0  0  0  0
   58.1834   20.9596   42.7942 H   0  0  0  0  0  0  0  0  0  0  0  0
   58.4816   22.1176   45.5067 H   0  0  0  0  0  0  0  0  0  0  0  0
   59.3040   22.5207   43.9278 H   0  0  0  0  0  0  0  0  0  0  0  0
   56.7412   26.6306   46.8651 H   0  0  0  0  0  0  0  0  0  0  0  0
   56.5651   29.0420   46.2508 H   0  0  0  0  0  0  0  0  0  0  0  0
   56.5937   32.8169   43.8803 H   0  0  0  0  0  0  0  0  0  0  0  0
   55.6929   32.1253   45.2841 H   0  0  0  0  0  0  0  0  0  0  0  0
   56.7535   34.4716   45.5940 H   0  0  0  0  0  0  0  0  0  0  0  0
   57.0699   33.2546   46.8665 H   0  0  0  0  0  0  0  0  0  0  0  0
   61.9016   34.1561   46.1587 H   0  0  0  0  0  0  0  0  0  0  0  0
  1  2  1  0
  2  3  2  0
  2  4  1  0
  4  5  2  0
  5  6  1  0
  6  7  2  0
  7  8  1  0
  8  9  1  0
  9 10  1  0
 10 11  1  0
 11 12  1  0
 12 13  1  0
 13 14  1  0
 14 15  2  0
 14 16  1  0
 16 17  2  0
 17 18  1  0
 18 19  2  0
 19 20  1  0
 20 21  2  0
 20 22  1  0
 22 23  1  0
 23 24  1  0
 24 25  1  0
 25 26  1  0
 26 27  1  0
 19 28  1  0
 28 29  2  0
 13 30  1  0
 30 31  1  0
  8 32  2  0
 32  4  1  0
 31 10  1  0
 29 16  1  0
 27 22  1  0
  1 33  1  0
  1 34  1  0
  5 35  1  0
  6 36  1  0
  7 37  1  0
  9 38  1  0
  9 39  1  0
 11 40  1  0
 11 41  1  0
 12 42  1  0
 12 43  1  0
 17 44  1  0
 18 45  1  0
 23 46  1  0
 23 47  1  0
 24 48  1  0
 24 49  1  0
 26 50  1  0
 26 51  1  0
 27 52  1  0
 27 53  1  0
 28 54  1  0
 29 55  1  0
 30 56  1  0
 30 57  1  0
 31 58  1  0
 31 59  1  0
 32 60  1  0
M  END
>  <UniqueID>  (16) 
16

>  <SMILES>  (16) 
NC(=O)c1cccc(CN2CCN(C(=O)c3ccc(C(=O)N4CCOCC4)cc3)CC2)c1

>  <Energy>  (16) 
85.695544418593

>  <Genealogy>  (16) 
NC(=O)c1cccc(CN2CCN(C(=O)c3ccc(C(=O)N4CCOCC4)cc3)CC2)c1 (3D coordinates assigned)
NC(=O)c1cccc(CN2CCN(C(=O)c3ccc(C(=O)N4CCOCC4)cc3)CC2)c1 (nonaromatic ring conformer: 85.695544418593 kcal/mol)

>  <smiles>  (16) 
NC(=O)c1cccc(CN2CCN(C(=O)c3ccc(C(=O)N4CCOCC4)cc3)CC2)c1

>  <score_type>  (16) 
oracle

>  <origin>  (16) 
adg

>  <m_score__min__energy>  (16) 
-10.300000000000001

>  <m_primary>  (16) 
energy

$$$$
16:0
     RDKit          3D

 59 62  0  0  0  0  0  0  0  0999 V2000
   60.8150   30.4590   46.2610 O   0  0  0  0  0  0  0  0  0  0  0  0
   59.7470   30.3170   46.9140 C   0  0  0  0  0  0  0  0  0  0  0  0
   59.0360   31.5280   47.4270 C   0  0  0  0  0  0  0  0  0  0  0  0
   59.6100   32.7400   46.8350 N   0  0  0  0  0  0  0  0  0  0  0  0
   60.8860   33.2290   47.2790 C   0  0  0  0  0  0  0  0  0  0  0  0
   61.9380   33.3920   46.3630 C   0  0  0  0  0  0  0  0  0  0  0  0
   63.1810   33.8670   46.7930 C   0  0  0  0  0  0  0  0  0  0  0  0
   63.3810   34.1840   48.1400 C   0  0  0  0  0  0  0  0  0  0  0  0
   62.3370   34.0310   49.0560 C   0  0  0  0  0  0  0  0  0  0  0  0
   62.5300   34.3420   50.3610 F   0  0  0  0  0  0  0  0  0  0  0  0
   61.0930   33.5550   48.6290 C   0  0  0  0  0  0  0  0  0  0  0  0
   58.7110   33.6150   45.6270 S   0  0  0  0  0  0  0  0  0  0  0  0
   59.6160   34.5570   44.8850 O   0  0  0  0  0  0  0  0  0  0  0  0
   57.6440   34.4290   46.3060 O   0  0  0  0  0  0  0  0  0  0  0  0
   57.9820   32.5040   44.4690 C   0  0  0  0  0  0  0  0  0  0  0  0
   57.2600   31.3840   44.9100 C   0  0  0  0  0  0  0  0  0  0  0  0
   56.7100   30.4940   43.9840 C   0  0  0  0  0  0  0  0  0  0  0  0
   56.8840   30.7090   42.6140 C   0  0  0  0  0  0  0  0  0  0  0  0
   57.5960   31.8250   42.1700 C   0  0  0  0  0  0  0  0  0  0  0  0
   58.1430   32.7210   43.0930 C   0  0  0  0  0  0  0  0  0  0  0  0
   59.1710   29.0210   47.1320 N   0  0  0  0  0  0  0  0  0  0  0  0
   58.6400   28.1060   46.1610 C   0  0  0  0  0  0  0  0  0  0  0  0
   59.2040   28.1070   44.8800 C   0  0  0  0  0  0  0  0  0  0  0  0
   58.7720   27.1950   43.9140 C   0  0  0  0  0  0  0  0  0  0  0  0
   57.7620   26.2800   44.2160 C   0  0  0  0  0  0  0  0  0  0  0  0
   57.1630   26.2890   45.4830 C   0  0  0  0  0  0  0  0  0  0  0  0
   55.8870   25.1340   45.8730 S   0  0  0  0  0  0  0  0  0  0  0  0
   55.9670   24.7890   47.3340 O   0  0  0  0  0  0  0  0  0  0  0  0
   54.5470   25.7660   45.6170 O   0  0  0  0  0  0  0  0  0  0  0  0
   56.0220   23.6760   44.9210 N   0  0  0  0  0  0  0  0  0  0  0  0
   55.8500   23.9740   43.4900 C   0  0  0  0  0  0  0  0  0  0  0  0
   56.2390   22.7560   42.6270 C   0  0  0  0  0  0  0  0  0  0  0  0
   56.3190   21.5830   43.4150 O   0  0  0  0  0  0  0  0  0  0  0  0
   57.3760   21.7000   44.3540 C   0  0  0  0  0  0  0  0  0  0  0  0
   57.3170   23.0200   45.1500 C   0  0  0  0  0  0  0  0  0  0  0  0
   57.5890   27.2140   46.4460 C   0  0  0  0  0  0  0  0  0  0  0  0
   57.9704   31.4635   47.1617 H   0  0  0  0  0  0  0  0  0  0  0  0
   59.1484   31.5743   48.5203 H   0  0  0  0  0  0  0  0  0  0  0  0
   61.7835   33.1449   45.3023 H   0  0  0  0  0  0  0  0  0  0  0  0
   64.0017   33.9913   46.0712 H   0  0  0  0  0  0  0  0  0  0  0  0
   64.3601   34.5538   48.4786 H   0  0  0  0  0  0  0  0  0  0  0  0
   60.2739   33.4356   49.3534 H   0  0  0  0  0  0  0  0  0  0  0  0
   57.1269   31.2065   45.9874 H   0  0  0  0  0  0  0  0  0  0  0  0
   56.1385   29.6218   44.3341 H   0  0  0  0  0  0  0  0  0  0  0  0
   56.4608   30.0003   41.8869 H   0  0  0  0  0  0  0  0  0  0  0  0
   57.7267   31.9995   41.0918 H   0  0  0  0  0  0  0  0  0  0  0  0
   58.7019   33.5997   42.7386 H   0  0  0  0  0  0  0  0  0  0  0  0
   59.9936   28.8316   44.6320 H   0  0  0  0  0  0  0  0  0  0  0  0
   59.2287   27.1979   42.9133 H   0  0  0  0  0  0  0  0  0  0  0  0
   57.4360   25.5514   43.4591 H   0  0  0  0  0  0  0  0  0  0  0  0
   54.7975   24.2302   43.2988 H   0  0  0  0  0  0  0  0  0  0  0  0
   56.5035   24.8180   43.2242 H   0  0  0  0  0  0  0  0  0  0  0  0
   55.4801   22.6125   41.8438 H   0  0  0  0  0  0  0  0  0  0  0  0
   57.2249   22.9448   42.1771 H   0  0  0  0  0  0  0  0  0  0  0  0
   57.3146   20.8592   45.0606 H   0  0  0  0  0  0  0  0  0  0  0  0
   58.3227   21.6900   43.7939 H   0  0  0  0  0  0  0  0  0  0  0  0
   57.4346   22.8063   46.2226 H   0  0  0  0  0  0  0  0  0  0  0  0
   58.1274   23.6846   44.8161 H   0  0  0  0  0  0  0  0  0  0  0  0
   57.0991   27.2431   47.4304 H   0  0  0  0  0  0  0  0  0  0  0  0
  1  2  2  0
  2  3  1  0
  3  4  1  0
  4  5  1  0
  5  6  2  0
  6  7  1  0
  7  8  2  0
  8  9  1  0
  9 10  1  0
  9 11  2  0
  4 12  1  0
 12 13  2  0
 12 14  2  0
 12 15  1  0
 15 16  2  0
 16 17  1  0
 17 18  2  0
 18 19  1  0
 19 20  2  0
  2 21  1  0
 21 22  1  0
 22 23  2  0
 23 24  1  0
 24 25  2  0
 25 26  1  0
 26 27  1  0
 27 28  2  0
 27 29  2  0
 27 30  1  0
 30 31  1  0
 31 32  1  0
 32 33  1  0
 33 34  1  0
 34 35  1  0
 26 36  2  0
 11  5  1  0
 20 15  1  0
 36 22  1  0
 35 30  1  0
  3 37  1  0
  3 38  1  0
  6 39  1  0
  7 40  1  0
  8 41  1  0
 11 42  1  0
 16 43  1  0
 17 44  1  0
 18 45  1  0
 19 46  1  0
 20 47  1  0
 23 48  1  0
 24 49  1  0
 25 50  1  0
 31 51  1  0
 31 52  1  0
 32 53  1  0
 32 54  1  0
 34 55  1  0
 34 56  1  0
 35 57  1  0
 35 58  1  0
 36 59  1  0
M  CHG  1  21  -1
M  END
>  <UniqueID>  (17) 
17

>  <SMILES>  (17) 
O=C(CN(c1cccc(F)c1)S(=O)(=O)c1ccccc1)[N-]c1cccc(S(=O)(=O)N2CCOCC2)c1

>  <Energy>  (17) 
72.55871764128081

>  <Genealogy>  (17) 
O=C(CN(c1cccc(F)c1)S(=O)(=O)c1ccccc1)[N-]c1cccc(S(=O)(=O)N2CCOCC2)c1 (protonated)
O=C(CN(c1cccc(F)c1)S(=O)(=O)c1ccccc1)[N-]c1cccc(S(=O)(=O)N2CCOCC2)c1 (3D coordinates assigned)
O=C(CN(c1cccc(F)c1)S(=O)(=O)c1ccccc1)[N-]c1cccc(S(=O)(=O)N2CCOCC2)c1 (nonaromatic ring conformer: 72.55871764128081 kcal/mol)

>  <smiles>  (17) 
O=C(CN(c1cccc(F)c1)S(=O)(=O)c1ccccc1)Nc1cccc(S(=O)(=O)N2CCOCC2)c1

>  <score_type>  (17) 
oracle

>  <origin>  (17) 
adg

>  <m_score__min__energy>  (17) 
-12.970000000000001

>  <m_primary>  (17) 
energy

$$$$
17:0
     RDKit          3D

 35 37  0  0  0  0  0  0  0  0999 V2000
   61.5254   30.4401   47.8337 H   0  0  0  0  0  0  0  0  0  0  0  0
   60.6670   29.9750   47.3270 C   0  0  0  0  0  0  0  0  0  0  0  0
   60.7340   29.6870   45.9600 C   0  0  0  0  0  0  0  0  0  0  0  0
   61.6464   29.9222   45.3924 H   0  0  0  0  0  0  0  0  0  0  0  0
   59.6410   29.1000   45.3150 C   0  0  0  0  0  0  0  0  0  0  0  0
   59.7013   28.8594   44.2433 H   0  0  0  0  0  0  0  0  0  0  0  0
   58.4680   28.8170   46.0300 C   0  0  0  0  0  0  0  0  0  0  0  0
   57.0790   28.0890   45.2250 S   0  0  0  0  0  0  0  0  0  0  0  0
   56.5400   26.9980   46.1050 O   0  0  0  0  0  0  0  0  0  0  0  0
   57.4940   27.4860   43.9120 O   0  0  0  0  0  0  0  0  0  0  0  0
   55.8240   29.2700   44.9640 N   0  0  0  0  0  0  0  0  0  0  0  0
   56.0350   30.0410   43.7360 C   0  0  0  0  0  0  0  0  0  0  0  0
   55.0653   30.4172   43.3779 H   0  0  0  0  0  0  0  0  0  0  0  0
   56.4969   29.3814   42.9867 H   0  0  0  0  0  0  0  0  0  0  0  0
   56.9570   31.2090   43.9750 C   0  0  0  0  0  0  0  0  0  0  0  0
   58.0060   31.3140   43.2850 O   0  0  0  0  0  0  0  0  0  0  0  0
   56.8030   32.0550   45.1210 N   0  0  0  0  0  0  0  0  0  0  0  0
   57.7560   32.5590   45.8500 C   0  0  0  0  0  0  0  0  0  0  0  0
   57.4980   33.1640   47.4080 S   0  0  0  0  0  0  0  0  0  0  0  0
   59.1320   33.5030   47.6220 C   0  0  0  0  0  0  0  0  0  0  0  0
   59.7690   34.0520   48.7310 C   0  0  0  0  0  0  0  0  0  0  0  0
   59.1976   34.3436   49.6246 H   0  0  0  0  0  0  0  0  0  0  0  0
   61.1610   34.2230   48.6770 C   0  0  0  0  0  0  0  0  0  0  0  0
   61.6925   34.6574   49.5365 H   0  0  0  0  0  0  0  0  0  0  0  0
   61.8820   33.8410   47.5270 C   0  0  0  0  0  0  0  0  0  0  0  0
   62.9730   33.9779   47.4959 H   0  0  0  0  0  0  0  0  0  0  0  0
   61.2170   33.2870   46.4210 C   0  0  0  0  0  0  0  0  0  0  0  0
   61.7765   32.9851   45.5233 H   0  0  0  0  0  0  0  0  0  0  0  0
   59.8300   33.1270   46.4840 C   0  0  0  0  0  0  0  0  0  0  0  0
   59.0660   32.5980   45.4950 N   0  0  0  0  0  0  0  0  0  0  0  0
   59.4580   32.2360   44.6030 H   0  0  0  0  0  0  0  0  0  0  0  0
   58.4150   29.0870   47.4040 C   0  0  0  0  0  0  0  0  0  0  0  0
   57.5097   28.8382   47.9772 H   0  0  0  0  0  0  0  0  0  0  0  0
   59.5100   29.6720   48.0490 C   0  0  0  0  0  0  0  0  0  0  0  0
   59.4599   29.8935   49.1253 H   0  0  0  0  0  0  0  0  0  0  0  0
  1  2  1  0
  2  3  2  0
  3  4  1  0
  3  5  1  0
  5  6  1  0
  5  7  2  0
  7  8  1  0
  8  9  2  0
  8 10  2  0
  8 11  1  0
 11 12  1  0
 12 13  1  0
 12 14  1  0
 12 15  1  0
 15 16  2  0
 15 17  1  0
 17 18  2  0
 18 19  1  0
 19 20  1  0
 20 21  2  0
 21 22  1  0
 21 23  1  0
 23 24  1  0
 23 25  2  0
 25 26  1  0
 25 27  1  0
 27 28  1  0
 27 29  2  0
 29 30  1  0
 30 31  1  0
  7 32  1  0
 32 33  1  0
 32 34  2  0
 34 35  1  0
 34  2  1  0
 30 18  1  0
 29 20  1  0
M  CHG  1  11  -1
M  END
>  <UniqueID>  (18) 
18

>  <SMILES>  (18) 
O=C(C[N-]S(=O)(=O)c1ccccc1)/N=c1\[nH]c2ccccc2s1

>  <Energy>  (18) 
78.02556903037792

>  <Genealogy>  (18) 
O=C(C[N-]S(=O)(=O)c1ccccc1)N=c1[nH]c2ccccc2s1 (protonated)
O=C(C[N-]S(=O)(=O)c1ccccc1)/N=c1\[nH]c2ccccc2s1 (cis-trans isomerization)
O=C(C[N-]S(=O)(=O)c1ccccc1)/N=c1\[nH]c2ccccc2s1 (3D coordinates assigned)
O=C(C[N-]S(=O)(=O)c1ccccc1)/N=c1\[nH]c2ccccc2s1 (optimized conformer: 78.02556903037792 kcal/mol)

>  <smiles>  (18) 
O=C(CNS(=O)(=O)c1ccccc1)N=c1[nH]c2ccccc2s1

>  <score_type>  (18) 
oracle

>  <origin>  (18) 
adg

>  <m_score__min__energy>  (18) 
-9.0199999999999996

>  <m_primary>  (18) 
energy

$$$$
18:0
     RDKit          3D

 59 62  0  0  0  0  0  0  0  0999 V2000
   58.4805   27.4869   42.3450 H   0  0  0  0  0  0  0  0  0  0  0  0
   57.9480   26.6620   42.8410 C   0  0  0  0  0  0  0  0  0  0  0  0
   57.3149   25.9827   42.2513 H   0  0  0  0  0  0  0  0  0  0  0  0
   58.0710   26.4840   44.1680 C   0  0  0  0  0  0  0  0  0  0  0  0
   57.4500   25.4770   44.9220 C   0  0  0  0  0  0  0  0  0  0  0  0
   56.6370   24.5010   44.4620 C   0  0  0  0  0  0  0  0  0  0  0  0
   57.0216   23.8657   43.6505 H   0  0  0  0  0  0  0  0  0  0  0  0
   55.2730   24.2150   44.9580 C   0  0  0  0  0  0  0  0  0  0  0  0
   54.5920   23.0670   44.7820 N   0  0  0  0  0  0  0  0  0  0  0  0
   53.4000   23.3130   45.3650 C   0  0  0  0  0  0  0  0  0  0  0  0
   52.4760   22.4600   45.4030 O   0  0  0  0  0  0  0  0  0  0  0  0
   53.2720   24.5500   45.8910 N   0  0  0  0  0  0  0  0  0  0  0  0
   54.4630   25.1070   45.6220 C   0  0  0  0  0  0  0  0  0  0  0  0
   54.8030   26.4090   45.9760 O   0  0  0  0  0  0  0  0  0  0  0  0
   57.8040   25.7150   46.2420 C   0  0  0  0  0  0  0  0  0  0  0  0
   57.4860   25.1341   47.1203 H   0  0  0  0  0  0  0  0  0  0  0  0
   58.6300   26.8180   46.2430 C   0  0  0  0  0  0  0  0  0  0  0  0
   59.1460   27.4370   47.4790 C   0  0  0  0  0  0  0  0  0  0  0  0
   59.7200   26.6940   48.3250 O   0  0  0  0  0  0  0  0  0  0  0  0
   59.1510   28.8740   47.6500 N   0  0  0  0  0  0  0  0  0  0  0  0
   58.5840   29.3050   46.8810 H   0  0  0  0  0  0  0  0  0  0  0  0
   60.5310   29.3760   47.5230 C   0  0  0  0  0  0  0  0  0  0  0  0
   61.1162   29.0608   48.3995 H   0  0  0  0  0  0  0  0  0  0  0  0
   60.9835   28.9662   46.6079 H   0  0  0  0  0  0  0  0  0  0  0  0
   60.5220   30.9060   47.4410 C   0  0  0  0  0  0  0  0  0  0  0  0
   61.5249   31.2849   47.6871 H   0  0  0  0  0  0  0  0  0  0  0  0
   60.2378   31.1995   46.4197 H   0  0  0  0  0  0  0  0  0  0  0  0
   59.5470   31.4810   48.3810 N   0  0  0  0  0  0  0  0  0  0  0  0
   59.4350   32.9140   48.4780 C   0  0  0  0  0  0  0  0  0  0  0  0
   59.4470   33.4600   49.6150 O   0  0  0  0  0  0  0  0  0  0  0  0
   59.2890   33.7550   47.2680 C   0  0  0  0  0  0  0  0  0  0  0  0
   60.0270   34.9470   47.1440 C   0  0  0  0  0  0  0  0  0  0  0  0
   60.7017   35.2589   47.9548 H   0  0  0  0  0  0  0  0  0  0  0  0
   59.9080   35.7370   45.9970 C   0  0  0  0  0  0  0  0  0  0  0  0
   60.4843   36.6699   45.9106 H   0  0  0  0  0  0  0  0  0  0  0  0
   59.0590   35.3440   44.9610 C   0  0  0  0  0  0  0  0  0  0  0  0
   58.9622   35.9698   44.0616 H   0  0  0  0  0  0  0  0  0  0  0  0
   58.3320   34.1550   45.0670 C   0  0  0  0  0  0  0  0  0  0  0  0
   57.6676   33.8442   44.2473 H   0  0  0  0  0  0  0  0  0  0  0  0
   58.4460   33.3590   46.2110 C   0  0  0  0  0  0  0  0  0  0  0  0
   57.7180   32.2160   46.2940 F   0  0  0  0  0  0  0  0  0  0  0  0
   59.0050   30.6470   49.4620 C   0  0  0  0  0  0  0  0  0  0  0  0
   59.7850   30.5028   50.2241 H   0  0  0  0  0  0  0  0  0  0  0  0
   58.1285   31.1627   49.8814 H   0  0  0  0  0  0  0  0  0  0  0  0
   58.5440   29.2610   48.9510 C   0  0  0  0  0  0  0  0  0  0  0  0
   58.8184   28.5049   49.7013 H   0  0  0  0  0  0  0  0  0  0  0  0
   57.4568   29.3202   48.7947 H   0  0  0  0  0  0  0  0  0  0  0  0
   58.8050   27.2890   44.9850 N   0  0  0  0  0  0  0  0  0  0  0  0
   59.5040   28.5340   44.6240 C   0  0  0  0  0  0  0  0  0  0  0  0
   60.2470   28.7680   45.4006 H   0  0  0  0  0  0  0  0  0  0  0  0
   59.9969   28.3907   43.6511 H   0  0  0  0  0  0  0  0  0  0  0  0
   58.5200   29.6980   44.5060 C   0  0  0  0  0  0  0  0  0  0  0  0
   59.0527   30.6460   44.6718 H   0  0  0  0  0  0  0  0  0  0  0  0
   58.0728   29.6981   43.5010 H   0  0  0  0  0  0  0  0  0  0  0  0
   57.5010   29.5560   45.4730 O   0  0  0  0  0  0  0  0  0  0  0  0
   56.2630   29.3790   44.8230 C   0  0  0  0  0  0  0  0  0  0  0  0
   55.4675   29.2653   45.5741 H   0  0  0  0  0  0  0  0  0  0  0  0
   56.0505   30.2559   44.1938 H   0  0  0  0  0  0  0  0  0  0  0  0
   56.3048   28.4777   44.1938 H   0  0  0  0  0  0  0  0  0  0  0  0
  1  2  1  0
  2  3  1  0
  2  4  2  0
  4  5  1  0
  5  6  2  0
  6  7  1  0
  6  8  1  0
  8  9  1  0
  9 10  1  0
 10 11  2  0
 10 12  1  0
 12 13  1  0
 13 14  1  0
  5 15  1  0
 15 16  1  0
 15 17  2  0
 17 18  1  0
 18 19  2  0
 18 20  1  0
 20 21  1  0
 20 22  1  0
 22 23  1  0
 22 24  1  0
 22 25  1  0
 25 26  1  0
 25 27  1  0
 25 28  1  0
 28 29  1  0
 29 30  2  0
 29 31  1  0
 31 32  2  0
 32 33  1  0
 32 34  1  0
 34 35  1  0
 34 36  2  0
 36 37  1  0
 36 38  1  0
 38 39  1  0
 38 40  2  0
 40 41  1  0
 28 42  1  0
 42 43  1  0
 42 44  1  0
 42 45  1  0
 45 46  1  0
 45 47  1  0
 17 48  1  0
 48 49  1  0
 49 50  1  0
 49 51  1  0
 49 52  1  0
 52 53  1  0
 52 54  1  0
 52 55  1  0
 55 56  1  0
 56 57  1  0
 56 58  1  0
 56 59  1  0
 48  4  1  0
 13  8  2  0
 45 20  1  0
 40 31  1  0
M  CHG  4   9  -1  12  -1  14  -1  20   1
M  END
>  <UniqueID>  (19) 
19

>  <SMILES>  (19) 
C=c1/c(=C/c2[n-]c(=O)[n-]c2[O-])cc(C(=O)[NH+]2CCN(C(=O)c3ccccc3F)CC2)n1CCOC

>  <Energy>  (19) 
142.82718826451918

>  <Genealogy>  (19) 
C=c1c(=Cc2[n-]c(=O)[n-]c2[O-])cc(C(=O)[NH+]2CCN(C(=O)c3ccccc3F)CC2)n1CCOC (protonated)
C=c1/c(=C/c2[n-]c(=O)[n-]c2[O-])cc(C(=O)[NH+]2CCN(C(=O)c3ccccc3F)CC2)n1CCOC (cis-trans isomerization)
C=c1/c(=C/c2[n-]c(=O)[n-]c2[O-])cc(C(=O)[NH+]2CCN(C(=O)c3ccccc3F)CC2)n1CCOC (3D coordinates assigned)
C=c1/c(=C/c2[n-]c(=O)[n-]c2[O-])cc(C(=O)[NH+]2CCN(C(=O)c3ccccc3F)CC2)n1CCOC (nonaromatic ring conformer: 142.82718826451918 kcal/mol)

>  <smiles>  (19) 
C=c1c(=Cc2[nH]c(=O)[nH]c2O)cc(C(=O)N2CCN(C(=O)c3ccccc3F)CC2)n1CCOC

>  <score_type>  (19) 
oracle

>  <origin>  (19) 
adg

>  <m_score__min__energy>  (19) 
-16.98

>  <m_primary>  (19) 
energy

$$$$
19:0
     RDKit          3D

 53 56  0  0  0  0  0  0  0  0999 V2000
   65.5040   34.5860   51.7130 H   0  0  0  0  0  0  0  0  0  0  0  0
   65.6190   34.1500   50.8290 O   0  0  0  0  0  0  0  0  0  0  0  0
   64.7250   33.0670   50.7700 C   0  0  0  0  0  0  0  0  0  0  0  0
   65.1566   32.2059   51.3012 H   0  0  0  0  0  0  0  0  0  0  0  0
   63.4050   33.4010   51.5080 C   0  0  0  0  0  0  0  0  0  0  0  0
   63.6063   34.1828   52.2551 H   0  0  0  0  0  0  0  0  0  0  0  0
   63.0417   32.4760   51.9795 H   0  0  0  0  0  0  0  0  0  0  0  0
   62.3120   33.9000   50.5560 C   0  0  0  0  0  0  0  0  0  0  0  0
   62.6206   34.8657   50.1292 H   0  0  0  0  0  0  0  0  0  0  0  0
   61.3767   34.0101   51.1244 H   0  0  0  0  0  0  0  0  0  0  0  0
   62.0850   32.9420   49.4630 N   0  0  0  0  0  0  0  0  0  0  0  0
   60.8880   33.0610   48.6670 C   0  0  0  0  0  0  0  0  0  0  0  0
   60.3410   34.1910   48.5380 O   0  0  0  0  0  0  0  0  0  0  0  0
   60.2800   31.8910   47.9940 C   0  0  0  0  0  0  0  0  0  0  0  0
   59.2130   31.1950   48.5870 C   0  0  0  0  0  0  0  0  0  0  0  0
   58.8244   31.5184   49.5639 H   0  0  0  0  0  0  0  0  0  0  0  0
   58.6430   30.0940   47.9420 C   0  0  0  0  0  0  0  0  0  0  0  0
   57.8117   29.5519   48.4164 H   0  0  0  0  0  0  0  0  0  0  0  0
   59.1250   29.6770   46.6940 C   0  0  0  0  0  0  0  0  0  0  0  0
   58.5340   28.5460   46.0300 N   0  0  0  0  0  0  0  0  0  0  0  0
   57.9230   28.5690   44.8250 C   0  0  0  0  0  0  0  0  0  0  0  0
   57.7680   29.7860   43.9650 C   0  0  0  0  0  0  0  0  0  0  0  0
   57.6549   30.6744   44.6038 H   0  0  0  0  0  0  0  0  0  0  0  0
   58.6586   29.9020   43.3299 H   0  0  0  0  0  0  0  0  0  0  0  0
   56.8767   29.6751   43.3299 H   0  0  0  0  0  0  0  0  0  0  0  0
   57.4560   27.3110   44.4970 C   0  0  0  0  0  0  0  0  0  0  0  0
   56.9235   27.0267   43.5774 H   0  0  0  0  0  0  0  0  0  0  0  0
   57.7900   26.4750   45.5550 C   0  0  0  0  0  0  0  0  0  0  0  0
   57.4900   25.1650   45.6580 C   0  0  0  0  0  0  0  0  0  0  0  0
   58.2915   24.4679   45.9437 H   0  0  0  0  0  0  0  0  0  0  0  0
   56.1390   24.6150   45.4070 C   0  0  0  0  0  0  0  0  0  0  0  0
   55.0040   25.4070   45.6380 C   0  0  0  0  0  0  0  0  0  0  0  0
   55.1350   26.7220   46.0680 O   0  0  0  0  0  0  0  0  0  0  0  0
   53.7640   24.8940   45.4310 N   0  0  0  0  0  0  0  0  0  0  0  0
   53.5960   23.6130   45.0140 C   0  0  0  0  0  0  0  0  0  0  0  0
   52.4380   23.1600   44.8230 O   0  0  0  0  0  0  0  0  0  0  0  0
   54.6770   22.8170   44.8090 N   0  0  0  0  0  0  0  0  0  0  0  0
   55.9380   23.2820   45.0040 C   0  0  0  0  0  0  0  0  0  0  0  0
   56.9140   22.5030   44.8370 O   0  0  0  0  0  0  0  0  0  0  0  0
   58.4560   27.2710   46.4910 C   0  0  0  0  0  0  0  0  0  0  0  0
   58.9840   26.8580   47.6540 C   0  0  0  0  0  0  0  0  0  0  0  0
   59.4883   27.5778   48.3155 H   0  0  0  0  0  0  0  0  0  0  0  0
   58.9124   25.7998   47.9455 H   0  0  0  0  0  0  0  0  0  0  0  0
   60.1730   30.3830   46.0890 C   0  0  0  0  0  0  0  0  0  0  0  0
   60.5489   30.0683   45.1043 H   0  0  0  0  0  0  0  0  0  0  0  0
   60.7430   31.4860   46.7320 C   0  0  0  0  0  0  0  0  0  0  0  0
   61.5595   32.0401   46.2459 H   0  0  0  0  0  0  0  0  0  0  0  0
   63.1420   31.9870   49.0900 C   0  0  0  0  0  0  0  0  0  0  0  0
   63.0277   31.7131   48.0308 H   0  0  0  0  0  0  0  0  0  0  0  0
   63.0551   31.0895   49.7200 H   0  0  0  0  0  0  0  0  0  0  0  0
   64.5200   32.6180   49.3040 C   0  0  0  0  0  0  0  0  0  0  0  0
   64.6162   33.4945   48.6464 H   0  0  0  0  0  0  0  0  0  0  0  0
   65.2828   31.8613   49.0684 H   0  0  0  0  0  0  0  0  0  0  0  0
  1  2  1  0
  2  3  1  0
  3  4  1  0
  3  5  1  0
  5  6  1  0
  5  7  1  0
  5  8  1  0
  8  9  1  0
  8 10  1  0
  8 11  1  0
 11 12  1  0
 12 13  2  0
 12 14  1  0
 14 15  2  0
 15 16  1  0
 15 17  1  0
 17 18  1  0
 17 19  2  0
 19 20  1  0
 20 21  1  0
 21 22  1  0
 22 23  1  0
 22 24  1  0
 22 25  1  0
 21 26  2  0
 26 27  1  0
 26 28  1  0
 28 29  2  0
 29 30  1  0
 29 31  1  0
 31 32  2  0
 32 33  1  0
 32 34  1  0
 34 35  1  0
 35 36  2  0
 35 37  1  0
 37 38  1  0
 38 39  2  0
 28 40  1  0
 40 41  2  0
 41 42  1  0
 41 43  1  0
 19 44  1  0
 44 45  1  0
 44 46  2  0
 46 47  1  0
 11 48  1  0
 48 49  1  0
 48 50  1  0
 48 51  1  0
 51 52  1  0
 51 53  1  0
 51  3  1  0
 46 14  1  0
 40 20  1  0
 38 31  1  0
M  CHG  3  33  -1  34  -1  37  -1
M  END
>  <UniqueID>  (20) 
20

>  <SMILES>  (20) 
C=c1/c(=C/c2c([O-])[n-]c(=O)[n-]c2=O)cc(C)n1-c1ccc(C(=O)N2CCC(O)CC2)cc1

>  <Energy>  (20) 
108.29257159403278

>  <Genealogy>  (20) 
C=c1c(=Cc2c([O-])[n-]c(=O)[n-]c2=O)cc(C)n1-c1ccc(C(=O)N2CCC(O)CC2)cc1 (protonated)
C=c1/c(=C/c2c([O-])[n-]c(=O)[n-]c2=O)cc(C)n1-c1ccc(C(=O)N2CCC(O)CC2)cc1 (cis-trans isomerization)
C=c1/c(=C/c2c([O-])[n-]c(=O)[n-]c2=O)cc(C)n1-c1ccc(C(=O)N2CCC(O)CC2)cc1 (3D coordinates assigned)
C=c1/c(=C/c2c([O-])[n-]c(=O)[n-]c2=O)cc(C)n1-c1ccc(C(=O)N2CCC(O)CC2)cc1 (nonaromatic ring conformer: 108.29257159403278 kcal/mol)

>  <smiles>  (20) 
C=c1c(=Cc2c(O)[nH]c(=O)[nH]c2=O)cc(C)n1-c1ccc(C(=O)N2CCC(O)CC2)cc1

>  <score_type>  (20) 
oracle

>  <origin>  (20) 
adg

>  <m_score__min__energy>  (20) 
-15.880000000000001

>  <m_primary>  (20) 
energy

$$$$
20:0
     RDKit          3D

 41 43  0  0  0  0  0  0  0  0999 V2000
   60.4230   28.3090   44.8530 C   0  0  0  0  0  0  0  0  0  0  0  0
   59.1620   27.7720   44.1560 C   0  0  0  0  0  0  0  0  0  0  0  0
   57.8830   28.3220   44.6610 N   0  0  0  0  0  0  0  0  0  0  0  0
   57.0160   28.9060   43.6220 C   0  0  0  0  0  0  0  0  0  0  0  0
   57.0380   30.4090   43.7050 C   0  0  0  0  0  0  0  0  0  0  0  0
   57.1820   31.0730   42.6450 O   0  0  0  0  0  0  0  0  0  0  0  0
   56.9370   31.1150   44.9510 N   0  0  0  0  0  0  0  0  0  0  0  0
   57.7520   32.2180   45.3630 C   0  0  0  0  0  0  0  0  0  0  0  0
   57.5280   33.4730   44.7800 C   0  0  0  0  0  0  0  0  0  0  0  0
   58.3130   34.5710   45.1400 C   0  0  0  0  0  0  0  0  0  0  0  0
   59.3120   34.4280   46.1050 C   0  0  0  0  0  0  0  0  0  0  0  0
   59.5130   33.1930   46.7280 C   0  0  0  0  0  0  0  0  0  0  0  0
   58.7290   32.0880   46.3740 C   0  0  0  0  0  0  0  0  0  0  0  0
   58.9420   30.5880   47.2670 Cl  0  0  0  0  0  0  0  0  0  0  0  0
   57.0310   27.1880   45.6920 S   0  0  0  0  0  0  0  0  0  0  0  0
   57.4650   27.4040   47.1150 O   0  0  0  0  0  0  0  0  0  0  0  0
   55.5510   27.4440   45.6230 O   0  0  0  0  0  0  0  0  0  0  0  0
   57.3340   25.5090   45.2510 C   0  0  0  0  0  0  0  0  0  0  0  0
   58.5580   24.8850   45.6100 C   0  0  0  0  0  0  0  0  0  0  0  0
   58.8170   23.5510   45.2430 C   0  0  0  0  0  0  0  0  0  0  0  0
   57.8360   22.8760   44.5250 C   0  0  0  0  0  0  0  0  0  0  0  0
   57.8680   21.6100   44.0710 N   0  0  0  0  0  0  0  0  0  0  0  0
   56.6600   21.5140   43.4570 C   0  0  0  0  0  0  0  0  0  0  0  0
   56.2700   20.4660   42.8810 O   0  0  0  0  0  0  0  0  0  0  0  0
   55.9320   22.6150   43.5160 O   0  0  0  0  0  0  0  0  0  0  0  0
   56.6600   23.4710   44.1820 C   0  0  0  0  0  0  0  0  0  0  0  0
   56.3640   24.7850   44.5260 C   0  0  0  0  0  0  0  0  0  0  0  0
   60.2912   28.2529   45.9436 H   0  0  0  0  0  0  0  0  0  0  0  0
   61.2919   27.7028   44.5570 H   0  0  0  0  0  0  0  0  0  0  0  0
   60.5881   29.3555   44.5570 H   0  0  0  0  0  0  0  0  0  0  0  0
   59.2366   28.0111   43.0849 H   0  0  0  0  0  0  0  0  0  0  0  0
   59.1340   26.6919   44.3626 H   0  0  0  0  0  0  0  0  0  0  0  0
   57.3759   28.5923   42.6310 H   0  0  0  0  0  0  0  0  0  0  0  0
   55.9853   28.5548   43.7780 H   0  0  0  0  0  0  0  0  0  0  0  0
   56.7287   33.5940   44.0340 H   0  0  0  0  0  0  0  0  0  0  0  0
   58.1442   35.5479   44.6634 H   0  0  0  0  0  0  0  0  0  0  0  0
   59.9417   35.2885   46.3753 H   0  0  0  0  0  0  0  0  0  0  0  0
   60.2902   33.0887   47.4995 H   0  0  0  0  0  0  0  0  0  0  0  0
   59.3107   25.4493   46.1801 H   0  0  0  0  0  0  0  0  0  0  0  0
   59.7628   23.0595   45.5148 H   0  0  0  0  0  0  0  0  0  0  0  0
   55.4058   25.2448   44.2425 H   0  0  0  0  0  0  0  0  0  0  0  0
  1  2  1  0
  2  3  1  0
  3  4  1  0
  4  5  1  0
  5  6  2  0
  5  7  1  0
  7  8  1  0
  8  9  2  0
  9 10  1  0
 10 11  2  0
 11 12  1  0
 12 13  2  0
 13 14  1  0
  3 15  1  0
 15 16  2  0
 15 17  2  0
 15 18  1  0
 18 19  2  0
 19 20  1  0
 20 21  2  0
 21 22  1  0
 22 23  1  0
 23 24  2  0
 23 25  1  0
 25 26  1  0
 26 27  2  0
 13  8  1  0
 27 18  1  0
 26 21  1  0
  1 28  1  0
  1 29  1  0
  1 30  1  0
  2 31  1  0
  2 32  1  0
  4 33  1  0
  4 34  1  0
  9 35  1  0
 10 36  1  0
 11 37  1  0
 12 38  1  0
 19 39  1  0
 20 40  1  0
 27 41  1  0
M  CHG  2   7  -1  22  -1
M  END
>  <UniqueID>  (21) 
21

>  <SMILES>  (21) 
CCN(CC(=O)[N-]c1ccccc1Cl)S(=O)(=O)c1ccc2[n-]c(=O)oc2c1

>  <Energy>  (21) 
89.02887229327456

>  <Genealogy>  (21) 
CCN(CC(=O)[N-]c1ccccc1Cl)S(=O)(=O)c1ccc2[n-]c(=O)oc2c1 (protonated)
CCN(CC(=O)[N-]c1ccccc1Cl)S(=O)(=O)c1ccc2[n-]c(=O)oc2c1 (3D coordinates assigned)
CCN(CC(=O)[N-]c1ccccc1Cl)S(=O)(=O)c1ccc2[n-]c(=O)oc2c1 (optimized conformer: 89.02887229327456 kcal/mol)

>  <smiles>  (21) 
CCN(CC(=O)Nc1ccccc1Cl)S(=O)(=O)c1ccc2[nH]c(=O)oc2c1

>  <score_type>  (21) 
oracle

>  <origin>  (21) 
adg

>  <m_score__min__energy>  (21) 
-12.06

>  <m_primary>  (21) 
energy

$$$$
21:0
     RDKit          3D

 47 50  0  0  0  0  0  0  0  0999 V2000
   57.7450   21.0900   43.0360 C   0  0  0  0  0  0  0  0  0  0  0  0
   56.8980   22.1160   43.7280 C   0  0  0  0  0  0  0  0  0  0  0  0
   56.0610   21.7400   44.7900 C   0  0  0  0  0  0  0  0  0  0  0  0
   55.2420   22.6850   45.4140 C   0  0  0  0  0  0  0  0  0  0  0  0
   55.2440   24.0200   44.9780 C   0  0  0  0  0  0  0  0  0  0  0  0
   54.2780   25.0060   45.5800 C   0  0  0  0  0  0  0  0  0  0  0  0
   55.0060   26.2060   45.9810 N   0  0  0  0  0  0  0  0  0  0  0  0
   56.2610   26.0940   46.6640 C   0  0  0  0  0  0  0  0  0  0  0  0
   56.3810   25.2630   47.6030 O   0  0  0  0  0  0  0  0  0  0  0  0
   57.4350   26.8910   46.2280 C   0  0  0  0  0  0  0  0  0  0  0  0
   58.7370   26.4510   46.5330 C   0  0  0  0  0  0  0  0  0  0  0  0
   59.8440   27.2280   46.1850 C   0  0  0  0  0  0  0  0  0  0  0  0
   59.6680   28.4500   45.5310 C   0  0  0  0  0  0  0  0  0  0  0  0
   58.3820   28.8940   45.2150 C   0  0  0  0  0  0  0  0  0  0  0  0
   57.2560   28.1300   45.5700 C   0  0  0  0  0  0  0  0  0  0  0  0
   55.9350   28.5890   45.2420 N   0  0  0  0  0  0  0  0  0  0  0  0
   55.6060   29.5440   44.2260 C   0  0  0  0  0  0  0  0  0  0  0  0
   54.5100   29.4350   43.6180 O   0  0  0  0  0  0  0  0  0  0  0  0
   56.4760   30.6960   43.9360 C   0  0  0  0  0  0  0  0  0  0  0  0
   56.9940   30.9650   42.7220 N   0  0  0  0  0  0  0  0  0  0  0  0
   57.7320   32.0180   42.9010 O   0  0  0  0  0  0  0  0  0  0  0  0
   57.6870   32.3800   44.1590 C   0  0  0  0  0  0  0  0  0  0  0  0
   58.4100   33.5600   44.7210 C   0  0  0  0  0  0  0  0  0  0  0  0
   59.0210   33.3030   46.0880 C   0  0  0  0  0  0  0  0  0  0  0  0
   57.7860   34.1780   45.9640 C   0  0  0  0  0  0  0  0  0  0  0  0
   56.8910   31.5670   44.8800 N   0  0  0  0  0  0  0  0  0  0  0  0
   56.0550   24.3900   43.8920 C   0  0  0  0  0  0  0  0  0  0  0  0
   56.8800   23.4430   43.2750 C   0  0  0  0  0  0  0  0  0  0  0  0
   58.2568   20.4701   43.7869 H   0  0  0  0  0  0  0  0  0  0  0  0
   57.1071   20.4519   42.4068 H   0  0  0  0  0  0  0  0  0  0  0  0
   58.4924   21.5955   42.4068 H   0  0  0  0  0  0  0  0  0  0  0  0
   56.0495   20.6950   45.1333 H   0  0  0  0  0  0  0  0  0  0  0  0
   54.5937   22.3821   46.2494 H   0  0  0  0  0  0  0  0  0  0  0  0
   53.5119   25.2714   44.8366 H   0  0  0  0  0  0  0  0  0  0  0  0
   53.7912   24.5577   46.4586 H   0  0  0  0  0  0  0  0  0  0  0  0
   54.7730   27.0900   45.4790 H   0  0  0  0  0  0  0  0  0  0  0  0
   58.8832   25.4901   47.0481 H   0  0  0  0  0  0  0  0  0  0  0  0
   60.8580   26.8767   46.4266 H   0  0  0  0  0  0  0  0  0  0  0  0
   60.5422   29.0624   45.2650 H   0  0  0  0  0  0  0  0  0  0  0  0
   58.2490   29.8484   44.6845 H   0  0  0  0  0  0  0  0  0  0  0  0
   58.7634   33.9574   43.7581 H   0  0  0  0  0  0  0  0  0  0  0  0
   58.9443   32.3057   46.5456 H   0  0  0  0  0  0  0  0  0  0  0  0
   60.0213   33.4286   46.5281 H   0  0  0  0  0  0  0  0  0  0  0  0
   56.8149   33.8142   46.3310 H   0  0  0  0  0  0  0  0  0  0  0  0
   57.5213   35.1990   46.2762 H   0  0  0  0  0  0  0  0  0  0  0  0
   56.0414   25.4271   43.5257 H   0  0  0  0  0  0  0  0  0  0  0  0
   57.5180   23.7412   42.4299 H   0  0  0  0  0  0  0  0  0  0  0  0
  1  2  1  0
  2  3  2  0
  3  4  1  0
  4  5  2  0
  5  6  1  0
  6  7  1  0
  7  8  1  0
  8  9  2  0
  8 10  1  0
 10 11  2  0
 11 12  1  0
 12 13  2  0
 13 14  1  0
 14 15  2  0
 15 16  1  0
 16 17  1  0
 17 18  2  0
 17 19  1  0
 19 20  2  0
 20 21  1  0
 21 22  1  0
 22 23  1  0
 23 24  1  0
 24 25  1  0
 22 26  2  0
  5 27  1  0
 27 28  2  0
 28  2  1  0
 15 10  1  0
 26 19  1  0
 25 23  1  0
  1 29  1  0
  1 30  1  0
  1 31  1  0
  3 32  1  0
  4 33  1  0
  6 34  1  0
  6 35  1  0
  7 36  1  0
 11 37  1  0
 12 38  1  0
 13 39  1  0
 14 40  1  0
 23 41  1  0
 24 42  1  0
 24 43  1  0
 25 44  1  0
 25 45  1  0
 27 46  1  0
 28 47  1  0
M  CHG  1  16  -1
M  END
>  <UniqueID>  (22) 
22

>  <SMILES>  (22) 
Cc1ccc(CNC(=O)c2ccccc2[N-]C(=O)c2noc(C3CC3)n2)cc1

>  <Energy>  (22) 
351.90802151888477

>  <Genealogy>  (22) 
Cc1ccc(CNC(=O)c2ccccc2[N-]C(=O)c2noc(C3CC3)n2)cc1 (protonated)
Cc1ccc(CNC(=O)c2ccccc2[N-]C(=O)c2noc(C3CC3)n2)cc1 (3D coordinates assigned)
Cc1ccc(CNC(=O)c2ccccc2[N-]C(=O)c2noc(C3CC3)n2)cc1 (nonaromatic ring conformer: 351.90802151888477 kcal/mol)

>  <smiles>  (22) 
Cc1ccc(CNC(=O)c2ccccc2NC(=O)c2noc(C3CC3)n2)cc1

>  <score_type>  (22) 
oracle

>  <origin>  (22) 
adg

>  <m_score__min__energy>  (22) 
-11.25

>  <m_primary>  (22) 
energy

$$$$
22:0
     RDKit          3D

 64 67  0  0  0  0  0  0  0  0999 V2000
   54.7740   24.6870   46.3280 N   0  0  0  0  0  0  0  0  0  0  0  0
   56.0560   24.6840   46.9550 C   0  0  0  0  0  0  0  0  0  0  0  0
   56.2460   23.9540   47.9640 O   0  0  0  0  0  0  0  0  0  0  0  0
   57.1490   25.5380   46.4320 C   0  0  0  0  0  0  0  0  0  0  0  0
   57.0840   26.0720   45.1330 C   0  0  0  0  0  0  0  0  0  0  0  0
   58.1170   26.8820   44.6370 C   0  0  0  0  0  0  0  0  0  0  0  0
   57.9990   27.4660   43.2850 C   0  0  0  0  0  0  0  0  0  0  0  0
   58.3380   26.7730   42.2920 O   0  0  0  0  0  0  0  0  0  0  0  0
   57.5370   28.8050   43.0610 N   0  0  0  0  0  0  0  0  0  0  0  0
   57.3500   29.8570   44.0650 C   0  0  1  0  0  0  0  0  0  0  0  0
   57.6020   31.2620   43.4740 C   0  0  0  0  0  0  0  0  0  0  0  0
   57.9660   32.2960   44.5140 C   0  0  0  0  0  0  0  0  0  0  0  0
   57.8220   32.0060   45.8830 C   0  0  0  0  0  0  0  0  0  0  0  0
   58.1790   32.9550   46.8450 C   0  0  0  0  0  0  0  0  0  0  0  0
   58.6900   34.1950   46.4520 C   0  0  0  0  0  0  0  0  0  0  0  0
   58.8320   34.4940   45.0940 C   0  0  0  0  0  0  0  0  0  0  0  0
   58.4660   33.5530   44.1270 C   0  0  0  0  0  0  0  0  0  0  0  0
   55.9640   29.7550   44.6360 C   0  0  0  0  0  0  0  0  0  0  0  0
   55.1570   30.7180   44.5140 O   0  0  0  0  0  0  0  0  0  0  0  0
   55.5330   28.5770   45.2340 O   0  0  0  0  0  0  0  0  0  0  0  0
   59.2080   27.1930   45.4610 C   0  0  0  0  0  0  0  0  0  0  0  0
   59.2790   26.6840   46.7670 C   0  0  0  0  0  0  0  0  0  0  0  0
   60.3920   27.0670   47.6630 C   0  0  0  0  0  0  0  0  0  0  0  0
   61.4320   26.3580   47.7070 O   0  0  0  0  0  0  0  0  0  0  0  0
   60.3030   28.2510   48.4710 N   0  0  0  0  0  0  0  0  0  0  0  0
   59.9540   29.5380   47.8550 C   0  0  0  0  0  0  0  0  0  0  0  0
   58.8390   30.2430   48.6470 C   0  0  0  0  0  0  0  0  0  0  0  0
   58.8460   29.9140   50.1630 C   0  0  0  0  0  0  0  0  0  0  0  0
   58.4420   31.0570   50.9220 O   0  0  0  0  0  0  0  0  0  0  0  0
   57.8710   31.0230   52.2050 C   0  0  0  0  0  0  0  0  0  0  0  0
   58.4570   31.6630   53.3190 C   0  0  0  0  0  0  0  0  0  0  0  0
   57.8520   31.5770   54.5780 C   0  0  0  0  0  0  0  0  0  0  0  0
   56.6610   30.8660   54.7380 C   0  0  0  0  0  0  0  0  0  0  0  0
   56.0670   30.2420   53.6380 C   0  0  0  0  0  0  0  0  0  0  0  0
   56.6680   30.3230   52.3780 C   0  0  0  0  0  0  0  0  0  0  0  0
   60.2390   29.4690   50.6330 C   0  0  0  0  0  0  0  0  0  0  0  0
   60.6740   28.1950   49.8910 C   0  0  0  0  0  0  0  0  0  0  0  0
   58.2580   25.8420   47.2380 C   0  0  0  0  0  0  0  0  0  0  0  0
   54.3370   25.5750   46.0010 H   0  0  0  0  0  0  0  0  0  0  0  0
   56.2131   25.8522   44.4980 H   0  0  0  0  0  0  0  0  0  0  0  0
   58.0880   29.7121   44.8677 H   0  0  0  0  0  0  0  0  0  0  0  0
   58.4262   31.1922   42.7488 H   0  0  0  0  0  0  0  0  0  0  0  0
   56.6620   31.5900   43.0062 H   0  0  0  0  0  0  0  0  0  0  0  0
   57.4270   31.0287   46.1975 H   0  0  0  0  0  0  0  0  0  0  0  0
   58.0575   32.7254   47.9139 H   0  0  0  0  0  0  0  0  0  0  0  0
   58.9805   34.9358   47.2115 H   0  0  0  0  0  0  0  0  0  0  0  0
   59.2323   35.4711   44.7857 H   0  0  0  0  0  0  0  0  0  0  0  0
   58.5693   33.7963   43.0592 H   0  0  0  0  0  0  0  0  0  0  0  0
   60.0129   27.8397   45.0816 H   0  0  0  0  0  0  0  0  0  0  0  0
   60.8455   30.1821   47.8375 H   0  0  0  0  0  0  0  0  0  0  0  0
   59.5939   29.3514   46.8325 H   0  0  0  0  0  0  0  0  0  0  0  0
   58.9618   31.3295   48.5270 H   0  0  0  0  0  0  0  0  0  0  0  0
   57.8813   29.8814   48.2444 H   0  0  0  0  0  0  0  0  0  0  0  0
   58.1368   29.0886   50.3238 H   0  0  0  0  0  0  0  0  0  0  0  0
   59.3913   32.2306   53.1969 H   0  0  0  0  0  0  0  0  0  0  0  0
   58.3162   32.0711   55.4443 H   0  0  0  0  0  0  0  0  0  0  0  0
   56.1904   30.7971   55.7299 H   0  0  0  0  0  0  0  0  0  0  0  0
   55.1258   29.6866   53.7633 H   0  0  0  0  0  0  0  0  0  0  0  0
   56.1931   29.8334   51.5150 H   0  0  0  0  0  0  0  0  0  0  0  0
   60.9633   30.2716   50.4302 H   0  0  0  0  0  0  0  0  0  0  0  0
   60.2006   29.2577   51.7118 H   0  0  0  0  0  0  0  0  0  0  0  0
   61.7658   28.0883   49.9721 H   0  0  0  0  0  0  0  0  0  0  0  0
   60.1636   27.3351   50.3494 H   0  0  0  0  0  0  0  0  0  0  0  0
   58.3280   25.4159   48.2497 H   0  0  0  0  0  0  0  0  0  0  0  0
  1  2  1  0
  2  3  2  0
  2  4  1  0
  4  5  2  0
  5  6  1  0
  6  7  1  0
  7  8  2  0
  7  9  1  0
  9 10  1  0
 10 11  1  0
 11 12  1  0
 12 13  2  0
 13 14  1  0
 14 15  2  0
 15 16  1  0
 16 17  2  0
 10 18  1  0
 18 19  2  0
 18 20  1  0
  6 21  2  0
 21 22  1  0
 22 23  1  0
 23 24  2  0
 23 25  1  0
 25 26  1  0
 26 27  1  0
 27 28  1  0
 28 29  1  0
 29 30  1  0
 30 31  2  0
 31 32  1  0
 32 33  2  0
 33 34  1  0
 34 35  2  0
 28 36  1  0
 36 37  1  0
 22 38  2  0
 38  4  1  0
 17 12  1  0
 37 25  1  0
 35 30  1  0
  1 39  1  0
  5 40  1  0
 10 41  1  1
 11 42  1  0
 11 43  1  0
 13 44  1  0
 14 45  1  0
 15 46  1  0
 16 47  1  0
 17 48  1  0
 21 49  1  0
 26 50  1  0
 26 51  1  0
 27 52  1  0
 27 53  1  0
 28 54  1  0
 31 55  1  0
 32 56  1  0
 33 57  1  0
 34 58  1  0
 35 59  1  0
 36 60  1  0
 36 61  1  0
 37 62  1  0
 37 63  1  0
 38 64  1  0
M  CHG  3   1  -1   9  -1  20  -1
M  END
>  <UniqueID>  (23) 
23

>  <SMILES>  (23) 
[NH-]C(=O)c1cc(C(=O)[N-][C@@H](Cc2ccccc2)C(=O)[O-])cc(C(=O)N2CCC(Oc3ccccc3)CC2)c1

>  <Energy>  (23) 
76.24773822511452

>  <Genealogy>  (23) 
[NH-]C(=O)c1cc(C(=O)[N-]C(Cc2ccccc2)C(=O)[O-])cc(C(=O)N2CCC(Oc3ccccc3)CC2)c1 (protonated)
[NH-]C(=O)c1cc(C(=O)[N-][C@@H](Cc2ccccc2)C(=O)[O-])cc(C(=O)N2CCC(Oc3ccccc3)CC2)c1 (chirality)
[NH-]C(=O)c1cc(C(=O)[N-][C@@H](Cc2ccccc2)C(=O)[O-])cc(C(=O)N2CCC(Oc3ccccc3)CC2)c1 (3D coordinates assigned)
[NH-]C(=O)c1cc(C(=O)[N-][C@@H](Cc2ccccc2)C(=O)[O-])cc(C(=O)N2CCC(Oc3ccccc3)CC2)c1 (nonaromatic ring conformer: 76.24773822511452 kcal/mol)

>  <smiles>  (23) 
NC(=O)c1cc(C(=O)NC(Cc2ccccc2)C(=O)O)cc(C(=O)N2CCC(Oc3ccccc3)CC2)c1

>  <score_type>  (23) 
oracle

>  <origin>  (23) 
adg

>  <m_score__min__energy>  (23) 
-15.529999999999999

>  <m_primary>  (23) 
energy

$$$$
23:0
     RDKit          3D

 26 27  0  0  0  0  0  0  0  0999 V2000
   54.7590   26.3320   45.9870 N   0  0  0  0  0  0  0  0  0  0  0  0
   56.1310   26.0910   46.2950 C   0  0  0  0  0  0  0  0  0  0  0  0
   56.4360   25.1430   47.0690 O   0  0  0  0  0  0  0  0  0  0  0  0
   57.1560   26.9180   45.7290 N   0  0  0  0  0  0  0  0  0  0  0  0
   57.9980   26.5750   44.7300 C   0  0  0  0  0  0  0  0  0  0  0  0
   58.8370   27.6310   44.4340 C   0  0  0  0  0  0  0  0  0  0  0  0
   58.4860   28.6460   45.3030 C   0  0  0  0  0  0  0  0  0  0  0  0
   59.0680   29.9580   45.3130 N   0  0  0  0  0  0  0  0  0  0  0  0
   58.8550   30.9170   46.3620 C   0  0  0  0  0  0  0  0  0  0  0  0
   58.5270   30.5270   47.5140 O   0  0  0  0  0  0  0  0  0  0  0  0
   59.0880   32.3590   46.1360 C   0  0  0  0  0  0  0  0  0  0  0  0
   60.2580   32.9080   46.5730 N   0  0  0  0  0  0  0  0  0  0  0  0
   60.5460   34.2260   46.4080 C   0  0  0  0  0  0  0  0  0  0  0  0
   59.6290   35.0680   45.7790 C   0  0  0  0  0  0  0  0  0  0  0  0
   59.9090   36.3840   45.6120 F   0  0  0  0  0  0  0  0  0  0  0  0
   58.4150   34.5430   45.3340 C   0  0  0  0  0  0  0  0  0  0  0  0
   58.1330   33.1860   45.5130 C   0  0  0  0  0  0  0  0  0  0  0  0
   56.9240   32.7080   45.1260 F   0  0  0  0  0  0  0  0  0  0  0  0
   57.4420   28.1870   46.0840 C   0  0  0  0  0  0  0  0  0  0  0  0
   54.2190   27.0710   46.4880 H   0  0  0  0  0  0  0  0  0  0  0  0
   58.0131   25.5974   44.2260 H   0  0  0  0  0  0  0  0  0  0  0  0
   59.6229   27.6584   43.6648 H   0  0  0  0  0  0  0  0  0  0  0  0
   59.7410   30.1960   44.5490 H   0  0  0  0  0  0  0  0  0  0  0  0
   61.5031   34.6290   46.7708 H   0  0  0  0  0  0  0  0  0  0  0  0
   57.6800   35.1973   44.8423 H   0  0  0  0  0  0  0  0  0  0  0  0
   56.9281   28.7632   46.8676 H   0  0  0  0  0  0  0  0  0  0  0  0
  1  2  1  0
  2  3  2  0
  2  4  1  0
  4  5  1  0
  5  6  2  0
  6  7  1  0
  7  8  1  0
  8  9  1  0
  9 10  2  0
  9 11  1  0
 11 12  2  0
 12 13  1  0
 13 14  2  0
 14 15  1  0
 14 16  1  0
 16 17  2  0
 17 18  1  0
  7 19  2  0
 19  4  1  0
 17 11  1  0
  1 20  1  0
  5 21  1  0
  6 22  1  0
  8 23  1  0
 13 24  1  0
 16 25  1  0
 19 26  1  0
M  CHG  1   1  -1
M  END
>  <UniqueID>  (24) 
24

>  <SMILES>  (24) 
[NH-]C(=O)n1ccc(NC(=O)c2ncc(F)cc2F)c1

>  <Energy>  (24) 
57.7355906415065

>  <Genealogy>  (24) 
[NH-]C(=O)n1ccc(NC(=O)c2ncc(F)cc2F)c1 (protonated)
[NH-]C(=O)n1ccc(NC(=O)c2ncc(F)cc2F)c1 (3D coordinates assigned)
[NH-]C(=O)n1ccc(NC(=O)c2ncc(F)cc2F)c1 (optimized conformer: 57.7355906415065 kcal/mol)

>  <smiles>  (24) 
NC(=O)n1ccc(NC(=O)c2ncc(F)cc2F)c1

>  <score_type>  (24) 
oracle

>  <origin>  (24) 
adg

>  <m_score__min__energy>  (24) 
-7.9699999999999998

>  <m_primary>  (24) 
energy

$$$$
24:0
     RDKit          3D

 84 88  0  0  0  0  0  0  0  0999 V2000
   61.3540   27.7910   51.7360 O   0  0  0  0  0  0  0  0  0  0  0  0
   60.8550   28.9390   51.9020 C   0  0  0  0  0  0  0  0  0  0  0  0
   61.5720   29.9340   52.7880 C   0  0  0  0  0  0  0  0  0  0  0  0
   61.9440   31.1910   52.0400 C   0  0  0  0  0  0  0  0  0  0  0  0
   61.1630   32.3470   52.1840 C   0  0  0  0  0  0  0  0  0  0  0  0
   61.3960   33.4570   51.3710 C   0  0  0  0  0  0  0  0  0  0  0  0
   62.4100   33.4270   50.4120 C   0  0  0  0  0  0  0  0  0  0  0  0
   63.2460   32.3030   50.2950 C   0  0  0  0  0  0  0  0  0  0  0  0
   64.2940   32.2350   49.1980 C   0  0  0  0  0  0  0  0  0  0  0  0
   63.7550   32.2150   47.8120 N   0  0  0  0  0  0  0  0  0  0  0  0
   62.5240   31.3890   47.6560 C   0  0  0  0  0  0  0  0  0  0  0  0
   61.1860   32.1680   47.7510 C   0  0  0  0  0  0  0  0  0  0  0  0
   61.3040   33.6100   47.4500 N   0  0  0  0  0  0  0  0  0  0  0  0
   60.0120   34.1400   46.9670 C   0  0  0  0  0  0  0  0  0  0  0  0
   59.5430   33.3660   45.7690 C   0  0  0  0  0  0  0  0  0  0  0  0
   58.2810   32.9180   45.6710 C   0  0  0  0  0  0  0  0  0  0  0  0
   57.7790   32.0740   44.5580 C   0  0  0  0  0  0  0  0  0  0  0  0
   57.1060   30.8780   44.8730 C   0  0  0  0  0  0  0  0  0  0  0  0
   56.5870   30.0670   43.8600 C   0  0  0  0  0  0  0  0  0  0  0  0
   56.7340   30.4410   42.5210 C   0  0  0  0  0  0  0  0  0  0  0  0
   57.3950   31.6250   42.1930 C   0  0  0  0  0  0  0  0  0  0  0  0
   57.9050   32.4470   43.2030 C   0  0  0  0  0  0  0  0  0  0  0  0
   62.3790   33.8470   46.4770 C   0  0  0  0  0  0  0  0  0  0  0  0
   63.7110   33.5610   47.1670 C   0  0  0  0  0  0  0  0  0  0  0  0
   62.9920   31.1790   51.1040 C   0  0  0  0  0  0  0  0  0  0  0  0
   59.6240   29.2310   51.2170 N   0  0  0  0  0  0  0  0  0  0  0  0
   58.9530   30.3440   51.0890 C   0  0  0  0  0  0  0  0  0  0  0  0
   58.3210   30.9360   52.3120 C   0  0  0  0  0  0  0  0  0  0  0  0
   56.9050   30.4490   52.4500 C   0  0  0  0  0  0  0  0  0  0  0  0
   55.8420   31.2080   51.9370 C   0  0  0  0  0  0  0  0  0  0  0  0
   54.5310   30.7280   52.0200 C   0  0  0  0  0  0  0  0  0  0  0  0
   54.2760   29.4850   52.6070 C   0  0  0  0  0  0  0  0  0  0  0  0
   55.3290   28.7180   53.1130 C   0  0  0  0  0  0  0  0  0  0  0  0
   56.6420   29.1960   53.0340 C   0  0  0  0  0  0  0  0  0  0  0  0
   58.6900   30.9930   49.8000 C   0  0  0  0  0  0  0  0  0  0  0  0
   58.1900   32.1510   49.7730 O   0  0  0  0  0  0  0  0  0  0  0  0
   59.0730   30.3260   48.5930 N   0  0  0  0  0  0  0  0  0  0  0  0
   58.7880   28.9270   48.3040 C   0  0  0  0  0  0  0  0  0  0  0  0
   59.0280   28.6720   46.8430 C   0  0  0  0  0  0  0  0  0  0  0  0
   59.8480   29.5570   46.1200 C   0  0  0  0  0  0  0  0  0  0  0  0
   60.1300   29.3210   44.7720 C   0  0  0  0  0  0  0  0  0  0  0  0
   59.6070   28.1930   44.1370 C   0  0  0  0  0  0  0  0  0  0  0  0
   58.8080   27.2960   44.8490 C   0  0  0  0  0  0  0  0  0  0  0  0
   58.5220   27.5190   46.1990 C   0  0  0  0  0  0  0  0  0  0  0  0
   57.5490   26.3230   47.0550 Cl  0  0  0  0  0  0  0  0  0  0  0  0
   60.9131   30.2018   53.6271 H   0  0  0  0  0  0  0  0  0  0  0  0
   62.5000   29.4639   53.1455 H   0  0  0  0  0  0  0  0  0  0  0  0
   60.3645   32.3788   52.9399 H   0  0  0  0  0  0  0  0  0  0  0  0
   60.7779   34.3596   51.4863 H   0  0  0  0  0  0  0  0  0  0  0  0
   62.5557   34.2884   49.7436 H   0  0  0  0  0  0  0  0  0  0  0  0
   64.9483   33.1137   49.2967 H   0  0  0  0  0  0  0  0  0  0  0  0
   64.8209   31.2793   49.3360 H   0  0  0  0  0  0  0  0  0  0  0  0
   64.4860   31.6810   47.2780 H   0  0  0  0  0  0  0  0  0  0  0  0
   62.5643   30.9019   46.6705 H   0  0  0  0  0  0  0  0  0  0  0  0
   62.5241   30.6812   48.4981 H   0  0  0  0  0  0  0  0  0  0  0  0
   60.4762   31.7234   47.0380 H   0  0  0  0  0  0  0  0  0  0  0  0
   60.8465   32.0888   48.7943 H   0  0  0  0  0  0  0  0  0  0  0  0
   59.2634   34.0558   47.7686 H   0  0  0  0  0  0  0  0  0  0  0  0
   60.1434   35.1941   46.6813 H   0  0  0  0  0  0  0  0  0  0  0  0
   60.2503   33.1610   44.9519 H   0  0  0  0  0  0  0  0  0  0  0  0
   57.5736   33.1943   46.4668 H   0  0  0  0  0  0  0  0  0  0  0  0
   56.9877   30.5795   45.9251 H   0  0  0  0  0  0  0  0  0  0  0  0
   56.0629   29.1345   44.1163 H   0  0  0  0  0  0  0  0  0  0  0  0
   56.3277   29.8004   41.7244 H   0  0  0  0  0  0  0  0  0  0  0  0
   57.5153   31.9125   41.1381 H   0  0  0  0  0  0  0  0  0  0  0  0
   58.4072   33.3896   42.9396 H   0  0  0  0  0  0  0  0  0  0  0  0
   62.2548   33.1776   45.6130 H   0  0  0  0  0  0  0  0  0  0  0  0
   62.3490   34.8870   46.1199 H   0  0  0  0  0  0  0  0  0  0  0  0
   64.5138   33.6171   46.4170 H   0  0  0  0  0  0  0  0  0  0  0  0
   63.8389   34.3115   47.9610 H   0  0  0  0  0  0  0  0  0  0  0  0
   63.6206   30.2820   51.0023 H   0  0  0  0  0  0  0  0  0  0  0  0
   58.8968   30.6365   53.2001 H   0  0  0  0  0  0  0  0  0  0  0  0
   58.3171   32.0322   52.2202 H   0  0  0  0  0  0  0  0  0  0  0  0
   56.0404   32.1832   51.4683 H   0  0  0  0  0  0  0  0  0  0  0  0
   53.6997   31.3291   51.6230 H   0  0  0  0  0  0  0  0  0  0  0  0
   53.2439   29.1098   52.6707 H   0  0  0  0  0  0  0  0  0  0  0  0
   55.1260   27.7396   53.5729 H   0  0  0  0  0  0  0  0  0  0  0  0
   57.4708   28.5905   53.4296 H   0  0  0  0  0  0  0  0  0  0  0  0
   59.4487   28.2842   48.9042 H   0  0  0  0  0  0  0  0  0  0  0  0
   57.7409   28.7011   48.5542 H   0  0  0  0  0  0  0  0  0  0  0  0
   60.2704   30.4414   46.6194 H   0  0  0  0  0  0  0  0  0  0  0  0
   60.7639   30.0237   44.2113 H   0  0  0  0  0  0  0  0  0  0  0  0
   59.8246   28.0106   43.0743 H   0  0  0  0  0  0  0  0  0  0  0  0
   58.4008   26.4077   44.3440 H   0  0  0  0  0  0  0  0  0  0  0  0
  1  2  2  0
  2  3  1  0
  3  4  1  0
  4  5  2  0
  5  6  1  0
  6  7  2  0
  7  8  1  0
  8  9  1  0
  9 10  1  0
 10 11  1  0
 11 12  1  0
 12 13  1  0
 13 14  1  0
 14 15  1  0
 15 16  2  3
 16 17  1  0
 17 18  2  0
 18 19  1  0
 19 20  2  0
 20 21  1  0
 21 22  2  0
 13 23  1  0
 23 24  1  0
  8 25  2  0
  2 26  1  0
 26 27  2  3
 27 28  1  0
 28 29  1  0
 29 30  2  0
 30 31  1  0
 31 32  2  0
 32 33  1  0
 33 34  2  0
 27 35  1  0
 35 36  2  0
 35 37  1  0
 37 38  1  0
 38 39  1  0
 39 40  2  0
 40 41  1  0
 41 42  2  0
 42 43  1  0
 43 44  2  0
 44 45  1  0
 25  4  1  0
 34 29  1  0
 44 39  1  0
 24 10  1  0
 22 17  1  0
  3 46  1  0
  3 47  1  0
  5 48  1  0
  6 49  1  0
  7 50  1  0
  9 51  1  0
  9 52  1  0
 10 53  1  0
 11 54  1  0
 11 55  1  0
 12 56  1  0
 12 57  1  0
 14 58  1  0
 14 59  1  0
 15 60  1  0
 16 61  1  0
 18 62  1  0
 19 63  1  0
 20 64  1  0
 21 65  1  0
 22 66  1  0
 23 67  1  0
 23 68  1  0
 24 69  1  0
 24 70  1  0
 25 71  1  0
 28 72  1  0
 28 73  1  0
 30 74  1  0
 31 75  1  0
 32 76  1  0
 33 77  1  0
 34 78  1  0
 38 79  1  0
 38 80  1  0
 40 81  1  0
 41 82  1  0
 42 83  1  0
 43 84  1  0
M  CHG  2  10   1  37  -1
M  END
>  <UniqueID>  (25) 
25

>  <SMILES>  (25) 
O=C(Cc1cccc(C[NH+]2CCN(CC=Cc3ccccc3)CC2)c1)N=C(Cc1ccccc1)C(=O)[N-]Cc1ccccc1Cl

>  <Energy>  (25) 
114.11389187017805

>  <Genealogy>  (25) 
O=C(Cc1cccc(C[NH+]2CCN(CC=Cc3ccccc3)CC2)c1)N=C(Cc1ccccc1)C(=O)[N-]Cc1ccccc1Cl (protonated)
O=C(Cc1cccc(C[NH+]2CCN(CC=Cc3ccccc3)CC2)c1)N=C(Cc1ccccc1)C(=O)[N-]Cc1ccccc1Cl (3D coordinates assigned)
O=C(Cc1cccc(C[NH+]2CCN(CC=Cc3ccccc3)CC2)c1)N=C(Cc1ccccc1)C(=O)[N-]Cc1ccccc1Cl (nonaromatic ring conformer: 114.11389187017805 kcal/mol)

>  <smiles>  (25) 
O=C(Cc1cccc(CN2CCN(CC=Cc3ccccc3)CC2)c1)N=C(Cc1ccccc1)C(=O)NCc1ccccc1Cl

>  <score_type>  (25) 
oracle

>  <origin>  (25) 
adg

>  <m_score__min__energy>  (25) 
-11.83

>  <m_primary>  (25) 
energy

$$$$
25:0
     RDKit          3D

 50 53  0  0  0  0  0  0  0  0999 V2000
   61.5600   33.2860   47.0990 C   0  0  0  0  0  0  0  0  0  0  0  0
   60.5430   34.1290   46.3380 C   0  0  0  0  0  0  0  0  0  0  0  0
   59.3380   33.3050   45.9690 C   0  0  0  0  0  0  0  0  0  0  0  0
   58.1610   33.9330   45.5370 C   0  0  0  0  0  0  0  0  0  0  0  0
   57.0500   33.1720   45.1640 C   0  0  0  0  0  0  0  0  0  0  0  0
   57.1070   31.7760   45.2090 C   0  0  0  0  0  0  0  0  0  0  0  0
   56.0220   31.0450   44.8440 N   0  0  0  0  0  0  0  0  0  0  0  0
   56.0250   29.6870   44.8660 C   0  0  0  0  0  0  0  0  0  0  0  0
   54.8700   29.0050   44.4990 O   0  0  0  0  0  0  0  0  0  0  0  0
   57.1760   28.9860   45.2720 C   0  0  0  0  0  0  0  0  0  0  0  0
   57.1820   27.5020   45.2940 C   0  0  0  0  0  0  0  0  0  0  0  0
   58.1400   26.7850   44.5610 C   0  0  0  0  0  0  0  0  0  0  0  0
   58.1470   25.3870   44.5830 C   0  0  0  0  0  0  0  0  0  0  0  0
   57.1960   24.6800   45.3390 C   0  0  0  0  0  0  0  0  0  0  0  0
   57.2040   23.1950   45.3650 C   0  0  0  0  0  0  0  0  0  0  0  0
   57.1040   22.4600   44.1710 C   0  0  0  0  0  0  0  0  0  0  0  0
   57.1100   21.0640   44.1980 C   0  0  0  0  0  0  0  0  0  0  0  0
   57.2140   20.3860   45.4140 C   0  0  0  0  0  0  0  0  0  0  0  0
   57.3130   21.0960   46.6160 C   0  0  0  0  0  0  0  0  0  0  0  0
   57.4150   20.3560   47.8400 N   0  0  0  0  0  0  0  0  0  0  0  0
   57.3990   21.0290   49.4380 S   0  0  0  0  0  0  0  0  0  0  0  0
   56.0030   20.4080   50.3520 C   0  0  0  0  0  0  0  0  0  0  0  0
   58.6580   20.6180   50.1470 O   0  0  0  0  0  0  0  0  0  0  0  0
   57.3530   22.5290   49.3650 O   0  0  0  0  0  0  0  0  0  0  0  0
   57.3120   22.5030   46.5860 C   0  0  0  0  0  0  0  0  0  0  0  0
   56.2360   25.4020   46.0710 C   0  0  0  0  0  0  0  0  0  0  0  0
   56.2300   26.8000   46.0480 C   0  0  0  0  0  0  0  0  0  0  0  0
   58.3170   29.7200   45.6550 C   0  0  0  0  0  0  0  0  0  0  0  0
   59.3690   29.1140   46.0050 O   0  0  0  0  0  0  0  0  0  0  0  0
   58.2890   31.1270   45.6300 C   0  0  0  0  0  0  0  0  0  0  0  0
   59.4030   31.9030   46.0040 C   0  0  0  0  0  0  0  0  0  0  0  0
   61.4060   33.4136   48.1807 H   0  0  0  0  0  0  0  0  0  0  0  0
   61.4307   32.2266   46.8327 H   0  0  0  0  0  0  0  0  0  0  0  0
   62.5771   33.6095   46.8327 H   0  0  0  0  0  0  0  0  0  0  0  0
   60.2250   34.9701   46.9715 H   0  0  0  0  0  0  0  0  0  0  0  0
   61.0123   34.5019   45.4156 H   0  0  0  0  0  0  0  0  0  0  0  0
   58.1120   35.0310   45.4915 H   0  0  0  0  0  0  0  0  0  0  0  0
   56.1279   33.6729   44.8340 H   0  0  0  0  0  0  0  0  0  0  0  0
   58.8900   27.3261   43.9655 H   0  0  0  0  0  0  0  0  0  0  0  0
   58.9028   24.8360   44.0040 H   0  0  0  0  0  0  0  0  0  0  0  0
   57.0205   22.9878   43.2095 H   0  0  0  0  0  0  0  0  0  0  0  0
   57.0326   20.4969   43.2587 H   0  0  0  0  0  0  0  0  0  0  0  0
   57.2182   19.2861   45.4274 H   0  0  0  0  0  0  0  0  0  0  0  0
   56.2020   20.4965   51.4302 H   0  0  0  0  0  0  0  0  0  0  0  0
   55.1072   20.9925   50.0952 H   0  0  0  0  0  0  0  0  0  0  0  0
   55.8373   19.3513   50.0952 H   0  0  0  0  0  0  0  0  0  0  0  0
   57.3965   23.0677   47.5262 H   0  0  0  0  0  0  0  0  0  0  0  0
   55.4843   24.8627   46.6660 H   0  0  0  0  0  0  0  0  0  0  0  0
   55.4739   27.3528   46.6248 H   0  0  0  0  0  0  0  0  0  0  0  0
   60.3307   31.4072   46.3258 H   0  0  0  0  0  0  0  0  0  0  0  0
  1  2  1  0
  2  3  1  0
  3  4  2  0
  4  5  1  0
  5  6  2  0
  6  7  1  0
  7  8  1  0
  8  9  1  0
  8 10  2  0
 10 11  1  0
 11 12  2  0
 12 13  1  0
 13 14  2  0
 14 15  1  0
 15 16  2  0
 16 17  1  0
 17 18  2  0
 18 19  1  0
 19 20  1  0
 20 21  1  0
 21 22  1  0
 21 23  2  0
 21 24  2  0
 19 25  2  0
 14 26  1  0
 26 27  2  0
 10 28  1  0
 28 29  2  0
 28 30  1  0
 30 31  2  0
 31  3  1  0
 30  6  1  0
 27 11  1  0
 25 15  1  0
  1 32  1  0
  1 33  1  0
  1 34  1  0
  2 35  1  0
  2 36  1  0
  4 37  1  0
  5 38  1  0
 12 39  1  0
 13 40  1  0
 16 41  1  0
 17 42  1  0
 18 43  1  0
 22 44  1  0
 22 45  1  0
 22 46  1  0
 25 47  1  0
 26 48  1  0
 27 49  1  0
 31 50  1  0
M  CHG  3   7  -1   9  -1  20  -1
M  END
>  <UniqueID>  (26) 
26

>  <SMILES>  (26) 
CCc1ccc2[n-]c([O-])c(-c3ccc(-c4cccc([N-]S(C)(=O)=O)c4)cc3)c(=O)c2c1

>  <Energy>  (26) 
67.85265248792565

>  <Genealogy>  (26) 
CCc1ccc2[n-]c([O-])c(-c3ccc(-c4cccc([N-]S(C)(=O)=O)c4)cc3)c(=O)c2c1 (protonated)
CCc1ccc2[n-]c([O-])c(-c3ccc(-c4cccc([N-]S(C)(=O)=O)c4)cc3)c(=O)c2c1 (3D coordinates assigned)
CCc1ccc2[n-]c([O-])c(-c3ccc(-c4cccc([N-]S(C)(=O)=O)c4)cc3)c(=O)c2c1 (optimized conformer: 67.85265248792565 kcal/mol)

>  <smiles>  (26) 
CCc1ccc2[nH]c(O)c(-c3ccc(-c4cccc(NS(C)(=O)=O)c4)cc3)c(=O)c2c1

>  <score_type>  (26) 
oracle

>  <origin>  (26) 
adg

>  <m_score__min__energy>  (26) 
-14.75

>  <m_primary>  (26) 
energy

$$$$
26:0
     RDKit          3D

 93 97  0  0  0  0  0  0  0  0999 V2000
   58.3240   31.6930   43.3280 O   0  0  0  0  0  0  0  0  0  0  0  0
   57.8520   31.9200   44.4650 C   0  0  0  0  0  0  0  0  0  0  0  0
   58.2170   33.1780   45.1970 C   0  0  0  0  0  0  0  0  0  0  0  0
   58.0080   32.9540   46.6370 N   0  0  0  0  0  0  0  0  0  0  0  0
   58.6510   33.7110   47.6630 C   0  0  0  0  0  0  0  0  0  0  0  0
   59.1370   34.8470   47.3760 O   0  0  0  0  0  0  0  0  0  0  0  0
   58.9710   33.1080   48.9620 C   0  0  0  0  0  0  0  0  0  0  0  0
   59.6200   33.9180   49.9220 C   0  0  0  0  0  0  0  0  0  0  0  0
   59.8590   33.4310   51.2100 C   0  0  0  0  0  0  0  0  0  0  0  0
   59.5520   32.1190   51.5230 C   0  0  0  0  0  0  0  0  0  0  0  0
   58.8600   31.2940   50.5990 C   0  0  0  0  0  0  0  0  0  0  0  0
   58.5980   29.8330   50.9650 C   0  0  0  0  0  0  0  0  0  0  0  0
   57.2880   29.6210   51.6470 N   0  0  0  0  0  0  0  0  0  0  0  0
   57.5600   29.1630   53.0500 C   0  0  0  0  0  0  0  0  0  0  0  0
   57.0970   30.2460   54.0130 C   0  0  0  0  0  0  0  0  0  0  0  0
   55.6170   30.0160   54.3820 C   0  0  0  0  0  0  0  0  0  0  0  0
   54.7660   29.8280   53.1830 N   0  0  0  0  0  0  0  0  0  0  0  0
   53.3240   29.9480   53.5510 C   0  0  0  0  0  0  0  0  0  0  0  0
   52.6850   31.1820   52.8670 C   0  0  0  0  0  0  0  0  0  0  0  0
   52.2390   30.8580   51.4340 C   0  0  0  0  0  0  0  0  0  0  0  0
   51.4500   32.0310   50.8660 C   0  0  0  0  0  0  0  0  0  0  0  0
   50.2900   32.2570   51.6440 O   0  0  0  0  0  0  0  0  0  0  0  0
   50.6740   32.7610   52.9180 C   0  0  0  0  0  0  0  0  0  0  0  0
   51.5040   31.7210   53.7020 C   0  0  0  0  0  0  0  0  0  0  0  0
   55.0650   30.6960   52.0130 C   0  0  0  0  0  0  0  0  0  0  0  0
   56.5530   30.9230   51.6510 C   0  0  0  0  0  0  0  0  0  0  0  0
   58.5510   31.7980   49.3120 C   0  0  0  0  0  0  0  0  0  0  0  0
   56.8940   31.0000   45.0110 N   0  0  0  0  0  0  0  0  0  0  0  0
   57.2660   29.6300   45.1800 C   0  0  0  0  0  0  0  0  0  0  0  0
   56.3460   28.5760   45.1900 C   0  0  0  0  0  0  0  0  0  0  0  0
   56.8020   27.2660   45.4340 C   0  0  0  0  0  0  0  0  0  0  0  0
   58.1470   27.0480   45.7830 C   0  0  0  0  0  0  0  0  0  0  0  0
   59.0380   28.1280   45.8520 C   0  0  0  0  0  0  0  0  0  0  0  0
   60.4030   28.0350   46.4520 C   0  0  0  0  0  0  0  0  0  0  0  0
   60.4040   28.7030   47.7940 C   0  0  0  0  0  0  0  0  0  0  0  0
   59.9100   28.0700   48.7730 O   0  0  0  0  0  0  0  0  0  0  0  0
   60.8920   30.0410   47.9360 N   0  0  0  0  0  0  0  0  0  0  0  0
   61.5930   30.4450   49.1480 C   0  0  0  0  0  0  0  0  0  0  0  0
   62.2660   31.7910   48.9410 C   0  0  0  0  0  0  0  0  0  0  0  0
   62.5790   32.0160   47.5130 N   0  0  0  0  0  0  0  0  0  0  0  0
   63.7740   32.8750   47.4100 C   0  0  0  0  0  0  0  0  0  0  0  0
   63.4340   34.0330   46.5000 C   0  0  0  0  0  0  0  0  0  0  0  0
   61.9350   34.1000   46.4320 C   0  0  0  0  0  0  0  0  0  0  0  0
   61.4770   32.7060   46.8190 C   0  0  0  0  0  0  0  0  0  0  0  0
   58.5900   29.3710   45.4490 C   0  0  0  0  0  0  0  0  0  0  0  0
   59.2723   33.4248   45.0086 H   0  0  0  0  0  0  0  0  0  0  0  0
   57.5912   34.0131   44.8493 H   0  0  0  0  0  0  0  0  0  0  0  0
   59.9383   34.9362   49.6539 H   0  0  0  0  0  0  0  0  0  0  0  0
   60.2917   34.0917   51.9757 H   0  0  0  0  0  0  0  0  0  0  0  0
   59.8480   31.7102   52.5004 H   0  0  0  0  0  0  0  0  0  0  0  0
   58.6123   29.2340   50.0425 H   0  0  0  0  0  0  0  0  0  0  0  0
   59.3853   29.5276   51.6698 H   0  0  0  0  0  0  0  0  0  0  0  0
   57.0105   28.2310   53.2486 H   0  0  0  0  0  0  0  0  0  0  0  0
   58.6361   28.9775   53.1826 H   0  0  0  0  0  0  0  0  0  0  0  0
   57.7109   30.2110   54.9251 H   0  0  0  0  0  0  0  0  0  0  0  0
   57.2040   31.2300   53.5331 H   0  0  0  0  0  0  0  0  0  0  0  0
   55.5442   29.1179   55.0129 H   0  0  0  0  0  0  0  0  0  0  0  0
   55.2583   30.9087   54.9153 H   0  0  0  0  0  0  0  0  0  0  0  0
   52.7923   29.0407   53.2283 H   0  0  0  0  0  0  0  0  0  0  0  0
   53.2463   30.0686   54.6416 H   0  0  0  0  0  0  0  0  0  0  0  0
   53.4524   31.9679   52.8082 H   0  0  0  0  0  0  0  0  0  0  0  0
   53.1246   30.6751   50.8076 H   0  0  0  0  0  0  0  0  0  0  0  0
   51.6028   29.9607   51.4438 H   0  0  0  0  0  0  0  0  0  0  0  0
   52.0789   32.9334   50.8793 H   0  0  0  0  0  0  0  0  0  0  0  0
   51.1519   31.7988   49.8330 H   0  0  0  0  0  0  0  0  0  0  0  0
   51.2776   33.6698   52.7775 H   0  0  0  0  0  0  0  0  0  0  0  0
   49.7636   32.9857   53.4930 H   0  0  0  0  0  0  0  0  0  0  0  0
   51.8989   32.1944   54.6130 H   0  0  0  0  0  0  0  0  0  0  0  0
   50.8460   30.8748   53.9492 H   0  0  0  0  0  0  0  0  0  0  0  0
   54.5779   30.2453   51.1357 H   0  0  0  0  0  0  0  0  0  0  0  0
   54.6924   31.6903   52.3002 H   0  0  0  0  0  0  0  0  0  0  0  0
   56.6184   31.3802   50.6527 H   0  0  0  0  0  0  0  0  0  0  0  0
   57.0069   31.5890   52.3996 H   0  0  0  0  0  0  0  0  0  0  0  0
   57.9923   31.1817   48.5923 H   0  0  0  0  0  0  0  0  0  0  0  0
   55.2781   28.7684   45.0093 H   0  0  0  0  0  0  0  0  0  0  0  0
   56.1085   26.4161   45.3519 H   0  0  0  0  0  0  0  0  0  0  0  0
   58.4999   26.0294   46.0019 H   0  0  0  0  0  0  0  0  0  0  0  0
   60.6813   26.9772   46.5685 H   0  0  0  0  0  0  0  0  0  0  0  0
   61.1287   28.5339   45.7929 H   0  0  0  0  0  0  0  0  0  0  0  0
   60.9210   30.6840   47.1100 H   0  0  0  0  0  0  0  0  0  0  0  0
   60.8726   30.5224   49.9757 H   0  0  0  0  0  0  0  0  0  0  0  0
   62.3598   29.6933   49.3865 H   0  0  0  0  0  0  0  0  0  0  0  0
   61.5923   32.5871   49.2909 H   0  0  0  0  0  0  0  0  0  0  0  0
   63.2068   31.8024   49.5108 H   0  0  0  0  0  0  0  0  0  0  0  0
   64.0516   33.2507   48.4059 H   0  0  0  0  0  0  0  0  0  0  0  0
   64.6231   32.3048   47.0052 H   0  0  0  0  0  0  0  0  0  0  0  0
   63.8375   34.9700   46.9113 H   0  0  0  0  0  0  0  0  0  0  0  0
   63.8705   33.8930   45.5001 H   0  0  0  0  0  0  0  0  0  0  0  0
   61.5463   34.8477   47.1390 H   0  0  0  0  0  0  0  0  0  0  0  0
   61.5733   34.3991   45.4371 H   0  0  0  0  0  0  0  0  0  0  0  0
   60.6062   32.7759   47.4874 H   0  0  0  0  0  0  0  0  0  0  0  0
   61.1946   32.1431   45.9171 H   0  0  0  0  0  0  0  0  0  0  0  0
   59.3207   30.1858   45.3388 H   0  0  0  0  0  0  0  0  0  0  0  0
  1  2  2  0
  2  3  1  0
  3  4  1  0
  4  5  1  0
  5  6  2  0
  5  7  1  0
  7  8  2  0
  8  9  1  0
  9 10  2  0
 10 11  1  0
 11 12  1  0
 12 13  1  0
 13 14  1  0
 14 15  1  0
 15 16  1  0
 16 17  1  0
 17 18  1  0
 18 19  1  0
 19 20  1  0
 20 21  1  0
 21 22  1  0
 22 23  1  0
 23 24  1  0
 17 25  1  0
 25 26  1  0
 11 27  2  0
  2 28  1  0
 28 29  1  0
 29 30  2  0
 30 31  1  0
 31 32  2  0
 32 33  1  0
 33 34  1  0
 34 35  1  0
 35 36  2  0
 35 37  1  0
 37 38  1  0
 38 39  1  0
 39 40  1  0
 40 41  1  0
 41 42  1  0
 42 43  1  0
 43 44  1  0
 33 45  2  0
 27  7  1  0
 45 29  1  0
 26 13  1  0
 44 40  1  0
 24 19  1  0
  3 46  1  0
  3 47  1  0
  8 48  1  0
  9 49  1  0
 10 50  1  0
 12 51  1  0
 12 52  1  0
 14 53  1  0
 14 54  1  0
 15 55  1  0
 15 56  1  0
 16 57  1  0
 16 58  1  0
 18 59  1  0
 18 60  1  0
 19 61  1  0
 20 62  1  0
 20 63  1  0
 21 64  1  0
 21 65  1  0
 23 66  1  0
 23 67  1  0
 24 68  1  0
 24 69  1  0
 25 70  1  0
 25 71  1  0
 26 72  1  0
 26 73  1  0
 27 74  1  0
 30 75  1  0
 31 76  1  0
 32 77  1  0
 34 78  1  0
 34 79  1  0
 37 80  1  0
 38 81  1  0
 38 82  1  0
 39 83  1  0
 39 84  1  0
 41 85  1  0
 41 86  1  0
 42 87  1  0
 42 88  1  0
 43 89  1  0
 43 90  1  0
 44 91  1  0
 44 92  1  0
 45 93  1  0
M  CHG  2   4  -1  28  -1
M  END
>  <UniqueID>  (27) 
27

>  <SMILES>  (27) 
O=C(C[N-]C(=O)c1cccc(CN2CCCN(CC3CCOCC3)CC2)c1)[N-]c1cccc(CC(=O)NCCN2CCCC2)c1

>  <Energy>  (27) 
142.0370470510386

>  <Genealogy>  (27) 
O=C(C[N-]C(=O)c1cccc(CN2CCCN(CC3CCOCC3)CC2)c1)[N-]c1cccc(CC(=O)NCCN2CCCC2)c1 (protonated)
O=C(C[N-]C(=O)c1cccc(CN2CCCN(CC3CCOCC3)CC2)c1)[N-]c1cccc(CC(=O)NCCN2CCCC2)c1 (3D coordinates assigned)
O=C(C[N-]C(=O)c1cccc(CN2CCCN(CC3CCOCC3)CC2)c1)[N-]c1cccc(CC(=O)NCCN2CCCC2)c1 (nonaromatic ring conformer: 142.0370470510386 kcal/mol)

>  <smiles>  (27) 
O=C(Cc1cccc(NC(=O)CNC(=O)c2cccc(CN3CCCN(CC4CCOCC4)CC3)c2)c1)NCCN1CCCC1

>  <score_type>  (27) 
oracle

>  <origin>  (27) 
adg

>  <m_score__min__energy>  (27) 
-11.26

>  <m_primary>  (27) 
energy

$$$$
27:0
     RDKit          3D

 61 64  0  0  0  0  0  0  0  0999 V2000
   57.4050   32.3120   41.7490 C   0  0  0  0  0  0  0  0  0  0  0  0
   57.3060   31.0840   42.6590 C   0  0  0  0  0  0  0  0  0  0  0  0
   57.0850   31.4450   44.1070 C   0  0  0  0  0  0  0  0  0  0  0  0
   56.3330   30.6970   44.8020 O   0  0  0  0  0  0  0  0  0  0  0  0
   57.6550   32.6320   44.7050 N   0  0  0  0  0  0  0  0  0  0  0  0
   58.8530   33.2680   44.1190 C   0  0  0  0  0  0  0  0  0  0  0  0
   59.3050   34.4710   44.9520 C   0  0  0  0  0  0  0  0  0  0  0  0
   59.3330   34.0840   46.3740 N   0  0  0  0  0  0  0  0  0  0  0  0
   60.5580   34.0540   47.1530 C   0  0  0  0  0  0  0  0  0  0  0  0
   60.5290   34.3220   48.5420 C   0  0  0  0  0  0  0  0  0  0  0  0
   61.6830   34.2140   49.3230 C   0  0  0  0  0  0  0  0  0  0  0  0
   62.8970   33.8320   48.7410 C   0  0  0  0  0  0  0  0  0  0  0  0
   64.0500   33.6720   49.5780 N   0  0  0  0  0  0  0  0  0  0  0  0
   64.5250   32.4410   50.1430 C   0  0  0  0  0  0  0  0  0  0  0  0
   65.7670   32.2770   50.2770 O   0  0  0  0  0  0  0  0  0  0  0  0
   63.6010   31.3740   50.6030 C   0  0  0  0  0  0  0  0  0  0  0  0
   63.7330   30.8340   51.8950 C   0  0  0  0  0  0  0  0  0  0  0  0
   62.8940   29.7990   52.3160 C   0  0  0  0  0  0  0  0  0  0  0  0
   61.9050   29.3070   51.4610 C   0  0  0  0  0  0  0  0  0  0  0  0
   61.7280   29.8590   50.1820 C   0  0  0  0  0  0  0  0  0  0  0  0
   60.7190   29.3180   49.3130 N   0  0  0  0  0  0  0  0  0  0  0  0
   60.0030   30.0970   48.3400 C   0  0  0  0  0  0  0  0  0  0  0  0
   59.7210   31.3010   48.6040 O   0  0  0  0  0  0  0  0  0  0  0  0
   59.5770   29.5120   47.0420 C   0  0  0  0  0  0  0  0  0  0  0  0
   60.3440   29.6950   45.8740 C   0  0  0  0  0  0  0  0  0  0  0  0
   59.9220   29.1530   44.6570 C   0  0  0  0  0  0  0  0  0  0  0  0
   58.7230   28.4370   44.5810 C   0  0  0  0  0  0  0  0  0  0  0  0
   57.9510   28.2500   45.7320 C   0  0  0  0  0  0  0  0  0  0  0  0
   58.3720   28.7800   46.9560 C   0  0  0  0  0  0  0  0  0  0  0  0
   62.5830   30.8940   49.7580 C   0  0  0  0  0  0  0  0  0  0  0  0
   62.9560   33.6220   47.3540 C   0  0  0  0  0  0  0  0  0  0  0  0
   61.7970   33.7000   46.5750 C   0  0  0  0  0  0  0  0  0  0  0  0
   58.0800   33.5610   46.9570 C   0  0  0  0  0  0  0  0  0  0  0  0
   57.0220   33.2600   45.8820 C   0  0  0  0  0  0  0  0  0  0  0  0
   57.4782   33.2202   42.3653 H   0  0  0  0  0  0  0  0  0  0  0  0
   58.2992   32.2267   41.1140 H   0  0  0  0  0  0  0  0  0  0  0  0
   56.5087   32.3711   41.1140 H   0  0  0  0  0  0  0  0  0  0  0  0
   56.4646   30.4621   42.3196 H   0  0  0  0  0  0  0  0  0  0  0  0
   58.2634   30.5462   42.5944 H   0  0  0  0  0  0  0  0  0  0  0  0
   59.6685   32.5308   44.0815 H   0  0  0  0  0  0  0  0  0  0  0  0
   58.6011   33.6196   43.1076 H   0  0  0  0  0  0  0  0  0  0  0  0
   60.3109   34.7830   44.6344 H   0  0  0  0  0  0  0  0  0  0  0  0
   58.6061   35.3080   44.8074 H   0  0  0  0  0  0  0  0  0  0  0  0
   59.5819   34.6205   49.0153 H   0  0  0  0  0  0  0  0  0  0  0  0
   61.6368   34.4303   50.4005 H   0  0  0  0  0  0  0  0  0  0  0  0
   64.5004   31.2284   52.5773 H   0  0  0  0  0  0  0  0  0  0  0  0
   63.0125   29.3710   53.3223 H   0  0  0  0  0  0  0  0  0  0  0  0
   61.2595   28.4803   51.7924 H   0  0  0  0  0  0  0  0  0  0  0  0
   60.4730   28.3070   49.4210 H   0  0  0  0  0  0  0  0  0  0  0  0
   61.2815   30.2685   45.9206 H   0  0  0  0  0  0  0  0  0  0  0  0
   60.5358   29.2902   43.7545 H   0  0  0  0  0  0  0  0  0  0  0  0
   58.3882   28.0222   43.6188 H   0  0  0  0  0  0  0  0  0  0  0  0
   57.0095   27.6842   45.6745 H   0  0  0  0  0  0  0  0  0  0  0  0
   57.7608   28.6258   47.8575 H   0  0  0  0  0  0  0  0  0  0  0  0
   62.4542   31.3316   48.7570 H   0  0  0  0  0  0  0  0  0  0  0  0
   63.9206   33.3945   46.8766 H   0  0  0  0  0  0  0  0  0  0  0  0
   61.8512   33.4828   45.4980 H   0  0  0  0  0  0  0  0  0  0  0  0
   58.3037   32.6332   47.5039 H   0  0  0  0  0  0  0  0  0  0  0  0
   57.6714   34.3314   47.6274 H   0  0  0  0  0  0  0  0  0  0  0  0
   56.2670   32.5759   46.2968 H   0  0  0  0  0  0  0  0  0  0  0  0
   56.5459   34.2023   45.5733 H   0  0  0  0  0  0  0  0  0  0  0  0
  1  2  1  0
  2  3  1  0
  3  4  2  0
  3  5  1  0
  5  6  1  0
  6  7  1  0
  7  8  1  0
  8  9  1  0
  9 10  2  0
 10 11  1  0
 11 12  2  0
 12 13  1  0
 13 14  1  0
 14 15  2  0
 14 16  1  0
 16 17  2  0
 17 18  1  0
 18 19  2  0
 19 20  1  0
 20 21  1  0
 21 22  1  0
 22 23  2  0
 22 24  1  0
 24 25  2  0
 25 26  1  0
 26 27  2  0
 27 28  1  0
 28 29  2  0
 20 30  2  0
 12 31  1  0
 31 32  2  0
  8 33  1  0
 33 34  1  0
 34  5  1  0
 32  9  1  0
 30 16  1  0
 29 24  1  0
  1 35  1  0
  1 36  1  0
  1 37  1  0
  2 38  1  0
  2 39  1  0
  6 40  1  0
  6 41  1  0
  7 42  1  0
  7 43  1  0
 10 44  1  0
 11 45  1  0
 17 46  1  0
 18 47  1  0
 19 48  1  0
 21 49  1  0
 25 50  1  0
 26 51  1  0
 27 52  1  0
 28 53  1  0
 29 54  1  0
 30 55  1  0
 31 56  1  0
 32 57  1  0
 33 58  1  0
 33 59  1  0
 34 60  1  0
 34 61  1  0
M  CHG  1  13  -1
M  END
>  <UniqueID>  (28) 
28

>  <SMILES>  (28) 
CCC(=O)N1CCN(c2ccc([N-]C(=O)c3cccc(NC(=O)c4ccccc4)c3)cc2)CC1

>  <Energy>  (28) 
80.08112127311968

>  <Genealogy>  (28) 
CCC(=O)N1CCN(c2ccc([N-]C(=O)c3cccc(NC(=O)c4ccccc4)c3)cc2)CC1 (protonated)
CCC(=O)N1CCN(c2ccc([N-]C(=O)c3cccc(NC(=O)c4ccccc4)c3)cc2)CC1 (3D coordinates assigned)
CCC(=O)N1CCN(c2ccc([N-]C(=O)c3cccc(NC(=O)c4ccccc4)c3)cc2)CC1 (nonaromatic ring conformer: 80.08112127311968 kcal/mol)

>  <smiles>  (28) 
CCC(=O)N1CCN(c2ccc(NC(=O)c3cccc(NC(=O)c4ccccc4)c3)cc2)CC1

>  <score_type>  (28) 
oracle

>  <origin>  (28) 
adg

>  <m_score__min__energy>  (28) 
-10.880000000000001

>  <m_primary>  (28) 
energy

$$$$
28:0
     RDKit          3D

 40 42  0  0  0  0  0  0  0  0999 V2000
   59.6480   27.9400   48.3660 C   0  0  0  0  0  0  0  0  0  0  0  0
   59.6340   28.9760   47.5110 C   0  0  0  0  0  0  0  0  0  0  0  0
   59.2660   28.9330   46.1620 C   0  0  0  0  0  0  0  0  0  0  0  0
   58.8120   27.8680   45.4730 C   0  0  0  0  0  0  0  0  0  0  0  0
   57.5420   27.1790   45.7640 C   0  0  0  0  0  0  0  0  0  0  0  0
   57.4670   25.8790   46.0970 N   0  0  0  0  0  0  0  0  0  0  0  0
   56.1400   25.6530   46.1920 C   0  0  0  0  0  0  0  0  0  0  0  0
   55.6620   24.5320   46.5050 O   0  0  0  0  0  0  0  0  0  0  0  0
   55.3630   26.7220   45.9150 N   0  0  0  0  0  0  0  0  0  0  0  0
   56.2640   27.6780   45.6320 C   0  0  0  0  0  0  0  0  0  0  0  0
   55.9250   28.9620   45.2220 O   0  0  0  0  0  0  0  0  0  0  0  0
   59.4030   30.2270   45.6800 C   0  0  0  0  0  0  0  0  0  0  0  0
   59.8480   30.9970   46.7360 C   0  0  0  0  0  0  0  0  0  0  0  0
   60.1070   32.4460   46.6590 C   0  0  0  0  0  0  0  0  0  0  0  0
   61.2860   32.8340   46.4350 O   0  0  0  0  0  0  0  0  0  0  0  0
   59.0540   33.4160   46.8540 N   0  0  0  0  0  0  0  0  0  0  0  0
   59.3900   34.7060   47.4650 C   0  0  0  0  0  0  0  0  0  0  0  0
   57.6540   33.1080   46.5130 C   0  0  0  0  0  0  0  0  0  0  0  0
   57.5640   32.5070   45.1450 C   0  0  0  0  0  0  0  0  0  0  0  0
   56.7980   31.4330   44.8510 N   0  0  0  0  0  0  0  0  0  0  0  0
   56.8600   31.1130   43.5320 C   0  0  0  0  0  0  0  0  0  0  0  0
   57.6770   31.9340   42.7630 C   0  0  0  0  0  0  0  0  0  0  0  0
   58.3420   33.0980   43.7780 S   0  0  0  0  0  0  0  0  0  0  0  0
   59.9900   30.2400   47.8490 N   0  0  0  0  0  0  0  0  0  0  0  0
   60.3880   30.7100   49.1800 C   0  0  0  0  0  0  0  0  0  0  0  0
   59.9576   28.0930   49.4104 H   0  0  0  0  0  0  0  0  0  0  0  0
   59.3499   26.9387   48.0217 H   0  0  0  0  0  0  0  0  0  0  0  0
   59.4265   27.4897   44.6428 H   0  0  0  0  0  0  0  0  0  0  0  0
   55.8880   29.7250   45.8880 H   0  0  0  0  0  0  0  0  0  0  0  0
   59.1971   30.5721   44.6560 H   0  0  0  0  0  0  0  0  0  0  0  0
   59.3651   34.6104   48.5606 H   0  0  0  0  0  0  0  0  0  0  0  0
   60.3976   35.0113   47.1464 H   0  0  0  0  0  0  0  0  0  0  0  0
   58.6593   35.4640   47.1464 H   0  0  0  0  0  0  0  0  0  0  0  0
   57.2514   32.3954   47.2479 H   0  0  0  0  0  0  0  0  0  0  0  0
   57.0720   34.0413   46.5289 H   0  0  0  0  0  0  0  0  0  0  0  0
   56.3042   30.2659   43.1037 H   0  0  0  0  0  0  0  0  0  0  0  0
   57.8566   31.8389   41.6819 H   0  0  0  0  0  0  0  0  0  0  0  0
   59.8793   30.1092   49.9483 H   0  0  0  0  0  0  0  0  0  0  0  0
   61.4770   30.6062   49.2950 H   0  0  0  0  0  0  0  0  0  0  0  0
   60.1062   31.7671   49.2950 H   0  0  0  0  0  0  0  0  0  0  0  0
  1  2  2  0
  2  3  1  0
  3  4  2  3
  4  5  1  0
  5  6  1  0
  6  7  1  0
  7  8  2  0
  7  9  1  0
  9 10  1  0
 10 11  1  0
  3 12  1  0
 12 13  2  0
 13 14  1  0
 14 15  2  0
 14 16  1  0
 16 17  1  0
 16 18  1  0
 18 19  1  0
 19 20  2  0
 20 21  1  0
 21 22  2  0
 22 23  1  0
 13 24  1  0
 24 25  1  0
 24  2  1  0
 10  5  2  0
 23 19  1  0
  1 26  1  0
  1 27  1  0
  4 28  1  0
 11 29  1  0
 12 30  1  0
 17 31  1  0
 17 32  1  0
 17 33  1  0
 18 34  1  0
 18 35  1  0
 21 36  1  0
 22 37  1  0
 25 38  1  0
 25 39  1  0
 25 40  1  0
M  CHG  2   6  -1   9  -1
M  END
>  <UniqueID>  (29) 
29

>  <SMILES>  (29) 
C=c1c(=Cc2[n-]c(=O)[n-]c2O)cc(C(=O)N(C)Cc2nccs2)n1C

>  <Energy>  (29) 
136.54598226893282

>  <Genealogy>  (29) 
C=c1c(=Cc2[n-]c(=O)[n-]c2O)cc(C(=O)N(C)Cc2nccs2)n1C (protonated)
C=c1c(=Cc2[n-]c(=O)[n-]c2O)cc(C(=O)N(C)Cc2nccs2)n1C (3D coordinates assigned)
C=c1c(=Cc2[n-]c(=O)[n-]c2O)cc(C(=O)N(C)Cc2nccs2)n1C (optimized conformer: 136.54598226893282 kcal/mol)

>  <smiles>  (29) 
C=c1c(=Cc2[nH]c(=O)[nH]c2O)cc(C(=O)N(C)Cc2nccs2)n1C

>  <score_type>  (29) 
oracle

>  <origin>  (29) 
adg

>  <m_score__min__energy>  (29) 
-11.83

>  <m_primary>  (29) 
energy

$$$$
29:0
     RDKit          3D

 63 65  0  0  0  0  0  0  0  0999 V2000
   57.0290   34.0540   45.2440 C   0  0  0  0  0  0  0  0  0  0  0  0
   58.2160   34.1790   44.6420 C   0  0  0  0  0  0  0  0  0  0  0  0
   59.2660   35.1260   45.1540 C   0  0  0  0  0  0  0  0  0  0  0  0
   59.9110   34.5840   46.4020 C   0  0  0  0  0  0  0  0  0  0  0  0
   59.2870   34.7540   47.6450 C   0  0  0  0  0  0  0  0  0  0  0  0
   59.8660   34.2300   48.8020 C   0  0  0  0  0  0  0  0  0  0  0  0
   61.0840   33.5300   48.7340 C   0  0  0  0  0  0  0  0  0  0  0  0
   61.6870   32.9830   49.8770 O   0  0  0  0  0  0  0  0  0  0  0  0
   61.2470   31.8410   50.5580 C   0  0  0  0  0  0  0  0  0  0  0  0
   60.7020   31.9290   51.6910 O   0  0  0  0  0  0  0  0  0  0  0  0
   61.4530   30.4970   49.9380 C   0  0  0  0  0  0  0  0  0  0  0  0
   60.5420   30.3350   48.7540 C   0  0  0  0  0  0  0  0  0  0  0  0
   59.3610   31.0890   48.6560 C   0  0  0  0  0  0  0  0  0  0  0  0
   58.5020   30.9160   47.5680 C   0  0  0  0  0  0  0  0  0  0  0  0
   58.8040   29.9770   46.5730 C   0  0  0  0  0  0  0  0  0  0  0  0
   57.7340   29.7870   45.1870 S   0  0  0  0  0  0  0  0  0  0  0  0
   58.5420   29.3880   43.9840 O   0  0  0  0  0  0  0  0  0  0  0  0
   57.0350   31.0830   44.8810 O   0  0  0  0  0  0  0  0  0  0  0  0
   56.5630   28.5570   45.5210 N   0  0  0  0  0  0  0  0  0  0  0  0
   56.9270   27.2570   45.9900 C   0  0  0  0  0  0  0  0  0  0  0  0
   58.0210   27.0830   46.5910 O   0  0  0  0  0  0  0  0  0  0  0  0
   56.0380   26.1550   45.7700 N   0  0  0  0  0  0  0  0  0  0  0  0
   56.3320   24.7980   46.2500 C   0  0  0  0  0  0  0  0  0  0  0  0
   57.7300   24.3260   45.7680 C   0  0  0  0  0  0  0  0  0  0  0  0
   57.6920   23.4500   44.4990 C   0  0  0  0  0  0  0  0  0  0  0  0
   56.5370   23.8350   43.5700 C   0  0  0  0  0  0  0  0  0  0  0  0
   55.1650   23.6920   44.2620 C   0  0  0  0  0  0  0  0  0  0  0  0
   55.2310   23.8220   45.7970 C   0  0  0  0  0  0  0  0  0  0  0  0
   59.9750   29.2130   46.6740 C   0  0  0  0  0  0  0  0  0  0  0  0
   60.8370   29.3880   47.7610 C   0  0  0  0  0  0  0  0  0  0  0  0
   61.7010   33.3270   47.4890 C   0  0  0  0  0  0  0  0  0  0  0  0
   62.9000   32.5980   47.4510 O   0  0  0  0  0  0  0  0  0  0  0  0
   64.0830   32.9520   48.1570 C   0  0  0  0  0  0  0  0  0  0  0  0
   61.1100   33.8590   46.3250 C   0  0  0  0  0  0  0  0  0  0  0  0
   56.2813   33.3525   44.8454 H   0  0  0  0  0  0  0  0  0  0  0  0
   56.7999   34.6527   46.1379 H   0  0  0  0  0  0  0  0  0  0  0  0
   58.4302   33.5735   43.7490 H   0  0  0  0  0  0  0  0  0  0  0  0
   60.0359   35.2634   44.3805 H   0  0  0  0  0  0  0  0  0  0  0  0
   58.7879   36.0874   45.3929 H   0  0  0  0  0  0  0  0  0  0  0  0
   58.3361   35.3032   47.7094 H   0  0  0  0  0  0  0  0  0  0  0  0
   59.3667   34.3654   49.7728 H   0  0  0  0  0  0  0  0  0  0  0  0
   62.4985   30.4033   49.6093 H   0  0  0  0  0  0  0  0  0  0  0  0
   61.2252   29.7172   50.6797 H   0  0  0  0  0  0  0  0  0  0  0  0
   59.1113   31.8193   49.4398 H   0  0  0  0  0  0  0  0  0  0  0  0
   57.5852   31.5192   47.4922 H   0  0  0  0  0  0  0  0  0  0  0  0
   55.1720   26.3370   45.2140 H   0  0  0  0  0  0  0  0  0  0  0  0
   56.3493   24.8150   47.3497 H   0  0  0  0  0  0  0  0  0  0  0  0
   58.3417   25.2154   45.5564 H   0  0  0  0  0  0  0  0  0  0  0  0
   58.1513   23.7045   46.5719 H   0  0  0  0  0  0  0  0  0  0  0  0
   58.6405   23.5713   43.9553 H   0  0  0  0  0  0  0  0  0  0  0  0
   57.5429   22.4059   44.8114 H   0  0  0  0  0  0  0  0  0  0  0  0
   56.6684   24.8807   43.2549 H   0  0  0  0  0  0  0  0  0  0  0  0
   56.5543   23.1536   42.7066 H   0  0  0  0  0  0  0  0  0  0  0  0
   54.4971   24.4757   43.8751 H   0  0  0  0  0  0  0  0  0  0  0  0
   54.7957   22.6800   44.0397 H   0  0  0  0  0  0  0  0  0  0  0  0
   54.2605   24.1875   46.1638 H   0  0  0  0  0  0  0  0  0  0  0  0
   55.4670   22.8304   46.2105 H   0  0  0  0  0  0  0  0  0  0  0  0
   60.2164   28.4738   45.8960 H   0  0  0  0  0  0  0  0  0  0  0  0
   61.7508   28.7805   47.8382 H   0  0  0  0  0  0  0  0  0  0  0  0
   63.8948   32.8957   49.2393 H   0  0  0  0  0  0  0  0  0  0  0  0
   64.8920   32.2566   47.8888 H   0  0  0  0  0  0  0  0  0  0  0  0
   64.3770   33.9775   47.8888 H   0  0  0  0  0  0  0  0  0  0  0  0
   61.5925   33.7046   45.3486 H   0  0  0  0  0  0  0  0  0  0  0  0
  1  2  2  0
  2  3  1  0
  3  4  1  0
  4  5  2  0
  5  6  1  0
  6  7  2  0
  7  8  1  0
  8  9  1  0
  9 10  2  0
  9 11  1  0
 11 12  1  0
 12 13  2  0
 13 14  1  0
 14 15  2  0
 15 16  1  0
 16 17  2  0
 16 18  2  0
 16 19  1  0
 19 20  1  0
 20 21  2  0
 20 22  1  0
 22 23  1  0
 23 24  1  0
 24 25  1  0
 25 26  1  0
 26 27  1  0
 27 28  1  0
 15 29  1  0
 29 30  2  0
  7 31  1  0
 31 32  1  0
 32 33  1  0
 31 34  2  0
 34  4  1  0
 30 12  1  0
 28 23  1  0
  1 35  1  0
  1 36  1  0
  2 37  1  0
  3 38  1  0
  3 39  1  0
  5 40  1  0
  6 41  1  0
 11 42  1  0
 11 43  1  0
 13 44  1  0
 14 45  1  0
 22 46  1  0
 23 47  1  0
 24 48  1  0
 24 49  1  0
 25 50  1  0
 25 51  1  0
 26 52  1  0
 26 53  1  0
 27 54  1  0
 27 55  1  0
 28 56  1  0
 28 57  1  0
 29 58  1  0
 30 59  1  0
 33 60  1  0
 33 61  1  0
 33 62  1  0
 34 63  1  0
M  CHG  1  19  -1
M  END
>  <UniqueID>  (30) 
30

>  <SMILES>  (30) 
C=CCc1ccc(OC(=O)Cc2ccc(S(=O)(=O)[N-]C(=O)NC3CCCCC3)cc2)c(OC)c1

>  <Energy>  (30) 
64.43390276469597

>  <Genealogy>  (30) 
C=CCc1ccc(OC(=O)Cc2ccc(S(=O)(=O)[N-]C(=O)NC3CCCCC3)cc2)c(OC)c1 (protonated)
C=CCc1ccc(OC(=O)Cc2ccc(S(=O)(=O)[N-]C(=O)NC3CCCCC3)cc2)c(OC)c1 (3D coordinates assigned)
C=CCc1ccc(OC(=O)Cc2ccc(S(=O)(=O)[N-]C(=O)NC3CCCCC3)cc2)c(OC)c1 (nonaromatic ring conformer: 64.43390276469597 kcal/mol)

>  <smiles>  (30) 
C=CCc1ccc(OC(=O)Cc2ccc(S(=O)(=O)NC(=O)NC3CCCCC3)cc2)c(OC)c1

>  <score_type>  (30) 
oracle

>  <origin>  (30) 
adg

>  <m_score__min__energy>  (30) 
-10.85

>  <m_primary>  (30) 
energy

$$$$
30:0
     RDKit          3D

 41 44  0  0  0  0  0  0  0  0999 V2000
   54.4030   29.3530   45.4610 H   0  0  0  0  0  0  0  0  0  0  0  0
   55.1280   29.8310   44.8820 N   0  0  0  0  0  0  0  0  0  0  0  0
   56.3210   29.1520   44.4950 C   0  0  0  0  0  0  0  0  0  0  0  0
   56.9730   29.5640   43.5000 O   0  0  0  0  0  0  0  0  0  0  0  0
   56.7740   27.9820   45.2650 C   0  0  0  0  0  0  0  0  0  0  0  0
   55.9400   27.0090   45.6700 N   0  0  0  0  0  0  0  0  0  0  0  0
   56.7470   26.1390   46.3180 C   0  0  0  0  0  0  0  0  0  0  0  0
   56.3260   25.0540   46.8990 N   0  0  0  0  0  0  0  0  0  0  0  0
   55.1910   24.2610   46.5160 C   0  0  0  0  0  0  0  0  0  0  0  0
   55.1020   22.9350   47.0030 C   0  0  0  0  0  0  0  0  0  0  0  0
   55.8831   22.5504   47.6752 H   0  0  0  0  0  0  0  0  0  0  0  0
   54.0280   22.1020   46.6390 C   0  0  0  0  0  0  0  0  0  0  0  0
   53.9487   21.0767   47.0296 H   0  0  0  0  0  0  0  0  0  0  0  0
   53.0690   22.6140   45.7700 C   0  0  0  0  0  0  0  0  0  0  0  0
   51.9850   21.9710   45.3000 N   0  0  0  0  0  0  0  0  0  0  0  0
   51.3960   22.8820   44.4890 C   0  0  0  0  0  0  0  0  0  0  0  0
   50.2260   22.6250   43.7880 O   0  0  0  0  0  0  0  0  0  0  0  0
   52.0900   24.0830   44.4380 C   0  0  0  0  0  0  0  0  0  0  0  0
   51.8385   24.9848   43.8605 H   0  0  0  0  0  0  0  0  0  0  0  0
   53.1620   23.8880   45.2730 C   0  0  0  0  0  0  0  0  0  0  0  0
   54.2110   24.7390   45.6120 C   0  0  0  0  0  0  0  0  0  0  0  0
   54.2765   25.7527   45.1900 H   0  0  0  0  0  0  0  0  0  0  0  0
   58.0410   26.5140   46.3580 N   0  0  0  0  0  0  0  0  0  0  0  0
   58.0590   27.6800   45.6890 C   0  0  0  0  0  0  0  0  0  0  0  0
   59.3220   28.4620   45.4420 C   0  0  0  0  0  0  0  0  0  0  0  0
   59.4661   28.5643   44.3563 H   0  0  0  0  0  0  0  0  0  0  0  0
   60.1509   27.9123   45.9119 H   0  0  0  0  0  0  0  0  0  0  0  0
   59.2820   29.8490   46.0600 C   0  0  0  0  0  0  0  0  0  0  0  0
   58.8470   30.9420   45.2810 C   0  0  0  0  0  0  0  0  0  0  0  0
   58.5319   30.7751   44.2404 H   0  0  0  0  0  0  0  0  0  0  0  0
   58.8110   32.2310   45.8120 C   0  0  0  0  0  0  0  0  0  0  0  0
   58.4507   33.0685   45.1966 H   0  0  0  0  0  0  0  0  0  0  0  0
   59.2310   32.4600   47.1220 C   0  0  0  0  0  0  0  0  0  0  0  0
   59.1800   34.0830   47.7880 Cl  0  0  0  0  0  0  0  0  0  0  0  0
   59.7070   31.4020   47.8970 C   0  0  0  0  0  0  0  0  0  0  0  0
   60.0446   31.5909   48.9267 H   0  0  0  0  0  0  0  0  0  0  0  0
   59.7600   30.0960   47.3760 C   0  0  0  0  0  0  0  0  0  0  0  0
   60.3250   28.9950   48.2360 C   0  0  0  0  0  0  0  0  0  0  0  0
   60.1923   29.2537   49.2969 H   0  0  0  0  0  0  0  0  0  0  0  0
   59.7985   28.0538   48.0194 H   0  0  0  0  0  0  0  0  0  0  0  0
   61.3966   28.8739   48.0194 H   0  0  0  0  0  0  0  0  0  0  0  0
  1  2  1  0
  2  3  1  0
  3  4  2  0
  3  5  1  0
  5  6  1  0
  6  7  1  0
  7  8  2  0
  8  9  1  0
  9 10  2  0
 10 11  1  0
 10 12  1  0
 12 13  1  0
 12 14  2  0
 14 15  1  0
 15 16  1  0
 16 17  1  0
 16 18  2  0
 18 19  1  0
 18 20  1  0
 20 21  2  0
 21 22  1  0
  7 23  1  0
 23 24  1  0
 24 25  1  0
 25 26  1  0
 25 27  1  0
 25 28  1  0
 28 29  2  0
 29 30  1  0
 29 31  1  0
 31 32  1  0
 31 33  2  0
 33 34  1  0
 33 35  1  0
 35 36  1  0
 35 37  2  0
 37 38  1  0
 38 39  1  0
 38 40  1  0
 38 41  1  0
 24  5  2  0
 37 28  1  0
 21  9  1  0
 20 14  1  0
M  CHG  5   2  -1   6  -1  15  -1  17  -1  23  -1
M  END
>  <UniqueID>  (31) 
31

>  <SMILES>  (31) 
Cc1cc(Cl)ccc1Cc1[n-]/c(=N/c2ccc3[n-]c([O-])cc3c2)[n-]c1C([NH-])=O

>  <Energy>  (31) 
112.02012490029229

>  <Genealogy>  (31) 
Cc1cc(Cl)ccc1Cc1[n-]c(=Nc2ccc3[n-]c([O-])cc3c2)[n-]c1C([NH-])=O (protonated)
Cc1cc(Cl)ccc1Cc1[n-]/c(=N/c2ccc3[n-]c([O-])cc3c2)[n-]c1C([NH-])=O (cis-trans isomerization)
Cc1cc(Cl)ccc1Cc1[n-]/c(=N/c2ccc3[n-]c([O-])cc3c2)[n-]c1C([NH-])=O (3D coordinates assigned)
Cc1cc(Cl)ccc1Cc1[n-]/c(=N/c2ccc3[n-]c([O-])cc3c2)[n-]c1C([NH-])=O (optimized conformer: 112.02012490029229 kcal/mol)

>  <smiles>  (31) 
Cc1cc(Cl)ccc1Cc1[nH]c(=Nc2ccc3[nH]c(O)cc3c2)[nH]c1C(N)=O

>  <score_type>  (31) 
oracle

>  <origin>  (31) 
adg

>  <m_score__min__energy>  (31) 
-16.300000000000001

>  <m_primary>  (31) 
energy

$$$$
31:0
     RDKit          3D

 52 54  0  0  0  0  0  0  0  0999 V2000
   62.1580   31.4420   50.4670 C   0  0  0  0  0  0  0  0  0  0  0  0
   62.8470   31.2780   49.1160 C   0  0  0  0  0  0  0  0  0  0  0  0
   63.5070   32.5310   48.7240 N   0  0  0  0  0  0  0  0  0  0  0  0
   64.7520   32.9510   49.3770 C   0  0  0  0  0  0  0  0  0  0  0  0
   63.0280   33.2560   47.5730 C   0  0  0  0  0  0  0  0  0  0  0  0
   63.7930   33.4260   46.5850 O   0  0  0  0  0  0  0  0  0  0  0  0
   61.6560   33.8050   47.5210 C   0  0  0  0  0  0  0  0  0  0  0  0
   60.9640   34.1130   48.7040 C   0  0  0  0  0  0  0  0  0  0  0  0
   59.6570   34.6050   48.6480 C   0  0  0  0  0  0  0  0  0  0  0  0
   59.0250   34.7820   47.4150 C   0  0  0  0  0  0  0  0  0  0  0  0
   59.6990   34.4710   46.2250 C   0  0  0  0  0  0  0  0  0  0  0  0
   58.9990   34.6090   44.8990 C   0  0  0  0  0  0  0  0  0  0  0  0
   58.2230   33.3580   44.5930 C   0  0  0  0  0  0  0  0  0  0  0  0
   58.4290   32.6560   43.3990 C   0  0  0  0  0  0  0  0  0  0  0  0
   57.7470   31.5060   43.1610 N   0  0  0  0  0  0  0  0  0  0  0  0
   56.8660   31.0110   44.0710 C   0  0  0  0  0  0  0  0  0  0  0  0
   56.1410   29.7650   43.7920 C   0  0  0  0  0  0  0  0  0  0  0  0
   55.8840   29.4410   42.6020 O   0  0  0  0  0  0  0  0  0  0  0  0
   55.7330   28.9230   44.8750 N   0  0  0  0  0  0  0  0  0  0  0  0
   56.6250   27.9890   45.5540 C   0  0  0  0  0  0  0  0  0  0  0  0
   57.9900   28.5990   45.7240 C   0  0  0  0  0  0  0  0  0  0  0  0
   59.0130   28.2960   44.8100 C   0  0  0  0  0  0  0  0  0  0  0  0
   60.2780   28.8750   44.9500 C   0  0  0  0  0  0  0  0  0  0  0  0
   60.5290   29.7610   46.0020 C   0  0  0  0  0  0  0  0  0  0  0  0
   59.5150   30.0710   46.9130 C   0  0  0  0  0  0  0  0  0  0  0  0
   59.7600   30.9330   47.9310 F   0  0  0  0  0  0  0  0  0  0  0  0
   58.2480   29.4940   46.7750 C   0  0  0  0  0  0  0  0  0  0  0  0
   56.6610   31.6710   45.2420 N   0  0  0  0  0  0  0  0  0  0  0  0
   57.3210   32.8250   45.5210 C   0  0  0  0  0  0  0  0  0  0  0  0
   61.0100   33.9690   46.2840 C   0  0  0  0  0  0  0  0  0  0  0  0
   62.8859   31.2687   51.2733 H   0  0  0  0  0  0  0  0  0  0  0  0
   61.7536   32.4615   50.5510 H   0  0  0  0  0  0  0  0  0  0  0  0
   61.3376   30.7140   50.5510 H   0  0  0  0  0  0  0  0  0  0  0  0
   63.5992   30.4786   49.1871 H   0  0  0  0  0  0  0  0  0  0  0  0
   62.0922   31.0194   48.3588 H   0  0  0  0  0  0  0  0  0  0  0  0
   64.6258   32.9084   50.4689 H   0  0  0  0  0  0  0  0  0  0  0  0
   65.5689   32.2787   49.0758 H   0  0  0  0  0  0  0  0  0  0  0  0
   64.9947   33.9808   49.0758 H   0  0  0  0  0  0  0  0  0  0  0  0
   61.4528   33.9664   49.6785 H   0  0  0  0  0  0  0  0  0  0  0  0
   59.1244   34.8536   49.5778 H   0  0  0  0  0  0  0  0  0  0  0  0
   57.9951   35.1666   47.3772 H   0  0  0  0  0  0  0  0  0  0  0  0
   58.3090   35.4648   44.9389 H   0  0  0  0  0  0  0  0  0  0  0  0
   59.7489   34.7700   44.1105 H   0  0  0  0  0  0  0  0  0  0  0  0
   59.1433   33.0361   42.6538 H   0  0  0  0  0  0  0  0  0  0  0  0
   56.2106   27.7459   46.5435 H   0  0  0  0  0  0  0  0  0  0  0  0
   56.7147   27.0755   44.9478 H   0  0  0  0  0  0  0  0  0  0  0  0
   58.8180   27.6002   43.9806 H   0  0  0  0  0  0  0  0  0  0  0  0
   61.0758   28.6334   44.2323 H   0  0  0  0  0  0  0  0  0  0  0  0
   61.5250   30.2145   46.1129 H   0  0  0  0  0  0  0  0  0  0  0  0
   57.4515   29.7421   47.4919 H   0  0  0  0  0  0  0  0  0  0  0  0
   57.1465   33.3408   46.4767 H   0  0  0  0  0  0  0  0  0  0  0  0
   61.5347   33.7023   45.3547 H   0  0  0  0  0  0  0  0  0  0  0  0
  1  2  1  0
  2  3  1  0
  3  4  1  0
  3  5  1  0
  5  6  2  0
  5  7  1  0
  7  8  2  0
  8  9  1  0
  9 10  2  0
 10 11  1  0
 11 12  1  0
 12 13  1  0
 13 14  2  0
 14 15  1  0
 15 16  2  0
 16 17  1  0
 17 18  2  0
 17 19  1  0
 19 20  1  0
 20 21  1  0
 21 22  2  0
 22 23  1  0
 23 24  2  0
 24 25  1  0
 25 26  1  0
 25 27  2  0
 16 28  1  0
 28 29  2  0
 11 30  2  0
 30  7  1  0
 29 13  1  0
 27 21  1  0
  1 31  1  0
  1 32  1  0
  1 33  1  0
  2 34  1  0
  2 35  1  0
  4 36  1  0
  4 37  1  0
  4 38  1  0
  8 39  1  0
  9 40  1  0
 10 41  1  0
 12 42  1  0
 12 43  1  0
 14 44  1  0
 20 45  1  0
 20 46  1  0
 22 47  1  0
 23 48  1  0
 24 49  1  0
 27 50  1  0
 29 51  1  0
 30 52  1  0
M  CHG  1  19  -1
M  END
>  <UniqueID>  (32) 
32

>  <SMILES>  (32) 
CCN(C)C(=O)c1cccc(Cc2cnc(C(=O)[N-]Cc3cccc(F)c3)nc2)c1

>  <Energy>  (32) 
51.09765334917003

>  <Genealogy>  (32) 
CCN(C)C(=O)c1cccc(Cc2cnc(C(=O)[N-]Cc3cccc(F)c3)nc2)c1 (protonated)
CCN(C)C(=O)c1cccc(Cc2cnc(C(=O)[N-]Cc3cccc(F)c3)nc2)c1 (3D coordinates assigned)
CCN(C)C(=O)c1cccc(Cc2cnc(C(=O)[N-]Cc3cccc(F)c3)nc2)c1 (optimized conformer: 51.09765334917003 kcal/mol)

>  <smiles>  (32) 
CCN(C)C(=O)c1cccc(Cc2cnc(C(=O)NCc3cccc(F)c3)nc2)c1

>  <score_type>  (32) 
oracle

>  <origin>  (32) 
adg

>  <m_score__min__energy>  (32) 
-11.17

>  <m_primary>  (32) 
energy

$$$$
32:0
     RDKit          3D

 50 52  0  0  0  0  0  0  0  0999 V2000
   56.2750   30.0880   42.8560 O   0  0  0  0  0  0  0  0  0  0  0  0
   56.6860   29.9130   44.0300 C   0  0  0  0  0  0  0  0  0  0  0  0
   55.9240   28.9560   44.9070 C   0  0  0  0  0  0  0  0  0  0  0  0
   56.7930   27.9060   45.4290 N   0  0  0  0  0  0  0  0  0  0  0  0
   56.3210   26.6980   46.0450 C   0  0  0  0  0  0  0  0  0  0  0  0
   55.0920   26.4390   45.9960 O   0  0  0  0  0  0  0  0  0  0  0  0
   57.2260   25.7760   46.7740 C   0  0  0  0  0  0  0  0  0  0  0  0
   57.0690   24.5290   46.6720 O   0  0  0  0  0  0  0  0  0  0  0  0
   58.3620   26.2500   47.5040 N   0  0  0  0  0  0  0  0  0  0  0  0
   59.1120   27.4490   47.2600 C   0  0  0  0  0  0  0  0  0  0  0  0
   59.3500   28.4000   48.2780 C   0  0  0  0  0  0  0  0  0  0  0  0
   60.1600   29.5150   48.0180 C   0  0  0  0  0  0  0  0  0  0  0  0
   60.7230   29.6960   46.7500 C   0  0  0  0  0  0  0  0  0  0  0  0
   61.4950   30.7840   46.5000 F   0  0  0  0  0  0  0  0  0  0  0  0
   60.4940   28.7510   45.7410 C   0  0  0  0  0  0  0  0  0  0  0  0
   59.7000   27.6270   45.9970 C   0  0  0  0  0  0  0  0  0  0  0  0
   59.5010   26.7030   45.0150 F   0  0  0  0  0  0  0  0  0  0  0  0
   57.8780   30.6030   44.4390 N   0  0  0  0  0  0  0  0  0  0  0  0
   58.0450   31.8800   45.0740 C   0  0  0  0  0  0  0  0  0  0  0  0
   57.4320   32.9940   44.4870 C   0  0  0  0  0  0  0  0  0  0  0  0
   57.5340   34.2550   45.0790 C   0  0  0  0  0  0  0  0  0  0  0  0
   58.2450   34.4100   46.2690 C   0  0  0  0  0  0  0  0  0  0  0  0
   58.8290   33.3010   46.8940 C   0  0  0  0  0  0  0  0  0  0  0  0
   59.7480   33.5140   48.3950 S   0  0  0  0  0  0  0  0  0  0  0  0
   59.1270   32.6650   49.4690 O   0  0  0  0  0  0  0  0  0  0  0  0
   59.6380   34.9500   48.8200 O   0  0  0  0  0  0  0  0  0  0  0  0
   61.4300   33.0470   48.2550 N   0  0  0  0  0  0  0  0  0  0  0  0
   62.0520   33.6490   47.0670 C   0  0  0  0  0  0  0  0  0  0  0  0
   63.4930   33.1180   46.9100 C   0  0  0  0  0  0  0  0  0  0  0  0
   64.0680   32.6660   48.1320 O   0  0  0  0  0  0  0  0  0  0  0  0
   63.6930   33.5030   49.2040 C   0  0  0  0  0  0  0  0  0  0  0  0
   62.1880   33.3440   49.4880 C   0  0  0  0  0  0  0  0  0  0  0  0
   58.7230   32.0340   46.2940 C   0  0  0  0  0  0  0  0  0  0  0  0
   55.4884   29.5123   45.7501 H   0  0  0  0  0  0  0  0  0  0  0  0
   55.1356   28.4844   44.3021 H   0  0  0  0  0  0  0  0  0  0  0  0
   58.9005   28.2658   49.2730 H   0  0  0  0  0  0  0  0  0  0  0  0
   60.3533   30.2496   48.8136 H   0  0  0  0  0  0  0  0  0  0  0  0
   60.9393   28.8928   44.7452 H   0  0  0  0  0  0  0  0  0  0  0  0
   56.8653   32.8749   43.5517 H   0  0  0  0  0  0  0  0  0  0  0  0
   57.0541   35.1251   44.6072 H   0  0  0  0  0  0  0  0  0  0  0  0
   58.3476   35.4085   46.7189 H   0  0  0  0  0  0  0  0  0  0  0  0
   61.4658   33.3859   46.1741 H   0  0  0  0  0  0  0  0  0  0  0  0
   62.0769   34.7426   47.1829 H   0  0  0  0  0  0  0  0  0  0  0  0
   63.4791   32.2779   46.2000 H   0  0  0  0  0  0  0  0  0  0  0  0
   64.1095   33.9560   46.5527 H   0  0  0  0  0  0  0  0  0  0  0  0
   64.2653   33.2255   50.1015 H   0  0  0  0  0  0  0  0  0  0  0  0
   63.9040   34.5495   48.9388 H   0  0  0  0  0  0  0  0  0  0  0  0
   62.0447   32.5199   50.2023 H   0  0  0  0  0  0  0  0  0  0  0  0
   61.8140   34.2921   49.9017 H   0  0  0  0  0  0  0  0  0  0  0  0
   59.1739   31.1580   46.7832 H   0  0  0  0  0  0  0  0  0  0  0  0
  1  2  2  0
  2  3  1  0
  3  4  1  0
  4  5  1  0
  5  6  2  0
  5  7  1  0
  7  8  2  0
  7  9  1  0
  9 10  1  0
 10 11  2  0
 11 12  1  0
 12 13  2  0
 13 14  1  0
 13 15  1  0
 15 16  2  0
 16 17  1  0
  2 18  1  0
 18 19  1  0
 19 20  2  0
 20 21  1  0
 21 22  2  0
 22 23  1  0
 23 24  1  0
 24 25  2  0
 24 26  2  0
 24 27  1  0
 27 28  1  0
 28 29  1  0
 29 30  1  0
 30 31  1  0
 31 32  1  0
 23 33  2  0
 16 10  1  0
 33 19  1  0
 32 27  1  0
  3 34  1  0
  3 35  1  0
 11 36  1  0
 12 37  1  0
 15 38  1  0
 20 39  1  0
 21 40  1  0
 22 41  1  0
 28 42  1  0
 28 43  1  0
 29 44  1  0
 29 45  1  0
 31 46  1  0
 31 47  1  0
 32 48  1  0
 32 49  1  0
 33 50  1  0
M  CHG  3   4  -1   9  -1  18  -1
M  END
>  <UniqueID>  (33) 
33

>  <SMILES>  (33) 
O=C(C[N-]C(=O)C(=O)[N-]c1ccc(F)cc1F)[N-]c1cccc(S(=O)(=O)N2CCOCC2)c1

>  <Energy>  (33) 
71.18294114413614

>  <Genealogy>  (33) 
O=C(C[N-]C(=O)C(=O)[N-]c1ccc(F)cc1F)[N-]c1cccc(S(=O)(=O)N2CCOCC2)c1 (protonated)
O=C(C[N-]C(=O)C(=O)[N-]c1ccc(F)cc1F)[N-]c1cccc(S(=O)(=O)N2CCOCC2)c1 (3D coordinates assigned)
O=C(C[N-]C(=O)C(=O)[N-]c1ccc(F)cc1F)[N-]c1cccc(S(=O)(=O)N2CCOCC2)c1 (nonaromatic ring conformer: 71.18294114413614 kcal/mol)

>  <smiles>  (33) 
O=C(CNC(=O)C(=O)Nc1ccc(F)cc1F)Nc1cccc(S(=O)(=O)N2CCOCC2)c1

>  <score_type>  (33) 
oracle

>  <origin>  (33) 
adg

>  <m_score__min__energy>  (33) 
-14.470000000000001

>  <m_primary>  (33) 
energy

$$$$
33:0
     RDKit          3D

 49 52  0  0  0  0  0  0  0  0999 V2000
   55.5240   29.7220   45.9450 H   0  0  0  0  0  0  0  0  0  0  0  0
   55.6530   28.9880   45.2590 O   0  0  0  0  0  0  0  0  0  0  0  0
   56.1530   27.7390   45.6200 C   0  0  0  0  0  0  0  0  0  0  0  0
   55.3740   26.7060   45.9790 N   0  0  0  0  0  0  0  0  0  0  0  0
   56.2720   25.7370   46.2550 C   0  0  0  0  0  0  0  0  0  0  0  0
   55.9330   24.5880   46.6410 O   0  0  0  0  0  0  0  0  0  0  0  0
   57.5630   26.0980   46.0950 N   0  0  0  0  0  0  0  0  0  0  0  0
   57.4790   27.3710   45.6650 C   0  0  0  0  0  0  0  0  0  0  0  0
   58.6350   28.2610   45.4680 C   0  0  0  0  0  0  0  0  0  0  0  0
   59.5864   27.7921   45.1766 H   0  0  0  0  0  0  0  0  0  0  0  0
   58.6280   29.6010   45.6140 C   0  0  0  0  0  0  0  0  0  0  0  0
   58.4440   30.4630   44.5500 C   0  0  0  0  0  0  0  0  0  0  0  0
   58.3585   30.1846   43.4892 H   0  0  0  0  0  0  0  0  0  0  0  0
   58.3880   31.7370   45.0700 C   0  0  0  0  0  0  0  0  0  0  0  0
   58.1860   32.9700   44.2410 C   0  0  0  0  0  0  0  0  0  0  0  0
   58.0439   33.8373   44.9025 H   0  0  0  0  0  0  0  0  0  0  0  0
   59.0693   33.1338   43.6062 H   0  0  0  0  0  0  0  0  0  0  0  0
   57.2966   32.8434   43.6062 H   0  0  0  0  0  0  0  0  0  0  0  0
   58.5880   31.7170   46.4100 N   0  0  0  0  0  0  0  0  0  0  0  0
   58.6070   32.9090   47.2790 C   0  0  0  0  0  0  0  0  0  0  0  0
   58.4387   33.8043   46.6624 H   0  0  0  0  0  0  0  0  0  0  0  0
   57.8140   32.8004   48.0335 H   0  0  0  0  0  0  0  0  0  0  0  0
   59.9310   33.0470   47.9960 C   0  0  0  0  0  0  0  0  0  0  0  0
   61.1210   33.1160   47.2560 C   0  0  0  0  0  0  0  0  0  0  0  0
   61.0820   33.0752   46.1574 H   0  0  0  0  0  0  0  0  0  0  0  0
   62.3550   33.2360   47.9000 C   0  0  0  0  0  0  0  0  0  0  0  0
   63.2779   33.2825   47.3033 H   0  0  0  0  0  0  0  0  0  0  0  0
   62.4300   33.2980   49.3040 C   0  0  0  0  0  0  0  0  0  0  0  0
   63.7080   33.4190   49.9720 N   0  0  0  0  0  0  0  0  0  0  0  0
   64.9380   32.8020   49.4930 C   0  0  0  0  0  0  0  0  0  0  0  0
   64.7891   31.7236   49.3354 H   0  0  0  0  0  0  0  0  0  0  0  0
   65.2567   33.2298   48.5310 H   0  0  0  0  0  0  0  0  0  0  0  0
   65.9750   33.0400   50.5820 C   0  0  0  0  0  0  0  0  0  0  0  0
   66.1136   32.1303   51.1847 H   0  0  0  0  0  0  0  0  0  0  0  0
   66.9562   33.2994   50.1579 H   0  0  0  0  0  0  0  0  0  0  0  0
   65.4190   34.1680   51.4430 C   0  0  0  0  0  0  0  0  0  0  0  0
   65.6363   33.9820   52.5052 H   0  0  0  0  0  0  0  0  0  0  0  0
   65.8726   35.1362   51.1844 H   0  0  0  0  0  0  0  0  0  0  0  0
   63.9160   34.1710   51.2020 C   0  0  0  0  0  0  0  0  0  0  0  0
   63.3931   33.6866   52.0398 H   0  0  0  0  0  0  0  0  0  0  0  0
   63.5217   35.1947   51.1213 H   0  0  0  0  0  0  0  0  0  0  0  0
   61.2330   33.2420   50.0430 C   0  0  0  0  0  0  0  0  0  0  0  0
   61.2705   33.2933   51.1412 H   0  0  0  0  0  0  0  0  0  0  0  0
   59.9970   33.1220   49.4000 C   0  0  0  0  0  0  0  0  0  0  0  0
   58.8400   33.0800   50.1690 O   0  0  0  0  0  0  0  0  0  0  0  0
   58.7620   30.4090   46.7570 C   0  0  0  0  0  0  0  0  0  0  0  0
   59.1410   29.9970   47.9790 C   0  0  0  0  0  0  0  0  0  0  0  0
   59.2123   30.7195   48.8054 H   0  0  0  0  0  0  0  0  0  0  0  0
   59.3798   28.9374   48.1526 H   0  0  0  0  0  0  0  0  0  0  0  0
  1  2  1  0
  2  3  1  0
  3  4  1  0
  4  5  1  0
  5  6  2  0
  5  7  1  0
  7  8  1  0
  8  9  1  0
  9 10  1  0
  9 11  2  0
 11 12  1  0
 12 13  1  0
 12 14  2  0
 14 15  1  0
 15 16  1  0
 15 17  1  0
 15 18  1  0
 14 19  1  0
 19 20  1  0
 20 21  1  0
 20 22  1  0
 20 23  1  0
 23 24  2  0
 24 25  1  0
 24 26  1  0
 26 27  1  0
 26 28  2  0
 28 29  1  0
 29 30  1  0
 30 31  1  0
 30 32  1  0
 30 33  1  0
 33 34  1  0
 33 35  1  0
 33 36  1  0
 36 37  1  0
 36 38  1  0
 36 39  1  0
 39 40  1  0
 39 41  1  0
 28 42  1  0
 42 43  1  0
 42 44  2  0
 44 45  1  0
 19 46  1  0
 46 47  2  0
 47 48  1  0
 47 49  1  0
  8  3  2  0
 46 11  1  0
 44 23  1  0
 39 29  1  0
M  CHG  3   4  -1   7  -1  45  -1
M  END
>  <UniqueID>  (34) 
34

>  <SMILES>  (34) 
C=c1/c(=C\c2[n-]c(=O)[n-]c2O)cc(C)n1Cc1ccc(N2CCCC2)cc1[O-]

>  <Energy>  (34) 
122.79741935068047

>  <Genealogy>  (34) 
C=c1c(=Cc2[n-]c(=O)[n-]c2O)cc(C)n1Cc1ccc(N2CCCC2)cc1[O-] (protonated)
C=c1/c(=C\c2[n-]c(=O)[n-]c2O)cc(C)n1Cc1ccc(N2CCCC2)cc1[O-] (cis-trans isomerization)
C=c1/c(=C\c2[n-]c(=O)[n-]c2O)cc(C)n1Cc1ccc(N2CCCC2)cc1[O-] (3D coordinates assigned)
C=c1/c(=C\c2[n-]c(=O)[n-]c2O)cc(C)n1Cc1ccc(N2CCCC2)cc1[O-] (nonaromatic ring conformer: 122.79741935068047 kcal/mol)

>  <smiles>  (34) 
C=c1c(=Cc2[nH]c(=O)[nH]c2O)cc(C)n1Cc1ccc(N2CCCC2)cc1O

>  <score_type>  (34) 
oracle

>  <origin>  (34) 
adg

>  <m_score__min__energy>  (34) 
-14.050000000000001

>  <m_primary>  (34) 
energy

$$$$
34:0
     RDKit          3D

 56 58  0  0  0  0  0  0  0  0999 V2000
   56.8820   24.6200   45.1430 C   0  0  0  0  0  0  0  0  0  0  0  0
   56.6760   26.2300   45.8850 S   0  0  0  0  0  0  0  0  0  0  0  0
   57.2710   26.2100   47.2650 O   0  0  0  0  0  0  0  0  0  0  0  0
   55.2080   26.5240   45.9980 O   0  0  0  0  0  0  0  0  0  0  0  0
   57.4420   27.4880   44.9380 N   0  0  0  0  0  0  0  0  0  0  0  0
   58.8340   27.7460   45.3900 C   0  0  0  0  0  0  0  0  0  0  0  0
   58.9810   29.0710   46.1520 C   0  0  0  0  0  0  0  0  0  0  0  0
   58.5340   30.2640   45.2720 C   0  0  0  0  0  0  0  0  0  0  0  0
   58.2130   31.4890   46.0960 C   0  0  0  0  0  0  0  0  0  0  0  0
   57.2230   32.2140   45.8070 O   0  0  0  0  0  0  0  0  0  0  0  0
   59.0750   31.8290   47.1920 N   0  0  0  0  0  0  0  0  0  0  0  0
   58.9020   31.4900   48.5770 C   0  0  0  0  0  0  0  0  0  0  0  0
   59.1640   30.2000   49.0780 C   0  0  0  0  0  0  0  0  0  0  0  0
   58.9660   29.9160   50.4320 C   0  0  0  0  0  0  0  0  0  0  0  0
   58.4750   30.9030   51.3030 C   0  0  0  0  0  0  0  0  0  0  0  0
   58.2300   30.5780   52.7510 C   0  0  0  0  0  0  0  0  0  0  0  0
   56.8400   30.0440   52.9260 C   0  0  0  0  0  0  0  0  0  0  0  0
   56.5220   29.4880   54.0110 O   0  0  0  0  0  0  0  0  0  0  0  0
   55.8790   30.1860   51.8680 N   0  0  0  0  0  0  0  0  0  0  0  0
   54.4560   30.1700   52.0650 C   0  0  0  0  0  0  0  0  0  0  0  0
   53.8590   29.0540   52.6680 C   0  0  0  0  0  0  0  0  0  0  0  0
   52.4760   28.9970   52.8380 C   0  0  0  0  0  0  0  0  0  0  0  0
   51.6700   30.0480   52.3940 C   0  0  0  0  0  0  0  0  0  0  0  0
   52.2420   31.1720   51.7690 C   0  0  0  0  0  0  0  0  0  0  0  0
   51.3870   32.2840   51.2880 C   0  0  0  0  0  0  0  0  0  0  0  0
   50.9760   32.3440   49.9220 N   0  0  0  0  0  0  0  0  0  0  0  0
   51.0120   33.1880   52.0830 O   0  0  0  0  0  0  0  0  0  0  0  0
   53.6390   31.2220   51.6040 C   0  0  0  0  0  0  0  0  0  0  0  0
   58.1780   32.1770   50.7960 C   0  0  0  0  0  0  0  0  0  0  0  0
   58.3920   32.4670   49.4440 C   0  0  0  0  0  0  0  0  0  0  0  0
   57.3460   29.8990   44.3470 C   0  0  0  0  0  0  0  0  0  0  0  0
   56.5760   28.6840   44.8730 C   0  0  0  0  0  0  0  0  0  0  0  0
   56.9790   23.8615   45.9338 H   0  0  0  0  0  0  0  0  0  0  0  0
   56.0061   24.3891   44.5190 H   0  0  0  0  0  0  0  0  0  0  0  0
   57.7878   24.6171   44.5190 H   0  0  0  0  0  0  0  0  0  0  0  0
   59.1457   26.9245   46.0518 H   0  0  0  0  0  0  0  0  0  0  0  0
   59.4652   27.8111   44.4915 H   0  0  0  0  0  0  0  0  0  0  0  0
   58.3574   29.0373   47.0576 H   0  0  0  0  0  0  0  0  0  0  0  0
   60.0389   29.2078   46.4204 H   0  0  0  0  0  0  0  0  0  0  0  0
   59.3930   30.5069   44.6293 H   0  0  0  0  0  0  0  0  0  0  0  0
   59.5261   29.4126   48.4006 H   0  0  0  0  0  0  0  0  0  0  0  0
   59.1963   28.9123   50.8186 H   0  0  0  0  0  0  0  0  0  0  0  0
   58.9560   29.8211   53.0828 H   0  0  0  0  0  0  0  0  0  0  0  0
   58.3451   31.4922   53.3519 H   0  0  0  0  0  0  0  0  0  0  0  0
   56.2390   30.2880   50.8920 H   0  0  0  0  0  0  0  0  0  0  0  0
   54.4860   28.2172   53.0095 H   0  0  0  0  0  0  0  0  0  0  0  0
   52.0186   28.1221   53.3230 H   0  0  0  0  0  0  0  0  0  0  0  0
   50.5801   29.9968   52.5339 H   0  0  0  0  0  0  0  0  0  0  0  0
   49.9640   32.3400   49.6670 H   0  0  0  0  0  0  0  0  0  0  0  0
   54.0979   32.0912   51.1101 H   0  0  0  0  0  0  0  0  0  0  0  0
   57.7749   32.9518   51.4647 H   0  0  0  0  0  0  0  0  0  0  0  0
   58.1581   33.4701   49.0579 H   0  0  0  0  0  0  0  0  0  0  0  0
   56.6614   30.7580   44.2890 H   0  0  0  0  0  0  0  0  0  0  0  0
   57.7469   29.6492   43.3536 H   0  0  0  0  0  0  0  0  0  0  0  0
   56.1979   28.9082   45.8814 H   0  0  0  0  0  0  0  0  0  0  0  0
   55.7445   28.4743   44.1840 H   0  0  0  0  0  0  0  0  0  0  0  0
  1  2  1  0
  2  3  2  0
  2  4  2  0
  2  5  1  0
  5  6  1  0
  6  7  1  0
  7  8  1  0
  8  9  1  0
  9 10  2  0
  9 11  1  0
 11 12  1  0
 12 13  2  0
 13 14  1  0
 14 15  2  0
 15 16  1  0
 16 17  1  0
 17 18  2  0
 17 19  1  0
 19 20  1  0
 20 21  2  0
 21 22  1  0
 22 23  2  0
 23 24  1  0
 24 25  1  0
 25 26  1  0
 25 27  2  0
 24 28  2  0
 15 29  1  0
 29 30  2  0
  8 31  1  0
 31 32  1  0
 32  5  1  0
 30 12  1  0
 28 20  1  0
  1 33  1  0
  1 34  1  0
  1 35  1  0
  6 36  1  0
  6 37  1  0
  7 38  1  0
  7 39  1  0
  8 40  1  0
 13 41  1  0
 14 42  1  0
 16 43  1  0
 16 44  1  0
 19 45  1  0
 21 46  1  0
 22 47  1  0
 23 48  1  0
 26 49  1  0
 28 50  1  0
 29 51  1  0
 30 52  1  0
 31 53  1  0
 31 54  1  0
 32 55  1  0
 32 56  1  0
M  CHG  2  11  -1  26  -1
M  END
>  <UniqueID>  (35) 
35

>  <SMILES>  (35) 
CS(=O)(=O)N1CCC(C(=O)[N-]c2ccc(CC(=O)Nc3cccc(C([NH-])=O)c3)cc2)CC1

>  <Energy>  (35) 
65.27511286734637

>  <Genealogy>  (35) 
CS(=O)(=O)N1CCC(C(=O)[N-]c2ccc(CC(=O)Nc3cccc(C([NH-])=O)c3)cc2)CC1 (protonated)
CS(=O)(=O)N1CCC(C(=O)[N-]c2ccc(CC(=O)Nc3cccc(C([NH-])=O)c3)cc2)CC1 (3D coordinates assigned)
CS(=O)(=O)N1CCC(C(=O)[N-]c2ccc(CC(=O)Nc3cccc(C([NH-])=O)c3)cc2)CC1 (nonaromatic ring conformer: 65.27511286734637 kcal/mol)

>  <smiles>  (35) 
CS(=O)(=O)N1CCC(C(=O)Nc2ccc(CC(=O)Nc3cccc(C(N)=O)c3)cc2)CC1

>  <score_type>  (35) 
oracle

>  <origin>  (35) 
adg

>  <m_score__min__energy>  (35) 
-15.140000000000001

>  <m_primary>  (35) 
energy

$$$$
35:0
     RDKit          3D

 59 62  0  0  0  0  0  0  0  0999 V2000
   59.0478   28.8727   45.9955 H   0  0  0  0  0  0  0  0  0  0  0  0
   58.0520   29.2620   45.7370 C   0  0  0  0  0  0  0  0  0  0  0  0
   57.0490   28.3770   45.6560 C   0  0  0  0  0  0  0  0  0  0  0  0
   56.0353   28.7806   45.5161 H   0  0  0  0  0  0  0  0  0  0  0  0
   57.1830   26.9020   45.7380 C   0  0  0  0  0  0  0  0  0  0  0  0
   58.4430   26.2690   45.6990 C   0  0  0  0  0  0  0  0  0  0  0  0
   59.3573   26.8741   45.6102 H   0  0  0  0  0  0  0  0  0  0  0  0
   58.5350   24.8710   45.7730 C   0  0  0  0  0  0  0  0  0  0  0  0
   59.5188   24.3828   45.7113 H   0  0  0  0  0  0  0  0  0  0  0  0
   57.3800   24.0950   45.9250 C   0  0  0  0  0  0  0  0  0  0  0  0
   57.4558   22.9990   45.9798 H   0  0  0  0  0  0  0  0  0  0  0  0
   56.1310   24.7150   46.0070 C   0  0  0  0  0  0  0  0  0  0  0  0
   55.2243   24.1060   46.1371 H   0  0  0  0  0  0  0  0  0  0  0  0
   56.0290   26.1120   45.9240 C   0  0  0  0  0  0  0  0  0  0  0  0
   54.7750   26.7050   46.0130 O   0  0  0  0  0  0  0  0  0  0  0  0
   57.9330   30.7120   45.5090 C   0  0  0  0  0  0  0  0  0  0  0  0
   56.9830   31.2370   44.7630 O   0  0  0  0  0  0  0  0  0  0  0  0
   57.0860   32.5320   44.7330 N   0  0  0  0  0  0  0  0  0  0  0  0
   56.4440   33.1730   44.2110 H   0  0  0  0  0  0  0  0  0  0  0  0
   58.1520   32.8880   45.4740 C   0  0  0  0  0  0  0  0  0  0  0  0
   58.6040   34.3040   45.6790 C   0  0  0  0  0  0  0  0  0  0  0  0
   58.6714   34.5150   46.7565 H   0  0  0  0  0  0  0  0  0  0  0  0
   59.5916   34.4444   45.2154 H   0  0  0  0  0  0  0  0  0  0  0  0
   57.8804   34.9906   45.2154 H   0  0  0  0  0  0  0  0  0  0  0  0
   58.7380   31.7430   45.9850 C   0  0  0  0  0  0  0  0  0  0  0  0
   60.2400   31.6640   46.9080 S   0  0  0  0  0  0  0  0  0  0  0  0
   60.9350   30.3720   46.5830 O   0  0  0  0  0  0  0  0  0  0  0  0
   61.1430   32.8130   46.5490 O   0  0  0  0  0  0  0  0  0  0  0  0
   59.8360   31.7350   48.6050 N   0  0  0  0  0  0  0  0  0  0  0  0
   59.2720   33.0500   48.9500 C   0  0  0  0  0  0  0  0  0  0  0  0
   58.3206   33.1892   48.4157 H   0  0  0  0  0  0  0  0  0  0  0  0
   59.9845   33.8352   48.6570 H   0  0  0  0  0  0  0  0  0  0  0  0
   59.0230   33.1370   50.4590 C   0  0  0  0  0  0  0  0  0  0  0  0
   58.5559   34.1050   50.6933 H   0  0  0  0  0  0  0  0  0  0  0  0
   59.9852   33.0424   50.9836 H   0  0  0  0  0  0  0  0  0  0  0  0
   58.0920   32.0010   50.9200 C   0  0  0  0  0  0  0  0  0  0  0  0
   57.1048   32.1168   50.4489 H   0  0  0  0  0  0  0  0  0  0  0  0
   57.8560   32.0800   52.4140 C   0  0  0  0  0  0  0  0  0  0  0  0
   58.0980   33.1620   53.0100 O   0  0  0  0  0  0  0  0  0  0  0  0
   57.3090   30.9860   53.1620 N   0  0  0  0  0  0  0  0  0  0  0  0
   56.1470   30.4450   52.9320 C   0  0  0  0  0  0  0  0  0  0  0  0
   55.8820   29.1640   53.3120 N   0  0  0  0  0  0  0  0  0  0  0  0
   54.6840   28.5760   53.0610 C   0  0  0  0  0  0  0  0  0  0  0  0
   54.5067   27.5371   53.3759 H   0  0  0  0  0  0  0  0  0  0  0  0
   53.6770   29.2850   52.4050 C   0  0  0  0  0  0  0  0  0  0  0  0
   52.7106   28.8053   52.1903 H   0  0  0  0  0  0  0  0  0  0  0  0
   53.9070   30.6130   52.0220 C   0  0  0  0  0  0  0  0  0  0  0  0
   52.8540   31.3860   51.2820 C   0  0  0  0  0  0  0  0  0  0  0  0
   52.1848   31.8773   52.0036 H   0  0  0  0  0  0  0  0  0  0  0  0
   53.3343   32.1475   50.6501 H   0  0  0  0  0  0  0  0  0  0  0  0
   52.2714   30.6995   50.6501 H   0  0  0  0  0  0  0  0  0  0  0  0
   55.1570   31.1950   52.2840 C   0  0  0  0  0  0  0  0  0  0  0  0
   55.3581   32.2336   51.9824 H   0  0  0  0  0  0  0  0  0  0  0  0
   58.6390   30.6370   50.4520 C   0  0  0  0  0  0  0  0  0  0  0  0
   57.9048   29.8520   50.6857 H   0  0  0  0  0  0  0  0  0  0  0  0
   59.5864   30.4335   50.9726 H   0  0  0  0  0  0  0  0  0  0  0  0
   58.8940   30.6570   48.9430 C   0  0  0  0  0  0  0  0  0  0  0  0
   57.9436   30.8253   48.4154 H   0  0  0  0  0  0  0  0  0  0  0  0
   59.3253   29.6923   48.6374 H   0  0  0  0  0  0  0  0  0  0  0  0
  1  2  1  0
  2  3  2  0
  3  4  1  0
  3  5  1  0
  5  6  2  0
  6  7  1  0
  6  8  1  0
  8  9  1  0
  8 10  2  0
 10 11  1  0
 10 12  1  0
 12 13  1  0
 12 14  2  0
 14 15  1  0
  2 16  1  0
 16 17  1  0
 17 18  1  0
 18 19  1  0
 18 20  2  0
 20 21  1  0
 21 22  1  0
 21 23  1  0
 21 24  1  0
 20 25  1  0
 25 26  1  0
 26 27  2  0
 26 28  2  0
 26 29  1  0
 29 30  1  0
 30 31  1  0
 30 32  1  0
 30 33  1  0
 33 34  1  0
 33 35  1  0
 33 36  1  0
 36 37  1  0
 36 38  1  0
 38 39  2  0
 38 40  1  0
 40 41  2  3
 41 42  1  0
 42 43  1  0
 43 44  1  0
 43 45  2  0
 45 46  1  0
 45 47  1  0
 47 48  1  0
 48 49  1  0
 48 50  1  0
 48 51  1  0
 47 52  2  0
 52 53  1  0
 36 54  1  0
 54 55  1  0
 54 56  1  0
 54 57  1  0
 57 58  1  0
 57 59  1  0
 14  5  1  0
 25 16  2  0
 57 29  1  0
 52 41  1  0
M  CHG  3  15  -1  18   1  42  -1
M  END
>  <UniqueID>  (36) 
36

>  <SMILES>  (36) 
Cc1cc[n-]c(=NC(=O)C2CCN(S(=O)(=O)c3c(C)[nH+]oc3/C=C\c3ccccc3[O-])CC2)c1

>  <Energy>  (36) 
107.54397488358453

>  <Genealogy>  (36) 
Cc1cc[n-]c(=NC(=O)C2CCN(S(=O)(=O)c3c(C)[nH+]oc3C=Cc3ccccc3[O-])CC2)c1 (protonated)
Cc1cc[n-]c(=NC(=O)C2CCN(S(=O)(=O)c3c(C)[nH+]oc3/C=C\c3ccccc3[O-])CC2)c1 (cis-trans isomerization)
Cc1cc[n-]c(=NC(=O)C2CCN(S(=O)(=O)c3c(C)[nH+]oc3/C=C\c3ccccc3[O-])CC2)c1 (3D coordinates assigned)
Cc1cc[n-]c(=NC(=O)C2CCN(S(=O)(=O)c3c(C)[nH+]oc3/C=C\c3ccccc3[O-])CC2)c1 (nonaromatic ring conformer: 107.54397488358453 kcal/mol)

>  <smiles>  (36) 
Cc1cc[nH]c(=NC(=O)C2CCN(S(=O)(=O)c3c(C)noc3C=Cc3ccccc3O)CC2)c1

>  <score_type>  (36) 
oracle

>  <origin>  (36) 
adg

>  <m_score__min__energy>  (36) 
-14.18

>  <m_primary>  (36) 
energy

$$$$
36:0
     RDKit          3D

 47 49  0  0  0  0  0  0  0  0999 V2000
   59.3100   34.8890   45.0000 C   0  0  0  0  0  0  0  0  0  0  0  0
   59.1960   34.2540   46.3600 C   0  0  0  0  0  0  0  0  0  0  0  0
   60.0220   34.7200   47.3980 C   0  0  0  0  0  0  0  0  0  0  0  0
   59.9530   34.1520   48.6710 C   0  0  0  0  0  0  0  0  0  0  0  0
   59.0500   33.1220   48.9280 C   0  0  0  0  0  0  0  0  0  0  0  0
   58.2100   32.6580   47.9160 C   0  0  0  0  0  0  0  0  0  0  0  0
   58.2680   33.2140   46.6250 C   0  0  0  0  0  0  0  0  0  0  0  0
   57.3590   32.6840   45.5790 C   0  0  0  0  0  0  0  0  0  0  0  0
   56.6740   33.4860   44.8910 O   0  0  0  0  0  0  0  0  0  0  0  0
   57.1730   31.2750   45.3780 N   0  0  0  0  0  0  0  0  0  0  0  0
   58.1520   30.2460   45.5890 C   0  0  0  0  0  0  0  0  0  0  0  0
   58.8230   29.7170   44.4810 C   0  0  0  0  0  0  0  0  0  0  0  0
   59.7670   28.7020   44.6480 C   0  0  0  0  0  0  0  0  0  0  0  0
   60.0520   28.2120   45.9260 C   0  0  0  0  0  0  0  0  0  0  0  0
   59.4110   28.7460   47.0540 C   0  0  0  0  0  0  0  0  0  0  0  0
   59.7180   28.2100   48.3570 N   0  0  0  0  0  0  0  0  0  0  0  0
   59.5930   28.9520   49.6110 C   0  0  0  0  0  0  0  0  0  0  0  0
   60.5630   30.0960   49.6430 C   0  0  0  0  0  0  0  0  0  0  0  0
   60.5250   30.9090   50.6060 O   0  0  0  0  0  0  0  0  0  0  0  0
   61.5260   30.2620   48.5890 N   0  0  0  0  0  0  0  0  0  0  0  0
   62.3040   31.4550   48.4010 C   0  0  0  0  0  0  0  0  0  0  0  0
   63.0320   32.0260   49.4610 C   0  0  0  0  0  0  0  0  0  0  0  0
   63.7680   33.1980   49.2590 C   0  0  0  0  0  0  0  0  0  0  0  0
   63.7740   33.8170   48.0060 C   0  0  0  0  0  0  0  0  0  0  0  0
   63.0360   33.2680   46.9530 C   0  0  0  0  0  0  0  0  0  0  0  0
   63.0350   33.8730   45.7400 F   0  0  0  0  0  0  0  0  0  0  0  0
   62.2980   32.0960   47.1520 C   0  0  0  0  0  0  0  0  0  0  0  0
   58.4750   29.7840   46.8780 C   0  0  0  0  0  0  0  0  0  0  0  0
   59.5033   35.9659   45.1132 H   0  0  0  0  0  0  0  0  0  0  0  0
   60.1390   34.4238   44.4465 H   0  0  0  0  0  0  0  0  0  0  0  0
   58.3710   34.7413   44.4465 H   0  0  0  0  0  0  0  0  0  0  0  0
   60.7293   35.5400   47.2049 H   0  0  0  0  0  0  0  0  0  0  0  0
   60.6120   34.5176   49.4723 H   0  0  0  0  0  0  0  0  0  0  0  0
   58.9997   32.6740   49.9314 H   0  0  0  0  0  0  0  0  0  0  0  0
   57.4952   31.8495   48.1293 H   0  0  0  0  0  0  0  0  0  0  0  0
   58.6058   30.1025   43.4739 H   0  0  0  0  0  0  0  0  0  0  0  0
   60.2875   28.2870   43.7723 H   0  0  0  0  0  0  0  0  0  0  0  0
   60.7850   27.4009   46.0482 H   0  0  0  0  0  0  0  0  0  0  0  0
   60.0350   27.2160   48.4220 H   0  0  0  0  0  0  0  0  0  0  0  0
   58.5687   29.3432   49.6997 H   0  0  0  0  0  0  0  0  0  0  0  0
   59.8138   28.2745   50.4490 H   0  0  0  0  0  0  0  0  0  0  0  0
   61.7180   29.4480   47.9620 H   0  0  0  0  0  0  0  0  0  0  0  0
   63.0223   31.5489   50.4521 H   0  0  0  0  0  0  0  0  0  0  0  0
   64.3438   33.6338   50.0887 H   0  0  0  0  0  0  0  0  0  0  0  0
   64.3588   34.7353   47.8484 H   0  0  0  0  0  0  0  0  0  0  0  0
   61.7092   31.6740   46.3242 H   0  0  0  0  0  0  0  0  0  0  0  0
   57.9923   30.2374   47.7563 H   0  0  0  0  0  0  0  0  0  0  0  0
  1  2  1  0
  2  3  2  0
  3  4  1  0
  4  5  2  0
  5  6  1  0
  6  7  2  0
  7  8  1  0
  8  9  2  0
  8 10  1  0
 10 11  1  0
 11 12  2  0
 12 13  1  0
 13 14  2  0
 14 15  1  0
 15 16  1  0
 16 17  1  0
 17 18  1  0
 18 19  2  0
 18 20  1  0
 20 21  1  0
 21 22  2  0
 22 23  1  0
 23 24  2  0
 24 25  1  0
 25 26  1  0
 25 27  2  0
 15 28  2  0
  7  2  1  0
 28 11  1  0
 27 21  1  0
  1 29  1  0
  1 30  1  0
  1 31  1  0
  3 32  1  0
  4 33  1  0
  5 34  1  0
  6 35  1  0
 12 36  1  0
 13 37  1  0
 14 38  1  0
 16 39  1  0
 17 40  1  0
 17 41  1  0
 20 42  1  0
 22 43  1  0
 23 44  1  0
 24 45  1  0
 27 46  1  0
 28 47  1  0
M  CHG  1  10  -1
M  END
>  <UniqueID>  (37) 
37

>  <SMILES>  (37) 
Cc1ccccc1C(=O)[N-]c1cccc(NCC(=O)Nc2cccc(F)c2)c1

>  <Energy>  (37) 
58.00935909715142

>  <Genealogy>  (37) 
Cc1ccccc1C(=O)[N-]c1cccc(NCC(=O)Nc2cccc(F)c2)c1 (protonated)
Cc1ccccc1C(=O)[N-]c1cccc(NCC(=O)Nc2cccc(F)c2)c1 (3D coordinates assigned)
Cc1ccccc1C(=O)[N-]c1cccc(NCC(=O)Nc2cccc(F)c2)c1 (optimized conformer: 58.00935909715142 kcal/mol)

>  <smiles>  (37) 
Cc1ccccc1C(=O)Nc1cccc(NCC(=O)Nc2cccc(F)c2)c1

>  <score_type>  (37) 
oracle

>  <origin>  (37) 
adg

>  <m_score__min__energy>  (37) 
-10.4

>  <m_primary>  (37) 
energy

$$$$
37:0
     RDKit          3D

 66 69  0  0  0  0  0  0  0  0999 V2000
   58.4860   33.3740   52.3650 C   0  0  0  0  0  0  0  0  0  0  0  0
   59.6600   32.6750   53.0460 C   0  0  0  0  0  0  0  0  0  0  0  0
   60.7950   32.6410   52.1830 O   0  0  0  0  0  0  0  0  0  0  0  0
   61.5360   31.4800   51.9270 C   0  0  0  0  0  0  0  0  0  0  0  0
   62.7040   31.3600   52.3920 O   0  0  0  0  0  0  0  0  0  0  0  0
   60.9610   30.4160   51.1440 N   0  0  0  0  0  0  0  0  0  0  0  0
   61.6960   29.1500   50.9940 C   0  0  0  0  0  0  0  0  0  0  0  0
   60.8210   28.0510   50.3780 C   0  0  0  0  0  0  0  0  0  0  0  0
   60.1130   28.5490   49.1920 N   0  0  0  0  0  0  0  0  0  0  0  0
   59.7410   27.6240   48.1490 C   0  0  0  0  0  0  0  0  0  0  0  0
   59.6560   26.3920   48.4070 O   0  0  0  0  0  0  0  0  0  0  0  0
   59.4250   28.0910   46.7850 C   0  0  0  0  0  0  0  0  0  0  0  0
   60.3930   28.0360   45.7710 C   0  0  0  0  0  0  0  0  0  0  0  0
   60.1010   28.5170   44.4930 C   0  0  0  0  0  0  0  0  0  0  0  0
   58.8490   29.0730   44.2220 C   0  0  0  0  0  0  0  0  0  0  0  0
   57.8640   29.1150   45.2210 C   0  0  0  0  0  0  0  0  0  0  0  0
   56.5470   29.7250   44.9460 C   0  0  0  0  0  0  0  0  0  0  0  0
   55.5280   28.9880   44.8690 O   0  0  0  0  0  0  0  0  0  0  0  0
   56.4030   31.1340   44.7340 N   0  0  0  0  0  0  0  0  0  0  0  0
   57.3670   32.1400   45.0860 C   0  0  0  0  0  0  0  0  0  0  0  0
   57.7770   33.0540   44.1110 C   0  0  0  0  0  0  0  0  0  0  0  0
   58.6690   34.0800   44.4340 C   0  0  0  0  0  0  0  0  0  0  0  0
   59.1540   34.2040   45.7400 C   0  0  0  0  0  0  0  0  0  0  0  0
   58.7540   33.2950   46.7290 C   0  0  0  0  0  0  0  0  0  0  0  0
   59.3640   33.4460   48.3810 S   0  0  0  0  0  0  0  0  0  0  0  0
   59.3840   34.9010   48.7660 O   0  0  0  0  0  0  0  0  0  0  0  0
   58.4330   32.7300   49.3210 O   0  0  0  0  0  0  0  0  0  0  0  0
   60.9660   32.7650   48.5540 N   0  0  0  0  0  0  0  0  0  0  0  0
   61.8380   33.6690   49.3260 C   0  0  0  0  0  0  0  0  0  0  0  0
   63.3180   33.3630   49.0470 C   0  0  0  0  0  0  0  0  0  0  0  0
   63.6910   33.5330   47.6850 O   0  0  0  0  0  0  0  0  0  0  0  0
   62.6150   33.3700   46.7690 C   0  0  0  0  0  0  0  0  0  0  0  0
   61.5410   32.3740   47.2480 C   0  0  0  0  0  0  0  0  0  0  0  0
   57.8490   32.2740   46.4030 C   0  0  0  0  0  0  0  0  0  0  0  0
   58.1490   28.5990   46.4940 C   0  0  0  0  0  0  0  0  0  0  0  0
   59.5650   29.9160   49.1810 C   0  0  0  0  0  0  0  0  0  0  0  0
   59.6190   30.5620   50.5670 C   0  0  0  0  0  0  0  0  0  0  0  0
   57.8065   33.7786   53.1296 H   0  0  0  0  0  0  0  0  0  0  0  0
   58.8623   34.1953   51.7373 H   0  0  0  0  0  0  0  0  0  0  0  0
   57.9433   32.6518   51.7373 H   0  0  0  0  0  0  0  0  0  0  0  0
   59.9212   33.2201   53.9650 H   0  0  0  0  0  0  0  0  0  0  0  0
   59.3665   31.6423   53.2856 H   0  0  0  0  0  0  0  0  0  0  0  0
   62.5662   29.3188   50.3426 H   0  0  0  0  0  0  0  0  0  0  0  0
   62.0088   28.8164   51.9944 H   0  0  0  0  0  0  0  0  0  0  0  0
   61.4589   27.2033   50.0873 H   0  0  0  0  0  0  0  0  0  0  0  0
   60.0775   27.7339   51.1241 H   0  0  0  0  0  0  0  0  0  0  0  0
   61.3857   27.6124   45.9835 H   0  0  0  0  0  0  0  0  0  0  0  0
   60.8589   28.4578   43.6980 H   0  0  0  0  0  0  0  0  0  0  0  0
   58.6341   29.4793   43.2226 H   0  0  0  0  0  0  0  0  0  0  0  0
   57.3951   32.9650   43.0833 H   0  0  0  0  0  0  0  0  0  0  0  0
   58.9905   34.7918   43.6594 H   0  0  0  0  0  0  0  0  0  0  0  0
   59.8511   35.0169   45.9915 H   0  0  0  0  0  0  0  0  0  0  0  0
   61.6239   34.7093   49.0398 H   0  0  0  0  0  0  0  0  0  0  0  0
   61.6415   33.5208   50.3981 H   0  0  0  0  0  0  0  0  0  0  0  0
   63.9335   34.0360   49.6620 H   0  0  0  0  0  0  0  0  0  0  0  0
   63.4788   32.3032   49.2941 H   0  0  0  0  0  0  0  0  0  0  0  0
   62.1375   34.3491   46.6160 H   0  0  0  0  0  0  0  0  0  0  0  0
   63.0413   32.9621   45.8406 H   0  0  0  0  0  0  0  0  0  0  0  0
   60.7338   32.3359   46.5016 H   0  0  0  0  0  0  0  0  0  0  0  0
   62.0188   31.3904   47.3677 H   0  0  0  0  0  0  0  0  0  0  0  0
   57.5132   31.5729   47.1813 H   0  0  0  0  0  0  0  0  0  0  0  0
   57.3681   28.5924   47.2687 H   0  0  0  0  0  0  0  0  0  0  0  0
   60.1507   30.5286   48.4798 H   0  0  0  0  0  0  0  0  0  0  0  0
   58.5109   29.8589   48.8717 H   0  0  0  0  0  0  0  0  0  0  0  0
   59.3760   31.6312   50.4790 H   0  0  0  0  0  0  0  0  0  0  0  0
   58.8906   30.0634   51.2233 H   0  0  0  0  0  0  0  0  0  0  0  0
  1  2  1  0
  2  3  1  0
  3  4  1  0
  4  5  2  0
  4  6  1  0
  6  7  1  0
  7  8  1  0
  8  9  1  0
  9 10  1  0
 10 11  2  0
 10 12  1  0
 12 13  2  0
 13 14  1  0
 14 15  2  0
 15 16  1  0
 16 17  1  0
 17 18  2  0
 17 19  1  0
 19 20  1  0
 20 21  2  0
 21 22  1  0
 22 23  2  0
 23 24  1  0
 24 25  1  0
 25 26  2  0
 25 27  2  0
 25 28  1  0
 28 29  1  0
 29 30  1  0
 30 31  1  0
 31 32  1  0
 32 33  1  0
 24 34  2  0
 16 35  2  0
  9 36  1  0
 36 37  1  0
 37  6  1  0
 35 12  1  0
 34 20  1  0
 33 28  1  0
  1 38  1  0
  1 39  1  0
  1 40  1  0
  2 41  1  0
  2 42  1  0
  7 43  1  0
  7 44  1  0
  8 45  1  0
  8 46  1  0
 13 47  1  0
 14 48  1  0
 15 49  1  0
 21 50  1  0
 22 51  1  0
 23 52  1  0
 29 53  1  0
 29 54  1  0
 30 55  1  0
 30 56  1  0
 32 57  1  0
 32 58  1  0
 33 59  1  0
 33 60  1  0
 34 61  1  0
 35 62  1  0
 36 63  1  0
 36 64  1  0
 37 65  1  0
 37 66  1  0
M  CHG  1  19  -1
M  END
>  <UniqueID>  (38) 
38

>  <SMILES>  (38) 
CCOC(=O)N1CCN(C(=O)c2cccc(C(=O)[N-]c3cccc(S(=O)(=O)N4CCOCC4)c3)c2)CC1

>  <Energy>  (38) 
83.09791093813142

>  <Genealogy>  (38) 
CCOC(=O)N1CCN(C(=O)c2cccc(C(=O)[N-]c3cccc(S(=O)(=O)N4CCOCC4)c3)c2)CC1 (protonated)
CCOC(=O)N1CCN(C(=O)c2cccc(C(=O)[N-]c3cccc(S(=O)(=O)N4CCOCC4)c3)c2)CC1 (3D coordinates assigned)
CCOC(=O)N1CCN(C(=O)c2cccc(C(=O)[N-]c3cccc(S(=O)(=O)N4CCOCC4)c3)c2)CC1 (nonaromatic ring conformer: 83.09791093813142 kcal/mol)

>  <smiles>  (38) 
CCOC(=O)N1CCN(C(=O)c2cccc(C(=O)Nc3cccc(S(=O)(=O)N4CCOCC4)c3)c2)CC1

>  <score_type>  (38) 
oracle

>  <origin>  (38) 
adg

>  <m_score__min__energy>  (38) 
-12.640000000000001

>  <m_primary>  (38) 
energy

$$$$
38:0
     RDKit          3D

 63 67  0  0  0  0  0  0  0  0999 V2000
   63.3390   33.8580   46.3700 C   0  0  0  0  0  0  0  0  0  0  0  0
   62.5390   33.7100   47.4360 C   0  0  0  0  0  0  0  0  0  0  0  0
   63.1410   33.3510   48.5970 N   0  0  0  0  0  0  0  0  0  0  0  0
   62.5000   33.3630   49.7870 C   0  0  0  0  0  0  0  0  0  0  0  0
   63.1280   33.0010   50.8190 O   0  0  0  0  0  0  0  0  0  0  0  0
   61.2020   33.7910   49.8680 N   0  0  0  0  0  0  0  0  0  0  0  0
   60.5170   33.8230   51.1780 C   0  0  0  0  0  0  0  0  0  0  0  0
   59.4040   32.8060   51.2190 C   0  0  0  0  0  0  0  0  0  0  0  0
   58.2780   33.0170   52.0330 C   0  0  0  0  0  0  0  0  0  0  0  0
   57.2610   32.0590   52.0940 C   0  0  0  0  0  0  0  0  0  0  0  0
   57.3620   30.8840   51.3460 C   0  0  0  0  0  0  0  0  0  0  0  0
   58.4780   30.6640   50.5360 C   0  0  0  0  0  0  0  0  0  0  0  0
   59.4970   31.6210   50.4700 C   0  0  0  0  0  0  0  0  0  0  0  0
   60.5270   34.1330   48.7210 C   0  0  0  0  0  0  0  0  0  0  0  0
   59.3230   34.5130   48.8010 O   0  0  0  0  0  0  0  0  0  0  0  0
   61.1480   34.0280   47.4470 C   0  0  0  0  0  0  0  0  0  0  0  0
   60.3850   34.2090   46.3310 C   0  0  0  0  0  0  0  0  0  0  0  0
   59.3270   33.3030   45.8330 C   0  0  0  0  0  0  0  0  0  0  0  0
   58.1360   33.8480   45.3350 C   0  0  0  0  0  0  0  0  0  0  0  0
   57.0950   33.0110   44.9260 C   0  0  0  0  0  0  0  0  0  0  0  0
   57.2240   31.6230   45.0320 C   0  0  0  0  0  0  0  0  0  0  0  0
   56.1770   30.8050   44.6250 O   0  0  0  0  0  0  0  0  0  0  0  0
   58.4000   31.0620   45.5490 C   0  0  0  0  0  0  0  0  0  0  0  0
   58.4970   29.6370   45.6710 N   0  0  0  0  0  0  0  0  0  0  0  0
   58.1940   29.0230   46.7440 N   0  0  0  0  0  0  0  0  0  0  0  0
   57.8180   27.6400   46.7440 C   0  0  0  0  0  0  0  0  0  0  0  0
   56.7200   27.2350   45.9750 C   0  0  0  0  0  0  0  0  0  0  0  0
   56.3260   25.8940   45.9580 C   0  0  0  0  0  0  0  0  0  0  0  0
   57.0240   24.9350   46.7120 C   0  0  0  0  0  0  0  0  0  0  0  0
   56.6160   23.5110   46.7010 C   0  0  0  0  0  0  0  0  0  0  0  0
   57.0980   22.7240   47.5580 O   0  0  0  0  0  0  0  0  0  0  0  0
   55.7250   22.9830   45.7080 N   0  0  0  0  0  0  0  0  0  0  0  0
   54.2940   23.1050   45.6980 C   0  0  0  0  0  0  0  0  0  0  0  0
   53.6300   23.9780   44.8160 C   0  0  0  0  0  0  0  0  0  0  0  0
   52.2370   24.0830   44.8480 C   0  0  0  0  0  0  0  0  0  0  0  0
   51.4990   23.3370   45.7700 C   0  0  0  0  0  0  0  0  0  0  0  0
   52.1540   22.4900   46.6670 C   0  0  0  0  0  0  0  0  0  0  0  0
   53.5480   22.3780   46.6350 C   0  0  0  0  0  0  0  0  0  0  0  0
   58.1380   25.3400   47.4660 C   0  0  0  0  0  0  0  0  0  0  0  0
   58.5280   26.6820   47.4900 C   0  0  0  0  0  0  0  0  0  0  0  0
   59.4480   31.9080   45.9600 C   0  0  0  0  0  0  0  0  0  0  0  0
   62.9126   34.1480   45.3984 H   0  0  0  0  0  0  0  0  0  0  0  0
   64.4216   33.6894   46.4672 H   0  0  0  0  0  0  0  0  0  0  0  0
   61.2438   33.5959   51.9718 H   0  0  0  0  0  0  0  0  0  0  0  0
   60.0885   34.8246   51.3302 H   0  0  0  0  0  0  0  0  0  0  0  0
   58.1962   33.9404   52.6252 H   0  0  0  0  0  0  0  0  0  0  0  0
   56.3812   32.2310   52.7314 H   0  0  0  0  0  0  0  0  0  0  0  0
   56.5616   30.1310   51.3949 H   0  0  0  0  0  0  0  0  0  0  0  0
   58.5563   29.7371   49.9489 H   0  0  0  0  0  0  0  0  0  0  0  0
   60.3738   31.4448   49.8295 H   0  0  0  0  0  0  0  0  0  0  0  0
   60.5753   35.1190   45.7430 H   0  0  0  0  0  0  0  0  0  0  0  0
   58.0202   34.9397   45.2658 H   0  0  0  0  0  0  0  0  0  0  0  0
   56.1702   33.4458   44.5189 H   0  0  0  0  0  0  0  0  0  0  0  0
   56.1647   27.9760   45.3812 H   0  0  0  0  0  0  0  0  0  0  0  0
   55.4626   25.5867   45.3496 H   0  0  0  0  0  0  0  0  0  0  0  0
   54.2091   24.5792   44.0996 H   0  0  0  0  0  0  0  0  0  0  0  0
   51.7207   24.7542   44.1460 H   0  0  0  0  0  0  0  0  0  0  0  0
   50.4021   23.4166   45.7897 H   0  0  0  0  0  0  0  0  0  0  0  0
   51.5730   21.9104   47.3994 H   0  0  0  0  0  0  0  0  0  0  0  0
   54.0607   21.7163   47.3486 H   0  0  0  0  0  0  0  0  0  0  0  0
   58.7075   24.5955   48.0417 H   0  0  0  0  0  0  0  0  0  0  0  0
   59.3936   26.9902   48.0947 H   0  0  0  0  0  0  0  0  0  0  0  0
   60.3665   31.4750   46.3828 H   0  0  0  0  0  0  0  0  0  0  0  0
  1  2  2  0
  2  3  1  0
  3  4  1  0
  4  5  2  0
  4  6  1  0
  6  7  1  0
  7  8  1  0
  8  9  2  0
  9 10  1  0
 10 11  2  0
 11 12  1  0
 12 13  2  0
  6 14  1  0
 14 15  2  0
 14 16  1  0
 16 17  2  3
 17 18  1  0
 18 19  2  0
 19 20  1  0
 20 21  2  0
 21 22  1  0
 21 23  1  0
 23 24  1  0
 24 25  2  3
 25 26  1  0
 26 27  2  0
 27 28  1  0
 28 29  2  0
 29 30  1  0
 30 31  2  0
 30 32  1  0
 32 33  1  0
 33 34  2  0
 34 35  1  0
 35 36  2  0
 36 37  1  0
 37 38  2  0
 29 39  1  0
 39 40  2  0
 23 41  2  0
 16  2  1  0
 41 18  1  0
 13  8  1  0
 40 26  1  0
 38 33  1  0
  1 42  1  0
  1 43  1  0
  7 44  1  0
  7 45  1  0
  9 46  1  0
 10 47  1  0
 11 48  1  0
 12 49  1  0
 13 50  1  0
 17 51  1  0
 19 52  1  0
 20 53  1  0
 27 54  1  0
 28 55  1  0
 34 56  1  0
 35 57  1  0
 36 58  1  0
 37 59  1  0
 38 60  1  0
 39 61  1  0
 40 62  1  0
 41 63  1  0
M  CHG  3   3  -1  22  -1  32  -1
M  END
>  <UniqueID>  (39) 
39

>  <SMILES>  (39) 
C=c1[n-]c(=O)n(Cc2ccccc2)c(=O)c1=Cc1ccc([O-])c(N=Nc2ccc(C(=O)[N-]c3ccccc3)cc2)c1

>  <Energy>  (39) 
103.98757258798983

>  <Genealogy>  (39) 
C=c1[n-]c(=O)n(Cc2ccccc2)c(=O)c1=Cc1ccc([O-])c(N=Nc2ccc(C(=O)[N-]c3ccccc3)cc2)c1 (protonated)
C=c1[n-]c(=O)n(Cc2ccccc2)c(=O)c1=Cc1ccc([O-])c(N=Nc2ccc(C(=O)[N-]c3ccccc3)cc2)c1 (3D coordinates assigned)
C=c1[n-]c(=O)n(Cc2ccccc2)c(=O)c1=Cc1ccc([O-])c(N=Nc2ccc(C(=O)[N-]c3ccccc3)cc2)c1 (optimized conformer: 103.98757258798983 kcal/mol)

>  <smiles>  (39) 
C=c1[nH]c(=O)n(Cc2ccccc2)c(=O)c1=Cc1ccc(O)c(N=Nc2ccc(C(=O)Nc3ccccc3)cc2)c1

>  <score_type>  (39) 
oracle

>  <origin>  (39) 
adg

>  <m_score__min__energy>  (39) 
-15.109999999999999

>  <m_primary>  (39) 
energy

$$$$
39:0
     RDKit          3D

 51 54  0  0  0  0  0  0  0  0999 V2000
   55.5700   30.0840   43.7830 C   0  0  0  0  0  0  0  0  0  0  0  0
   55.4720   29.1580   44.8600 O   0  0  0  0  0  0  0  0  0  0  0  0
   56.5450   28.4040   45.3610 C   0  0  0  0  0  0  0  0  0  0  0  0
   57.8770   28.8580   45.2970 C   0  0  0  0  0  0  0  0  0  0  0  0
   58.9220   28.0750   45.8090 C   0  0  0  0  0  0  0  0  0  0  0  0
   60.3440   28.5690   45.7700 C   0  0  0  0  0  0  0  0  0  0  0  0
   60.6600   29.3070   47.0100 N   0  0  0  0  0  0  0  0  0  0  0  0
   60.7300   28.4260   48.1830 C   0  0  0  0  0  0  0  0  0  0  0  0
   59.8920   29.0810   49.2700 C   0  0  0  0  0  0  0  0  0  0  0  0
   59.6090   30.4490   48.8150 N   0  0  0  0  0  0  0  0  0  0  0  0
   60.6340   31.3900   49.3360 C   0  0  0  0  0  0  0  0  0  0  0  0
   60.0060   32.4220   50.2250 C   0  0  0  0  0  0  0  0  0  0  0  0
   59.8590   33.7730   49.9660 C   0  0  0  0  0  0  0  0  0  0  0  0
   59.2130   34.3340   51.0040 N   0  0  0  0  0  0  0  0  0  0  0  0
   58.9560   33.3960   51.9030 N   0  0  0  0  0  0  0  0  0  0  0  0
   58.1940   33.6150   53.1260 C   0  0  0  0  0  0  0  0  0  0  0  0
   59.4120   32.2110   51.4550 C   0  0  0  0  0  0  0  0  0  0  0  0
   59.6280   30.2990   47.3430 C   0  0  1  0  0  0  0  0  0  0  0  0
   59.8820   31.6180   46.5740 C   0  0  0  0  0  0  0  0  0  0  0  0
   58.8980   32.7380   46.8790 C   0  0  0  0  0  0  0  0  0  0  0  0
   58.8300   32.0140   45.5450 C   0  0  0  0  0  0  0  0  0  0  0  0
   58.6320   26.8340   46.3950 C   0  0  0  0  0  0  0  0  0  0  0  0
   57.3140   26.3760   46.4620 C   0  0  0  0  0  0  0  0  0  0  0  0
   56.9780   24.8170   47.2000 Cl  0  0  0  0  0  0  0  0  0  0  0  0
   56.2720   27.1580   45.9440 C   0  0  0  0  0  0  0  0  0  0  0  0
   54.9600   26.7010   46.0100 O   0  0  0  0  0  0  0  0  0  0  0  0
   55.6778   31.1026   44.1839 H   0  0  0  0  0  0  0  0  0  0  0  0
   56.4471   29.8379   43.1665 H   0  0  0  0  0  0  0  0  0  0  0  0
   54.6608   30.0269   43.1665 H   0  0  0  0  0  0  0  0  0  0  0  0
   58.0993   29.8344   44.8418 H   0  0  0  0  0  0  0  0  0  0  0  0
   61.0248   27.7103   45.6743 H   0  0  0  0  0  0  0  0  0  0  0  0
   60.4673   29.2426   44.9092 H   0  0  0  0  0  0  0  0  0  0  0  0
   60.3239   27.4337   47.9370 H   0  0  0  0  0  0  0  0  0  0  0  0
   61.7701   28.2879   48.5135 H   0  0  0  0  0  0  0  0  0  0  0  0
   58.9528   28.5261   49.4113 H   0  0  0  0  0  0  0  0  0  0  0  0
   60.4243   29.0853   50.2326 H   0  0  0  0  0  0  0  0  0  0  0  0
   61.3826   30.8256   49.9114 H   0  0  0  0  0  0  0  0  0  0  0  0
   61.1099   31.8997   48.4853 H   0  0  0  0  0  0  0  0  0  0  0  0
   60.2102   34.2984   49.0656 H   0  0  0  0  0  0  0  0  0  0  0  0
   58.9400   35.3390   51.0910 H   0  0  0  0  0  0  0  0  0  0  0  0
   58.8387   33.4297   53.9978 H   0  0  0  0  0  0  0  0  0  0  0  0
   57.8322   34.6535   53.1516 H   0  0  0  0  0  0  0  0  0  0  0  0
   57.3360   32.9271   53.1516 H   0  0  0  0  0  0  0  0  0  0  0  0
   59.3269   31.2458   51.9757 H   0  0  0  0  0  0  0  0  0  0  0  0
   58.6270   29.9723   47.0247 H   0  0  0  0  0  0  0  0  0  0  0  0
   60.9769   31.5132   46.5579 H   0  0  0  0  0  0  0  0  0  0  0  0
   58.1069   32.5857   47.6279 H   0  0  0  0  0  0  0  0  0  0  0  0
   58.9893   33.7896   47.1885 H   0  0  0  0  0  0  0  0  0  0  0  0
   57.9902   31.3373   45.3287 H   0  0  0  0  0  0  0  0  0  0  0  0
   58.8521   32.3240   44.4898 H   0  0  0  0  0  0  0  0  0  0  0  0
   59.4467   26.2183   46.8039 H   0  0  0  0  0  0  0  0  0  0  0  0
  1  2  1  0
  2  3  1  0
  3  4  2  0
  4  5  1  0
  5  6  1  0
  6  7  1  0
  7  8  1  0
  8  9  1  0
  9 10  1  0
 10 11  1  0
 11 12  1  0
 12 13  1  0
 13 14  2  0
 14 15  1  0
 15 16  1  0
 15 17  1  0
 10 18  1  0
 18 19  1  0
 19 20  1  0
 20 21  1  0
  5 22  2  0
 22 23  1  0
 23 24  1  0
 23 25  2  0
 25 26  1  0
 25  3  1  0
 18  7  1  0
 21 19  1  0
 17 12  2  0
  1 27  1  0
  1 28  1  0
  1 29  1  0
  4 30  1  0
  6 31  1  0
  6 32  1  0
  8 33  1  0
  8 34  1  0
  9 35  1  0
  9 36  1  0
 11 37  1  0
 11 38  1  0
 13 39  1  0
 14 40  1  0
 16 41  1  0
 16 42  1  0
 16 43  1  0
 17 44  1  0
 18 45  1  6
 19 46  1  0
 20 47  1  0
 20 48  1  0
 21 49  1  0
 21 50  1  0
 22 51  1  0
M  CHG  2  14   1  26  -1
M  END
>  <UniqueID>  (40) 
40

>  <SMILES>  (40) 
COc1cc(CN2CCN(Cc3c[nH+]n(C)c3)[C@H]2C2CC2)cc(Cl)c1[O-]

>  <Energy>  (40) 
353.768324395387

>  <Genealogy>  (40) 
COc1cc(CN2CCN(Cc3c[nH+]n(C)c3)C2C2CC2)cc(Cl)c1[O-] (protonated)
COc1cc(CN2CCN(Cc3c[nH+]n(C)c3)[C@H]2C2CC2)cc(Cl)c1[O-] (chirality)
COc1cc(CN2CCN(Cc3c[nH+]n(C)c3)[C@H]2C2CC2)cc(Cl)c1[O-] (3D coordinates assigned)
COc1cc(CN2CCN(Cc3c[nH+]n(C)c3)[C@H]2C2CC2)cc(Cl)c1[O-] (nonaromatic ring conformer: 353.768324395387 kcal/mol)

>  <smiles>  (40) 
COc1cc(CN2CCN(Cc3cnn(C)c3)C2C2CC2)cc(Cl)c1O

>  <score_type>  (40) 
oracle

>  <origin>  (40) 
adg

>  <m_score__min__energy>  (40) 
-10.84

>  <m_primary>  (40) 
energy

$$$$
40:0
     RDKit          3D

 58 61  0  0  0  0  0  0  0  0999 V2000
   56.7530   29.0830   53.6020 N   0  0  0  0  0  0  0  0  0  0  0  0
   56.6760   30.2070   52.7240 C   0  0  0  0  0  0  0  0  0  0  0  0
   56.0330   30.1130   51.6450 O   0  0  0  0  0  0  0  0  0  0  0  0
   57.3250   31.5090   53.0930 C   0  0  0  0  0  0  0  0  0  0  0  0
   58.1400   32.0860   51.9180 C   0  0  2  0  0  0  0  0  0  0  0  0
   57.3640   31.9860   50.6760 N   0  0  0  0  0  0  0  0  0  0  0  0
   59.4970   31.3660   51.7530 C   0  0  0  0  0  0  0  0  0  0  0  0
   59.6070   30.6320   50.4430 C   0  0  0  0  0  0  0  0  0  0  0  0
   58.9970   29.4350   50.2360 N   0  0  0  0  0  0  0  0  0  0  0  0
   59.3380   29.1360   48.9680 C   0  0  0  0  0  0  0  0  0  0  0  0
   58.9550   28.0150   48.2380 C   0  0  0  0  0  0  0  0  0  0  0  0
   59.3900   27.9130   46.8940 C   0  0  0  0  0  0  0  0  0  0  0  0
   58.9960   26.7460   46.0720 C   0  0  0  0  0  0  0  0  0  0  0  0
   59.8620   25.8950   45.7280 O   0  0  0  0  0  0  0  0  0  0  0  0
   57.6570   26.6420   45.5620 N   0  0  0  0  0  0  0  0  0  0  0  0
   56.9120   25.5770   45.4350 C   0  0  0  0  0  0  0  0  0  0  0  0
   57.5160   24.4330   45.0170 N   0  0  0  0  0  0  0  0  0  0  0  0
   56.8400   23.2680   44.8430 C   0  0  0  0  0  0  0  0  0  0  0  0
   55.4700   23.2140   45.0800 C   0  0  0  0  0  0  0  0  0  0  0  0
   54.8050   24.3680   45.4890 C   0  0  0  0  0  0  0  0  0  0  0  0
   55.5090   25.5640   45.6580 C   0  0  0  0  0  0  0  0  0  0  0  0
   54.7940   26.7100   45.9980 O   0  0  0  0  0  0  0  0  0  0  0  0
   60.1970   28.9470   46.3420 C   0  0  0  0  0  0  0  0  0  0  0  0
   60.5710   30.0620   47.1150 C   0  0  0  0  0  0  0  0  0  0  0  0
   60.1220   30.1180   48.4360 C   0  0  0  0  0  0  0  0  0  0  0  0
   60.3120   31.0750   49.3630 N   0  0  0  0  0  0  0  0  0  0  0  0
   61.0580   32.3340   49.2260 C   0  0  0  0  0  0  0  0  0  0  0  0
   60.4900   33.2100   48.1230 C   0  0  0  0  0  0  0  0  0  0  0  0
   59.0970   33.4200   48.0730 C   0  0  0  0  0  0  0  0  0  0  0  0
   58.5310   34.2220   47.0830 C   0  0  0  0  0  0  0  0  0  0  0  0
   59.3360   34.8130   46.1140 C   0  0  0  0  0  0  0  0  0  0  0  0
   60.7100   34.5830   46.1150 C   0  0  0  0  0  0  0  0  0  0  0  0
   61.3090   33.7630   47.0940 C   0  0  0  0  0  0  0  0  0  0  0  0
   62.8070   33.5160   47.0390 C   0  0  0  0  0  0  0  0  0  0  0  0
   63.4120   34.0780   48.1500 F   0  0  0  0  0  0  0  0  0  0  0  0
   63.3790   34.0760   45.9090 F   0  0  0  0  0  0  0  0  0  0  0  0
   63.0650   32.1570   47.0100 F   0  0  0  0  0  0  0  0  0  0  0  0
   57.2430   29.1560   54.5170 H   0  0  0  0  0  0  0  0  0  0  0  0
   56.2800   28.1840   53.3460 H   0  0  0  0  0  0  0  0  0  0  0  0
   56.5441   32.2306   53.3750 H   0  0  0  0  0  0  0  0  0  0  0  0
   58.0113   31.3271   53.9332 H   0  0  0  0  0  0  0  0  0  0  0  0
   58.3482   33.1430   52.1402 H   0  0  0  0  0  0  0  0  0  0  0  0
   56.3500   32.1330   50.8880 H   0  0  0  0  0  0  0  0  0  0  0  0
   57.4660   31.0200   50.2860 H   0  0  0  0  0  0  0  0  0  0  0  0
   60.3016   32.1141   51.8064 H   0  0  0  0  0  0  0  0  0  0  0  0
   59.5802   30.6227   52.5596 H   0  0  0  0  0  0  0  0  0  0  0  0
   58.3320   27.2302   48.6919 H   0  0  0  0  0  0  0  0  0  0  0  0
   57.3764   22.3657   44.5142 H   0  0  0  0  0  0  0  0  0  0  0  0
   54.9186   22.2716   44.9461 H   0  0  0  0  0  0  0  0  0  0  0  0
   53.7221   24.3380   45.6796 H   0  0  0  0  0  0  0  0  0  0  0  0
   60.5330   28.8738   45.2971 H   0  0  0  0  0  0  0  0  0  0  0  0
   61.1961   30.8626   46.6927 H   0  0  0  0  0  0  0  0  0  0  0  0
   61.0076   32.8829   50.1779 H   0  0  0  0  0  0  0  0  0  0  0  0
   62.0980   32.0881   48.9654 H   0  0  0  0  0  0  0  0  0  0  0  0
   58.4487   32.9453   48.8242 H   0  0  0  0  0  0  0  0  0  0  0  0
   57.4437   34.3883   47.0678 H   0  0  0  0  0  0  0  0  0  0  0  0
   58.8875   35.4618   45.3472 H   0  0  0  0  0  0  0  0  0  0  0  0
   61.3375   35.0480   45.3404 H   0  0  0  0  0  0  0  0  0  0  0  0
  1  2  1  0
  2  3  2  0
  2  4  1  0
  4  5  1  0
  5  6  1  0
  5  7  1  0
  7  8  1  0
  8  9  2  0
  9 10  1  0
 10 11  2  0
 11 12  1  0
 12 13  1  0
 13 14  2  0
 13 15  1  0
 15 16  2  3
 16 17  1  0
 17 18  1  0
 18 19  2  0
 19 20  1  0
 20 21  2  0
 21 22  1  0
 12 23  2  0
 23 24  1  0
 24 25  2  0
 25 26  1  0
 26 27  1  0
 27 28  1  0
 28 29  2  0
 29 30  1  0
 30 31  2  0
 31 32  1  0
 32 33  2  0
 33 34  1  0
 34 35  1  0
 34 36  1  0
 34 37  1  0
 26  8  1  0
 33 28  1  0
 25 10  1  0
 21 16  1  0
  1 38  1  0
  1 39  1  0
  4 40  1  0
  4 41  1  0
  5 42  1  1
  6 43  1  0
  6 44  1  0
  7 45  1  0
  7 46  1  0
 11 47  1  0
 18 48  1  0
 19 49  1  0
 20 50  1  0
 23 51  1  0
 24 52  1  0
 27 53  1  0
 27 54  1  0
 29 55  1  0
 30 56  1  0
 31 57  1  0
 32 58  1  0
M  CHG  2  17  -1  22  -1
M  END
>  <UniqueID>  (41) 
41

>  <SMILES>  (41) 
NC(=O)C[C@H](N)Cc1nc2cc(C(=O)N=c3[n-]cccc3[O-])ccc2n1Cc1ccccc1C(F)(F)F

>  <Energy>  (41) 
110.09587010840629

>  <Genealogy>  (41) 
NC(=O)CC(N)Cc1nc2cc(C(=O)N=c3[n-]cccc3[O-])ccc2n1Cc1ccccc1C(F)(F)F (protonated)
NC(=O)C[C@H](N)Cc1nc2cc(C(=O)N=c3[n-]cccc3[O-])ccc2n1Cc1ccccc1C(F)(F)F (chirality)
NC(=O)C[C@H](N)Cc1nc2cc(C(=O)N=c3[n-]cccc3[O-])ccc2n1Cc1ccccc1C(F)(F)F (3D coordinates assigned)
NC(=O)C[C@H](N)Cc1nc2cc(C(=O)N=c3[n-]cccc3[O-])ccc2n1Cc1ccccc1C(F)(F)F (optimized conformer: 110.09587010840629 kcal/mol)

>  <smiles>  (41) 
NC(=O)CC(N)Cc1nc2cc(C(=O)N=c3[nH]cccc3O)ccc2n1Cc1ccccc1C(F)(F)F

>  <score_type>  (41) 
oracle

>  <origin>  (41) 
adg

>  <m_score__min__energy>  (41) 
-13.92

>  <m_primary>  (41) 
energy

$$$$
41:0
     RDKit          3D

 55 58  0  0  0  0  0  0  0  0999 V2000
   60.1130   27.1540   46.9350 C   0  0  0  0  0  0  0  0  0  0  0  0
   59.3150   28.0440   46.3230 C   0  0  0  0  0  0  0  0  0  0  0  0
   58.2910   27.7890   45.3940 C   0  0  0  0  0  0  0  0  0  0  0  0
   57.7610   26.6320   44.9510 C   0  0  0  0  0  0  0  0  0  0  0  0
   57.3360   25.5040   45.8020 C   0  0  0  0  0  0  0  0  0  0  0  0
   56.0430   25.4620   46.3590 C   0  0  0  0  0  0  0  0  0  0  0  0
   55.0950   26.4500   46.0900 O   0  0  0  0  0  0  0  0  0  0  0  0
   55.6990   24.4330   47.1750 N   0  0  0  0  0  0  0  0  0  0  0  0
   56.5790   23.4440   47.4750 C   0  0  0  0  0  0  0  0  0  0  0  0
   56.1270   22.2210   48.4560 S   0  0  0  0  0  0  0  0  0  0  0  0
   57.8370   23.4750   46.9670 N   0  0  0  0  0  0  0  0  0  0  0  0
   58.2360   24.4800   46.1470 C   0  0  0  0  0  0  0  0  0  0  0  0
   59.4160   24.4860   45.7070 O   0  0  0  0  0  0  0  0  0  0  0  0
   57.8450   29.0290   44.9590 C   0  0  0  0  0  0  0  0  0  0  0  0
   58.5670   29.9790   45.6500 C   0  0  0  0  0  0  0  0  0  0  0  0
   58.4020   31.4610   45.5050 C   0  0  0  0  0  0  0  0  0  0  0  0
   59.4530   29.3850   46.4750 N   0  0  0  0  0  0  0  0  0  0  0  0
   60.3900   30.0710   47.3200 C   0  0  0  0  0  0  0  0  0  0  0  0
   61.4630   30.7590   46.7510 C   0  0  0  0  0  0  0  0  0  0  0  0
   62.3770   31.4300   47.5620 C   0  0  0  0  0  0  0  0  0  0  0  0
   62.2140   31.4090   48.9600 C   0  0  0  0  0  0  0  0  0  0  0  0
   63.1340   32.1020   49.8390 N   0  0  0  0  0  0  0  0  0  0  0  0
   64.1130   33.0580   49.3050 C   0  0  0  0  0  0  0  0  0  0  0  0
   65.5260   32.7240   49.8170 C   0  0  0  0  0  0  0  0  0  0  0  0
   65.5630   32.2300   51.2200 N   0  0  0  0  0  0  0  0  0  0  0  0
   65.9440   30.8090   51.2900 C   0  0  0  0  0  0  0  0  0  0  0  0
   64.3250   32.5040   51.9790 C   0  0  0  0  0  0  0  0  0  0  0  0
   63.0900   31.9000   51.2940 C   0  0  0  0  0  0  0  0  0  0  0  0
   61.1590   30.7250   49.4870 N   0  0  0  0  0  0  0  0  0  0  0  0
   60.2540   30.0590   48.7190 C   0  0  0  0  0  0  0  0  0  0  0  0
   59.1230   29.3370   49.3850 C   0  0  0  0  0  0  0  0  0  0  0  0
   60.8786   27.4991   47.6455 H   0  0  0  0  0  0  0  0  0  0  0  0
   60.0010   26.0799   46.7258 H   0  0  0  0  0  0  0  0  0  0  0  0
   57.6346   26.5190   43.8641 H   0  0  0  0  0  0  0  0  0  0  0  0
   54.3760   26.7130   46.7520 H   0  0  0  0  0  0  0  0  0  0  0  0
   57.0648   29.2179   44.2069 H   0  0  0  0  0  0  0  0  0  0  0  0
   58.3505   31.9235   46.5017 H   0  0  0  0  0  0  0  0  0  0  0  0
   59.2598   31.8732   44.9534 H   0  0  0  0  0  0  0  0  0  0  0  0
   57.4745   31.6744   44.9534 H   0  0  0  0  0  0  0  0  0  0  0  0
   61.5879   30.7718   45.6582 H   0  0  0  0  0  0  0  0  0  0  0  0
   63.2211   31.9730   47.1118 H   0  0  0  0  0  0  0  0  0  0  0  0
   64.1050   33.0089   48.2061 H   0  0  0  0  0  0  0  0  0  0  0  0
   63.8424   34.0699   49.6409 H   0  0  0  0  0  0  0  0  0  0  0  0
   65.9547   31.9478   49.1661 H   0  0  0  0  0  0  0  0  0  0  0  0
   66.1008   33.6616   49.7957 H   0  0  0  0  0  0  0  0  0  0  0  0
   66.0261   30.5029   52.3433 H   0  0  0  0  0  0  0  0  0  0  0  0
   65.1777   30.1988   50.7895 H   0  0  0  0  0  0  0  0  0  0  0  0
   66.9127   30.6640   50.7895 H   0  0  0  0  0  0  0  0  0  0  0  0
   64.4213   32.0709   52.9855 H   0  0  0  0  0  0  0  0  0  0  0  0
   64.1890   33.5944   52.0289 H   0  0  0  0  0  0  0  0  0  0  0  0
   63.0550   30.8210   51.5050 H   0  0  0  0  0  0  0  0  0  0  0  0
   62.1942   32.4028   51.6873 H   0  0  0  0  0  0  0  0  0  0  0  0
   59.2348   29.4084   50.4770 H   0  0  0  0  0  0  0  0  0  0  0  0
   58.1686   29.7933   49.0835 H   0  0  0  0  0  0  0  0  0  0  0  0
   59.1351   28.2792   49.0835 H   0  0  0  0  0  0  0  0  0  0  0  0
  1  2  2  0
  2  3  1  0
  3  4  2  3
  4  5  1  0
  5  6  2  0
  6  7  1  0
  6  8  1  0
  8  9  1  0
  9 10  2  0
  9 11  1  0
 11 12  1  0
 12 13  2  0
  3 14  1  0
 14 15  2  0
 15 16  1  0
 15 17  1  0
 17 18  1  0
 18 19  2  0
 19 20  1  0
 20 21  2  0
 21 22  1  0
 22 23  1  0
 23 24  1  0
 24 25  1  0
 25 26  1  0
 25 27  1  0
 27 28  1  0
 21 29  1  0
 29 30  2  0
 30 31  1  0
 17  2  1  0
 30 18  1  0
 12  5  1  0
 28 22  1  0
  1 32  1  0
  1 33  1  0
  4 34  1  0
  7 35  1  0
 14 36  1  0
 16 37  1  0
 16 38  1  0
 16 39  1  0
 19 40  1  0
 20 41  1  0
 23 42  1  0
 23 43  1  0
 24 44  1  0
 24 45  1  0
 26 46  1  0
 26 47  1  0
 26 48  1  0
 27 49  1  0
 27 50  1  0
 28 51  1  0
 28 52  1  0
 31 53  1  0
 31 54  1  0
 31 55  1  0
M  CHG  2   8  -1  11  -1
M  END
>  <UniqueID>  (42) 
42

>  <SMILES>  (42) 
C=c1c(=Cc2c(O)[n-]c(=S)[n-]c2=O)cc(C)n1-c1ccc(N2CCN(C)CC2)nc1C

>  <Energy>  (42) 
116.347735457637

>  <Genealogy>  (42) 
C=c1c(=Cc2c(O)[n-]c(=S)[n-]c2=O)cc(C)n1-c1ccc(N2CCN(C)CC2)nc1C (protonated)
C=c1c(=Cc2c(O)[n-]c(=S)[n-]c2=O)cc(C)n1-c1ccc(N2CCN(C)CC2)nc1C (3D coordinates assigned)
C=c1c(=Cc2c(O)[n-]c(=S)[n-]c2=O)cc(C)n1-c1ccc(N2CCN(C)CC2)nc1C (nonaromatic ring conformer: 116.347735457637 kcal/mol)

>  <smiles>  (42) 
C=c1c(=Cc2c(O)[nH]c(=S)[nH]c2=O)cc(C)n1-c1ccc(N2CCN(C)CC2)nc1C

>  <score_type>  (42) 
oracle

>  <origin>  (42) 
adg

>  <m_score__min__energy>  (42) 
-12.82

>  <m_primary>  (42) 
energy

$$$$
42:0
     RDKit          3D

 45 47  0  0  0  0  0  0  0  0999 V2000
   57.7330   32.0400   50.1350 N   0  0  0  0  0  0  0  0  0  0  0  0
   57.8260   30.7290   50.6960 C   0  0  0  0  0  0  0  0  0  0  0  0
   57.0000   30.3860   51.5840 O   0  0  0  0  0  0  0  0  0  0  0  0
   58.8590   29.7630   50.2440 C   0  0  0  0  0  0  0  0  0  0  0  0
   59.5710   29.0030   51.1900 C   0  0  0  0  0  0  0  0  0  0  0  0
   60.5480   28.0940   50.7790 C   0  0  0  0  0  0  0  0  0  0  0  0
   60.8330   27.9360   49.4220 C   0  0  0  0  0  0  0  0  0  0  0  0
   60.1450   28.6930   48.4630 C   0  0  0  0  0  0  0  0  0  0  0  0
   60.4650   28.5470   46.9980 C   0  0  0  0  0  0  0  0  0  0  0  0
   59.5650   27.5590   46.3640 N   0  0  0  0  0  0  0  0  0  0  0  0
   59.5260   27.7210   44.8940 C   0  0  0  0  0  0  0  0  0  0  0  0
   58.6620   28.9180   44.4760 C   0  0  0  0  0  0  0  0  0  0  0  0
   57.3610   28.8830   45.1540 N   0  0  0  0  0  0  0  0  0  0  0  0
   56.3230   29.7920   44.7490 C   0  0  0  0  0  0  0  0  0  0  0  0
   55.1560   29.3630   44.5540 O   0  0  0  0  0  0  0  0  0  0  0  0
   56.6010   31.1790   44.5210 N   0  0  0  0  0  0  0  0  0  0  0  0
   57.4180   32.0080   45.3570 C   0  0  0  0  0  0  0  0  0  0  0  0
   57.4490   33.3880   45.1340 C   0  0  0  0  0  0  0  0  0  0  0  0
   58.2310   34.2110   45.9460 C   0  0  0  0  0  0  0  0  0  0  0  0
   58.9650   33.6430   46.9890 C   0  0  0  0  0  0  0  0  0  0  0  0
   58.9060   32.3030   47.2120 N   0  0  0  0  0  0  0  0  0  0  0  0
   58.1530   31.4810   46.4340 C   0  0  0  0  0  0  0  0  0  0  0  0
   57.0480   27.7630   46.0440 C   0  0  0  0  0  0  0  0  0  0  0  0
   58.2200   27.5190   47.0090 C   0  0  0  0  0  0  0  0  0  0  0  0
   59.1620   29.6060   48.8780 C   0  0  0  0  0  0  0  0  0  0  0  0
   58.2810   32.3200   49.2930 H   0  0  0  0  0  0  0  0  0  0  0  0
   57.0350   32.7200   50.5150 H   0  0  0  0  0  0  0  0  0  0  0  0
   59.3563   29.1259   52.2618 H   0  0  0  0  0  0  0  0  0  0  0  0
   61.0946   27.5008   51.5269 H   0  0  0  0  0  0  0  0  0  0  0  0
   61.6002   27.2149   49.1036 H   0  0  0  0  0  0  0  0  0  0  0  0
   60.3396   29.5207   46.5019 H   0  0  0  0  0  0  0  0  0  0  0  0
   61.5031   28.1981   46.8950 H   0  0  0  0  0  0  0  0  0  0  0  0
   60.5508   27.8755   44.5254 H   0  0  0  0  0  0  0  0  0  0  0  0
   59.0833   26.8118   44.4612 H   0  0  0  0  0  0  0  0  0  0  0  0
   59.1828   29.8494   44.7427 H   0  0  0  0  0  0  0  0  0  0  0  0
   58.4952   28.8705   43.3898 H   0  0  0  0  0  0  0  0  0  0  0  0
   56.8562   33.8257   44.3173 H   0  0  0  0  0  0  0  0  0  0  0  0
   58.2686   35.2955   45.7661 H   0  0  0  0  0  0  0  0  0  0  0  0
   59.5914   34.2800   47.6308 H   0  0  0  0  0  0  0  0  0  0  0  0
   58.1185   30.4024   46.6471 H   0  0  0  0  0  0  0  0  0  0  0  0
   56.1423   27.9985   46.6221 H   0  0  0  0  0  0  0  0  0  0  0  0
   56.8796   26.8578   45.4421 H   0  0  0  0  0  0  0  0  0  0  0  0
   58.1896   28.2925   47.7905 H   0  0  0  0  0  0  0  0  0  0  0  0
   58.0925   26.5022   47.4088 H   0  0  0  0  0  0  0  0  0  0  0  0
   58.6234   30.2044   48.1285 H   0  0  0  0  0  0  0  0  0  0  0  0
  1  2  1  0
  2  3  2  0
  2  4  1  0
  4  5  2  0
  5  6  1  0
  6  7  2  0
  7  8  1  0
  8  9  1  0
  9 10  1  0
 10 11  1  0
 11 12  1  0
 12 13  1  0
 13 14  1  0
 14 15  2  0
 14 16  1  0
 16 17  1  0
 17 18  2  0
 18 19  1  0
 19 20  2  0
 20 21  1  0
 21 22  2  0
 13 23  1  0
 23 24  1  0
  8 25  2  0
 25  4  1  0
 24 10  1  0
 22 17  1  0
  1 26  1  0
  1 27  1  0
  5 28  1  0
  6 29  1  0
  7 30  1  0
  9 31  1  0
  9 32  1  0
 11 33  1  0
 11 34  1  0
 12 35  1  0
 12 36  1  0
 18 37  1  0
 19 38  1  0
 20 39  1  0
 22 40  1  0
 23 41  1  0
 23 42  1  0
 24 43  1  0
 24 44  1  0
 25 45  1  0
M  CHG  1  16  -1
M  END
>  <UniqueID>  (43) 
43

>  <SMILES>  (43) 
NC(=O)c1cccc(CN2CCN(C(=O)[N-]c3cccnc3)CC2)c1

>  <Energy>  (43) 
60.74698813510876

>  <Genealogy>  (43) 
NC(=O)c1cccc(CN2CCN(C(=O)[N-]c3cccnc3)CC2)c1 (protonated)
NC(=O)c1cccc(CN2CCN(C(=O)[N-]c3cccnc3)CC2)c1 (3D coordinates assigned)
NC(=O)c1cccc(CN2CCN(C(=O)[N-]c3cccnc3)CC2)c1 (nonaromatic ring conformer: 60.74698813510876 kcal/mol)

>  <smiles>  (43) 
NC(=O)c1cccc(CN2CCN(C(=O)Nc3cccnc3)CC2)c1

>  <score_type>  (43) 
oracle

>  <origin>  (43) 
adg

>  <m_score__min__energy>  (43) 
-9.8300000000000001

>  <m_primary>  (43) 
energy

$$$$
43:0
     RDKit          3D

 89 93  0  0  0  0  0  0  0  0999 V2000
   53.9610   23.1940   46.7060 C   0  0  0  0  0  0  0  0  0  0  0  0
   55.2140   23.5300   46.0080 N   0  0  0  0  0  0  0  0  0  0  0  0
   55.1090   24.8360   45.3050 C   0  0  0  0  0  0  0  0  0  0  0  0
   55.7730   25.9860   46.0700 C   0  0  0  0  0  0  0  0  0  0  0  0
   57.1720   25.6640   46.3690 N   0  0  0  0  0  0  0  0  0  0  0  0
   58.0880   26.7490   46.6450 C   0  0  0  0  0  0  0  0  0  0  0  0
   57.6220   27.8470   47.0670 O   0  0  0  0  0  0  0  0  0  0  0  0
   59.5900   26.6070   46.4370 C   0  0  1  0  0  0  0  0  0  0  0  0
   60.1090   27.4800   45.2680 C   0  0  0  0  0  0  0  0  0  0  0  0
   59.5570   28.8840   45.2750 C   0  0  0  0  0  0  0  0  0  0  0  0
   60.2010   29.8940   45.9960 C   0  0  0  0  0  0  0  0  0  0  0  0
   59.6460   31.1690   46.0740 C   0  0  0  0  0  0  0  0  0  0  0  0
   58.4380   31.4730   45.4250 C   0  0  0  0  0  0  0  0  0  0  0  0
   57.8520   32.8220   45.6310 C   0  0  0  0  0  0  0  0  0  0  0  0
   57.4030   33.4920   44.6560 O   0  0  0  0  0  0  0  0  0  0  0  0
   57.7630   33.3380   46.9350 O   0  0  0  0  0  0  0  0  0  0  0  0
   58.6260   34.3460   47.4520 C   0  0  0  0  0  0  0  0  0  0  0  0
   59.8280   34.5500   46.5330 C   0  0  0  0  0  0  0  0  0  0  0  0
   61.1060   34.0740   47.1740 C   0  0  0  0  0  0  0  0  0  0  0  0
   62.1190   33.4970   46.3900 C   0  0  0  0  0  0  0  0  0  0  0  0
   63.3210   33.0900   46.9770 C   0  0  0  0  0  0  0  0  0  0  0  0
   63.5140   33.2390   48.3530 C   0  0  0  0  0  0  0  0  0  0  0  0
   62.5140   33.8130   49.1420 C   0  0  0  0  0  0  0  0  0  0  0  0
   61.3130   34.2370   48.5580 C   0  0  0  0  0  0  0  0  0  0  0  0
   60.3660   34.8110   49.3380 F   0  0  0  0  0  0  0  0  0  0  0  0
   57.8090   30.4610   44.6520 C   0  0  0  0  0  0  0  0  0  0  0  0
   56.6020   30.7080   43.9200 N   0  0  0  0  0  0  0  0  0  0  0  0
   56.6510   30.9040   42.6850 O   0  0  0  0  0  0  0  0  0  0  0  0
   55.3820   30.4200   44.4990 O   0  0  0  0  0  0  0  0  0  0  0  0
   58.3720   29.1790   44.5950 C   0  0  0  0  0  0  0  0  0  0  0  0
   60.3930   26.8660   47.6990 C   0  0  0  0  0  0  0  0  0  0  0  0
   61.5360   26.3470   47.8420 O   0  0  0  0  0  0  0  0  0  0  0  0
   59.8410   27.6540   48.7620 N   0  0  0  0  0  0  0  0  0  0  0  0
   60.4120   27.6510   50.0760 C   0  0  0  0  0  0  0  0  0  0  0  0
   60.8220   26.4410   50.6570 C   0  0  0  0  0  0  0  0  0  0  0  0
   61.3990   26.4280   51.9340 C   0  0  0  0  0  0  0  0  0  0  0  0
   61.5770   27.6240   52.6350 C   0  0  0  0  0  0  0  0  0  0  0  0
   61.1750   28.8310   52.0670 C   0  0  0  0  0  0  0  0  0  0  0  0
   60.5830   28.8540   50.7890 C   0  0  0  0  0  0  0  0  0  0  0  0
   60.2270   30.1110   50.2030 N   0  0  0  0  0  0  0  0  0  0  0  0
   61.0800   31.2820   50.4110 C   0  0  0  0  0  0  0  0  0  0  0  0
   60.2670   32.4160   51.0630 C   0  0  0  0  0  0  0  0  0  0  0  0
   58.8710   32.5390   50.5620 N   0  0  0  0  0  0  0  0  0  0  0  0
   57.8840   32.2680   51.6180 C   0  0  0  0  0  0  0  0  0  0  0  0
   58.5950   31.7430   49.3430 C   0  0  0  0  0  0  0  0  0  0  0  0
   58.9230   30.2600   49.5490 C   0  0  0  0  0  0  0  0  0  0  0  0
   57.5640   24.2520   46.4810 C   0  0  0  0  0  0  0  0  0  0  0  0
   56.3670   23.4140   46.9360 C   0  0  0  0  0  0  0  0  0  0  0  0
   54.1238   23.2376   47.7930 H   0  0  0  0  0  0  0  0  0  0  0  0
   53.1792   23.9142   46.4231 H   0  0  0  0  0  0  0  0  0  0  0  0
   53.6444   22.1792   46.4231 H   0  0  0  0  0  0  0  0  0  0  0  0
   55.5933   24.7441   44.3216 H   0  0  0  0  0  0  0  0  0  0  0  0
   54.0391   25.0757   45.2166 H   0  0  0  0  0  0  0  0  0  0  0  0
   55.7347   26.8984   45.4568 H   0  0  0  0  0  0  0  0  0  0  0  0
   55.2339   26.1419   47.0161 H   0  0  0  0  0  0  0  0  0  0  0  0
   59.7456   25.5524   46.1656 H   0  0  0  0  0  0  0  0  0  0  0  0
   61.2055   27.5365   45.3356 H   0  0  0  0  0  0  0  0  0  0  0  0
   59.7728   27.0046   44.3348 H   0  0  0  0  0  0  0  0  0  0  0  0
   61.1524   29.6802   46.5051 H   0  0  0  0  0  0  0  0  0  0  0  0
   60.1615   31.9497   46.6526 H   0  0  0  0  0  0  0  0  0  0  0  0
   58.0692   35.2912   47.5336 H   0  0  0  0  0  0  0  0  0  0  0  0
   58.9869   34.0293   48.4417 H   0  0  0  0  0  0  0  0  0  0  0  0
   59.6648   33.9871   45.6021 H   0  0  0  0  0  0  0  0  0  0  0  0
   59.9261   35.6267   46.3302 H   0  0  0  0  0  0  0  0  0  0  0  0
   61.9657   33.3647   45.3088 H   0  0  0  0  0  0  0  0  0  0  0  0
   64.1156   32.6521   46.3550 H   0  0  0  0  0  0  0  0  0  0  0  0
   64.4542   32.9040   48.8154 H   0  0  0  0  0  0  0  0  0  0  0  0
   62.6699   33.9323   50.2243 H   0  0  0  0  0  0  0  0  0  0  0  0
   57.8744   28.3938   44.0069 H   0  0  0  0  0  0  0  0  0  0  0  0
   58.9460   28.1720   48.6060 H   0  0  0  0  0  0  0  0  0  0  0  0
   60.6897   25.4976   50.1070 H   0  0  0  0  0  0  0  0  0  0  0  0
   61.7123   25.4751   52.3854 H   0  0  0  0  0  0  0  0  0  0  0  0
   62.0345   27.6123   53.6353 H   0  0  0  0  0  0  0  0  0  0  0  0
   61.3207   29.7710   52.6195 H   0  0  0  0  0  0  0  0  0  0  0  0
   61.9184   31.0098   51.0690 H   0  0  0  0  0  0  0  0  0  0  0  0
   61.4650   31.6258   49.4396 H   0  0  0  0  0  0  0  0  0  0  0  0
   60.2285   32.2323   52.1469 H   0  0  0  0  0  0  0  0  0  0  0  0
   60.7768   33.3559   50.8049 H   0  0  0  0  0  0  0  0  0  0  0  0
   58.3560   32.3976   52.6031 H   0  0  0  0  0  0  0  0  0  0  0  0
   57.0411   32.9679   51.5204 H   0  0  0  0  0  0  0  0  0  0  0  0
   57.5167   31.2358   51.5204 H   0  0  0  0  0  0  0  0  0  0  0  0
   57.5296   31.8404   49.0871 H   0  0  0  0  0  0  0  0  0  0  0  0
   59.2315   32.1258   48.5316 H   0  0  0  0  0  0  0  0  0  0  0  0
   58.1469   29.8013   50.1793 H   0  0  0  0  0  0  0  0  0  0  0  0
   58.9566   29.7624   48.5685 H   0  0  0  0  0  0  0  0  0  0  0  0
   57.9109   23.8909   45.5016 H   0  0  0  0  0  0  0  0  0  0  0  0
   58.3736   24.1583   47.2197 H   0  0  0  0  0  0  0  0  0  0  0  0
   56.6735   22.3589   46.9895 H   0  0  0  0  0  0  0  0  0  0  0  0
   56.0472   23.7893   47.9193 H   0  0  0  0  0  0  0  0  0  0  0  0
  1  2  1  0
  2  3  1  0
  3  4  1  0
  4  5  1  0
  5  6  1  0
  6  7  2  0
  6  8  1  0
  8  9  1  0
  9 10  1  0
 10 11  2  0
 11 12  1  0
 12 13  2  0
 13 14  1  0
 14 15  2  0
 14 16  1  0
 16 17  1  0
 17 18  1  0
 18 19  1  0
 19 20  2  0
 20 21  1  0
 21 22  2  0
 22 23  1  0
 23 24  2  0
 24 25  1  0
 13 26  1  0
 26 27  1  0
 27 28  2  0
 27 29  1  0
 26 30  2  0
  8 31  1  0
 31 32  2  0
 31 33  1  0
 33 34  1  0
 34 35  2  0
 35 36  1  0
 36 37  2  0
 37 38  1  0
 38 39  2  0
 39 40  1  0
 40 41  1  0
 41 42  1  0
 42 43  1  0
 43 44  1  0
 43 45  1  0
 45 46  1  0
  5 47  1  0
 47 48  1  0
 48  2  1  0
 30 10  1  0
 39 34  1  0
 46 40  1  0
 24 19  1  0
  1 49  1  0
  1 50  1  0
  1 51  1  0
  3 52  1  0
  3 53  1  0
  4 54  1  0
  4 55  1  0
  8 56  1  6
  9 57  1  0
  9 58  1  0
 11 59  1  0
 12 60  1  0
 17 61  1  0
 17 62  1  0
 18 63  1  0
 18 64  1  0
 20 65  1  0
 21 66  1  0
 22 67  1  0
 23 68  1  0
 30 69  1  0
 33 70  1  0
 35 71  1  0
 36 72  1  0
 37 73  1  0
 38 74  1  0
 41 75  1  0
 41 76  1  0
 42 77  1  0
 42 78  1  0
 44 79  1  0
 44 80  1  0
 44 81  1  0
 45 82  1  0
 45 83  1  0
 46 84  1  0
 46 85  1  0
 47 86  1  0
 47 87  1  0
 48 88  1  0
 48 89  1  0
M  CHG  2  27   1  29  -1
M  END
>  <UniqueID>  (44) 
44

>  <SMILES>  (44) 
CN1CCN(C(=O)[C@@H](Cc2ccc(C(=O)OCCc3ccccc3F)c([N+](=O)[O-])c2)C(=O)Nc2ccccc2N2CCN(C)CC2)CC1

>  <Energy>  (44) 
124.14053784248526

>  <Genealogy>  (44) 
CN1CCN(C(=O)[C@@H](Cc2ccc(C(=O)OCCc3ccccc3F)c([N+](=O)[O-])c2)C(=O)Nc2ccccc2N2CCN(C)CC2)CC1 (chirality)
CN1CCN(C(=O)[C@@H](Cc2ccc(C(=O)OCCc3ccccc3F)c([N+](=O)[O-])c2)C(=O)Nc2ccccc2N2CCN(C)CC2)CC1 (3D coordinates assigned)
CN1CCN(C(=O)[C@@H](Cc2ccc(C(=O)OCCc3ccccc3F)c([N+](=O)[O-])c2)C(=O)Nc2ccccc2N2CCN(C)CC2)CC1 (nonaromatic ring conformer: 124.14053784248526 kcal/mol)

>  <smiles>  (44) 
CN1CCN(C(=O)C(Cc2ccc(C(=O)OCCc3ccccc3F)c([N+](=O)[O-])c2)C(=O)Nc2ccccc2N2CCN(C)CC2)CC1

>  <score_type>  (44) 
oracle

>  <origin>  (44) 
adg

>  <m_score__min__energy>  (44) 
-10.43

>  <m_primary>  (44) 
energy

$$$$
44:0
     RDKit          3D

 47 49  0  0  0  0  0  0  0  0999 V2000
   59.8350   26.9690   46.3970 C   0  0  0  0  0  0  0  0  0  0  0  0
   59.0250   28.0470   46.3020 C   0  0  0  0  0  0  0  0  0  0  0  0
   59.4920   29.2970   46.7800 C   0  0  0  0  0  0  0  0  0  0  0  0
   60.6030   29.3710   47.3780 O   0  0  0  0  0  0  0  0  0  0  0  0
   58.6900   30.4450   46.6060 C   0  0  0  0  0  0  0  0  0  0  0  0
   59.0370   31.6920   46.9910 C   0  0  0  0  0  0  0  0  0  0  0  0
   58.8600   32.9270   46.2080 C   0  0  0  0  0  0  0  0  0  0  0  0
   59.7260   33.9550   46.2390 N   0  0  0  0  0  0  0  0  0  0  0  0
   59.1280   34.8910   45.4730 C   0  0  0  0  0  0  0  0  0  0  0  0
   59.6480   36.0140   45.2440 O   0  0  0  0  0  0  0  0  0  0  0  0
   57.9220   34.5340   44.9780 N   0  0  0  0  0  0  0  0  0  0  0  0
   57.7570   33.2930   45.4640 C   0  0  0  0  0  0  0  0  0  0  0  0
   56.6100   32.5340   45.2500 O   0  0  0  0  0  0  0  0  0  0  0  0
   57.4760   30.2970   46.0260 N   0  0  0  0  0  0  0  0  0  0  0  0
   57.0090   29.1030   45.5930 C   0  0  0  0  0  0  0  0  0  0  0  0
   55.8720   29.0660   45.0490 O   0  0  0  0  0  0  0  0  0  0  0  0
   57.7600   27.9610   45.7390 N   0  0  0  0  0  0  0  0  0  0  0  0
   57.1940   26.6710   45.2720 C   0  0  0  0  0  0  0  0  0  0  0  0
   56.1520   26.1450   46.2270 C   0  0  0  0  0  0  0  0  0  0  0  0
   56.5110   25.6020   47.3070 O   0  0  0  0  0  0  0  0  0  0  0  0
   54.7540   26.1790   45.9100 N   0  0  0  0  0  0  0  0  0  0  0  0
   53.9290   25.0100   45.6220 C   0  0  0  0  0  0  0  0  0  0  0  0
   54.7470   23.9550   44.8720 C   0  0  0  0  0  0  0  0  0  0  0  0
   55.6970   23.2890   45.7880 N   0  0  0  0  0  0  0  0  0  0  0  0
   56.3760   22.1560   45.1310 C   0  0  0  0  0  0  0  0  0  0  0  0
   57.3930   21.5150   46.0990 C   0  0  0  0  0  0  0  0  0  0  0  0
   57.2560   21.9960   47.4240 O   0  0  0  0  0  0  0  0  0  0  0  0
   55.9080   21.8860   47.8360 C   0  0  0  0  0  0  0  0  0  0  0  0
   55.0020   22.8130   47.0030 C   0  0  0  0  0  0  0  0  0  0  0  0
   59.4921   25.9896   46.0321 H   0  0  0  0  0  0  0  0  0  0  0  0
   60.8370   27.0712   46.8392 H   0  0  0  0  0  0  0  0  0  0  0  0
   59.4961   31.7954   47.9852 H   0  0  0  0  0  0  0  0  0  0  0  0
   56.5480   31.5720   45.5590 H   0  0  0  0  0  0  0  0  0  0  0  0
   56.7313   26.8203   44.2853 H   0  0  0  0  0  0  0  0  0  0  0  0
   58.0111   25.9368   45.2150 H   0  0  0  0  0  0  0  0  0  0  0  0
   53.5637   24.5818   46.5671 H   0  0  0  0  0  0  0  0  0  0  0  0
   53.0793   25.3171   44.9945 H   0  0  0  0  0  0  0  0  0  0  0  0
   54.0656   23.2029   44.4477 H   0  0  0  0  0  0  0  0  0  0  0  0
   55.3139   24.4490   44.0691 H   0  0  0  0  0  0  0  0  0  0  0  0
   55.6286   21.4040   44.8379 H   0  0  0  0  0  0  0  0  0  0  0  0
   56.9075   22.5217   44.2401 H   0  0  0  0  0  0  0  0  0  0  0  0
   57.2400   20.4257   46.1013 H   0  0  0  0  0  0  0  0  0  0  0  0
   58.4015   21.7803   45.7490 H   0  0  0  0  0  0  0  0  0  0  0  0
   55.5754   20.8455   47.7064 H   0  0  0  0  0  0  0  0  0  0  0  0
   55.8379   22.1825   48.8930 H   0  0  0  0  0  0  0  0  0  0  0  0
   54.0987   22.2599   46.7062 H   0  0  0  0  0  0  0  0  0  0  0  0
   54.7377   23.6861   47.6177 H   0  0  0  0  0  0  0  0  0  0  0  0
  1  2  2  0
  2  3  1  0
  3  4  2  0
  3  5  1  0
  5  6  2  3
  6  7  1  0
  7  8  1  0
  8  9  1  0
  9 10  2  0
  9 11  1  0
 11 12  1  0
 12 13  1  0
  5 14  1  0
 14 15  1  0
 15 16  2  0
 15 17  1  0
 17 18  1  0
 18 19  1  0
 19 20  2  0
 19 21  1  0
 21 22  1  0
 22 23  1  0
 23 24  1  0
 24 25  1  0
 25 26  1  0
 26 27  1  0
 27 28  1  0
 28 29  1  0
 17  2  1  0
 29 24  1  0
 12  7  2  0
  1 30  1  0
  1 31  1  0
  6 32  1  0
 13 33  1  0
 18 34  1  0
 18 35  1  0
 22 36  1  0
 22 37  1  0
 23 38  1  0
 23 39  1  0
 25 40  1  0
 25 41  1  0
 26 42  1  0
 26 43  1  0
 28 44  1  0
 28 45  1  0
 29 46  1  0
 29 47  1  0
M  CHG  4   8  -1  11  -1  14  -1  21  -1
M  END
>  <UniqueID>  (45) 
45

>  <SMILES>  (45) 
C=c1c(=O)c(=Cc2[n-]c(=O)[n-]c2O)[n-]c(=O)n1CC(=O)[N-]CCN1CCOCC1

>  <Energy>  (45) 
106.74498138175403

>  <Genealogy>  (45) 
C=c1c(=O)c(=Cc2[n-]c(=O)[n-]c2O)[n-]c(=O)n1CC(=O)[N-]CCN1CCOCC1 (protonated)
C=c1c(=O)c(=Cc2[n-]c(=O)[n-]c2O)[n-]c(=O)n1CC(=O)[N-]CCN1CCOCC1 (3D coordinates assigned)
C=c1c(=O)c(=Cc2[n-]c(=O)[n-]c2O)[n-]c(=O)n1CC(=O)[N-]CCN1CCOCC1 (nonaromatic ring conformer: 106.74498138175403 kcal/mol)

>  <smiles>  (45) 
C=c1c(=O)c(=Cc2[nH]c(=O)[nH]c2O)[nH]c(=O)n1CC(=O)NCCN1CCOCC1

>  <score_type>  (45) 
oracle

>  <origin>  (45) 
adg

>  <m_score__min__energy>  (45) 
-15.02

>  <m_primary>  (45) 
energy

$$$$
45:0
     RDKit          3D

 50 53  0  0  0  0  0  0  0  0999 V2000
   54.0180   26.3400   46.3850 H   0  0  0  0  0  0  0  0  0  0  0  0
   54.9410   26.4060   45.9740 O   0  0  0  0  0  0  0  0  0  0  0  0
   55.9260   25.4760   46.2960 C   0  0  0  0  0  0  0  0  0  0  0  0
   55.7660   24.5000   47.2050 N   0  0  0  0  0  0  0  0  0  0  0  0
   56.9630   23.8780   47.1850 C   0  0  0  0  0  0  0  0  0  0  0  0
   57.2290   22.8920   47.9190 O   0  0  0  0  0  0  0  0  0  0  0  0
   57.8580   24.4050   46.3220 N   0  0  0  0  0  0  0  0  0  0  0  0
   57.1870   25.4200   45.7490 C   0  0  0  0  0  0  0  0  0  0  0  0
   57.7350   26.3780   44.7630 C   0  0  0  0  0  0  0  0  0  0  0  0
   57.6726   26.0985   43.7009 H   0  0  0  0  0  0  0  0  0  0  0  0
   58.3050   27.5660   45.0570 C   0  0  0  0  0  0  0  0  0  0  0  0
   59.6320   27.7990   45.4080 C   0  0  0  0  0  0  0  0  0  0  0  0
   60.4256   27.0445   45.5129 H   0  0  0  0  0  0  0  0  0  0  0  0
   59.7590   29.1610   45.5990 C   0  0  0  0  0  0  0  0  0  0  0  0
   61.0440   29.8650   45.9120 C   0  0  0  0  0  0  0  0  0  0  0  0
   61.1685   29.9332   47.0028 H   0  0  0  0  0  0  0  0  0  0  0  0
   61.8850   29.3017   45.4815 H   0  0  0  0  0  0  0  0  0  0  0  0
   61.0219   30.8770   45.4815 H   0  0  0  0  0  0  0  0  0  0  0  0
   58.5800   29.7800   45.3780 N   0  0  0  0  0  0  0  0  0  0  0  0
   58.3510   31.1960   45.4480 C   0  0  0  0  0  0  0  0  0  0  0  0
   58.8810   31.9380   46.5130 C   0  0  0  0  0  0  0  0  0  0  0  0
   59.4731   31.4324   47.2900 H   0  0  0  0  0  0  0  0  0  0  0  0
   58.6610   33.3210   46.5940 C   0  0  0  0  0  0  0  0  0  0  0  0
   59.2290   34.1060   47.7050 C   0  0  0  0  0  0  0  0  0  0  0  0
   59.4580   35.3330   47.5360 O   0  0  0  0  0  0  0  0  0  0  0  0
   59.5200   33.5180   48.9780 N   0  0  0  0  0  0  0  0  0  0  0  0
   60.8220   33.5710   49.6340 C   0  0  0  0  0  0  0  0  0  0  0  0
   61.0521   34.6104   49.9108 H   0  0  0  0  0  0  0  0  0  0  0  0
   60.8039   32.9482   50.5406 H   0  0  0  0  0  0  0  0  0  0  0  0
   61.8690   33.0600   48.6950 C   0  0  0  0  0  0  0  0  0  0  0  0
   62.6860   33.8370   47.8990 C   0  0  0  0  0  0  0  0  0  0  0  0
   62.7448   34.9348   47.8622 H   0  0  0  0  0  0  0  0  0  0  0  0
   63.4140   32.9240   47.1580 C   0  0  0  0  0  0  0  0  0  0  0  0
   64.1823   33.1815   46.4141 H   0  0  0  0  0  0  0  0  0  0  0  0
   63.0400   31.6710   47.4850 N   0  0  0  0  0  0  0  0  0  0  0  0
   62.0980   31.7620   48.4090 N   0  0  0  0  0  0  0  0  0  0  0  0
   61.4450   30.6060   49.0160 C   0  0  0  0  0  0  0  0  0  0  0  0
   61.4931   30.6911   50.1116 H   0  0  0  0  0  0  0  0  0  0  0  0
   60.3929   30.5697   48.6969 H   0  0  0  0  0  0  0  0  0  0  0  0
   61.9569   29.6862   48.6969 H   0  0  0  0  0  0  0  0  0  0  0  0
   57.9410   33.9650   45.5770 C   0  0  0  0  0  0  0  0  0  0  0  0
   57.7906   35.0539   45.6167 H   0  0  0  0  0  0  0  0  0  0  0  0
   57.4140   33.2270   44.5130 C   0  0  0  0  0  0  0  0  0  0  0  0
   56.8415   33.7358   43.7235 H   0  0  0  0  0  0  0  0  0  0  0  0
   57.6120   31.8450   44.4490 C   0  0  0  0  0  0  0  0  0  0  0  0
   57.1120   31.1420   43.4030 F   0  0  0  0  0  0  0  0  0  0  0  0
   57.6820   28.8210   45.0430 C   0  0  0  0  0  0  0  0  0  0  0  0
   56.3930   29.0740   44.7630 C   0  0  0  0  0  0  0  0  0  0  0  0
   56.0182   30.1080   44.7845 H   0  0  0  0  0  0  0  0  0  0  0  0
   55.7121   28.2473   44.5122 H   0  0  0  0  0  0  0  0  0  0  0  0
  1  2  1  0
  2  3  1  0
  3  4  1  0
  4  5  1  0
  5  6  2  0
  5  7  1  0
  7  8  1  0
  8  9  1  0
  9 10  1  0
  9 11  2  0
 11 12  1  0
 12 13  1  0
 12 14  2  0
 14 15  1  0
 15 16  1  0
 15 17  1  0
 15 18  1  0
 14 19  1  0
 19 20  1  0
 20 21  2  0
 21 22  1  0
 21 23  1  0
 23 24  1  0
 24 25  2  0
 24 26  1  0
 26 27  1  0
 27 28  1  0
 27 29  1  0
 27 30  1  0
 30 31  2  0
 31 32  1  0
 31 33  1  0
 33 34  1  0
 33 35  2  0
 35 36  1  0
 36 37  1  0
 37 38  1  0
 37 39  1  0
 37 40  1  0
 23 41  2  0
 41 42  1  0
 41 43  1  0
 43 44  1  0
 43 45  2  0
 45 46  1  0
 19 47  1  0
 47 48  2  0
 48 49  1  0
 48 50  1  0
  8  3  2  0
 47 11  1  0
 45 20  1  0
 36 30  1  0
M  CHG  3   4  -1   7  -1  26  -1
M  END
>  <UniqueID>  (46) 
46

>  <SMILES>  (46) 
C=c1/c(=C/c2[n-]c(=O)[n-]c2O)cc(C)n1-c1cc(C(=O)[N-]Cc2ccnn2C)ccc1F

>  <Energy>  (46) 
153.11221002066367

>  <Genealogy>  (46) 
C=c1c(=Cc2[n-]c(=O)[n-]c2O)cc(C)n1-c1cc(C(=O)[N-]Cc2ccnn2C)ccc1F (protonated)
C=c1/c(=C/c2[n-]c(=O)[n-]c2O)cc(C)n1-c1cc(C(=O)[N-]Cc2ccnn2C)ccc1F (cis-trans isomerization)
C=c1/c(=C/c2[n-]c(=O)[n-]c2O)cc(C)n1-c1cc(C(=O)[N-]Cc2ccnn2C)ccc1F (3D coordinates assigned)
C=c1/c(=C/c2[n-]c(=O)[n-]c2O)cc(C)n1-c1cc(C(=O)[N-]Cc2ccnn2C)ccc1F (optimized conformer: 153.11221002066367 kcal/mol)

>  <smiles>  (46) 
C=c1c(=Cc2[nH]c(=O)[nH]c2O)cc(C)n1-c1cc(C(=O)NCc2ccnn2C)ccc1F

>  <score_type>  (46) 
oracle

>  <origin>  (46) 
adg

>  <m_score__min__energy>  (46) 
-14.619999999999999

>  <m_primary>  (46) 
energy

$$$$
46:0
     RDKit          3D

 32 34  0  0  0  0  0  0  0  0999 V2000
   58.1300   32.5270   45.1700 N   0  0  0  0  0  0  0  0  0  0  0  0
   57.6690   31.3200   45.1030 C   0  0  0  0  0  0  0  0  0  0  0  0
   56.3700   31.0460   44.8560 N   0  0  0  0  0  0  0  0  0  0  0  0
   56.3410   29.7020   44.8790 C   0  0  0  0  0  0  0  0  0  0  0  0
   55.1780   28.9600   44.7050 O   0  0  0  0  0  0  0  0  0  0  0  0
   57.6040   29.2000   45.1280 C   0  0  0  0  0  0  0  0  0  0  0  0
   58.0180   27.7810   45.2500 C   0  0  0  0  0  0  0  0  0  0  0  0
   57.6680   26.8260   44.2800 C   0  0  0  0  0  0  0  0  0  0  0  0
   58.0770   25.4960   44.4130 C   0  0  0  0  0  0  0  0  0  0  0  0
   58.8490   25.0910   45.5160 C   0  0  0  0  0  0  0  0  0  0  0  0
   59.2800   23.6810   45.6550 C   0  0  0  0  0  0  0  0  0  0  0  0
   60.5070   23.3890   45.6220 O   0  0  0  0  0  0  0  0  0  0  0  0
   58.3080   22.6410   45.8240 N   0  0  0  0  0  0  0  0  0  0  0  0
   57.2550   22.6750   46.8320 C   0  0  0  0  0  0  0  0  0  0  0  0
   56.1060   23.5040   46.3520 C   0  0  0  0  0  0  0  0  0  0  0  0
   54.9840   23.0410   45.7040 C   0  0  0  0  0  0  0  0  0  0  0  0
   54.1560   24.0730   45.4700 N   0  0  0  0  0  0  0  0  0  0  0  0
   54.8130   25.1290   45.9930 C   0  0  0  0  0  0  0  0  0  0  0  0
   54.3490   26.2980   45.9690 O   0  0  0  0  0  0  0  0  0  0  0  0
   56.0050   24.8310   46.5470 N   0  0  0  0  0  0  0  0  0  0  0  0
   59.2090   26.0490   46.4780 C   0  0  0  0  0  0  0  0  0  0  0  0
   58.8020   27.3790   46.3430 C   0  0  0  0  0  0  0  0  0  0  0  0
   58.4520   30.2360   45.2800 N   0  0  0  0  0  0  0  0  0  0  0  0
   58.8100   32.8860   44.4620 H   0  0  0  0  0  0  0  0  0  0  0  0
   55.1450   27.9820   44.9640 H   0  0  0  0  0  0  0  0  0  0  0  0
   57.0674   27.1276   43.4092 H   0  0  0  0  0  0  0  0  0  0  0  0
   57.7922   24.7593   43.6474 H   0  0  0  0  0  0  0  0  0  0  0  0
   56.9066   21.6502   47.0280 H   0  0  0  0  0  0  0  0  0  0  0  0
   57.6564   23.1186   47.7551 H   0  0  0  0  0  0  0  0  0  0  0  0
   54.7952   21.9944   45.4228 H   0  0  0  0  0  0  0  0  0  0  0  0
   59.8164   25.7498   47.3449 H   0  0  0  0  0  0  0  0  0  0  0  0
   59.0990   28.1187   47.1011 H   0  0  0  0  0  0  0  0  0  0  0  0
  1  2  2  3
  2  3  1  0
  3  4  1  0
  4  5  1  0
  4  6  2  0
  6  7  1  0
  7  8  2  0
  8  9  1  0
  9 10  2  0
 10 11  1  0
 11 12  2  0
 11 13  1  0
 13 14  1  0
 14 15  1  0
 15 16  2  0
 16 17  1  0
 17 18  1  0
 18 19  2  0
 18 20  1  0
 10 21  1  0
 21 22  2  0
  6 23  1  0
 23  2  1  0
 22  7  1  0
 20 15  1  0
  1 24  1  0
  5 25  1  0
  8 26  1  0
  9 27  1  0
 14 28  1  0
 14 29  1  0
 16 30  1  0
 21 31  1  0
 22 32  1  0
M  CHG  5   3  -1  13  -1  17  -1  20  -1  23  -1
M  END
>  <UniqueID>  (47) 
47

>  <SMILES>  (47) 
N=c1[n-]c(O)c(-c2ccc(C(=O)[N-]Cc3c[n-]c(=O)[n-]3)cc2)[n-]1

>  <Energy>  (47) 
91.85974127426806

>  <Genealogy>  (47) 
N=c1[n-]c(O)c(-c2ccc(C(=O)[N-]Cc3c[n-]c(=O)[n-]3)cc2)[n-]1 (protonated)
N=c1[n-]c(O)c(-c2ccc(C(=O)[N-]Cc3c[n-]c(=O)[n-]3)cc2)[n-]1 (3D coordinates assigned)
N=c1[n-]c(O)c(-c2ccc(C(=O)[N-]Cc3c[n-]c(=O)[n-]3)cc2)[n-]1 (optimized conformer: 91.85974127426806 kcal/mol)

>  <smiles>  (47) 
N=c1[nH]c(O)c(-c2ccc(C(=O)NCc3c[nH]c(=O)[nH]3)cc2)[nH]1

>  <score_type>  (47) 
oracle

>  <origin>  (47) 
adg

>  <m_score__min__energy>  (47) 
-14.49

>  <m_primary>  (47) 
energy

$$$$
47:0
     RDKit          3D

 59 62  0  0  0  0  0  0  0  0999 V2000
   57.9310   32.1780   43.2260 C   0  0  0  0  0  0  0  0  0  0  0  0
   57.7680   30.8270   43.8600 C   0  0  0  0  0  0  0  0  0  0  0  0
   56.4850   30.3290   44.1390 C   0  0  0  0  0  0  0  0  0  0  0  0
   56.3310   29.0590   44.7100 C   0  0  0  0  0  0  0  0  0  0  0  0
   57.4560   28.2720   44.9920 C   0  0  0  0  0  0  0  0  0  0  0  0
   57.2550   26.6910   45.7420 S   0  0  0  0  0  0  0  0  0  0  0  0
   57.3370   25.6340   44.6760 O   0  0  0  0  0  0  0  0  0  0  0  0
   55.9120   26.5860   46.4160 O   0  0  0  0  0  0  0  0  0  0  0  0
   58.4970   26.3960   46.9160 N   0  0  0  0  0  0  0  0  0  0  0  0
   59.0870   27.4050   47.7440 C   0  0  0  0  0  0  0  0  0  0  0  0
   58.5210   28.6870   47.8790 C   0  0  0  0  0  0  0  0  0  0  0  0
   59.1040   29.6250   48.7340 C   0  0  0  0  0  0  0  0  0  0  0  0
   60.2200   29.2760   49.5120 C   0  0  0  0  0  0  0  0  0  0  0  0
   60.7720   30.2310   50.4900 C   0  0  0  0  0  0  0  0  0  0  0  0
   60.5870   29.9920   51.7130 O   0  0  0  0  0  0  0  0  0  0  0  0
   61.4730   31.4490   50.1020 N   0  0  0  0  0  0  0  0  0  0  0  0
   62.6390   31.1870   49.2290 C   0  0  0  0  0  0  0  0  0  0  0  0
   63.3410   32.4920   48.8270 C   0  0  0  0  0  0  0  0  0  0  0  0
   62.4100   33.4560   48.2070 N   0  0  0  0  0  0  0  0  0  0  0  0
   62.0660   33.1190   46.8040 C   0  0  0  0  0  0  0  0  0  0  0  0
   60.6050   33.3870   46.5790 C   0  0  0  0  0  0  0  0  0  0  0  0
   60.1470   34.6960   46.3500 C   0  0  0  0  0  0  0  0  0  0  0  0
   58.7880   34.9390   46.1330 C   0  0  0  0  0  0  0  0  0  0  0  0
   57.8760   33.8780   46.1590 C   0  0  0  0  0  0  0  0  0  0  0  0
   58.3190   32.5800   46.4160 C   0  0  0  0  0  0  0  0  0  0  0  0
   59.6780   32.3320   46.6290 C   0  0  0  0  0  0  0  0  0  0  0  0
   61.2240   33.6840   49.0600 C   0  0  0  0  0  0  0  0  0  0  0  0
   60.5260   32.3680   49.4380 C   0  0  0  0  0  0  0  0  0  0  0  0
   60.7890   28.0010   49.3750 C   0  0  0  0  0  0  0  0  0  0  0  0
   60.2300   27.0750   48.4880 C   0  0  0  0  0  0  0  0  0  0  0  0
   58.7370   28.7600   44.6950 C   0  0  0  0  0  0  0  0  0  0  0  0
   58.8930   30.0260   44.1230 C   0  0  0  0  0  0  0  0  0  0  0  0
   58.0233   32.9428   44.0112 H   0  0  0  0  0  0  0  0  0  0  0  0
   58.8363   32.1830   42.6011 H   0  0  0  0  0  0  0  0  0  0  0  0
   57.0529   32.3981   42.6011 H   0  0  0  0  0  0  0  0  0  0  0  0
   55.5983   30.9379   43.9085 H   0  0  0  0  0  0  0  0  0  0  0  0
   55.3244   28.6784   44.9377 H   0  0  0  0  0  0  0  0  0  0  0  0
   57.6174   28.9506   47.3097 H   0  0  0  0  0  0  0  0  0  0  0  0
   58.6875   30.6411   48.7983 H   0  0  0  0  0  0  0  0  0  0  0  0
   61.8200   31.9010   50.9820 H   0  0  0  0  0  0  0  0  0  0  0  0
   63.3534   30.5475   49.7681 H   0  0  0  0  0  0  0  0  0  0  0  0
   62.2828   30.6892   48.3150 H   0  0  0  0  0  0  0  0  0  0  0  0
   63.7793   32.9503   49.7258 H   0  0  0  0  0  0  0  0  0  0  0  0
   64.1158   32.2453   48.0861 H   0  0  0  0  0  0  0  0  0  0  0  0
   62.6640   33.7381   46.1191 H   0  0  0  0  0  0  0  0  0  0  0  0
   62.2820   32.0573   46.6139 H   0  0  0  0  0  0  0  0  0  0  0  0
   60.8612   35.5326   46.3416 H   0  0  0  0  0  0  0  0  0  0  0  0
   58.4355   35.9633   45.9419 H   0  0  0  0  0  0  0  0  0  0  0  0
   56.8079   34.0675   45.9765 H   0  0  0  0  0  0  0  0  0  0  0  0
   57.5974   31.7505   46.4510 H   0  0  0  0  0  0  0  0  0  0  0  0
   60.0228   31.3082   46.8363 H   0  0  0  0  0  0  0  0  0  0  0  0
   61.5416   34.1949   49.9809 H   0  0  0  0  0  0  0  0  0  0  0  0
   60.5091   34.2971   48.4916 H   0  0  0  0  0  0  0  0  0  0  0  0
   59.6924   32.5845   50.1223 H   0  0  0  0  0  0  0  0  0  0  0  0
   60.1513   31.8894   48.5212 H   0  0  0  0  0  0  0  0  0  0  0  0
   61.6760   27.7291   49.9660 H   0  0  0  0  0  0  0  0  0  0  0  0
   60.6892   26.0821   48.3730 H   0  0  0  0  0  0  0  0  0  0  0  0
   59.6221   28.1443   44.9130 H   0  0  0  0  0  0  0  0  0  0  0  0
   59.8993   30.3966   43.8779 H   0  0  0  0  0  0  0  0  0  0  0  0
  1  2  1  0
  2  3  2  0
  3  4  1  0
  4  5  2  0
  5  6  1  0
  6  7  2  0
  6  8  2  0
  6  9  1  0
  9 10  1  0
 10 11  2  0
 11 12  1  0
 12 13  2  0
 13 14  1  0
 14 15  2  0
 14 16  1  0
 16 17  1  0
 17 18  1  0
 18 19  1  0
 19 20  1  0
 20 21  1  0
 21 22  2  0
 22 23  1  0
 23 24  2  0
 24 25  1  0
 25 26  2  0
 19 27  1  0
 27 28  1  0
 13 29  1  0
 29 30  2  0
  5 31  1  0
 31 32  2  0
 32  2  1  0
 30 10  1  0
 28 16  1  0
 26 21  1  0
  1 33  1  0
  1 34  1  0
  1 35  1  0
  3 36  1  0
  4 37  1  0
 11 38  1  0
 12 39  1  0
 16 40  1  0
 17 41  1  0
 17 42  1  0
 18 43  1  0
 18 44  1  0
 20 45  1  0
 20 46  1  0
 22 47  1  0
 23 48  1  0
 24 49  1  0
 25 50  1  0
 26 51  1  0
 27 52  1  0
 27 53  1  0
 28 54  1  0
 28 55  1  0
 29 56  1  0
 30 57  1  0
 31 58  1  0
 32 59  1  0
M  CHG  2   9  -1  16   1
M  END
>  <UniqueID>  (48) 
48

>  <SMILES>  (48) 
Cc1ccc(S(=O)(=O)[N-]c2ccc(C(=O)[NH+]3CCN(Cc4ccccc4)CC3)cc2)cc1

>  <Energy>  (48) 
83.4429104867267

>  <Genealogy>  (48) 
Cc1ccc(S(=O)(=O)[N-]c2ccc(C(=O)[NH+]3CCN(Cc4ccccc4)CC3)cc2)cc1 (protonated)
Cc1ccc(S(=O)(=O)[N-]c2ccc(C(=O)[NH+]3CCN(Cc4ccccc4)CC3)cc2)cc1 (3D coordinates assigned)
Cc1ccc(S(=O)(=O)[N-]c2ccc(C(=O)[NH+]3CCN(Cc4ccccc4)CC3)cc2)cc1 (nonaromatic ring conformer: 83.4429104867267 kcal/mol)

>  <smiles>  (48) 
Cc1ccc(S(=O)(=O)Nc2ccc(C(=O)N3CCN(Cc4ccccc4)CC3)cc2)cc1

>  <score_type>  (48) 
oracle

>  <origin>  (48) 
adg

>  <m_score__min__energy>  (48) 
-9.6699999999999999

>  <m_primary>  (48) 
energy

$$$$
48:0
     RDKit          3D

 37 39  0  0  0  0  0  0  0  0999 V2000
   58.8445   29.7872   42.8570 H   0  0  0  0  0  0  0  0  0  0  0  0
   58.6070   29.5520   43.9050 C   0  0  0  0  0  0  0  0  0  0  0  0
   57.9820   28.3850   44.1580 C   0  0  0  0  0  0  0  0  0  0  0  0
   58.0380   27.3480   43.1570 C   0  0  0  0  0  0  0  0  0  0  0  0
   58.0840   26.5170   42.3530 N   0  0  0  0  0  0  0  0  0  0  0  0
   57.2600   28.0890   45.4210 C   0  0  0  0  0  0  0  0  0  0  0  0
   56.6370   29.0240   45.9920 O   0  0  0  0  0  0  0  0  0  0  0  0
   57.2150   26.7260   46.0160 C   0  0  0  0  0  0  0  0  0  0  0  0
   55.9930   26.0710   46.2670 C   0  0  0  0  0  0  0  0  0  0  0  0
   54.7790   26.6990   46.0110 O   0  0  0  0  0  0  0  0  0  0  0  0
   55.9890   24.8150   46.7810 N   0  0  0  0  0  0  0  0  0  0  0  0
   57.1470   24.1720   47.0740 C   0  0  0  0  0  0  0  0  0  0  0  0
   57.1160   23.0070   47.5470 O   0  0  0  0  0  0  0  0  0  0  0  0
   58.3380   24.7860   46.8620 N   0  0  0  0  0  0  0  0  0  0  0  0
   58.4000   26.0400   46.3470 C   0  0  0  0  0  0  0  0  0  0  0  0
   59.5270   26.5680   46.1520 O   0  0  0  0  0  0  0  0  0  0  0  0
   58.9960   30.5380   44.9340 C   0  0  0  0  0  0  0  0  0  0  0  0
   58.4760   31.8380   44.8710 C   0  0  0  0  0  0  0  0  0  0  0  0
   57.7781   32.1105   44.0656 H   0  0  0  0  0  0  0  0  0  0  0  0
   58.8410   32.7900   45.8280 C   0  0  0  0  0  0  0  0  0  0  0  0
   58.4541   33.8168   45.7507 H   0  0  0  0  0  0  0  0  0  0  0  0
   59.6940   32.4480   46.8830 C   0  0  0  0  0  0  0  0  0  0  0  0
   60.0770   33.4690   47.8190 N   0  0  0  0  0  0  0  0  0  0  0  0
   61.2160   33.5750   48.4420 C   0  0  0  0  0  0  0  0  0  0  0  0
   61.2690   33.8500   49.7770 N   0  0  0  0  0  0  0  0  0  0  0  0
   62.4500   33.9890   50.4370 C   0  0  0  0  0  0  0  0  0  0  0  0
   62.4547   34.2056   51.5154 H   0  0  0  0  0  0  0  0  0  0  0  0
   63.6560   33.8570   49.7470 C   0  0  0  0  0  0  0  0  0  0  0  0
   64.6146   33.9636   50.2760 H   0  0  0  0  0  0  0  0  0  0  0  0
   63.6310   33.5880   48.3770 C   0  0  0  0  0  0  0  0  0  0  0  0
   64.5729   33.4851   47.8182 H   0  0  0  0  0  0  0  0  0  0  0  0
   62.4080   33.4500   47.7180 C   0  0  0  0  0  0  0  0  0  0  0  0
   62.3810   33.2445   46.6377 H   0  0  0  0  0  0  0  0  0  0  0  0
   60.2140   31.1420   46.9500 C   0  0  0  0  0  0  0  0  0  0  0  0
   60.9097   30.8696   47.7574 H   0  0  0  0  0  0  0  0  0  0  0  0
   59.8490   30.1890   45.9930 C   0  0  0  0  0  0  0  0  0  0  0  0
   60.2324   29.1609   46.0707 H   0  0  0  0  0  0  0  0  0  0  0  0
  1  2  1  0
  2  3  2  0
  3  4  1  0
  4  5  3  0
  3  6  1  0
  6  7  2  0
  6  8  1  0
  8  9  2  0
  9 10  1  0
  9 11  1  0
 11 12  1  0
 12 13  2  0
 12 14  1  0
 14 15  1  0
 15 16  2  0
  2 17  1  0
 17 18  2  0
 18 19  1  0
 18 20  1  0
 20 21  1  0
 20 22  2  0
 22 23  1  0
 23 24  2  0
 24 25  1  0
 25 26  1  0
 26 27  1  0
 26 28  2  0
 28 29  1  0
 28 30  1  0
 30 31  1  0
 30 32  2  0
 32 33  1  0
 22 34  1  0
 34 35  1  0
 34 36  2  0
 36 37  1  0
 15  8  1  0
 36 17  1  0
 32 24  1  0
M  CHG  4  10  -1  11  -1  14  -1  25  -1
M  END
>  <UniqueID>  (49) 
49

>  <SMILES>  (49) 
N#C/C(=C/c1ccc(/N=c2/cccc[n-]2)cc1)C(=O)c1c([O-])[n-]c(=O)[n-]c1=O

>  <Energy>  (49) 
61.421080847822424

>  <Genealogy>  (49) 
N#CC(=Cc1ccc(N=c2cccc[n-]2)cc1)C(=O)c1c([O-])[n-]c(=O)[n-]c1=O (protonated)
N#C/C(=C/c1ccc(/N=c2/cccc[n-]2)cc1)C(=O)c1c([O-])[n-]c(=O)[n-]c1=O (cis-trans isomerization)
N#C/C(=C/c1ccc(/N=c2/cccc[n-]2)cc1)C(=O)c1c([O-])[n-]c(=O)[n-]c1=O (3D coordinates assigned)
N#C/C(=C/c1ccc(/N=c2/cccc[n-]2)cc1)C(=O)c1c([O-])[n-]c(=O)[n-]c1=O (optimized conformer: 61.421080847822424 kcal/mol)

>  <smiles>  (49) 
N#CC(=Cc1ccc(N=c2cccc[nH]2)cc1)C(=O)c1c(O)[nH]c(=O)[nH]c1=O

>  <score_type>  (49) 
oracle

>  <origin>  (49) 
adg

>  <m_score__min__energy>  (49) 
-16.699999999999999

>  <m_primary>  (49) 
energy

$$$$
49:0
     RDKit          3D

 46 48  0  0  0  0  0  0  0  0999 V2000
   53.1870   23.9790   44.9060 C   0  0  0  0  0  0  0  0  0  0  0  0
   54.6490   24.0330   45.2470 C   0  0  0  0  0  0  0  0  0  0  0  0
   55.4640   22.9080   45.0440 C   0  0  0  0  0  0  0  0  0  0  0  0
   56.8240   22.9590   45.3520 C   0  0  0  0  0  0  0  0  0  0  0  0
   57.3850   24.1300   45.8620 C   0  0  0  0  0  0  0  0  0  0  0  0
   56.5880   25.2670   46.0730 C   0  0  0  0  0  0  0  0  0  0  0  0
   57.2180   26.5390   46.5980 C   0  0  0  0  0  0  0  0  0  0  0  0
   56.8960   27.7050   45.7610 N   0  0  0  0  0  0  0  0  0  0  0  0
   58.0330   28.1140   44.9280 C   0  0  0  0  0  0  0  0  0  0  0  0
   57.8520   29.5430   44.4950 C   0  0  0  0  0  0  0  0  0  0  0  0
   57.1250   29.8440   43.3420 C   0  0  0  0  0  0  0  0  0  0  0  0
   56.9330   31.1730   42.9820 C   0  0  0  0  0  0  0  0  0  0  0  0
   57.4410   32.1770   43.7470 N   0  0  0  0  0  0  0  0  0  0  0  0
   58.1550   31.9340   44.8940 C   0  0  0  0  0  0  0  0  0  0  0  0
   58.6810   33.0360   45.6970 N   0  0  0  0  0  0  0  0  0  0  0  0
   59.0710   34.2930   45.0240 C   0  0  0  0  0  0  0  0  0  0  0  0
   59.6790   35.3300   45.9710 C   0  0  0  0  0  0  0  0  0  0  0  0
   59.0160   35.3290   47.2130 O   0  0  0  0  0  0  0  0  0  0  0  0
   59.3220   34.1260   47.8760 C   0  0  0  0  0  0  0  0  0  0  0  0
   58.6770   32.9290   47.1720 C   0  0  0  0  0  0  0  0  0  0  0  0
   58.3540   30.5880   45.2820 C   0  0  0  0  0  0  0  0  0  0  0  0
   55.2150   25.2160   45.7580 C   0  0  0  0  0  0  0  0  0  0  0  0
   54.4130   26.3390   45.9530 O   0  0  0  0  0  0  0  0  0  0  0  0
   52.5949   23.9571   45.8328 H   0  0  0  0  0  0  0  0  0  0  0  0
   52.9146   24.8677   44.3178 H   0  0  0  0  0  0  0  0  0  0  0  0
   52.9809   23.0726   44.3178 H   0  0  0  0  0  0  0  0  0  0  0  0
   55.0284   21.9821   44.6403 H   0  0  0  0  0  0  0  0  0  0  0  0
   57.4559   22.0729   45.1921 H   0  0  0  0  0  0  0  0  0  0  0  0
   58.4583   24.1630   46.1004 H   0  0  0  0  0  0  0  0  0  0  0  0
   56.8490   26.7223   47.6179 H   0  0  0  0  0  0  0  0  0  0  0  0
   58.3098   26.4053   46.5853 H   0  0  0  0  0  0  0  0  0  0  0  0
   56.0870   27.4710   45.1390 H   0  0  0  0  0  0  0  0  0  0  0  0
   58.9634   28.0220   45.5075 H   0  0  0  0  0  0  0  0  0  0  0  0
   58.0872   27.4670   44.0401 H   0  0  0  0  0  0  0  0  0  0  0  0
   56.7074   29.0361   42.7232 H   0  0  0  0  0  0  0  0  0  0  0  0
   56.3657   31.4149   42.0711 H   0  0  0  0  0  0  0  0  0  0  0  0
   57.2490   33.1480   43.4190 H   0  0  0  0  0  0  0  0  0  0  0  0
   59.8114   34.0559   44.2458 H   0  0  0  0  0  0  0  0  0  0  0  0
   58.1538   34.7345   44.6070 H   0  0  0  0  0  0  0  0  0  0  0  0
   60.7413   35.0928   46.1301 H   0  0  0  0  0  0  0  0  0  0  0  0
   59.5704   36.3258   45.5166 H   0  0  0  0  0  0  0  0  0  0  0  0
   60.4135   33.9902   47.8883 H   0  0  0  0  0  0  0  0  0  0  0  0
   58.9278   34.1822   48.9014 H   0  0  0  0  0  0  0  0  0  0  0  0
   59.2280   32.0204   47.4561 H   0  0  0  0  0  0  0  0  0  0  0  0
   57.6244   32.8971   47.4899 H   0  0  0  0  0  0  0  0  0  0  0  0
   58.9056   30.3607   46.2062 H   0  0  0  0  0  0  0  0  0  0  0  0
  1  2  1  0
  2  3  2  0
  3  4  1  0
  4  5  2  0
  5  6  1  0
  6  7  1  0
  7  8  1  0
  8  9  1  0
  9 10  1  0
 10 11  2  0
 11 12  1  0
 12 13  2  0
 13 14  1  0
 14 15  1  0
 15 16  1  0
 16 17  1  0
 17 18  1  0
 18 19  1  0
 19 20  1  0
 14 21  2  0
  6 22  2  0
 22 23  1  0
 22  2  1  0
 21 10  1  0
 20 15  1  0
  1 24  1  0
  1 25  1  0
  1 26  1  0
  3 27  1  0
  4 28  1  0
  5 29  1  0
  7 30  1  0
  7 31  1  0
  8 32  1  0
  9 33  1  0
  9 34  1  0
 11 35  1  0
 12 36  1  0
 13 37  1  0
 16 38  1  0
 16 39  1  0
 17 40  1  0
 17 41  1  0
 19 42  1  0
 19 43  1  0
 20 44  1  0
 20 45  1  0
 21 46  1  0
M  CHG  2  13   1  23  -1
M  END
>  <UniqueID>  (50) 
50

>  <SMILES>  (50) 
Cc1cccc(CNCc2cc[nH+]c(N3CCOCC3)c2)c1[O-]

>  <Energy>  (50) 
54.211143272516125

>  <Genealogy>  (50) 
Cc1cccc(CNCc2cc[nH+]c(N3CCOCC3)c2)c1[O-] (protonated)
Cc1cccc(CNCc2cc[nH+]c(N3CCOCC3)c2)c1[O-] (3D coordinates assigned)
Cc1cccc(CNCc2cc[nH+]c(N3CCOCC3)c2)c1[O-] (nonaromatic ring conformer: 54.211143272516125 kcal/mol)

>  <smiles>  (50) 
Cc1cccc(CNCc2ccnc(N3CCOCC3)c2)c1O

>  <score_type>  (50) 
oracle

>  <origin>  (50) 
adg

>  <m_score__min__energy>  (50) 
-10.73

>  <m_primary>  (50) 
energy

$$$$
50:0
     RDKit          3D

 52 55  0  0  0  0  0  0  0  0999 V2000
   58.0980   31.9006   42.5221 H   0  0  0  0  0  0  0  0  0  0  0  0
   57.6360   31.2750   43.3000 C   0  0  0  0  0  0  0  0  0  0  0  0
   56.7600   29.8620   43.0370 S   0  0  0  0  0  0  0  0  0  0  0  0
   56.4630   29.6230   44.6680 C   0  0  0  0  0  0  0  0  0  0  0  0
   55.8110   28.6030   45.1400 N   0  0  0  0  0  0  0  0  0  0  0  0
   56.3890   27.3610   45.5670 C   0  0  0  0  0  0  0  0  0  0  0  0
   55.8140   26.7060   46.4770 O   0  0  0  0  0  0  0  0  0  0  0  0
   57.6430   26.9010   45.0380 N   0  0  0  0  0  0  0  0  0  0  0  0
   58.3480   27.6210   44.7600 H   0  0  0  0  0  0  0  0  0  0  0  0
   58.0330   25.5180   44.9890 C   0  0  0  0  0  0  0  0  0  0  0  0
   59.1910   25.1050   45.6660 C   0  0  0  0  0  0  0  0  0  0  0  0
   59.7812   25.8377   46.2359 H   0  0  0  0  0  0  0  0  0  0  0  0
   59.5990   23.7700   45.6210 C   0  0  0  0  0  0  0  0  0  0  0  0
   60.4997   23.4530   46.1671 H   0  0  0  0  0  0  0  0  0  0  0  0
   58.8670   22.8370   44.8850 C   0  0  0  0  0  0  0  0  0  0  0  0
   59.1834   21.7837   44.8662 H   0  0  0  0  0  0  0  0  0  0  0  0
   57.7290   23.2380   44.1690 C   0  0  0  0  0  0  0  0  0  0  0  0
   56.9300   22.2320   43.3950 C   0  0  0  0  0  0  0  0  0  0  0  0
   56.4018   21.5670   44.0941 H   0  0  0  0  0  0  0  0  0  0  0  0
   56.1978   22.7542   42.7616 H   0  0  0  0  0  0  0  0  0  0  0  0
   57.6044   21.6370   42.7616 H   0  0  0  0  0  0  0  0  0  0  0  0
   57.3100   24.5770   44.2320 C   0  0  0  0  0  0  0  0  0  0  0  0
   56.4093   24.8930   43.6852 H   0  0  0  0  0  0  0  0  0  0  0  0
   57.0250   30.5860   45.4290 N   0  0  0  0  0  0  0  0  0  0  0  0
   57.6760   31.5180   44.6790 C   0  0  0  0  0  0  0  0  0  0  0  0
   58.3670   32.6710   45.3150 C   0  0  0  0  0  0  0  0  0  0  0  0
   58.6290   33.8280   44.5590 C   0  0  0  0  0  0  0  0  0  0  0  0
   58.3189   33.8719   43.5045 H   0  0  0  0  0  0  0  0  0  0  0  0
   59.2790   34.9210   45.1350 C   0  0  0  0  0  0  0  0  0  0  0  0
   59.4757   35.8207   44.5334 H   0  0  0  0  0  0  0  0  0  0  0  0
   59.6800   34.8770   46.4700 C   0  0  0  0  0  0  0  0  0  0  0  0
   60.1874   35.7445   46.9172 H   0  0  0  0  0  0  0  0  0  0  0  0
   59.4400   33.7320   47.2470 C   0  0  0  0  0  0  0  0  0  0  0  0
   59.8740   33.6850   48.6650 C   0  0  0  0  0  0  0  0  0  0  0  0
   59.4400   34.5390   49.4870 O   0  0  0  0  0  0  0  0  0  0  0  0
   60.7880   32.6740   49.1080 N   0  0  0  0  0  0  0  0  0  0  0  0
   61.5880   31.8540   48.2050 C   0  0  0  0  0  0  0  0  0  0  0  0
   61.8420   32.4412   47.3102 H   0  0  0  0  0  0  0  0  0  0  0  0
   62.5067   31.5418   48.7233 H   0  0  0  0  0  0  0  0  0  0  0  0
   60.8170   30.6290   47.7930 C   0  0  0  0  0  0  0  0  0  0  0  0
   60.0050   29.9640   48.7260 C   0  0  0  0  0  0  0  0  0  0  0  0
   59.9209   30.3500   49.7526 H   0  0  0  0  0  0  0  0  0  0  0  0
   59.3030   28.8130   48.3550 C   0  0  0  0  0  0  0  0  0  0  0  0
   58.6651   28.2981   49.0885 H   0  0  0  0  0  0  0  0  0  0  0  0
   59.4110   28.3160   47.0530 C   0  0  0  0  0  0  0  0  0  0  0  0
   58.8577   27.4108   46.7624 H   0  0  0  0  0  0  0  0  0  0  0  0
   60.2220   28.9690   46.1200 C   0  0  0  0  0  0  0  0  0  0  0  0
   60.3064   28.5771   45.0956 H   0  0  0  0  0  0  0  0  0  0  0  0
   60.9260   30.1200   46.4880 C   0  0  0  0  0  0  0  0  0  0  0  0
   61.5673   30.6286   45.7531 H   0  0  0  0  0  0  0  0  0  0  0  0
   58.7830   32.6320   46.6620 C   0  0  0  0  0  0  0  0  0  0  0  0
   58.5919   31.7310   47.2634 H   0  0  0  0  0  0  0  0  0  0  0  0
  1  2  1  0
  2  3  1  0
  3  4  1  0
  4  5  2  0
  5  6  1  0
  6  7  2  0
  6  8  1  0
  8  9  1  0
  8 10  1  0
 10 11  2  0
 11 12  1  0
 11 13  1  0
 13 14  1  0
 13 15  2  0
 15 16  1  0
 15 17  1  0
 17 18  1  0
 18 19  1  0
 18 20  1  0
 18 21  1  0
 17 22  2  0
 22 23  1  0
  4 24  1  0
 24 25  1  0
 25 26  1  0
 26 27  2  0
 27 28  1  0
 27 29  1  0
 29 30  1  0
 29 31  2  0
 31 32  1  0
 31 33  1  0
 33 34  1  0
 34 35  2  0
 34 36  1  0
 36 37  1  0
 37 38  1  0
 37 39  1  0
 37 40  1  0
 40 41  2  0
 41 42  1  0
 41 43  1  0
 43 44  1  0
 43 45  2  0
 45 46  1  0
 45 47  1  0
 47 48  1  0
 47 49  2  0
 49 50  1  0
 33 51  2  0
 51 52  1  0
 25  2  2  0
 51 26  1  0
 22 10  1  0
 49 40  1  0
M  CHG  2  24  -1  36  -1
M  END
>  <UniqueID>  (51) 
51

>  <SMILES>  (51) 
Cc1cccc(NC(=O)/N=c2\[n-]c(-c3cccc(C(=O)[N-]Cc4ccccc4)c3)cs2)c1

>  <Energy>  (51) 
92.82617465476399

>  <Genealogy>  (51) 
Cc1cccc(NC(=O)N=c2[n-]c(-c3cccc(C(=O)[N-]Cc4ccccc4)c3)cs2)c1 (protonated)
Cc1cccc(NC(=O)/N=c2\[n-]c(-c3cccc(C(=O)[N-]Cc4ccccc4)c3)cs2)c1 (cis-trans isomerization)
Cc1cccc(NC(=O)/N=c2\[n-]c(-c3cccc(C(=O)[N-]Cc4ccccc4)c3)cs2)c1 (3D coordinates assigned)
Cc1cccc(NC(=O)/N=c2\[n-]c(-c3cccc(C(=O)[N-]Cc4ccccc4)c3)cs2)c1 (optimized conformer: 92.82617465476399 kcal/mol)

>  <smiles>  (51) 
Cc1cccc(NC(=O)N=c2[nH]c(-c3cccc(C(=O)NCc4ccccc4)c3)cs2)c1

>  <score_type>  (51) 
oracle

>  <origin>  (51) 
adg

>  <m_score__min__energy>  (51) 
-12.859999999999999

>  <m_primary>  (51) 
energy

$$$$
51:0
     RDKit          3D

 55 58  0  0  0  0  0  0  0  0999 V2000
   56.7640   29.8250   45.2090 O   0  0  0  0  0  0  0  0  0  0  0  0
   57.7950   30.2660   45.7830 C   0  0  0  0  0  0  0  0  0  0  0  0
   58.7170   29.3620   46.4180 N   0  0  0  0  0  0  0  0  0  0  0  0
   58.6300   27.9300   46.3220 C   0  0  0  0  0  0  0  0  0  0  0  0
   59.8010   27.1670   46.4260 C   0  0  0  0  0  0  0  0  0  0  0  0
   59.7440   25.7740   46.3540 C   0  0  0  0  0  0  0  0  0  0  0  0
   58.5160   25.1300   46.1950 C   0  0  0  0  0  0  0  0  0  0  0  0
   57.3310   25.8780   46.1230 C   0  0  0  0  0  0  0  0  0  0  0  0
   55.7740   25.0620   45.9640 S   0  0  0  0  0  0  0  0  0  0  0  0
   54.6760   26.0900   45.9840 O   0  0  0  0  0  0  0  0  0  0  0  0
   55.5720   24.1480   47.1410 O   0  0  0  0  0  0  0  0  0  0  0  0
   55.6680   24.1260   44.4880 N   0  0  0  0  0  0  0  0  0  0  0  0
   56.9280   24.1740   43.7380 C   0  0  0  0  0  0  0  0  0  0  0  0
   57.7090   22.9000   44.0210 C   0  0  0  0  0  0  0  0  0  0  0  0
   56.7480   21.9720   44.7360 C   0  0  0  0  0  0  0  0  0  0  0  0
   55.4190   22.7100   44.7780 C   0  0  0  0  0  0  0  0  0  0  0  0
   57.3920   27.2780   46.1870 C   0  0  0  0  0  0  0  0  0  0  0  0
   58.0360   31.7270   45.7940 C   0  0  0  0  0  0  0  0  0  0  0  0
   57.5830   32.4990   44.7100 C   0  0  0  0  0  0  0  0  0  0  0  0
   57.8140   33.8760   44.6740 C   0  0  0  0  0  0  0  0  0  0  0  0
   58.5050   34.4990   45.7140 C   0  0  0  0  0  0  0  0  0  0  0  0
   58.9760   33.7440   46.7900 C   0  0  0  0  0  0  0  0  0  0  0  0
   58.7600   32.3580   46.8330 C   0  0  0  0  0  0  0  0  0  0  0  0
   59.3110   31.5930   47.9080 N   0  0  0  0  0  0  0  0  0  0  0  0
   60.9190   30.9560   47.8450 S   0  0  0  0  0  0  0  0  0  0  0  0
   60.9510   29.6350   48.5600 O   0  0  0  0  0  0  0  0  0  0  0  0
   61.3090   30.7320   46.4110 O   0  0  0  0  0  0  0  0  0  0  0  0
   62.0530   32.0600   48.6190 C   0  0  0  0  0  0  0  0  0  0  0  0
   61.6710   32.7680   49.7670 C   0  0  0  0  0  0  0  0  0  0  0  0
   62.5610   33.6660   50.3660 C   0  0  0  0  0  0  0  0  0  0  0  0
   63.8330   33.8620   49.8170 C   0  0  0  0  0  0  0  0  0  0  0  0
   64.2160   33.1610   48.6700 C   0  0  0  0  0  0  0  0  0  0  0  0
   63.3280   32.2630   48.0690 C   0  0  0  0  0  0  0  0  0  0  0  0
   59.5570   29.7560   46.9010 H   0  0  0  0  0  0  0  0  0  0  0  0
   60.7701   27.6684   46.5651 H   0  0  0  0  0  0  0  0  0  0  0  0
   60.6690   25.1826   46.4227 H   0  0  0  0  0  0  0  0  0  0  0  0
   58.4770   24.0329   46.1259 H   0  0  0  0  0  0  0  0  0  0  0  0
   56.7159   24.2473   42.6611 H   0  0  0  0  0  0  0  0  0  0  0  0
   57.5156   25.0516   44.0456 H   0  0  0  0  0  0  0  0  0  0  0  0
   58.0516   22.4446   43.0801 H   0  0  0  0  0  0  0  0  0  0  0  0
   58.6028   23.1018   44.6297 H   0  0  0  0  0  0  0  0  0  0  0  0
   56.6446   21.0267   44.1831 H   0  0  0  0  0  0  0  0  0  0  0  0
   57.1037   21.7179   45.7454 H   0  0  0  0  0  0  0  0  0  0  0  0
   54.7368   22.2905   44.0239 H   0  0  0  0  0  0  0  0  0  0  0  0
   54.9574   22.6024   45.7707 H   0  0  0  0  0  0  0  0  0  0  0  0
   56.4659   27.8689   46.1312 H   0  0  0  0  0  0  0  0  0  0  0  0
   57.0423   32.0147   43.8835 H   0  0  0  0  0  0  0  0  0  0  0  0
   57.4502   34.4711   43.8234 H   0  0  0  0  0  0  0  0  0  0  0  0
   58.6787   35.5849   45.6862 H   0  0  0  0  0  0  0  0  0  0  0  0
   59.5195   34.2384   47.6087 H   0  0  0  0  0  0  0  0  0  0  0  0
   60.6700   32.6173   50.1975 H   0  0  0  0  0  0  0  0  0  0  0  0
   62.2607   34.2181   51.2688 H   0  0  0  0  0  0  0  0  0  0  0  0
   64.5322   34.5683   50.2885 H   0  0  0  0  0  0  0  0  0  0  0  0
   65.2165   33.3157   48.2397 H   0  0  0  0  0  0  0  0  0  0  0  0
   63.6294   31.7151   47.1640 H   0  0  0  0  0  0  0  0  0  0  0  0
  1  2  2  0
  2  3  1  0
  3  4  1  0
  4  5  2  0
  5  6  1  0
  6  7  2  0
  7  8  1  0
  8  9  1  0
  9 10  2  0
  9 11  2  0
  9 12  1  0
 12 13  1  0
 13 14  1  0
 14 15  1  0
 15 16  1  0
  8 17  2  0
  2 18  1  0
 18 19  2  0
 19 20  1  0
 20 21  2  0
 21 22  1  0
 22 23  2  0
 23 24  1  0
 24 25  1  0
 25 26  2  0
 25 27  2  0
 25 28  1  0
 28 29  2  0
 29 30  1  0
 30 31  2  0
 31 32  1  0
 32 33  2  0
 17  4  1  0
 23 18  1  0
 33 28  1  0
 16 12  1  0
  3 34  1  0
  5 35  1  0
  6 36  1  0
  7 37  1  0
 13 38  1  0
 13 39  1  0
 14 40  1  0
 14 41  1  0
 15 42  1  0
 15 43  1  0
 16 44  1  0
 16 45  1  0
 17 46  1  0
 19 47  1  0
 20 48  1  0
 21 49  1  0
 22 50  1  0
 29 51  1  0
 30 52  1  0
 31 53  1  0
 32 54  1  0
 33 55  1  0
M  CHG  1  24  -1
M  END
>  <UniqueID>  (52) 
52

>  <SMILES>  (52) 
O=C(Nc1cccc(S(=O)(=O)N2CCCC2)c1)c1ccccc1[N-]S(=O)(=O)c1ccccc1

>  <Energy>  (52) 
75.87840879960628

>  <Genealogy>  (52) 
O=C(Nc1cccc(S(=O)(=O)N2CCCC2)c1)c1ccccc1[N-]S(=O)(=O)c1ccccc1 (protonated)
O=C(Nc1cccc(S(=O)(=O)N2CCCC2)c1)c1ccccc1[N-]S(=O)(=O)c1ccccc1 (3D coordinates assigned)
O=C(Nc1cccc(S(=O)(=O)N2CCCC2)c1)c1ccccc1[N-]S(=O)(=O)c1ccccc1 (nonaromatic ring conformer: 75.87840879960628 kcal/mol)

>  <smiles>  (52) 
O=C(Nc1cccc(S(=O)(=O)N2CCCC2)c1)c1ccccc1NS(=O)(=O)c1ccccc1

>  <score_type>  (52) 
oracle

>  <origin>  (52) 
adg

>  <m_score__min__energy>  (52) 
-11.24

>  <m_primary>  (52) 
energy

$$$$
52:0
     RDKit          3D

 22 22  0  0  0  0  0  0  0  0999 V2000
   59.6550   35.0600   45.9600 C   0  0  0  0  0  0  0  0  0  0  0  0
   59.0790   34.2880   45.2350 C   0  0  0  0  0  0  0  0  0  0  0  0
   58.3760   33.3510   44.3550 C   0  0  0  0  0  0  0  0  0  0  0  0
   57.0080   32.5370   45.2490 S   0  0  0  0  0  0  0  0  0  0  0  0
   57.4340   30.8640   44.7110 C   0  0  0  0  0  0  0  0  0  0  0  0
   56.5940   30.2500   43.7800 C   0  0  0  0  0  0  0  0  0  0  0  0
   56.8570   28.9990   43.3230 N   0  0  0  0  0  0  0  0  0  0  0  0
   57.9390   28.2860   43.7530 C   0  0  0  0  0  0  0  0  0  0  0  0
   58.1520   27.0550   43.2630 C   0  0  0  0  0  0  0  0  0  0  0  0
   58.8120   28.8550   44.7070 C   0  0  0  0  0  0  0  0  0  0  0  0
   59.8140   28.2020   45.1180 O   0  0  0  0  0  0  0  0  0  0  0  0
   58.5570   30.1570   45.2030 C   0  0  0  0  0  0  0  0  0  0  0  0
   59.3680   30.6990   46.1330 C   0  0  0  0  0  0  0  0  0  0  0  0
   60.1806   35.7644   46.6215 H   0  0  0  0  0  0  0  0  0  0  0  0
   57.9690   33.9000   43.4930 H   0  0  0  0  0  0  0  0  0  0  0  0
   59.0855   32.5824   44.0147 H   0  0  0  0  0  0  0  0  0  0  0  0
   55.7074   30.7870   43.4119 H   0  0  0  0  0  0  0  0  0  0  0  0
   56.1980   28.5910   42.6220 H   0  0  0  0  0  0  0  0  0  0  0  0
   59.0203   26.4708   43.6018 H   0  0  0  0  0  0  0  0  0  0  0  0
   57.4583   26.6301   42.5226 H   0  0  0  0  0  0  0  0  0  0  0  0
   59.1669   31.7104   46.5159 H   0  0  0  0  0  0  0  0  0  0  0  0
   60.2310   30.1300   46.5091 H   0  0  0  0  0  0  0  0  0  0  0  0
  1  2  3  0
  2  3  1  0
  3  4  1  0
  4  5  1  0
  5  6  2  0
  6  7  1  0
  7  8  1  0
  8  9  2  0
  8 10  1  0
 10 11  2  0
 10 12  1  0
 12 13  2  0
 12  5  1  0
  1 14  1  0
  3 15  1  0
  3 16  1  0
  6 17  1  0
  7 18  1  0
  9 19  1  0
  9 20  1  0
 13 21  1  0
 13 22  1  0
M  END
>  <UniqueID>  (53) 
53

>  <SMILES>  (53) 
C#CCSc1c[nH]c(=C)c(=O)c1=C

>  <Energy>  (53) 
21.300248805652878

>  <Genealogy>  (53) 
C#CCSc1c[nH]c(=C)c(=O)c1=C (3D coordinates assigned)
C#CCSc1c[nH]c(=C)c(=O)c1=C (optimized conformer: 21.300248805652878 kcal/mol)

>  <smiles>  (53) 
C#CCSc1c[nH]c(=C)c(=O)c1=C

>  <score_type>  (53) 
oracle

>  <origin>  (53) 
adg

>  <m_score__min__energy>  (53) 
-5.1200000000000001

>  <m_primary>  (53) 
energy

$$$$
53:0
     RDKit          3D

 36 39  0  0  0  0  0  0  0  0999 V2000
   54.3650   29.2390   51.9730 O   0  0  0  0  0  0  0  0  0  0  0  0
   54.1590   30.4150   52.3770 C   0  0  0  0  0  0  0  0  0  0  0  0
   52.7560   30.8800   52.6010 C   0  0  0  0  0  0  0  0  0  0  0  0
   52.0360   30.9860   51.2940 C   0  0  0  0  0  0  0  0  0  0  0  0
   52.1170   29.8560   50.0470 S   0  0  0  0  0  0  0  0  0  0  0  0
   51.1530   30.7860   49.0320 C   0  0  0  0  0  0  0  0  0  0  0  0
   50.8180   30.4500   47.8670 O   0  0  0  0  0  0  0  0  0  0  0  0
   50.7710   31.9510   49.5990 N   0  0  0  0  0  0  0  0  0  0  0  0
   51.2700   32.0640   50.8580 C   0  0  0  0  0  0  0  0  0  0  0  0
   51.0260   33.1870   51.6400 O   0  0  0  0  0  0  0  0  0  0  0  0
   55.2470   31.3030   52.6710 N   0  0  0  0  0  0  0  0  0  0  0  0
   56.3730   31.3760   52.0250 C   0  0  0  0  0  0  0  0  0  0  0  0
   56.8740   30.3780   51.2540 N   0  0  0  0  0  0  0  0  0  0  0  0
   58.0640   30.7440   50.7130 C   0  0  0  0  0  0  0  0  0  0  0  0
   58.8270   29.9360   49.8690 C   0  0  0  0  0  0  0  0  0  0  0  0
   60.0520   30.4310   49.3740 C   0  0  0  0  0  0  0  0  0  0  0  0
   60.8710   29.5990   48.4280 C   0  0  0  0  0  0  0  0  0  0  0  0
   60.2330   29.5650   47.1150 N   0  0  0  0  0  0  0  0  0  0  0  0
   60.2060   28.5330   46.2580 C   0  0  0  0  0  0  0  0  0  0  0  0
   59.4310   28.9010   45.1810 C   0  0  0  0  0  0  0  0  0  0  0  0
   58.9610   30.1520   45.3670 N   0  0  0  0  0  0  0  0  0  0  0  0
   59.4670   30.5250   46.5620 C   0  0  0  0  0  0  0  0  0  0  0  0
   60.4740   31.7370   49.7180 C   0  0  0  0  0  0  0  0  0  0  0  0
   59.6960   32.5380   50.5690 C   0  0  0  0  0  0  0  0  0  0  0  0
   58.5000   32.0150   51.0500 C   0  0  0  0  0  0  0  0  0  0  0  0
   57.3750   32.7380   52.0670 S   0  0  0  0  0  0  0  0  0  0  0  0
   52.2327   30.1602   53.2475 H   0  0  0  0  0  0  0  0  0  0  0  0
   52.7764   31.8687   53.0826 H   0  0  0  0  0  0  0  0  0  0  0  0
   58.4790   28.9294   49.5941 H   0  0  0  0  0  0  0  0  0  0  0  0
   61.8758   30.0366   48.3339 H   0  0  0  0  0  0  0  0  0  0  0  0
   60.9466   28.5741   48.8202 H   0  0  0  0  0  0  0  0  0  0  0  0
   60.7125   27.5658   46.3919 H   0  0  0  0  0  0  0  0  0  0  0  0
   59.2262   28.2711   44.3028 H   0  0  0  0  0  0  0  0  0  0  0  0
   59.2755   31.5016   47.0305 H   0  0  0  0  0  0  0  0  0  0  0  0
   61.4199   32.1281   49.3151 H   0  0  0  0  0  0  0  0  0  0  0  0
   60.0229   33.5507   50.8476 H   0  0  0  0  0  0  0  0  0  0  0  0
  1  2  2  0
  2  3  1  0
  3  4  1  0
  4  5  1  0
  5  6  1  0
  6  7  2  0
  6  8  1  0
  8  9  1  0
  9 10  1  0
  2 11  1  0
 11 12  2  3
 12 13  1  0
 13 14  1  0
 14 15  2  0
 15 16  1  0
 16 17  1  0
 17 18  1  0
 18 19  1  0
 19 20  2  0
 20 21  1  0
 21 22  2  0
 16 23  2  0
 23 24  1  0
 24 25  2  0
 25 26  1  0
  9  4  2  0
 26 12  1  0
 25 14  1  0
 22 18  1  0
  3 27  1  0
  3 28  1  0
 15 29  1  0
 17 30  1  0
 17 31  1  0
 19 32  1  0
 20 33  1  0
 22 34  1  0
 23 35  1  0
 24 36  1  0
M  CHG  3   8  -1  10  -1  13  -1
M  END
>  <UniqueID>  (54) 
54

>  <SMILES>  (54) 
O=C(Cc1sc(=O)[n-]c1[O-])N=c1[n-]c2cc(Cn3ccnc3)ccc2s1

>  <Energy>  (54) 
132.72089772166555

>  <Genealogy>  (54) 
O=C(Cc1sc(=O)[n-]c1[O-])N=c1[n-]c2cc(Cn3ccnc3)ccc2s1 (protonated)
O=C(Cc1sc(=O)[n-]c1[O-])N=c1[n-]c2cc(Cn3ccnc3)ccc2s1 (3D coordinates assigned)
O=C(Cc1sc(=O)[n-]c1[O-])N=c1[n-]c2cc(Cn3ccnc3)ccc2s1 (optimized conformer: 132.72089772166555 kcal/mol)

>  <smiles>  (54) 
O=C(Cc1sc(=O)[nH]c1O)N=c1[nH]c2cc(Cn3ccnc3)ccc2s1

>  <score_type>  (54) 
oracle

>  <origin>  (54) 
adg

>  <m_score__min__energy>  (54) 
-16.510000000000002

>  <m_primary>  (54) 
energy

$$$$
54:0
     RDKit          3D

 41 43  0  0  0  0  0  0  0  0999 V2000
   59.2250   28.6420   45.3050 C   0  0  0  0  0  0  0  0  0  0  0  0
   57.7890   28.9690   45.0240 C   0  0  0  0  0  0  0  0  0  0  0  0
   56.6850   28.2740   45.4610 C   0  0  0  0  0  0  0  0  0  0  0  0
   56.7140   27.1280   46.3140 N   0  0  0  0  0  0  0  0  0  0  0  0
   55.8750   25.6650   45.9290 S   0  0  0  0  0  0  0  0  0  0  0  0
   56.6430   24.8780   44.5300 C   0  0  0  0  0  0  0  0  0  0  0  0
   55.9390   24.7390   47.1110 O   0  0  0  0  0  0  0  0  0  0  0  0
   54.4360   25.9690   45.6240 O   0  0  0  0  0  0  0  0  0  0  0  0
   55.5550   28.8360   44.9860 N   0  0  0  0  0  0  0  0  0  0  0  0
   56.0020   29.8780   44.2500 C   0  0  0  0  0  0  0  0  0  0  0  0
   57.3490   29.9820   44.2500 N   0  0  0  0  0  0  0  0  0  0  0  0
   58.1300   31.0370   43.6020 C   0  0  0  0  0  0  0  0  0  0  0  0
   58.2480   32.2260   44.5190 C   0  0  0  0  0  0  0  0  0  0  0  0
   57.7840   33.4890   44.1220 C   0  0  0  0  0  0  0  0  0  0  0  0
   57.8540   34.5730   45.0030 C   0  0  0  0  0  0  0  0  0  0  0  0
   58.3630   34.3980   46.2930 C   0  0  0  0  0  0  0  0  0  0  0  0
   58.8090   33.1350   46.7140 C   0  0  0  0  0  0  0  0  0  0  0  0
   59.3090   32.9380   48.0960 C   0  0  0  0  0  0  0  0  0  0  0  0
   58.6180   32.2720   48.9120 O   0  0  0  0  0  0  0  0  0  0  0  0
   60.5370   33.5280   48.5540 N   0  0  0  0  0  0  0  0  0  0  0  0
   61.6880   33.4420   47.9520 C   0  0  0  0  0  0  0  0  0  0  0  0
   62.6860   32.6180   48.3390 N   0  0  0  0  0  0  0  0  0  0  0  0
   63.6560   32.8770   47.4430 C   0  0  0  0  0  0  0  0  0  0  0  0
   63.2150   33.8390   46.5610 C   0  0  0  0  0  0  0  0  0  0  0  0
   61.9970   34.1720   46.9060 O   0  0  0  0  0  0  0  0  0  0  0  0
   58.7800   32.0630   45.8070 C   0  0  0  0  0  0  0  0  0  0  0  0
   59.3867   28.6052   46.3924 H   0  0  0  0  0  0  0  0  0  0  0  0
   59.4715   27.6647   44.8644 H   0  0  0  0  0  0  0  0  0  0  0  0
   59.8704   29.4162   44.8644 H   0  0  0  0  0  0  0  0  0  0  0  0
   57.3707   24.1323   44.8826 H   0  0  0  0  0  0  0  0  0  0  0  0
   55.8737   24.3803   43.9213 H   0  0  0  0  0  0  0  0  0  0  0  0
   57.1593   25.6349   43.9213 H   0  0  0  0  0  0  0  0  0  0  0  0
   55.3389   30.5685   43.7082 H   0  0  0  0  0  0  0  0  0  0  0  0
   59.1350   30.6555   43.3687 H   0  0  0  0  0  0  0  0  0  0  0  0
   57.6237   31.3441   42.6750 H   0  0  0  0  0  0  0  0  0  0  0  0
   57.3639   33.6272   43.1148 H   0  0  0  0  0  0  0  0  0  0  0  0
   57.5076   35.5658   44.6799 H   0  0  0  0  0  0  0  0  0  0  0  0
   58.4144   35.2541   46.9818 H   0  0  0  0  0  0  0  0  0  0  0  0
   64.6451   32.3963   47.4187 H   0  0  0  0  0  0  0  0  0  0  0  0
   63.7852   34.2537   45.7167 H   0  0  0  0  0  0  0  0  0  0  0  0
   59.1792   31.0838   46.1101 H   0  0  0  0  0  0  0  0  0  0  0  0
  1  2  1  0
  2  3  2  0
  3  4  1  0
  4  5  1  0
  5  6  1  0
  5  7  2  0
  5  8  2  0
  3  9  1  0
  9 10  2  0
 10 11  1  0
 11 12  1  0
 12 13  1  0
 13 14  2  0
 14 15  1  0
 15 16  2  0
 16 17  1  0
 17 18  1  0
 18 19  2  0
 18 20  1  0
 20 21  2  3
 21 22  1  0
 22 23  1  0
 23 24  2  0
 24 25  1  0
 17 26  2  0
 11  2  1  0
 26 13  1  0
 25 21  1  0
  1 27  1  0
  1 28  1  0
  1 29  1  0
  6 30  1  0
  6 31  1  0
  6 32  1  0
 10 33  1  0
 12 34  1  0
 12 35  1  0
 14 36  1  0
 15 37  1  0
 16 38  1  0
 23 39  1  0
 24 40  1  0
 26 41  1  0
M  CHG  2   4  -1  22  -1
M  END
>  <UniqueID>  (55) 
55

>  <SMILES>  (55) 
Cc1c([N-]S(C)(=O)=O)ncn1Cc1cccc(C(=O)N=c2[n-]cco2)c1

>  <Energy>  (55) 
102.80916125565096

>  <Genealogy>  (55) 
Cc1c([N-]S(C)(=O)=O)ncn1Cc1cccc(C(=O)N=c2[n-]cco2)c1 (protonated)
Cc1c([N-]S(C)(=O)=O)ncn1Cc1cccc(C(=O)N=c2[n-]cco2)c1 (3D coordinates assigned)
Cc1c([N-]S(C)(=O)=O)ncn1Cc1cccc(C(=O)N=c2[n-]cco2)c1 (optimized conformer: 102.80916125565096 kcal/mol)

>  <smiles>  (55) 
Cc1c(NS(C)(=O)=O)ncn1Cc1cccc(C(=O)N=c2[nH]cco2)c1

>  <score_type>  (55) 
oracle

>  <origin>  (55) 
adg

>  <m_score__min__energy>  (55) 
-11.289999999999999

>  <m_primary>  (55) 
energy

$$$$
55:0
     RDKit          3D

 57 61  0  0  0  0  0  0  0  0999 V2000
   61.3941   30.0569   47.5228 H   0  0  0  0  0  0  0  0  0  0  0  0
   61.4330   31.1300   47.2840 C   0  0  0  0  0  0  0  0  0  0  0  0
   60.3470   31.7470   46.7430 N   0  0  0  0  0  0  0  0  0  0  0  0
   60.3570   33.0720   46.4340 C   0  0  0  0  0  0  0  0  0  0  0  0
   58.9150   33.8240   45.7720 S   0  0  0  0  0  0  0  0  0  0  0  0
   59.1010   35.3140   45.6770 O   0  0  0  0  0  0  0  0  0  0  0  0
   57.7550   33.5340   46.6820 O   0  0  0  0  0  0  0  0  0  0  0  0
   58.5820   33.1870   44.1910 N   0  0  0  0  0  0  0  0  0  0  0  0
   58.7060   33.8440   43.3880 H   0  0  0  0  0  0  0  0  0  0  0  0
   58.0630   31.8640   43.9510 C   0  0  0  0  0  0  0  0  0  0  0  0
   58.2500   30.8190   44.8750 C   0  0  0  0  0  0  0  0  0  0  0  0
   58.8156   31.0054   45.7999 H   0  0  0  0  0  0  0  0  0  0  0  0
   57.7220   29.5400   44.6290 C   0  0  0  0  0  0  0  0  0  0  0  0
   57.8820   28.4290   45.6060 C   0  0  0  0  0  0  0  0  0  0  0  0
   58.6430   28.6260   46.7180 N   0  0  0  0  0  0  0  0  0  0  0  0
   58.8240   27.6470   47.6450 C   0  0  0  0  0  0  0  0  0  0  0  0
   59.5860   27.8810   48.6730 N   0  0  0  0  0  0  0  0  0  0  0  0
   59.5530   29.0370   49.5260 C   0  0  0  0  0  0  0  0  0  0  0  0
   60.2730   29.0120   50.7210 C   0  0  0  0  0  0  0  0  0  0  0  0
   60.8361   28.1084   50.9976 H   0  0  0  0  0  0  0  0  0  0  0  0
   60.2870   30.1210   51.5700 C   0  0  0  0  0  0  0  0  0  0  0  0
   60.8502   30.0727   52.5137 H   0  0  0  0  0  0  0  0  0  0  0  0
   59.5880   31.3070   51.2360 C   0  0  0  0  0  0  0  0  0  0  0  0
   59.5910   32.4660   52.1260 N   0  0  0  0  0  0  0  0  0  0  0  0
   60.6560   32.5950   53.1420 C   0  0  0  0  0  0  0  0  0  0  0  0
   60.5665   31.7560   53.8478 H   0  0  0  0  0  0  0  0  0  0  0  0
   61.6159   32.5900   52.6048 H   0  0  0  0  0  0  0  0  0  0  0  0
   60.5930   33.9030   53.9350 C   0  0  0  0  0  0  0  0  0  0  0  0
   61.1382   33.7765   54.8820 H   0  0  0  0  0  0  0  0  0  0  0  0
   61.0497   34.7016   53.3320 H   0  0  0  0  0  0  0  0  0  0  0  0
   59.2590   34.2580   54.2150 O   0  0  0  0  0  0  0  0  0  0  0  0
   58.6350   34.6240   53.0070 C   0  0  0  0  0  0  0  0  0  0  0  0
   57.6485   35.0571   53.2289 H   0  0  0  0  0  0  0  0  0  0  0  0
   59.2723   35.3583   52.4926 H   0  0  0  0  0  0  0  0  0  0  0  0
   58.4540   33.4100   52.0910 C   0  0  0  0  0  0  0  0  0  0  0  0
   57.5462   32.8723   52.4020 H   0  0  0  0  0  0  0  0  0  0  0  0
   58.3834   33.7910   51.0615 H   0  0  0  0  0  0  0  0  0  0  0  0
   58.9000   31.3310   49.9990 C   0  0  0  0  0  0  0  0  0  0  0  0
   58.3636   32.2426   49.6970 H   0  0  0  0  0  0  0  0  0  0  0  0
   58.8900   30.2180   49.1550 C   0  0  0  0  0  0  0  0  0  0  0  0
   58.3590   30.2670   48.1929 H   0  0  0  0  0  0  0  0  0  0  0  0
   58.2420   26.4300   47.4560 N   0  0  0  0  0  0  0  0  0  0  0  0
   57.4680   26.1850   46.3690 C   0  0  0  0  0  0  0  0  0  0  0  0
   57.0016   25.1974   46.2381 H   0  0  0  0  0  0  0  0  0  0  0  0
   57.2630   27.1830   45.4180 C   0  0  0  0  0  0  0  0  0  0  0  0
   56.6292   26.9982   44.5381 H   0  0  0  0  0  0  0  0  0  0  0  0
   57.0040   29.3340   43.4430 C   0  0  0  0  0  0  0  0  0  0  0  0
   56.5678   28.3465   43.2321 H   0  0  0  0  0  0  0  0  0  0  0  0
   56.8440   30.3470   42.5530 N   0  0  0  0  0  0  0  0  0  0  0  0
   57.3490   31.5880   42.7710 C   0  0  0  0  0  0  0  0  0  0  0  0
   57.1640   32.4870   41.9100 O   0  0  0  0  0  0  0  0  0  0  0  0
   61.5040   33.8370   46.6740 C   0  0  0  0  0  0  0  0  0  0  0  0
   61.5196   34.9090   46.4278 H   0  0  0  0  0  0  0  0  0  0  0  0
   62.6290   33.2230   47.2300 C   0  0  0  0  0  0  0  0  0  0  0  0
   63.5374   33.8114   47.4263 H   0  0  0  0  0  0  0  0  0  0  0  0
   62.5980   31.8610   47.5360 C   0  0  0  0  0  0  0  0  0  0  0  0
   63.4804   31.3685   47.9705 H   0  0  0  0  0  0  0  0  0  0  0  0
  1  2  1  0
  2  3  2  0
  3  4  1  0
  4  5  1  0
  5  6  2  0
  5  7  2  0
  5  8  1  0
  8  9  1  0
  8 10  1  0
 10 11  2  0
 11 12  1  0
 11 13  1  0
 13 14  1  0
 14 15  2  0
 15 16  1  0
 16 17  2  0
 17 18  1  0
 18 19  2  0
 19 20  1  0
 19 21  1  0
 21 22  1  0
 21 23  2  0
 23 24  1  0
 24 25  1  0
 25 26  1  0
 25 27  1  0
 25 28  1  0
 28 29  1  0
 28 30  1  0
 28 31  1  0
 31 32  1  0
 32 33  1  0
 32 34  1  0
 32 35  1  0
 35 36  1  0
 35 37  1  0
 23 38  1  0
 38 39  1  0
 38 40  2  0
 40 41  1  0
 16 42  1  0
 42 43  1  0
 43 44  1  0
 43 45  2  0
 45 46  1  0
 13 47  2  0
 47 48  1  0
 47 49  1  0
 49 50  1  0
 50 51  2  0
  4 52  2  0
 52 53  1  0
 52 54  1  0
 54 55  1  0
 54 56  2  0
 56 57  1  0
 56  2  1  0
 50 10  1  0
 45 14  1  0
 40 18  1  0
 35 24  1  0
M  CHG  2  42  -1  49  -1
M  END
>  <UniqueID>  (56) 
56

>  <SMILES>  (56) 
O=c1[n-]cc(-c2cc[n-]/c(=N\c3ccc(N4CCOCC4)cc3)n2)cc1NS(=O)(=O)c1ccccn1

>  <Energy>  (56) 
86.62667807207369

>  <Genealogy>  (56) 
O=c1[n-]cc(-c2cc[n-]c(=Nc3ccc(N4CCOCC4)cc3)n2)cc1NS(=O)(=O)c1ccccn1 (protonated)
O=c1[n-]cc(-c2cc[n-]/c(=N\c3ccc(N4CCOCC4)cc3)n2)cc1NS(=O)(=O)c1ccccn1 (cis-trans isomerization)
O=c1[n-]cc(-c2cc[n-]/c(=N\c3ccc(N4CCOCC4)cc3)n2)cc1NS(=O)(=O)c1ccccn1 (3D coordinates assigned)
O=c1[n-]cc(-c2cc[n-]/c(=N\c3ccc(N4CCOCC4)cc3)n2)cc1NS(=O)(=O)c1ccccn1 (nonaromatic ring conformer: 86.62667807207369 kcal/mol)

>  <smiles>  (56) 
O=c1[nH]cc(-c2cc[nH]c(=Nc3ccc(N4CCOCC4)cc3)n2)cc1NS(=O)(=O)c1ccccn1

>  <score_type>  (56) 
oracle

>  <origin>  (56) 
adg

>  <m_score__min__energy>  (56) 
-12.08

>  <m_primary>  (56) 
energy

$$$$
56:0
     RDKit          3D

 57 60  0  0  0  0  0  0  0  0999 V2000
   54.3403   29.7468   55.7376 H   0  0  0  0  0  0  0  0  0  0  0  0
   53.7270   29.8640   54.8320 C   0  0  0  0  0  0  0  0  0  0  0  0
   52.6473   29.6571   54.8683 H   0  0  0  0  0  0  0  0  0  0  0  0
   54.2970   30.2600   53.6810 C   0  0  0  0  0  0  0  0  0  0  0  0
   53.6330   30.4470   52.4630 C   0  0  0  0  0  0  0  0  0  0  0  0
   52.3120   30.3260   52.2230 C   0  0  0  0  0  0  0  0  0  0  0  0
   51.6863   29.8624   52.9999 H   0  0  0  0  0  0  0  0  0  0  0  0
   51.6550   30.7770   50.9830 C   0  0  0  0  0  0  0  0  0  0  0  0
   51.6250   30.0450   49.8570 N   0  0  0  0  0  0  0  0  0  0  0  0
   51.0150   30.8600   48.9680 C   0  0  0  0  0  0  0  0  0  0  0  0
   50.7880   30.5170   47.7790 O   0  0  0  0  0  0  0  0  0  0  0  0
   50.6780   32.0740   49.4520 N   0  0  0  0  0  0  0  0  0  0  0  0
   51.1010   32.0120   50.7250 C   0  0  0  0  0  0  0  0  0  0  0  0
   51.0240   33.0780   51.6120 O   0  0  0  0  0  0  0  0  0  0  0  0
   54.5990   30.8380   51.5480 C   0  0  0  0  0  0  0  0  0  0  0  0
   54.4394   31.0757   50.4859 H   0  0  0  0  0  0  0  0  0  0  0  0
   55.7990   30.8710   52.2280 C   0  0  0  0  0  0  0  0  0  0  0  0
   57.1140   31.2110   51.5950 C   0  0  0  0  0  0  0  0  0  0  0  0
   57.8599   31.4039   52.3801 H   0  0  0  0  0  0  0  0  0  0  0  0
   57.4485   30.3698   50.9701 H   0  0  0  0  0  0  0  0  0  0  0  0
   56.9989   32.1089   50.9701 H   0  0  0  0  0  0  0  0  0  0  0  0
   55.6240   30.5200   53.5250 N   0  0  0  0  0  0  0  0  0  0  0  0
   56.7000   30.4010   54.5240 C   0  0  0  0  0  0  0  0  0  0  0  0
   57.3742   31.2655   54.4338 H   0  0  0  0  0  0  0  0  0  0  0  0
   56.2503   30.3719   55.5275 H   0  0  0  0  0  0  0  0  0  0  0  0
   57.4870   29.1350   54.3080 C   0  0  0  0  0  0  0  0  0  0  0  0
   58.8500   29.1930   53.9810 C   0  0  0  0  0  0  0  0  0  0  0  0
   59.3441   30.1695   53.8703 H   0  0  0  0  0  0  0  0  0  0  0  0
   59.5840   28.0190   53.7950 C   0  0  0  0  0  0  0  0  0  0  0  0
   60.6522   28.0785   53.5392 H   0  0  0  0  0  0  0  0  0  0  0  0
   58.9690   26.7620   53.9320 C   0  0  0  0  0  0  0  0  0  0  0  0
   59.7290   25.5490   53.7500 N   0  0  0  0  0  0  0  0  0  0  0  0
   61.1790   25.6390   53.5350 C   0  0  0  0  0  0  0  0  0  0  0  0
   61.3763   26.3111   52.6869 H   0  0  0  0  0  0  0  0  0  0  0  0
   61.6467   26.0290   54.4511 H   0  0  0  0  0  0  0  0  0  0  0  0
   61.7730   24.2600   53.2310 C   0  0  0  0  0  0  0  0  0  0  0  0
   61.4788   23.9513   52.2170 H   0  0  0  0  0  0  0  0  0  0  0  0
   62.8696   24.3143   53.2988 H   0  0  0  0  0  0  0  0  0  0  0  0
   61.2720   23.2710   54.2100 N   0  0  0  0  0  0  0  0  0  0  0  0
   61.4930   23.6570   55.1610 H   0  0  0  0  0  0  0  0  0  0  0  0
   61.9990   21.9780   54.1350 C   0  0  0  0  0  0  0  0  0  0  0  0
   61.3893   21.2120   54.6365 H   0  0  0  0  0  0  0  0  0  0  0  0
   62.1581   21.7715   53.0663 H   0  0  0  0  0  0  0  0  0  0  0  0
   63.3910   21.9870   54.7890 C   0  0  0  0  0  0  0  0  0  0  0  0
   63.2819   21.9863   55.8836 H   0  0  0  0  0  0  0  0  0  0  0  0
   63.9492   21.0924   54.4756 H   0  0  0  0  0  0  0  0  0  0  0  0
   63.9375   22.8887   54.4756 H   0  0  0  0  0  0  0  0  0  0  0  0
   59.7940   23.0910   54.1550 C   0  0  0  0  0  0  0  0  0  0  0  0
   59.5780   22.1855   53.5689 H   0  0  0  0  0  0  0  0  0  0  0  0
   59.4448   23.0174   55.1955 H   0  0  0  0  0  0  0  0  0  0  0  0
   59.0380   24.2740   53.5150 C   0  0  0  0  0  0  0  0  0  0  0  0
   58.9616   24.1041   52.4309 H   0  0  0  0  0  0  0  0  0  0  0  0
   58.0406   24.3337   53.9749 H   0  0  0  0  0  0  0  0  0  0  0  0
   57.6030   26.7060   54.2560 C   0  0  0  0  0  0  0  0  0  0  0  0
   57.1074   25.7301   54.3657 H   0  0  0  0  0  0  0  0  0  0  0  0
   56.8690   27.8820   54.4400 C   0  0  0  0  0  0  0  0  0  0  0  0
   55.7993   27.8245   54.6900 H   0  0  0  0  0  0  0  0  0  0  0  0
  1  2  1  0
  2  3  1  0
  2  4  2  0
  4  5  1  0
  5  6  2  0
  6  7  1  0
  6  8  1  0
  8  9  1  0
  9 10  1  0
 10 11  2  0
 10 12  1  0
 12 13  1  0
 13 14  1  0
  5 15  1  0
 15 16  1  0
 15 17  2  0
 17 18  1  0
 18 19  1  0
 18 20  1  0
 18 21  1  0
 17 22  1  0
 22 23  1  0
 23 24  1  0
 23 25  1  0
 23 26  1  0
 26 27  2  0
 27 28  1  0
 27 29  1  0
 29 30  1  0
 29 31  2  0
 31 32  1  0
 32 33  1  0
 33 34  1  0
 33 35  1  0
 33 36  1  0
 36 37  1  0
 36 38  1  0
 36 39  1  0
 39 40  1  0
 39 41  1  0
 41 42  1  0
 41 43  1  0
 41 44  1  0
 44 45  1  0
 44 46  1  0
 44 47  1  0
 39 48  1  0
 48 49  1  0
 48 50  1  0
 48 51  1  0
 51 52  1  0
 51 53  1  0
 31 54  1  0
 54 55  1  0
 54 56  2  0
 56 57  1  0
 22  4  1  0
 56 26  1  0
 13  8  2  0
 51 32  1  0
M  CHG  4   9  -1  12  -1  14  -1  39   1
M  END
>  <UniqueID>  (57) 
57

>  <SMILES>  (57) 
C=c1/c(=C/c2[n-]c(=O)[n-]c2[O-])cc(C)n1Cc1ccc(N2CC[NH+](CC)CC2)cc1

>  <Energy>  (57) 
135.8910969440508

>  <Genealogy>  (57) 
C=c1c(=Cc2[n-]c(=O)[n-]c2[O-])cc(C)n1Cc1ccc(N2CC[NH+](CC)CC2)cc1 (protonated)
C=c1/c(=C/c2[n-]c(=O)[n-]c2[O-])cc(C)n1Cc1ccc(N2CC[NH+](CC)CC2)cc1 (cis-trans isomerization)
C=c1/c(=C/c2[n-]c(=O)[n-]c2[O-])cc(C)n1Cc1ccc(N2CC[NH+](CC)CC2)cc1 (3D coordinates assigned)
C=c1/c(=C/c2[n-]c(=O)[n-]c2[O-])cc(C)n1Cc1ccc(N2CC[NH+](CC)CC2)cc1 (nonaromatic ring conformer: 135.8910969440508 kcal/mol)

>  <smiles>  (57) 
C=c1c(=Cc2[nH]c(=O)[nH]c2O)cc(C)n1Cc1ccc(N2CCN(CC)CC2)cc1

>  <score_type>  (57) 
oracle

>  <origin>  (57) 
adg

>  <m_score__min__energy>  (57) 
-15.18

>  <m_primary>  (57) 
energy

$$$$
57:0
     RDKit          3D

 45 48  0  0  0  0  0  0  0  0999 V2000
   57.0410   24.8140   47.5380 O   0  0  0  0  0  0  0  0  0  0  0  0
   57.9300   24.9460   46.6570 C   0  0  0  0  0  0  0  0  0  0  0  0
   58.6870   26.1650   46.6210 N   0  0  0  0  0  0  0  0  0  0  0  0
   58.2790   27.3830   45.9830 C   0  0  0  0  0  0  0  0  0  0  0  0
   59.2140   28.3570   45.5940 C   0  0  0  0  0  0  0  0  0  0  0  0
   58.7840   29.5460   45.0010 C   0  0  0  0  0  0  0  0  0  0  0  0
   57.4150   29.7790   44.7860 C   0  0  0  0  0  0  0  0  0  0  0  0
   56.9520   31.0080   44.2070 N   0  0  0  0  0  0  0  0  0  0  0  0
   57.7180   32.2160   44.0940 C   0  0  0  0  0  0  0  0  0  0  0  0
   57.8620   32.7400   42.9600 O   0  0  0  0  0  0  0  0  0  0  0  0
   58.3210   32.8750   45.2700 C   0  0  0  0  0  0  0  0  0  0  0  0
   58.8740   34.1630   45.1800 C   0  0  0  0  0  0  0  0  0  0  0  0
   59.4180   34.7540   46.3200 C   0  0  0  0  0  0  0  0  0  0  0  0
   59.9180   35.9080   46.2440 O   0  0  0  0  0  0  0  0  0  0  0  0
   59.4040   34.0480   47.5340 C   0  0  0  0  0  0  0  0  0  0  0  0
   59.9260   34.5890   48.7230 C   0  0  0  0  0  0  0  0  0  0  0  0
   59.8950   33.8410   49.9040 C   0  0  0  0  0  0  0  0  0  0  0  0
   59.3480   32.5550   49.9090 C   0  0  0  0  0  0  0  0  0  0  0  0
   58.8270   32.0090   48.7320 C   0  0  0  0  0  0  0  0  0  0  0  0
   58.8490   32.7480   47.5440 C   0  0  0  0  0  0  0  0  0  0  0  0
   58.3440   32.2240   46.4310 O   0  0  0  0  0  0  0  0  0  0  0  0
   56.4890   28.7790   45.1170 C   0  0  0  0  0  0  0  0  0  0  0  0
   55.1350   28.9720   44.8710 O   0  0  0  0  0  0  0  0  0  0  0  0
   56.9210   27.5870   45.7080 C   0  0  0  0  0  0  0  0  0  0  0  0
   58.1960   23.8300   45.7180 C   0  0  0  0  0  0  0  0  0  0  0  0
   59.4830   23.2770   45.6090 C   0  0  0  0  0  0  0  0  0  0  0  0
   59.7280   22.2330   44.7150 C   0  0  0  0  0  0  0  0  0  0  0  0
   58.6950   21.7260   43.9260 C   0  0  0  0  0  0  0  0  0  0  0  0
   57.3950   22.2530   44.0310 C   0  0  0  0  0  0  0  0  0  0  0  0
   56.3240   21.7290   43.2220 N   0  0  0  0  0  0  0  0  0  0  0  0
   56.1350   20.4980   43.1370 O   0  0  0  0  0  0  0  0  0  0  0  0
   55.4920   22.5780   42.5280 O   0  0  0  0  0  0  0  0  0  0  0  0
   57.1540   23.3010   44.9370 C   0  0  0  0  0  0  0  0  0  0  0  0
   60.2878   28.1825   45.7570 H   0  0  0  0  0  0  0  0  0  0  0  0
   59.5215   30.3048   44.7004 H   0  0  0  0  0  0  0  0  0  0  0  0
   58.8780   34.7001   44.2200 H   0  0  0  0  0  0  0  0  0  0  0  0
   60.3585   35.6004   48.7237 H   0  0  0  0  0  0  0  0  0  0  0  0
   60.3028   34.2665   50.8328 H   0  0  0  0  0  0  0  0  0  0  0  0
   59.3273   31.9711   50.8410 H   0  0  0  0  0  0  0  0  0  0  0  0
   58.3987   30.9958   48.7399 H   0  0  0  0  0  0  0  0  0  0  0  0
   56.1893   26.8048   45.9584 H   0  0  0  0  0  0  0  0  0  0  0  0
   60.3015   23.6685   46.2310 H   0  0  0  0  0  0  0  0  0  0  0  0
   60.7394   21.8085   44.6324 H   0  0  0  0  0  0  0  0  0  0  0  0
   58.8984   20.9094   43.2177 H   0  0  0  0  0  0  0  0  0  0  0  0
   56.1383   23.7116   45.0357 H   0  0  0  0  0  0  0  0  0  0  0  0
  1  2  2  0
  2  3  1  0
  3  4  1  0
  4  5  2  0
  5  6  1  0
  6  7  2  0
  7  8  1  0
  8  9  1  0
  9 10  2  0
  9 11  1  0
 11 12  2  0
 12 13  1  0
 13 14  2  0
 13 15  1  0
 15 16  2  0
 16 17  1  0
 17 18  2  0
 18 19  1  0
 19 20  2  0
 20 21  1  0
  7 22  1  0
 22 23  1  0
 22 24  2  0
  2 25  1  0
 25 26  2  0
 26 27  1  0
 27 28  2  0
 28 29  1  0
 29 30  1  0
 30 31  2  0
 30 32  1  0
 29 33  2  0
 24  4  1  0
 33 25  1  0
 21 11  1  0
 20 15  1  0
  5 34  1  0
  6 35  1  0
 12 36  1  0
 16 37  1  0
 17 38  1  0
 18 39  1  0
 19 40  1  0
 24 41  1  0
 26 42  1  0
 27 43  1  0
 28 44  1  0
 33 45  1  0
M  CHG  5   3  -1   8  -1  23  -1  30   1  32  -1
M  END
>  <UniqueID>  (58) 
58

>  <SMILES>  (58) 
O=C([N-]c1ccc([N-]C(=O)c2cc(=O)c3ccccc3o2)c([O-])c1)c1cccc([N+](=O)[O-])c1

>  <Energy>  (58) 
68.4767152388443

>  <Genealogy>  (58) 
O=C([N-]c1ccc([N-]C(=O)c2cc(=O)c3ccccc3o2)c([O-])c1)c1cccc([N+](=O)[O-])c1 (protonated)
O=C([N-]c1ccc([N-]C(=O)c2cc(=O)c3ccccc3o2)c([O-])c1)c1cccc([N+](=O)[O-])c1 (3D coordinates assigned)
O=C([N-]c1ccc([N-]C(=O)c2cc(=O)c3ccccc3o2)c([O-])c1)c1cccc([N+](=O)[O-])c1 (optimized conformer: 68.4767152388443 kcal/mol)

>  <smiles>  (58) 
O=C(Nc1ccc(NC(=O)c2cc(=O)c3ccccc3o2)c(O)c1)c1cccc([N+](=O)[O-])c1

>  <score_type>  (58) 
oracle

>  <origin>  (58) 
adg

>  <m_score__min__energy>  (58) 
-17.010000000000002

>  <m_primary>  (58) 
energy

$$$$
58:0
     RDKit          3D

 57 59  0  0  0  0  0  0  0  0999 V2000
   63.3910   33.8860   48.2660 C   0  0  0  0  0  0  0  0  0  0  0  0
   61.9800   33.4050   47.8950 C   0  0  0  0  0  0  0  0  0  0  0  0
   61.9210   31.8730   48.0470 C   0  0  0  0  0  0  0  0  0  0  0  0
   61.6790   33.8200   46.4420 C   0  0  0  0  0  0  0  0  0  0  0  0
   61.0670   34.0340   48.8040 O   0  0  0  0  0  0  0  0  0  0  0  0
   60.1120   33.3910   49.6070 C   0  0  0  0  0  0  0  0  0  0  0  0
   60.3410   33.1510   50.8210 O   0  0  0  0  0  0  0  0  0  0  0  0
   58.8740   32.9540   49.0390 N   0  0  0  0  0  0  0  0  0  0  0  0
   58.5630   32.9080   47.6380 C   0  0  0  0  0  0  0  0  0  0  0  0
   58.0130   34.0440   47.0330 C   0  0  0  0  0  0  0  0  0  0  0  0
   57.7310   34.0500   45.6640 C   0  0  0  0  0  0  0  0  0  0  0  0
   58.0100   32.9250   44.8840 C   0  0  0  0  0  0  0  0  0  0  0  0
   58.5830   31.7850   45.4700 C   0  0  0  0  0  0  0  0  0  0  0  0
   58.9110   30.5750   44.6300 C   0  0  0  0  0  0  0  0  0  0  0  0
   57.9810   29.4700   44.9350 N   0  0  0  0  0  0  0  0  0  0  0  0
   56.6220   29.6520   44.8740 C   0  0  0  0  0  0  0  0  0  0  0  0
   56.1300   30.7470   44.4890 O   0  0  0  0  0  0  0  0  0  0  0  0
   55.7840   28.6530   45.2410 N   0  0  0  0  0  0  0  0  0  0  0  0
   56.2720   27.4600   45.6660 C   0  0  0  0  0  0  0  0  0  0  0  0
   55.4780   26.5200   46.0840 N   0  0  0  0  0  0  0  0  0  0  0  0
   55.5790   25.1050   45.7240 C   0  0  0  0  0  0  0  0  0  0  0  0
   56.3970   24.3770   46.7530 C   0  0  0  0  0  0  0  0  0  0  0  0
   57.6070   24.1310   46.5090 O   0  0  0  0  0  0  0  0  0  0  0  0
   55.8500   23.9750   48.0190 N   0  0  0  0  0  0  0  0  0  0  0  0
   55.2300   22.7130   48.3030 C   0  0  0  0  0  0  0  0  0  0  0  0
   53.8670   22.6310   48.6370 C   0  0  0  0  0  0  0  0  0  0  0  0
   53.2900   21.3950   48.9420 C   0  0  0  0  0  0  0  0  0  0  0  0
   54.0620   20.2320   48.8930 C   0  0  0  0  0  0  0  0  0  0  0  0
   55.4080   20.3010   48.5280 C   0  0  0  0  0  0  0  0  0  0  0  0
   55.9950   21.5380   48.2270 C   0  0  0  0  0  0  0  0  0  0  0  0
   57.3400   21.6090   47.8640 O   0  0  0  0  0  0  0  0  0  0  0  0
   57.6100   27.2660   45.7070 N   0  0  0  0  0  0  0  0  0  0  0  0
   58.4640   28.2560   45.3490 C   0  0  0  0  0  0  0  0  0  0  0  0
   59.7060   28.0440   45.4150 O   0  0  0  0  0  0  0  0  0  0  0  0
   58.8630   31.7850   46.8470 C   0  0  0  0  0  0  0  0  0  0  0  0
   63.4907   33.9200   49.3609 H   0  0  0  0  0  0  0  0  0  0  0  0
   64.1361   33.1911   47.8514 H   0  0  0  0  0  0  0  0  0  0  0  0
   63.5565   34.8913   47.8514 H   0  0  0  0  0  0  0  0  0  0  0  0
   61.9109   31.6106   49.1152 H   0  0  0  0  0  0  0  0  0  0  0  0
   61.0075   31.4918   47.5672 H   0  0  0  0  0  0  0  0  0  0  0  0
   62.8025   31.4227   47.5672 H   0  0  0  0  0  0  0  0  0  0  0  0
   61.0332   34.7104   46.4413 H   0  0  0  0  0  0  0  0  0  0  0  0
   62.6215   34.0502   45.9237 H   0  0  0  0  0  0  0  0  0  0  0  0
   61.1674   32.9956   45.9237 H   0  0  0  0  0  0  0  0  0  0  0  0
   57.8014   34.9376   47.6386 H   0  0  0  0  0  0  0  0  0  0  0  0
   57.2880   34.9432   45.1993 H   0  0  0  0  0  0  0  0  0  0  0  0
   57.7802   32.9324   43.8083 H   0  0  0  0  0  0  0  0  0  0  0  0
   58.8244   30.8384   43.5655 H   0  0  0  0  0  0  0  0  0  0  0  0
   59.9374   30.2507   44.8566 H   0  0  0  0  0  0  0  0  0  0  0  0
   54.5713   24.6660   45.6807 H   0  0  0  0  0  0  0  0  0  0  0  0
   56.0648   25.0132   44.7414 H   0  0  0  0  0  0  0  0  0  0  0  0
   53.2522   23.5429   48.6584 H   0  0  0  0  0  0  0  0  0  0  0  0
   52.2274   21.3382   49.2208 H   0  0  0  0  0  0  0  0  0  0  0  0
   53.6092   19.2610   49.1422 H   0  0  0  0  0  0  0  0  0  0  0  0
   56.0098   19.3817   48.4765 H   0  0  0  0  0  0  0  0  0  0  0  0
   57.7700   22.4860   47.5930 H   0  0  0  0  0  0  0  0  0  0  0  0
   59.3209   30.8986   47.3102 H   0  0  0  0  0  0  0  0  0  0  0  0
  1  2  1  0
  2  3  1  0
  2  4  1  0
  2  5  1  0
  5  6  1  0
  6  7  2  0
  6  8  1  0
  8  9  1  0
  9 10  2  0
 10 11  1  0
 11 12  2  0
 12 13  1  0
 13 14  1  0
 14 15  1  0
 15 16  1  0
 16 17  2  0
 16 18  1  0
 18 19  1  0
 19 20  2  3
 20 21  1  0
 21 22  1  0
 22 23  2  0
 22 24  1  0
 24 25  1  0
 25 26  2  0
 26 27  1  0
 27 28  2  0
 28 29  1  0
 29 30  2  0
 30 31  1  0
 19 32  1  0
 32 33  1  0
 33 34  2  0
 13 35  2  0
 35  9  1  0
 33 15  1  0
 30 25  1  0
  1 36  1  0
  1 37  1  0
  1 38  1  0
  3 39  1  0
  3 40  1  0
  3 41  1  0
  4 42  1  0
  4 43  1  0
  4 44  1  0
 10 45  1  0
 11 46  1  0
 12 47  1  0
 14 48  1  0
 14 49  1  0
 21 50  1  0
 21 51  1  0
 26 52  1  0
 27 53  1  0
 28 54  1  0
 29 55  1  0
 31 56  1  0
 35 57  1  0
M  CHG  4   8  -1  18  -1  24  -1  32  -1
M  END
>  <UniqueID>  (59) 
59

>  <SMILES>  (59) 
CC(C)(C)OC(=O)[N-]c1cccc(Cn2c(=O)[n-]c(=NCC(=O)[N-]c3ccccc3O)[n-]c2=O)c1

>  <Energy>  (59) 
60.615303520157006

>  <Genealogy>  (59) 
CC(C)(C)OC(=O)[N-]c1cccc(Cn2c(=O)[n-]c(=NCC(=O)[N-]c3ccccc3O)[n-]c2=O)c1 (protonated)
CC(C)(C)OC(=O)[N-]c1cccc(Cn2c(=O)[n-]c(=NCC(=O)[N-]c3ccccc3O)[n-]c2=O)c1 (3D coordinates assigned)
CC(C)(C)OC(=O)[N-]c1cccc(Cn2c(=O)[n-]c(=NCC(=O)[N-]c3ccccc3O)[n-]c2=O)c1 (optimized conformer: 60.615303520157006 kcal/mol)

>  <smiles>  (59) 
CC(C)(C)OC(=O)Nc1cccc(Cn2c(=O)[nH]c(=NCC(=O)Nc3ccccc3O)[nH]c2=O)c1

>  <score_type>  (59) 
oracle

>  <origin>  (59) 
adg

>  <m_score__min__energy>  (59) 
-14.380000000000001

>  <m_primary>  (59) 
energy

$$$$
59:0
     RDKit          3D

 65 68  0  0  0  0  0  0  0  0999 V2000
   60.9583   35.5490   49.2506 H   0  0  0  0  0  0  0  0  0  0  0  0
   61.0810   34.5590   48.7870 C   0  0  0  0  0  0  0  0  0  0  0  0
   62.4580   34.1120   48.5020 C   0  0  0  0  0  0  0  0  0  0  0  0
   63.3610   34.3850   49.3360 O   0  0  0  0  0  0  0  0  0  0  0  0
   62.8280   33.4180   47.2150 C   0  0  0  0  0  0  0  0  0  0  0  0
   63.8286   33.7521   46.9034 H   0  0  0  0  0  0  0  0  0  0  0  0
   62.0755   33.6752   46.4550 H   0  0  0  0  0  0  0  0  0  0  0  0
   62.8410   31.9240   47.3800 C   0  0  0  0  0  0  0  0  0  0  0  0
   63.6880   31.2300   46.7520 O   0  0  0  0  0  0  0  0  0  0  0  0
   61.7770   31.2400   48.1320 C   0  0  0  0  0  0  0  0  0  0  0  0
   61.6860   31.0300   49.5130 C   0  0  0  0  0  0  0  0  0  0  0  0
   62.6670   31.5080   50.5110 C   0  0  0  0  0  0  0  0  0  0  0  0
   62.3870   32.4710   51.2670 O   0  0  0  0  0  0  0  0  0  0  0  0
   63.9150   30.9070   50.6230 O   0  0  0  0  0  0  0  0  0  0  0  0
   60.5870   30.2710   49.7980 N   0  0  0  0  0  0  0  0  0  0  0  0
   60.0540   29.9380   51.1280 C   0  0  0  0  0  0  0  0  0  0  0  0
   60.8248   29.4064   51.7053 H   0  0  0  0  0  0  0  0  0  0  0  0
   59.1661   29.2997   51.0086 H   0  0  0  0  0  0  0  0  0  0  0  0
   59.6610   31.1920   51.8610 C   0  0  0  0  0  0  0  0  0  0  0  0
   60.0510   31.3810   53.1960 C   0  0  0  0  0  0  0  0  0  0  0  0
   60.6615   30.6175   53.7003 H   0  0  0  0  0  0  0  0  0  0  0  0
   59.6690   32.5320   53.8880 C   0  0  0  0  0  0  0  0  0  0  0  0
   59.9821   32.6683   54.9336 H   0  0  0  0  0  0  0  0  0  0  0  0
   58.8920   33.5130   53.2640 C   0  0  0  0  0  0  0  0  0  0  0  0
   58.5380   34.6530   54.0020 O   0  0  0  0  0  0  0  0  0  0  0  0
   59.3860   35.2860   54.9560 C   0  0  0  0  0  0  0  0  0  0  0  0
   59.0478   35.0335   55.9718 H   0  0  0  0  0  0  0  0  0  0  0  0
   60.4197   34.9369   54.8164 H   0  0  0  0  0  0  0  0  0  0  0  0
   59.3452   36.3763   54.8164 H   0  0  0  0  0  0  0  0  0  0  0  0
   58.4930   33.3240   51.9270 C   0  0  0  0  0  0  0  0  0  0  0  0
   57.8790   34.0866   51.4256 H   0  0  0  0  0  0  0  0  0  0  0  0
   58.8740   32.1710   51.2340 C   0  0  0  0  0  0  0  0  0  0  0  0
   58.5550   32.0300   50.1907 H   0  0  0  0  0  0  0  0  0  0  0  0
   59.9950   30.0130   48.6080 C   0  0  0  0  0  0  0  0  0  0  0  0
   58.8250   29.2860   48.3600 C   0  0  0  0  0  0  0  0  0  0  0  0
   58.2525   28.8411   49.1872 H   0  0  0  0  0  0  0  0  0  0  0  0
   58.3990   29.1380   47.0290 C   0  0  0  0  0  0  0  0  0  0  0  0
   57.4809   28.5727   46.8110 H   0  0  0  0  0  0  0  0  0  0  0  0
   59.1420   29.7110   45.9620 C   0  0  0  0  0  0  0  0  0  0  0  0
   58.7640   29.5740   44.6150 O   0  0  0  0  0  0  0  0  0  0  0  0
   57.6360   28.8420   44.1330 C   0  0  2  0  0  0  0  0  0  0  0  0
   57.5816   28.9370   43.0385 H   0  0  0  0  0  0  0  0  0  0  0  0
   56.3930   29.3970   44.7630 C   0  0  0  0  0  0  0  0  0  0  0  0
   55.5230   28.6200   45.2370 O   0  0  0  0  0  0  0  0  0  0  0  0
   56.2090   30.7720   44.8580 O   0  0  0  0  0  0  0  0  0  0  0  0
   57.7710   27.3600   44.4900 C   0  0  0  0  0  0  0  0  0  0  0  0
   57.7814   27.2459   45.5840 H   0  0  0  0  0  0  0  0  0  0  0  0
   56.9199   26.8030   44.0713 H   0  0  0  0  0  0  0  0  0  0  0  0
   58.7088   26.9659   44.0713 H   0  0  0  0  0  0  0  0  0  0  0  0
   60.3090   30.4430   46.2470 C   0  0  0  0  0  0  0  0  0  0  0  0
   60.8970   30.9011   45.4381 H   0  0  0  0  0  0  0  0  0  0  0  0
   60.7040   30.5750   47.5790 C   0  0  0  0  0  0  0  0  0  0  0  0
   59.9660   33.8590   48.5280 C   0  0  0  0  0  0  0  0  0  0  0  0
   59.6008   33.1828   49.3150 H   0  0  0  0  0  0  0  0  0  0  0  0
   59.1870   33.9210   47.2720 C   0  0  0  0  0  0  0  0  0  0  0  0
   57.9480   33.2630   47.2010 C   0  0  0  0  0  0  0  0  0  0  0  0
   57.5566   32.7354   48.0833 H   0  0  0  0  0  0  0  0  0  0  0  0
   57.2100   33.2760   46.0130 C   0  0  0  0  0  0  0  0  0  0  0  0
   56.2371   32.7650   45.9647 H   0  0  0  0  0  0  0  0  0  0  0  0
   57.7080   33.9380   44.8870 C   0  0  0  0  0  0  0  0  0  0  0  0
   57.1191   33.9614   43.9582 H   0  0  0  0  0  0  0  0  0  0  0  0
   58.9530   34.5700   44.9400 C   0  0  0  0  0  0  0  0  0  0  0  0
   59.3487   35.0804   44.0496 H   0  0  0  0  0  0  0  0  0  0  0  0
   59.6960   34.5540   46.1240 C   0  0  0  0  0  0  0  0  0  0  0  0
   60.6829   35.0386   46.1579 H   0  0  0  0  0  0  0  0  0  0  0  0
  1  2  1  0
  2  3  1  0
  3  4  2  0
  3  5  1  0
  5  6  1  0
  5  7  1  0
  5  8  1  0
  8  9  2  0
  8 10  1  0
 10 11  2  0
 11 12  1  0
 12 13  2  0
 12 14  1  0
 11 15  1  0
 15 16  1  0
 16 17  1  0
 16 18  1  0
 16 19  1  0
 19 20  2  0
 20 21  1  0
 20 22  1  0
 22 23  1  0
 22 24  2  0
 24 25  1  0
 25 26  1  0
 26 27  1  0
 26 28  1  0
 26 29  1  0
 24 30  1  0
 30 31  1  0
 30 32  2  0
 32 33  1  0
 15 34  1  0
 34 35  2  0
 35 36  1  0
 35 37  1  0
 37 38  1  0
 37 39  2  0
 39 40  1  0
 40 41  1  0
 41 42  1  6
 41 43  1  0
 43 44  2  0
 43 45  1  0
 41 46  1  0
 46 47  1  0
 46 48  1  0
 46 49  1  0
 39 50  1  0
 50 51  1  0
 50 52  2  0
  2 53  2  0
 53 54  1  0
 53 55  1  0
 55 56  2  0
 56 57  1  0
 56 58  1  0
 58 59  1  0
 58 60  2  0
 60 61  1  0
 60 62  1  0
 62 63  1  0
 62 64  2  0
 64 65  1  0
 52 10  1  0
 64 55  1  0
 32 19  1  0
 52 34  1  0
M  CHG  2  14  -1  45  -1
M  END
>  <UniqueID>  (60) 
60

>  <SMILES>  (60) 
COc1ccc(Cn2c(C(=O)[O-])c(C(=O)CC(=O)/C=C\c3ccccc3)c3cc(O[C@@H](C)C(=O)[O-])ccc32)cc1

>  <Energy>  (60) 
118.66351761290517

>  <Genealogy>  (60) 
COc1ccc(Cn2c(C(=O)[O-])c(C(=O)CC(=O)C=Cc3ccccc3)c3cc(OC(C)C(=O)[O-])ccc32)cc1 (protonated)
COc1ccc(Cn2c(C(=O)[O-])c(C(=O)CC(=O)C=Cc3ccccc3)c3cc(O[C@@H](C)C(=O)[O-])ccc32)cc1 (chirality)
COc1ccc(Cn2c(C(=O)[O-])c(C(=O)CC(=O)/C=C\c3ccccc3)c3cc(O[C@@H](C)C(=O)[O-])ccc32)cc1 (cis-trans isomerization)
COc1ccc(Cn2c(C(=O)[O-])c(C(=O)CC(=O)/C=C\c3ccccc3)c3cc(O[C@@H](C)C(=O)[O-])ccc32)cc1 (3D coordinates assigned)
COc1ccc(Cn2c(C(=O)[O-])c(C(=O)CC(=O)/C=C\c3ccccc3)c3cc(O[C@@H](C)C(=O)[O-])ccc32)cc1 (optimized conformer: 118.66351761290517 kcal/mol)

>  <smiles>  (60) 
COc1ccc(Cn2c(C(=O)O)c(C(=O)CC(=O)C=Cc3ccccc3)c3cc(OC(C)C(=O)O)ccc32)cc1

>  <score_type>  (60) 
oracle

>  <origin>  (60) 
adg

>  <m_score__min__energy>  (60) 
-13.41

>  <m_primary>  (60) 
energy

$$$$
60:0
     RDKit          3D

 44 45  0  0  0  0  0  0  0  0999 V2000
   59.8470   33.6420   50.0750 C   0  0  0  0  0  0  0  0  0  0  0  0
   60.4440   34.5630   49.0140 C   0  0  0  0  0  0  0  0  0  0  0  0
   60.8140   33.8050   47.8070 N   0  0  0  0  0  0  0  0  0  0  0  0
   62.2250   33.8520   47.3860 C   0  0  0  0  0  0  0  0  0  0  0  0
   62.8550   32.4620   47.4350 C   0  0  0  0  0  0  0  0  0  0  0  0
   59.8250   33.0420   47.0570 C   0  0  0  0  0  0  0  0  0  0  0  0
   59.4640   31.7330   47.4460 C   0  0  0  0  0  0  0  0  0  0  0  0
   58.5160   31.0010   46.7240 C   0  0  0  0  0  0  0  0  0  0  0  0
   57.9130   31.5520   45.5840 C   0  0  0  0  0  0  0  0  0  0  0  0
   56.9190   30.8440   44.8310 N   0  0  0  0  0  0  0  0  0  0  0  0
   56.9120   29.4440   44.5210 C   0  0  0  0  0  0  0  0  0  0  0  0
   55.9580   28.7190   44.9180 O   0  0  0  0  0  0  0  0  0  0  0  0
   58.0260   28.8340   43.8250 N   0  0  0  0  0  0  0  0  0  0  0  0
   57.7710   27.4150   43.4850 C   0  0  0  0  0  0  0  0  0  0  0  0
   57.8710   26.4680   44.6890 C   0  0  0  0  0  0  0  0  0  0  0  0
   59.1250   26.7340   45.4610 C   0  0  0  0  0  0  0  0  0  0  0  0
   59.7660   25.8070   45.9310 O   0  0  0  0  0  0  0  0  0  0  0  0
   59.5270   28.1490   45.7510 C   0  0  0  0  0  0  0  0  0  0  0  0
   59.3220   29.0420   44.5150 C   0  0  0  0  0  0  0  0  0  0  0  0
   58.2400   32.8540   45.2040 C   0  0  0  0  0  0  0  0  0  0  0  0
   59.1870   33.5900   45.9210 C   0  0  0  0  0  0  0  0  0  0  0  0
   60.0957   34.0256   51.0755 H   0  0  0  0  0  0  0  0  0  0  0  0
   58.7539   33.6069   49.9570 H   0  0  0  0  0  0  0  0  0  0  0  0
   60.2612   32.6298   49.9570 H   0  0  0  0  0  0  0  0  0  0  0  0
   59.7027   35.3297   48.7445 H   0  0  0  0  0  0  0  0  0  0  0  0
   61.3500   35.0318   49.4256 H   0  0  0  0  0  0  0  0  0  0  0  0
   62.2812   34.2368   46.3570 H   0  0  0  0  0  0  0  0  0  0  0  0
   62.7750   34.5115   48.0734 H   0  0  0  0  0  0  0  0  0  0  0  0
   62.9925   32.1585   48.4833 H   0  0  0  0  0  0  0  0  0  0  0  0
   62.1951   31.7423   46.9285 H   0  0  0  0  0  0  0  0  0  0  0  0
   63.8312   32.4838   46.9285 H   0  0  0  0  0  0  0  0  0  0  0  0
   59.9362   31.2820   48.3312 H   0  0  0  0  0  0  0  0  0  0  0  0
   58.2418   29.9875   47.0521 H   0  0  0  0  0  0  0  0  0  0  0  0
   58.1150   29.3350   42.9070 H   0  0  0  0  0  0  0  0  0  0  0  0
   56.7585   27.3350   43.0625 H   0  0  0  0  0  0  0  0  0  0  0  0
   58.5480   27.1099   42.7687 H   0  0  0  0  0  0  0  0  0  0  0  0
   57.0019   26.6234   45.3452 H   0  0  0  0  0  0  0  0  0  0  0  0
   57.8901   25.4301   44.3252 H   0  0  0  0  0  0  0  0  0  0  0  0
   58.9149   28.5347   46.5796 H   0  0  0  0  0  0  0  0  0  0  0  0
   60.5930   28.1631   46.0220 H   0  0  0  0  0  0  0  0  0  0  0  0
   59.3779   30.0929   44.8352 H   0  0  0  0  0  0  0  0  0  0  0  0
   60.1103   28.7739   43.7962 H   0  0  0  0  0  0  0  0  0  0  0  0
   57.7471   33.3060   44.3306 H   0  0  0  0  0  0  0  0  0  0  0  0
   59.4395   34.6103   45.5968 H   0  0  0  0  0  0  0  0  0  0  0  0
  1  2  1  0
  2  3  1  0
  3  4  1  0
  4  5  1  0
  3  6  1  0
  6  7  2  0
  7  8  1  0
  8  9  2  0
  9 10  1  0
 10 11  1  0
 11 12  2  0
 11 13  1  0
 13 14  1  0
 14 15  1  0
 15 16  1  0
 16 17  2  0
 16 18  1  0
 18 19  1  0
  9 20  1  0
 20 21  2  0
 21  6  1  0
 19 13  1  0
  1 22  1  0
  1 23  1  0
  1 24  1  0
  2 25  1  0
  2 26  1  0
  4 27  1  0
  4 28  1  0
  5 29  1  0
  5 30  1  0
  5 31  1  0
  7 32  1  0
  8 33  1  0
 13 34  1  0
 14 35  1  0
 14 36  1  0
 15 37  1  0
 15 38  1  0
 18 39  1  0
 18 40  1  0
 19 41  1  0
 19 42  1  0
 20 43  1  0
 21 44  1  0
M  CHG  2  10  -1  13   1
M  END
>  <UniqueID>  (61) 
61

>  <SMILES>  (61) 
CCN(CC)c1ccc([N-]C(=O)[NH+]2CCC(=O)CC2)cc1

>  <Energy>  (61) 
50.03831523660599

>  <Genealogy>  (61) 
CCN(CC)c1ccc([N-]C(=O)[NH+]2CCC(=O)CC2)cc1 (protonated)
CCN(CC)c1ccc([N-]C(=O)[NH+]2CCC(=O)CC2)cc1 (3D coordinates assigned)
CCN(CC)c1ccc([N-]C(=O)[NH+]2CCC(=O)CC2)cc1 (nonaromatic ring conformer: 50.03831523660599 kcal/mol)

>  <smiles>  (61) 
CCN(CC)c1ccc(NC(=O)N2CCC(=O)CC2)cc1

>  <score_type>  (61) 
oracle

>  <origin>  (61) 
adg

>  <m_score__min__energy>  (61) 
-6.9000000000000004

>  <m_primary>  (61) 
energy

$$$$
61:0
     RDKit          3D

 45 47  0  0  0  0  0  0  0  0999 V2000
   50.0220   32.3260   49.7200 H   0  0  0  0  0  0  0  0  0  0  0  0
   51.0270   32.3030   50.0040 N   0  0  0  0  0  0  0  0  0  0  0  0
   51.4000   32.2910   51.3800 C   0  0  0  0  0  0  0  0  0  0  0  0
   50.9310   33.1700   52.1510 O   0  0  0  0  0  0  0  0  0  0  0  0
   52.3240   31.2710   51.9120 C   0  0  0  0  0  0  0  0  0  0  0  0
   53.8260   30.9210   51.2280 S   0  0  0  0  0  0  0  0  0  0  0  0
   54.1850   29.7430   52.3630 C   0  0  0  0  0  0  0  0  0  0  0  0
   55.2900   29.0590   52.3640 N   0  0  0  0  0  0  0  0  0  0  0  0
   56.5520   29.4820   52.9060 C   0  0  0  0  0  0  0  0  0  0  0  0
   57.1160   28.8080   53.8120 O   0  0  0  0  0  0  0  0  0  0  0  0
   57.1970   30.7170   52.4000 C   0  0  0  0  0  0  0  0  0  0  0  0
   57.0390   31.9390   53.0810 C   0  0  0  0  0  0  0  0  0  0  0  0
   56.4336   31.9790   53.9986 H   0  0  0  0  0  0  0  0  0  0  0  0
   57.6460   33.1010   52.5990 C   0  0  0  0  0  0  0  0  0  0  0  0
   57.5162   34.0511   53.1379 H   0  0  0  0  0  0  0  0  0  0  0  0
   58.4160   33.0610   51.4370 C   0  0  0  0  0  0  0  0  0  0  0  0
   58.8942   33.9787   51.0640 H   0  0  0  0  0  0  0  0  0  0  0  0
   58.5820   31.8560   50.7440 C   0  0  0  0  0  0  0  0  0  0  0  0
   59.5400   31.8220   49.2670 S   0  0  0  0  0  0  0  0  0  0  0  0
   60.7120   30.8910   49.4100 O   0  0  0  0  0  0  0  0  0  0  0  0
   60.0500   33.2080   48.9910 O   0  0  0  0  0  0  0  0  0  0  0  0
   58.5590   31.2960   47.9360 N   0  0  0  0  0  0  0  0  0  0  0  0
   58.2390   30.3010   47.9500 H   0  0  0  0  0  0  0  0  0  0  0  0
   58.2570   32.1110   46.7890 C   0  0  0  0  0  0  0  0  0  0  0  0
   58.0650   33.5020   46.8930 C   0  0  0  0  0  0  0  0  0  0  0  0
   58.1470   33.9936   47.8736 H   0  0  0  0  0  0  0  0  0  0  0  0
   57.7710   34.2610   45.7580 C   0  0  0  0  0  0  0  0  0  0  0  0
   57.6224   35.3472   45.8484 H   0  0  0  0  0  0  0  0  0  0  0  0
   57.6650   33.6460   44.5090 C   0  0  0  0  0  0  0  0  0  0  0  0
   57.4253   34.2480   43.6201 H   0  0  0  0  0  0  0  0  0  0  0  0
   57.8630   32.2640   44.3840 C   0  0  0  0  0  0  0  0  0  0  0  0
   57.7090   31.5970   43.0500 C   0  0  0  0  0  0  0  0  0  0  0  0
   57.4638   30.5348   43.1973 H   0  0  0  0  0  0  0  0  0  0  0  0
   56.9000   32.0855   42.4870 H   0  0  0  0  0  0  0  0  0  0  0  0
   58.6502   31.6814   42.4870 H   0  0  0  0  0  0  0  0  0  0  0  0
   58.1420   31.5010   45.5290 C   0  0  0  0  0  0  0  0  0  0  0  0
   58.2721   30.4125   45.4383 H   0  0  0  0  0  0  0  0  0  0  0  0
   57.9770   30.6880   51.2280 C   0  0  0  0  0  0  0  0  0  0  0  0
   58.1128   29.7398   50.6872 H   0  0  0  0  0  0  0  0  0  0  0  0
   53.1930   29.5900   53.2680 N   0  0  0  0  0  0  0  0  0  0  0  0
   52.1520   30.4340   53.0280 C   0  0  0  0  0  0  0  0  0  0  0  0
   50.9470   30.4330   53.9140 C   0  0  0  0  0  0  0  0  0  0  0  0
   51.2659   30.4333   54.9667 H   0  0  0  0  0  0  0  0  0  0  0  0
   50.3437   31.3306   53.7134 H   0  0  0  0  0  0  0  0  0  0  0  0
   50.3452   29.5344   53.7134 H   0  0  0  0  0  0  0  0  0  0  0  0
  1  2  1  0
  2  3  1  0
  3  4  2  0
  3  5  1  0
  5  6  1  0
  6  7  1  0
  7  8  2  0
  8  9  1  0
  9 10  2  0
  9 11  1  0
 11 12  2  0
 12 13  1  0
 12 14  1  0
 14 15  1  0
 14 16  2  0
 16 17  1  0
 16 18  1  0
 18 19  1  0
 19 20  2  0
 19 21  2  0
 19 22  1  0
 22 23  1  0
 22 24  1  0
 24 25  2  0
 25 26  1  0
 25 27  1  0
 27 28  1  0
 27 29  2  0
 29 30  1  0
 29 31  1  0
 31 32  1  0
 32 33  1  0
 32 34  1  0
 32 35  1  0
 31 36  2  0
 36 37  1  0
 18 38  2  0
 38 39  1  0
  7 40  1  0
 40 41  1  0
 41 42  1  0
 42 43  1  0
 42 44  1  0
 42 45  1  0
 41  5  2  0
 38 11  1  0
 36 24  1  0
M  CHG  2   2  -1  40  -1
M  END
>  <UniqueID>  (62) 
62

>  <SMILES>  (62) 
Cc1cccc(NS(=O)(=O)c2cccc(C(=O)/N=c3\[n-]c(C)c(C([NH-])=O)s3)c2)c1

>  <Energy>  (62) 
81.18255393768686

>  <Genealogy>  (62) 
Cc1cccc(NS(=O)(=O)c2cccc(C(=O)N=c3[n-]c(C)c(C([NH-])=O)s3)c2)c1 (protonated)
Cc1cccc(NS(=O)(=O)c2cccc(C(=O)/N=c3\[n-]c(C)c(C([NH-])=O)s3)c2)c1 (cis-trans isomerization)
Cc1cccc(NS(=O)(=O)c2cccc(C(=O)/N=c3\[n-]c(C)c(C([NH-])=O)s3)c2)c1 (3D coordinates assigned)
Cc1cccc(NS(=O)(=O)c2cccc(C(=O)/N=c3\[n-]c(C)c(C([NH-])=O)s3)c2)c1 (optimized conformer: 81.18255393768686 kcal/mol)

>  <smiles>  (62) 
Cc1cccc(NS(=O)(=O)c2cccc(C(=O)N=c3[nH]c(C)c(C(N)=O)s3)c2)c1

>  <score_type>  (62) 
oracle

>  <origin>  (62) 
adg

>  <m_score__min__energy>  (62) 
-13.65

>  <m_primary>  (62) 
energy

$$$$
62:0
     RDKit          3D

 49 52  0  0  0  0  0  0  0  0999 V2000
   65.8310   31.9570   50.4150 C   0  0  0  0  0  0  0  0  0  0  0  0
   64.4380   32.3780   50.6250 N   0  0  0  0  0  0  0  0  0  0  0  0
   63.4950   31.5590   49.8140 C   0  0  0  0  0  0  0  0  0  0  0  0
   62.6090   32.3810   48.8650 C   0  0  0  0  0  0  0  0  0  0  0  0
   62.0200   33.5160   49.5880 N   0  0  0  0  0  0  0  0  0  0  0  0
   60.6210   33.8330   49.4640 C   0  0  0  0  0  0  0  0  0  0  0  0
   59.9820   34.2070   50.4840 O   0  0  0  0  0  0  0  0  0  0  0  0
   59.9100   33.7200   48.1700 C   0  0  0  0  0  0  0  0  0  0  0  0
   58.7980   32.8750   48.0250 C   0  0  0  0  0  0  0  0  0  0  0  0
   58.1430   32.7810   46.7960 C   0  0  0  0  0  0  0  0  0  0  0  0
   58.6120   33.5290   45.7120 C   0  0  0  0  0  0  0  0  0  0  0  0
   57.7910   33.4310   44.1250 S   0  0  0  0  0  0  0  0  0  0  0  0
   57.4070   31.6980   44.3360 C   0  0  0  0  0  0  0  0  0  0  0  0
   56.1630   31.2140   44.5020 N   0  0  0  0  0  0  0  0  0  0  0  0
   56.2920   29.9020   44.6280 N   0  0  0  0  0  0  0  0  0  0  0  0
   57.6090   29.6420   44.5260 C   0  0  0  0  0  0  0  0  0  0  0  0
   58.2080   28.2790   44.6400 C   0  0  0  0  0  0  0  0  0  0  0  0
   58.9950   28.1710   45.9160 C   0  0  0  0  0  0  0  0  0  0  0  0
   58.9880   29.2280   46.8430 C   0  0  0  0  0  0  0  0  0  0  0  0
   59.6870   29.1110   48.0490 C   0  0  0  0  0  0  0  0  0  0  0  0
   60.3920   27.9390   48.3390 C   0  0  0  0  0  0  0  0  0  0  0  0
   60.3950   26.8790   47.4270 C   0  0  0  0  0  0  0  0  0  0  0  0
   59.6950   26.9910   46.2200 C   0  0  0  0  0  0  0  0  0  0  0  0
   58.3020   30.7410   44.3510 O   0  0  0  0  0  0  0  0  0  0  0  0
   59.7010   34.3280   45.8590 N   0  0  0  0  0  0  0  0  0  0  0  0
   60.3560   34.4360   47.0460 C   0  0  0  0  0  0  0  0  0  0  0  0
   62.8500   34.2750   50.5280 C   0  0  0  0  0  0  0  0  0  0  0  0
   64.3140   33.8380   50.4320 C   0  0  0  0  0  0  0  0  0  0  0  0
   66.3202   31.8092   51.3891 H   0  0  0  0  0  0  0  0  0  0  0  0
   65.8477   31.0137   49.8494 H   0  0  0  0  0  0  0  0  0  0  0  0
   66.3673   32.7332   49.8494 H   0  0  0  0  0  0  0  0  0  0  0  0
   64.0824   30.8504   49.2116 H   0  0  0  0  0  0  0  0  0  0  0  0
   62.8206   31.0558   50.5225 H   0  0  0  0  0  0  0  0  0  0  0  0
   63.2192   32.7572   48.0306 H   0  0  0  0  0  0  0  0  0  0  0  0
   61.8027   31.7410   48.4772 H   0  0  0  0  0  0  0  0  0  0  0  0
   58.4419   32.2853   48.8826 H   0  0  0  0  0  0  0  0  0  0  0  0
   57.2672   32.1254   46.6816 H   0  0  0  0  0  0  0  0  0  0  0  0
   57.4053   27.5269   44.6418 H   0  0  0  0  0  0  0  0  0  0  0  0
   58.8784   28.1055   43.7853 H   0  0  0  0  0  0  0  0  0  0  0  0
   58.4311   30.1499   46.6192 H   0  0  0  0  0  0  0  0  0  0  0  0
   59.6820   29.9419   48.7699 H   0  0  0  0  0  0  0  0  0  0  0  0
   60.9450   27.8506   49.2858 H   0  0  0  0  0  0  0  0  0  0  0  0
   60.9478   25.9565   47.6582 H   0  0  0  0  0  0  0  0  0  0  0  0
   59.6928   26.1530   45.5074 H   0  0  0  0  0  0  0  0  0  0  0  0
   61.2391   35.0869   47.1267 H   0  0  0  0  0  0  0  0  0  0  0  0
   62.7767   35.3466   50.2905 H   0  0  0  0  0  0  0  0  0  0  0  0
   62.4906   34.0851   51.5501 H   0  0  0  0  0  0  0  0  0  0  0  0
   64.7062   34.1055   49.4397 H   0  0  0  0  0  0  0  0  0  0  0  0
   64.8874   34.3484   51.2198 H   0  0  0  0  0  0  0  0  0  0  0  0
  1  2  1  0
  2  3  1  0
  3  4  1  0
  4  5  1  0
  5  6  1  0
  6  7  2  0
  6  8  1  0
  8  9  2  0
  9 10  1  0
 10 11  2  0
 11 12  1  0
 12 13  1  0
 13 14  2  0
 14 15  1  0
 15 16  2  0
 16 17  1  0
 17 18  1  0
 18 19  2  0
 19 20  1  0
 20 21  2  0
 21 22  1  0
 22 23  2  0
 16 24  1  0
 11 25  1  0
 25 26  2  0
  5 27  1  0
 27 28  1  0
 28  2  1  0
 26  8  1  0
 24 13  1  0
 23 18  1  0
  1 29  1  0
  1 30  1  0
  1 31  1  0
  3 32  1  0
  3 33  1  0
  4 34  1  0
  4 35  1  0
  9 36  1  0
 10 37  1  0
 17 38  1  0
 17 39  1  0
 19 40  1  0
 20 41  1  0
 21 42  1  0
 22 43  1  0
 23 44  1  0
 26 45  1  0
 27 46  1  0
 27 47  1  0
 28 48  1  0
 28 49  1  0
M  END
>  <UniqueID>  (63) 
63

>  <SMILES>  (63) 
CN1CCN(C(=O)c2ccc(Sc3nnc(Cc4ccccc4)o3)nc2)CC1

>  <Energy>  (63) 
92.31378364340485

>  <Genealogy>  (63) 
CN1CCN(C(=O)c2ccc(Sc3nnc(Cc4ccccc4)o3)nc2)CC1 (3D coordinates assigned)
CN1CCN(C(=O)c2ccc(Sc3nnc(Cc4ccccc4)o3)nc2)CC1 (nonaromatic ring conformer: 92.31378364340485 kcal/mol)

>  <smiles>  (63) 
CN1CCN(C(=O)c2ccc(Sc3nnc(Cc4ccccc4)o3)nc2)CC1

>  <score_type>  (63) 
oracle

>  <origin>  (63) 
adg

>  <m_score__min__energy>  (63) 
-8.9100000000000001

>  <m_primary>  (63) 
energy

$$$$
63:0
     RDKit          3D

 48 51  0  0  0  0  0  0  0  0999 V2000
   53.2891   28.4179   52.4005 H   0  0  0  0  0  0  0  0  0  0  0  0
   54.3880   28.4650   52.4180 C   0  0  0  0  0  0  0  0  0  0  0  0
   54.9776   27.5373   52.4594 H   0  0  0  0  0  0  0  0  0  0  0  0
   55.0060   29.6480   52.3890 C   0  0  0  0  0  0  0  0  0  0  0  0
   56.3140   29.7580   52.4080 O   0  0  0  0  0  0  0  0  0  0  0  0
   56.6320   31.0310   52.3670 C   0  0  0  0  0  0  0  0  0  0  0  0
   58.0150   31.5300   52.3930 C   0  0  0  0  0  0  0  0  0  0  0  0
   58.5190   31.8850   53.4920 O   0  0  0  0  0  0  0  0  0  0  0  0
   58.7840   31.6530   51.1860 N   0  0  0  0  0  0  0  0  0  0  0  0
   58.9770   30.4940   50.3040 C   0  0  0  0  0  0  0  0  0  0  0  0
   59.9660   30.0543   50.5003 H   0  0  0  0  0  0  0  0  0  0  0  0
   58.1806   29.7634   50.5089 H   0  0  0  0  0  0  0  0  0  0  0  0
   58.8940   30.9050   48.8160 C   0  0  0  0  0  0  0  0  0  0  0  0
   59.6742   30.3675   48.2570 H   0  0  0  0  0  0  0  0  0  0  0  0
   57.8881   30.6478   48.4526 H   0  0  0  0  0  0  0  0  0  0  0  0
   59.0860   32.3590   48.6210 N   0  0  0  0  0  0  0  0  0  0  0  0
   59.2320   32.7150   47.1860 C   0  0  0  0  0  0  0  0  0  0  0  0
   59.8592   31.9025   46.7904 H   0  0  0  0  0  0  0  0  0  0  0  0
   59.9430   34.0550   46.9220 C   0  0  0  0  0  0  0  0  0  0  0  0
   59.9357   34.6778   47.8287 H   0  0  0  0  0  0  0  0  0  0  0  0
   60.9958   33.9064   46.6400 H   0  0  0  0  0  0  0  0  0  0  0  0
   59.1550   34.7290   45.8100 C   0  0  0  0  0  0  0  0  0  0  0  0
   59.1719   35.8218   45.9346 H   0  0  0  0  0  0  0  0  0  0  0  0
   59.5809   34.5131   44.8191 H   0  0  0  0  0  0  0  0  0  0  0  0
   57.7380   34.2020   45.9410 C   0  0  0  0  0  0  0  0  0  0  0  0
   57.1628   34.8198   46.6463 H   0  0  0  0  0  0  0  0  0  0  0  0
   57.2046   34.2284   44.9793 H   0  0  0  0  0  0  0  0  0  0  0  0
   57.8740   32.7810   46.4690 C   0  0  0  0  0  0  0  0  0  0  0  0
   57.0598   32.5571   47.1740 H   0  0  0  0  0  0  0  0  0  0  0  0
   57.8161   32.0445   45.6540 H   0  0  0  0  0  0  0  0  0  0  0  0
   60.1180   32.8990   49.5310 C   0  0  0  0  0  0  0  0  0  0  0  0
   61.0235   32.2767   49.4779 H   0  0  0  0  0  0  0  0  0  0  0  0
   60.3798   33.9271   49.2405 H   0  0  0  0  0  0  0  0  0  0  0  0
   59.5590   32.8790   50.9550 C   0  0  0  0  0  0  0  0  0  0  0  0
   60.3924   32.9209   51.6717 H   0  0  0  0  0  0  0  0  0  0  0  0
   58.8986   33.7482   51.0903 H   0  0  0  0  0  0  0  0  0  0  0  0
   55.4890   31.8060   52.3280 C   0  0  0  0  0  0  0  0  0  0  0  0
   55.4350   32.9043   52.2982 H   0  0  0  0  0  0  0  0  0  0  0  0
   54.4220   30.9170   52.3340 C   0  0  0  0  0  0  0  0  0  0  0  0
   53.1040   31.2060   52.3130 C   0  0  0  0  0  0  0  0  0  0  0  0
   52.6187   31.4182   53.2771 H   0  0  0  0  0  0  0  0  0  0  0  0
   52.2580   31.2610   51.1010 C   0  0  0  0  0  0  0  0  0  0  0  0
   52.2460   30.3590   50.1030 N   0  0  0  0  0  0  0  0  0  0  0  0
   51.2970   30.8260   49.2640 C   0  0  0  0  0  0  0  0  0  0  0  0
   50.9940   30.2410   48.1910 O   0  0  0  0  0  0  0  0  0  0  0  0
   50.6970   31.9660   49.6660 N   0  0  0  0  0  0  0  0  0  0  0  0
   51.3140   32.2250   50.8300 C   0  0  0  0  0  0  0  0  0  0  0  0
   51.0190   33.3220   51.6310 O   0  0  0  0  0  0  0  0  0  0  0  0
  1  2  1  0
  2  3  1  0
  2  4  2  0
  4  5  1  0
  5  6  1  0
  6  7  1  0
  7  8  2  0
  7  9  1  0
  9 10  1  0
 10 11  1  0
 10 12  1  0
 10 13  1  0
 13 14  1  0
 13 15  1  0
 13 16  1  0
 16 17  1  0
 17 18  1  0
 17 19  1  0
 19 20  1  0
 19 21  1  0
 19 22  1  0
 22 23  1  0
 22 24  1  0
 22 25  1  0
 25 26  1  0
 25 27  1  0
 25 28  1  0
 28 29  1  0
 28 30  1  0
 16 31  1  0
 31 32  1  0
 31 33  1  0
 31 34  1  0
 34 35  1  0
 34 36  1  0
  6 37  2  0
 37 38  1  0
 37 39  1  0
 39 40  2  0
 40 41  1  0
 40 42  1  0
 42 43  1  0
 43 44  1  0
 44 45  2  0
 44 46  1  0
 46 47  1  0
 47 48  1  0
 39  4  1  0
 47 42  2  0
 34  9  1  0
 28 17  1  0
M  CHG  3  43  -1  46  -1  48  -1
M  END
>  <UniqueID>  (64) 
64

>  <SMILES>  (64) 
C=c1oc(C(=O)N2CCN(C3CCCC3)CC2)c/c1=C\c1[n-]c(=O)[n-]c1[O-]

>  <Energy>  (64) 
123.83541464084348

>  <Genealogy>  (64) 
C=c1oc(C(=O)N2CCN(C3CCCC3)CC2)cc1=Cc1[n-]c(=O)[n-]c1[O-] (protonated)
C=c1oc(C(=O)N2CCN(C3CCCC3)CC2)c/c1=C\c1[n-]c(=O)[n-]c1[O-] (cis-trans isomerization)
C=c1oc(C(=O)N2CCN(C3CCCC3)CC2)c/c1=C\c1[n-]c(=O)[n-]c1[O-] (3D coordinates assigned)
C=c1oc(C(=O)N2CCN(C3CCCC3)CC2)c/c1=C\c1[n-]c(=O)[n-]c1[O-] (nonaromatic ring conformer: 123.83541464084348 kcal/mol)

>  <smiles>  (64) 
C=c1oc(C(=O)N2CCN(C3CCCC3)CC2)cc1=Cc1[nH]c(=O)[nH]c1O

>  <score_type>  (64) 
oracle

>  <origin>  (64) 
adg

>  <m_score__min__energy>  (64) 
-18.07

>  <m_primary>  (64) 
energy

$$$$
64:0
     RDKit          3D

 48 51  0  0  0  0  0  0  0  0999 V2000
   54.0540   26.3210   46.4620 H   0  0  0  0  0  0  0  0  0  0  0  0
   53.9660   25.7720   45.6150 O   0  0  0  0  0  0  0  0  0  0  0  0
   53.8650   24.3850   45.6570 C   0  0  0  0  0  0  0  0  0  0  0  0
   52.7080   23.7320   45.8510 N   0  0  0  0  0  0  0  0  0  0  0  0
   53.0890   22.4370   45.8370 C   0  0  0  0  0  0  0  0  0  0  0  0
   52.2750   21.4910   45.9950 O   0  0  0  0  0  0  0  0  0  0  0  0
   54.4110   22.2380   45.6520 N   0  0  0  0  0  0  0  0  0  0  0  0
   54.8970   23.4850   45.5110 C   0  0  0  0  0  0  0  0  0  0  0  0
   56.3300   23.8120   45.4140 C   0  0  0  0  0  0  0  0  0  0  0  0
   57.0433   23.0715   45.8050 H   0  0  0  0  0  0  0  0  0  0  0  0
   56.8400   24.9410   44.8870 C   0  0  0  0  0  0  0  0  0  0  0  0
   57.4330   24.9850   43.6350 C   0  0  0  0  0  0  0  0  0  0  0  0
   57.6138   24.1311   42.9655 H   0  0  0  0  0  0  0  0  0  0  0  0
   57.7530   26.3030   43.3890 C   0  0  0  0  0  0  0  0  0  0  0  0
   58.4040   26.8020   42.1340 C   0  0  0  0  0  0  0  0  0  0  0  0
   59.2522   27.4522   42.3945 H   0  0  0  0  0  0  0  0  0  0  0  0
   58.7651   25.9471   41.5434 H   0  0  0  0  0  0  0  0  0  0  0  0
   57.6723   27.3728   41.5434 H   0  0  0  0  0  0  0  0  0  0  0  0
   57.4320   27.0710   44.4530 N   0  0  0  0  0  0  0  0  0  0  0  0
   57.6620   28.4850   44.5670 C   0  0  0  0  0  0  0  0  0  0  0  0
   58.9700   28.9850   44.5020 C   0  0  0  0  0  0  0  0  0  0  0  0
   59.8138   28.2940   44.3583 H   0  0  0  0  0  0  0  0  0  0  0  0
   59.2070   30.3580   44.6190 C   0  0  0  0  0  0  0  0  0  0  0  0
   60.2353   30.7435   44.5563 H   0  0  0  0  0  0  0  0  0  0  0  0
   58.1390   31.2460   44.8160 C   0  0  0  0  0  0  0  0  0  0  0  0
   58.3970   32.6960   44.9250 C   0  0  0  0  0  0  0  0  0  0  0  0
   58.1680   33.4310   43.9270 O   0  0  0  0  0  0  0  0  0  0  0  0
   58.9100   33.2830   46.1360 N   0  0  0  0  0  0  0  0  0  0  0  0
   58.8510   34.7110   46.3990 C   0  0  0  0  0  0  0  0  0  0  0  0
   59.1548   35.2777   45.5065 H   0  0  0  0  0  0  0  0  0  0  0  0
   57.8312   35.0334   46.6560 H   0  0  0  0  0  0  0  0  0  0  0  0
   59.8240   34.9630   47.5440 C   0  0  0  0  0  0  0  0  0  0  0  0
   60.7465   35.4278   47.1659 H   0  0  0  0  0  0  0  0  0  0  0  0
   59.3962   35.6466   48.2921 H   0  0  0  0  0  0  0  0  0  0  0  0
   60.1290   33.5960   48.1480 C   0  0  0  0  0  0  0  0  0  0  0  0
   61.1979   33.5174   48.3955 H   0  0  0  0  0  0  0  0  0  0  0  0
   59.5659   33.4320   49.0786 H   0  0  0  0  0  0  0  0  0  0  0  0
   59.7560   32.5740   47.0830 C   0  0  0  0  0  0  0  0  0  0  0  0
   60.6590   32.1954   46.5818 H   0  0  0  0  0  0  0  0  0  0  0  0
   59.2396   31.7053   47.5173 H   0  0  0  0  0  0  0  0  0  0  0  0
   56.8280   30.7480   44.8510 C   0  0  0  0  0  0  0  0  0  0  0  0
   55.9832   31.4416   44.9744 H   0  0  0  0  0  0  0  0  0  0  0  0
   56.5880   29.3750   44.7300 C   0  0  0  0  0  0  0  0  0  0  0  0
   55.2810   28.9020   44.7530 O   0  0  0  0  0  0  0  0  0  0  0  0
   56.8940   26.2510   45.3910 C   0  0  0  0  0  0  0  0  0  0  0  0
   56.6240   26.6510   46.6450 C   0  0  0  0  0  0  0  0  0  0  0  0
   56.7048   27.7149   46.9124 H   0  0  0  0  0  0  0  0  0  0  0  0
   56.3221   25.9145   47.4043 H   0  0  0  0  0  0  0  0  0  0  0  0
  1  2  1  0
  2  3  1  0
  3  4  1  0
  4  5  1  0
  5  6  2  0
  5  7  1  0
  7  8  1  0
  8  9  1  0
  9 10  1  0
  9 11  2  0
 11 12  1  0
 12 13  1  0
 12 14  2  0
 14 15  1  0
 15 16  1  0
 15 17  1  0
 15 18  1  0
 14 19  1  0
 19 20  1  0
 20 21  2  0
 21 22  1  0
 21 23  1  0
 23 24  1  0
 23 25  2  0
 25 26  1  0
 26 27  2  0
 26 28  1  0
 28 29  1  0
 29 30  1  0
 29 31  1  0
 29 32  1  0
 32 33  1  0
 32 34  1  0
 32 35  1  0
 35 36  1  0
 35 37  1  0
 35 38  1  0
 38 39  1  0
 38 40  1  0
 25 41  1  0
 41 42  1  0
 41 43  2  0
 43 44  1  0
 19 45  1  0
 45 46  2  0
 46 47  1  0
 46 48  1  0
  8  3  2  0
 45 11  1  0
 43 20  1  0
 38 28  1  0
M  CHG  3   4  -1   7  -1  44  -1
M  END
>  <UniqueID>  (65) 
65

>  <SMILES>  (65) 
C=c1/c(=C\c2[n-]c(=O)[n-]c2O)cc(C)n1-c1ccc(C(=O)N2CCCC2)cc1[O-]

>  <Energy>  (65) 
130.1891268327943

>  <Genealogy>  (65) 
C=c1c(=Cc2[n-]c(=O)[n-]c2O)cc(C)n1-c1ccc(C(=O)N2CCCC2)cc1[O-] (protonated)
C=c1/c(=C\c2[n-]c(=O)[n-]c2O)cc(C)n1-c1ccc(C(=O)N2CCCC2)cc1[O-] (cis-trans isomerization)
C=c1/c(=C\c2[n-]c(=O)[n-]c2O)cc(C)n1-c1ccc(C(=O)N2CCCC2)cc1[O-] (3D coordinates assigned)
C=c1/c(=C\c2[n-]c(=O)[n-]c2O)cc(C)n1-c1ccc(C(=O)N2CCCC2)cc1[O-] (nonaromatic ring conformer: 130.1891268327943 kcal/mol)

>  <smiles>  (65) 
C=c1c(=Cc2[nH]c(=O)[nH]c2O)cc(C)n1-c1ccc(C(=O)N2CCCC2)cc1O

>  <score_type>  (65) 
oracle

>  <origin>  (65) 
adg

>  <m_score__min__energy>  (65) 
-15.619999999999999

>  <m_primary>  (65) 
energy

$$$$
65:0
     RDKit          3D

 43 45  0  0  0  0  0  0  0  0999 V2000
   56.5090   30.1800   42.9660 C   0  0  0  0  0  0  0  0  0  0  0  0
   57.1490   30.8890   43.9090 C   0  0  0  0  0  0  0  0  0  0  0  0
   57.0750   32.2400   43.8130 N   0  0  0  0  0  0  0  0  0  0  0  0
   57.6470   33.0600   44.7200 C   0  0  0  0  0  0  0  0  0  0  0  0
   57.6030   34.3080   44.5500 O   0  0  0  0  0  0  0  0  0  0  0  0
   58.2460   32.5160   45.8540 C   0  0  0  0  0  0  0  0  0  0  0  0
   58.7430   33.2870   46.7220 O   0  0  0  0  0  0  0  0  0  0  0  0
   58.2600   31.1520   46.0350 N   0  0  0  0  0  0  0  0  0  0  0  0
   58.5100   30.6340   47.4050 C   0  0  0  0  0  0  0  0  0  0  0  0
   59.8650   31.0790   47.9330 C   0  0  0  0  0  0  0  0  0  0  0  0
   59.8930   31.9070   49.0700 C   0  0  0  0  0  0  0  0  0  0  0  0
   61.1060   32.3430   49.6040 C   0  0  0  0  0  0  0  0  0  0  0  0
   62.3080   31.9490   49.0190 C   0  0  0  0  0  0  0  0  0  0  0  0
   62.3030   31.1140   47.9020 C   0  0  0  0  0  0  0  0  0  0  0  0
   61.0910   30.6620   47.3500 C   0  0  0  0  0  0  0  0  0  0  0  0
   61.1330   29.7470   46.1530 C   0  0  0  0  0  0  0  0  0  0  0  0
   57.9070   30.3190   44.9820 C   0  0  0  0  0  0  0  0  0  0  0  0
   58.3560   29.0320   44.9010 C   0  0  0  0  0  0  0  0  0  0  0  0
   57.6310   27.8360   45.3980 C   0  0  0  0  0  0  0  0  0  0  0  0
   56.2380   27.8350   45.5520 C   0  0  0  0  0  0  0  0  0  0  0  0
   55.4840   28.9620   45.2480 O   0  0  0  0  0  0  0  0  0  0  0  0
   55.6130   26.7260   46.0120 N   0  0  0  0  0  0  0  0  0  0  0  0
   56.3040   25.6120   46.3610 C   0  0  0  0  0  0  0  0  0  0  0  0
   55.6660   24.6000   46.7580 O   0  0  0  0  0  0  0  0  0  0  0  0
   57.6730   25.5950   46.2840 N   0  0  0  0  0  0  0  0  0  0  0  0
   58.4190   24.3770   46.6480 C   0  0  0  0  0  0  0  0  0  0  0  0
   58.3400   26.6890   45.7930 C   0  0  0  0  0  0  0  0  0  0  0  0
   59.5980   26.6690   45.6760 O   0  0  0  0  0  0  0  0  0  0  0  0
   56.5341   29.0806   42.9927 H   0  0  0  0  0  0  0  0  0  0  0  0
   55.9594   30.6983   42.1665 H   0  0  0  0  0  0  0  0  0  0  0  0
   57.7242   31.0089   48.0773 H   0  0  0  0  0  0  0  0  0  0  0  0
   58.5006   29.5348   47.3643 H   0  0  0  0  0  0  0  0  0  0  0  0
   58.9485   32.2139   49.5430 H   0  0  0  0  0  0  0  0  0  0  0  0
   61.1136   32.9983   50.4875 H   0  0  0  0  0  0  0  0  0  0  0  0
   63.2629   32.2975   49.4393 H   0  0  0  0  0  0  0  0  0  0  0  0
   63.2565   30.8059   47.4482 H   0  0  0  0  0  0  0  0  0  0  0  0
   61.1810   28.7017   46.4921 H   0  0  0  0  0  0  0  0  0  0  0  0
   60.2271   29.8946   45.5467 H   0  0  0  0  0  0  0  0  0  0  0  0
   62.0215   29.9770   45.5467 H   0  0  0  0  0  0  0  0  0  0  0  0
   59.3357   28.8681   44.4285 H   0  0  0  0  0  0  0  0  0  0  0  0
   58.4708   24.2924   47.7435 H   0  0  0  0  0  0  0  0  0  0  0  0
   57.9056   23.4957   46.2361 H   0  0  0  0  0  0  0  0  0  0  0  0
   59.4374   24.4339   46.2361 H   0  0  0  0  0  0  0  0  0  0  0  0
  1  2  2  0
  2  3  1  0
  3  4  1  0
  4  5  2  0
  4  6  1  0
  6  7  2  0
  6  8  1  0
  8  9  1  0
  9 10  1  0
 10 11  2  0
 11 12  1  0
 12 13  2  0
 13 14  1  0
 14 15  2  0
 15 16  1  0
  8 17  1  0
 17 18  2  3
 18 19  1  0
 19 20  2  0
 20 21  1  0
 20 22  1  0
 22 23  1  0
 23 24  2  0
 23 25  1  0
 25 26  1  0
 25 27  1  0
 27 28  2  0
 17  2  1  0
 27 19  1  0
 15 10  1  0
  1 29  1  0
  1 30  1  0
  9 31  1  0
  9 32  1  0
 11 33  1  0
 12 34  1  0
 13 35  1  0
 14 36  1  0
 16 37  1  0
 16 38  1  0
 16 39  1  0
 18 40  1  0
 26 41  1  0
 26 42  1  0
 26 43  1  0
M  CHG  3   3  -1  21  -1  22  -1
M  END
>  <UniqueID>  (66) 
66

>  <SMILES>  (66) 
C=c1[n-]c(=O)c(=O)n(Cc2ccccc2C)c1=Cc1c([O-])[n-]c(=O)n(C)c1=O

>  <Energy>  (66) 
87.76664494537758

>  <Genealogy>  (66) 
C=c1[n-]c(=O)c(=O)n(Cc2ccccc2C)c1=Cc1c([O-])[n-]c(=O)n(C)c1=O (protonated)
C=c1[n-]c(=O)c(=O)n(Cc2ccccc2C)c1=Cc1c([O-])[n-]c(=O)n(C)c1=O (3D coordinates assigned)
C=c1[n-]c(=O)c(=O)n(Cc2ccccc2C)c1=Cc1c([O-])[n-]c(=O)n(C)c1=O (optimized conformer: 87.76664494537758 kcal/mol)

>  <smiles>  (66) 
C=c1[nH]c(=O)c(=O)n(Cc2ccccc2C)c1=Cc1c(O)[nH]c(=O)n(C)c1=O

>  <score_type>  (66) 
oracle

>  <origin>  (66) 
adg

>  <m_score__min__energy>  (66) 
-13.550000000000001

>  <m_primary>  (66) 
energy

$$$$
66:0
     RDKit          3D

 46 48  0  0  0  0  0  0  0  0999 V2000
   57.5742   32.3349   43.4999 H   0  0  0  0  0  0  0  0  0  0  0  0
   57.3040   32.0790   44.5350 C   0  0  0  0  0  0  0  0  0  0  0  0
   57.0810   30.6480   44.8490 C   0  0  0  0  0  0  0  0  0  0  0  0
   55.9980   30.0950   44.5070 O   0  0  0  0  0  0  0  0  0  0  0  0
   58.0600   29.8940   45.5940 N   0  0  0  0  0  0  0  0  0  0  0  0
   59.4560   30.3550   45.6630 C   0  0  0  0  0  0  0  0  0  0  0  0
   59.5424   31.1188   46.4499 H   0  0  0  0  0  0  0  0  0  0  0  0
   59.7323   30.7718   44.6832 H   0  0  0  0  0  0  0  0  0  0  0  0
   60.4110   29.1980   45.9830 C   0  0  0  0  0  0  0  0  0  0  0  0
   61.4245   29.6041   46.1168 H   0  0  0  0  0  0  0  0  0  0  0  0
   60.3669   28.4873   45.1446 H   0  0  0  0  0  0  0  0  0  0  0  0
   60.0090   28.4340   47.2680 C   0  0  0  0  0  0  0  0  0  0  0  0
   60.3208   27.3880   47.1317 H   0  0  0  0  0  0  0  0  0  0  0  0
   60.7310   29.0090   48.4680 C   0  0  0  0  0  0  0  0  0  0  0  0
   61.1020   28.2440   49.3990 O   0  0  0  0  0  0  0  0  0  0  0  0
   60.8310   30.4280   48.6590 N   0  0  0  0  0  0  0  0  0  0  0  0
   61.8730   31.1830   48.4470 C   0  0  0  0  0  0  0  0  0  0  0  0
   62.8180   31.3230   49.4700 C   0  0  0  0  0  0  0  0  0  0  0  0
   62.6709   30.8068   50.4301 H   0  0  0  0  0  0  0  0  0  0  0  0
   63.9480   32.1190   49.2700 C   0  0  0  0  0  0  0  0  0  0  0  0
   64.6857   32.2370   50.0774 H   0  0  0  0  0  0  0  0  0  0  0  0
   64.1390   32.7490   48.0790 N   0  0  0  0  0  0  0  0  0  0  0  0
   64.9890   33.3400   47.9440 H   0  0  0  0  0  0  0  0  0  0  0  0
   63.2490   32.6170   47.0580 C   0  0  0  0  0  0  0  0  0  0  0  0
   63.4305   33.1323   46.1033 H   0  0  0  0  0  0  0  0  0  0  0  0
   62.1060   31.8300   47.2170 C   0  0  0  0  0  0  0  0  0  0  0  0
   61.3925   31.7160   46.3876 H   0  0  0  0  0  0  0  0  0  0  0  0
   58.4750   28.3910   47.4970 C   0  0  0  0  0  0  0  0  0  0  0  0
   58.2021   29.1804   48.2128 H   0  0  0  0  0  0  0  0  0  0  0  0
   58.2206   27.3928   47.8828 H   0  0  0  0  0  0  0  0  0  0  0  0
   57.6870   28.6070   46.2020 C   0  0  0  0  0  0  0  0  0  0  0  0
   56.6102   28.6090   46.4269 H   0  0  0  0  0  0  0  0  0  0  0  0
   57.9199   27.7944   45.4981 H   0  0  0  0  0  0  0  0  0  0  0  0
   57.2020   33.0870   45.4150 C   0  0  0  0  0  0  0  0  0  0  0  0
   56.3491   33.7728   45.3046 H   0  0  0  0  0  0  0  0  0  0  0  0
   58.1480   33.3470   46.5220 C   0  0  0  0  0  0  0  0  0  0  0  0
   58.0430   32.6280   47.7280 C   0  0  0  0  0  0  0  0  0  0  0  0
   57.2757   31.8469   47.8333 H   0  0  0  0  0  0  0  0  0  0  0  0
   58.9070   32.9000   48.7920 C   0  0  0  0  0  0  0  0  0  0  0  0
   58.8281   32.3230   49.7252 H   0  0  0  0  0  0  0  0  0  0  0  0
   59.8700   33.9030   48.6720 C   0  0  0  0  0  0  0  0  0  0  0  0
   60.5524   34.1126   49.5089 H   0  0  0  0  0  0  0  0  0  0  0  0
   59.9680   34.6410   47.4900 C   0  0  0  0  0  0  0  0  0  0  0  0
   60.7251   35.4340   47.4009 H   0  0  0  0  0  0  0  0  0  0  0  0
   59.1070   34.3760   46.4180 C   0  0  0  0  0  0  0  0  0  0  0  0
   59.2760   35.3300   44.9480 Cl  0  0  0  0  0  0  0  0  0  0  0  0
  1  2  1  0
  2  3  1  0
  3  4  2  0
  3  5  1  0
  5  6  1  0
  6  7  1  0
  6  8  1  0
  6  9  1  0
  9 10  1  0
  9 11  1  0
  9 12  1  0
 12 13  1  0
 12 14  1  0
 14 15  2  0
 14 16  1  0
 16 17  2  3
 17 18  1  0
 18 19  1  0
 18 20  2  0
 20 21  1  0
 20 22  1  0
 22 23  1  0
 22 24  1  0
 24 25  1  0
 24 26  2  0
 26 27  1  0
 12 28  1  0
 28 29  1  0
 28 30  1  0
 28 31  1  0
 31 32  1  0
 31 33  1  0
  2 34  2  0
 34 35  1  0
 34 36  1  0
 36 37  2  0
 37 38  1  0
 37 39  1  0
 39 40  1  0
 39 41  2  0
 41 42  1  0
 41 43  1  0
 43 44  1  0
 43 45  2  0
 45 46  1  0
 31  5  1  0
 45 36  1  0
 26 17  1  0
M  END
>  <UniqueID>  (67) 
67

>  <SMILES>  (67) 
O=C(N=c1cc[nH]cc1)C1CCN(C(=O)/C=C\c2ccccc2Cl)CC1

>  <Energy>  (67) 
68.97717691635921

>  <Genealogy>  (67) 
O=C(N=c1cc[nH]cc1)C1CCN(C(=O)/C=C\c2ccccc2Cl)CC1 (cis-trans isomerization)
O=C(N=c1cc[nH]cc1)C1CCN(C(=O)/C=C\c2ccccc2Cl)CC1 (3D coordinates assigned)
O=C(N=c1cc[nH]cc1)C1CCN(C(=O)/C=C\c2ccccc2Cl)CC1 (nonaromatic ring conformer: 68.97717691635921 kcal/mol)

>  <smiles>  (67) 
O=C(N=c1cc[nH]cc1)C1CCN(C(=O)C=Cc2ccccc2Cl)CC1

>  <score_type>  (67) 
oracle

>  <origin>  (67) 
adg

>  <m_score__min__energy>  (67) 
-8.9499999999999993

>  <m_primary>  (67) 
energy

$$$$
67:0
     RDKit          3D

 43 46  0  0  0  0  0  0  0  0999 V2000
   57.8000   27.4020   47.9550 O   0  0  0  0  0  0  0  0  0  0  0  0
   58.1110   27.0690   46.7810 C   0  0  0  0  0  0  0  0  0  0  0  0
   59.0750   27.9310   46.0060 C   0  0  0  0  0  0  0  0  0  0  0  0
   58.3710   28.7230   44.9750 N   0  0  0  0  0  0  0  0  0  0  0  0
   57.7450   28.0460   43.9640 C   0  0  0  0  0  0  0  0  0  0  0  0
   57.0420   28.7050   43.0080 N   0  0  0  0  0  0  0  0  0  0  0  0
   56.9360   30.0560   43.0160 C   0  0  0  0  0  0  0  0  0  0  0  0
   56.2690   30.6300   42.1110 O   0  0  0  0  0  0  0  0  0  0  0  0
   57.5690   30.7980   44.0230 C   0  0  0  0  0  0  0  0  0  0  0  0
   57.4820   32.2030   44.0590 C   0  0  0  0  0  0  0  0  0  0  0  0
   58.1220   32.9200   45.0680 C   0  0  0  0  0  0  0  0  0  0  0  0
   58.8550   32.2510   46.0450 C   0  0  0  0  0  0  0  0  0  0  0  0
   58.9510   30.8580   46.0230 C   0  0  0  0  0  0  0  0  0  0  0  0
   58.3050   30.1020   45.0150 C   0  0  0  0  0  0  0  0  0  0  0  0
   57.4880   25.8690   46.1840 C   0  0  0  0  0  0  0  0  0  0  0  0
   58.2780   24.7320   45.9620 C   0  0  0  0  0  0  0  0  0  0  0  0
   57.7120   23.5670   45.4370 C   0  0  0  0  0  0  0  0  0  0  0  0
   56.3460   23.5230   45.1220 C   0  0  0  0  0  0  0  0  0  0  0  0
   55.7340   22.2710   44.5470 C   0  0  2  0  0  0  0  0  0  0  0  0
   56.0510   21.1340   45.4070 N   0  0  0  0  0  0  0  0  0  0  0  0
   56.2690   20.0470   44.4820 C   0  0  0  0  0  0  0  0  0  0  0  0
   56.6440   20.7110   43.1830 C   0  0  0  0  0  0  0  0  0  0  0  0
   56.2340   22.0520   43.2450 O   0  0  0  0  0  0  0  0  0  0  0  0
   55.5600   24.6700   45.3160 C   0  0  0  0  0  0  0  0  0  0  0  0
   56.1240   25.8390   45.8360 C   0  0  0  0  0  0  0  0  0  0  0  0
   55.3260   26.9680   45.9800 O   0  0  0  0  0  0  0  0  0  0  0  0
   59.5826   28.6162   46.7008 H   0  0  0  0  0  0  0  0  0  0  0  0
   59.8043   27.2767   45.5061 H   0  0  0  0  0  0  0  0  0  0  0  0
   57.8126   26.9488   43.9253 H   0  0  0  0  0  0  0  0  0  0  0  0
   56.5730   28.1530   42.2550 H   0  0  0  0  0  0  0  0  0  0  0  0
   56.9068   32.7364   43.2879 H   0  0  0  0  0  0  0  0  0  0  0  0
   58.0480   34.0172   45.0929 H   0  0  0  0  0  0  0  0  0  0  0  0
   59.3606   32.8223   46.8375 H   0  0  0  0  0  0  0  0  0  0  0  0
   59.5358   30.3416   46.7985 H   0  0  0  0  0  0  0  0  0  0  0  0
   59.3510   24.7572   46.2028 H   0  0  0  0  0  0  0  0  0  0  0  0
   58.3410   22.6802   45.2700 H   0  0  0  0  0  0  0  0  0  0  0  0
   54.6414   22.3864   44.4933 H   0  0  0  0  0  0  0  0  0  0  0  0
   55.2240   20.9130   46.0120 H   0  0  0  0  0  0  0  0  0  0  0  0
   57.0840   19.3974   44.8337 H   0  0  0  0  0  0  0  0  0  0  0  0
   55.3798   19.4078   44.3781 H   0  0  0  0  0  0  0  0  0  0  0  0
   57.7334   20.6604   43.0391 H   0  0  0  0  0  0  0  0  0  0  0  0
   56.1554   20.2015   42.3394 H   0  0  0  0  0  0  0  0  0  0  0  0
   54.4912   24.6488   45.0567 H   0  0  0  0  0  0  0  0  0  0  0  0
  1  2  2  0
  2  3  1  0
  3  4  1  0
  4  5  1  0
  5  6  2  0
  6  7  1  0
  7  8  2  0
  7  9  1  0
  9 10  2  0
 10 11  1  0
 11 12  2  0
 12 13  1  0
 13 14  2  0
  2 15  1  0
 15 16  2  0
 16 17  1  0
 17 18  2  0
 18 19  1  0
 19 20  1  0
 20 21  1  0
 21 22  1  0
 22 23  1  0
 18 24  1  0
 24 25  2  0
 25 26  1  0
 14  4  1  0
 25 15  1  0
 14  9  1  0
 23 19  1  0
  3 27  1  0
  3 28  1  0
  5 29  1  0
  6 30  1  0
 10 31  1  0
 11 32  1  0
 12 33  1  0
 13 34  1  0
 16 35  1  0
 17 36  1  0
 19 37  1  6
 20 38  1  0
 21 39  1  0
 21 40  1  0
 22 41  1  0
 22 42  1  0
 24 43  1  0
M  CHG  2   6   1  26  -1
M  END
>  <UniqueID>  (68) 
68

>  <SMILES>  (68) 
O=C(Cn1c[nH+]c(=O)c2ccccc21)c1ccc([C@@H]2NCCO2)cc1[O-]

>  <Energy>  (68) 
57.67349474100376

>  <Genealogy>  (68) 
O=C(Cn1c[nH+]c(=O)c2ccccc21)c1ccc(C2NCCO2)cc1[O-] (protonated)
O=C(Cn1c[nH+]c(=O)c2ccccc21)c1ccc([C@@H]2NCCO2)cc1[O-] (chirality)
O=C(Cn1c[nH+]c(=O)c2ccccc21)c1ccc([C@@H]2NCCO2)cc1[O-] (3D coordinates assigned)
O=C(Cn1c[nH+]c(=O)c2ccccc21)c1ccc([C@@H]2NCCO2)cc1[O-] (nonaromatic ring conformer: 57.67349474100376 kcal/mol)

>  <smiles>  (68) 
O=C(Cn1cnc(=O)c2ccccc21)c1ccc(C2NCCO2)cc1O

>  <score_type>  (68) 
oracle

>  <origin>  (68) 
adg

>  <m_score__min__energy>  (68) 
-10.75

>  <m_primary>  (68) 
energy

$$$$
68:0
     RDKit          3D

 61 64  0  0  0  0  0  0  0  0999 V2000
   66.0670   33.1450   52.1900 C   0  0  0  0  0  0  0  0  0  0  0  0
   66.0930   32.4710   50.5440 S   0  0  0  0  0  0  0  0  0  0  0  0
   67.2130   33.1080   49.7670 O   0  0  0  0  0  0  0  0  0  0  0  0
   66.3270   30.9860   50.6040 O   0  0  0  0  0  0  0  0  0  0  0  0
   64.5500   32.7920   49.7580 C   0  0  0  0  0  0  0  0  0  0  0  0
   64.1270   32.0130   48.6720 C   0  0  0  0  0  0  0  0  0  0  0  0
   62.9080   32.2850   48.0440 C   0  0  0  0  0  0  0  0  0  0  0  0
   62.0950   33.3370   48.4960 C   0  0  0  0  0  0  0  0  0  0  0  0
   60.8140   33.6250   47.8100 C   0  0  0  0  0  0  0  0  0  0  0  0
   60.7520   34.0340   46.5270 N   0  0  0  0  0  0  0  0  0  0  0  0
   59.4460   34.2410   46.2800 C   0  0  0  0  0  0  0  0  0  0  0  0
   58.8970   34.6370   44.9400 C   0  0  0  0  0  0  0  0  0  0  0  0
   57.6920   33.9620   44.6100 O   0  0  0  0  0  0  0  0  0  0  0  0
   57.8620   33.0170   43.5630 C   0  0  0  0  0  0  0  0  0  0  0  0
   57.7260   31.5850   44.0280 C   0  0  0  0  0  0  0  0  0  0  0  0
   56.8110   30.7210   43.4080 C   0  0  0  0  0  0  0  0  0  0  0  0
   56.6750   29.4010   43.8500 C   0  0  0  0  0  0  0  0  0  0  0  0
   57.4500   28.9220   44.9220 C   0  0  0  0  0  0  0  0  0  0  0  0
   57.2910   27.5310   45.4070 C   0  0  0  0  0  0  0  0  0  0  0  0
   58.2700   26.7340   45.3810 O   0  0  0  0  0  0  0  0  0  0  0  0
   56.0250   27.0820   45.9020 N   0  0  0  0  0  0  0  0  0  0  0  0
   55.5290   25.4230   45.8370 S   0  0  0  0  0  0  0  0  0  0  0  0
   56.3280   24.6250   44.5260 N   0  0  0  0  0  0  0  0  0  0  0  0
   54.0420   25.3640   45.6220 O   0  0  0  0  0  0  0  0  0  0  0  0
   55.8710   24.7430   47.1320 O   0  0  0  0  0  0  0  0  0  0  0  0
   58.3700   29.7920   45.5370 C   0  0  0  0  0  0  0  0  0  0  0  0
   58.5040   31.1120   45.0950 C   0  0  0  0  0  0  0  0  0  0  0  0
   58.7180   33.9530   47.4160 C   0  0  0  0  0  0  0  0  0  0  0  0
   59.5810   33.5590   48.3770 N   0  0  0  0  0  0  0  0  0  0  0  0
   59.2120   33.0540   49.6730 C   0  0  0  0  0  0  0  0  0  0  0  0
   59.4430   33.8170   50.8300 C   0  0  0  0  0  0  0  0  0  0  0  0
   59.0680   33.3250   52.0850 C   0  0  0  0  0  0  0  0  0  0  0  0
   58.4730   32.0650   52.1940 C   0  0  0  0  0  0  0  0  0  0  0  0
   58.2610   31.2900   51.0510 C   0  0  0  0  0  0  0  0  0  0  0  0
   58.6330   31.7790   49.7940 C   0  0  0  0  0  0  0  0  0  0  0  0
   62.5330   34.1290   49.5730 C   0  0  0  0  0  0  0  0  0  0  0  0
   63.7500   33.8530   50.2030 C   0  0  0  0  0  0  0  0  0  0  0  0
   66.0986   32.3250   52.9225 H   0  0  0  0  0  0  0  0  0  0  0  0
   66.9406   33.7980   52.3327 H   0  0  0  0  0  0  0  0  0  0  0  0
   65.1457   33.7288   52.3327 H   0  0  0  0  0  0  0  0  0  0  0  0
   64.7561   31.1852   48.3129 H   0  0  0  0  0  0  0  0  0  0  0  0
   62.5837   31.6713   47.1907 H   0  0  0  0  0  0  0  0  0  0  0  0
   61.5470   34.1730   45.8640 H   0  0  0  0  0  0  0  0  0  0  0  0
   58.7010   35.7194   44.9480 H   0  0  0  0  0  0  0  0  0  0  0  0
   59.6460   34.3595   44.1837 H   0  0  0  0  0  0  0  0  0  0  0  0
   57.1012   33.2083   42.7919 H   0  0  0  0  0  0  0  0  0  0  0  0
   58.8834   33.1395   43.1736 H   0  0  0  0  0  0  0  0  0  0  0  0
   56.1974   31.0835   42.5701 H   0  0  0  0  0  0  0  0  0  0  0  0
   55.9559   28.7316   43.3552 H   0  0  0  0  0  0  0  0  0  0  0  0
   57.3250   24.9400   44.5370 H   0  0  0  0  0  0  0  0  0  0  0  0
   55.9060   24.9910   43.6440 H   0  0  0  0  0  0  0  0  0  0  0  0
   58.9884   29.4307   46.3719 H   0  0  0  0  0  0  0  0  0  0  0  0
   59.2235   31.7831   45.5868 H   0  0  0  0  0  0  0  0  0  0  0  0
   57.6257   34.0307   47.5206 H   0  0  0  0  0  0  0  0  0  0  0  0
   59.9204   34.8047   50.7489 H   0  0  0  0  0  0  0  0  0  0  0  0
   59.2416   33.9305   52.9868 H   0  0  0  0  0  0  0  0  0  0  0  0
   58.1714   31.6832   53.1805 H   0  0  0  0  0  0  0  0  0  0  0  0
   57.8013   30.2946   51.1394 H   0  0  0  0  0  0  0  0  0  0  0  0
   58.4717   31.1632   48.8969 H   0  0  0  0  0  0  0  0  0  0  0  0
   61.9148   34.9696   49.9211 H   0  0  0  0  0  0  0  0  0  0  0  0
   64.0808   34.4708   51.0509 H   0  0  0  0  0  0  0  0  0  0  0  0
  1  2  1  0
  2  3  2  0
  2  4  2  0
  2  5  1  0
  5  6  2  0
  6  7  1  0
  7  8  2  0
  8  9  1  0
  9 10  2  0
 10 11  1  0
 11 12  1  0
 12 13  1  0
 13 14  1  0
 14 15  1  0
 15 16  2  0
 16 17  1  0
 17 18  2  0
 18 19  1  0
 19 20  2  0
 19 21  1  0
 21 22  1  0
 22 23  1  0
 22 24  2  0
 22 25  2  0
 18 26  1  0
 26 27  2  0
 11 28  2  0
 28 29  1  0
 29 30  1  0
 30 31  2  0
 31 32  1  0
 32 33  2  0
 33 34  1  0
 34 35  2  0
  8 36  1  0
 36 37  2  0
 37  5  1  0
 29  9  1  0
 35 30  1  0
 27 15  1  0
  1 38  1  0
  1 39  1  0
  1 40  1  0
  6 41  1  0
  7 42  1  0
 10 43  1  0
 12 44  1  0
 12 45  1  0
 14 46  1  0
 14 47  1  0
 16 48  1  0
 17 49  1  0
 23 50  1  0
 23 51  1  0
 26 52  1  0
 27 53  1  0
 28 54  1  0
 31 55  1  0
 32 56  1  0
 33 57  1  0
 34 58  1  0
 35 59  1  0
 36 60  1  0
 37 61  1  0
M  CHG  2  10   1  21  -1
M  END
>  <UniqueID>  (69) 
69

>  <SMILES>  (69) 
CS(=O)(=O)c1ccc(-c2[nH+]c(COCc3ccc(C(=O)[N-]S(N)(=O)=O)cc3)cn2-c2ccccc2)cc1

>  <Energy>  (69) 
104.67511439246647

>  <Genealogy>  (69) 
CS(=O)(=O)c1ccc(-c2[nH+]c(COCc3ccc(C(=O)[N-]S(N)(=O)=O)cc3)cn2-c2ccccc2)cc1 (protonated)
CS(=O)(=O)c1ccc(-c2[nH+]c(COCc3ccc(C(=O)[N-]S(N)(=O)=O)cc3)cn2-c2ccccc2)cc1 (3D coordinates assigned)
CS(=O)(=O)c1ccc(-c2[nH+]c(COCc3ccc(C(=O)[N-]S(N)(=O)=O)cc3)cn2-c2ccccc2)cc1 (optimized conformer: 104.67511439246647 kcal/mol)

>  <smiles>  (69) 
CS(=O)(=O)c1ccc(-c2nc(COCc3ccc(C(=O)NS(N)(=O)=O)cc3)cn2-c2ccccc2)cc1

>  <score_type>  (69) 
oracle

>  <origin>  (69) 
adg

>  <m_score__min__energy>  (69) 
-11.02

>  <m_primary>  (69) 
energy

$$$$
69:0
     RDKit          3D

 68 72  0  0  0  0  0  0  0  0999 V2000
   56.9610   30.0260   43.4900 O   0  0  0  0  0  0  0  0  0  0  0  0
   57.5330   30.6890   44.3990 C   0  0  0  0  0  0  0  0  0  0  0  0
   58.7710   30.1950   45.0220 C   0  0  0  0  0  0  0  0  0  0  0  0
   59.0990   28.8950   45.0160 C   0  0  0  0  0  0  0  0  0  0  0  0
   58.2900   27.8430   45.6770 C   0  0  0  0  0  0  0  0  0  0  0  0
   58.9560   26.8200   46.3690 C   0  0  0  0  0  0  0  0  0  0  0  0
   58.2380   25.7700   46.9490 C   0  0  0  0  0  0  0  0  0  0  0  0
   56.8460   25.7190   46.8360 C   0  0  0  0  0  0  0  0  0  0  0  0
   56.1560   24.6520   47.4130 O   0  0  0  0  0  0  0  0  0  0  0  0
   56.1700   26.7330   46.1400 C   0  0  0  0  0  0  0  0  0  0  0  0
   54.7870   26.6890   46.0020 O   0  0  0  0  0  0  0  0  0  0  0  0
   56.8870   27.7890   45.5670 C   0  0  0  0  0  0  0  0  0  0  0  0
   56.9770   31.9290   44.8560 N   0  0  0  0  0  0  0  0  0  0  0  0
   57.6240   32.8550   45.4990 C   0  0  0  0  0  0  0  0  0  0  0  0
   58.1260   33.9420   44.8740 N   0  0  0  0  0  0  0  0  0  0  0  0
   58.9010   34.6890   45.7030 C   0  0  0  0  0  0  0  0  0  0  0  0
   59.0240   34.1910   46.9980 C   0  0  0  0  0  0  0  0  0  0  0  0
   60.0450   34.6310   48.0080 C   0  0  0  0  0  0  0  0  0  0  0  0
   61.3170   33.8090   47.9220 C   0  0  0  0  0  0  0  0  0  0  0  0
   62.1000   33.8530   46.7560 C   0  0  0  0  0  0  0  0  0  0  0  0
   63.2840   33.1140   46.6720 C   0  0  0  0  0  0  0  0  0  0  0  0
   63.7070   32.3330   47.7510 C   0  0  0  0  0  0  0  0  0  0  0  0
   62.9350   32.2670   48.9240 C   0  0  0  0  0  0  0  0  0  0  0  0
   63.4220   31.5370   50.1180 C   0  0  0  0  0  0  0  0  0  0  0  0
   64.5210   31.8510   50.6480 O   0  0  0  0  0  0  0  0  0  0  0  0
   62.6410   30.4640   50.6620 N   0  0  0  0  0  0  0  0  0  0  0  0
   61.3260   30.0610   50.2580 C   0  0  0  0  0  0  0  0  0  0  0  0
   61.0860   29.8340   48.8970 C   0  0  0  0  0  0  0  0  0  0  0  0
   59.8040   29.5050   48.4490 C   0  0  0  0  0  0  0  0  0  0  0  0
   58.7440   29.4210   49.3570 C   0  0  0  0  0  0  0  0  0  0  0  0
   58.9620   29.6830   50.7150 C   0  0  0  0  0  0  0  0  0  0  0  0
   57.8430   29.6070   51.6670 C   0  0  0  0  0  0  0  0  0  0  0  0
   57.8880   28.7580   52.5940 O   0  0  0  0  0  0  0  0  0  0  0  0
   56.6960   30.4620   51.5640 N   0  0  0  0  0  0  0  0  0  0  0  0
   56.5550   31.7630   52.2160 C   0  0  0  0  0  0  0  0  0  0  0  0
   57.8850   32.4500   52.3700 C   0  0  0  0  0  0  0  0  0  0  0  0
   58.5330   32.4710   53.6190 C   0  0  0  0  0  0  0  0  0  0  0  0
   59.7850   33.0770   53.7530 C   0  0  0  0  0  0  0  0  0  0  0  0
   60.4050   33.6580   52.6440 C   0  0  0  0  0  0  0  0  0  0  0  0
   59.7710   33.6360   51.4000 C   0  0  0  0  0  0  0  0  0  0  0  0
   58.5190   33.0280   51.2580 C   0  0  0  0  0  0  0  0  0  0  0  0
   60.2550   29.9870   51.1660 C   0  0  0  0  0  0  0  0  0  0  0  0
   61.7200   32.9710   48.9800 C   0  0  0  0  0  0  0  0  0  0  0  0
   58.1210   32.7750   47.1100 S   0  0  0  0  0  0  0  0  0  0  0  0
   59.4477   30.9138   45.5072 H   0  0  0  0  0  0  0  0  0  0  0  0
   60.0179   28.5926   44.4924 H   0  0  0  0  0  0  0  0  0  0  0  0
   60.0523   26.8444   46.4558 H   0  0  0  0  0  0  0  0  0  0  0  0
   58.7716   24.9797   47.4973 H   0  0  0  0  0  0  0  0  0  0  0  0
   55.1570   24.6860   47.5840 H   0  0  0  0  0  0  0  0  0  0  0  0
   56.3509   28.5830   45.0265 H   0  0  0  0  0  0  0  0  0  0  0  0
   59.3939   35.6166   45.3763 H   0  0  0  0  0  0  0  0  0  0  0  0
   60.2916   35.6876   47.8272 H   0  0  0  0  0  0  0  0  0  0  0  0
   59.6152   34.4899   49.0107 H   0  0  0  0  0  0  0  0  0  0  0  0
   61.7798   34.4720   45.9049 H   0  0  0  0  0  0  0  0  0  0  0  0
   63.8857   33.1475   45.7518 H   0  0  0  0  0  0  0  0  0  0  0  0
   64.6480   31.7675   47.6821 H   0  0  0  0  0  0  0  0  0  0  0  0
   61.9125   29.9153   48.1757 H   0  0  0  0  0  0  0  0  0  0  0  0
   59.6284   29.3118   47.3804 H   0  0  0  0  0  0  0  0  0  0  0  0
   57.7383   29.1489   49.0042 H   0  0  0  0  0  0  0  0  0  0  0  0
   55.8932   32.3975   51.6082 H   0  0  0  0  0  0  0  0  0  0  0  0
   56.1315   31.6025   53.2184 H   0  0  0  0  0  0  0  0  0  0  0  0
   58.0520   32.0085   54.4935 H   0  0  0  0  0  0  0  0  0  0  0  0
   60.2833   33.0966   54.7335 H   0  0  0  0  0  0  0  0  0  0  0  0
   61.3917   34.1324   52.7507 H   0  0  0  0  0  0  0  0  0  0  0  0
   60.2577   34.0984   50.5286 H   0  0  0  0  0  0  0  0  0  0  0  0
   58.0300   33.0026   50.2730 H   0  0  0  0  0  0  0  0  0  0  0  0
   60.4321   30.1686   52.2364 H   0  0  0  0  0  0  0  0  0  0  0  0
   61.0736   32.8660   49.8638 H   0  0  0  0  0  0  0  0  0  0  0  0
  1  2  2  0
  2  3  1  0
  3  4  2  3
  4  5  1  0
  5  6  2  0
  6  7  1  0
  7  8  2  0
  8  9  1  0
  8 10  1  0
 10 11  1  0
 10 12  2  0
  2 13  1  0
 13 14  2  3
 14 15  1  0
 15 16  1  0
 16 17  2  0
 17 18  1  0
 18 19  1  0
 19 20  2  0
 20 21  1  0
 21 22  2  0
 22 23  1  0
 23 24  1  0
 24 25  2  0
 24 26  1  0
 26 27  1  0
 27 28  2  0
 28 29  1  0
 29 30  2  0
 30 31  1  0
 31 32  1  0
 32 33  2  0
 32 34  1  0
 34 35  1  0
 35 36  1  0
 36 37  2  0
 37 38  1  0
 38 39  2  0
 39 40  1  0
 40 41  2  0
 31 42  2  0
 23 43  2  0
 17 44  1  0
 12  5  1  0
 44 14  1  0
 43 19  1  0
 42 27  1  0
 41 36  1  0
  3 45  1  0
  4 46  1  0
  6 47  1  0
  7 48  1  0
  9 49  1  0
 12 50  1  0
 16 51  1  0
 18 52  1  0
 18 53  1  0
 20 54  1  0
 21 55  1  0
 22 56  1  0
 28 57  1  0
 29 58  1  0
 30 59  1  0
 35 60  1  0
 35 61  1  0
 37 62  1  0
 38 63  1  0
 39 64  1  0
 40 65  1  0
 41 66  1  0
 42 67  1  0
 43 68  1  0
M  CHG  4  11  -1  15  -1  26  -1  34  -1
M  END
>  <UniqueID>  (70) 
70

>  <SMILES>  (70) 
O=C(C=Cc1ccc(O)c([O-])c1)N=c1[n-]cc(Cc2cccc(C(=O)[N-]c3cccc(C(=O)[N-]Cc4ccccc4)c3)c2)s1

>  <Energy>  (70) 
112.79266935368963

>  <Genealogy>  (70) 
O=C(C=Cc1ccc(O)c([O-])c1)N=c1[n-]cc(Cc2cccc(C(=O)[N-]c3cccc(C(=O)[N-]Cc4ccccc4)c3)c2)s1 (protonated)
O=C(C=Cc1ccc(O)c([O-])c1)N=c1[n-]cc(Cc2cccc(C(=O)[N-]c3cccc(C(=O)[N-]Cc4ccccc4)c3)c2)s1 (3D coordinates assigned)
O=C(C=Cc1ccc(O)c([O-])c1)N=c1[n-]cc(Cc2cccc(C(=O)[N-]c3cccc(C(=O)[N-]Cc4ccccc4)c3)c2)s1 (optimized conformer: 112.79266935368963 kcal/mol)

>  <smiles>  (70) 
O=C(C=Cc1ccc(O)c(O)c1)N=c1[nH]cc(Cc2cccc(C(=O)Nc3cccc(C(=O)NCc4ccccc4)c3)c2)s1

>  <score_type>  (70) 
oracle

>  <origin>  (70) 
adg

>  <m_score__min__energy>  (70) 
-22.75

>  <m_primary>  (70) 
energy

$$$$
70:0
     RDKit          3D

 35 37  0  0  0  0  0  0  0  0999 V2000
   54.3220   29.7600   54.4070 O   0  0  0  0  0  0  0  0  0  0  0  0
   54.7980   29.5710   53.2550 C   0  0  0  0  0  0  0  0  0  0  0  0
   56.2150   29.1040   53.1150 C   0  0  0  0  0  0  0  0  0  0  0  0
   57.0810   30.2320   52.7760 N   0  0  0  0  0  0  0  0  0  0  0  0
   57.7580   30.4190   51.6210 C   0  0  0  0  0  0  0  0  0  0  0  0
   57.7800   29.5080   50.5710 O   0  0  0  0  0  0  0  0  0  0  0  0
   58.4050   31.6370   51.6350 C   0  0  0  0  0  0  0  0  0  0  0  0
   58.1070   32.2260   52.8380 C   0  0  0  0  0  0  0  0  0  0  0  0
   57.2840   31.3440   53.5170 C   0  0  0  0  0  0  0  0  0  0  0  0
   56.7230   31.5550   54.7740 O   0  0  0  0  0  0  0  0  0  0  0  0
   58.5810   33.5850   53.2460 C   0  0  0  0  0  0  0  0  0  0  0  0
   59.4930   34.1970   52.2020 C   0  0  0  0  0  0  0  0  0  0  0  0
   59.7870   33.6150   51.0180 C   0  0  0  0  0  0  0  0  0  0  0  0
   59.2430   32.2720   50.5740 C   0  0  0  0  0  0  0  0  0  0  0  0
   54.0190   29.8530   52.0810 N   0  0  0  0  0  0  0  0  0  0  0  0
   52.6570   30.3150   52.1170 C   0  0  0  0  0  0  0  0  0  0  0  0
   52.0240   30.3430   53.2070 O   0  0  0  0  0  0  0  0  0  0  0  0
   51.9660   30.7510   50.8880 C   0  0  0  0  0  0  0  0  0  0  0  0
   51.7940   30.0040   49.7320 C   0  0  0  0  0  0  0  0  0  0  0  0
   51.1090   30.8100   48.8490 C   0  0  0  0  0  0  0  0  0  0  0  0
   50.9060   31.9990   49.5120 C   0  0  0  0  0  0  0  0  0  0  0  0
   50.2480   33.0990   48.9790 O   0  0  0  0  0  0  0  0  0  0  0  0
   51.4230   31.9790   50.7560 N   0  0  0  0  0  0  0  0  0  0  0  0
   56.5484   28.6613   54.0652 H   0  0  0  0  0  0  0  0  0  0  0  0
   56.2704   28.3522   52.3139 H   0  0  0  0  0  0  0  0  0  0  0  0
   55.8630   31.0950   55.0460 H   0  0  0  0  0  0  0  0  0  0  0  0
   57.7083   34.2401   53.3852 H   0  0  0  0  0  0  0  0  0  0  0  0
   59.1505   33.4831   54.1816 H   0  0  0  0  0  0  0  0  0  0  0  0
   59.9439   35.1760   52.4214 H   0  0  0  0  0  0  0  0  0  0  0  0
   60.4631   34.1493   50.3343 H   0  0  0  0  0  0  0  0  0  0  0  0
   58.6284   32.4165   49.6732 H   0  0  0  0  0  0  0  0  0  0  0  0
   60.0954   31.6082   50.3674 H   0  0  0  0  0  0  0  0  0  0  0  0
   54.4780   29.7060   51.1560 H   0  0  0  0  0  0  0  0  0  0  0  0
   52.1362   28.9736   49.5554 H   0  0  0  0  0  0  0  0  0  0  0  0
   50.7907   30.5561   47.8271 H   0  0  0  0  0  0  0  0  0  0  0  0
  1  2  2  0
  2  3  1  0
  3  4  1  0
  4  5  1  0
  5  6  1  0
  5  7  2  0
  7  8  1  0
  8  9  2  0
  9 10  1  0
  8 11  1  0
 11 12  1  0
 12 13  2  0
 13 14  1  0
  2 15  1  0
 15 16  1  0
 16 17  2  0
 16 18  1  0
 18 19  2  0
 19 20  1  0
 20 21  2  0
 21 22  1  0
 21 23  1  0
  9  4  1  0
 23 18  1  0
 14  7  1  0
  3 24  1  0
  3 25  1  0
 10 26  1  0
 11 27  1  0
 11 28  1  0
 12 29  1  0
 13 30  1  0
 14 31  1  0
 14 32  1  0
 15 33  1  0
 19 34  1  0
 20 35  1  0
M  CHG  3   6  -1  22  -1  23  -1
M  END
>  <UniqueID>  (71) 
71

>  <SMILES>  (71) 
O=C(Cn1c([O-])c2c(c1O)CC=CC2)NC(=O)c1ccc([O-])[n-]1

>  <Energy>  (71) 
91.39013262459598

>  <Genealogy>  (71) 
O=C(Cn1c([O-])c2c(c1O)CC=CC2)NC(=O)c1ccc([O-])[n-]1 (protonated)
O=C(Cn1c([O-])c2c(c1O)CC=CC2)NC(=O)c1ccc([O-])[n-]1 (3D coordinates assigned)
O=C(Cn1c([O-])c2c(c1O)CC=CC2)NC(=O)c1ccc([O-])[n-]1 (nonaromatic ring conformer: 91.39013262459598 kcal/mol)

>  <smiles>  (71) 
O=C(Cn1c(O)c2c(c1O)CC=CC2)NC(=O)c1ccc(O)[nH]1

>  <score_type>  (71) 
oracle

>  <origin>  (71) 
adg

>  <m_score__min__energy>  (71) 
-13.970000000000001

>  <m_primary>  (71) 
energy

$$$$
71:0
     RDKit          3D

 66 70  0  0  0  0  0  0  0  0999 V2000
   54.3550   26.7170   46.7580 H   0  0  0  0  0  0  0  0  0  0  0  0
   54.5700   26.3110   45.8560 O   0  0  0  0  0  0  0  0  0  0  0  0
   54.2040   25.0070   45.5340 C   0  0  0  0  0  0  0  0  0  0  0  0
   52.9540   24.5390   45.6780 N   0  0  0  0  0  0  0  0  0  0  0  0
   53.0420   23.2880   45.1810 C   0  0  0  0  0  0  0  0  0  0  0  0
   52.0560   22.5070   45.1340 O   0  0  0  0  0  0  0  0  0  0  0  0
   54.2680   22.9410   44.7350 N   0  0  0  0  0  0  0  0  0  0  0  0
   55.0130   24.0330   44.9830 C   0  0  0  0  0  0  0  0  0  0  0  0
   56.4400   24.1300   44.6250 C   0  0  0  0  0  0  0  0  0  0  0  0
   56.8939   23.2956   44.0703 H   0  0  0  0  0  0  0  0  0  0  0  0
   57.2190   25.1830   44.9390 C   0  0  0  0  0  0  0  0  0  0  0  0
   57.8100   26.0630   44.0420 C   0  0  0  0  0  0  0  0  0  0  0  0
   57.7436   26.0255   42.9446 H   0  0  0  0  0  0  0  0  0  0  0  0
   58.4970   26.9940   44.7950 C   0  0  0  0  0  0  0  0  0  0  0  0
   59.2800   28.1360   44.2220 C   0  0  0  0  0  0  0  0  0  0  0  0
   59.6958   28.7425   45.0401 H   0  0  0  0  0  0  0  0  0  0  0  0
   60.1002   27.7440   43.6027 H   0  0  0  0  0  0  0  0  0  0  0  0
   58.6187   28.7598   43.6027 H   0  0  0  0  0  0  0  0  0  0  0  0
   58.3360   26.7470   46.1160 N   0  0  0  0  0  0  0  0  0  0  0  0
   58.9220   27.5040   47.1900 C   0  0  0  0  0  0  0  0  0  0  0  0
   58.5360   28.8340   47.4100 C   0  0  0  0  0  0  0  0  0  0  0  0
   57.7597   29.2905   46.7783 H   0  0  0  0  0  0  0  0  0  0  0  0
   59.1330   29.5820   48.4280 C   0  0  0  0  0  0  0  0  0  0  0  0
   58.8271   30.6261   48.5899 H   0  0  0  0  0  0  0  0  0  0  0  0
   60.1210   29.0100   49.2460 C   0  0  0  0  0  0  0  0  0  0  0  0
   60.7570   29.7890   50.2750 N   0  0  0  0  0  0  0  0  0  0  0  0
   62.2000   29.6800   50.5140 C   0  0  0  0  0  0  0  0  0  0  0  0
   62.3760   29.2607   51.5156 H   0  0  0  0  0  0  0  0  0  0  0  0
   62.6499   29.0195   49.7582 H   0  0  0  0  0  0  0  0  0  0  0  0
   62.8340   31.0700   50.4230 C   0  0  0  0  0  0  0  0  0  0  0  0
   63.8650   31.0178   50.8029 H   0  0  0  0  0  0  0  0  0  0  0  0
   62.8193   31.3868   49.3697 H   0  0  0  0  0  0  0  0  0  0  0  0
   62.0820   32.0620   51.2140 N   0  0  0  0  0  0  0  0  0  0  0  0
   62.6350   33.3770   51.4440 C   0  0  0  0  0  0  0  0  0  0  0  0
   62.2280   34.0580   52.4250 O   0  0  0  0  0  0  0  0  0  0  0  0
   63.7400   33.9250   50.5600 C   0  0  0  0  0  0  0  0  0  0  0  0
   64.0460   34.8997   50.9678 H   0  0  0  0  0  0  0  0  0  0  0  0
   64.5351   33.1650   50.5710 H   0  0  0  0  0  0  0  0  0  0  0  0
   63.3740   34.1280   49.0690 C   0  0  0  0  0  0  0  0  0  0  0  0
   63.7096   35.1595   48.8864 H   0  0  0  0  0  0  0  0  0  0  0  0
   61.8730   34.0080   48.7770 C   0  0  0  0  0  0  0  0  0  0  0  0
   61.3768   33.4145   49.5590 H   0  0  0  0  0  0  0  0  0  0  0  0
   61.3838   34.9931   48.7588 H   0  0  0  0  0  0  0  0  0  0  0  0
   61.7680   33.3060   47.4330 C   0  0  0  0  0  0  0  0  0  0  0  0
   60.8646   32.6794   47.3970 H   0  0  0  0  0  0  0  0  0  0  0  0
   61.6950   34.0250   46.6037 H   0  0  0  0  0  0  0  0  0  0  0  0
   63.0150   32.4450   47.3210 C   0  0  0  0  0  0  0  0  0  0  0  0
   62.8323   31.4498   47.7526 H   0  0  0  0  0  0  0  0  0  0  0  0
   63.3090   32.2965   46.2715 H   0  0  0  0  0  0  0  0  0  0  0  0
   64.1000   33.1720   48.1070 C   0  0  0  0  0  0  0  0  0  0  0  0
   64.7070   32.4507   48.6738 H   0  0  0  0  0  0  0  0  0  0  0  0
   64.7780   33.7205   47.4365 H   0  0  0  0  0  0  0  0  0  0  0  0
   60.8570   31.6530   51.9220 C   0  0  0  0  0  0  0  0  0  0  0  0
   61.1329   31.0759   52.8169 H   0  0  0  0  0  0  0  0  0  0  0  0
   60.2959   32.5551   52.2072 H   0  0  0  0  0  0  0  0  0  0  0  0
   59.9700   30.7860   51.0170 C   0  0  0  0  0  0  0  0  0  0  0  0
   59.2291   30.2632   51.6397 H   0  0  0  0  0  0  0  0  0  0  0  0
   59.4777   31.4455   50.2871 H   0  0  0  0  0  0  0  0  0  0  0  0
   60.5050   27.6770   49.0220 C   0  0  0  0  0  0  0  0  0  0  0  0
   61.2775   27.2175   49.6561 H   0  0  0  0  0  0  0  0  0  0  0  0
   59.9130   26.9310   48.0000 C   0  0  0  0  0  0  0  0  0  0  0  0
   60.2254   25.8901   47.8300 H   0  0  0  0  0  0  0  0  0  0  0  0
   57.5520   25.6420   46.2180 C   0  0  0  0  0  0  0  0  0  0  0  0
   57.1500   25.1120   47.3840 C   0  0  0  0  0  0  0  0  0  0  0  0
   57.4772   25.5602   48.3338 H   0  0  0  0  0  0  0  0  0  0  0  0
   56.4934   24.2295   47.3897 H   0  0  0  0  0  0  0  0  0  0  0  0
  1  2  1  0
  2  3  1  0
  3  4  1  0
  4  5  1  0
  5  6  2  0
  5  7  1  0
  7  8  1  0
  8  9  1  0
  9 10  1  0
  9 11  2  0
 11 12  1  0
 12 13  1  0
 12 14  2  0
 14 15  1  0
 15 16  1  0
 15 17  1  0
 15 18  1  0
 14 19  1  0
 19 20  1  0
 20 21  2  0
 21 22  1  0
 21 23  1  0
 23 24  1  0
 23 25  2  0
 25 26  1  0
 26 27  1  0
 27 28  1  0
 27 29  1  0
 27 30  1  0
 30 31  1  0
 30 32  1  0
 30 33  1  0
 33 34  1  0
 34 35  2  0
 34 36  1  0
 36 37  1  0
 36 38  1  0
 36 39  1  0
 39 40  1  0
 39 41  1  0
 41 42  1  0
 41 43  1  0
 41 44  1  0
 44 45  1  0
 44 46  1  0
 44 47  1  0
 47 48  1  0
 47 49  1  0
 47 50  1  0
 50 51  1  0
 50 52  1  0
 33 53  1  0
 53 54  1  0
 53 55  1  0
 53 56  1  0
 56 57  1  0
 56 58  1  0
 25 59  1  0
 59 60  1  0
 59 61  2  0
 61 62  1  0
 19 63  1  0
 63 64  2  0
 64 65  1  0
 64 66  1  0
  8  3  2  0
 63 11  1  0
 61 20  1  0
 56 26  1  0
 50 39  1  0
M  CHG  2   4  -1   7  -1
M  END
>  <UniqueID>  (72) 
72

>  <SMILES>  (72) 
C=c1/c(=C/c2[n-]c(=O)[n-]c2O)cc(C)n1-c1ccc(N2CCN(C(=O)CC3CCCC3)CC2)cc1

>  <Energy>  (72) 
147.57659543150473

>  <Genealogy>  (72) 
C=c1c(=Cc2[n-]c(=O)[n-]c2O)cc(C)n1-c1ccc(N2CCN(C(=O)CC3CCCC3)CC2)cc1 (protonated)
C=c1/c(=C/c2[n-]c(=O)[n-]c2O)cc(C)n1-c1ccc(N2CCN(C(=O)CC3CCCC3)CC2)cc1 (cis-trans isomerization)
C=c1/c(=C/c2[n-]c(=O)[n-]c2O)cc(C)n1-c1ccc(N2CCN(C(=O)CC3CCCC3)CC2)cc1 (3D coordinates assigned)
C=c1/c(=C/c2[n-]c(=O)[n-]c2O)cc(C)n1-c1ccc(N2CCN(C(=O)CC3CCCC3)CC2)cc1 (nonaromatic ring conformer: 147.57659543150473 kcal/mol)

>  <smiles>  (72) 
C=c1c(=Cc2[nH]c(=O)[nH]c2O)cc(C)n1-c1ccc(N2CCN(C(=O)CC3CCCC3)CC2)cc1

>  <score_type>  (72) 
oracle

>  <origin>  (72) 
adg

>  <m_score__min__energy>  (72) 
-13.470000000000001

>  <m_primary>  (72) 
energy

$$$$
72:0
     RDKit          3D

 45 47  0  0  0  0  0  0  0  0999 V2000
   58.1180   32.6710   41.8260 C   0  0  0  0  0  0  0  0  0  0  0  0
   57.5510   31.6190   42.7330 C   0  0  0  0  0  0  0  0  0  0  0  0
   56.6450   30.6720   42.2350 C   0  0  0  0  0  0  0  0  0  0  0  0
   56.1470   29.6680   43.0710 C   0  0  0  0  0  0  0  0  0  0  0  0
   56.5380   29.5990   44.4130 C   0  0  0  0  0  0  0  0  0  0  0  0
   56.0280   28.5300   45.2270 N   0  0  0  0  0  0  0  0  0  0  0  0
   56.7160   27.7360   45.9960 C   0  0  0  0  0  0  0  0  0  0  0  0
   57.8020   28.2260   46.6500 N   0  0  0  0  0  0  0  0  0  0  0  0
   58.5720   27.4370   47.4480 C   0  0  0  0  0  0  0  0  0  0  0  0
   59.7390   28.0160   48.1480 C   0  0  0  0  0  0  0  0  0  0  0  0
   60.4770   27.2750   48.8540 O   0  0  0  0  0  0  0  0  0  0  0  0
   60.0420   29.4160   48.0270 N   0  0  0  0  0  0  0  0  0  0  0  0
   61.1350   30.0480   48.7630 C   0  0  0  0  0  0  0  0  0  0  0  0
   61.5880   31.3000   48.0540 C   0  0  0  0  0  0  0  0  0  0  0  0
   62.9630   31.5780   47.9840 C   0  0  0  0  0  0  0  0  0  0  0  0
   63.4230   32.7160   47.3180 C   0  0  0  0  0  0  0  0  0  0  0  0
   62.5160   33.5840   46.7130 C   0  0  0  0  0  0  0  0  0  0  0  0
   61.1460   33.3200   46.7680 C   0  0  0  0  0  0  0  0  0  0  0  0
   60.6650   32.1760   47.4380 C   0  0  0  0  0  0  0  0  0  0  0  0
   59.2920   31.8820   47.5070 O   0  0  0  0  0  0  0  0  0  0  0  0
   58.2560   32.8470   47.6650 C   0  0  0  0  0  0  0  0  0  0  0  0
   57.7350   33.1860   46.4300 F   0  0  0  0  0  0  0  0  0  0  0  0
   58.7810   33.9790   48.2570 F   0  0  0  0  0  0  0  0  0  0  0  0
   58.2400   26.0820   47.5920 C   0  0  0  0  0  0  0  0  0  0  0  0
   57.1290   25.5890   46.9060 C   0  0  0  0  0  0  0  0  0  0  0  0
   56.8070   24.3770   47.0100 O   0  0  0  0  0  0  0  0  0  0  0  0
   56.3950   26.4200   46.1230 N   0  0  0  0  0  0  0  0  0  0  0  0
   57.4870   30.5200   44.8980 C   0  0  0  0  0  0  0  0  0  0  0  0
   57.9860   31.5240   44.0630 C   0  0  0  0  0  0  0  0  0  0  0  0
   58.5540   33.4800   42.4304 H   0  0  0  0  0  0  0  0  0  0  0  0
   58.8985   32.2260   41.1913 H   0  0  0  0  0  0  0  0  0  0  0  0
   57.3172   33.0783   41.1913 H   0  0  0  0  0  0  0  0  0  0  0  0
   56.3251   30.7190   41.1836 H   0  0  0  0  0  0  0  0  0  0  0  0
   55.4413   28.9255   42.6702 H   0  0  0  0  0  0  0  0  0  0  0  0
   59.4670   30.0170   47.3960 H   0  0  0  0  0  0  0  0  0  0  0  0
   60.7888   30.3086   49.7741 H   0  0  0  0  0  0  0  0  0  0  0  0
   61.9792   29.3454   48.8233 H   0  0  0  0  0  0  0  0  0  0  0  0
   63.6829   30.8942   48.4574 H   0  0  0  0  0  0  0  0  0  0  0  0
   64.5015   32.9273   47.2709 H   0  0  0  0  0  0  0  0  0  0  0  0
   62.8807   34.4805   46.1902 H   0  0  0  0  0  0  0  0  0  0  0  0
   60.4371   34.0089   46.2855 H   0  0  0  0  0  0  0  0  0  0  0  0
   57.4584   32.4240   48.2934 H   0  0  0  0  0  0  0  0  0  0  0  0
   58.8428   25.4214   48.2324 H   0  0  0  0  0  0  0  0  0  0  0  0
   57.8370   30.4489   45.9384 H   0  0  0  0  0  0  0  0  0  0  0  0
   58.7230   32.2426   44.4508 H   0  0  0  0  0  0  0  0  0  0  0  0
  1  2  1  0
  2  3  2  0
  3  4  1  0
  4  5  2  0
  5  6  1  0
  6  7  2  3
  7  8  1  0
  8  9  1  0
  9 10  1  0
 10 11  2  0
 10 12  1  0
 12 13  1  0
 13 14  1  0
 14 15  2  0
 15 16  1  0
 16 17  2  0
 17 18  1  0
 18 19  2  0
 19 20  1  0
 20 21  1  0
 21 22  1  0
 21 23  1  0
  9 24  2  0
 24 25  1  0
 25 26  2  0
 25 27  1  0
  5 28  1  0
 28 29  2  0
 29  2  1  0
 27  7  1  0
 19 14  1  0
  1 30  1  0
  1 31  1  0
  1 32  1  0
  3 33  1  0
  4 34  1  0
 12 35  1  0
 13 36  1  0
 13 37  1  0
 15 38  1  0
 16 39  1  0
 17 40  1  0
 18 41  1  0
 21 42  1  0
 24 43  1  0
 28 44  1  0
 29 45  1  0
M  CHG  2   8  -1  27  -1
M  END
>  <UniqueID>  (73) 
73

>  <SMILES>  (73) 
Cc1ccc(N=c2[n-]c(C(=O)NCc3ccccc3OC(F)F)cc(=O)[n-]2)cc1

>  <Energy>  (73) 
52.28905390709718

>  <Genealogy>  (73) 
Cc1ccc(N=c2[n-]c(C(=O)NCc3ccccc3OC(F)F)cc(=O)[n-]2)cc1 (protonated)
Cc1ccc(N=c2[n-]c(C(=O)NCc3ccccc3OC(F)F)cc(=O)[n-]2)cc1 (3D coordinates assigned)
Cc1ccc(N=c2[n-]c(C(=O)NCc3ccccc3OC(F)F)cc(=O)[n-]2)cc1 (optimized conformer: 52.28905390709718 kcal/mol)

>  <smiles>  (73) 
Cc1ccc(N=c2[nH]c(C(=O)NCc3ccccc3OC(F)F)cc(=O)[nH]2)cc1

>  <score_type>  (73) 
oracle

>  <origin>  (73) 
adg

>  <m_score__min__energy>  (73) 
-10.93

>  <m_primary>  (73) 
energy

$$$$
73:0
     RDKit          3D

 32 33  0  0  0  0  0  0  0  0999 V2000
   50.9650   33.4590   52.0200 N   0  0  0  0  0  0  0  0  0  0  0  0
   51.3540   32.3290   51.5270 C   0  0  0  0  0  0  0  0  0  0  0  0
   52.0960   31.4720   52.2780 N   0  0  0  0  0  0  0  0  0  0  0  0
   52.5020   30.2710   51.7830 C   0  0  0  0  0  0  0  0  0  0  0  0
   53.3440   29.3600   52.6300 C   0  0  0  0  0  0  0  0  0  0  0  0
   55.1180   29.4790   52.1930 S   0  0  0  0  0  0  0  0  0  0  0  0
   55.2750   31.2940   52.3580 C   0  0  0  0  0  0  0  0  0  0  0  0
   56.7110   31.7020   52.2290 C   0  0  0  0  0  0  0  0  0  0  0  0
   57.4350   31.7490   53.2600 O   0  0  0  0  0  0  0  0  0  0  0  0
   57.2620   32.0290   50.9470 N   0  0  0  0  0  0  0  0  0  0  0  0
   58.6740   32.3720   50.7910 C   0  0  0  0  0  0  0  0  0  0  0  0
   58.9480   32.8860   49.4100 C   0  0  0  0  0  0  0  0  0  0  0  0
   60.0790   33.5700   49.0130 C   0  0  0  0  0  0  0  0  0  0  0  0
   59.8940   33.8440   47.6750 C   0  0  0  0  0  0  0  0  0  0  0  0
   58.6630   33.3170   47.3430 C   0  0  0  0  0  0  0  0  0  0  0  0
   58.1220   32.7550   48.4000 O   0  0  0  0  0  0  0  0  0  0  0  0
   52.1720   29.9220   50.4680 C   0  0  0  0  0  0  0  0  0  0  0  0
   51.4120   30.8160   49.7120 C   0  0  0  0  0  0  0  0  0  0  0  0
   51.0870   30.5300   48.5300 O   0  0  0  0  0  0  0  0  0  0  0  0
   51.0190   31.9980   50.2530 N   0  0  0  0  0  0  0  0  0  0  0  0
   50.9930   34.3390   51.4580 H   0  0  0  0  0  0  0  0  0  0  0  0
   53.2176   29.6376   53.6869 H   0  0  0  0  0  0  0  0  0  0  0  0
   53.0154   28.3253   52.4528 H   0  0  0  0  0  0  0  0  0  0  0  0
   54.6858   31.7831   51.5684 H   0  0  0  0  0  0  0  0  0  0  0  0
   54.9024   31.5985   53.3472 H   0  0  0  0  0  0  0  0  0  0  0  0
   56.6330   32.0130   50.1110 H   0  0  0  0  0  0  0  0  0  0  0  0
   58.9396   33.1481   51.5239 H   0  0  0  0  0  0  0  0  0  0  0  0
   59.2768   31.4668   50.9561 H   0  0  0  0  0  0  0  0  0  0  0  0
   60.9459   33.8398   49.6340 H   0  0  0  0  0  0  0  0  0  0  0  0
   60.5877   34.3755   47.0069 H   0  0  0  0  0  0  0  0  0  0  0  0
   58.2039   33.3608   46.3443 H   0  0  0  0  0  0  0  0  0  0  0  0
   52.5042   28.9646   50.0401 H   0  0  0  0  0  0  0  0  0  0  0  0
  1  2  2  3
  2  3  1  0
  3  4  1  0
  4  5  1  0
  5  6  1  0
  6  7  1  0
  7  8  1  0
  8  9  2  0
  8 10  1  0
 10 11  1  0
 11 12  1  0
 12 13  2  0
 13 14  1  0
 14 15  2  0
 15 16  1  0
  4 17  2  0
 17 18  1  0
 18 19  2  0
 18 20  1  0
 20  2  1  0
 16 12  1  0
  1 21  1  0
  5 22  1  0
  5 23  1  0
  7 24  1  0
  7 25  1  0
 10 26  1  0
 11 27  1  0
 11 28  1  0
 13 29  1  0
 14 30  1  0
 15 31  1  0
 17 32  1  0
M  CHG  2   3  -1  20  -1
M  END
>  <UniqueID>  (74) 
74

>  <SMILES>  (74) 
N=c1[n-]c(CSCC(=O)NCc2ccco2)cc(=O)[n-]1

>  <Energy>  (74) 
48.239036886589595

>  <Genealogy>  (74) 
N=c1[n-]c(CSCC(=O)NCc2ccco2)cc(=O)[n-]1 (protonated)
N=c1[n-]c(CSCC(=O)NCc2ccco2)cc(=O)[n-]1 (3D coordinates assigned)
N=c1[n-]c(CSCC(=O)NCc2ccco2)cc(=O)[n-]1 (optimized conformer: 48.239036886589595 kcal/mol)

>  <smiles>  (74) 
N=c1[nH]c(CSCC(=O)NCc2ccco2)cc(=O)[nH]1

>  <score_type>  (74) 
oracle

>  <origin>  (74) 
adg

>  <m_score__min__energy>  (74) 
-11.82

>  <m_primary>  (74) 
energy

$$$$
74:0
     RDKit          3D

 44 46  0  0  0  0  0  0  0  0999 V2000
   59.4350   27.7870   44.8780 C   0  0  0  0  0  0  0  0  0  0  0  0
   58.4090   28.0600   45.8920 N   0  0  0  0  0  0  0  0  0  0  0  0
   56.9850   27.9180   45.5320 C   0  0  0  0  0  0  0  0  0  0  0  0
   56.3830   29.2290   45.1160 C   0  0  0  0  0  0  0  0  0  0  0  0
   55.1480   29.2970   44.8770 O   0  0  0  0  0  0  0  0  0  0  0  0
   57.2120   30.3840   44.9650 N   0  0  0  0  0  0  0  0  0  0  0  0
   56.7060   31.6630   44.4930 C   0  0  0  0  0  0  0  0  0  0  0  0
   57.5480   32.7670   45.0630 C   0  0  0  0  0  0  0  0  0  0  0  0
   57.4220   33.1210   46.4160 C   0  0  0  0  0  0  0  0  0  0  0  0
   58.2350   34.1190   46.9620 C   0  0  0  0  0  0  0  0  0  0  0  0
   59.1850   34.7630   46.1620 C   0  0  0  0  0  0  0  0  0  0  0  0
   59.9740   35.7290   46.6930 F   0  0  0  0  0  0  0  0  0  0  0  0
   59.3260   34.4050   44.8190 C   0  0  0  0  0  0  0  0  0  0  0  0
   58.5150   33.4060   44.2700 C   0  0  0  0  0  0  0  0  0  0  0  0
   58.8420   28.5280   47.1920 C   0  0  0  0  0  0  0  0  0  0  0  0
   58.5610   27.8470   48.2170 O   0  0  0  0  0  0  0  0  0  0  0  0
   59.6280   29.7710   47.3720 C   0  0  0  0  0  0  0  0  0  0  0  0
   60.7710   30.0050   46.5970 C   0  0  0  0  0  0  0  0  0  0  0  0
   61.4970   31.1830   46.7790 C   0  0  0  0  0  0  0  0  0  0  0  0
   61.0990   32.1260   47.7370 C   0  0  0  0  0  0  0  0  0  0  0  0
   61.9290   33.3900   47.8820 C   0  0  0  0  0  0  0  0  0  0  0  0
   62.8170   33.7790   46.7080 C   0  0  0  0  0  0  0  0  0  0  0  0
   63.4390   33.2210   47.9830 C   0  0  0  0  0  0  0  0  0  0  0  0
   59.9520   31.8420   48.5060 C   0  0  0  0  0  0  0  0  0  0  0  0
   59.2610   30.6870   48.3070 N   0  0  0  0  0  0  0  0  0  0  0  0
   60.3835   27.5346   45.3747 H   0  0  0  0  0  0  0  0  0  0  0  0
   59.1142   26.9430   44.2498 H   0  0  0  0  0  0  0  0  0  0  0  0
   59.5761   28.6789   44.2498 H   0  0  0  0  0  0  0  0  0  0  0  0
   56.8975   27.2053   44.6987 H   0  0  0  0  0  0  0  0  0  0  0  0
   56.4420   27.5576   46.4182 H   0  0  0  0  0  0  0  0  0  0  0  0
   56.7525   31.6944   43.3944 H   0  0  0  0  0  0  0  0  0  0  0  0
   55.6621   31.7897   44.8160 H   0  0  0  0  0  0  0  0  0  0  0  0
   56.6807   32.6111   47.0489 H   0  0  0  0  0  0  0  0  0  0  0  0
   58.1276   34.3978   48.0207 H   0  0  0  0  0  0  0  0  0  0  0  0
   60.0760   34.9095   44.1921 H   0  0  0  0  0  0  0  0  0  0  0  0
   58.6350   33.1203   43.2146 H   0  0  0  0  0  0  0  0  0  0  0  0
   61.0943   29.2652   45.8499 H   0  0  0  0  0  0  0  0  0  0  0  0
   62.3897   31.3733   46.1651 H   0  0  0  0  0  0  0  0  0  0  0  0
   61.1612   33.9033   48.4794 H   0  0  0  0  0  0  0  0  0  0  0  0
   62.8101   33.1744   45.7891 H   0  0  0  0  0  0  0  0  0  0  0  0
   62.9581   34.6898   46.1076 H   0  0  0  0  0  0  0  0  0  0  0  0
   63.8810   32.2137   47.9843 H   0  0  0  0  0  0  0  0  0  0  0  0
   64.2150   33.5622   48.6841 H   0  0  0  0  0  0  0  0  0  0  0  0
   59.6142   32.5574   49.2703 H   0  0  0  0  0  0  0  0  0  0  0  0
  1  2  1  0
  2  3  1  0
  3  4  1  0
  4  5  2  0
  4  6  1  0
  6  7  1  0
  7  8  1  0
  8  9  2  0
  9 10  1  0
 10 11  2  0
 11 12  1  0
 11 13  1  0
 13 14  2  0
  2 15  1  0
 15 16  2  0
 15 17  1  0
 17 18  2  0
 18 19  1  0
 19 20  2  0
 20 21  1  0
 21 22  1  0
 22 23  1  0
 20 24  1  0
 24 25  2  0
 14  8  1  0
 25 17  1  0
 23 21  1  0
  1 26  1  0
  1 27  1  0
  1 28  1  0
  3 29  1  0
  3 30  1  0
  7 31  1  0
  7 32  1  0
  9 33  1  0
 10 34  1  0
 13 35  1  0
 14 36  1  0
 18 37  1  0
 19 38  1  0
 21 39  1  0
 22 40  1  0
 22 41  1  0
 23 42  1  0
 23 43  1  0
 24 44  1  0
M  CHG  1   6  -1
M  END
>  <UniqueID>  (75) 
75

>  <SMILES>  (75) 
CN(CC(=O)[N-]Cc1ccc(F)cc1)C(=O)c1ccc(C2CC2)cn1

>  <Energy>  (75) 
311.01786746749525

>  <Genealogy>  (75) 
CN(CC(=O)[N-]Cc1ccc(F)cc1)C(=O)c1ccc(C2CC2)cn1 (protonated)
CN(CC(=O)[N-]Cc1ccc(F)cc1)C(=O)c1ccc(C2CC2)cn1 (3D coordinates assigned)
CN(CC(=O)[N-]Cc1ccc(F)cc1)C(=O)c1ccc(C2CC2)cn1 (nonaromatic ring conformer: 311.01786746749525 kcal/mol)

>  <smiles>  (75) 
CN(CC(=O)NCc1ccc(F)cc1)C(=O)c1ccc(C2CC2)cn1

>  <score_type>  (75) 
oracle

>  <origin>  (75) 
adg

>  <m_score__min__energy>  (75) 
-10.19

>  <m_primary>  (75) 
energy

$$$$
75:0
     RDKit          3D

 57 60  0  0  0  0  0  0  0  0999 V2000
   55.4280   26.3530   46.0080 O   0  0  0  0  0  0  0  0  0  0  0  0
   56.2690   27.2540   45.7600 C   0  0  0  0  0  0  0  0  0  0  0  0
   57.5850   27.0360   45.9990 N   0  0  0  0  0  0  0  0  0  0  0  0
   58.5270   27.9840   45.7410 C   0  0  0  0  0  0  0  0  0  0  0  0
   59.9660   27.6360   46.0430 C   0  0  0  0  0  0  0  0  0  0  0  0
   60.2810   27.7740   47.5120 C   0  0  0  0  0  0  0  0  0  0  0  0
   60.7230   29.0010   48.0390 C   0  0  0  0  0  0  0  0  0  0  0  0
   61.0010   29.1240   49.4030 C   0  0  0  0  0  0  0  0  0  0  0  0
   60.8560   28.0200   50.2500 C   0  0  0  0  0  0  0  0  0  0  0  0
   61.1300   28.1460   51.6070 O   0  0  0  0  0  0  0  0  0  0  0  0
   60.4410   26.7910   49.7290 C   0  0  0  0  0  0  0  0  0  0  0  0
   60.1610   26.6650   48.3650 C   0  0  0  0  0  0  0  0  0  0  0  0
   58.1200   29.2380   45.2120 C   0  0  0  0  0  0  0  0  0  0  0  0
   59.0850   30.3770   44.9310 C   0  0  0  0  0  0  0  0  0  0  0  0
   58.5830   31.7240   45.4300 C   0  0  0  0  0  0  0  0  0  0  0  0
   58.2350   32.7390   44.5120 C   0  0  0  0  0  0  0  0  0  0  0  0
   57.6910   33.9450   44.9530 C   0  0  0  0  0  0  0  0  0  0  0  0
   57.4700   34.1590   46.3120 C   0  0  0  0  0  0  0  0  0  0  0  0
   57.7870   33.1630   47.2340 C   0  0  0  0  0  0  0  0  0  0  0  0
   58.3310   31.9410   46.8070 C   0  0  0  0  0  0  0  0  0  0  0  0
   58.6430   30.9430   47.7830 N   0  0  0  0  0  0  0  0  0  0  0  0
   58.5140   31.2880   49.4750 S   0  0  0  0  0  0  0  0  0  0  0  0
   58.1650   30.0360   50.2320 O   0  0  0  0  0  0  0  0  0  0  0  0
   57.4230   32.3010   49.6910 O   0  0  0  0  0  0  0  0  0  0  0  0
   60.0720   31.9280   50.0630 C   0  0  0  0  0  0  0  0  0  0  0  0
   60.3090   33.3470   49.5390 C   0  0  0  0  0  0  0  0  0  0  0  0
   61.4740   33.3830   48.5850 C   0  0  0  0  0  0  0  0  0  0  0  0
   61.2890   33.8040   47.2550 C   0  0  0  0  0  0  0  0  0  0  0  0
   62.3720   33.8440   46.3690 C   0  0  0  0  0  0  0  0  0  0  0  0
   63.6430   33.4660   46.8040 C   0  0  0  0  0  0  0  0  0  0  0  0
   63.8350   33.0460   48.1250 C   0  0  0  0  0  0  0  0  0  0  0  0
   62.7550   33.0010   49.0120 C   0  0  0  0  0  0  0  0  0  0  0  0
   56.7450   29.4280   44.9710 C   0  0  0  0  0  0  0  0  0  0  0  0
   56.3200   30.5170   44.4980 O   0  0  0  0  0  0  0  0  0  0  0  0
   55.8590   28.4390   45.2480 N   0  0  0  0  0  0  0  0  0  0  0  0
   60.1528   26.5966   45.7352 H   0  0  0  0  0  0  0  0  0  0  0  0
   60.6097   28.3350   45.4888 H   0  0  0  0  0  0  0  0  0  0  0  0
   60.8505   29.8680   47.3742 H   0  0  0  0  0  0  0  0  0  0  0  0
   61.3341   30.0897   49.8110 H   0  0  0  0  0  0  0  0  0  0  0  0
   60.3345   25.9210   50.3937 H   0  0  0  0  0  0  0  0  0  0  0  0
   59.8453   25.6929   47.9583 H   0  0  0  0  0  0  0  0  0  0  0  0
   60.0418   30.1550   45.4263 H   0  0  0  0  0  0  0  0  0  0  0  0
   59.1931   30.4523   43.8389 H   0  0  0  0  0  0  0  0  0  0  0  0
   58.3950   32.5764   43.4359 H   0  0  0  0  0  0  0  0  0  0  0  0
   57.4356   34.7298   44.2257 H   0  0  0  0  0  0  0  0  0  0  0  0
   57.0456   35.1134   46.6570 H   0  0  0  0  0  0  0  0  0  0  0  0
   57.6094   33.3358   48.3057 H   0  0  0  0  0  0  0  0  0  0  0  0
   58.7790   29.9500   47.4870 H   0  0  0  0  0  0  0  0  0  0  0  0
   60.0623   31.9465   51.1628 H   0  0  0  0  0  0  0  0  0  0  0  0
   60.8807   31.2776   49.6983 H   0  0  0  0  0  0  0  0  0  0  0  0
   59.4052   33.6929   49.0161 H   0  0  0  0  0  0  0  0  0  0  0  0
   60.5351   34.0025   50.3929 H   0  0  0  0  0  0  0  0  0  0  0  0
   60.2883   34.1032   46.9099 H   0  0  0  0  0  0  0  0  0  0  0  0
   62.2213   34.1733   45.3303 H   0  0  0  0  0  0  0  0  0  0  0  0
   64.4943   33.4982   46.1082 H   0  0  0  0  0  0  0  0  0  0  0  0
   64.8380   32.7505   48.4664 H   0  0  0  0  0  0  0  0  0  0  0  0
   62.9100   32.6651   50.0479 H   0  0  0  0  0  0  0  0  0  0  0  0
  1  2  2  0
  2  3  1  0
  3  4  1  0
  4  5  1  0
  5  6  1  0
  6  7  2  0
  7  8  1  0
  8  9  2  0
  9 10  1  0
  9 11  1  0
 11 12  2  0
  4 13  2  0
 13 14  1  0
 14 15  1  0
 15 16  2  0
 16 17  1  0
 17 18  2  0
 18 19  1  0
 19 20  2  0
 20 21  1  0
 21 22  1  0
 22 23  2  0
 22 24  2  0
 22 25  1  0
 25 26  1  0
 26 27  1  0
 27 28  2  0
 28 29  1  0
 29 30  2  0
 30 31  1  0
 31 32  2  0
 13 33  1  0
 33 34  2  0
 33 35  1  0
 35  2  1  0
 12  6  1  0
 20 15  1  0
 32 27  1  0
  5 36  1  0
  5 37  1  0
  7 38  1  0
  8 39  1  0
 11 40  1  0
 12 41  1  0
 14 42  1  0
 14 43  1  0
 16 44  1  0
 17 45  1  0
 18 46  1  0
 19 47  1  0
 21 48  1  0
 25 49  1  0
 25 50  1  0
 26 51  1  0
 26 52  1  0
 28 53  1  0
 29 54  1  0
 30 55  1  0
 31 56  1  0
 32 57  1  0
M  CHG  3   3  -1  10  -1  35  -1
M  END
>  <UniqueID>  (76) 
76

>  <SMILES>  (76) 
O=c1[n-]c(Cc2ccc([O-])cc2)c(Cc2ccccc2NS(=O)(=O)CCc2ccccc2)c(=O)[n-]1

>  <Energy>  (76) 
61.32835874272447

>  <Genealogy>  (76) 
O=c1[n-]c(Cc2ccc([O-])cc2)c(Cc2ccccc2NS(=O)(=O)CCc2ccccc2)c(=O)[n-]1 (protonated)
O=c1[n-]c(Cc2ccc([O-])cc2)c(Cc2ccccc2NS(=O)(=O)CCc2ccccc2)c(=O)[n-]1 (3D coordinates assigned)
O=c1[n-]c(Cc2ccc([O-])cc2)c(Cc2ccccc2NS(=O)(=O)CCc2ccccc2)c(=O)[n-]1 (optimized conformer: 61.32835874272447 kcal/mol)

>  <smiles>  (76) 
O=c1[nH]c(Cc2ccc(O)cc2)c(Cc2ccccc2NS(=O)(=O)CCc2ccccc2)c(=O)[nH]1

>  <score_type>  (76) 
oracle

>  <origin>  (76) 
adg

>  <m_score__min__energy>  (76) 
-15.16

>  <m_primary>  (76) 
energy

$$$$
76:0
     RDKit          3D

 65 68  0  0  0  0  0  0  0  0999 V2000
   56.1460   23.8300   47.0890 C   0  0  0  0  0  0  0  0  0  0  0  0
   56.2060   25.1810   46.4600 C   0  0  0  0  0  0  0  0  0  0  0  0
   57.3030   25.7340   45.8390 C   0  0  0  0  0  0  0  0  0  0  0  0
   56.8400   26.9440   45.3710 C   0  0  0  0  0  0  0  0  0  0  0  0
   57.6560   27.9750   44.6340 C   0  0  0  0  0  0  0  0  0  0  0  0
   57.5520   29.3480   45.1920 N   0  0  0  0  0  0  0  0  0  0  0  0
   56.8810   30.3050   44.2830 C   0  0  0  0  0  0  0  0  0  0  0  0
   57.3960   31.7050   44.4930 C   0  0  0  0  0  0  0  0  0  0  0  0
   58.2940   32.2680   43.5730 C   0  0  0  0  0  0  0  0  0  0  0  0
   58.7960   33.5560   43.7740 C   0  0  0  0  0  0  0  0  0  0  0  0
   58.4030   34.2930   44.8950 C   0  0  0  0  0  0  0  0  0  0  0  0
   57.5080   33.7410   45.8150 C   0  0  0  0  0  0  0  0  0  0  0  0
   57.0060   32.4510   45.6170 C   0  0  0  0  0  0  0  0  0  0  0  0
   58.8410   29.8900   45.6740 C   0  0  0  0  0  0  0  0  0  0  0  0
   59.3250   29.1980   46.9340 C   0  0  0  0  0  0  0  0  0  0  0  0
   59.6040   27.8230   46.8920 C   0  0  0  0  0  0  0  0  0  0  0  0
   60.1340   27.1730   48.0060 C   0  0  0  0  0  0  0  0  0  0  0  0
   60.4070   27.9060   49.1630 C   0  0  0  0  0  0  0  0  0  0  0  0
   60.9920   27.2360   50.3650 C   0  0  0  0  0  0  0  0  0  0  0  0
   60.1460   29.2390   49.1910 N   0  0  0  0  0  0  0  0  0  0  0  0
   59.6160   29.9030   48.1280 C   0  0  0  0  0  0  0  0  0  0  0  0
   59.3990   31.3510   48.2670 C   0  0  0  0  0  0  0  0  0  0  0  0
   58.2350   31.8120   48.1470 O   0  0  0  0  0  0  0  0  0  0  0  0
   60.5030   32.2290   48.5760 N   0  0  0  0  0  0  0  0  0  0  0  0
   60.3090   33.4890   49.3190 C   0  0  2  0  0  0  0  0  0  0  0  0
   59.2950   33.3680   50.4660 C   0  0  0  0  0  0  0  0  0  0  0  0
   59.9630   34.6270   48.3430 C   0  0  0  0  0  0  0  0  0  0  0  0
   60.7920   34.4610   46.7040 S   0  0  0  0  0  0  0  0  0  0  0  0
   62.2190   33.4580   47.2560 C   0  0  0  0  0  0  0  0  0  0  0  0
   61.7470   32.0890   47.7950 C   0  0  1  0  0  0  0  0  0  0  0  0
   62.8350   31.4270   48.6430 C   0  0  0  0  0  0  0  0  0  0  0  0
   55.5430   27.0950   45.7030 N   0  0  0  0  0  0  0  0  0  0  0  0
   55.1520   26.0120   46.3590 N   0  0  0  0  0  0  0  0  0  0  0  0
   56.1507   23.9348   48.1840 H   0  0  0  0  0  0  0  0  0  0  0  0
   55.2243   23.3192   46.7735 H   0  0  0  0  0  0  0  0  0  0  0  0
   57.0188   23.2395   46.7735 H   0  0  0  0  0  0  0  0  0  0  0  0
   58.3128   25.3092   45.7397 H   0  0  0  0  0  0  0  0  0  0  0  0
   58.7117   27.6680   44.6683 H   0  0  0  0  0  0  0  0  0  0  0  0
   57.2576   28.0196   43.6097 H   0  0  0  0  0  0  0  0  0  0  0  0
   57.0707   30.0049   43.2419 H   0  0  0  0  0  0  0  0  0  0  0  0
   55.8023   30.2937   44.4984 H   0  0  0  0  0  0  0  0  0  0  0  0
   58.6042   31.6919   42.6888 H   0  0  0  0  0  0  0  0  0  0  0  0
   59.5009   33.9905   43.0499 H   0  0  0  0  0  0  0  0  0  0  0  0
   58.7983   35.3073   45.0527 H   0  0  0  0  0  0  0  0  0  0  0  0
   57.1979   34.3219   46.6961 H   0  0  0  0  0  0  0  0  0  0  0  0
   56.3030   32.0190   46.3444 H   0  0  0  0  0  0  0  0  0  0  0  0
   59.5967   29.7574   44.8858 H   0  0  0  0  0  0  0  0  0  0  0  0
   58.6893   30.9530   45.9127 H   0  0  0  0  0  0  0  0  0  0  0  0
   59.4029   27.2535   45.9727 H   0  0  0  0  0  0  0  0  0  0  0  0
   60.3354   26.0921   47.9738 H   0  0  0  0  0  0  0  0  0  0  0  0
   60.5871   27.6997   51.2766 H   0  0  0  0  0  0  0  0  0  0  0  0
   60.7331   26.1670   50.3513 H   0  0  0  0  0  0  0  0  0  0  0  0
   62.0862   27.3484   50.3513 H   0  0  0  0  0  0  0  0  0  0  0  0
   61.2611   33.7329   49.8129 H   0  0  0  0  0  0  0  0  0  0  0  0
   59.8220   33.4309   51.4295 H   0  0  0  0  0  0  0  0  0  0  0  0
   58.5619   34.1850   50.3950 H   0  0  0  0  0  0  0  0  0  0  0  0
   58.7748   32.4014   50.3950 H   0  0  0  0  0  0  0  0  0  0  0  0
   58.8745   34.6320   48.1846 H   0  0  0  0  0  0  0  0  0  0  0  0
   60.3208   35.5637   48.7953 H   0  0  0  0  0  0  0  0  0  0  0  0
   62.8979   33.2969   46.4056 H   0  0  0  0  0  0  0  0  0  0  0  0
   62.7391   33.9958   48.0623 H   0  0  0  0  0  0  0  0  0  0  0  0
   61.5425   31.4426   46.9288 H   0  0  0  0  0  0  0  0  0  0  0  0
   62.6047   31.5671   49.7095 H   0  0  0  0  0  0  0  0  0  0  0  0
   62.8744   30.3517   48.4146 H   0  0  0  0  0  0  0  0  0  0  0  0
   63.8081   31.8862   48.4146 H   0  0  0  0  0  0  0  0  0  0  0  0
  1  2  1  0
  2  3  1  0
  3  4  2  0
  4  5  1  0
  5  6  1  0
  6  7  1  0
  7  8  1  0
  8  9  2  0
  9 10  1  0
 10 11  2  0
 11 12  1  0
 12 13  2  0
  6 14  1  0
 14 15  1  0
 15 16  2  0
 16 17  1  0
 17 18  2  0
 18 19  1  0
 18 20  1  0
 20 21  2  0
 21 22  1  0
 22 23  2  0
 22 24  1  0
 24 25  1  0
 25 26  1  0
 25 27  1  0
 27 28  1  0
 28 29  1  0
 29 30  1  0
 30 31  1  0
  4 32  1  0
 32 33  1  0
 33  2  2  0
 13  8  1  0
 21 15  1  0
 30 24  1  0
  1 34  1  0
  1 35  1  0
  1 36  1  0
  3 37  1  0
  5 38  1  0
  5 39  1  0
  7 40  1  0
  7 41  1  0
  9 42  1  0
 10 43  1  0
 11 44  1  0
 12 45  1  0
 13 46  1  0
 14 47  1  0
 14 48  1  0
 16 49  1  0
 17 50  1  0
 19 51  1  0
 19 52  1  0
 19 53  1  0
 25 54  1  1
 26 55  1  0
 26 56  1  0
 26 57  1  0
 27 58  1  0
 27 59  1  0
 29 60  1  0
 29 61  1  0
 30 62  1  6
 31 63  1  0
 31 64  1  0
 31 65  1  0
M  CHG  1  32  -1
M  END
>  <UniqueID>  (77) 
77

>  <SMILES>  (77) 
Cc1cc(CN(Cc2ccccc2)Cc2ccc(C)nc2C(=O)N2[C@H](C)CSC[C@H]2C)[n-]n1

>  <Energy>  (77) 
106.50066921838675

>  <Genealogy>  (77) 
Cc1cc(CN(Cc2ccccc2)Cc2ccc(C)nc2C(=O)N2C(C)CSCC2C)[n-]n1 (protonated)
Cc1cc(CN(Cc2ccccc2)Cc2ccc(C)nc2C(=O)N2[C@H](C)CSC[C@H]2C)[n-]n1 (chirality)
Cc1cc(CN(Cc2ccccc2)Cc2ccc(C)nc2C(=O)N2[C@H](C)CSC[C@H]2C)[n-]n1 (3D coordinates assigned)
Cc1cc(CN(Cc2ccccc2)Cc2ccc(C)nc2C(=O)N2[C@H](C)CSC[C@H]2C)[n-]n1 (nonaromatic ring conformer: 106.50066921838675 kcal/mol)

>  <smiles>  (77) 
Cc1cc(CN(Cc2ccccc2)Cc2ccc(C)nc2C(=O)N2C(C)CSCC2C)[nH]n1

>  <score_type>  (77) 
oracle

>  <origin>  (77) 
adg

>  <m_score__min__energy>  (77) 
-11.92

>  <m_primary>  (77) 
energy

$$$$
77:0
     RDKit          3D

 61 64  0  0  0  0  0  0  0  0999 V2000
   63.1240   33.6330   46.7950 C   0  0  0  0  0  0  0  0  0  0  0  0
   62.5100   33.8140   47.9740 C   0  0  0  0  0  0  0  0  0  0  0  0
   63.2270   33.4870   49.0780 N   0  0  0  0  0  0  0  0  0  0  0  0
   62.6810   33.4150   50.3130 C   0  0  0  0  0  0  0  0  0  0  0  0
   63.4230   33.1150   51.2870 O   0  0  0  0  0  0  0  0  0  0  0  0
   61.3430   33.6440   50.4900 N   0  0  0  0  0  0  0  0  0  0  0  0
   60.7240   33.4500   51.8190 C   0  0  0  0  0  0  0  0  0  0  0  0
   59.5450   32.5160   51.7170 C   0  0  0  0  0  0  0  0  0  0  0  0
   58.3110   32.8570   52.2990 C   0  0  0  0  0  0  0  0  0  0  0  0
   57.2080   32.0090   52.1670 C   0  0  0  0  0  0  0  0  0  0  0  0
   57.3260   30.8150   51.4480 C   0  0  0  0  0  0  0  0  0  0  0  0
   58.5470   30.4700   50.8600 C   0  0  0  0  0  0  0  0  0  0  0  0
   59.6530   31.3160   50.9930 C   0  0  0  0  0  0  0  0  0  0  0  0
   60.5700   34.0220   49.4200 C   0  0  0  0  0  0  0  0  0  0  0  0
   59.3380   34.2530   49.5980 O   0  0  0  0  0  0  0  0  0  0  0  0
   61.1400   34.1950   48.1270 C   0  0  0  0  0  0  0  0  0  0  0  0
   60.3610   34.7210   47.1360 C   0  0  0  0  0  0  0  0  0  0  0  0
   59.4050   33.9870   46.2800 C   0  0  0  0  0  0  0  0  0  0  0  0
   58.5030   33.0620   46.8280 C   0  0  0  0  0  0  0  0  0  0  0  0
   57.6150   32.3690   45.9990 C   0  0  0  0  0  0  0  0  0  0  0  0
   57.6290   32.5660   44.6110 C   0  0  0  0  0  0  0  0  0  0  0  0
   56.6930   31.8670   43.8300 O   0  0  0  0  0  0  0  0  0  0  0  0
   56.7570   30.4800   43.4980 C   0  0  0  0  0  0  0  0  0  0  0  0
   56.2560   29.6270   44.6330 C   0  0  0  0  0  0  0  0  0  0  0  0
   55.1470   29.0390   44.5250 O   0  0  0  0  0  0  0  0  0  0  0  0
   57.0270   29.4370   45.8290 N   0  0  0  0  0  0  0  0  0  0  0  0
   57.9390   28.3550   46.0720 C   0  0  0  0  0  0  0  0  0  0  0  0
   57.4650   27.0340   46.1740 C   0  0  0  0  0  0  0  0  0  0  0  0
   58.3550   25.9740   46.3600 C   0  0  0  0  0  0  0  0  0  0  0  0
   59.7270   26.2180   46.4350 C   0  0  0  0  0  0  0  0  0  0  0  0
   60.2140   27.5210   46.3180 C   0  0  0  0  0  0  0  0  0  0  0  0
   59.3300   28.6000   46.1370 C   0  0  0  0  0  0  0  0  0  0  0  0
   59.8870   29.9960   45.9860 C   0  0  0  0  0  0  0  0  0  0  0  0
   60.6680   30.4070   47.2300 C   0  0  0  0  0  0  0  0  0  0  0  0
   58.5700   33.4600   44.0600 C   0  0  0  0  0  0  0  0  0  0  0  0
   59.4570   34.1540   44.8900 C   0  0  0  0  0  0  0  0  0  0  0  0
   62.6006   33.8778   45.8590 H   0  0  0  0  0  0  0  0  0  0  0  0
   64.1509   33.2398   46.7643 H   0  0  0  0  0  0  0  0  0  0  0  0
   61.4680   33.0212   52.5065 H   0  0  0  0  0  0  0  0  0  0  0  0
   60.3774   34.4230   52.1972 H   0  0  0  0  0  0  0  0  0  0  0  0
   58.2133   33.7971   52.8617 H   0  0  0  0  0  0  0  0  0  0  0  0
   56.2471   32.2805   52.6285 H   0  0  0  0  0  0  0  0  0  0  0  0
   56.4580   30.1471   51.3451 H   0  0  0  0  0  0  0  0  0  0  0  0
   58.6378   29.5322   50.2922 H   0  0  0  0  0  0  0  0  0  0  0  0
   60.6116   31.0410   50.5289 H   0  0  0  0  0  0  0  0  0  0  0  0
   60.4546   35.8022   46.9563 H   0  0  0  0  0  0  0  0  0  0  0  0
   58.4944   32.8814   47.9130 H   0  0  0  0  0  0  0  0  0  0  0  0
   56.8978   31.6616   46.4408 H   0  0  0  0  0  0  0  0  0  0  0  0
   56.1370   30.2946   42.6085 H   0  0  0  0  0  0  0  0  0  0  0  0
   57.8064   30.2164   43.2998 H   0  0  0  0  0  0  0  0  0  0  0  0
   56.3853   26.8348   46.1067 H   0  0  0  0  0  0  0  0  0  0  0  0
   57.9742   24.9457   46.4475 H   0  0  0  0  0  0  0  0  0  0  0  0
   60.4259   25.3822   46.5866 H   0  0  0  0  0  0  0  0  0  0  0  0
   61.2973   27.7053   46.3677 H   0  0  0  0  0  0  0  0  0  0  0  0
   60.5572   30.0242   45.1142 H   0  0  0  0  0  0  0  0  0  0  0  0
   59.0496   30.6960   45.8491 H   0  0  0  0  0  0  0  0  0  0  0  0
   60.1072   30.1119   48.1291 H   0  0  0  0  0  0  0  0  0  0  0  0
   61.6483   29.9080   47.2290 H   0  0  0  0  0  0  0  0  0  0  0  0
   60.8117   31.4976   47.2290 H   0  0  0  0  0  0  0  0  0  0  0  0
   58.6069   33.6126   42.9713 H   0  0  0  0  0  0  0  0  0  0  0  0
   60.1997   34.8349   44.4486 H   0  0  0  0  0  0  0  0  0  0  0  0
  1  2  2  0
  2  3  1  0
  3  4  1  0
  4  5  2  0
  4  6  1  0
  6  7  1  0
  7  8  1  0
  8  9  2  0
  9 10  1  0
 10 11  2  0
 11 12  1  0
 12 13  2  0
  6 14  1  0
 14 15  2  0
 14 16  1  0
 16 17  2  3
 17 18  1  0
 18 19  2  0
 19 20  1  0
 20 21  2  0
 21 22  1  0
 22 23  1  0
 23 24  1  0
 24 25  2  0
 24 26  1  0
 26 27  1  0
 27 28  2  0
 28 29  1  0
 29 30  2  0
 30 31  1  0
 31 32  2  0
 32 33  1  0
 33 34  1  0
 21 35  1  0
 35 36  2  0
 16  2  1  0
 36 18  1  0
 13  8  1  0
 32 27  1  0
  1 37  1  0
  1 38  1  0
  7 39  1  0
  7 40  1  0
  9 41  1  0
 10 42  1  0
 11 43  1  0
 12 44  1  0
 13 45  1  0
 17 46  1  0
 19 47  1  0
 20 48  1  0
 23 49  1  0
 23 50  1  0
 28 51  1  0
 29 52  1  0
 30 53  1  0
 31 54  1  0
 33 55  1  0
 33 56  1  0
 34 57  1  0
 34 58  1  0
 34 59  1  0
 35 60  1  0
 36 61  1  0
M  CHG  2   3  -1  26  -1
M  END
>  <UniqueID>  (78) 
78

>  <SMILES>  (78) 
C=c1[n-]c(=O)n(Cc2ccccc2)c(=O)c1=Cc1ccc(OCC(=O)[N-]c2ccccc2CC)cc1

>  <Energy>  (78) 
95.63827948391241

>  <Genealogy>  (78) 
C=c1[n-]c(=O)n(Cc2ccccc2)c(=O)c1=Cc1ccc(OCC(=O)[N-]c2ccccc2CC)cc1 (protonated)
C=c1[n-]c(=O)n(Cc2ccccc2)c(=O)c1=Cc1ccc(OCC(=O)[N-]c2ccccc2CC)cc1 (3D coordinates assigned)
C=c1[n-]c(=O)n(Cc2ccccc2)c(=O)c1=Cc1ccc(OCC(=O)[N-]c2ccccc2CC)cc1 (optimized conformer: 95.63827948391241 kcal/mol)

>  <smiles>  (78) 
C=c1[nH]c(=O)n(Cc2ccccc2)c(=O)c1=Cc1ccc(OCC(=O)Nc2ccccc2CC)cc1

>  <score_type>  (78) 
oracle

>  <origin>  (78) 
adg

>  <m_score__min__energy>  (78) 
-12.24

>  <m_primary>  (78) 
energy

$$$$
78:0
     RDKit          3D

 50 52  0  0  0  0  0  0  0  0999 V2000
   63.2660   33.5020   53.7470 C   0  0  0  0  0  0  0  0  0  0  0  0
   64.4120   34.3870   53.9420 N   0  0  0  0  0  0  0  0  0  0  0  0
   64.9180   35.0370   52.4120 S   0  0  0  0  0  0  0  0  0  0  0  0
   64.4640   36.4660   52.2930 O   0  0  0  0  0  0  0  0  0  0  0  0
   66.4190   35.0080   52.3360 O   0  0  0  0  0  0  0  0  0  0  0  0
   64.2580   34.0790   51.0870 C   0  0  0  0  0  0  0  0  0  0  0  0
   64.9450   32.9530   50.6120 C   0  0  0  0  0  0  0  0  0  0  0  0
   64.4250   32.2080   49.5500 C   0  0  0  0  0  0  0  0  0  0  0  0
   63.2170   32.5870   48.9410 C   0  0  0  0  0  0  0  0  0  0  0  0
   62.6550   31.7950   47.8250 C   0  0  0  0  0  0  0  0  0  0  0  0
   63.2650   31.7720   46.7210 O   0  0  0  0  0  0  0  0  0  0  0  0
   61.4390   31.0410   47.9790 N   0  0  0  0  0  0  0  0  0  0  0  0
   61.2440   30.2120   49.1810 C   0  0  0  0  0  0  0  0  0  0  0  0
   60.1240   29.1800   48.9850 C   0  0  0  0  0  0  0  0  0  0  0  0
   60.2710   28.4790   47.6200 C   0  0  0  0  0  0  0  0  0  0  0  0
   59.2050   27.4270   47.4310 C   0  0  0  0  0  0  0  0  0  0  0  0
   59.3130   26.2140   47.9250 O   0  0  0  0  0  0  0  0  0  0  0  0
   58.2690   25.4890   47.6450 N   0  0  0  0  0  0  0  0  0  0  0  0
   57.4260   26.2580   46.9320 C   0  0  0  0  0  0  0  0  0  0  0  0
   56.1330   25.7670   46.4210 C   0  0  0  0  0  0  0  0  0  0  0  0
   55.1480   26.7000   45.9870 N   0  0  0  0  0  0  0  0  0  0  0  0
   55.8870   24.5330   46.3650 O   0  0  0  0  0  0  0  0  0  0  0  0
   57.9820   27.5200   46.7750 C   0  0  0  0  0  0  0  0  0  0  0  0
   57.4110   28.6790   46.0080 C   0  0  0  0  0  0  0  0  0  0  0  0
   57.0590   28.2560   44.7210 O   0  0  0  0  0  0  0  0  0  0  0  0
   60.3590   29.4650   46.4210 C   0  0  0  0  0  0  0  0  0  0  0  0
   60.4970   30.9290   46.8570 C   0  0  0  0  0  0  0  0  0  0  0  0
   62.5250   33.7070   49.4300 C   0  0  0  0  0  0  0  0  0  0  0  0
   63.0470   34.4520   50.4920 C   0  0  0  0  0  0  0  0  0  0  0  0
   62.8688   33.1953   54.7259 H   0  0  0  0  0  0  0  0  0  0  0  0
   62.4842   34.0330   53.1842 H   0  0  0  0  0  0  0  0  0  0  0  0
   63.5821   32.6113   53.1842 H   0  0  0  0  0  0  0  0  0  0  0  0
   65.2030   33.8090   54.3070 H   0  0  0  0  0  0  0  0  0  0  0  0
   65.8964   32.6549   51.0767 H   0  0  0  0  0  0  0  0  0  0  0  0
   64.9645   31.3200   49.1890 H   0  0  0  0  0  0  0  0  0  0  0  0
   62.1817   29.6820   49.4042 H   0  0  0  0  0  0  0  0  0  0  0  0
   60.9577   30.8745   50.0111 H   0  0  0  0  0  0  0  0  0  0  0  0
   60.1797   28.4283   49.7862 H   0  0  0  0  0  0  0  0  0  0  0  0
   59.1534   29.6967   49.0177 H   0  0  0  0  0  0  0  0  0  0  0  0
   61.2444   27.9668   47.6342 H   0  0  0  0  0  0  0  0  0  0  0  0
   55.2180   27.1580   45.0520 H   0  0  0  0  0  0  0  0  0  0  0  0
   56.5182   29.0583   46.5267 H   0  0  0  0  0  0  0  0  0  0  0  0
   58.1618   29.4800   45.9392 H   0  0  0  0  0  0  0  0  0  0  0  0
   56.4850   27.4560   44.8400 H   0  0  0  0  0  0  0  0  0  0  0  0
   61.2340   29.1972   45.8106 H   0  0  0  0  0  0  0  0  0  0  0  0
   59.4203   29.3779   45.8542 H   0  0  0  0  0  0  0  0  0  0  0  0
   60.8680   31.5260   46.0109 H   0  0  0  0  0  0  0  0  0  0  0  0
   59.5128   31.3007   47.1781 H   0  0  0  0  0  0  0  0  0  0  0  0
   61.5672   33.9998   48.9751 H   0  0  0  0  0  0  0  0  0  0  0  0
   62.5040   35.3345   50.8613 H   0  0  0  0  0  0  0  0  0  0  0  0
  1  2  1  0
  2  3  1  0
  3  4  2  0
  3  5  2  0
  3  6  1  0
  6  7  2  0
  7  8  1  0
  8  9  2  0
  9 10  1  0
 10 11  2  0
 10 12  1  0
 12 13  1  0
 13 14  1  0
 14 15  1  0
 15 16  1  0
 16 17  1  0
 17 18  1  0
 18 19  2  0
 19 20  1  0
 20 21  1  0
 20 22  2  0
 19 23  1  0
 23 24  1  0
 24 25  1  0
 15 26  1  0
 26 27  1  0
  9 28  1  0
 28 29  2  0
 29  6  1  0
 27 12  1  0
 23 16  2  0
  1 30  1  0
  1 31  1  0
  1 32  1  0
  2 33  1  0
  7 34  1  0
  8 35  1  0
 13 36  1  0
 13 37  1  0
 14 38  1  0
 14 39  1  0
 15 40  1  0
 21 41  1  0
 24 42  1  0
 24 43  1  0
 25 44  1  0
 26 45  1  0
 26 46  1  0
 27 47  1  0
 27 48  1  0
 28 49  1  0
 29 50  1  0
M  CHG  1  21  -1
M  END
>  <UniqueID>  (79) 
79

>  <SMILES>  (79) 
CNS(=O)(=O)c1ccc(C(=O)N2CCC(c3onc(C([NH-])=O)c3CO)CC2)cc1

>  <Energy>  (79) 
85.53845370600654

>  <Genealogy>  (79) 
CNS(=O)(=O)c1ccc(C(=O)N2CCC(c3onc(C([NH-])=O)c3CO)CC2)cc1 (protonated)
CNS(=O)(=O)c1ccc(C(=O)N2CCC(c3onc(C([NH-])=O)c3CO)CC2)cc1 (3D coordinates assigned)
CNS(=O)(=O)c1ccc(C(=O)N2CCC(c3onc(C([NH-])=O)c3CO)CC2)cc1 (nonaromatic ring conformer: 85.53845370600654 kcal/mol)

>  <smiles>  (79) 
CNS(=O)(=O)c1ccc(C(=O)N2CCC(c3onc(C(N)=O)c3CO)CC2)cc1

>  <score_type>  (79) 
oracle

>  <origin>  (79) 
adg

>  <m_score__min__energy>  (79) 
-11.23

>  <m_primary>  (79) 
energy

$$$$
79:0
     RDKit          3D

 38 39  0  0  0  0  0  0  0  0999 V2000
   57.1240   31.0270   42.8120 O   0  0  0  0  0  0  0  0  0  0  0  0
   56.5930   30.8190   43.9360 C   0  0  0  0  0  0  0  0  0  0  0  0
   55.5000   29.8070   44.0680 C   0  0  0  0  0  0  0  0  0  0  0  0
   55.7760   28.8820   45.1640 N   0  0  0  0  0  0  0  0  0  0  0  0
   57.0180   28.2070   45.4060 C   0  0  0  0  0  0  0  0  0  0  0  0
   57.7780   28.6450   46.3110 O   0  0  0  0  0  0  0  0  0  0  0  0
   57.4290   26.9680   44.6480 C   0  0  0  0  0  0  0  0  0  0  0  0
   57.1860   25.6600   45.3840 C   0  0  0  0  0  0  0  0  0  0  0  0
   58.2270   24.7350   45.6260 C   0  0  0  0  0  0  0  0  0  0  0  0
   57.9780   23.5410   46.3080 C   0  0  0  0  0  0  0  0  0  0  0  0
   56.6920   23.2430   46.7520 C   0  0  0  0  0  0  0  0  0  0  0  0
   55.6500   24.1380   46.5160 C   0  0  0  0  0  0  0  0  0  0  0  0
   55.8820   25.3430   45.8430 C   0  0  0  0  0  0  0  0  0  0  0  0
   54.7970   26.2020   45.6490 O   0  0  0  0  0  0  0  0  0  0  0  0
   57.0070   31.5670   45.0820 N   0  0  0  0  0  0  0  0  0  0  0  0
   57.0320   33.0220   45.1100 C   0  0  0  0  0  0  0  0  0  0  0  0
   58.0710   33.4830   46.0900 C   0  0  0  0  0  0  0  0  0  0  0  0
   58.9560   34.5220   45.7580 C   0  0  0  0  0  0  0  0  0  0  0  0
   59.9450   34.9220   46.6620 C   0  0  0  0  0  0  0  0  0  0  0  0
   60.0640   34.2810   47.8990 C   0  0  0  0  0  0  0  0  0  0  0  0
   61.0250   34.6690   48.7740 F   0  0  0  0  0  0  0  0  0  0  0  0
   59.1950   33.2370   48.2310 C   0  0  0  0  0  0  0  0  0  0  0  0
   58.2050   32.8360   47.3300 C   0  0  0  0  0  0  0  0  0  0  0  0
   54.5504   30.3261   44.2652 H   0  0  0  0  0  0  0  0  0  0  0  0
   55.4369   29.2335   43.1314 H   0  0  0  0  0  0  0  0  0  0  0  0
   56.8631   26.9403   43.7051 H   0  0  0  0  0  0  0  0  0  0  0  0
   58.5164   27.0423   44.4997 H   0  0  0  0  0  0  0  0  0  0  0  0
   59.2449   24.9576   45.2734 H   0  0  0  0  0  0  0  0  0  0  0  0
   58.8001   22.8344   46.4947 H   0  0  0  0  0  0  0  0  0  0  0  0
   56.4989   22.3022   47.2884 H   0  0  0  0  0  0  0  0  0  0  0  0
   54.6347   23.8948   46.8623 H   0  0  0  0  0  0  0  0  0  0  0  0
   54.7700   27.1530   45.9910 H   0  0  0  0  0  0  0  0  0  0  0  0
   57.2770   33.4044   44.1081 H   0  0  0  0  0  0  0  0  0  0  0  0
   56.0453   33.4010   45.4145 H   0  0  0  0  0  0  0  0  0  0  0  0
   58.8707   35.0232   44.7826 H   0  0  0  0  0  0  0  0  0  0  0  0
   60.6300   35.7417   46.3998 H   0  0  0  0  0  0  0  0  0  0  0  0
   59.2908   32.7307   49.2028 H   0  0  0  0  0  0  0  0  0  0  0  0
   57.5276   32.0101   47.5927 H   0  0  0  0  0  0  0  0  0  0  0  0
  1  2  2  0
  2  3  1  0
  3  4  1  0
  4  5  1  0
  5  6  2  0
  5  7  1  0
  7  8  1  0
  8  9  2  0
  9 10  1  0
 10 11  2  0
 11 12  1  0
 12 13  2  0
 13 14  1  0
  2 15  1  0
 15 16  1  0
 16 17  1  0
 17 18  2  0
 18 19  1  0
 19 20  2  0
 20 21  1  0
 20 22  1  0
 22 23  2  0
 13  8  1  0
 23 17  1  0
  3 24  1  0
  3 25  1  0
  7 26  1  0
  7 27  1  0
  9 28  1  0
 10 29  1  0
 11 30  1  0
 12 31  1  0
 14 32  1  0
 16 33  1  0
 16 34  1  0
 18 35  1  0
 19 36  1  0
 22 37  1  0
 23 38  1  0
M  CHG  2   4  -1  15  -1
M  END
>  <UniqueID>  (80) 
80

>  <SMILES>  (80) 
O=C(C[N-]C(=O)Cc1ccccc1O)[N-]Cc1ccc(F)cc1

>  <Energy>  (80) 
33.01609698747843

>  <Genealogy>  (80) 
O=C(C[N-]C(=O)Cc1ccccc1O)[N-]Cc1ccc(F)cc1 (protonated)
O=C(C[N-]C(=O)Cc1ccccc1O)[N-]Cc1ccc(F)cc1 (3D coordinates assigned)
O=C(C[N-]C(=O)Cc1ccccc1O)[N-]Cc1ccc(F)cc1 (optimized conformer: 33.01609698747843 kcal/mol)

>  <smiles>  (80) 
O=C(CNC(=O)Cc1ccccc1O)NCc1ccc(F)cc1

>  <score_type>  (80) 
oracle

>  <origin>  (80) 
adg

>  <m_score__min__energy>  (80) 
-11.48

>  <m_primary>  (80) 
energy

$$$$
80:0
     RDKit          3D

 64 67  0  0  0  0  0  0  0  0999 V2000
   58.8720   25.6650   44.9330 O   0  0  0  0  0  0  0  0  0  0  0  0
   58.4640   26.4440   45.8340 C   0  0  0  0  0  0  0  0  0  0  0  0
   58.3210   27.9160   45.5520 C   0  0  0  0  0  0  0  0  0  0  0  0
   57.1600   28.1630   44.6980 N   0  0  0  0  0  0  0  0  0  0  0  0
   56.4260   29.3930   44.6620 C   0  0  0  0  0  0  0  0  0  0  0  0
   55.1880   29.3640   44.8940 O   0  0  0  0  0  0  0  0  0  0  0  0
   57.0580   30.6870   44.3280 C   0  0  0  0  0  0  0  0  0  0  0  0
   57.2190   31.1090   43.0000 C   0  0  0  0  0  0  0  0  0  0  0  0
   57.7880   32.3570   42.7420 C   0  0  0  0  0  0  0  0  0  0  0  0
   58.1540   33.1920   43.7990 C   0  0  0  0  0  0  0  0  0  0  0  0
   57.9390   32.7650   45.1170 C   0  0  0  0  0  0  0  0  0  0  0  0
   58.2500   33.6360   46.2670 C   0  0  0  0  0  0  0  0  0  0  0  0
   57.4010   33.7960   47.1840 O   0  0  0  0  0  0  0  0  0  0  0  0
   59.5540   34.2290   46.3590 N   0  0  0  0  0  0  0  0  0  0  0  0
   60.7340   33.6970   46.9860 C   0  0  0  0  0  0  0  0  0  0  0  0
   61.9620   33.8660   46.3330 C   0  0  0  0  0  0  0  0  0  0  0  0
   63.1420   33.3890   46.9060 C   0  0  0  0  0  0  0  0  0  0  0  0
   63.1060   32.7360   48.1410 C   0  0  0  0  0  0  0  0  0  0  0  0
   61.8870   32.5550   48.8090 C   0  0  0  0  0  0  0  0  0  0  0  0
   61.8460   31.7220   50.3640 S   0  0  0  0  0  0  0  0  0  0  0  0
   61.4180   32.6980   51.4240 O   0  0  0  0  0  0  0  0  0  0  0  0
   63.2410   31.2720   50.6960 O   0  0  0  0  0  0  0  0  0  0  0  0
   60.7930   30.3210   50.3840 N   0  0  0  0  0  0  0  0  0  0  0  0
   61.0800   29.3310   49.3260 C   0  0  0  0  0  0  0  0  0  0  0  0
   60.3500   29.6150   48.0000 C   0  0  0  0  0  0  0  0  0  0  0  0
   58.8610   29.8600   48.2250 C   0  0  0  0  0  0  0  0  0  0  0  0
   58.6600   30.9790   49.2420 C   0  0  0  0  0  0  0  0  0  0  0  0
   59.3600   30.6320   50.5600 C   0  0  0  0  0  0  0  0  0  0  0  0
   60.7070   33.0650   48.2450 C   0  0  0  0  0  0  0  0  0  0  0  0
   57.4040   31.5320   45.3400 N   0  0  0  0  0  0  0  0  0  0  0  0
   58.1090   25.8930   47.1080 N   0  0  0  0  0  0  0  0  0  0  0  0
   56.7490   25.5340   47.4940 C   0  0  0  0  0  0  0  0  0  0  0  0
   56.1370   24.6710   46.4260 C   0  0  0  0  0  0  0  0  0  0  0  0
   56.7380   23.4450   46.0900 C   0  0  0  0  0  0  0  0  0  0  0  0
   56.1910   22.6430   45.0870 C   0  0  0  0  0  0  0  0  0  0  0  0
   55.0490   23.0600   44.4010 C   0  0  0  0  0  0  0  0  0  0  0  0
   54.4520   24.2850   44.7140 C   0  0  0  0  0  0  0  0  0  0  0  0
   54.9970   25.0950   45.7150 C   0  0  0  0  0  0  0  0  0  0  0  0
   54.4040   26.3220   45.9940 O   0  0  0  0  0  0  0  0  0  0  0  0
   58.1932   28.4559   46.5018 H   0  0  0  0  0  0  0  0  0  0  0  0
   59.2252   28.2687   45.0343 H   0  0  0  0  0  0  0  0  0  0  0  0
   56.8997   30.4622   42.1695 H   0  0  0  0  0  0  0  0  0  0  0  0
   57.9483   32.6832   41.7038 H   0  0  0  0  0  0  0  0  0  0  0  0
   58.6064   34.1747   43.6000 H   0  0  0  0  0  0  0  0  0  0  0  0
   61.9965   34.3789   45.3605 H   0  0  0  0  0  0  0  0  0  0  0  0
   64.1009   33.5272   46.3851 H   0  0  0  0  0  0  0  0  0  0  0  0
   64.0379   32.3626   48.5907 H   0  0  0  0  0  0  0  0  0  0  0  0
   62.1631   29.3320   49.1336 H   0  0  0  0  0  0  0  0  0  0  0  0
   60.7200   28.3573   49.6898 H   0  0  0  0  0  0  0  0  0  0  0  0
   60.7926   30.5066   47.5318 H   0  0  0  0  0  0  0  0  0  0  0  0
   60.4613   28.7357   47.3486 H   0  0  0  0  0  0  0  0  0  0  0  0
   58.3916   30.1461   47.2722 H   0  0  0  0  0  0  0  0  0  0  0  0
   58.3992   28.9384   48.6088 H   0  0  0  0  0  0  0  0  0  0  0  0
   59.0818   31.9129   48.8421 H   0  0  0  0  0  0  0  0  0  0  0  0
   57.5833   31.1020   49.4304 H   0  0  0  0  0  0  0  0  0  0  0  0
   59.2680   31.4895   51.2428 H   0  0  0  0  0  0  0  0  0  0  0  0
   58.8739   29.7324   50.9656 H   0  0  0  0  0  0  0  0  0  0  0  0
   59.7557   32.9707   48.7892 H   0  0  0  0  0  0  0  0  0  0  0  0
   56.7714   24.9808   48.4445 H   0  0  0  0  0  0  0  0  0  0  0  0
   56.1489   26.4478   47.6161 H   0  0  0  0  0  0  0  0  0  0  0  0
   57.6439   23.1162   46.6203 H   0  0  0  0  0  0  0  0  0  0  0  0
   56.6608   21.6804   44.8366 H   0  0  0  0  0  0  0  0  0  0  0  0
   54.6183   22.4242   43.6134 H   0  0  0  0  0  0  0  0  0  0  0  0
   53.5524   24.6120   44.1720 H   0  0  0  0  0  0  0  0  0  0  0  0
  1  2  2  0
  2  3  1  0
  3  4  1  0
  4  5  1  0
  5  6  2  0
  5  7  1  0
  7  8  2  0
  8  9  1  0
  9 10  2  0
 10 11  1  0
 11 12  1  0
 12 13  2  0
 12 14  1  0
 14 15  1  0
 15 16  2  0
 16 17  1  0
 17 18  2  0
 18 19  1  0
 19 20  1  0
 20 21  2  0
 20 22  2  0
 20 23  1  0
 23 24  1  0
 24 25  1  0
 25 26  1  0
 26 27  1  0
 27 28  1  0
 19 29  2  0
 11 30  2  0
  2 31  1  0
 31 32  1  0
 32 33  1  0
 33 34  2  0
 34 35  1  0
 35 36  2  0
 36 37  1  0
 37 38  2  0
 38 39  1  0
 30  7  1  0
 38 33  1  0
 29 15  1  0
 28 23  1  0
  3 40  1  0
  3 41  1  0
  8 42  1  0
  9 43  1  0
 10 44  1  0
 16 45  1  0
 17 46  1  0
 18 47  1  0
 24 48  1  0
 24 49  1  0
 25 50  1  0
 25 51  1  0
 26 52  1  0
 26 53  1  0
 27 54  1  0
 27 55  1  0
 28 56  1  0
 28 57  1  0
 29 58  1  0
 32 59  1  0
 32 60  1  0
 34 61  1  0
 35 62  1  0
 36 63  1  0
 37 64  1  0
M  CHG  4   4  -1  14  -1  31  -1  39  -1
M  END
>  <UniqueID>  (81) 
81

>  <SMILES>  (81) 
O=C(C[N-]C(=O)c1cccc(C(=O)[N-]c2cccc(S(=O)(=O)N3CCCCC3)c2)n1)[N-]Cc1ccccc1[O-]

>  <Energy>  (81) 
75.47320885049791

>  <Genealogy>  (81) 
O=C(C[N-]C(=O)c1cccc(C(=O)[N-]c2cccc(S(=O)(=O)N3CCCCC3)c2)n1)[N-]Cc1ccccc1[O-] (protonated)
O=C(C[N-]C(=O)c1cccc(C(=O)[N-]c2cccc(S(=O)(=O)N3CCCCC3)c2)n1)[N-]Cc1ccccc1[O-] (3D coordinates assigned)
O=C(C[N-]C(=O)c1cccc(C(=O)[N-]c2cccc(S(=O)(=O)N3CCCCC3)c2)n1)[N-]Cc1ccccc1[O-] (nonaromatic ring conformer: 75.47320885049791 kcal/mol)

>  <smiles>  (81) 
O=C(CNC(=O)c1cccc(C(=O)Nc2cccc(S(=O)(=O)N3CCCCC3)c2)n1)NCc1ccccc1O

>  <score_type>  (81) 
oracle

>  <origin>  (81) 
adg

>  <m_score__min__energy>  (81) 
-18.609999999999999

>  <m_primary>  (81) 
energy

$$$$
81:0
     RDKit          3D

 58 61  0  0  1  0  0  0  0  0999 V2000
   58.8620   35.0260   45.0020 N   0  0  0  0  0  0  0  0  0  0  0  0
   61.9460   33.4590   47.1860 C   0  0  0  0  0  0  0  0  0  0  0  0
   57.8120   33.0500   45.1280 N   0  0  0  0  0  0  0  0  0  0  0  0
   57.7260   31.7710   45.5300 C   0  0  0  0  0  0  0  0  0  0  0  0
   56.6720   31.0860   45.2000 N   0  0  0  0  0  0  0  0  0  0  0  0
   56.7740   30.2090   44.0430 C   0  0  0  0  0  0  0  0  0  0  0  0
   58.2320   29.7380   44.0020 C   0  0  0  0  0  0  0  0  0  0  0  0
   58.4200   28.5640   44.8930 C   0  0  0  0  0  0  0  0  0  0  0  0
   59.7020   28.2120   45.2870 C   0  0  0  0  0  0  0  0  0  0  0  0
   59.8710   27.1170   46.1180 C   0  0  0  0  0  0  0  0  0  0  0  0
   58.8050   26.3710   46.5630 C   0  0  0  0  0  0  0  0  0  0  0  0
   57.5440   26.7110   46.1800 C   0  0  0  0  0  0  0  0  0  0  0  0
   56.3770   25.9200   46.6470 C   0  0  0  0  0  0  0  0  0  0  0  0
   55.1380   26.3900   46.0770 N   0  0  0  0  0  0  0  0  0  0  0  0
   57.3520   27.8000   45.3520 C   0  0  0  0  0  0  0  0  0  0  0  0
   58.7340   31.2570   46.2550 N   0  0  0  0  0  0  0  0  0  0  0  0
   59.8300   31.9490   46.6050 C   0  0  0  0  0  0  0  0  0  0  0  0
   59.8930   33.2620   46.1780 C   0  0  0  0  0  0  0  0  0  0  0  0
   60.9590   34.0210   46.4720 N   0  0  0  0  0  0  0  0  0  0  0  0
   61.8760   32.1470   47.6100 C   0  0  0  0  0  0  0  0  0  0  0  0
   62.9670   34.1720   47.4700 O   0  0  0  0  0  0  0  0  0  0  0  0
   58.8930   33.8250   45.4410 C   0  0  0  0  0  0  0  0  0  0  0  0
   62.8580   31.7250   48.2720 O   0  0  0  0  0  0  0  0  0  0  0  0
   60.7990   31.3540   47.3250 N   0  0  0  0  0  0  0  0  0  0  0  0
   60.7610   29.9960   47.7820 C   0  0  0  0  0  0  0  0  0  0  0  0
   60.3170   29.8170   49.1840 C   0  0  0  0  0  0  0  0  0  0  0  0
   61.1420   29.1510   50.0870 C   0  0  0  0  0  0  0  0  0  0  0  0
   60.7550   28.9650   51.4190 C   0  0  0  0  0  0  0  0  0  0  0  0
   59.5460   29.4320   51.8830 C   0  0  0  0  0  0  0  0  0  0  0  0
   58.7350   30.0820   51.0080 C   0  0  0  0  0  0  0  0  0  0  0  0
   57.4380   30.5940   51.4650 C   0  0  0  0  0  0  0  0  0  0  0  0
   57.1140   31.9680   51.3010 N   0  0  0  0  0  0  0  0  0  0  0  0
   56.5710   29.8640   52.0100 O   0  0  0  0  0  0  0  0  0  0  0  0
   59.1180   30.2680   49.6880 C   0  0  0  0  0  0  0  0  0  0  0  0
   59.4920   35.4620   44.3290 H   0  0  0  0  0  0  0  0  0  0  0  0
   57.0170   33.4560   44.5560 H   0  0  0  0  0  0  0  0  0  0  0  0
   56.0968   29.3492   44.1534 H   0  0  0  0  0  0  0  0  0  0  0  0
   56.4905   30.7283   43.1156 H   0  0  0  0  0  0  0  0  0  0  0  0
   58.4936   29.4568   42.9712 H   0  0  0  0  0  0  0  0  0  0  0  0
   58.8820   30.5560   44.3461 H   0  0  0  0  0  0  0  0  0  0  0  0
   60.5710   28.7932   44.9450 H   0  0  0  0  0  0  0  0  0  0  0  0
   60.8874   26.8359   46.4311 H   0  0  0  0  0  0  0  0  0  0  0  0
   58.9700   25.5066   47.2230 H   0  0  0  0  0  0  0  0  0  0  0  0
   56.5233   24.8685   46.3589 H   0  0  0  0  0  0  0  0  0  0  0  0
   56.3096   26.0296   47.7395 H   0  0  0  0  0  0  0  0  0  0  0  0
   54.8430   25.8770   45.2340 H   0  0  0  0  0  0  0  0  0  0  0  0
   54.4010   26.6120   46.7530 H   0  0  0  0  0  0  0  0  0  0  0  0
   56.3297   28.0695   45.0483 H   0  0  0  0  0  0  0  0  0  0  0  0
   58.6440   30.2640   46.5350 H   0  0  0  0  0  0  0  0  0  0  0  0
   61.0700   35.0140   46.1820 H   0  0  0  0  0  0  0  0  0  0  0  0
   60.0716   29.4369   47.1322 H   0  0  0  0  0  0  0  0  0  0  0  0
   61.7972   29.6294   47.7396 H   0  0  0  0  0  0  0  0  0  0  0  0
   62.1143   28.7646   49.7475 H   0  0  0  0  0  0  0  0  0  0  0  0
   61.4295   28.4357   52.1081 H   0  0  0  0  0  0  0  0  0  0  0  0
   59.2456   29.2834   52.9307 H   0  0  0  0  0  0  0  0  0  0  0  0
   57.5930   32.6570   51.9190 H   0  0  0  0  0  0  0  0  0  0  0  0
   56.4090   32.2610   50.5730 H   0  0  0  0  0  0  0  0  0  0  0  0
   58.4321   30.8004   49.0127 H   0  0  0  0  0  0  0  0  0  0  0  0
  1  2  2  3
  2  3  1  0
  3  4  1  0
  4  5  2  0
  5  6  1  0
  6  7  1  0
  7  8  1  0
  8  9  2  0
  9 10  1  0
 10 11  2  0
 11 12  1  0
 12 13  1  0
 13 14  1  0
 12 15  2  0
  4 16  1  0
 16 17  1  0
 17 18  2  0
 18 19  1  0
 19 20  1  0
 20 21  2  0
 20 22  1  0
 22 23  2  0
 22 24  1  0
 24 25  1  0
 25 26  1  0
 26 27  2  0
 27 28  1  0
 28 29  2  0
 29 30  1  0
 30 31  1  0
 31 32  1  0
 31 33  2  0
 30 34  2  0
 18  2  1  0
 34 26  1  0
 15  8  1  0
 24 17  1  0
  1 35  1  0
  3 36  1  0
  6 37  1  0
  6 38  1  0
  7 39  1  0
  7 40  1  0
  9 41  1  0
 10 42  1  0
 11 43  1  0
 13 44  1  0
 13 45  1  0
 14 46  1  0
 14 47  1  0
 15 48  1  0
 16 49  1  0
 19 50  1  0
 25 51  1  0
 25 52  1  0
 27 53  1  0
 28 54  1  0
 29 55  1  0
 32 56  1  0
 32 57  1  0
 34 58  1  0
M  END
>  <smiles>  (82) 
N=c1[nH]c(=NCCc2cccc(CN)c2)[nH]c2c1[nH]c(=O)c(=O)n2Cc1cccc(C(N)=O)c1

>  <score_type>  (82) 
oracle

>  <origin>  (82) 
adg

>  <m_score__min__energy>  (82) 
-10.18

>  <m_primary>  (82) 
energy

$$$$
82:0
     RDKit          3D

 58 60  0  0  0  0  0  0  0  0999 V2000
   63.7010   32.7430   46.8270 C   0  0  0  0  0  0  0  0  0  0  0  0
   63.3850   33.8280   47.5310 C   0  0  0  0  0  0  0  0  0  0  0  0
   62.7610   33.7540   48.8620 C   0  0  0  0  0  0  0  0  0  0  0  0
   63.3860   34.2120   49.8540 O   0  0  0  0  0  0  0  0  0  0  0  0
   61.4340   33.2300   49.0150 N   0  0  0  0  0  0  0  0  0  0  0  0
   60.3900   33.2290   48.0290 C   0  0  0  0  0  0  0  0  0  0  0  0
   59.7620   34.4250   47.6390 C   0  0  0  0  0  0  0  0  0  0  0  0
   58.7070   34.4000   46.7280 C   0  0  0  0  0  0  0  0  0  0  0  0
   58.2510   33.1740   46.2420 C   0  0  0  0  0  0  0  0  0  0  0  0
   57.1550   33.1210   45.2700 C   0  0  0  0  0  0  0  0  0  0  0  0
   56.7350   34.2030   44.7770 O   0  0  0  0  0  0  0  0  0  0  0  0
   56.5330   31.8890   44.8690 N   0  0  0  0  0  0  0  0  0  0  0  0
   56.9830   30.9100   43.8710 C   0  0  0  0  0  0  0  0  0  0  0  0
   55.9210   29.8330   43.6260 C   0  0  0  0  0  0  0  0  0  0  0  0
   57.4330   31.5810   42.5680 C   0  0  0  0  0  0  0  0  0  0  0  0
   58.8740   32.0270   46.6150 N   0  0  0  0  0  0  0  0  0  0  0  0
   59.9170   32.0080   47.4920 C   0  0  0  0  0  0  0  0  0  0  0  0
   60.5150   30.6990   47.8320 C   0  0  0  0  0  0  0  0  0  0  0  0
   61.7610   30.5830   47.9880 O   0  0  0  0  0  0  0  0  0  0  0  0
   59.6690   29.5420   47.9140 N   0  0  0  0  0  0  0  0  0  0  0  0
   59.1230   28.8200   46.8010 C   0  0  0  0  0  0  0  0  0  0  0  0
   59.6440   29.0560   45.5220 C   0  0  0  0  0  0  0  0  0  0  0  0
   59.1350   28.3700   44.4160 C   0  0  0  0  0  0  0  0  0  0  0  0
   58.1000   27.4460   44.5780 C   0  0  0  0  0  0  0  0  0  0  0  0
   57.5520   27.2080   45.8490 C   0  0  0  0  0  0  0  0  0  0  0  0
   56.4450   26.2400   46.0230 C   0  0  0  0  0  0  0  0  0  0  0  0
   55.2520   26.6490   46.0060 O   0  0  0  0  0  0  0  0  0  0  0  0
   56.7090   24.8420   46.2360 N   0  0  0  0  0  0  0  0  0  0  0  0
   55.8730   24.0750   47.1610 C   0  0  0  0  0  0  0  0  0  0  0  0
   56.6830   22.9040   47.7310 C   0  0  0  0  0  0  0  0  0  0  0  0
   57.2750   22.1430   46.6920 O   0  0  0  0  0  0  0  0  0  0  0  0
   58.2150   22.9360   45.9900 C   0  0  0  0  0  0  0  0  0  0  0  0
   57.5120   24.0880   45.2690 C   0  0  0  0  0  0  0  0  0  0  0  0
   58.0550   27.9200   46.9530 C   0  0  0  0  0  0  0  0  0  0  0  0
   64.1663   32.8468   45.8357 H   0  0  0  0  0  0  0  0  0  0  0  0
   63.4967   31.7428   47.2367 H   0  0  0  0  0  0  0  0  0  0  0  0
   63.5985   34.8179   47.1014 H   0  0  0  0  0  0  0  0  0  0  0  0
   60.1045   35.3843   48.0544 H   0  0  0  0  0  0  0  0  0  0  0  0
   58.2384   35.3380   46.3954 H   0  0  0  0  0  0  0  0  0  0  0  0
   57.8688   30.4064   44.2854 H   0  0  0  0  0  0  0  0  0  0  0  0
   55.5504   29.4572   44.5911 H   0  0  0  0  0  0  0  0  0  0  0  0
   55.0856   30.2649   43.0555 H   0  0  0  0  0  0  0  0  0  0  0  0
   56.3646   29.0037   43.0555 H   0  0  0  0  0  0  0  0  0  0  0  0
   58.0315   32.4735   42.8029 H   0  0  0  0  0  0  0  0  0  0  0  0
   58.0411   30.8752   41.9831 H   0  0  0  0  0  0  0  0  0  0  0  0
   56.5492   31.8757   41.9831 H   0  0  0  0  0  0  0  0  0  0  0  0
   60.4572   29.7844   45.3878 H   0  0  0  0  0  0  0  0  0  0  0  0
   59.5505   28.5582   43.4150 H   0  0  0  0  0  0  0  0  0  0  0  0
   57.7118   26.9014   43.7047 H   0  0  0  0  0  0  0  0  0  0  0  0
   55.5425   24.7269   47.9831 H   0  0  0  0  0  0  0  0  0  0  0  0
   54.9943   23.6867   46.6252 H   0  0  0  0  0  0  0  0  0  0  0  0
   57.4752   23.2987   48.3842 H   0  0  0  0  0  0  0  0  0  0  0  0
   56.0039   22.2520   48.3000 H   0  0  0  0  0  0  0  0  0  0  0  0
   58.9456   23.3469   46.7023 H   0  0  0  0  0  0  0  0  0  0  0  0
   58.7242   22.3076   45.2445 H   0  0  0  0  0  0  0  0  0  0  0  0
   58.2632   24.7523   44.8168 H   0  0  0  0  0  0  0  0  0  0  0  0
   56.8598   23.6871   44.4792 H   0  0  0  0  0  0  0  0  0  0  0  0
   57.6071   27.7704   47.9465 H   0  0  0  0  0  0  0  0  0  0  0  0
  1  2  2  0
  2  3  1  0
  3  4  2  0
  3  5  1  0
  5  6  1  0
  6  7  2  0
  7  8  1  0
  8  9  2  0
  9 10  1  0
 10 11  2  0
 10 12  1  0
 12 13  1  0
 13 14  1  0
 13 15  1  0
  9 16  1  0
 16 17  2  0
 17 18  1  0
 18 19  2  0
 18 20  1  0
 20 21  1  0
 21 22  2  0
 22 23  1  0
 23 24  2  0
 24 25  1  0
 25 26  1  0
 26 27  2  0
 26 28  1  0
 28 29  1  0
 29 30  1  0
 30 31  1  0
 31 32  1  0
 32 33  1  0
 25 34  2  0
 17  6  1  0
 34 21  1  0
 33 28  1  0
  1 35  1  0
  1 36  1  0
  2 37  1  0
  7 38  1  0
  8 39  1  0
 13 40  1  0
 14 41  1  0
 14 42  1  0
 14 43  1  0
 15 44  1  0
 15 45  1  0
 15 46  1  0
 22 47  1  0
 23 48  1  0
 24 49  1  0
 29 50  1  0
 29 51  1  0
 30 52  1  0
 30 53  1  0
 32 54  1  0
 32 55  1  0
 33 56  1  0
 33 57  1  0
 34 58  1  0
M  CHG  3   5  -1  12  -1  20  -1
M  END
>  <UniqueID>  (83) 
82

>  <SMILES>  (83) 
C=CC(=O)[N-]c1ccc(C(=O)[N-]C(C)C)nc1C(=O)[N-]c1cccc(C(=O)N2CCOCC2)c1

>  <Energy>  (83) 
74.12755183715521

>  <Genealogy>  (83) 
C=CC(=O)[N-]c1ccc(C(=O)[N-]C(C)C)nc1C(=O)[N-]c1cccc(C(=O)N2CCOCC2)c1 (protonated)
C=CC(=O)[N-]c1ccc(C(=O)[N-]C(C)C)nc1C(=O)[N-]c1cccc(C(=O)N2CCOCC2)c1 (3D coordinates assigned)
C=CC(=O)[N-]c1ccc(C(=O)[N-]C(C)C)nc1C(=O)[N-]c1cccc(C(=O)N2CCOCC2)c1 (nonaromatic ring conformer: 74.12755183715521 kcal/mol)

>  <smiles>  (83) 
C=CC(=O)Nc1ccc(C(=O)NC(C)C)nc1C(=O)Nc1cccc(C(=O)N2CCOCC2)c1

>  <score_type>  (83) 
oracle

>  <origin>  (83) 
adg

>  <m_score__min__energy>  (83) 
-13.539999999999999

>  <m_primary>  (83) 
energy

$$$$
83:0
     RDKit          3D

 44 47  0  0  0  0  0  0  0  0999 V2000
   57.2450   30.1700   44.2840 C   0  0  0  0  0  0  0  0  0  0  0  0
   58.2470   29.7400   45.0780 C   0  0  0  0  0  0  0  0  0  0  0  0
   58.3190   28.4090   45.5870 C   0  0  0  0  0  0  0  0  0  0  0  0
   57.6350   27.3410   45.1180 C   0  0  0  0  0  0  0  0  0  0  0  0
   57.1740   26.1780   45.8970 C   0  0  0  0  0  0  0  0  0  0  0  0
   58.1500   24.8730   46.3200 S   0  0  0  0  0  0  0  0  0  0  0  0
   56.8680   24.0250   47.0000 C   0  0  0  0  0  0  0  0  0  0  0  0
   56.9730   22.8930   47.5400 O   0  0  0  0  0  0  0  0  0  0  0  0
   55.6950   24.6840   46.8960 N   0  0  0  0  0  0  0  0  0  0  0  0
   55.8610   25.8780   46.2670 C   0  0  0  0  0  0  0  0  0  0  0  0
   54.7830   26.7110   45.9980 O   0  0  0  0  0  0  0  0  0  0  0  0
   59.1600   28.1640   46.6240 N   0  0  0  0  0  0  0  0  0  0  0  0
   60.0140   29.0910   47.1140 C   0  0  0  0  0  0  0  0  0  0  0  0
   60.7640   28.7780   48.0780 O   0  0  0  0  0  0  0  0  0  0  0  0
   60.0760   30.3390   46.5540 N   0  0  0  0  0  0  0  0  0  0  0  0
   61.0510   31.3220   47.0760 C   0  0  0  0  0  0  0  0  0  0  0  0
   60.5650   31.9200   48.3830 C   0  0  0  0  0  0  0  0  0  0  0  0
   61.0760   31.3990   49.5880 C   0  0  0  0  0  0  0  0  0  0  0  0
   60.7120   31.9510   50.8160 C   0  0  0  0  0  0  0  0  0  0  0  0
   59.8330   33.0300   50.8660 C   0  0  0  0  0  0  0  0  0  0  0  0
   59.3010   33.5510   49.6870 C   0  0  0  0  0  0  0  0  0  0  0  0
   59.6440   33.0000   48.4410 C   0  0  0  0  0  0  0  0  0  0  0  0
   59.0060   33.5650   47.2320 C   0  0  0  0  0  0  0  0  0  0  0  0
   57.6660   33.2670   46.9360 C   0  0  0  0  0  0  0  0  0  0  0  0
   57.0680   33.7840   45.7830 C   0  0  0  0  0  0  0  0  0  0  0  0
   57.8060   34.5930   44.9140 C   0  0  0  0  0  0  0  0  0  0  0  0
   59.1440   34.8810   45.1940 C   0  0  0  0  0  0  0  0  0  0  0  0
   59.7460   34.3650   46.3470 C   0  0  0  0  0  0  0  0  0  0  0  0
   59.2050   30.6740   45.5470 C   0  0  0  0  0  0  0  0  0  0  0  0
   59.2390   31.8370   45.0520 O   0  0  0  0  0  0  0  0  0  0  0  0
   57.2389   31.2078   43.9193 H   0  0  0  0  0  0  0  0  0  0  0  0
   56.4339   29.4829   44.0011 H   0  0  0  0  0  0  0  0  0  0  0  0
   57.3981   27.3402   44.0438 H   0  0  0  0  0  0  0  0  0  0  0  0
   62.0146   30.8192   47.2455 H   0  0  0  0  0  0  0  0  0  0  0  0
   61.1658   32.1306   46.3391 H   0  0  0  0  0  0  0  0  0  0  0  0
   61.7705   30.5465   49.5600 H   0  0  0  0  0  0  0  0  0  0  0  0
   61.1204   31.5328   51.7478 H   0  0  0  0  0  0  0  0  0  0  0  0
   59.5584   33.4713   51.8355 H   0  0  0  0  0  0  0  0  0  0  0  0
   58.6057   34.4021   49.7330 H   0  0  0  0  0  0  0  0  0  0  0  0
   57.0848   32.6245   47.6138 H   0  0  0  0  0  0  0  0  0  0  0  0
   56.0158   33.5540   45.5593 H   0  0  0  0  0  0  0  0  0  0  0  0
   57.3330   35.0029   44.0094 H   0  0  0  0  0  0  0  0  0  0  0  0
   59.7250   35.5141   44.5073 H   0  0  0  0  0  0  0  0  0  0  0  0
   60.8020   34.5868   46.5605 H   0  0  0  0  0  0  0  0  0  0  0  0
  1  2  2  0
  2  3  1  0
  3  4  2  3
  4  5  1  0
  5  6  1  0
  6  7  1  0
  7  8  2  0
  7  9  1  0
  9 10  1  0
 10 11  1  0
  3 12  1  0
 12 13  1  0
 13 14  2  0
 13 15  1  0
 15 16  1  0
 16 17  1  0
 17 18  2  0
 18 19  1  0
 19 20  2  0
 20 21  1  0
 21 22  2  0
 22 23  1  0
 23 24  2  0
 24 25  1  0
 25 26  2  0
 26 27  1  0
 27 28  2  0
 15 29  1  0
 29 30  2  0
 29  2  1  0
 10  5  2  0
 22 17  1  0
 28 23  1  0
  1 31  1  0
  1 32  1  0
  4 33  1  0
 16 34  1  0
 16 35  1  0
 18 36  1  0
 19 37  1  0
 20 38  1  0
 21 39  1  0
 24 40  1  0
 25 41  1  0
 26 42  1  0
 27 43  1  0
 28 44  1  0
M  CHG  3   9  -1  11  -1  12  -1
M  END
>  <UniqueID>  (84) 
83

>  <SMILES>  (84) 
C=c1c(=Cc2sc(=O)[n-]c2[O-])[n-]c(=O)n(Cc2ccccc2-c2ccccc2)c1=O

>  <Energy>  (84) 
115.01227815436116

>  <Genealogy>  (84) 
C=c1c(=Cc2sc(=O)[n-]c2[O-])[n-]c(=O)n(Cc2ccccc2-c2ccccc2)c1=O (protonated)
C=c1c(=Cc2sc(=O)[n-]c2[O-])[n-]c(=O)n(Cc2ccccc2-c2ccccc2)c1=O (3D coordinates assigned)
C=c1c(=Cc2sc(=O)[n-]c2[O-])[n-]c(=O)n(Cc2ccccc2-c2ccccc2)c1=O (optimized conformer: 115.01227815436116 kcal/mol)

>  <smiles>  (84) 
C=c1c(=Cc2sc(=O)[nH]c2O)[nH]c(=O)n(Cc2ccccc2-c2ccccc2)c1=O

>  <score_type>  (84) 
oracle

>  <origin>  (84) 
adg

>  <m_score__min__energy>  (84) 
-16.539999999999999

>  <m_primary>  (84) 
energy

$$$$
84:0
     RDKit          3D

 52 55  0  0  0  0  0  0  0  0999 V2000
   58.7039   34.8845   46.8084 H   0  0  0  0  0  0  0  0  0  0  0  0
   58.3490   33.9850   46.2840 C   0  0  0  0  0  0  0  0  0  0  0  0
   57.2360   33.9510   45.0220 S   0  0  0  0  0  0  0  0  0  0  0  0
   57.3020   32.2710   44.8710 C   0  0  0  0  0  0  0  0  0  0  0  0
   56.6310   31.5390   44.0310 N   0  0  0  0  0  0  0  0  0  0  0  0
   56.6290   30.1070   43.9280 C   0  0  0  0  0  0  0  0  0  0  0  0
   57.1700   29.5210   42.9540 O   0  0  0  0  0  0  0  0  0  0  0  0
   55.9850   29.2970   45.0080 C   0  0  0  0  0  0  0  0  0  0  0  0
   55.6995   29.9604   45.8377 H   0  0  0  0  0  0  0  0  0  0  0  0
   55.0932   28.7999   44.5987 H   0  0  0  0  0  0  0  0  0  0  0  0
   56.9400   28.2490   45.5160 C   0  0  0  0  0  0  0  0  0  0  0  0
   58.3190   28.5230   45.5550 C   0  0  0  0  0  0  0  0  0  0  0  0
   58.6944   29.4907   45.1907 H   0  0  0  0  0  0  0  0  0  0  0  0
   59.2160   27.5730   46.0540 C   0  0  0  0  0  0  0  0  0  0  0  0
   60.2934   27.7938   46.0765 H   0  0  0  0  0  0  0  0  0  0  0  0
   58.7460   26.3440   46.5240 C   0  0  0  0  0  0  0  0  0  0  0  0
   59.4536   25.5962   46.9113 H   0  0  0  0  0  0  0  0  0  0  0  0
   57.3770   26.0650   46.5020 C   0  0  0  0  0  0  0  0  0  0  0  0
   57.0088   25.0978   46.8749 H   0  0  0  0  0  0  0  0  0  0  0  0
   56.4720   27.0120   46.0070 C   0  0  0  0  0  0  0  0  0  0  0  0
   55.1120   26.7170   46.0080 O   0  0  0  0  0  0  0  0  0  0  0  0
   58.1560   31.7270   45.7630 N   0  0  0  0  0  0  0  0  0  0  0  0
   58.7430   32.6730   46.5490 C   0  0  0  0  0  0  0  0  0  0  0  0
   59.7540   32.3170   47.6080 C   0  0  0  0  0  0  0  0  0  0  0  0
   60.3186   33.2295   47.8500 H   0  0  0  0  0  0  0  0  0  0  0  0
   60.7360   31.2560   47.0900 C   0  0  0  0  0  0  0  0  0  0  0  0
   60.1775   30.3410   46.8435 H   0  0  0  0  0  0  0  0  0  0  0  0
   61.2407   31.6564   46.1984 H   0  0  0  0  0  0  0  0  0  0  0  0
   61.8100   30.9200   48.1480 C   0  0  0  0  0  0  0  0  0  0  0  0
   61.9707   29.8318   48.1521 H   0  0  0  0  0  0  0  0  0  0  0  0
   62.7248   31.4670   47.8760 H   0  0  0  0  0  0  0  0  0  0  0  0
   61.4240   31.3480   49.5180 N   0  0  0  0  0  0  0  0  0  0  0  0
   62.3100   30.7410   50.5340 C   0  0  0  0  0  0  0  0  0  0  0  0
   61.8815   30.9099   51.5329 H   0  0  0  0  0  0  0  0  0  0  0  0
   62.3934   29.6634   50.3296 H   0  0  0  0  0  0  0  0  0  0  0  0
   63.6860   31.3500   50.4780 C   0  0  0  0  0  0  0  0  0  0  0  0
   64.7460   30.7590   51.1850 C   0  0  0  0  0  0  0  0  0  0  0  0
   64.5717   29.8423   51.7675 H   0  0  0  0  0  0  0  0  0  0  0  0
   66.0210   31.3300   51.1520 C   0  0  0  0  0  0  0  0  0  0  0  0
   66.8485   30.8597   51.7033 H   0  0  0  0  0  0  0  0  0  0  0  0
   66.2450   32.4980   50.4190 C   0  0  0  0  0  0  0  0  0  0  0  0
   67.4800   33.0540   50.3920 F   0  0  0  0  0  0  0  0  0  0  0  0
   65.1930   33.1000   49.7200 C   0  0  0  0  0  0  0  0  0  0  0  0
   65.3705   34.0217   49.1465 H   0  0  0  0  0  0  0  0  0  0  0  0
   63.9170   32.5310   49.7500 C   0  0  0  0  0  0  0  0  0  0  0  0
   63.0908   33.0082   49.2026 H   0  0  0  0  0  0  0  0  0  0  0  0
   60.0140   31.0070   49.7960 C   0  0  0  0  0  0  0  0  0  0  0  0
   59.8588   29.9347   49.6058 H   0  0  0  0  0  0  0  0  0  0  0  0
   59.7955   31.2469   50.8470 H   0  0  0  0  0  0  0  0  0  0  0  0
   59.0620   31.8220   48.8970 C   0  0  0  0  0  0  0  0  0  0  0  0
   58.2080   31.1870   48.6186 H   0  0  0  0  0  0  0  0  0  0  0  0
   58.7367   32.7059   49.4652 H   0  0  0  0  0  0  0  0  0  0  0  0
  1  2  1  0
  2  3  1  0
  3  4  1  0
  4  5  2  0
  5  6  1  0
  6  7  2  0
  6  8  1  0
  8  9  1  0
  8 10  1  0
  8 11  1  0
 11 12  2  0
 12 13  1  0
 12 14  1  0
 14 15  1  0
 14 16  2  0
 16 17  1  0
 16 18  1  0
 18 19  1  0
 18 20  2  0
 20 21  1  0
  4 22  1  0
 22 23  1  0
 23 24  1  0
 24 25  1  0
 24 26  1  0
 26 27  1  0
 26 28  1  0
 26 29  1  0
 29 30  1  0
 29 31  1  0
 29 32  1  0
 32 33  1  0
 33 34  1  0
 33 35  1  0
 33 36  1  0
 36 37  2  0
 37 38  1  0
 37 39  1  0
 39 40  1  0
 39 41  2  0
 41 42  1  0
 41 43  1  0
 43 44  1  0
 43 45  2  0
 45 46  1  0
 32 47  1  0
 47 48  1  0
 47 49  1  0
 47 50  1  0
 50 51  1  0
 50 52  1  0
 23  2  2  0
 50 24  1  0
 20 11  1  0
 45 36  1  0
M  CHG  2  21  -1  22  -1
M  END
>  <UniqueID>  (85) 
84

>  <SMILES>  (85) 
O=C(Cc1ccccc1[O-])/N=c1/[n-]c(C2CCN(Cc3ccc(F)cc3)CC2)cs1

>  <Energy>  (85) 
92.87335517844792

>  <Genealogy>  (85) 
O=C(Cc1ccccc1[O-])N=c1[n-]c(C2CCN(Cc3ccc(F)cc3)CC2)cs1 (protonated)
O=C(Cc1ccccc1[O-])/N=c1/[n-]c(C2CCN(Cc3ccc(F)cc3)CC2)cs1 (cis-trans isomerization)
O=C(Cc1ccccc1[O-])/N=c1/[n-]c(C2CCN(Cc3ccc(F)cc3)CC2)cs1 (3D coordinates assigned)
O=C(Cc1ccccc1[O-])/N=c1/[n-]c(C2CCN(Cc3ccc(F)cc3)CC2)cs1 (nonaromatic ring conformer: 92.87335517844792 kcal/mol)

>  <smiles>  (85) 
O=C(Cc1ccccc1O)N=c1[nH]c(C2CCN(Cc3ccc(F)cc3)CC2)cs1

>  <score_type>  (85) 
oracle

>  <origin>  (85) 
adg

>  <m_score__min__energy>  (85) 
-13.869999999999999

>  <m_primary>  (85) 
energy

$$$$
85:0
     RDKit          3D

 73 78  0  0  0  0  0  0  0  0999 V2000
   56.5711   23.1532   48.6326 H   0  0  0  0  0  0  0  0  0  0  0  0
   56.5290   23.8150   47.7550 C   0  0  0  0  0  0  0  0  0  0  0  0
   55.3420   24.0350   47.1270 N   0  0  0  0  0  0  0  0  0  0  0  0
   55.2330   24.8390   46.0340 C   0  0  0  0  0  0  0  0  0  0  0  0
   54.0580   24.9830   45.4840 N   0  0  0  0  0  0  0  0  0  0  0  0
   53.1480   23.9530   45.0570 C   0  0  0  0  0  0  0  0  0  0  0  0
   53.0840   23.6860   43.8290 O   0  0  0  0  0  0  0  0  0  0  0  0
   52.2370   23.2520   46.0020 C   0  0  0  0  0  0  0  0  0  0  0  0
   50.8420   23.3950   45.8770 C   0  0  0  0  0  0  0  0  0  0  0  0
   50.4261   24.0473   45.0950 H   0  0  0  0  0  0  0  0  0  0  0  0
   49.9830   22.7110   46.7430 C   0  0  0  0  0  0  0  0  0  0  0  0
   48.8937   22.8224   46.6378 H   0  0  0  0  0  0  0  0  0  0  0  0
   50.5070   21.8860   47.7420 C   0  0  0  0  0  0  0  0  0  0  0  0
   49.8294   21.3414   48.4159 H   0  0  0  0  0  0  0  0  0  0  0  0
   51.8900   21.7520   47.8860 C   0  0  0  0  0  0  0  0  0  0  0  0
   52.2998   21.1051   48.6757 H   0  0  0  0  0  0  0  0  0  0  0  0
   52.7530   22.4380   47.0290 C   0  0  0  0  0  0  0  0  0  0  0  0
   53.8414   22.3422   47.1566 H   0  0  0  0  0  0  0  0  0  0  0  0
   56.3860   25.5010   45.5590 C   0  0  0  0  0  0  0  0  0  0  0  0
   56.3116   26.1977   44.7110 H   0  0  0  0  0  0  0  0  0  0  0  0
   57.6230   25.2690   46.1690 C   0  0  0  0  0  0  0  0  0  0  0  0
   58.7590   25.9220   45.6700 O   0  0  0  0  0  0  0  0  0  0  0  0
   59.3330   27.0790   46.2160 C   0  0  0  0  0  0  0  0  0  0  0  0
   60.1480   27.8720   45.3990 C   0  0  0  0  0  0  0  0  0  0  0  0
   60.2924   27.5972   44.3437 H   0  0  0  0  0  0  0  0  0  0  0  0
   60.7800   29.0090   45.9100 C   0  0  0  0  0  0  0  0  0  0  0  0
   61.4114   29.6272   45.2549 H   0  0  0  0  0  0  0  0  0  0  0  0
   60.6110   29.3630   47.2550 C   0  0  0  0  0  0  0  0  0  0  0  0
   61.2710   30.4780   47.7930 C   0  0  0  0  0  0  0  0  0  0  0  0
   61.9125   31.1041   47.1554 H   0  0  0  0  0  0  0  0  0  0  0  0
   61.1060   30.7870   49.1490 C   0  0  0  0  0  0  0  0  0  0  0  0
   61.7710   31.7830   49.6640 N   0  0  0  0  0  0  0  0  0  0  0  0
   61.9380   33.0690   49.0520 C   0  0  0  0  0  0  0  0  0  0  0  0
   62.9520   33.7580   49.3310 O   0  0  0  0  0  0  0  0  0  0  0  0
   60.9900   33.5650   48.0410 C   0  0  0  0  0  0  0  0  0  0  0  0
   61.3530   33.6220   46.6920 C   0  0  0  0  0  0  0  0  0  0  0  0
   62.3493   33.2782   46.3771 H   0  0  0  0  0  0  0  0  0  0  0  0
   60.4510   34.1160   45.7400 C   0  0  0  0  0  0  0  0  0  0  0  0
   60.7556   34.1927   44.6858 H   0  0  0  0  0  0  0  0  0  0  0  0
   59.1560   34.5150   46.1260 C   0  0  0  0  0  0  0  0  0  0  0  0
   58.1960   34.9740   45.2100 O   0  0  0  0  0  0  0  0  0  0  0  0
   57.1710   34.1760   44.6150 C   0  0  0  0  0  0  0  0  0  0  0  0
   56.2149   34.7181   44.6591 H   0  0  0  0  0  0  0  0  0  0  0  0
   57.4342   33.9710   43.5668 H   0  0  0  0  0  0  0  0  0  0  0  0
   57.0380   32.8470   45.3720 C   0  0  0  0  0  0  0  0  0  0  0  0
   57.2840   33.0071   46.4321 H   0  0  0  0  0  0  0  0  0  0  0  0
   56.0047   32.4823   45.2758 H   0  0  0  0  0  0  0  0  0  0  0  0
   57.9610   31.8360   44.8030 N   0  0  0  0  0  0  0  0  0  0  0  0
   58.1820   30.6920   45.7220 C   0  0  0  0  0  0  0  0  0  0  0  0
   59.1771   30.2673   45.5233 H   0  0  0  0  0  0  0  0  0  0  0  0
   58.1014   31.0707   46.7516 H   0  0  0  0  0  0  0  0  0  0  0  0
   57.1250   29.5790   45.5480 C   0  0  0  0  0  0  0  0  0  0  0  0
   57.5520   28.7695   44.9377 H   0  0  0  0  0  0  0  0  0  0  0  0
   56.8438   29.2038   46.5431 H   0  0  0  0  0  0  0  0  0  0  0  0
   55.9660   30.0770   44.9100 O   0  0  0  0  0  0  0  0  0  0  0  0
   56.2710   30.4510   43.5750 C   0  0  0  0  0  0  0  0  0  0  0  0
   56.4486   29.5388   42.9864 H   0  0  0  0  0  0  0  0  0  0  0  0
   55.4165   31.0261   43.1889 H   0  0  0  0  0  0  0  0  0  0  0  0
   57.5250   31.3560   43.4760 C   0  0  0  0  0  0  0  0  0  0  0  0
   58.3438   30.7812   43.0186 H   0  0  0  0  0  0  0  0  0  0  0  0
   57.2668   32.2323   42.8633 H   0  0  0  0  0  0  0  0  0  0  0  0
   58.7940   34.4380   47.4750 C   0  0  0  0  0  0  0  0  0  0  0  0
   57.7816   34.7353   47.7859 H   0  0  0  0  0  0  0  0  0  0  0  0
   59.7090   33.9860   48.4320 C   0  0  0  0  0  0  0  0  0  0  0  0
   59.4239   33.9604   49.4941 H   0  0  0  0  0  0  0  0  0  0  0  0
   60.2970   30.0060   49.9240 N   0  0  0  0  0  0  0  0  0  0  0  0
   59.6380   28.9240   49.4320 C   0  0  0  0  0  0  0  0  0  0  0  0
   58.9867   28.3298   50.0898 H   0  0  0  0  0  0  0  0  0  0  0  0
   59.7890   28.5670   48.0880 C   0  0  0  0  0  0  0  0  0  0  0  0
   59.1590   27.4280   47.5680 C   0  0  0  0  0  0  0  0  0  0  0  0
   58.5270   26.8054   48.2184 H   0  0  0  0  0  0  0  0  0  0  0  0
   57.6910   24.4260   47.2890 C   0  0  0  0  0  0  0  0  0  0  0  0
   58.6522   24.2495   47.7938 H   0  0  0  0  0  0  0  0  0  0  0  0
  1  2  1  0
  2  3  1  0
  3  4  1  0
  4  5  2  3
  5  6  1  0
  6  7  2  0
  6  8  1  0
  8  9  2  0
  9 10  1  0
  9 11  1  0
 11 12  1  0
 11 13  2  0
 13 14  1  0
 13 15  1  0
 15 16  1  0
 15 17  2  0
 17 18  1  0
  4 19  1  0
 19 20  1  0
 19 21  2  0
 21 22  1  0
 22 23  1  0
 23 24  1  0
 24 25  1  0
 24 26  2  0
 26 27  1  0
 26 28  1  0
 28 29  2  0
 29 30  1  0
 29 31  1  0
 31 32  2  0
 32 33  1  0
 33 34  2  0
 33 35  1  0
 35 36  2  0
 36 37  1  0
 36 38  1  0
 38 39  1  0
 38 40  2  0
 40 41  1  0
 41 42  1  0
 42 43  1  0
 42 44  1  0
 42 45  1  0
 45 46  1  0
 45 47  1  0
 45 48  1  0
 48 49  1  0
 49 50  1  0
 49 51  1  0
 49 52  1  0
 52 53  1  0
 52 54  1  0
 52 55  1  0
 55 56  1  0
 56 57  1  0
 56 58  1  0
 56 59  1  0
 59 60  1  0
 59 61  1  0
 40 62  1  0
 62 63  1  0
 62 64  2  0
 64 65  1  0
 31 66  1  0
 66 67  1  0
 67 68  1  0
 67 69  2  0
 69 70  1  0
 70 71  1  0
 21 72  1  0
 72 73  1  0
 72  2  2  0
 17  8  1  0
 70 23  2  0
 69 28  1  0
 64 35  1  0
 59 48  1  0
M  CHG  2   3  -1  66  -1
M  END
>  <UniqueID>  (86) 
85

>  <SMILES>  (86) 
O=C(N=c1cc(Oc2ccc3c/c(=N/C(=O)c4ccc(OCCN5CCOCC5)cc4)[n-]cc3c2)cc[n-]1)c1ccccc1

>  <Energy>  (86) 
125.18688862192879

>  <Genealogy>  (86) 
O=C(N=c1cc(Oc2ccc3cc(=NC(=O)c4ccc(OCCN5CCOCC5)cc4)[n-]cc3c2)cc[n-]1)c1ccccc1 (protonated)
O=C(N=c1cc(Oc2ccc3c/c(=N/C(=O)c4ccc(OCCN5CCOCC5)cc4)[n-]cc3c2)cc[n-]1)c1ccccc1 (cis-trans isomerization)
O=C(N=c1cc(Oc2ccc3c/c(=N/C(=O)c4ccc(OCCN5CCOCC5)cc4)[n-]cc3c2)cc[n-]1)c1ccccc1 (3D coordinates assigned)
O=C(N=c1cc(Oc2ccc3c/c(=N/C(=O)c4ccc(OCCN5CCOCC5)cc4)[n-]cc3c2)cc[n-]1)c1ccccc1 (nonaromatic ring conformer: 125.18688862192879 kcal/mol)

>  <smiles>  (86) 
O=C(N=c1cc(Oc2ccc3cc(=NC(=O)c4ccc(OCCN5CCOCC5)cc4)[nH]cc3c2)cc[nH]1)c1ccccc1

>  <score_type>  (86) 
oracle

>  <origin>  (86) 
adg

>  <m_score__min__energy>  (86) 
-12.81

>  <m_primary>  (86) 
energy

$$$$
86:0
     RDKit          3D

 49 51  0  0  0  0  0  0  0  0999 V2000
   56.0100   29.7400   52.7390 C   0  0  0  0  0  0  0  0  0  0  0  0
   57.0560   29.6800   51.7750 O   0  0  0  0  0  0  0  0  0  0  0  0
   57.7770   30.7940   51.3190 C   0  0  0  0  0  0  0  0  0  0  0  0
   58.4490   30.6950   50.0980 C   0  0  0  0  0  0  0  0  0  0  0  0
   59.1710   31.7810   49.5930 C   0  0  0  0  0  0  0  0  0  0  0  0
   59.2320   32.9910   50.3070 C   0  0  0  0  0  0  0  0  0  0  0  0
   59.9490   34.2170   49.7780 C   0  0  0  0  0  0  0  0  0  0  0  0
   60.7770   33.9430   48.5800 N   0  0  0  0  0  0  0  0  0  0  0  0
   60.2660   34.0330   47.3000 C   0  0  0  0  0  0  0  0  0  0  0  0
   58.5620   34.5230   46.9560 S   0  0  0  0  0  0  0  0  0  0  0  0
   58.4380   33.6910   45.3360 C   0  0  0  0  0  0  0  0  0  0  0  0
   58.2470   32.2170   45.4970 C   0  0  0  0  0  0  0  0  0  0  0  0
   57.1180   31.7150   45.2490 O   0  0  0  0  0  0  0  0  0  0  0  0
   59.3450   31.3920   45.9220 N   0  0  0  0  0  0  0  0  0  0  0  0
   59.2730   29.9600   46.0750 C   0  0  0  0  0  0  0  0  0  0  0  0
   58.3120   29.2130   45.3660 C   0  0  0  0  0  0  0  0  0  0  0  0
   58.2280   27.8290   45.5260 C   0  0  0  0  0  0  0  0  0  0  0  0
   59.0790   27.1740   46.4130 C   0  0  0  0  0  0  0  0  0  0  0  0
   60.0180   27.9000   47.1460 C   0  0  0  0  0  0  0  0  0  0  0  0
   60.1290   29.2910   46.9840 C   0  0  0  0  0  0  0  0  0  0  0  0
   61.1390   30.0460   47.8070 C   0  0  0  0  0  0  0  0  0  0  0  0
   61.0780   33.8320   46.2290 N   0  0  0  0  0  0  0  0  0  0  0  0
   62.3870   33.5190   46.3750 C   0  0  0  0  0  0  0  0  0  0  0  0
   62.9340   33.4260   47.6450 C   0  0  0  0  0  0  0  0  0  0  0  0
   62.1120   33.6560   48.7490 C   0  0  0  0  0  0  0  0  0  0  0  0
   62.6190   33.5980   49.9030 O   0  0  0  0  0  0  0  0  0  0  0  0
   58.5560   33.0870   51.5340 C   0  0  0  0  0  0  0  0  0  0  0  0
   57.8370   32.0000   52.0400 C   0  0  0  0  0  0  0  0  0  0  0  0
   56.4417   29.7152   53.7505 H   0  0  0  0  0  0  0  0  0  0  0  0
   55.4415   30.6722   52.6057 H   0  0  0  0  0  0  0  0  0  0  0  0
   55.3386   28.8789   52.6057 H   0  0  0  0  0  0  0  0  0  0  0  0
   58.4098   29.7545   49.5289 H   0  0  0  0  0  0  0  0  0  0  0  0
   59.6950   31.6881   48.6303 H   0  0  0  0  0  0  0  0  0  0  0  0
   59.1964   34.9751   49.5158 H   0  0  0  0  0  0  0  0  0  0  0  0
   60.6288   34.5630   50.5706 H   0  0  0  0  0  0  0  0  0  0  0  0
   57.5811   34.1055   44.7847 H   0  0  0  0  0  0  0  0  0  0  0  0
   59.3743   33.8622   44.7846 H   0  0  0  0  0  0  0  0  0  0  0  0
   60.2710   31.8590   46.0500 H   0  0  0  0  0  0  0  0  0  0  0  0
   57.6214   29.7251   44.6799 H   0  0  0  0  0  0  0  0  0  0  0  0
   57.4878   27.2541   44.9501 H   0  0  0  0  0  0  0  0  0  0  0  0
   59.0106   26.0830   46.5357 H   0  0  0  0  0  0  0  0  0  0  0  0
   60.6767   27.3791   47.8565 H   0  0  0  0  0  0  0  0  0  0  0  0
   60.9309   29.8905   48.8759 H   0  0  0  0  0  0  0  0  0  0  0  0
   62.1497   29.6802   47.5732 H   0  0  0  0  0  0  0  0  0  0  0  0
   61.0742   31.1189   47.5732 H   0  0  0  0  0  0  0  0  0  0  0  0
   63.0139   33.3392   45.4892 H   0  0  0  0  0  0  0  0  0  0  0  0
   63.9965   33.1755   47.7803 H   0  0  0  0  0  0  0  0  0  0  0  0
   58.5925   34.0276   52.1032 H   0  0  0  0  0  0  0  0  0  0  0  0
   57.3166   32.0883   53.0051 H   0  0  0  0  0  0  0  0  0  0  0  0
  1  2  1  0
  2  3  1  0
  3  4  2  0
  4  5  1  0
  5  6  2  0
  6  7  1  0
  7  8  1  0
  8  9  1  0
  9 10  1  0
 10 11  1  0
 11 12  1  0
 12 13  2  0
 12 14  1  0
 14 15  1  0
 15 16  2  0
 16 17  1  0
 17 18  2  0
 18 19  1  0
 19 20  2  0
 20 21  1  0
  9 22  2  0
 22 23  1  0
 23 24  2  0
 24 25  1  0
 25 26  2  0
  6 27  1  0
 27 28  2  0
 28  3  1  0
 25  8  1  0
 20 15  1  0
  1 29  1  0
  1 30  1  0
  1 31  1  0
  4 32  1  0
  5 33  1  0
  7 34  1  0
  7 35  1  0
 11 36  1  0
 11 37  1  0
 14 38  1  0
 16 39  1  0
 17 40  1  0
 18 41  1  0
 19 42  1  0
 21 43  1  0
 21 44  1  0
 21 45  1  0
 23 46  1  0
 24 47  1  0
 27 48  1  0
 28 49  1  0
M  END
>  <UniqueID>  (87) 
86

>  <SMILES>  (87) 
COc1ccc(Cn2c(SCC(=O)Nc3ccccc3C)nccc2=O)cc1

>  <Energy>  (87) 
51.34863514075883

>  <Genealogy>  (87) 
COc1ccc(Cn2c(SCC(=O)Nc3ccccc3C)nccc2=O)cc1 (3D coordinates assigned)
COc1ccc(Cn2c(SCC(=O)Nc3ccccc3C)nccc2=O)cc1 (optimized conformer: 51.34863514075883 kcal/mol)

>  <smiles>  (87) 
COc1ccc(Cn2c(SCC(=O)Nc3ccccc3C)nccc2=O)cc1

>  <score_type>  (87) 
oracle

>  <origin>  (87) 
adg

>  <m_score__min__energy>  (87) 
-8.5199999999999996

>  <m_primary>  (87) 
energy

$$$$
87:0
     RDKit          3D

 42 44  0  0  0  0  0  0  0  0999 V2000
   62.8210   34.4270   51.5600 H   0  0  0  0  0  0  0  0  0  0  0  0
   63.6340   34.6310   50.9380 N   0  0  0  0  0  0  0  0  0  0  0  0
   64.0310   33.7110   49.9230 C   0  0  0  0  0  0  0  0  0  0  0  0
   65.2570   33.4580   49.7700 O   0  0  0  0  0  0  0  0  0  0  0  0
   63.0200   33.0600   49.0570 C   0  0  0  0  0  0  0  0  0  0  0  0
   63.3620   31.9470   48.2680 C   0  0  0  0  0  0  0  0  0  0  0  0
   64.3892   31.5544   48.2943 H   0  0  0  0  0  0  0  0  0  0  0  0
   62.4070   31.3360   47.4510 C   0  0  0  0  0  0  0  0  0  0  0  0
   62.6920   30.4735   46.8306 H   0  0  0  0  0  0  0  0  0  0  0  0
   61.0900   31.8120   47.4150 C   0  0  0  0  0  0  0  0  0  0  0  0
   60.1380   31.1780   46.5410 N   0  0  0  0  0  0  0  0  0  0  0  0
   60.3730   31.1280   45.5240 H   0  0  0  0  0  0  0  0  0  0  0  0
   58.9340   30.5290   46.9790 C   0  0  0  0  0  0  0  0  0  0  0  0
   58.6910   30.3790   48.2070 O   0  0  0  0  0  0  0  0  0  0  0  0
   57.9930   29.9750   45.9900 C   0  0  0  0  0  0  0  0  0  0  0  0
   57.4330   30.6850   44.9340 C   0  0  0  0  0  0  0  0  0  0  0  0
   57.5650   32.1570   44.6650 C   0  0  0  0  0  0  0  0  0  0  0  0
   57.6138   32.7013   45.6197 H   0  0  0  0  0  0  0  0  0  0  0  0
   58.4835   32.3436   44.0892 H   0  0  0  0  0  0  0  0  0  0  0  0
   56.6944   32.5040   44.0892 H   0  0  0  0  0  0  0  0  0  0  0  0
   56.7420   29.7580   44.1650 C   0  0  0  0  0  0  0  0  0  0  0  0
   56.0350   30.0140   43.0630 C   0  0  0  0  0  0  0  0  0  0  0  0
   55.9609   31.0440   42.6840 H   0  0  0  0  0  0  0  0  0  0  0  0
   55.5262   29.1951   42.5334 H   0  0  0  0  0  0  0  0  0  0  0  0
   56.8770   28.5230   44.6870 N   0  0  0  0  0  0  0  0  0  0  0  0
   56.4550   27.6440   44.3090 H   0  0  0  0  0  0  0  0  0  0  0  0
   57.6220   28.6380   45.8070 C   0  0  0  0  0  0  0  0  0  0  0  0
   57.8990   27.5760   46.5870 C   0  0  0  0  0  0  0  0  0  0  0  0
   58.5502   27.7409   47.4581 H   0  0  0  0  0  0  0  0  0  0  0  0
   57.3940   26.2050   46.3610 C   0  0  0  0  0  0  0  0  0  0  0  0
   56.0330   25.9860   46.1060 C   0  0  0  0  0  0  0  0  0  0  0  0
   55.1510   27.0560   46.0030 O   0  0  0  0  0  0  0  0  0  0  0  0
   55.5680   24.7200   45.9510 N   0  0  0  0  0  0  0  0  0  0  0  0
   56.3960   23.6500   46.0540 C   0  0  0  0  0  0  0  0  0  0  0  0
   55.9440   22.4870   45.9000 O   0  0  0  0  0  0  0  0  0  0  0  0
   57.7130   23.8340   46.3270 N   0  0  0  0  0  0  0  0  0  0  0  0
   58.2290   25.0800   46.4900 C   0  0  0  0  0  0  0  0  0  0  0  0
   59.4520   25.2120   46.7650 O   0  0  0  0  0  0  0  0  0  0  0  0
   60.7500   32.9370   48.1870 C   0  0  0  0  0  0  0  0  0  0  0  0
   59.7261   33.3371   48.1482 H   0  0  0  0  0  0  0  0  0  0  0  0
   61.7040   33.5500   49.0030 C   0  0  0  0  0  0  0  0  0  0  0  0
   61.4225   34.4240   49.6087 H   0  0  0  0  0  0  0  0  0  0  0  0
  1  2  1  0
  2  3  1  0
  3  4  2  0
  3  5  1  0
  5  6  2  0
  6  7  1  0
  6  8  1  0
  8  9  1  0
  8 10  2  0
 10 11  1  0
 11 12  1  0
 11 13  1  0
 13 14  2  0
 13 15  1  0
 15 16  2  0
 16 17  1  0
 17 18  1  0
 17 19  1  0
 17 20  1  0
 16 21  1  0
 21 22  2  0
 22 23  1  0
 22 24  1  0
 21 25  1  0
 25 26  1  0
 25 27  1  0
 27 28  2  0
 28 29  1  0
 28 30  1  0
 30 31  2  0
 31 32  1  0
 31 33  1  0
 33 34  1  0
 34 35  2  0
 34 36  1  0
 36 37  1  0
 37 38  2  0
 10 39  1  0
 39 40  1  0
 39 41  2  0
 41 42  1  0
 41  5  1  0
 27 15  1  0
 37 30  1  0
M  CHG  4   2  -1  32  -1  33  -1  36  -1
M  END
>  <UniqueID>  (88) 
87

>  <SMILES>  (88) 
C=c1[nH]/c(=C/c2c([O-])[n-]c(=O)[n-]c2=O)c(C(=O)Nc2ccc(C([NH-])=O)cc2)c1C

>  <Energy>  (88) 
90.46736210196313

>  <Genealogy>  (88) 
C=c1[nH]c(=Cc2c([O-])[n-]c(=O)[n-]c2=O)c(C(=O)Nc2ccc(C([NH-])=O)cc2)c1C (protonated)
C=c1[nH]/c(=C/c2c([O-])[n-]c(=O)[n-]c2=O)c(C(=O)Nc2ccc(C([NH-])=O)cc2)c1C (cis-trans isomerization)
C=c1[nH]/c(=C/c2c([O-])[n-]c(=O)[n-]c2=O)c(C(=O)Nc2ccc(C([NH-])=O)cc2)c1C (3D coordinates assigned)
C=c1[nH]/c(=C/c2c([O-])[n-]c(=O)[n-]c2=O)c(C(=O)Nc2ccc(C([NH-])=O)cc2)c1C (optimized conformer: 90.46736210196313 kcal/mol)

>  <smiles>  (88) 
C=c1[nH]c(=Cc2c(O)[nH]c(=O)[nH]c2=O)c(C(=O)Nc2ccc(C(N)=O)cc2)c1C

>  <score_type>  (88) 
oracle

>  <origin>  (88) 
adg

>  <m_score__min__energy>  (88) 
-15.710000000000001

>  <m_primary>  (88) 
energy

$$$$
88:0
     RDKit          3D

 50 52  0  0  0  0  0  0  0  0999 V2000
   55.7690   30.4660   44.8520 O   0  0  0  0  0  0  0  0  0  0  0  0
   57.0280   30.4640   44.7970 C   0  0  0  0  0  0  0  0  0  0  0  0
   57.7430   29.2570   44.4960 N   0  0  0  0  0  0  0  0  0  0  0  0
   58.2710   28.3190   45.4440 C   0  0  0  0  0  0  0  0  0  0  0  0
   58.1520   26.9280   45.2650 C   0  0  0  0  0  0  0  0  0  0  0  0
   58.6640   26.0490   46.2250 C   0  0  0  0  0  0  0  0  0  0  0  0
   58.5160   24.3160   45.9950 Cl  0  0  0  0  0  0  0  0  0  0  0  0
   59.2850   26.5490   47.3740 C   0  0  0  0  0  0  0  0  0  0  0  0
   59.3830   27.9300   47.5700 C   0  0  0  0  0  0  0  0  0  0  0  0
   60.1460   28.5580   49.0190 Cl  0  0  0  0  0  0  0  0  0  0  0  0
   58.8710   28.8110   46.6110 C   0  0  0  0  0  0  0  0  0  0  0  0
   57.7800   31.7570   44.9640 C   0  0  1  0  0  0  0  0  0  0  0  0
   58.0470   32.4070   43.6000 C   0  0  0  0  0  0  0  0  0  0  0  0
   58.8470   33.7120   43.7690 C   0  0  0  0  0  0  0  0  0  0  0  0
   58.3670   34.5860   44.8790 N   0  0  2  0  0  0  0  0  0  0  0  0
   59.5880   34.7620   46.1270 S   0  0  0  0  0  0  0  0  0  0  0  0
   59.9420   36.2190   46.2510 O   0  0  0  0  0  0  0  0  0  0  0  0
   60.8300   33.9940   45.7650 O   0  0  0  0  0  0  0  0  0  0  0  0
   58.9870   34.1840   47.7110 C   0  0  0  0  0  0  0  0  0  0  0  0
   60.0980   34.2110   48.7610 C   0  0  0  0  0  0  0  0  0  0  0  0
   61.2520   33.3470   48.3310 C   0  0  0  0  0  0  0  0  0  0  0  0
   61.0330   32.0150   47.9380 C   0  0  0  0  0  0  0  0  0  0  0  0
   62.1100   31.2020   47.5710 C   0  0  0  0  0  0  0  0  0  0  0  0
   63.4120   31.7090   47.6030 C   0  0  0  0  0  0  0  0  0  0  0  0
   63.6400   33.0280   48.0060 C   0  0  0  0  0  0  0  0  0  0  0  0
   62.5660   33.8450   48.3730 C   0  0  0  0  0  0  0  0  0  0  0  0
   57.0580   34.1820   45.4380 C   0  0  0  0  0  0  0  0  0  0  0  0
   57.0290   32.7180   45.9160 C   0  0  0  0  0  0  0  0  0  0  0  0
   57.6549   26.5311   44.3676 H   0  0  0  0  0  0  0  0  0  0  0  0
   59.6961   25.8563   48.1231 H   0  0  0  0  0  0  0  0  0  0  0  0
   58.9399   29.8966   46.7742 H   0  0  0  0  0  0  0  0  0  0  0  0
   58.7533   31.5342   45.4256 H   0  0  0  0  0  0  0  0  0  0  0  0
   57.0869   32.6320   43.1126 H   0  0  0  0  0  0  0  0  0  0  0  0
   58.6325   31.7094   42.9831 H   0  0  0  0  0  0  0  0  0  0  0  0
   58.7815   34.2806   42.8296 H   0  0  0  0  0  0  0  0  0  0  0  0
   59.8773   33.4201   44.0204 H   0  0  0  0  0  0  0  0  0  0  0  0
   58.2350   35.5490   44.4880 H   0  0  0  0  0  0  0  0  0  0  0  0
   58.1632   34.8334   48.0420 H   0  0  0  0  0  0  0  0  0  0  0  0
   58.6379   33.1472   47.5965 H   0  0  0  0  0  0  0  0  0  0  0  0
   60.4489   35.2455   48.8899 H   0  0  0  0  0  0  0  0  0  0  0  0
   59.6991   33.8243   49.7104 H   0  0  0  0  0  0  0  0  0  0  0  0
   60.0102   31.6106   47.9191 H   0  0  0  0  0  0  0  0  0  0  0  0
   61.9323   30.1629   47.2570 H   0  0  0  0  0  0  0  0  0  0  0  0
   64.2581   31.0696   47.3108 H   0  0  0  0  0  0  0  0  0  0  0  0
   64.6659   33.4239   48.0345 H   0  0  0  0  0  0  0  0  0  0  0  0
   62.7499   34.8805   48.6955 H   0  0  0  0  0  0  0  0  0  0  0  0
   56.2907   34.3113   44.6605 H   0  0  0  0  0  0  0  0  0  0  0  0
   56.8671   34.8167   46.3159 H   0  0  0  0  0  0  0  0  0  0  0  0
   55.9805   32.3930   45.9869 H   0  0  0  0  0  0  0  0  0  0  0  0
   57.5372   32.6797   46.8908 H   0  0  0  0  0  0  0  0  0  0  0  0
  1  2  2  0
  2  3  1  0
  3  4  1  0
  4  5  2  0
  5  6  1  0
  6  7  1  0
  6  8  2  0
  8  9  1  0
  9 10  1  0
  9 11  2  0
  2 12  1  0
 12 13  1  0
 13 14  1  0
 14 15  1  0
 15 16  1  0
 16 17  2  0
 16 18  2  0
 16 19  1  0
 19 20  1  0
 20 21  1  0
 21 22  2  0
 22 23  1  0
 23 24  2  0
 24 25  1  0
 25 26  2  0
 15 27  1  0
 27 28  1  0
 11  4  1  0
 28 12  1  0
 26 21  1  0
  5 29  1  0
  8 30  1  0
 11 31  1  0
 12 32  1  1
 13 33  1  0
 13 34  1  0
 14 35  1  0
 14 36  1  0
 15 37  1  6
 19 38  1  0
 19 39  1  0
 20 40  1  0
 20 41  1  0
 22 42  1  0
 23 43  1  0
 24 44  1  0
 25 45  1  0
 26 46  1  0
 27 47  1  0
 27 48  1  0
 28 49  1  0
 28 50  1  0
M  CHG  2   3  -1  15   1
M  END
>  <UniqueID>  (89) 
88

>  <SMILES>  (89) 
O=C([N-]c1cc(Cl)cc(Cl)c1)C1CC[NH+](S(=O)(=O)CCc2ccccc2)CC1

>  <Energy>  (89) 
55.32049335265817

>  <Genealogy>  (89) 
O=C([N-]c1cc(Cl)cc(Cl)c1)C1CC[NH+](S(=O)(=O)CCc2ccccc2)CC1 (protonated)
O=C([N-]c1cc(Cl)cc(Cl)c1)C1CC[NH+](S(=O)(=O)CCc2ccccc2)CC1 (3D coordinates assigned)
O=C([N-]c1cc(Cl)cc(Cl)c1)C1CC[NH+](S(=O)(=O)CCc2ccccc2)CC1 (nonaromatic ring conformer: 55.32049335265817 kcal/mol)

>  <smiles>  (89) 
O=C(Nc1cc(Cl)cc(Cl)c1)C1CCN(S(=O)(=O)CCc2ccccc2)CC1

>  <score_type>  (89) 
oracle

>  <origin>  (89) 
adg

>  <m_score__min__energy>  (89) 
-9.8900000000000006

>  <m_primary>  (89) 
energy

$$$$
