0:0
     RDKit          3D

 51 53  0  0  0  0  0  0  0  0999 V2000
   57.5220   29.6740   51.5450 O   0  0  0  0  0  0  0  0  0  0  0  0
   58.1500   30.3980   50.7200 C   0  0  0  0  0  0  0  0  0  0  0  0
   58.5200   31.6960   50.9880 C   0  0  0  0  0  0  0  0  0  0  0  0
   59.2020   32.4250   50.0450 C   0  0  0  0  0  0  0  0  0  0  0  0
   59.6540   33.8250   50.2320 C   0  0  0  0  0  0  0  0  0  0  0  0
   60.5440   34.2130   49.2940 O   0  0  0  0  0  0  0  0  0  0  0  0
   61.7200   33.8640   48.7770 C   0  0  0  0  0  0  0  0  0  0  0  0
   62.8860   33.5390   49.4320 C   0  0  0  0  0  0  0  0  0  0  0  0
   64.0550   33.1870   48.7920 C   0  0  0  0  0  0  0  0  0  0  0  0
   64.0870   33.1540   47.4230 C   0  0  0  0  0  0  0  0  0  0  0  0
   62.9550   33.4690   46.7200 C   0  0  0  0  0  0  0  0  0  0  0  0
   61.8130   33.8120   47.3670 C   0  0  0  0  0  0  0  0  0  0  0  0
   59.4970   31.8460   48.8620 N   0  0  0  0  0  0  0  0  0  0  0  0
   59.1460   30.5660   48.5660 C   0  0  0  0  0  0  0  0  0  0  0  0
   59.6370   29.9210   47.0030 S   0  0  0  0  0  0  0  0  0  0  0  0
   58.5650   28.6580   46.3750 C   0  0  0  0  0  0  0  0  0  0  0  0
   57.3480   29.0430   45.6220 C   0  0  0  0  0  0  0  0  0  0  0  0
   57.4830   29.4900   44.2220 C   0  0  0  0  0  0  0  0  0  0  0  0
   56.8360   30.8690   44.0430 C   0  0  0  0  0  0  0  0  0  0  0  0
   57.7850   31.9330   43.6190 C   0  0  0  0  0  0  0  0  0  0  0  0
   58.1010   32.8780   44.7490 C   0  0  0  0  0  0  0  0  0  0  0  0
   58.9840   33.9170   44.5060 C   0  0  0  0  0  0  0  0  0  0  0  0
   59.2730   34.7860   45.5460 C   0  0  0  0  0  0  0  0  0  0  0  0
   58.6890   34.6020   46.7680 C   0  0  0  0  0  0  0  0  0  0  0  0
   57.8090   33.5610   47.0010 C   0  0  0  0  0  0  0  0  0  0  0  0
   57.5020   32.6790   45.9790 C   0  0  0  0  0  0  0  0  0  0  0  0
   58.4840   29.9020   49.5200 N   0  0  0  0  0  0  0  0  0  0  0  0
   58.2693   32.1499   51.9581 H   0  0  0  0  0  0  0  0  0  0  0  0
   58.7776   34.4878   50.1816 H   0  0  0  0  0  0  0  0  0  0  0  0
   60.1532   33.8860   51.2103 H   0  0  0  0  0  0  0  0  0  0  0  0
   62.8850   33.5615   50.5318 H   0  0  0  0  0  0  0  0  0  0  0  0
   64.9532   32.9351   49.3749 H   0  0  0  0  0  0  0  0  0  0  0  0
   65.0113   32.8777   46.8945 H   0  0  0  0  0  0  0  0  0  0  0  0
   62.9717   33.4437   45.6204 H   0  0  0  0  0  0  0  0  0  0  0  0
   60.9228   34.0598   46.7702 H   0  0  0  0  0  0  0  0  0  0  0  0
   60.0230   32.4070   48.1320 H   0  0  0  0  0  0  0  0  0  0  0  0
   59.1697   28.0284   45.7058 H   0  0  0  0  0  0  0  0  0  0  0  0
   58.1674   28.1810   47.2830 H   0  0  0  0  0  0  0  0  0  0  0  0
   56.6815   28.1679   45.6179 H   0  0  0  0  0  0  0  0  0  0  0  0
   56.9836   29.9367   46.1497 H   0  0  0  0  0  0  0  0  0  0  0  0
   58.5499   29.5524   43.9615 H   0  0  0  0  0  0  0  0  0  0  0  0
   56.9780   28.7678   43.5637 H   0  0  0  0  0  0  0  0  0  0  0  0
   56.0478   30.7847   43.2803 H   0  0  0  0  0  0  0  0  0  0  0  0
   56.4440   31.1663   45.0268 H   0  0  0  0  0  0  0  0  0  0  0  0
   58.7182   31.4626   43.2757 H   0  0  0  0  0  0  0  0  0  0  0  0
   57.3146   32.5104   42.8095 H   0  0  0  0  0  0  0  0  0  0  0  0
   59.4431   34.0487   43.5151 H   0  0  0  0  0  0  0  0  0  0  0  0
   59.9706   35.6218   45.3885 H   0  0  0  0  0  0  0  0  0  0  0  0
   58.9247   35.2988   47.5859 H   0  0  0  0  0  0  0  0  0  0  0  0
   57.3546   33.4342   47.9947 H   0  0  0  0  0  0  0  0  0  0  0  0
   56.8028   31.8453   46.1407 H   0  0  0  0  0  0  0  0  0  0  0  0
  1  2  2  0
  2  3  1  0
  3  4  2  0
  4  5  1  0
  5  6  1  0
  6  7  1  0
  7  8  2  0
  8  9  1  0
  9 10  2  0
 10 11  1  0
 11 12  2  0
  4 13  1  0
 13 14  1  0
 14 15  1  0
 15 16  1  0
 16 17  1  0
 17 18  1  0
 18 19  1  0
 19 20  1  0
 20 21  1  0
 21 22  2  0
 22 23  1  0
 23 24  2  0
 24 25  1  0
 25 26  2  0
 14 27  2  0
 27  2  1  0
 12  7  1  0
 26 21  1  0
  3 28  1  0
  5 29  1  0
  5 30  1  0
  8 31  1  0
  9 32  1  0
 10 33  1  0
 11 34  1  0
 12 35  1  0
 13 36  1  0
 16 37  1  0
 16 38  1  0
 17 39  1  0
 17 40  1  0
 18 41  1  0
 18 42  1  0
 19 43  1  0
 19 44  1  0
 20 45  1  0
 20 46  1  0
 22 47  1  0
 23 48  1  0
 24 49  1  0
 25 50  1  0
 26 51  1  0
M  END
>  <smiles>  (1) 
O=c1cc(COc2ccccc2)[nH]c(SCCCCCc2ccccc2)n1

>  <score_type>  (1) 
oracle

>  <origin>  (1) 
adg

>  <m_score__min__energy>  (1) 
-8.0099999999999998

>  <m_primary>  (1) 
energy

$$$$
1:0
     RDKit          3D

 20 20  0  0  0  0  0  0  0  0999 V2000
   55.1320   25.1930   47.0200 H   0  0  0  0  0  0  0  0  0  0  0  0
   55.7530   24.4540   47.3240 O   0  0  0  0  0  0  0  0  0  0  0  0
   57.1140   24.6210   47.2410 N   0  0  0  0  0  0  0  0  0  0  0  0
   57.6620   25.0290   46.1420 C   0  0  0  0  0  0  0  0  0  0  0  0
   58.2249   24.3103   45.5283 H   0  0  0  0  0  0  0  0  0  0  0  0
   57.5550   26.4300   45.6860 C   0  0  0  0  0  0  0  0  0  0  0  0
   58.6880   27.0360   45.2370 N   0  0  0  0  0  0  0  0  0  0  0  0
   58.7050   28.3190   44.7960 C   0  0  0  0  0  0  0  0  0  0  0  0
   59.6451   28.7612   44.4345 H   0  0  0  0  0  0  0  0  0  0  0  0
   57.5310   29.0830   44.7990 C   0  0  0  0  0  0  0  0  0  0  0  0
   57.5460   30.4950   44.2810 C   0  0  0  0  0  0  0  0  0  0  0  0
   58.5547   30.9180   44.3971 H   0  0  0  0  0  0  0  0  0  0  0  0
   57.2684   30.4995   43.2166 H   0  0  0  0  0  0  0  0  0  0  0  0
   56.6300   31.2650   45.0070 O   0  0  0  0  0  0  0  0  0  0  0  0
   55.8820   30.6560   45.2390 H   0  0  0  0  0  0  0  0  0  0  0  0
   56.3390   28.4850   45.2380 C   0  0  0  0  0  0  0  0  0  0  0  0
   55.1500   29.2090   45.2240 O   0  0  0  0  0  0  0  0  0  0  0  0
   56.3420   27.1540   45.6910 C   0  0  0  0  0  0  0  0  0  0  0  0
   55.1610   26.5590   46.1370 O   0  0  0  0  0  0  0  0  0  0  0  0
   54.3350   27.0990   46.3680 H   0  0  0  0  0  0  0  0  0  0  0  0
  1  2  1  0
  2  3  1  0
  3  4  2  0
  4  5  1  0
  4  6  1  0
  6  7  2  0
  7  8  1  0
  8  9  1  0
  8 10  2  0
 10 11  1  0
 11 12  1  0
 11 13  1  0
 11 14  1  0
 14 15  1  0
 10 16  1  0
 16 17  1  0
 16 18  2  0
 18 19  1  0
 19 20  1  0
 18  6  1  0
M  CHG  1  17  -1
M  END
>  <UniqueID>  (2) 
1

>  <SMILES>  (2) 
[O-]c1c(CO)cnc(/C=N/O)c1O

>  <Energy>  (2) 
18.895699015784263

>  <Genealogy>  (2) 
[O-]c1c(CO)cnc(C=NO)c1O (protonated)
[O-]c1c(CO)cnc(/C=N/O)c1O (cis-trans isomerization)
[O-]c1c(CO)cnc(/C=N/O)c1O (3D coordinates assigned)
[O-]c1c(CO)cnc(/C=N/O)c1O (optimized conformer: 18.895699015784263 kcal/mol)

>  <smiles>  (2) 
OCc1cnc(C=NO)c(O)c1O

>  <score_type>  (2) 
oracle

>  <origin>  (2) 
adg

>  <m_score__min__energy>  (2) 
-9.5999999999999996

>  <m_primary>  (2) 
energy

$$$$
2:0
     RDKit          3D

 46 48  0  0  0  0  0  0  0  0999 V2000
   57.4230   28.0540   43.5500 O   0  0  0  0  0  0  0  0  0  0  0  0
   57.3310   28.4210   44.7530 C   0  0  0  0  0  0  0  0  0  0  0  0
   56.3610   27.8190   45.6190 N   0  0  0  0  0  0  0  0  0  0  0  0
   56.6000   26.5820   46.3500 C   0  0  0  0  0  0  0  0  0  0  0  0
   55.6980   25.5040   45.8430 C   0  0  0  0  0  0  0  0  0  0  0  0
   56.0940   24.3870   45.1350 C   0  0  0  0  0  0  0  0  0  0  0  0
   54.9330   23.7060   44.8400 C   0  0  0  0  0  0  0  0  0  0  0  0
   53.9030   24.4500   45.3790 C   0  0  0  0  0  0  0  0  0  0  0  0
   54.3910   25.5180   45.9690 O   0  0  0  0  0  0  0  0  0  0  0  0
   58.2350   29.5140   45.2710 C   0  0  1  0  0  0  0  0  0  0  0  0
   59.4850   28.9160   45.9420 C   0  0  0  0  0  0  0  0  0  0  0  0
   60.0250   29.8180   47.0240 C   0  0  0  0  0  0  0  0  0  0  0  0
   59.4650   29.7870   48.3130 C   0  0  0  0  0  0  0  0  0  0  0  0
   59.9890   30.5960   49.3270 C   0  0  0  0  0  0  0  0  0  0  0  0
   61.0760   31.4330   49.0640 C   0  0  0  0  0  0  0  0  0  0  0  0
   61.6440   31.4620   47.7880 C   0  0  0  0  0  0  0  0  0  0  0  0
   61.1240   30.6560   46.7710 C   0  0  0  0  0  0  0  0  0  0  0  0
   58.6530   30.4290   44.1950 N   0  0  0  0  0  0  0  0  0  0  0  0
   57.7140   31.8970   44.1770 S   0  0  0  0  0  0  0  0  0  0  0  0
   56.2840   31.5860   44.5210 O   0  0  0  0  0  0  0  0  0  0  0  0
   57.7500   32.4830   42.7950 O   0  0  0  0  0  0  0  0  0  0  0  0
   58.3620   33.0830   45.3100 C   0  0  0  0  0  0  0  0  0  0  0  0
   59.0710   34.1900   44.8250 C   0  0  0  0  0  0  0  0  0  0  0  0
   59.6140   35.1210   45.7160 C   0  0  0  0  0  0  0  0  0  0  0  0
   59.4520   34.9480   47.0940 C   0  0  0  0  0  0  0  0  0  0  0  0
   58.7490   33.8440   47.5820 C   0  0  0  0  0  0  0  0  0  0  0  0
   58.2050   32.9110   46.6930 C   0  0  0  0  0  0  0  0  0  0  0  0
   57.6472   26.2747   46.2127 H   0  0  0  0  0  0  0  0  0  0  0  0
   56.3962   26.7495   47.4179 H   0  0  0  0  0  0  0  0  0  0  0  0
   57.1208   24.1007   44.8634 H   0  0  0  0  0  0  0  0  0  0  0  0
   54.8448   22.7596   44.2862 H   0  0  0  0  0  0  0  0  0  0  0  0
   52.8359   24.1887   45.3232 H   0  0  0  0  0  0  0  0  0  0  0  0
   57.6570   30.0850   46.0125 H   0  0  0  0  0  0  0  0  0  0  0  0
   59.2206   27.9452   46.3866 H   0  0  0  0  0  0  0  0  0  0  0  0
   60.2633   28.7996   45.1735 H   0  0  0  0  0  0  0  0  0  0  0  0
   58.6125   29.1249   48.5249 H   0  0  0  0  0  0  0  0  0  0  0  0
   59.5444   30.5730   50.3329 H   0  0  0  0  0  0  0  0  0  0  0  0
   61.4851   32.0698   49.8622 H   0  0  0  0  0  0  0  0  0  0  0  0
   62.5015   32.1199   47.5833 H   0  0  0  0  0  0  0  0  0  0  0  0
   61.5770   30.6780   45.7688 H   0  0  0  0  0  0  0  0  0  0  0  0
   58.5350   29.9630   43.2660 H   0  0  0  0  0  0  0  0  0  0  0  0
   59.2007   34.3270   43.7413 H   0  0  0  0  0  0  0  0  0  0  0  0
   60.1689   35.9899   45.3326 H   0  0  0  0  0  0  0  0  0  0  0  0
   59.8783   35.6816   47.7941 H   0  0  0  0  0  0  0  0  0  0  0  0
   58.6231   33.7082   48.6663 H   0  0  0  0  0  0  0  0  0  0  0  0
   57.6533   32.0412   47.0792 H   0  0  0  0  0  0  0  0  0  0  0  0
  1  2  2  0
  2  3  1  0
  3  4  1  0
  4  5  1  0
  5  6  2  0
  6  7  1  0
  7  8  2  0
  8  9  1  0
  2 10  1  0
 10 11  1  0
 11 12  1  0
 12 13  2  0
 13 14  1  0
 14 15  2  0
 15 16  1  0
 16 17  2  0
 10 18  1  0
 18 19  1  0
 19 20  2  0
 19 21  2  0
 19 22  1  0
 22 23  2  0
 23 24  1  0
 24 25  2  0
 25 26  1  0
 26 27  2  0
  9  5  1  0
 17 12  1  0
 27 22  1  0
  4 28  1  0
  4 29  1  0
  6 30  1  0
  7 31  1  0
  8 32  1  0
 10 33  1  1
 11 34  1  0
 11 35  1  0
 13 36  1  0
 14 37  1  0
 15 38  1  0
 16 39  1  0
 17 40  1  0
 18 41  1  0
 23 42  1  0
 24 43  1  0
 25 44  1  0
 26 45  1  0
 27 46  1  0
M  CHG  1   3  -1
M  END
>  <UniqueID>  (3) 
2

>  <SMILES>  (3) 
O=C([N-]Cc1ccco1)[C@@H](Cc1ccccc1)NS(=O)(=O)c1ccccc1

>  <Energy>  (3) 
66.06831302400197

>  <Genealogy>  (3) 
O=C([N-]Cc1ccco1)C(Cc1ccccc1)NS(=O)(=O)c1ccccc1 (protonated)
O=C([N-]Cc1ccco1)[C@@H](Cc1ccccc1)NS(=O)(=O)c1ccccc1 (chirality)
O=C([N-]Cc1ccco1)[C@@H](Cc1ccccc1)NS(=O)(=O)c1ccccc1 (3D coordinates assigned)
O=C([N-]Cc1ccco1)[C@@H](Cc1ccccc1)NS(=O)(=O)c1ccccc1 (optimized conformer: 66.06831302400197 kcal/mol)

>  <smiles>  (3) 
O=C(NCc1ccco1)C(Cc1ccccc1)NS(=O)(=O)c1ccccc1

>  <score_type>  (3) 
oracle

>  <origin>  (3) 
adg

>  <m_score__min__energy>  (3) 
-11.33

>  <m_primary>  (3) 
energy

$$$$
3:0
     RDKit          3D

 68 72  0  0  0  0  0  0  0  0999 V2000
   63.3840   34.0100   46.4520 C   0  0  0  0  0  0  0  0  0  0  0  0
   63.7490   32.7170   47.1760 C   0  0  0  0  0  0  0  0  0  0  0  0
   63.1560   32.6660   48.5520 C   0  0  0  0  0  0  0  0  0  0  0  0
   63.8360   32.9380   49.7250 C   0  0  0  0  0  0  0  0  0  0  0  0
   62.9110   32.7930   50.7380 C   0  0  0  0  0  0  0  0  0  0  0  0
   61.7270   32.4450   50.1150 C   0  0  0  0  0  0  0  0  0  0  0  0
   60.4350   32.1280   50.8010 C   0  0  0  0  0  0  0  0  0  0  0  0
   60.1490   30.6770   50.7300 N   0  0  0  0  0  0  0  0  0  0  0  0
   61.2870   29.8900   50.1830 C   0  0  0  0  0  0  0  0  0  0  0  0
   61.0380   29.3110   48.7730 C   0  0  0  0  0  0  0  0  0  0  0  0
   60.2680   30.3230   47.9030 C   0  0  0  0  0  0  0  0  0  0  0  0
   60.1980   29.8880   46.4700 N   0  0  1  0  0  0  0  0  0  0  0  0
   59.6660   28.5630   46.3200 C   0  0  0  0  0  0  0  0  0  0  0  0
   60.3050   27.5270   46.6550 O   0  0  0  0  0  0  0  0  0  0  0  0
   58.3840   28.5020   45.7130 N   0  0  0  0  0  0  0  0  0  0  0  0
   57.4990   27.3280   45.7640 C   0  0  0  0  0  0  0  0  0  0  0  0
   57.7290   26.3990   44.5560 C   0  0  0  0  0  0  0  0  0  0  0  0
   57.1860   24.9830   44.8260 C   0  0  0  0  0  0  0  0  0  0  0  0
   56.1840   25.0030   45.8240 O   0  0  0  0  0  0  0  0  0  0  0  0
   56.7590   25.2960   47.0900 C   0  0  0  0  0  0  0  0  0  0  0  0
   57.6730   26.5460   47.0740 C   0  0  0  0  0  0  0  0  0  0  0  0
   57.9720   29.8740   45.4660 C   0  0  0  0  0  0  0  0  0  0  0  0
   59.2860   30.6790   45.5940 C   0  0  1  0  0  0  0  0  0  0  0  0
   59.1920   32.1700   45.9210 C   0  0  0  0  0  0  0  0  0  0  0  0
   60.2810   32.9440   46.3760 C   0  0  0  0  0  0  0  0  0  0  0  0
   60.1240   34.3110   46.6250 C   0  0  0  0  0  0  0  0  0  0  0  0
   58.8850   34.9240   46.4330 C   0  0  0  0  0  0  0  0  0  0  0  0
   57.7950   34.1690   46.0000 C   0  0  0  0  0  0  0  0  0  0  0  0
   57.9440   32.8030   45.7490 C   0  0  0  0  0  0  0  0  0  0  0  0
   58.8910   30.6530   48.5510 C   0  0  0  0  0  0  0  0  0  0  0  0
   58.8610   30.3690   50.0650 C   0  0  0  0  0  0  0  0  0  0  0  0
   61.9000   32.3840   48.8150 O   0  0  0  0  0  0  0  0  0  0  0  0
   63.1627   34.7941   47.1910 H   0  0  0  0  0  0  0  0  0  0  0  0
   64.2275   34.3279   45.8216 H   0  0  0  0  0  0  0  0  0  0  0  0
   62.4988   33.8399   45.8216 H   0  0  0  0  0  0  0  0  0  0  0  0
   63.3720   31.8635   46.5934 H   0  0  0  0  0  0  0  0  0  0  0  0
   64.8440   32.6752   47.2726 H   0  0  0  0  0  0  0  0  0  0  0  0
   64.8959   33.2132   49.8288 H   0  0  0  0  0  0  0  0  0  0  0  0
   63.0802   32.9265   51.8167 H   0  0  0  0  0  0  0  0  0  0  0  0
   60.5019   32.4320   51.8560 H   0  0  0  0  0  0  0  0  0  0  0  0
   59.6234   32.6742   50.2981 H   0  0  0  0  0  0  0  0  0  0  0  0
   62.1686   30.5461   50.1355 H   0  0  0  0  0  0  0  0  0  0  0  0
   61.4295   29.0317   50.8560 H   0  0  0  0  0  0  0  0  0  0  0  0
   62.0044   29.0865   48.2979 H   0  0  0  0  0  0  0  0  0  0  0  0
   60.4391   28.3930   48.8658 H   0  0  0  0  0  0  0  0  0  0  0  0
   60.8244   31.2714   47.8708 H   0  0  0  0  0  0  0  0  0  0  0  0
   61.1610   29.9090   46.0530 H   0  0  0  0  0  0  0  0  0  0  0  0
   56.4659   27.7034   45.7226 H   0  0  0  0  0  0  0  0  0  0  0  0
   57.2148   26.8184   43.6787 H   0  0  0  0  0  0  0  0  0  0  0  0
   58.8117   26.3266   44.3756 H   0  0  0  0  0  0  0  0  0  0  0  0
   56.7589   24.5788   43.8964 H   0  0  0  0  0  0  0  0  0  0  0  0
   58.0158   24.3519   45.1770 H   0  0  0  0  0  0  0  0  0  0  0  0
   55.9463   25.4671   47.8112 H   0  0  0  0  0  0  0  0  0  0  0  0
   57.3871   24.4371   47.3688 H   0  0  0  0  0  0  0  0  0  0  0  0
   57.4098   27.1968   47.9209 H   0  0  0  0  0  0  0  0  0  0  0  0
   58.7204   26.2197   47.1550 H   0  0  0  0  0  0  0  0  0  0  0  0
   57.5436   29.9797   44.4584 H   0  0  0  0  0  0  0  0  0  0  0  0
   57.1920   30.2171   46.1616 H   0  0  0  0  0  0  0  0  0  0  0  0
   59.7077   30.7859   44.5837 H   0  0  0  0  0  0  0  0  0  0  0  0
   61.2600   32.4686   46.5358 H   0  0  0  0  0  0  0  0  0  0  0  0
   60.9810   34.9059   46.9738 H   0  0  0  0  0  0  0  0  0  0  0  0
   58.7682   36.0012   46.6229 H   0  0  0  0  0  0  0  0  0  0  0  0
   56.8164   34.6502   45.8559 H   0  0  0  0  0  0  0  0  0  0  0  0
   57.0776   32.2143   45.4132 H   0  0  0  0  0  0  0  0  0  0  0  0
   58.6725   31.7188   48.3888 H   0  0  0  0  0  0  0  0  0  0  0  0
   58.1381   30.0058   48.0774 H   0  0  0  0  0  0  0  0  0  0  0  0
   58.0725   30.9842   50.5230 H   0  0  0  0  0  0  0  0  0  0  0  0
   58.6670   29.2944   50.1978 H   0  0  0  0  0  0  0  0  0  0  0  0
  1  2  1  0
  2  3  1  0
  3  4  2  0
  4  5  1  0
  5  6  2  0
  6  7  1  0
  7  8  1  0
  8  9  1  0
  9 10  1  0
 10 11  1  0
 11 12  1  0
 12 13  1  0
 13 14  2  0
 13 15  1  0
 15 16  1  0
 16 17  1  0
 17 18  1  0
 18 19  1  0
 19 20  1  0
 20 21  1  0
 15 22  1  0
 22 23  1  0
 23 24  1  0
 24 25  2  0
 25 26  1  0
 26 27  2  0
 27 28  1  0
 28 29  2  0
 11 30  1  0
 30 31  1  0
  6 32  1  0
 32  3  1  0
 31  8  1  0
 23 12  1  0
 29 24  1  0
 21 16  1  0
  1 33  1  0
  1 34  1  0
  1 35  1  0
  2 36  1  0
  2 37  1  0
  4 38  1  0
  5 39  1  0
  7 40  1  0
  7 41  1  0
  9 42  1  0
  9 43  1  0
 10 44  1  0
 10 45  1  0
 11 46  1  0
 12 47  1  6
 16 48  1  0
 17 49  1  0
 17 50  1  0
 18 51  1  0
 18 52  1  0
 20 53  1  0
 20 54  1  0
 21 55  1  0
 21 56  1  0
 22 57  1  0
 22 58  1  0
 23 59  1  6
 25 60  1  0
 26 61  1  0
 27 62  1  0
 28 63  1  0
 29 64  1  0
 30 65  1  0
 30 66  1  0
 31 67  1  0
 31 68  1  0
M  CHG  1  12   1
M  END
>  <UniqueID>  (4) 
3

>  <SMILES>  (4) 
CCc1ccc(CN2CCC([N@H+]3C(=O)N(C4CCOCC4)C[C@H]3c3ccccc3)CC2)o1

>  <Energy>  (4) 
132.53155724106554

>  <Genealogy>  (4) 
CCc1ccc(CN2CCC([NH+]3C(=O)N(C4CCOCC4)CC3c3ccccc3)CC2)o1 (protonated)
CCc1ccc(CN2CCC([N@H+]3C(=O)N(C4CCOCC4)C[C@H]3c3ccccc3)CC2)o1 (chirality)
CCc1ccc(CN2CCC([N@H+]3C(=O)N(C4CCOCC4)C[C@H]3c3ccccc3)CC2)o1 (3D coordinates assigned)
CCc1ccc(CN2CCC([N@H+]3C(=O)N(C4CCOCC4)C[C@H]3c3ccccc3)CC2)o1 (nonaromatic ring conformer: 132.53155724106554 kcal/mol)

>  <smiles>  (4) 
CCc1ccc(CN2CCC(N3C(=O)N(C4CCOCC4)CC3c3ccccc3)CC2)o1

>  <score_type>  (4) 
oracle

>  <origin>  (4) 
adg

>  <m_score__min__energy>  (4) 
-7.3700000000000001

>  <m_primary>  (4) 
energy

$$$$
4:0
     RDKit          3D

 37 40  0  0  1  0  0  0  0  0999 V2000
   55.3730   28.9770   44.5990 O   0  0  0  0  0  0  0  0  0  0  0  0
   55.8670   30.2530   44.8500 N   0  0  0  0  0  0  0  0  0  0  0  0
   57.0670   30.5620   44.4040 C   0  0  0  0  0  0  0  0  0  0  0  0
   57.6590   29.5920   43.6050 O   0  0  0  0  0  0  0  0  0  0  0  0
   57.7060   31.8280   44.7390 C   0  0  0  0  0  0  0  0  0  0  0  0
   57.5140   33.0190   44.0950 N   0  0  0  0  0  0  0  0  0  0  0  0
   58.2290   33.9720   44.7220 N   0  0  0  0  0  0  0  0  0  0  0  0
   58.8780   33.4400   45.7480 C   0  0  0  0  0  0  0  0  0  0  0  0
   58.5390   32.1170   45.7330 N   0  0  0  0  0  0  0  0  0  0  0  0
   59.0420   31.1700   46.6610 C   0  0  0  0  0  0  0  0  0  0  0  0
   59.2310   29.9440   46.0570 C   0  0  0  0  0  0  0  0  0  0  0  0
   59.7590   28.9470   46.8870 C   0  0  0  0  0  0  0  0  0  0  0  0
   60.0620   29.2150   48.2220 C   0  0  0  0  0  0  0  0  0  0  0  0
   60.7210   27.9710   49.2800 Cl  0  0  0  0  0  0  0  0  0  0  0  0
   59.8650   30.4530   48.7960 C   0  0  0  0  0  0  0  0  0  0  0  0
   59.3410   31.4270   47.9780 C   0  0  0  0  0  0  0  0  0  0  0  0
   59.1780   32.6830   48.7010 C   0  0  0  0  0  0  0  0  0  0  0  0
   58.8140   32.6770   50.0910 C   0  0  0  0  0  0  0  0  0  0  0  0
   59.4920   33.6020   50.9060 C   0  0  0  0  0  0  0  0  0  0  0  0
   59.1680   33.7730   52.2320 C   0  0  0  0  0  0  0  0  0  0  0  0
   58.1750   33.0540   52.8240 C   0  0  0  0  0  0  0  0  0  0  0  0
   57.4910   32.1400   52.0520 C   0  0  0  0  0  0  0  0  0  0  0  0
   57.8250   31.9740   50.7040 C   0  0  0  0  0  0  0  0  0  0  0  0
   59.3830   33.8510   48.1110 N   0  0  0  0  0  0  0  0  0  0  0  0
   59.7750   34.1610   46.7390 C   0  0  0  0  0  0  0  0  0  0  0  0
   55.8800   28.3010   44.0700 H   0  0  0  0  0  0  0  0  0  0  0  0
   58.1340   29.8920   42.7550 H   0  0  0  0  0  0  0  0  0  0  0  0
   58.9849   29.7627   45.0003 H   0  0  0  0  0  0  0  0  0  0  0  0
   59.9369   27.9402   46.4811 H   0  0  0  0  0  0  0  0  0  0  0  0
   60.1130   30.6508   49.8493 H   0  0  0  0  0  0  0  0  0  0  0  0
   60.3030   34.2047   50.4712 H   0  0  0  0  0  0  0  0  0  0  0  0
   59.7255   34.5095   52.8292 H   0  0  0  0  0  0  0  0  0  0  0  0
   57.9263   33.1982   53.8858 H   0  0  0  0  0  0  0  0  0  0  0  0
   56.6823   31.5410   52.4960 H   0  0  0  0  0  0  0  0  0  0  0  0
   57.2603   31.2393   50.1113 H   0  0  0  0  0  0  0  0  0  0  0  0
   59.6936   35.2459   46.5766 H   0  0  0  0  0  0  0  0  0  0  0  0
   60.8120   33.8285   46.5840 H   0  0  0  0  0  0  0  0  0  0  0  0
  1  2  1  0
  2  3  2  0
  3  4  1  0
  3  5  1  0
  5  6  2  0
  6  7  1  0
  7  8  2  0
  8  9  1  0
  9 10  1  0
 10 11  2  0
 11 12  1  0
 12 13  2  0
 13 14  1  0
 13 15  1  0
 15 16  2  0
 16 17  1  0
 17 18  1  0
 18 19  2  0
 19 20  1  0
 20 21  2  0
 21 22  1  0
 22 23  2  0
 17 24  2  0
 24 25  1  0
  9  5  1  0
 16 10  1  0
 23 18  1  0
 25  8  1  0
  1 26  1  0
  4 27  1  0
 11 28  1  0
 12 29  1  0
 15 30  1  0
 19 31  1  0
 20 32  1  0
 21 33  1  0
 22 34  1  0
 23 35  1  0
 25 36  1  0
 25 37  1  0
M  END
>  <smiles>  (5) 
ON=C(O)c1nnc2n1-c1ccc(Cl)cc1C(c1ccccc1)=NC2

>  <score_type>  (5) 
oracle

>  <origin>  (5) 
adg

>  <m_score__min__energy>  (5) 
-8.6799999999999997

>  <m_primary>  (5) 
energy

$$$$
5:0
     RDKit          3D

 61 64  0  0  0  0  0  0  0  0999 V2000
   53.9140   27.9280   51.9990 H   0  0  0  0  0  0  0  0  0  0  0  0
   54.0410   27.3170   52.7700 O   0  0  0  0  0  0  0  0  0  0  0  0
   54.3300   28.1160   53.8890 C   0  0  0  0  0  0  0  0  0  0  0  0
   54.5797   27.4652   54.7400 H   0  0  0  0  0  0  0  0  0  0  0  0
   53.4461   28.7297   54.1170 H   0  0  0  0  0  0  0  0  0  0  0  0
   55.5020   29.0430   53.6130 C   0  0  0  0  0  0  0  0  0  0  0  0
   55.3620   30.1380   52.8170 C   0  0  0  0  0  0  0  0  0  0  0  0
   54.0320   30.7140   52.4960 C   0  0  0  0  0  0  0  0  0  0  0  0
   53.7350   31.1540   51.1950 C   0  0  0  0  0  0  0  0  0  0  0  0
   54.4921   31.0685   50.4016 H   0  0  0  0  0  0  0  0  0  0  0  0
   52.4810   31.7000   50.9050 C   0  0  0  0  0  0  0  0  0  0  0  0
   52.2508   32.0335   49.8824 H   0  0  0  0  0  0  0  0  0  0  0  0
   51.5190   31.8230   51.9120 C   0  0  0  0  0  0  0  0  0  0  0  0
   50.2720   32.3620   51.6220 O   0  0  0  0  0  0  0  0  0  0  0  0
   51.8140   31.4040   53.2130 C   0  0  0  0  0  0  0  0  0  0  0  0
   51.0589   31.5042   54.0066 H   0  0  0  0  0  0  0  0  0  0  0  0
   53.0670   30.8580   53.5070 C   0  0  0  0  0  0  0  0  0  0  0  0
   53.2984   30.5398   54.5342 H   0  0  0  0  0  0  0  0  0  0  0  0
   56.5270   30.7930   52.1870 C   0  0  0  0  0  0  0  0  0  0  0  0
   56.7290   32.1710   52.3460 C   0  0  0  0  0  0  0  0  0  0  0  0
   56.0074   32.7681   52.9228 H   0  0  0  0  0  0  0  0  0  0  0  0
   57.8440   32.7880   51.7740 C   0  0  0  0  0  0  0  0  0  0  0  0
   57.9890   33.8716   51.8959 H   0  0  0  0  0  0  0  0  0  0  0  0
   58.7790   32.0410   51.0470 C   0  0  0  0  0  0  0  0  0  0  0  0
   59.8790   32.7180   50.4930 O   0  0  0  0  0  0  0  0  0  0  0  0
   60.7900   32.1790   49.5360 C   0  0  0  0  0  0  0  0  0  0  0  0
   61.8032   32.5489   49.7520 H   0  0  0  0  0  0  0  0  0  0  0  0
   60.7661   31.0811   49.6003 H   0  0  0  0  0  0  0  0  0  0  0  0
   60.3880   32.6040   48.1120 C   0  0  0  0  0  0  0  0  0  0  0  0
   61.2640   33.0432   47.6122 H   0  0  0  0  0  0  0  0  0  0  0  0
   60.0315   31.7100   47.5794 H   0  0  0  0  0  0  0  0  0  0  0  0
   59.2860   33.6050   48.1170 N   0  0  0  0  0  0  0  0  0  0  0  0
   59.0340   33.8100   49.1130 H   0  0  0  0  0  0  0  0  0  0  0  0
   59.6800   34.8850   47.4720 C   0  0  0  0  0  0  0  0  0  0  0  0
   59.1539   35.7095   47.9754 H   0  0  0  0  0  0  0  0  0  0  0  0
   60.7717   34.9824   47.5655 H   0  0  0  0  0  0  0  0  0  0  0  0
   59.3350   34.9240   45.9680 C   0  0  0  0  0  0  0  0  0  0  0  0
   58.3418   35.3783   45.8369 H   0  0  0  0  0  0  0  0  0  0  0  0
   60.0985   35.5188   45.4451 H   0  0  0  0  0  0  0  0  0  0  0  0
   59.3240   33.6230   45.4260 O   0  0  0  0  0  0  0  0  0  0  0  0
   58.2380   32.8820   45.9570 C   0  0  0  0  0  0  0  0  0  0  0  0
   57.3141   33.2103   45.4583 H   0  0  0  0  0  0  0  0  0  0  0  0
   58.4501   31.8178   45.7768 H   0  0  0  0  0  0  0  0  0  0  0  0
   58.0630   33.0630   47.4850 C   0  0  0  0  0  0  0  0  0  0  0  0
   57.2297   33.7573   47.6683 H   0  0  0  0  0  0  0  0  0  0  0  0
   57.8589   32.0759   47.9254 H   0  0  0  0  0  0  0  0  0  0  0  0
   58.5800   30.6550   50.8980 C   0  0  0  0  0  0  0  0  0  0  0  0
   59.3058   30.0559   50.3285 H   0  0  0  0  0  0  0  0  0  0  0  0
   57.4650   30.0370   51.4700 C   0  0  0  0  0  0  0  0  0  0  0  0
   57.3225   28.9521   51.3572 H   0  0  0  0  0  0  0  0  0  0  0  0
   56.7810   28.7820   54.3250 C   0  0  0  0  0  0  0  0  0  0  0  0
   57.2000   29.6310   55.3630 C   0  0  0  0  0  0  0  0  0  0  0  0
   56.5758   30.4881   55.6559 H   0  0  0  0  0  0  0  0  0  0  0  0
   58.4080   29.3900   56.0250 C   0  0  0  0  0  0  0  0  0  0  0  0
   58.7321   30.0575   56.8371 H   0  0  0  0  0  0  0  0  0  0  0  0
   59.2040   28.3020   55.6560 C   0  0  0  0  0  0  0  0  0  0  0  0
   60.1553   28.1155   56.1759 H   0  0  0  0  0  0  0  0  0  0  0  0
   58.7920   27.4510   54.6270 C   0  0  0  0  0  0  0  0  0  0  0  0
   59.4190   26.5947   54.3378 H   0  0  0  0  0  0  0  0  0  0  0  0
   57.5840   27.6870   53.9650 C   0  0  0  0  0  0  0  0  0  0  0  0
   57.2606   27.0124   53.1586 H   0  0  0  0  0  0  0  0  0  0  0  0
  1  2  1  0
  2  3  1  0
  3  4  1  0
  3  5  1  0
  3  6  1  0
  6  7  2  0
  7  8  1  0
  8  9  2  0
  9 10  1  0
  9 11  1  0
 11 12  1  0
 11 13  2  0
 13 14  1  0
 13 15  1  0
 15 16  1  0
 15 17  2  0
 17 18  1  0
  7 19  1  0
 19 20  2  0
 20 21  1  0
 20 22  1  0
 22 23  1  0
 22 24  2  0
 24 25  1  0
 25 26  1  0
 26 27  1  0
 26 28  1  0
 26 29  1  0
 29 30  1  0
 29 31  1  0
 29 32  1  0
 32 33  1  0
 32 34  1  0
 34 35  1  0
 34 36  1  0
 34 37  1  0
 37 38  1  0
 37 39  1  0
 37 40  1  0
 40 41  1  0
 41 42  1  0
 41 43  1  0
 41 44  1  0
 44 45  1  0
 44 46  1  0
 24 47  1  0
 47 48  1  0
 47 49  2  0
 49 50  1  0
  6 51  1  0
 51 52  2  0
 52 53  1  0
 52 54  1  0
 54 55  1  0
 54 56  2  0
 56 57  1  0
 56 58  1  0
 58 59  1  0
 58 60  2  0
 60 61  1  0
 17  8  1  0
 49 19  1  0
 60 51  1  0
 44 32  1  0
M  CHG  2  14  -1  32   1
M  END
>  <UniqueID>  (6) 
4

>  <SMILES>  (6) 
[O-]c1ccc(/C(=C(/CO)c2ccccc2)c2ccc(OCC[NH+]3CCOCC3)cc2)cc1

>  <Energy>  (6) 
98.3178111966102

>  <Genealogy>  (6) 
[O-]c1ccc(C(=C(CO)c2ccccc2)c2ccc(OCC[NH+]3CCOCC3)cc2)cc1 (protonated)
[O-]c1ccc(/C(=C(/CO)c2ccccc2)c2ccc(OCC[NH+]3CCOCC3)cc2)cc1 (cis-trans isomerization)
[O-]c1ccc(/C(=C(/CO)c2ccccc2)c2ccc(OCC[NH+]3CCOCC3)cc2)cc1 (3D coordinates assigned)
[O-]c1ccc(/C(=C(/CO)c2ccccc2)c2ccc(OCC[NH+]3CCOCC3)cc2)cc1 (nonaromatic ring conformer: 98.3178111966102 kcal/mol)

>  <smiles>  (6) 
OCC(=C(c1ccc(O)cc1)c1ccc(OCCN2CCOCC2)cc1)c1ccccc1

>  <score_type>  (6) 
oracle

>  <origin>  (6) 
adg

>  <m_score__min__energy>  (6) 
-8.9499999999999993

>  <m_primary>  (6) 
energy

$$$$
6:0
     RDKit          3D

 52 54  0  0  0  0  0  0  0  0999 V2000
   54.7950   26.3160   45.9870 N   0  0  0  0  0  0  0  0  0  0  0  0
   56.4380   25.7900   46.1200 S   0  0  0  0  0  0  0  0  0  0  0  0
   56.7700   24.9540   44.9120 O   0  0  0  0  0  0  0  0  0  0  0  0
   56.6090   24.9540   47.3590 O   0  0  0  0  0  0  0  0  0  0  0  0
   57.5110   27.1870   46.2080 C   0  0  0  0  0  0  0  0  0  0  0  0
   58.3230   27.3970   47.3360 C   0  0  0  0  0  0  0  0  0  0  0  0
   59.1730   28.5050   47.3960 C   0  0  0  0  0  0  0  0  0  0  0  0
   59.2040   29.4220   46.3430 C   0  0  0  0  0  0  0  0  0  0  0  0
   58.3980   29.2290   45.2140 C   0  0  0  0  0  0  0  0  0  0  0  0
   58.4020   30.2290   44.1870 N   0  0  0  0  0  0  0  0  0  0  0  0
   57.3410   31.1450   43.8720 C   0  0  0  0  0  0  0  0  0  0  0  0
   56.7000   30.9810   42.7990 O   0  0  0  0  0  0  0  0  0  0  0  0
   56.8590   32.1730   44.8540 C   0  0  0  0  0  0  0  0  0  0  0  0
   57.5090   33.4540   44.5840 N   0  0  0  0  0  0  0  0  0  0  0  0
   58.7280   33.8740   45.2060 C   0  0  0  0  0  0  0  0  0  0  0  0
   59.6290   34.3900   44.4970 O   0  0  0  0  0  0  0  0  0  0  0  0
   58.9450   33.7300   46.6560 C   0  0  0  0  0  0  0  0  0  0  0  0
   58.5300   32.5670   47.3190 C   0  0  0  0  0  0  0  0  0  0  0  0
   58.7580   32.4170   48.6890 C   0  0  0  0  0  0  0  0  0  0  0  0
   59.3820   33.4410   49.4170 C   0  0  0  0  0  0  0  0  0  0  0  0
   59.6280   33.2980   51.1570 S   0  0  0  0  0  0  0  0  0  0  0  0
   59.0950   31.9700   51.6140 O   0  0  0  0  0  0  0  0  0  0  0  0
   58.8600   34.3930   51.8400 O   0  0  0  0  0  0  0  0  0  0  0  0
   61.3140   33.4950   51.5650 N   0  0  0  0  0  0  0  0  0  0  0  0
   62.1320   32.3480   51.1640 C   0  0  0  0  0  0  0  0  0  0  0  0
   62.5900   32.5000   49.7390 C   0  0  0  0  0  0  0  0  0  0  0  0
   62.3310   31.4960   48.7900 C   0  0  0  0  0  0  0  0  0  0  0  0
   62.7170   31.6740   47.4560 C   0  0  0  0  0  0  0  0  0  0  0  0
   63.3590   32.8510   47.0630 C   0  0  0  0  0  0  0  0  0  0  0  0
   63.6100   33.8580   47.9980 C   0  0  0  0  0  0  0  0  0  0  0  0
   63.2270   33.6860   49.3310 C   0  0  0  0  0  0  0  0  0  0  0  0
   59.8000   34.6040   48.7520 C   0  0  0  0  0  0  0  0  0  0  0  0
   59.5970   34.7420   47.3760 C   0  0  0  0  0  0  0  0  0  0  0  0
   57.5390   28.1140   45.1550 C   0  0  0  0  0  0  0  0  0  0  0  0
   54.6610   27.0950   46.6720 H   0  0  0  0  0  0  0  0  0  0  0  0
   58.2894   26.6864   48.1750 H   0  0  0  0  0  0  0  0  0  0  0  0
   59.8185   28.6550   48.2739 H   0  0  0  0  0  0  0  0  0  0  0  0
   59.8644   30.2998   46.4006 H   0  0  0  0  0  0  0  0  0  0  0  0
   55.7693   32.2883   44.7576 H   0  0  0  0  0  0  0  0  0  0  0  0
   57.1067   31.8464   45.8748 H   0  0  0  0  0  0  0  0  0  0  0  0
   58.0224   31.7686   46.7579 H   0  0  0  0  0  0  0  0  0  0  0  0
   58.4473   31.4930   49.1986 H   0  0  0  0  0  0  0  0  0  0  0  0
   63.0112   32.2828   51.8218 H   0  0  0  0  0  0  0  0  0  0  0  0
   61.5271   31.4330   51.2476 H   0  0  0  0  0  0  0  0  0  0  0  0
   61.8242   30.5689   49.0959 H   0  0  0  0  0  0  0  0  0  0  0  0
   62.5144   30.8857   46.7160 H   0  0  0  0  0  0  0  0  0  0  0  0
   63.6673   32.9849   46.0156 H   0  0  0  0  0  0  0  0  0  0  0  0
   64.1093   34.7868   47.6850 H   0  0  0  0  0  0  0  0  0  0  0  0
   63.4246   34.4816   50.0645 H   0  0  0  0  0  0  0  0  0  0  0  0
   60.2899   35.4111   49.3165 H   0  0  0  0  0  0  0  0  0  0  0  0
   59.9491   35.6456   46.8569 H   0  0  0  0  0  0  0  0  0  0  0  0
   56.8879   27.9696   44.2803 H   0  0  0  0  0  0  0  0  0  0  0  0
  1  2  1  0
  2  3  2  0
  2  4  2  0
  2  5  1  0
  5  6  2  0
  6  7  1  0
  7  8  2  0
  8  9  1  0
  9 10  1  0
 10 11  1  0
 11 12  2  0
 11 13  1  0
 13 14  1  0
 14 15  1  0
 15 16  2  0
 15 17  1  0
 17 18  2  0
 18 19  1  0
 19 20  2  0
 20 21  1  0
 21 22  2  0
 21 23  2  0
 21 24  1  0
 24 25  1  0
 25 26  1  0
 26 27  2  0
 27 28  1  0
 28 29  2  0
 29 30  1  0
 30 31  2  0
 20 32  1  0
 32 33  2  0
  9 34  2  0
 34  5  1  0
 33 17  1  0
 31 26  1  0
  1 35  1  0
  6 36  1  0
  7 37  1  0
  8 38  1  0
 13 39  1  0
 13 40  1  0
 18 41  1  0
 19 42  1  0
 25 43  1  0
 25 44  1  0
 27 45  1  0
 28 46  1  0
 29 47  1  0
 30 48  1  0
 31 49  1  0
 32 50  1  0
 33 51  1  0
 34 52  1  0
M  CHG  4   1  -1  10  -1  14  -1  24  -1
M  END
>  <UniqueID>  (7) 
5

>  <SMILES>  (7) 
[NH-]S(=O)(=O)c1cccc([N-]C(=O)C[N-]C(=O)c2ccc(S(=O)(=O)[N-]Cc3ccccc3)cc2)c1

>  <Energy>  (7) 
59.58284410348252

>  <Genealogy>  (7) 
[NH-]S(=O)(=O)c1cccc([N-]C(=O)C[N-]C(=O)c2ccc(S(=O)(=O)[N-]Cc3ccccc3)cc2)c1 (protonated)
[NH-]S(=O)(=O)c1cccc([N-]C(=O)C[N-]C(=O)c2ccc(S(=O)(=O)[N-]Cc3ccccc3)cc2)c1 (3D coordinates assigned)
[NH-]S(=O)(=O)c1cccc([N-]C(=O)C[N-]C(=O)c2ccc(S(=O)(=O)[N-]Cc3ccccc3)cc2)c1 (optimized conformer: 59.58284410348252 kcal/mol)

>  <smiles>  (7) 
NS(=O)(=O)c1cccc(NC(=O)CNC(=O)c2ccc(S(=O)(=O)NCc3ccccc3)cc2)c1

>  <score_type>  (7) 
oracle

>  <origin>  (7) 
adg

>  <m_score__min__energy>  (7) 
-15.779999999999999

>  <m_primary>  (7) 
energy

$$$$
7:0
     RDKit          3D

 58 60  0  0  1  0  0  0  0  0999 V2000
   64.1370   33.1970   48.1570 C   0  0  0  0  0  0  0  0  0  0  0  0
   58.4570   33.3200   52.0120 C   0  0  0  0  0  0  0  0  0  0  0  0
   62.8970   33.5380   47.4320 C   0  0  0  0  0  0  0  0  0  0  0  0
   63.0180   34.1930   46.3940 O   0  0  0  0  0  0  0  0  0  0  0  0
   61.6400   33.1220   47.9280 N   0  0  0  0  0  0  0  0  0  0  0  0
   60.3900   33.3770   47.3400 C   0  0  0  0  0  0  0  0  0  0  0  0
   60.1250   34.2570   46.3310 C   0  0  0  0  0  0  0  0  0  0  0  0
   58.8570   34.4600   45.7960 C   0  0  0  0  0  0  0  0  0  0  0  0
   57.7770   33.7560   46.2770 C   0  0  0  0  0  0  0  0  0  0  0  0
   58.0070   32.8620   47.2940 C   0  0  0  0  0  0  0  0  0  0  0  0
   59.2880   32.6590   47.8330 C   0  0  0  0  0  0  0  0  0  0  0  0
   60.0340   27.7870   46.9400 N   0  0  0  0  0  0  0  0  0  0  0  0
   60.1850   28.5780   47.9450 C   0  0  0  0  0  0  0  0  0  0  0  0
   59.7040   29.8270   47.9490 N   0  0  0  0  0  0  0  0  0  0  0  0
   59.8720   30.6480   49.0160 C   0  0  0  0  0  0  0  0  0  0  0  0
   59.4240   31.8080   48.9230 N   0  0  0  0  0  0  0  0  0  0  0  0
   58.6840   27.4400   46.6070 C   0  0  0  0  0  0  0  0  0  0  0  0
   58.1450   26.2710   47.1100 C   0  0  0  0  0  0  0  0  0  0  0  0
   56.8480   25.9090   46.8080 C   0  0  0  0  0  0  0  0  0  0  0  0
   56.0690   26.7290   45.9880 C   0  0  0  0  0  0  0  0  0  0  0  0
   54.7710   26.3200   45.7140 O   0  0  0  0  0  0  0  0  0  0  0  0
   56.6150   27.8950   45.4910 C   0  0  0  0  0  0  0  0  0  0  0  0
   57.9120   28.2580   45.7910 C   0  0  0  0  0  0  0  0  0  0  0  0
   60.8390   28.1670   49.0370 N   0  0  0  0  0  0  0  0  0  0  0  0
   61.0280   28.9600   50.1300 C   0  0  0  0  0  0  0  0  0  0  0  0
   60.5340   30.2720   50.1620 C   0  0  0  0  0  0  0  0  0  0  0  0
   60.6590   31.0270   51.3320 N   0  0  0  0  0  0  0  0  0  0  0  0
   61.5380   32.2240   51.2480 C   0  0  0  0  0  0  0  0  0  0  0  0
   60.8650   33.4000   51.8990 C   0  0  0  0  0  0  0  0  0  0  0  0
   59.6140   33.0000   52.4860 N   0  0  0  0  0  0  0  0  0  0  0  0
   64.0540   32.2020   49.0320 C   0  0  0  0  0  0  0  0  0  0  0  0
   57.7220   32.4220   51.1920 N   0  0  0  0  0  0  0  0  0  0  0  0
   57.9680   34.6210   52.3610 N   0  0  0  0  0  0  0  0  0  0  0  0
   64.9423   31.8982   49.6053 H   0  0  0  0  0  0  0  0  0  0  0  0
   63.0970   31.6813   49.1837 H   0  0  0  0  0  0  0  0  0  0  0  0
   65.0786   33.7380   47.9817 H   0  0  0  0  0  0  0  0  0  0  0  0
   61.6760   32.5640   48.8310 H   0  0  0  0  0  0  0  0  0  0  0  0
   60.9618   34.8389   45.9172 H   0  0  0  0  0  0  0  0  0  0  0  0
   58.7168   35.1879   44.9833 H   0  0  0  0  0  0  0  0  0  0  0  0
   56.7686   33.9035   45.8631 H   0  0  0  0  0  0  0  0  0  0  0  0
   57.1613   32.2869   47.6991 H   0  0  0  0  0  0  0  0  0  0  0  0
   59.1940   30.1430   47.0950 H   0  0  0  0  0  0  0  0  0  0  0  0
   58.7552   25.6234   47.7568 H   0  0  0  0  0  0  0  0  0  0  0  0
   56.4282   24.9761   47.2124 H   0  0  0  0  0  0  0  0  0  0  0  0
   54.0340   26.3350   46.3910 H   0  0  0  0  0  0  0  0  0  0  0  0
   56.0065   28.5454   44.8454 H   0  0  0  0  0  0  0  0  0  0  0  0
   58.3327   29.1903   45.3862 H   0  0  0  0  0  0  0  0  0  0  0  0
   61.2100   27.1860   49.0170 H   0  0  0  0  0  0  0  0  0  0  0  0
   61.5755   28.5652   50.9985 H   0  0  0  0  0  0  0  0  0  0  0  0
   60.2950   30.9250   52.2710 H   0  0  0  0  0  0  0  0  0  0  0  0
   62.4875   32.0161   51.7631 H   0  0  0  0  0  0  0  0  0  0  0  0
   61.7317   32.4574   50.1907 H   0  0  0  0  0  0  0  0  0  0  0  0
   61.5210   33.8041   52.6841 H   0  0  0  0  0  0  0  0  0  0  0  0
   60.6716   34.1681   51.1357 H   0  0  0  0  0  0  0  0  0  0  0  0
   58.2140   31.7890   50.5430 H   0  0  0  0  0  0  0  0  0  0  0  0
   56.6710   32.4600   51.3050 H   0  0  0  0  0  0  0  0  0  0  0  0
   57.0030   34.7600   52.7290 H   0  0  0  0  0  0  0  0  0  0  0  0
   58.5790   35.4810   52.2530 H   0  0  0  0  0  0  0  0  0  0  0  0
  1  2  2  0
  2  3  1  0
  3  4  2  0
  3  5  1  0
  5  6  1  0
  6  7  2  0
  7  8  1  0
  8  9  2  0
  9 10  1  0
 10 11  2  0
 11 12  1  0
 12 13  2  0
 13 14  1  0
 14 15  1  0
 15 16  2  0
 16 17  1  0
 17 18  2  0
 18 19  1  0
 19 20  2  0
 20 21  1  0
 20 22  1  0
 22 23  2  0
 15 24  1  0
 24 25  1  0
 25 26  2  0
 26 27  1  0
 27 28  1  0
 28 29  1  0
 29 30  1  0
 30 31  2  3
 31 32  1  0
 31 33  1  0
 11  6  1  0
 26 13  1  0
 23 17  1  0
  1 34  1  0
  1 35  1  0
  2 36  1  0
  5 37  1  0
  7 38  1  0
  8 39  1  0
  9 40  1  0
 10 41  1  0
 14 42  1  0
 18 43  1  0
 19 44  1  0
 21 45  1  0
 22 46  1  0
 23 47  1  0
 24 48  1  0
 25 49  1  0
 27 50  1  0
 28 51  1  0
 28 52  1  0
 29 53  1  0
 29 54  1  0
 32 55  1  0
 32 56  1  0
 33 57  1  0
 33 58  1  0
M  END
>  <smiles>  (8) 
C=CC(=O)Nc1ccccc1N=c1[nH]c(=Nc2ccc(O)cc2)[nH]cc1NCCN=C(N)N

>  <score_type>  (8) 
oracle

>  <origin>  (8) 
adg

>  <m_score__min__energy>  (8) 
-9.2799999999999994

>  <m_primary>  (8) 
energy

$$$$
8:0
     RDKit          3D

 37 39  0  0  0  0  0  0  0  0999 V2000
   60.0348   26.7932   46.3681 H   0  0  0  0  0  0  0  0  0  0  0  0
   58.9400   26.7420   46.2740 C   0  0  0  0  0  0  0  0  0  0  0  0
   58.2560   27.7850   45.7380 N   0  0  0  0  0  0  0  0  0  0  0  0
   56.9010   27.7790   45.5940 C   0  0  0  0  0  0  0  0  0  0  0  0
   56.3420   28.8290   45.0560 N   0  0  0  0  0  0  0  0  0  0  0  0
   56.7990   29.5940   43.9330 C   0  0  0  0  0  0  0  0  0  0  0  0
   56.6280   29.1290   42.7750 O   0  0  0  0  0  0  0  0  0  0  0  0
   57.3900   30.9470   44.1090 C   0  0  0  0  0  0  0  0  0  0  0  0
   57.5200   31.8170   43.0150 C   0  0  0  0  0  0  0  0  0  0  0  0
   57.1697   31.5014   42.0212 H   0  0  0  0  0  0  0  0  0  0  0  0
   58.0900   33.0780   43.1800 C   0  0  0  0  0  0  0  0  0  0  0  0
   58.1987   33.7457   42.3126 H   0  0  0  0  0  0  0  0  0  0  0  0
   58.5240   33.5000   44.4380 C   0  0  0  0  0  0  0  0  0  0  0  0
   58.3830   32.6570   45.5670 C   0  0  0  0  0  0  0  0  0  0  0  0
   57.8420   31.3660   45.3730 C   0  0  0  0  0  0  0  0  0  0  0  0
   57.7732   30.6758   46.2268 H   0  0  0  0  0  0  0  0  0  0  0  0
   58.9600   33.0950   46.9240 C   0  0  0  0  0  0  0  0  0  0  0  0
   58.1630   32.5010   48.1110 C   0  0  0  0  0  0  0  0  0  0  0  0
   58.6118   32.8355   49.0580 H   0  0  0  0  0  0  0  0  0  0  0  0
   57.1188   32.8429   48.0592 H   0  0  0  0  0  0  0  0  0  0  0  0
   58.1922   31.4026   48.0592 H   0  0  0  0  0  0  0  0  0  0  0  0
   60.4210   32.6100   47.0150 C   0  0  0  0  0  0  0  0  0  0  0  0
   60.7103   32.5140   48.0719 H   0  0  0  0  0  0  0  0  0  0  0  0
   60.5145   31.6326   46.5190 H   0  0  0  0  0  0  0  0  0  0  0  0
   61.0804   33.3374   46.5190 H   0  0  0  0  0  0  0  0  0  0  0  0
   58.9140   34.6440   47.0700 C   0  0  0  0  0  0  0  0  0  0  0  0
   57.8737   34.9536   47.2486 H   0  0  0  0  0  0  0  0  0  0  0  0
   59.5621   34.9262   47.9128 H   0  0  0  0  0  0  0  0  0  0  0  0
   59.4210   35.3360   45.8430 C   0  0  0  0  0  0  0  0  0  0  0  0
   60.0360   36.4310   45.9350 O   0  0  0  0  0  0  0  0  0  0  0  0
   59.1300   34.7880   44.5630 N   0  0  0  0  0  0  0  0  0  0  0  0
   56.1730   26.6500   46.0510 C   0  0  0  0  0  0  0  0  0  0  0  0
   54.7840   26.5910   46.0100 O   0  0  0  0  0  0  0  0  0  0  0  0
   56.8680   25.5650   46.5930 C   0  0  0  0  0  0  0  0  0  0  0  0
   56.3172   24.6753   46.9322 H   0  0  0  0  0  0  0  0  0  0  0  0
   58.2570   25.6070   46.7050 C   0  0  0  0  0  0  0  0  0  0  0  0
   58.8071   24.7539   47.1287 H   0  0  0  0  0  0  0  0  0  0  0  0
  1  2  1  0
  2  3  1  0
  3  4  1  0
  4  5  2  0
  5  6  1  0
  6  7  2  0
  6  8  1  0
  8  9  2  0
  9 10  1  0
  9 11  1  0
 11 12  1  0
 11 13  2  0
 13 14  1  0
 14 15  2  0
 15 16  1  0
 14 17  1  0
 17 18  1  0
 18 19  1  0
 18 20  1  0
 18 21  1  0
 17 22  1  0
 22 23  1  0
 22 24  1  0
 22 25  1  0
 17 26  1  0
 26 27  1  0
 26 28  1  0
 26 29  1  0
 29 30  2  0
 29 31  1  0
  4 32  1  0
 32 33  1  0
 32 34  2  0
 34 35  1  0
 34 36  1  0
 36 37  1  0
 36  2  2  0
 15  8  1  0
 31 13  1  0
M  CHG  3   3  -1  31  -1  33  -1
M  END
>  <UniqueID>  (9) 
6

>  <SMILES>  (9) 
CC1(C)CC(=O)[N-]c2ccc(C(=O)/N=c3/[n-]cccc3[O-])cc21

>  <Energy>  (9) 
55.60392549334612

>  <Genealogy>  (9) 
CC1(C)CC(=O)[N-]c2ccc(C(=O)N=c3[n-]cccc3[O-])cc21 (protonated)
CC1(C)CC(=O)[N-]c2ccc(C(=O)/N=c3/[n-]cccc3[O-])cc21 (cis-trans isomerization)
CC1(C)CC(=O)[N-]c2ccc(C(=O)/N=c3/[n-]cccc3[O-])cc21 (3D coordinates assigned)
CC1(C)CC(=O)[N-]c2ccc(C(=O)/N=c3/[n-]cccc3[O-])cc21 (nonaromatic ring conformer: 55.60392549334612 kcal/mol)

>  <smiles>  (9) 
CC1(C)CC(=O)Nc2ccc(C(=O)N=c3[nH]cccc3O)cc21

>  <score_type>  (9) 
oracle

>  <origin>  (9) 
adg

>  <m_score__min__energy>  (9) 
-14.380000000000001

>  <m_primary>  (9) 
energy

$$$$
9:0
     RDKit          3D

 25 26  0  0  0  0  0  0  0  0999 V2000
   54.8410   26.3980   46.0940 O   0  0  0  0  0  0  0  0  0  0  0  0
   56.0400   27.0410   45.8160 C   0  0  0  0  0  0  0  0  0  0  0  0
   57.3040   26.5490   46.0670 C   0  0  0  0  0  0  0  0  0  0  0  0
   58.1670   27.5400   45.6340 C   0  0  0  0  0  0  0  0  0  0  0  0
   59.5520   27.4740   45.7170 O   0  0  0  0  0  0  0  0  0  0  0  0
   57.4890   28.5920   45.1240 N   0  0  0  0  0  0  0  0  0  0  0  0
   58.0580   29.8430   44.6200 C   0  0  0  0  0  0  0  0  0  0  0  0
   57.3220   30.9900   45.1530 N   0  0  0  0  0  0  0  0  0  0  0  0
   57.9360   32.2210   45.5770 C   0  0  0  0  0  0  0  0  0  0  0  0
   57.9370   33.3230   44.7040 C   0  0  0  0  0  0  0  0  0  0  0  0
   58.5220   34.5330   45.0890 C   0  0  0  0  0  0  0  0  0  0  0  0
   59.1140   34.6560   46.3460 C   0  0  0  0  0  0  0  0  0  0  0  0
   59.1260   33.5680   47.2220 C   0  0  0  0  0  0  0  0  0  0  0  0
   58.5430   32.3540   46.8420 C   0  0  0  0  0  0  0  0  0  0  0  0
   56.1830   28.2870   45.2500 C   0  0  0  0  0  0  0  0  0  0  0  0
   55.1380   29.1220   44.8690 O   0  0  0  0  0  0  0  0  0  0  0  0
   57.5684   25.5794   46.5142 H   0  0  0  0  0  0  0  0  0  0  0  0
   59.1112   29.9127   44.9296 H   0  0  0  0  0  0  0  0  0  0  0  0
   57.9850   29.8513   43.5225 H   0  0  0  0  0  0  0  0  0  0  0  0
   56.2880   30.8820   45.2650 H   0  0  0  0  0  0  0  0  0  0  0  0
   57.4739   33.2325   43.7103 H   0  0  0  0  0  0  0  0  0  0  0  0
   58.5154   35.3898   44.3992 H   0  0  0  0  0  0  0  0  0  0  0  0
   59.5714   35.6099   46.6475 H   0  0  0  0  0  0  0  0  0  0  0  0
   59.5946   33.6657   48.2124 H   0  0  0  0  0  0  0  0  0  0  0  0
   58.5585   31.4992   47.5341 H   0  0  0  0  0  0  0  0  0  0  0  0
  1  2  1  0
  2  3  1  0
  3  4  2  0
  4  5  1  0
  4  6  1  0
  6  7  1  0
  7  8  1  0
  8  9  1  0
  9 10  2  0
 10 11  1  0
 11 12  2  0
 12 13  1  0
 13 14  2  0
  6 15  1  0
 15 16  1  0
 15  2  2  0
 14  9  1  0
  3 17  1  0
  7 18  1  0
  7 19  1  0
  8 20  1  0
 10 21  1  0
 11 22  1  0
 12 23  1  0
 13 24  1  0
 14 25  1  0
M  CHG  3   1  -1   5  -1  16  -1
M  END
>  <UniqueID>  (10) 
7

>  <SMILES>  (10) 
[O-]c1cc([O-])n(CNc2ccccc2)c1[O-]

>  <Energy>  (10) 
54.47392652282156

>  <Genealogy>  (10) 
[O-]c1cc([O-])n(CNc2ccccc2)c1[O-] (protonated)
[O-]c1cc([O-])n(CNc2ccccc2)c1[O-] (3D coordinates assigned)
[O-]c1cc([O-])n(CNc2ccccc2)c1[O-] (optimized conformer: 54.47392652282156 kcal/mol)

>  <smiles>  (10) 
Oc1cc(O)n(CNc2ccccc2)c1O

>  <score_type>  (10) 
oracle

>  <origin>  (10) 
adg

>  <m_score__min__energy>  (10) 
-13.68

>  <m_primary>  (10) 
energy

$$$$
10:0
     RDKit          3D

 53 55  0  0  0  0  0  0  0  0999 V2000
   58.0440   26.6870   42.7430 C   0  0  0  0  0  0  0  0  0  0  0  0
   58.6180   27.5390   43.7270 O   0  0  0  0  0  0  0  0  0  0  0  0
   58.0870   28.7800   44.1100 C   0  0  0  0  0  0  0  0  0  0  0  0
   56.7040   29.0510   44.0890 C   0  0  0  0  0  0  0  0  0  0  0  0
   56.2250   30.3130   44.4620 C   0  0  0  0  0  0  0  0  0  0  0  0
   57.1230   31.3270   44.8460 C   0  0  0  0  0  0  0  0  0  0  0  0
   56.6790   32.6340   45.2370 N   0  0  0  0  0  0  0  0  0  0  0  0
   57.5000   33.7250   45.6770 C   0  0  0  0  0  0  0  0  0  0  0  0
   57.8790   34.6060   44.8620 O   0  0  0  0  0  0  0  0  0  0  0  0
   58.0190   33.7640   47.0830 C   0  0  0  0  0  0  0  0  0  0  0  0
   59.4210   33.3320   47.1630 N   0  0  0  0  0  0  0  0  0  0  0  0
   60.4330   33.9860   46.3280 C   0  0  0  0  0  0  0  0  0  0  0  0
   59.8560   32.4340   48.2020 C   0  0  0  0  0  0  0  0  0  0  0  0
   60.2490   32.9050   49.3030 O   0  0  0  0  0  0  0  0  0  0  0  0
   59.8520   30.9670   48.0110 C   0  0  0  0  0  0  0  0  0  0  0  0
   58.8970   30.1560   48.6420 C   0  0  0  0  0  0  0  0  0  0  0  0
   58.8730   28.7830   48.3970 C   0  0  0  0  0  0  0  0  0  0  0  0
   59.8050   28.2230   47.5200 C   0  0  0  0  0  0  0  0  0  0  0  0
   59.7630   26.8520   47.2550 O   0  0  0  0  0  0  0  0  0  0  0  0
   58.7390   26.2510   46.4700 C   0  0  0  0  0  0  0  0  0  0  0  0
   57.5950   25.8090   47.3750 C   0  0  0  0  0  0  0  0  0  0  0  0
   56.6460   24.9820   46.6270 N   0  0  0  0  0  0  0  0  0  0  0  0
   55.5220   25.3920   46.0130 C   0  0  0  0  0  0  0  0  0  0  0  0
   55.1170   26.7190   45.9380 O   0  0  0  0  0  0  0  0  0  0  0  0
   54.8310   24.3240   45.4730 C   0  0  0  0  0  0  0  0  0  0  0  0
   55.5660   23.1960   45.7900 C   0  0  0  0  0  0  0  0  0  0  0  0
   56.6610   23.6400   46.5060 C   0  0  0  0  0  0  0  0  0  0  0  0
   57.6510   22.8210   47.0370 O   0  0  0  0  0  0  0  0  0  0  0  0
   60.7320   29.0220   46.9200 N   0  0  0  0  0  0  0  0  0  0  0  0
   60.7750   30.3640   47.1370 C   0  0  0  0  0  0  0  0  0  0  0  0
   58.4930   31.0390   44.8990 C   0  0  0  0  0  0  0  0  0  0  0  0
   58.9710   29.7810   44.5260 C   0  0  0  0  0  0  0  0  0  0  0  0
   57.4952   25.8724   43.2383 H   0  0  0  0  0  0  0  0  0  0  0  0
   57.3516   27.2667   42.1149 H   0  0  0  0  0  0  0  0  0  0  0  0
   58.8413   26.2630   42.1149 H   0  0  0  0  0  0  0  0  0  0  0  0
   55.9974   28.2674   43.7781 H   0  0  0  0  0  0  0  0  0  0  0  0
   55.1433   30.5127   44.4549 H   0  0  0  0  0  0  0  0  0  0  0  0
   57.9423   34.7939   47.4617 H   0  0  0  0  0  0  0  0  0  0  0  0
   57.4147   33.0722   47.6882 H   0  0  0  0  0  0  0  0  0  0  0  0
   61.1822   34.4702   46.9716 H   0  0  0  0  0  0  0  0  0  0  0  0
   60.9255   33.2349   45.6929 H   0  0  0  0  0  0  0  0  0  0  0  0
   59.9506   34.7436   45.6929 H   0  0  0  0  0  0  0  0  0  0  0  0
   58.1658   30.6036   49.3312 H   0  0  0  0  0  0  0  0  0  0  0  0
   58.1251   28.1454   48.8911 H   0  0  0  0  0  0  0  0  0  0  0  0
   58.3647   26.9799   45.7361 H   0  0  0  0  0  0  0  0  0  0  0  0
   59.1479   25.3759   45.9437 H   0  0  0  0  0  0  0  0  0  0  0  0
   58.0011   25.2260   48.2148 H   0  0  0  0  0  0  0  0  0  0  0  0
   57.0727   26.7003   47.7528 H   0  0  0  0  0  0  0  0  0  0  0  0
   53.8888   24.3630   44.9067 H   0  0  0  0  0  0  0  0  0  0  0  0
   55.3270   22.1554   45.5254 H   0  0  0  0  0  0  0  0  0  0  0  0
   61.5324   30.9787   46.6285 H   0  0  0  0  0  0  0  0  0  0  0  0
   59.1991   31.8114   45.2378 H   0  0  0  0  0  0  0  0  0  0  0  0
   60.0511   29.5757   44.5596 H   0  0  0  0  0  0  0  0  0  0  0  0
  1  2  1  0
  2  3  1  0
  3  4  2  0
  4  5  1  0
  5  6  2  0
  6  7  1  0
  7  8  1  0
  8  9  2  0
  8 10  1  0
 10 11  1  0
 11 12  1  0
 11 13  1  0
 13 14  2  0
 13 15  1  0
 15 16  2  0
 16 17  1  0
 17 18  2  0
 18 19  1  0
 19 20  1  0
 20 21  1  0
 21 22  1  0
 22 23  1  0
 23 24  1  0
 23 25  2  0
 25 26  1  0
 26 27  2  0
 27 28  1  0
 18 29  1  0
 29 30  2  0
  6 31  1  0
 31 32  2  0
 32  3  1  0
 30 15  1  0
 27 22  1  0
  1 33  1  0
  1 34  1  0
  1 35  1  0
  4 36  1  0
  5 37  1  0
 10 38  1  0
 10 39  1  0
 12 40  1  0
 12 41  1  0
 12 42  1  0
 16 43  1  0
 17 44  1  0
 20 45  1  0
 20 46  1  0
 21 47  1  0
 21 48  1  0
 25 49  1  0
 26 50  1  0
 30 51  1  0
 31 52  1  0
 32 53  1  0
M  CHG  3   7  -1  24  -1  28  -1
M  END
>  <UniqueID>  (11) 
8

>  <SMILES>  (11) 
COc1ccc([N-]C(=O)CN(C)C(=O)c2ccc(OCCn3c([O-])ccc3[O-])nc2)cc1

>  <Energy>  (11) 
84.56542846263449

>  <Genealogy>  (11) 
COc1ccc([N-]C(=O)CN(C)C(=O)c2ccc(OCCn3c([O-])ccc3[O-])nc2)cc1 (protonated)
COc1ccc([N-]C(=O)CN(C)C(=O)c2ccc(OCCn3c([O-])ccc3[O-])nc2)cc1 (3D coordinates assigned)
COc1ccc([N-]C(=O)CN(C)C(=O)c2ccc(OCCn3c([O-])ccc3[O-])nc2)cc1 (optimized conformer: 84.56542846263449 kcal/mol)

>  <smiles>  (11) 
COc1ccc(NC(=O)CN(C)C(=O)c2ccc(OCCn3c(O)ccc3O)nc2)cc1

>  <score_type>  (11) 
oracle

>  <origin>  (11) 
adg

>  <m_score__min__energy>  (11) 
-14.18

>  <m_primary>  (11) 
energy

$$$$
11:0
     RDKit          3D

 33 34  0  0  0  0  0  0  0  0999 V2000
   60.0180   34.9600   46.3870 C   0  0  0  0  0  0  0  0  0  0  0  0
   58.9930   34.9580   45.5360 C   0  0  0  0  0  0  0  0  0  0  0  0
   58.1740   33.7630   45.2590 C   0  0  0  0  0  0  0  0  0  0  0  0
   57.2190   33.4960   46.0380 O   0  0  0  0  0  0  0  0  0  0  0  0
   58.4070   32.9410   44.1020 N   0  0  0  0  0  0  0  0  0  0  0  0
   57.9410   31.5860   43.9790 C   0  0  0  0  0  0  0  0  0  0  0  0
   57.0540   31.2060   42.9560 C   0  0  0  0  0  0  0  0  0  0  0  0
   56.6020   29.8870   42.8690 C   0  0  0  0  0  0  0  0  0  0  0  0
   57.0170   28.9380   43.8070 C   0  0  0  0  0  0  0  0  0  0  0  0
   57.8770   29.3100   44.8480 C   0  0  0  0  0  0  0  0  0  0  0  0
   58.4040   28.1170   46.0300 S   0  0  0  0  0  0  0  0  0  0  0  0
   59.3930   27.1830   45.3870 O   0  0  0  0  0  0  0  0  0  0  0  0
   59.0600   28.8150   47.1890 O   0  0  0  0  0  0  0  0  0  0  0  0
   57.0170   27.2280   46.5800 N   0  0  0  0  0  0  0  0  0  0  0  0
   56.4800   26.1920   46.0010 C   0  0  0  0  0  0  0  0  0  0  0  0
   57.2260   25.2890   45.2160 C   0  0  0  0  0  0  0  0  0  0  0  0
   56.5820   24.1990   44.6260 C   0  0  0  0  0  0  0  0  0  0  0  0
   55.2130   24.0110   44.8160 C   0  0  0  0  0  0  0  0  0  0  0  0
   54.5040   24.9230   45.5980 C   0  0  0  0  0  0  0  0  0  0  0  0
   55.1460   25.9790   46.1660 N   0  0  0  0  0  0  0  0  0  0  0  0
   58.3360   30.6320   44.9310 C   0  0  0  0  0  0  0  0  0  0  0  0
   60.5931   35.8829   46.5532 H   0  0  0  0  0  0  0  0  0  0  0  0
   60.2893   34.0388   46.9235 H   0  0  0  0  0  0  0  0  0  0  0  0
   58.7452   35.8940   45.0140 H   0  0  0  0  0  0  0  0  0  0  0  0
   58.8340   33.3870   43.2580 H   0  0  0  0  0  0  0  0  0  0  0  0
   56.7146   31.9507   42.2210 H   0  0  0  0  0  0  0  0  0  0  0  0
   55.9171   29.5945   42.0594 H   0  0  0  0  0  0  0  0  0  0  0  0
   56.6679   27.8979   43.7277 H   0  0  0  0  0  0  0  0  0  0  0  0
   58.3055   25.4416   45.0696 H   0  0  0  0  0  0  0  0  0  0  0  0
   57.1545   23.4887   44.0114 H   0  0  0  0  0  0  0  0  0  0  0  0
   54.6991   23.1546   44.3551 H   0  0  0  0  0  0  0  0  0  0  0  0
   53.4238   24.7879   45.7556 H   0  0  0  0  0  0  0  0  0  0  0  0
   59.0112   30.9246   45.7486 H   0  0  0  0  0  0  0  0  0  0  0  0
  1  2  2  0
  2  3  1  0
  3  4  2  0
  3  5  1  0
  5  6  1  0
  6  7  2  0
  7  8  1  0
  8  9  2  0
  9 10  1  0
 10 11  1  0
 11 12  2  0
 11 13  2  0
 11 14  1  0
 14 15  2  3
 15 16  1  0
 16 17  2  0
 17 18  1  0
 18 19  2  0
 19 20  1  0
 10 21  2  0
 21  6  1  0
 20 15  1  0
  1 22  1  0
  1 23  1  0
  2 24  1  0
  5 25  1  0
  7 26  1  0
  8 27  1  0
  9 28  1  0
 16 29  1  0
 17 30  1  0
 18 31  1  0
 19 32  1  0
 21 33  1  0
M  CHG  1  20  -1
M  END
>  <UniqueID>  (12) 
9

>  <SMILES>  (12) 
C=CC(=O)Nc1cccc(S(=O)(=O)N=c2cccc[n-]2)c1

>  <Energy>  (12) 
43.22304024814011

>  <Genealogy>  (12) 
C=CC(=O)Nc1cccc(S(=O)(=O)N=c2cccc[n-]2)c1 (protonated)
C=CC(=O)Nc1cccc(S(=O)(=O)N=c2cccc[n-]2)c1 (3D coordinates assigned)
C=CC(=O)Nc1cccc(S(=O)(=O)N=c2cccc[n-]2)c1 (optimized conformer: 43.22304024814011 kcal/mol)

>  <smiles>  (12) 
C=CC(=O)Nc1cccc(S(=O)(=O)N=c2cccc[nH]2)c1

>  <score_type>  (12) 
oracle

>  <origin>  (12) 
adg

>  <m_score__min__energy>  (12) 
-9.25

>  <m_primary>  (12) 
energy

$$$$
12:0
     RDKit          3D

 59 62  0  0  0  0  0  0  0  0999 V2000
   60.1010   34.1710   49.9980 O   0  0  0  0  0  0  0  0  0  0  0  0
   60.2460   34.0830   48.7480 C   0  0  0  0  0  0  0  0  0  0  0  0
   59.3020   34.6980   47.8650 N   0  0  0  0  0  0  0  0  0  0  0  0
   59.4230   34.6480   46.2970 S   0  0  1  0  0  6  0  0  0  0  0  0
   60.8690   34.5470   45.8950 O   0  0  0  0  0  0  0  0  0  0  0  0
   58.5070   33.2890   45.6550 C   0  0  0  0  0  0  0  0  0  0  0  0
   59.1550   32.0770   45.3930 C   0  0  0  0  0  0  0  0  0  0  0  0
   58.4410   30.9920   44.8760 C   0  0  0  0  0  0  0  0  0  0  0  0
   57.0660   31.1070   44.6070 C   0  0  0  0  0  0  0  0  0  0  0  0
   56.3070   29.9620   44.0520 C   0  0  0  0  0  0  0  0  0  0  0  0
   56.0440   29.9170   42.8180 O   0  0  0  0  0  0  0  0  0  0  0  0
   55.8250   28.9290   44.9220 N   0  0  0  0  0  0  0  0  0  0  0  0
   56.6460   27.9550   45.5810 C   0  0  0  0  0  0  0  0  0  0  0  0
   58.0220   28.1950   45.6810 C   0  0  0  0  0  0  0  0  0  0  0  0
   58.8640   27.2700   46.3160 C   0  0  0  0  0  0  0  0  0  0  0  0
   60.5910   27.6000   46.4630 S   0  0  0  0  0  0  0  0  0  0  0  0
   61.0440   28.4050   45.2770 O   0  0  0  0  0  0  0  0  0  0  0  0
   61.3340   26.2920   46.4380 O   0  0  0  0  0  0  0  0  0  0  0  0
   60.9900   28.4580   47.9360 N   0  0  0  0  0  0  0  0  0  0  0  0
   60.9680   29.9240   47.7620 C   0  0  0  0  0  0  0  0  0  0  0  0
   59.5480   30.5280   47.8750 C   0  0  0  0  0  0  0  0  0  0  0  0
   58.5780   29.5990   48.3230 O   0  0  0  0  0  0  0  0  0  0  0  0
   59.0550   28.9370   49.4710 C   0  0  0  0  0  0  0  0  0  0  0  0
   60.2080   27.9880   49.1020 C   0  0  0  0  0  0  0  0  0  0  0  0
   58.3220   26.0910   46.8430 C   0  0  0  0  0  0  0  0  0  0  0  0
   56.9560   25.8270   46.7150 C   0  0  0  0  0  0  0  0  0  0  0  0
   56.1170   26.7470   46.0760 C   0  0  0  0  0  0  0  0  0  0  0  0
   54.7710   26.4370   45.9130 O   0  0  0  0  0  0  0  0  0  0  0  0
   56.4210   32.3300   44.8690 C   0  0  0  0  0  0  0  0  0  0  0  0
   57.1360   33.4100   45.3930 C   0  0  0  0  0  0  0  0  0  0  0  0
   61.3300   33.3240   48.1950 N   0  0  0  0  0  0  0  0  0  0  0  0
   62.4460   32.8260   48.9570 C   0  0  0  0  0  0  0  0  0  0  0  0
   63.7420   33.2680   48.6460 C   0  0  0  0  0  0  0  0  0  0  0  0
   64.8410   32.8120   49.3830 C   0  0  0  0  0  0  0  0  0  0  0  0
   64.6520   31.9250   50.4460 C   0  0  0  0  0  0  0  0  0  0  0  0
   63.3630   31.5000   50.7810 C   0  0  0  0  0  0  0  0  0  0  0  0
   62.2620   31.9530   50.0460 C   0  0  0  0  0  0  0  0  0  0  0  0
   58.9160   35.8040   45.7630 H   0  0  0  0  0  0  0  0  0  0  0  0
   60.2317   31.9773   45.5948 H   0  0  0  0  0  0  0  0  0  0  0  0
   58.9587   30.0418   44.6783 H   0  0  0  0  0  0  0  0  0  0  0  0
   58.4465   29.1173   45.2577 H   0  0  0  0  0  0  0  0  0  0  0  0
   61.6040   30.3779   48.5362 H   0  0  0  0  0  0  0  0  0  0  0  0
   61.3359   30.1392   46.7480 H   0  0  0  0  0  0  0  0  0  0  0  0
   59.5813   31.3676   48.5849 H   0  0  0  0  0  0  0  0  0  0  0  0
   59.2496   30.8495   46.8662 H   0  0  0  0  0  0  0  0  0  0  0  0
   59.4163   29.6820   50.1952 H   0  0  0  0  0  0  0  0  0  0  0  0
   58.2356   28.3493   49.9105 H   0  0  0  0  0  0  0  0  0  0  0  0
   60.8831   27.9032   49.9663 H   0  0  0  0  0  0  0  0  0  0  0  0
   59.7641   27.0182   48.8327 H   0  0  0  0  0  0  0  0  0  0  0  0
   58.9737   25.3707   47.3592 H   0  0  0  0  0  0  0  0  0  0  0  0
   56.5384   24.8925   47.1180 H   0  0  0  0  0  0  0  0  0  0  0  0
   55.3463   32.4365   44.6598 H   0  0  0  0  0  0  0  0  0  0  0  0
   56.6204   34.3592   45.6007 H   0  0  0  0  0  0  0  0  0  0  0  0
   61.2560   33.0460   47.1900 H   0  0  0  0  0  0  0  0  0  0  0  0
   63.8944   33.9766   47.8185 H   0  0  0  0  0  0  0  0  0  0  0  0
   65.8548   33.1523   49.1251 H   0  0  0  0  0  0  0  0  0  0  0  0
   65.5175   31.5611   51.0192 H   0  0  0  0  0  0  0  0  0  0  0  0
   63.2142   30.8086   51.6235 H   0  0  0  0  0  0  0  0  0  0  0  0
   61.2483   31.6256   50.3202 H   0  0  0  0  0  0  0  0  0  0  0  0
  1  2  2  0
  2  3  1  0
  3  4  2  0
  4  5  2  0
  4  6  1  0
  6  7  2  0
  7  8  1  0
  8  9  2  0
  9 10  1  0
 10 11  2  0
 10 12  1  0
 12 13  1  0
 13 14  2  0
 14 15  1  0
 15 16  1  0
 16 17  2  0
 16 18  2  0
 16 19  1  0
 19 20  1  0
 20 21  1  0
 21 22  1  0
 22 23  1  0
 23 24  1  0
 15 25  2  0
 25 26  1  0
 26 27  2  0
 27 28  1  0
  9 29  1  0
 29 30  2  0
  2 31  1  0
 31 32  1  0
 32 33  2  0
 33 34  1  0
 34 35  2  0
 35 36  1  0
 36 37  2  0
 30  6  1  0
 37 32  1  0
 27 13  1  0
 24 19  1  0
  4 38  1  6
  7 39  1  0
  8 40  1  0
 14 41  1  0
 20 42  1  0
 20 43  1  0
 21 44  1  0
 21 45  1  0
 23 46  1  0
 23 47  1  0
 24 48  1  0
 24 49  1  0
 25 50  1  0
 26 51  1  0
 29 52  1  0
 30 53  1  0
 31 54  1  0
 33 55  1  0
 34 56  1  0
 35 57  1  0
 36 58  1  0
 37 59  1  0
M  CHG  2  12  -1  28  -1
M  END
>  <UniqueID>  (13) 
10

>  <SMILES>  (13) 
O=C(N=[S@@H](=O)c1ccc(C(=O)[N-]c2cc(S(=O)(=O)N3CCOCC3)ccc2[O-])cc1)Nc1ccccc1

>  <Energy>  (13) 
81.79140680761986

>  <Genealogy>  (13) 
O=C(N=[SH](=O)c1ccc(C(=O)[N-]c2cc(S(=O)(=O)N3CCOCC3)ccc2[O-])cc1)Nc1ccccc1 (protonated)
O=C(N=[S@@H](=O)c1ccc(C(=O)[N-]c2cc(S(=O)(=O)N3CCOCC3)ccc2[O-])cc1)Nc1ccccc1 (chirality)
O=C(N=[S@@H](=O)c1ccc(C(=O)[N-]c2cc(S(=O)(=O)N3CCOCC3)ccc2[O-])cc1)Nc1ccccc1 (3D coordinates assigned)
O=C(N=[S@@H](=O)c1ccc(C(=O)[N-]c2cc(S(=O)(=O)N3CCOCC3)ccc2[O-])cc1)Nc1ccccc1 (nonaromatic ring conformer: 81.79140680761986 kcal/mol)

>  <smiles>  (13) 
O=C(N=[SH](=O)c1ccc(C(=O)Nc2cc(S(=O)(=O)N3CCOCC3)ccc2O)cc1)Nc1ccccc1

>  <score_type>  (13) 
oracle

>  <origin>  (13) 
adg

>  <m_score__min__energy>  (13) 
-15.44

>  <m_primary>  (13) 
energy

$$$$
13:0
     RDKit          3D

 33 34  0  0  0  0  0  0  0  0999 V2000
   55.4650   28.9840   44.8740 N   0  0  0  0  0  0  0  0  0  0  0  0
   56.5850   30.0780   44.1460 S   0  0  0  0  0  0  0  0  0  0  0  0
   56.2720   30.2060   42.6810 O   0  0  0  0  0  0  0  0  0  0  0  0
   56.4640   31.4220   44.8080 O   0  0  0  0  0  0  0  0  0  0  0  0
   58.1710   29.4700   44.3500 O   0  0  0  0  0  0  0  0  0  0  0  0
   58.6910   28.9550   45.5480 C   0  0  0  0  0  0  0  0  0  0  0  0
   59.4540   29.7430   46.4310 C   0  0  0  0  0  0  0  0  0  0  0  0
   60.0060   29.1830   47.5860 C   0  0  0  0  0  0  0  0  0  0  0  0
   59.8130   27.8250   47.8770 C   0  0  0  0  0  0  0  0  0  0  0  0
   60.3990   27.2120   49.0830 C   0  0  0  0  0  0  0  0  0  0  0  0
   60.8790   27.9240   50.0060 O   0  0  0  0  0  0  0  0  0  0  0  0
   59.0450   27.0390   47.0050 C   0  0  0  0  0  0  0  0  0  0  0  0
   58.4650   27.5990   45.8610 C   0  0  0  0  0  0  0  0  0  0  0  0
   57.7020   26.7660   45.0310 O   0  0  0  0  0  0  0  0  0  0  0  0
   56.6380   25.9690   45.4730 C   0  0  0  0  0  0  0  0  0  0  0  0
   55.8170   26.4290   46.3140 O   0  0  0  0  0  0  0  0  0  0  0  0
   56.4950   24.5710   44.9910 C   0  0  0  0  0  0  0  0  0  0  0  0
   57.1420   24.1730   43.8040 C   0  0  0  0  0  0  0  0  0  0  0  0
   57.0250   22.8640   43.3310 C   0  0  0  0  0  0  0  0  0  0  0  0
   56.2620   21.9270   44.0350 C   0  0  0  0  0  0  0  0  0  0  0  0
   56.1390   20.6190   43.5730 O   0  0  0  0  0  0  0  0  0  0  0  0
   55.6160   22.3060   45.2140 C   0  0  0  0  0  0  0  0  0  0  0  0
   55.7280   23.6150   45.6960 C   0  0  0  0  0  0  0  0  0  0  0  0
   55.0680   23.9470   46.8760 O   0  0  0  0  0  0  0  0  0  0  0  0
   55.9170   28.0430   44.8760 H   0  0  0  0  0  0  0  0  0  0  0  0
   59.6168   30.8081   46.2097 H   0  0  0  0  0  0  0  0  0  0  0  0
   60.5951   29.8108   48.2707 H   0  0  0  0  0  0  0  0  0  0  0  0
   60.4177   26.1164   49.1789 H   0  0  0  0  0  0  0  0  0  0  0  0
   58.8971   25.9710   47.2228 H   0  0  0  0  0  0  0  0  0  0  0  0
   57.7461   24.9016   43.2435 H   0  0  0  0  0  0  0  0  0  0  0  0
   57.5346   22.5692   42.4018 H   0  0  0  0  0  0  0  0  0  0  0  0
   56.8890   19.9460   43.6790 H   0  0  0  0  0  0  0  0  0  0  0  0
   55.0147   21.5700   45.7678 H   0  0  0  0  0  0  0  0  0  0  0  0
  1  2  1  0
  2  3  2  0
  2  4  2  0
  2  5  1  0
  5  6  1  0
  6  7  2  0
  7  8  1  0
  8  9  2  0
  9 10  1  0
 10 11  2  0
  9 12  1  0
 12 13  2  0
 13 14  1  0
 14 15  1  0
 15 16  2  0
 15 17  1  0
 17 18  2  0
 18 19  1  0
 19 20  2  0
 20 21  1  0
 20 22  1  0
 22 23  2  0
 23 24  1  0
 13  6  1  0
 23 17  1  0
  1 25  1  0
  7 26  1  0
  8 27  1  0
 10 28  1  0
 12 29  1  0
 18 30  1  0
 19 31  1  0
 21 32  1  0
 22 33  1  0
M  CHG  2   1  -1  24  -1
M  END
>  <UniqueID>  (14) 
11

>  <SMILES>  (14) 
[NH-]S(=O)(=O)Oc1ccc(C=O)cc1OC(=O)c1ccc(O)cc1[O-]

>  <Energy>  (14) 
39.62636421343607

>  <Genealogy>  (14) 
[NH-]S(=O)(=O)Oc1ccc(C=O)cc1OC(=O)c1ccc(O)cc1[O-] (protonated)
[NH-]S(=O)(=O)Oc1ccc(C=O)cc1OC(=O)c1ccc(O)cc1[O-] (3D coordinates assigned)
[NH-]S(=O)(=O)Oc1ccc(C=O)cc1OC(=O)c1ccc(O)cc1[O-] (optimized conformer: 39.62636421343607 kcal/mol)

>  <smiles>  (14) 
NS(=O)(=O)Oc1ccc(C=O)cc1OC(=O)c1ccc(O)cc1O

>  <score_type>  (14) 
oracle

>  <origin>  (14) 
adg

>  <m_score__min__energy>  (14) 
-13.390000000000001

>  <m_primary>  (14) 
energy

$$$$
14:0
     RDKit          3D

 32 33  0  0  0  0  0  0  0  0999 V2000
   57.8580   32.3290   50.1620 N   0  0  0  0  0  0  0  0  0  0  0  0
   59.2240   32.8440   49.2400 S   0  0  0  0  0  0  0  0  0  0  0  0
   59.7810   34.1080   49.8340 O   0  0  0  0  0  0  0  0  0  0  0  0
   60.2880   31.7830   49.2830 O   0  0  0  0  0  0  0  0  0  0  0  0
   58.7340   33.1340   47.5730 C   0  0  0  0  0  0  0  0  0  0  0  0
   58.9580   34.3830   46.9810 C   0  0  0  0  0  0  0  0  0  0  0  0
   58.5850   34.6080   45.6550 C   0  0  0  0  0  0  0  0  0  0  0  0
   57.9840   33.5880   44.9120 C   0  0  0  0  0  0  0  0  0  0  0  0
   57.7440   32.3310   45.4940 C   0  0  0  0  0  0  0  0  0  0  0  0
   57.1160   31.2400   44.7130 C   0  0  0  0  0  0  0  0  0  0  0  0
   55.8690   31.2480   44.5320 O   0  0  0  0  0  0  0  0  0  0  0  0
   57.8760   30.1400   44.1940 N   0  0  0  0  0  0  0  0  0  0  0  0
   58.0610   28.8630   44.8260 C   0  0  0  0  0  0  0  0  0  0  0  0
   59.3420   28.3060   44.9600 C   0  0  0  0  0  0  0  0  0  0  0  0
   59.5100   27.0610   45.5600 C   0  0  0  0  0  0  0  0  0  0  0  0
   58.4040   26.3480   46.0190 C   0  0  0  0  0  0  0  0  0  0  0  0
   57.1040   26.8680   45.8770 C   0  0  0  0  0  0  0  0  0  0  0  0
   55.9460   26.0760   46.3690 C   0  0  0  0  0  0  0  0  0  0  0  0
   56.1170   25.1570   47.2130 O   0  0  0  0  0  0  0  0  0  0  0  0
   54.6570   26.3280   45.9150 O   0  0  0  0  0  0  0  0  0  0  0  0
   56.9350   28.1370   45.2690 C   0  0  0  0  0  0  0  0  0  0  0  0
   55.6530   28.6700   45.1140 O   0  0  0  0  0  0  0  0  0  0  0  0
   58.1390   32.1080   46.8250 C   0  0  0  0  0  0  0  0  0  0  0  0
   57.0090   32.7200   49.6940 H   0  0  0  0  0  0  0  0  0  0  0  0
   59.4292   35.1891   47.5626 H   0  0  0  0  0  0  0  0  0  0  0  0
   58.7644   35.5903   45.1936 H   0  0  0  0  0  0  0  0  0  0  0  0
   57.6971   33.7699   43.8658 H   0  0  0  0  0  0  0  0  0  0  0  0
   60.2189   28.8565   44.5886 H   0  0  0  0  0  0  0  0  0  0  0  0
   60.5194   26.6385   45.6722 H   0  0  0  0  0  0  0  0  0  0  0  0
   58.5487   25.3681   46.4975 H   0  0  0  0  0  0  0  0  0  0  0  0
   55.4820   29.5660   44.6740 H   0  0  0  0  0  0  0  0  0  0  0  0
   57.9799   31.1207   47.2831 H   0  0  0  0  0  0  0  0  0  0  0  0
  1  2  1  0
  2  3  2  0
  2  4  2  0
  2  5  1  0
  5  6  2  0
  6  7  1  0
  7  8  2  0
  8  9  1  0
  9 10  1  0
 10 11  2  0
 10 12  1  0
 12 13  1  0
 13 14  2  0
 14 15  1  0
 15 16  2  0
 16 17  1  0
 17 18  1  0
 18 19  2  0
 18 20  1  0
 17 21  2  0
 21 22  1  0
  9 23  2  0
 23  5  1  0
 21 13  1  0
  1 24  1  0
  6 25  1  0
  7 26  1  0
  8 27  1  0
 14 28  1  0
 15 29  1  0
 16 30  1  0
 22 31  1  0
 23 32  1  0
M  CHG  3   1  -1  12  -1  20  -1
M  END
>  <UniqueID>  (15) 
12

>  <SMILES>  (15) 
[NH-]S(=O)(=O)c1cccc(C(=O)[N-]c2cccc(C(=O)[O-])c2O)c1

>  <Energy>  (15) 
42.515357429048194

>  <Genealogy>  (15) 
[NH-]S(=O)(=O)c1cccc(C(=O)[N-]c2cccc(C(=O)[O-])c2O)c1 (protonated)
[NH-]S(=O)(=O)c1cccc(C(=O)[N-]c2cccc(C(=O)[O-])c2O)c1 (3D coordinates assigned)
[NH-]S(=O)(=O)c1cccc(C(=O)[N-]c2cccc(C(=O)[O-])c2O)c1 (optimized conformer: 42.515357429048194 kcal/mol)

>  <smiles>  (15) 
NS(=O)(=O)c1cccc(C(=O)Nc2cccc(C(=O)O)c2O)c1

>  <score_type>  (15) 
oracle

>  <origin>  (15) 
adg

>  <m_score__min__energy>  (15) 
-14.35

>  <m_primary>  (15) 
energy

$$$$
15:0
     RDKit          3D

 53 56  0  0  0  0  0  0  0  0999 V2000
   59.6440   29.0960   51.5110 C   0  0  0  0  0  0  0  0  0  0  0  0
   59.4300   30.3630   50.7220 C   0  0  0  0  0  0  0  0  0  0  0  0
   59.2180   31.5460   51.4600 C   0  0  0  0  0  0  0  0  0  0  0  0
   59.0240   32.7690   50.8200 C   0  0  0  0  0  0  0  0  0  0  0  0
   58.8140   33.8940   51.5510 F   0  0  0  0  0  0  0  0  0  0  0  0
   59.0440   32.8380   49.4310 C   0  0  0  0  0  0  0  0  0  0  0  0
   59.2730   31.6880   48.6770 C   0  0  0  0  0  0  0  0  0  0  0  0
   59.4910   30.4330   49.2920 C   0  0  0  0  0  0  0  0  0  0  0  0
   59.7490   29.2430   48.3600 C   0  0  2  0  0  0  0  0  0  0  0  0
   60.5330   29.6310   47.0980 C   0  0  0  0  0  0  0  0  0  0  0  0
   60.7430   28.3840   46.2290 C   0  0  0  0  0  0  0  0  0  0  0  0
   59.4760   27.7140   45.8150 N   0  0  0  0  0  0  0  0  0  0  0  0
   59.2860   27.7890   44.3440 C   0  0  0  0  0  0  0  0  0  0  0  0
   58.4200   28.9710   43.9870 C   0  0  0  0  0  0  0  0  0  0  0  0
   57.2740   28.8140   43.1930 C   0  0  0  0  0  0  0  0  0  0  0  0
   56.4780   29.9220   42.8900 C   0  0  0  0  0  0  0  0  0  0  0  0
   56.8350   31.1800   43.3830 C   0  0  0  0  0  0  0  0  0  0  0  0
   57.9510   31.3200   44.1480 N   0  0  0  0  0  0  0  0  0  0  0  0
   58.7450   30.2560   44.4540 C   0  0  0  0  0  0  0  0  0  0  0  0
   58.2580   28.1710   46.5390 C   0  0  1  0  0  0  0  0  0  0  0  0
   57.1370   27.1680   46.3650 C   0  0  0  0  0  0  0  0  0  0  0  0
   55.9180   27.3770   45.7420 C   0  0  0  0  0  0  0  0  0  0  0  0
   55.5190   28.5760   45.1590 O   0  0  0  0  0  0  0  0  0  0  0  0
   55.1440   26.2740   45.7660 N   0  0  0  0  0  0  0  0  0  0  0  0
   55.8850   25.3520   46.4130 C   0  0  0  0  0  0  0  0  0  0  0  0
   55.4420   24.0570   46.6570 O   0  0  0  0  0  0  0  0  0  0  0  0
   57.1150   25.8540   46.7950 C   0  0  0  0  0  0  0  0  0  0  0  0
   58.1870   25.1310   47.5510 C   0  0  0  0  0  0  0  0  0  0  0  0
   58.5110   28.3660   48.0540 C   0  0  0  0  0  0  0  0  0  0  0  0
   59.6057   29.3230   52.5866 H   0  0  0  0  0  0  0  0  0  0  0  0
   58.8556   28.3708   51.2610 H   0  0  0  0  0  0  0  0  0  0  0  0
   60.6268   28.6699   51.2610 H   0  0  0  0  0  0  0  0  0  0  0  0
   59.2055   31.5028   52.5591 H   0  0  0  0  0  0  0  0  0  0  0  0
   58.8789   33.8015   48.9266 H   0  0  0  0  0  0  0  0  0  0  0  0
   59.2844   31.7581   47.5793 H   0  0  0  0  0  0  0  0  0  0  0  0
   60.4029   28.5826   48.9485 H   0  0  0  0  0  0  0  0  0  0  0  0
   59.9664   30.3836   46.5301 H   0  0  0  0  0  0  0  0  0  0  0  0
   61.5091   30.0496   47.3843 H   0  0  0  0  0  0  0  0  0  0  0  0
   61.2892   28.6822   45.3220 H   0  0  0  0  0  0  0  0  0  0  0  0
   61.3016   27.6599   46.8402 H   0  0  0  0  0  0  0  0  0  0  0  0
   60.2662   27.8971   43.8567 H   0  0  0  0  0  0  0  0  0  0  0  0
   58.7932   26.8678   43.9997 H   0  0  0  0  0  0  0  0  0  0  0  0
   57.0022   27.8196   42.8093 H   0  0  0  0  0  0  0  0  0  0  0  0
   55.5779   29.8049   42.2686 H   0  0  0  0  0  0  0  0  0  0  0  0
   56.2131   32.0575   43.1523 H   0  0  0  0  0  0  0  0  0  0  0  0
   59.6447   30.4034   45.0695 H   0  0  0  0  0  0  0  0  0  0  0  0
   57.9801   29.1425   46.1044 H   0  0  0  0  0  0  0  0  0  0  0  0
   54.7590   28.5970   44.4890 H   0  0  0  0  0  0  0  0  0  0  0  0
   58.0154   25.2467   48.6314 H   0  0  0  0  0  0  0  0  0  0  0  0
   58.1642   24.0630   47.2884 H   0  0  0  0  0  0  0  0  0  0  0  0
   59.1686   25.5523   47.2884 H   0  0  0  0  0  0  0  0  0  0  0  0
   57.6255   28.8452   48.4970 H   0  0  0  0  0  0  0  0  0  0  0  0
   58.7022   27.3713   48.4831 H   0  0  0  0  0  0  0  0  0  0  0  0
  1  2  1  0
  2  3  2  0
  3  4  1  0
  4  5  1  0
  4  6  2  0
  6  7  1  0
  7  8  2  0
  8  9  1  0
  9 10  1  0
 10 11  1  0
 11 12  1  0
 12 13  1  0
 13 14  1  0
 14 15  2  0
 15 16  1  0
 16 17  2  0
 17 18  1  0
 18 19  2  0
 12 20  1  0
 20 21  1  0
 21 22  2  0
 22 23  1  0
 22 24  1  0
 24 25  1  0
 25 26  1  0
 25 27  2  0
 27 28  1  0
 20 29  1  0
  8  2  1  0
 29  9  1  0
 19 14  1  0
 27 21  1  0
  1 30  1  0
  1 31  1  0
  1 32  1  0
  3 33  1  0
  6 34  1  0
  7 35  1  0
  9 36  1  1
 10 37  1  0
 10 38  1  0
 11 39  1  0
 11 40  1  0
 13 41  1  0
 13 42  1  0
 15 43  1  0
 16 44  1  0
 17 45  1  0
 19 46  1  0
 20 47  1  6
 23 48  1  0
 28 49  1  0
 28 50  1  0
 28 51  1  0
 29 52  1  0
 29 53  1  0
M  CHG  2  24  -1  26  -1
M  END
>  <UniqueID>  (16) 
13

>  <SMILES>  (16) 
Cc1cc(F)ccc1[C@@H]1CCN(Cc2cccnc2)[C@@H](c2c(O)[n-]c([O-])c2C)C1

>  <Energy>  (16) 
98.60049637613581

>  <Genealogy>  (16) 
Cc1cc(F)ccc1C1CCN(Cc2cccnc2)C(c2c(O)[n-]c([O-])c2C)C1 (protonated)
Cc1cc(F)ccc1[C@@H]1CCN(Cc2cccnc2)[C@@H](c2c(O)[n-]c([O-])c2C)C1 (chirality)
Cc1cc(F)ccc1[C@@H]1CCN(Cc2cccnc2)[C@@H](c2c(O)[n-]c([O-])c2C)C1 (3D coordinates assigned)
Cc1cc(F)ccc1[C@@H]1CCN(Cc2cccnc2)[C@@H](c2c(O)[n-]c([O-])c2C)C1 (nonaromatic ring conformer: 98.60049637613581 kcal/mol)

>  <smiles>  (16) 
Cc1cc(F)ccc1C1CCN(Cc2cccnc2)C(c2c(O)[nH]c(O)c2C)C1

>  <score_type>  (16) 
oracle

>  <origin>  (16) 
adg

>  <m_score__min__energy>  (16) 
-12.5

>  <m_primary>  (16) 
energy

$$$$
16:0
     RDKit          3D

 44 46  0  0  0  0  0  0  0  0999 V2000
   55.1450   28.9680   44.5330 N   0  0  0  0  0  0  0  0  0  0  0  0
   56.3760   30.1170   44.1410 S   0  0  0  0  0  0  0  0  0  0  0  0
   56.5100   30.2250   42.6480 O   0  0  0  0  0  0  0  0  0  0  0  0
   55.9840   31.4590   44.6920 O   0  0  0  0  0  0  0  0  0  0  0  0
   57.9170   29.5920   44.8320 C   0  0  0  0  0  0  0  0  0  0  0  0
   58.2500   28.2280   44.8210 C   0  0  0  0  0  0  0  0  0  0  0  0
   59.4530   27.7920   45.3740 C   0  0  0  0  0  0  0  0  0  0  0  0
   60.3350   28.7120   45.9360 C   0  0  0  0  0  0  0  0  0  0  0  0
   60.0200   30.0720   45.9470 C   0  0  0  0  0  0  0  0  0  0  0  0
   58.8070   30.5290   45.4000 C   0  0  0  0  0  0  0  0  0  0  0  0
   58.4360   31.9200   45.3890 N   0  0  0  0  0  0  0  0  0  0  0  0
   58.6530   33.1560   46.5950 S   0  0  0  0  0  0  0  0  0  0  0  0
   57.7120   33.0080   47.7540 O   0  0  0  0  0  0  0  0  0  0  0  0
   58.3590   34.4800   45.9470 O   0  0  0  0  0  0  0  0  0  0  0  0
   60.3330   33.1340   47.1620 C   0  0  0  0  0  0  0  0  0  0  0  0
   61.3080   33.8130   46.4110 C   0  0  0  0  0  0  0  0  0  0  0  0
   62.6520   33.7750   46.7880 C   0  0  0  0  0  0  0  0  0  0  0  0
   63.0420   33.0520   47.9140 C   0  0  0  0  0  0  0  0  0  0  0  0
   62.0890   32.3700   48.6700 C   0  0  0  0  0  0  0  0  0  0  0  0
   60.7330   32.4030   48.3070 C   0  0  0  0  0  0  0  0  0  0  0  0
   59.7730   31.6720   49.1530 C   0  0  0  0  0  0  0  0  0  0  0  0
   59.4820   30.4820   48.8600 O   0  0  0  0  0  0  0  0  0  0  0  0
   59.1260   32.3180   50.2620 N   0  0  0  0  0  0  0  0  0  0  0  0
   59.5650   33.5810   50.8280 C   0  0  0  0  0  0  0  0  0  0  0  0
   58.6180   33.8690   51.9850 C   0  0  0  0  0  0  0  0  0  0  0  0
   57.8610   32.5690   52.2490 C   0  0  0  0  0  0  0  0  0  0  0  0
   58.0210   31.7240   50.9930 C   0  0  0  0  0  0  0  0  0  0  0  0
   54.6220   29.3500   45.3520 H   0  0  0  0  0  0  0  0  0  0  0  0
   57.5578   27.4995   44.3736 H   0  0  0  0  0  0  0  0  0  0  0  0
   59.7058   26.7215   45.3666 H   0  0  0  0  0  0  0  0  0  0  0  0
   61.2833   28.3656   46.3728 H   0  0  0  0  0  0  0  0  0  0  0  0
   60.7258   30.7920   46.3868 H   0  0  0  0  0  0  0  0  0  0  0  0
   61.0092   34.3802   45.5171 H   0  0  0  0  0  0  0  0  0  0  0  0
   63.4041   34.3165   46.1954 H   0  0  0  0  0  0  0  0  0  0  0  0
   64.1019   33.0193   48.2065 H   0  0  0  0  0  0  0  0  0  0  0  0
   62.4022   31.8015   49.5581 H   0  0  0  0  0  0  0  0  0  0  0  0
   60.5999   33.4986   51.1916 H   0  0  0  0  0  0  0  0  0  0  0  0
   59.5473   34.3875   50.0802 H   0  0  0  0  0  0  0  0  0  0  0  0
   59.1866   34.1674   52.8781 H   0  0  0  0  0  0  0  0  0  0  0  0
   57.9294   34.6923   51.7442 H   0  0  0  0  0  0  0  0  0  0  0  0
   58.2899   32.0472   53.1172 H   0  0  0  0  0  0  0  0  0  0  0  0
   56.8009   32.7598   52.4723 H   0  0  0  0  0  0  0  0  0  0  0  0
   58.2519   30.6817   51.2581 H   0  0  0  0  0  0  0  0  0  0  0  0
   57.0988   31.7063   50.3937 H   0  0  0  0  0  0  0  0  0  0  0  0
  1  2  1  0
  2  3  2  0
  2  4  2  0
  2  5  1  0
  5  6  2  0
  6  7  1  0
  7  8  2  0
  8  9  1  0
  9 10  2  0
 10 11  1  0
 11 12  1  0
 12 13  2  0
 12 14  2  0
 12 15  1  0
 15 16  2  0
 16 17  1  0
 17 18  2  0
 18 19  1  0
 19 20  2  0
 20 21  1  0
 21 22  2  0
 21 23  1  0
 23 24  1  0
 24 25  1  0
 25 26  1  0
 26 27  1  0
 10  5  1  0
 20 15  1  0
 27 23  1  0
  1 28  1  0
  6 29  1  0
  7 30  1  0
  8 31  1  0
  9 32  1  0
 16 33  1  0
 17 34  1  0
 18 35  1  0
 19 36  1  0
 24 37  1  0
 24 38  1  0
 25 39  1  0
 25 40  1  0
 26 41  1  0
 26 42  1  0
 27 43  1  0
 27 44  1  0
M  CHG  2   1  -1  11  -1
M  END
>  <UniqueID>  (17) 
14

>  <SMILES>  (17) 
[NH-]S(=O)(=O)c1ccccc1[N-]S(=O)(=O)c1ccccc1C(=O)N1CCCC1

>  <Energy>  (17) 
56.445012346632566

>  <Genealogy>  (17) 
[NH-]S(=O)(=O)c1ccccc1[N-]S(=O)(=O)c1ccccc1C(=O)N1CCCC1 (protonated)
[NH-]S(=O)(=O)c1ccccc1[N-]S(=O)(=O)c1ccccc1C(=O)N1CCCC1 (3D coordinates assigned)
[NH-]S(=O)(=O)c1ccccc1[N-]S(=O)(=O)c1ccccc1C(=O)N1CCCC1 (nonaromatic ring conformer: 56.445012346632566 kcal/mol)

>  <smiles>  (17) 
NS(=O)(=O)c1ccccc1NS(=O)(=O)c1ccccc1C(=O)N1CCCC1

>  <score_type>  (17) 
oracle

>  <origin>  (17) 
adg

>  <m_score__min__energy>  (17) 
-13.359999999999999

>  <m_primary>  (17) 
energy

$$$$
17:0
     RDKit          3D

 44 46  0  0  0  0  0  0  0  0999 V2000
   58.3587   30.2425   43.4976 H   0  0  0  0  0  0  0  0  0  0  0  0
   57.7920   30.1170   44.4320 C   0  0  0  0  0  0  0  0  0  0  0  0
   57.3710   31.1890   45.0410 N   0  0  0  0  0  0  0  0  0  0  0  0
   58.0620   31.9190   46.0680 C   0  0  0  0  0  0  0  0  0  0  0  0
   58.3570   33.2700   45.8540 C   0  0  0  0  0  0  0  0  0  0  0  0
   58.0553   33.7512   44.9120 H   0  0  0  0  0  0  0  0  0  0  0  0
   59.0320   34.0140   46.8270 C   0  0  0  0  0  0  0  0  0  0  0  0
   59.2480   35.3700   46.6150 O   0  0  0  0  0  0  0  0  0  0  0  0
   59.4640   33.3930   48.0140 C   0  0  0  0  0  0  0  0  0  0  0  0
   60.1810   34.1240   49.0190 N   0  0  0  0  0  0  0  0  0  0  0  0
   59.9010   33.9720   50.0150 H   0  0  0  0  0  0  0  0  0  0  0  0
   61.5480   34.5920   48.7960 C   0  0  0  0  0  0  0  0  0  0  0  0
   61.7501   34.6284   47.7153 H   0  0  0  0  0  0  0  0  0  0  0  0
   61.6635   35.5970   49.2279 H   0  0  0  0  0  0  0  0  0  0  0  0
   62.5220   33.6510   49.4560 C   0  0  0  0  0  0  0  0  0  0  0  0
   63.6040   33.1400   48.7190 C   0  0  0  0  0  0  0  0  0  0  0  0
   63.7134   33.4009   47.6560 H   0  0  0  0  0  0  0  0  0  0  0  0
   64.5420   32.3020   49.3290 C   0  0  0  0  0  0  0  0  0  0  0  0
   65.3813   31.8988   48.7433 H   0  0  0  0  0  0  0  0  0  0  0  0
   64.4150   31.9760   50.6810 C   0  0  0  0  0  0  0  0  0  0  0  0
   65.1516   31.3130   51.1583 H   0  0  0  0  0  0  0  0  0  0  0  0
   63.3520   32.4920   51.4280 C   0  0  0  0  0  0  0  0  0  0  0  0
   63.2569   32.2382   52.4941 H   0  0  0  0  0  0  0  0  0  0  0  0
   62.4090   33.3300   50.8240 C   0  0  0  0  0  0  0  0  0  0  0  0
   61.3670   33.8420   51.5910 O   0  0  0  0  0  0  0  0  0  0  0  0
   59.1830   32.0350   48.2210 C   0  0  0  0  0  0  0  0  0  0  0  0
   59.4964   31.5500   49.1572 H   0  0  0  0  0  0  0  0  0  0  0  0
   58.5080   31.2920   47.2480 C   0  0  0  0  0  0  0  0  0  0  0  0
   58.3120   29.9320   47.4500 O   0  0  0  0  0  0  0  0  0  0  0  0
   57.5540   28.7410   44.9210 C   0  0  0  0  0  0  0  0  0  0  0  0
   58.6420   27.8650   45.0260 C   0  0  0  0  0  0  0  0  0  0  0  0
   59.6475   28.2077   44.7406 H   0  0  0  0  0  0  0  0  0  0  0  0
   58.4610   26.5600   45.4900 C   0  0  0  0  0  0  0  0  0  0  0  0
   59.3259   25.8867   45.5822 H   0  0  0  0  0  0  0  0  0  0  0  0
   57.1770   26.1030   45.8400 C   0  0  0  0  0  0  0  0  0  0  0  0
   56.9500   24.8040   46.3210 O   0  0  0  0  0  0  0  0  0  0  0  0
   56.3630   24.5040   47.5840 C   0  0  0  0  0  0  0  0  0  0  0  0
   57.0306   24.8452   48.3889 H   0  0  0  0  0  0  0  0  0  0  0  0
   55.3939   25.0173   47.6691 H   0  0  0  0  0  0  0  0  0  0  0  0
   56.2113   23.4178   47.6691 H   0  0  0  0  0  0  0  0  0  0  0  0
   56.0810   26.9670   45.7000 C   0  0  0  0  0  0  0  0  0  0  0  0
   54.8040   26.5210   46.0240 O   0  0  0  0  0  0  0  0  0  0  0  0
   56.2620   28.2740   45.2300 C   0  0  0  0  0  0  0  0  0  0  0  0
   55.1500   29.0920   45.0500 O   0  0  0  0  0  0  0  0  0  0  0  0
  1  2  1  0
  2  3  2  0
  3  4  1  0
  4  5  2  0
  5  6  1  0
  5  7  1  0
  7  8  1  0
  7  9  2  0
  9 10  1  0
 10 11  1  0
 10 12  1  0
 12 13  1  0
 12 14  1  0
 12 15  1  0
 15 16  2  0
 16 17  1  0
 16 18  1  0
 18 19  1  0
 18 20  2  0
 20 21  1  0
 20 22  1  0
 22 23  1  0
 22 24  2  0
 24 25  1  0
  9 26  1  0
 26 27  1  0
 26 28  2  0
 28 29  1  0
  2 30  1  0
 30 31  2  0
 31 32  1  0
 31 33  1  0
 33 34  1  0
 33 35  2  0
 35 36  1  0
 36 37  1  0
 37 38  1  0
 37 39  1  0
 37 40  1  0
 35 41  1  0
 41 42  1  0
 41 43  2  0
 43 44  1  0
 28  4  1  0
 43 30  1  0
 24 15  1  0
M  CHG  5   8  -1  25  -1  29  -1  42  -1  44  -1
M  END
>  <UniqueID>  (18) 
15

>  <SMILES>  (18) 
COc1ccc(/C=N\c2cc([O-])c(NCc3ccccc3[O-])cc2[O-])c([O-])c1[O-]

>  <Energy>  (18) 
64.40855771228975

>  <Genealogy>  (18) 
COc1ccc(C=Nc2cc([O-])c(NCc3ccccc3[O-])cc2[O-])c([O-])c1[O-] (protonated)
COc1ccc(/C=N\c2cc([O-])c(NCc3ccccc3[O-])cc2[O-])c([O-])c1[O-] (cis-trans isomerization)
COc1ccc(/C=N\c2cc([O-])c(NCc3ccccc3[O-])cc2[O-])c([O-])c1[O-] (3D coordinates assigned)
COc1ccc(/C=N\c2cc([O-])c(NCc3ccccc3[O-])cc2[O-])c([O-])c1[O-] (optimized conformer: 64.40855771228975 kcal/mol)

>  <smiles>  (18) 
COc1ccc(C=Nc2cc(O)c(NCc3ccccc3O)cc2O)c(O)c1O

>  <score_type>  (18) 
oracle

>  <origin>  (18) 
adg

>  <m_score__min__energy>  (18) 
-17.969999999999999

>  <m_primary>  (18) 
energy

$$$$
18:0
     RDKit          3D

 68 71  0  0  0  0  0  0  0  0999 V2000
   51.1100   31.7720   50.6580 N   0  0  0  0  0  0  0  0  0  0  0  0
   52.0490   31.6510   52.1030 S   0  0  0  0  0  0  0  0  0  0  0  0
   53.4480   32.1340   51.8400 O   0  0  0  0  0  0  0  0  0  0  0  0
   51.4320   32.5260   53.1620 O   0  0  0  0  0  0  0  0  0  0  0  0
   52.0850   29.9670   52.6550 C   0  0  0  0  0  0  0  0  0  0  0  0
   50.8740   29.2620   52.7650 C   0  0  0  0  0  0  0  0  0  0  0  0
   50.8580   27.9460   53.2370 C   0  0  0  0  0  0  0  0  0  0  0  0
   52.0500   27.3200   53.6010 C   0  0  0  0  0  0  0  0  0  0  0  0
   53.2620   28.0030   53.4890 C   0  0  0  0  0  0  0  0  0  0  0  0
   53.2940   29.3240   53.0140 C   0  0  0  0  0  0  0  0  0  0  0  0
   54.6010   29.9990   52.9200 C   0  0  0  0  0  0  0  0  0  0  0  0
   55.1940   30.2300   51.6700 C   0  0  0  0  0  0  0  0  0  0  0  0
   56.4500   30.8350   51.5870 C   0  0  0  0  0  0  0  0  0  0  0  0
   57.1420   31.1910   52.7550 C   0  0  0  0  0  0  0  0  0  0  0  0
   58.4980   31.8340   52.6610 C   0  0  0  0  0  0  0  0  0  0  0  0
   59.3210   31.1520   51.6710 N   0  0  0  0  0  0  0  0  0  0  0  0
   59.3400   31.4840   50.2780 C   0  0  0  0  0  0  0  0  0  0  0  0
   59.2850   32.6910   49.9210 O   0  0  0  0  0  0  0  0  0  0  0  0
   59.4560   30.4130   49.2610 C   0  0  0  0  0  0  0  0  0  0  0  0
   59.5320   29.0630   49.6510 C   0  0  0  0  0  0  0  0  0  0  0  0
   59.7100   28.0590   48.6980 C   0  0  0  0  0  0  0  0  0  0  0  0
   59.8150   28.3830   47.3380 C   0  0  0  0  0  0  0  0  0  0  0  0
   60.0600   27.3030   46.3140 C   0  0  0  0  0  0  0  0  0  0  0  0
   58.8650   27.1140   45.3710 C   0  0  0  0  0  0  0  0  0  0  0  0
   57.6600   26.6980   46.0890 N   0  0  0  0  0  0  0  0  0  0  0  0
   56.3370   27.1670   45.8090 C   0  0  0  0  0  0  0  0  0  0  0  0
   55.3570   26.4110   46.0300 O   0  0  0  0  0  0  0  0  0  0  0  0
   56.1120   28.4520   45.2250 N   0  0  0  0  0  0  0  0  0  0  0  0
   56.9460   29.6100   45.5210 C   0  0  0  0  0  0  0  0  0  0  0  0
   56.8510   30.6360   44.3890 C   0  0  0  0  0  0  0  0  0  0  0  0
   57.5310   31.9220   44.7770 C   0  0  0  0  0  0  0  0  0  0  0  0
   58.2290   32.6730   43.8160 C   0  0  0  0  0  0  0  0  0  0  0  0
   58.8790   33.8540   44.1820 C   0  0  0  0  0  0  0  0  0  0  0  0
   58.8490   34.2870   45.5110 C   0  0  0  0  0  0  0  0  0  0  0  0
   58.1730   33.5370   46.4760 C   0  0  0  0  0  0  0  0  0  0  0  0
   57.5180   32.3550   46.1130 C   0  0  0  0  0  0  0  0  0  0  0  0
   59.6960   29.7240   46.9390 C   0  0  0  0  0  0  0  0  0  0  0  0
   59.5260   30.7320   47.8920 C   0  0  0  0  0  0  0  0  0  0  0  0
   56.5480   30.9550   54.0060 C   0  0  0  0  0  0  0  0  0  0  0  0
   55.2880   30.3590   54.0880 C   0  0  0  0  0  0  0  0  0  0  0  0
   50.2750   32.3530   50.8880 H   0  0  0  0  0  0  0  0  0  0  0  0
   49.9309   29.7497   52.4773 H   0  0  0  0  0  0  0  0  0  0  0  0
   49.9046   27.4039   53.3213 H   0  0  0  0  0  0  0  0  0  0  0  0
   52.0349   26.2864   53.9770 H   0  0  0  0  0  0  0  0  0  0  0  0
   54.1990   27.5028   53.7749 H   0  0  0  0  0  0  0  0  0  0  0  0
   54.6674   29.9333   50.7510 H   0  0  0  0  0  0  0  0  0  0  0  0
   56.8986   31.0333   50.6024 H   0  0  0  0  0  0  0  0  0  0  0  0
   58.3790   32.8877   52.3683 H   0  0  0  0  0  0  0  0  0  0  0  0
   58.9921   31.7650   53.6414 H   0  0  0  0  0  0  0  0  0  0  0  0
   59.4505   28.7970   50.7152 H   0  0  0  0  0  0  0  0  0  0  0  0
   59.7682   27.0075   49.0158 H   0  0  0  0  0  0  0  0  0  0  0  0
   60.9426   27.5754   45.7166 H   0  0  0  0  0  0  0  0  0  0  0  0
   60.2166   26.3570   46.8531 H   0  0  0  0  0  0  0  0  0  0  0  0
   58.6624   28.0664   44.8593 H   0  0  0  0  0  0  0  0  0  0  0  0
   59.1220   26.3224   44.6517 H   0  0  0  0  0  0  0  0  0  0  0  0
   56.6054   30.0722   46.4593 H   0  0  0  0  0  0  0  0  0  0  0  0
   57.9913   29.2823   45.6203 H   0  0  0  0  0  0  0  0  0  0  0  0
   57.3365   30.2279   43.4902 H   0  0  0  0  0  0  0  0  0  0  0  0
   55.7896   30.8440   44.1888 H   0  0  0  0  0  0  0  0  0  0  0  0
   58.2636   32.3295   42.7716 H   0  0  0  0  0  0  0  0  0  0  0  0
   59.4150   34.4439   43.4239 H   0  0  0  0  0  0  0  0  0  0  0  0
   59.3582   35.2192   45.7969 H   0  0  0  0  0  0  0  0  0  0  0  0
   58.1555   33.8758   47.5224 H   0  0  0  0  0  0  0  0  0  0  0  0
   56.9914   31.7632   46.8762 H   0  0  0  0  0  0  0  0  0  0  0  0
   59.7368   29.9825   45.8706 H   0  0  0  0  0  0  0  0  0  0  0  0
   59.4464   31.7809   47.5702 H   0  0  0  0  0  0  0  0  0  0  0  0
   57.0785   31.2413   54.9261 H   0  0  0  0  0  0  0  0  0  0  0  0
   54.8330   30.1714   55.0718 H   0  0  0  0  0  0  0  0  0  0  0  0
  1  2  1  0
  2  3  2  0
  2  4  2  0
  2  5  1  0
  5  6  2  0
  6  7  1  0
  7  8  2  0
  8  9  1  0
  9 10  2  0
 10 11  1  0
 11 12  2  0
 12 13  1  0
 13 14  2  0
 14 15  1  0
 15 16  1  0
 16 17  1  0
 17 18  2  0
 17 19  1  0
 19 20  2  0
 20 21  1  0
 21 22  2  0
 22 23  1  0
 23 24  1  0
 24 25  1  0
 25 26  1  0
 26 27  2  0
 26 28  1  0
 28 29  1  0
 29 30  1  0
 30 31  1  0
 31 32  2  0
 32 33  1  0
 33 34  2  0
 34 35  1  0
 35 36  2  0
 22 37  1  0
 37 38  2  0
 14 39  1  0
 39 40  2  0
 10  5  1  0
 40 11  1  0
 38 19  1  0
 36 31  1  0
  1 41  1  0
  6 42  1  0
  7 43  1  0
  8 44  1  0
  9 45  1  0
 12 46  1  0
 13 47  1  0
 15 48  1  0
 15 49  1  0
 20 50  1  0
 21 51  1  0
 23 52  1  0
 23 53  1  0
 24 54  1  0
 24 55  1  0
 29 56  1  0
 29 57  1  0
 30 58  1  0
 30 59  1  0
 32 60  1  0
 33 61  1  0
 34 62  1  0
 35 63  1  0
 36 64  1  0
 37 65  1  0
 38 66  1  0
 39 67  1  0
 40 68  1  0
M  CHG  4   1  -1  16  -1  25  -1  28  -1
M  END
>  <UniqueID>  (19) 
16

>  <SMILES>  (19) 
[NH-]S(=O)(=O)c1ccccc1-c1ccc(C[N-]C(=O)c2ccc(CC[N-]C(=O)[N-]CCc3ccccc3)cc2)cc1

>  <Energy>  (19) 
79.00054755347344

>  <Genealogy>  (19) 
[NH-]S(=O)(=O)c1ccccc1-c1ccc(C[N-]C(=O)c2ccc(CC[N-]C(=O)[N-]CCc3ccccc3)cc2)cc1 (protonated)
[NH-]S(=O)(=O)c1ccccc1-c1ccc(C[N-]C(=O)c2ccc(CC[N-]C(=O)[N-]CCc3ccccc3)cc2)cc1 (3D coordinates assigned)
[NH-]S(=O)(=O)c1ccccc1-c1ccc(C[N-]C(=O)c2ccc(CC[N-]C(=O)[N-]CCc3ccccc3)cc2)cc1 (optimized conformer: 79.00054755347344 kcal/mol)

>  <smiles>  (19) 
NS(=O)(=O)c1ccccc1-c1ccc(CNC(=O)c2ccc(CCNC(=O)NCCc3ccccc3)cc2)cc1

>  <score_type>  (19) 
oracle

>  <origin>  (19) 
adg

>  <m_score__min__energy>  (19) 
-15.65

>  <m_primary>  (19) 
energy

$$$$
19:0
     RDKit          3D

 49 51  0  0  0  0  0  0  0  0999 V2000
   58.7180   32.6630   48.5200 C   0  0  0  0  0  0  0  0  0  0  0  0
   59.1370   32.2550   47.1810 N   0  0  0  0  0  0  0  0  0  0  0  0
   59.5110   33.6540   46.2160 S   0  0  0  0  0  0  0  0  0  0  0  0
   61.0020   33.8260   46.1720 O   0  0  0  0  0  0  0  0  0  0  0  0
   58.9070   34.8720   46.8590 O   0  0  0  0  0  0  0  0  0  0  0  0
   58.8820   33.5180   44.5420 C   0  0  0  0  0  0  0  0  0  0  0  0
   57.3750   33.2670   44.4990 C   0  0  0  0  0  0  0  0  0  0  0  0
   57.0370   32.0730   45.2650 N   0  0  0  0  0  0  0  0  0  0  0  0
   56.9620   30.7500   44.7200 C   0  0  0  0  0  0  0  0  0  0  0  0
   55.9990   30.4610   43.9610 O   0  0  0  0  0  0  0  0  0  0  0  0
   57.9580   29.7100   45.0440 C   0  0  0  0  0  0  0  0  0  0  0  0
   59.2660   29.7910   44.5430 C   0  0  0  0  0  0  0  0  0  0  0  0
   60.1960   28.7920   44.8440 C   0  0  0  0  0  0  0  0  0  0  0  0
   59.8270   27.7020   45.6340 C   0  0  0  0  0  0  0  0  0  0  0  0
   58.5170   27.5980   46.1290 C   0  0  0  0  0  0  0  0  0  0  0  0
   58.1010   26.4000   46.9390 C   0  0  0  0  0  0  0  0  0  0  0  0
   56.9040   25.7330   46.3110 C   0  0  0  0  0  0  0  0  0  0  0  0
   55.6930   26.3320   46.4750 N   0  0  0  0  0  0  0  0  0  0  0  0
   54.5720   25.8140   45.9750 N   0  0  0  0  0  0  0  0  0  0  0  0
   54.5770   24.6570   45.2690 C   0  0  0  0  0  0  0  0  0  0  0  0
   53.4900   24.1940   44.8330 O   0  0  0  0  0  0  0  0  0  0  0  0
   55.7880   23.9910   45.0340 C   0  0  0  0  0  0  0  0  0  0  0  0
   56.9750   24.5300   45.5730 C   0  0  0  0  0  0  0  0  0  0  0  0
   58.2250   23.8550   45.3290 N   0  0  0  0  0  0  0  0  0  0  0  0
   58.2460   22.4830   44.8300 C   0  0  0  0  0  0  0  0  0  0  0  0
   57.1940   22.3260   43.7350 C   0  0  0  0  0  0  0  0  0  0  0  0
   55.8040   22.6750   44.2810 C   0  0  0  0  0  0  0  0  0  0  0  0
   57.5820   28.5990   45.8150 C   0  0  0  0  0  0  0  0  0  0  0  0
   59.2938   32.1024   49.2711 H   0  0  0  0  0  0  0  0  0  0  0  0
   58.8990   33.7404   48.6485 H   0  0  0  0  0  0  0  0  0  0  0  0
   57.6458   32.4534   48.6485 H   0  0  0  0  0  0  0  0  0  0  0  0
   58.3430   31.7500   46.7250 H   0  0  0  0  0  0  0  0  0  0  0  0
   59.0986   34.4545   44.0071 H   0  0  0  0  0  0  0  0  0  0  0  0
   59.3768   32.6569   44.0691 H   0  0  0  0  0  0  0  0  0  0  0  0
   56.8507   34.1336   44.9282 H   0  0  0  0  0  0  0  0  0  0  0  0
   57.0673   33.1193   43.4533 H   0  0  0  0  0  0  0  0  0  0  0  0
   59.5602   30.6426   43.9119 H   0  0  0  0  0  0  0  0  0  0  0  0
   61.2230   28.8651   44.4567 H   0  0  0  0  0  0  0  0  0  0  0  0
   60.5653   26.9214   45.8697 H   0  0  0  0  0  0  0  0  0  0  0  0
   58.9347   25.6836   46.9815 H   0  0  0  0  0  0  0  0  0  0  0  0
   57.8349   26.7297   47.9541 H   0  0  0  0  0  0  0  0  0  0  0  0
   59.1340   24.3630   45.3760 H   0  0  0  0  0  0  0  0  0  0  0  0
   59.2408   22.2573   44.4184 H   0  0  0  0  0  0  0  0  0  0  0  0
   58.0252   21.7887   45.6541 H   0  0  0  0  0  0  0  0  0  0  0  0
   57.4358   22.9997   42.8997 H   0  0  0  0  0  0  0  0  0  0  0  0
   57.1911   21.2824   43.3875 H   0  0  0  0  0  0  0  0  0  0  0  0
   55.1009   22.7428   43.4378 H   0  0  0  0  0  0  0  0  0  0  0  0
   55.5145   21.8830   44.9873 H   0  0  0  0  0  0  0  0  0  0  0  0
   56.5468   28.5111   46.1765 H   0  0  0  0  0  0  0  0  0  0  0  0
  1  2  1  0
  2  3  1  0
  3  4  2  0
  3  5  2  0
  3  6  1  0
  6  7  1  0
  7  8  1  0
  8  9  1  0
  9 10  2  0
  9 11  1  0
 11 12  2  0
 12 13  1  0
 13 14  2  0
 14 15  1  0
 15 16  1  0
 16 17  1  0
 17 18  2  0
 18 19  1  0
 19 20  1  0
 20 21  2  0
 20 22  1  0
 22 23  2  0
 23 24  1  0
 24 25  1  0
 25 26  1  0
 26 27  1  0
 15 28  2  0
 28 11  1  0
 23 17  1  0
 27 22  1  0
  1 29  1  0
  1 30  1  0
  1 31  1  0
  2 32  1  0
  6 33  1  0
  6 34  1  0
  7 35  1  0
  7 36  1  0
 12 37  1  0
 13 38  1  0
 14 39  1  0
 16 40  1  0
 16 41  1  0
 24 42  1  0
 25 43  1  0
 25 44  1  0
 26 45  1  0
 26 46  1  0
 27 47  1  0
 27 48  1  0
 28 49  1  0
M  CHG  2   8  -1  19  -1
M  END
>  <UniqueID>  (20) 
17

>  <SMILES>  (20) 
CNS(=O)(=O)CC[N-]C(=O)c1cccc(Cc2n[n-]c(=O)c3c2NCCC3)c1

>  <Energy>  (20) 
47.49747157496722

>  <Genealogy>  (20) 
CNS(=O)(=O)CC[N-]C(=O)c1cccc(Cc2n[n-]c(=O)c3c2NCCC3)c1 (protonated)
CNS(=O)(=O)CC[N-]C(=O)c1cccc(Cc2n[n-]c(=O)c3c2NCCC3)c1 (3D coordinates assigned)
CNS(=O)(=O)CC[N-]C(=O)c1cccc(Cc2n[n-]c(=O)c3c2NCCC3)c1 (nonaromatic ring conformer: 47.49747157496722 kcal/mol)

>  <smiles>  (20) 
CNS(=O)(=O)CCNC(=O)c1cccc(Cc2n[nH]c(=O)c3c2NCCC3)c1

>  <score_type>  (20) 
oracle

>  <origin>  (20) 
adg

>  <m_score__min__energy>  (20) 
-13.210000000000001

>  <m_primary>  (20) 
energy

$$$$
20:0
     RDKit          3D

 32 34  0  0  0  0  0  0  0  0999 V2000
   57.3358   29.9415   42.2805 H   0  0  0  0  0  0  0  0  0  0  0  0
   57.3880   30.7440   43.0310 C   0  0  0  0  0  0  0  0  0  0  0  0
   56.8880   30.5360   44.3270 C   0  0  0  0  0  0  0  0  0  0  0  0
   56.2830   29.2520   44.7220 C   0  0  0  0  0  0  0  0  0  0  0  0
   55.0610   29.0380   44.5000 O   0  0  0  0  0  0  0  0  0  0  0  0
   57.1100   28.2610   45.3570 N   0  0  0  0  0  0  0  0  0  0  0  0
   56.7990   27.0440   45.7010 C   0  0  0  0  0  0  0  0  0  0  0  0
   55.5570   26.7060   46.0910 N   0  0  0  0  0  0  0  0  0  0  0  0
   55.5680   25.4130   46.3690 N   0  0  0  0  0  0  0  0  0  0  0  0
   54.7360   24.8760   46.6970 H   0  0  0  0  0  0  0  0  0  0  0  0
   56.8000   24.9140   46.1620 C   0  0  0  0  0  0  0  0  0  0  0  0
   57.0991   23.8661   46.3121 H   0  0  0  0  0  0  0  0  0  0  0  0
   57.6270   25.9300   45.7310 C   0  0  0  0  0  0  0  0  0  0  0  0
   58.6943   25.8714   45.4714 H   0  0  0  0  0  0  0  0  0  0  0  0
   56.9630   31.5450   45.2390 N   0  0  0  0  0  0  0  0  0  0  0  0
   57.4990   32.7620   44.9410 C   0  0  0  0  0  0  0  0  0  0  0  0
   57.5740   33.7010   45.8400 N   0  0  0  0  0  0  0  0  0  0  0  0
   58.4310   33.6930   46.9920 C   0  0  0  0  0  0  0  0  0  0  0  0
   58.2400   32.7080   47.9700 C   0  0  0  0  0  0  0  0  0  0  0  0
   57.4349   31.9680   47.8508 H   0  0  0  0  0  0  0  0  0  0  0  0
   59.0670   32.6600   49.0970 C   0  0  0  0  0  0  0  0  0  0  0  0
   58.9013   31.8928   49.8677 H   0  0  0  0  0  0  0  0  0  0  0  0
   60.1030   33.5850   49.2450 C   0  0  0  0  0  0  0  0  0  0  0  0
   60.7448   33.5542   50.1379 H   0  0  0  0  0  0  0  0  0  0  0  0
   60.3240   34.5500   48.2580 C   0  0  0  0  0  0  0  0  0  0  0  0
   61.1475   35.2706   48.3702 H   0  0  0  0  0  0  0  0  0  0  0  0
   59.5010   34.6020   47.1280 C   0  0  0  0  0  0  0  0  0  0  0  0
   59.7800   35.5020   46.1520 F   0  0  0  0  0  0  0  0  0  0  0  0
   58.0130   32.9930   43.6610 C   0  0  0  0  0  0  0  0  0  0  0  0
   58.4616   33.9657   43.4106 H   0  0  0  0  0  0  0  0  0  0  0  0
   57.9520   31.9790   42.7040 C   0  0  0  0  0  0  0  0  0  0  0  0
   58.3480   32.1525   41.6925 H   0  0  0  0  0  0  0  0  0  0  0  0
  1  2  1  0
  2  3  2  0
  3  4  1  0
  4  5  2  0
  4  6  1  0
  6  7  2  3
  7  8  1  0
  8  9  1  0
  9 10  1  0
  9 11  1  0
 11 12  1  0
 11 13  2  0
 13 14  1  0
  3 15  1  0
 15 16  1  0
 16 17  2  0
 17 18  1  0
 18 19  2  0
 19 20  1  0
 19 21  1  0
 21 22  1  0
 21 23  2  0
 23 24  1  0
 23 25  1  0
 25 26  1  0
 25 27  2  0
 27 28  1  0
 16 29  1  0
 29 30  1  0
 29 31  2  0
 31 32  1  0
 31  2  1  0
 13  7  1  0
 27 18  1  0
M  CHG  2   8  -1  15  -1
M  END
>  <UniqueID>  (21) 
18

>  <SMILES>  (21) 
O=C(N=c1cc[nH][n-]1)c1ccc/c(=N/c2ccccc2F)[n-]1

>  <Energy>  (21) 
76.66426820300322

>  <Genealogy>  (21) 
O=C(N=c1cc[nH][n-]1)c1cccc(=Nc2ccccc2F)[n-]1 (protonated)
O=C(N=c1cc[nH][n-]1)c1ccc/c(=N/c2ccccc2F)[n-]1 (cis-trans isomerization)
O=C(N=c1cc[nH][n-]1)c1ccc/c(=N/c2ccccc2F)[n-]1 (3D coordinates assigned)
O=C(N=c1cc[nH][n-]1)c1ccc/c(=N/c2ccccc2F)[n-]1 (optimized conformer: 76.66426820300322 kcal/mol)

>  <smiles>  (21) 
O=C(N=c1cc[nH][nH]1)c1cccc(=Nc2ccccc2F)[nH]1

>  <score_type>  (21) 
oracle

>  <origin>  (21) 
adg

>  <m_score__min__energy>  (21) 
-11.130000000000001

>  <m_primary>  (21) 
energy

$$$$
21:0
     RDKit          3D

 27 28  0  0  1  0  0  0  0  0999 V2000
   58.3560   34.1940   46.4300 C   0  0  0  0  0  0  0  0  0  0  0  0
   58.8260   34.1600   45.0050 C   0  0  0  0  0  0  0  0  0  0  0  0
   58.2040   33.0100   44.2970 C   0  0  0  0  0  0  0  0  0  0  0  0
   57.8040   31.9050   45.0190 C   0  0  0  0  0  0  0  0  0  0  0  0
   57.2210   30.8340   44.3620 C   0  0  0  0  0  0  0  0  0  0  0  0
   56.7510   29.6390   45.0210 C   0  0  0  0  0  0  0  0  0  0  0  0
   55.5230   29.3460   44.8840 O   0  0  0  0  0  0  0  0  0  0  0  0
   57.5340   28.7540   45.8120 N   0  0  0  0  0  0  0  0  0  0  0  0
   57.1170   27.4970   45.9620 C   0  0  0  0  0  0  0  0  0  0  0  0
   55.9790   26.9260   45.7160 N   0  0  0  0  0  0  0  0  0  0  0  0
   55.8620   25.6370   45.9810 C   0  0  0  0  0  0  0  0  0  0  0  0
   56.9140   25.0270   46.4780 C   0  0  0  0  0  0  0  0  0  0  0  0
   58.1470   26.1890   46.6160 S   0  0  0  0  0  0  0  0  0  0  0  0
   57.0430   30.8790   42.9690 C   0  0  0  0  0  0  0  0  0  0  0  0
   56.5190   29.9100   42.3660 O   0  0  0  0  0  0  0  0  0  0  0  0
   57.4600   31.9990   42.3220 N   0  0  0  0  0  0  0  0  0  0  0  0
   58.0150   33.0210   42.9450 N   0  0  0  0  0  0  0  0  0  0  0  0
   59.2233   34.1313   47.1037 H   0  0  0  0  0  0  0  0  0  0  0  0
   57.8149   35.1336   46.6153 H   0  0  0  0  0  0  0  0  0  0  0  0
   57.6853   33.3420   46.6153 H   0  0  0  0  0  0  0  0  0  0  0  0
   58.5393   35.0961   44.5034 H   0  0  0  0  0  0  0  0  0  0  0  0
   59.9203   34.0495   44.9859 H   0  0  0  0  0  0  0  0  0  0  0  0
   57.9470   31.8745   46.1092 H   0  0  0  0  0  0  0  0  0  0  0  0
   55.1410   27.4800   45.3060 H   0  0  0  0  0  0  0  0  0  0  0  0
   54.9224   25.0968   45.7932 H   0  0  0  0  0  0  0  0  0  0  0  0
   56.9838   23.9642   46.7531 H   0  0  0  0  0  0  0  0  0  0  0  0
   57.3440   32.0790   41.2820 H   0  0  0  0  0  0  0  0  0  0  0  0
  1  2  1  0
  2  3  1  0
  3  4  1  0
  4  5  2  0
  5  6  1  0
  6  7  2  0
  6  8  1  0
  8  9  2  0
  9 10  1  0
 10 11  1  0
 11 12  2  0
 12 13  1  0
  5 14  1  0
 14 15  2  0
 14 16  1  0
 16 17  1  0
 17  3  2  0
 13  9  1  0
  1 18  1  0
  1 19  1  0
  1 20  1  0
  2 21  1  0
  2 22  1  0
  4 23  1  0
 10 24  1  0
 11 25  1  0
 12 26  1  0
 16 27  1  0
M  END
>  <smiles>  (22) 
CCc1cc(C(=O)N=c2[nH]ccs2)c(=O)[nH]n1

>  <score_type>  (22) 
oracle

>  <origin>  (22) 
adg

>  <m_score__min__energy>  (22) 
-6.6299999999999999

>  <m_primary>  (22) 
energy

$$$$
22:0
     RDKit          3D

 39 41  0  0  1  0  0  0  0  0999 V2000
   55.7930   29.8290   44.8930 O   0  0  0  0  0  0  0  0  0  0  0  0
   56.4910   29.6360   43.8650 C   0  0  0  0  0  0  0  0  0  0  0  0
   56.2700   30.4000   42.6240 C   0  0  0  0  0  0  0  0  0  0  0  0
   57.5990   31.5880   42.2710 S   0  0  0  0  0  0  0  0  0  0  0  0
   58.1020   32.2830   43.8390 C   0  0  0  0  0  0  0  0  0  0  0  0
   58.4660   33.5780   43.8490 N   0  0  0  0  0  0  0  0  0  0  0  0
   58.8490   34.1740   44.9790 C   0  0  0  0  0  0  0  0  0  0  0  0
   59.1760   35.3930   44.8970 O   0  0  0  0  0  0  0  0  0  0  0  0
   58.8960   33.5090   46.1960 C   0  0  0  0  0  0  0  0  0  0  0  0
   59.3230   34.1450   47.4550 C   0  0  0  0  0  0  0  0  0  0  0  0
   60.7640   33.9830   47.6950 C   0  0  0  0  0  0  0  0  0  0  0  0
   61.1990   34.1820   49.0140 C   0  0  0  0  0  0  0  0  0  0  0  0
   62.5280   34.0580   49.3370 C   0  0  0  0  0  0  0  0  0  0  0  0
   63.4680   33.7290   48.3530 C   0  0  0  0  0  0  0  0  0  0  0  0
   63.0590   33.5280   47.0440 C   0  0  0  0  0  0  0  0  0  0  0  0
   61.7020   33.6630   46.7500 C   0  0  0  0  0  0  0  0  0  0  0  0
   58.5140   32.1720   46.1520 C   0  0  0  0  0  0  0  0  0  0  0  0
   58.5140   31.3810   47.3100 O   0  0  0  0  0  0  0  0  0  0  0  0
   58.1270   31.5850   44.9840 N   0  0  0  0  0  0  0  0  0  0  0  0
   57.5120   28.6200   43.9850 N   0  0  0  0  0  0  0  0  0  0  0  0
   58.0200   28.3140   45.0890 C   0  0  0  0  0  0  0  0  0  0  0  0
   57.9680   28.8550   46.3310 N   0  0  0  0  0  0  0  0  0  0  0  0
   58.5960   28.3340   47.3170 C   0  0  0  0  0  0  0  0  0  0  0  0
   59.3640   27.1920   47.1920 C   0  0  0  0  0  0  0  0  0  0  0  0
   59.1310   26.8190   45.3200 S   0  0  0  0  0  0  0  0  0  0  0  0
   56.2014   29.6922   41.7848 H   0  0  0  0  0  0  0  0  0  0  0  0
   55.3419   30.9758   42.7546 H   0  0  0  0  0  0  0  0  0  0  0  0
   59.0899   35.2189   47.4068 H   0  0  0  0  0  0  0  0  0  0  0  0
   58.7849   33.6567   48.2808 H   0  0  0  0  0  0  0  0  0  0  0  0
   60.4694   34.4395   49.7959 H   0  0  0  0  0  0  0  0  0  0  0  0
   62.8558   34.2181   50.3747 H   0  0  0  0  0  0  0  0  0  0  0  0
   64.5308   33.6301   48.6186 H   0  0  0  0  0  0  0  0  0  0  0  0
   63.7844   33.2692   46.2586 H   0  0  0  0  0  0  0  0  0  0  0  0
   61.3707   33.5054   45.7130 H   0  0  0  0  0  0  0  0  0  0  0  0
   59.3040   31.4260   47.9540 H   0  0  0  0  0  0  0  0  0  0  0  0
   57.8380   30.5780   44.9370 H   0  0  0  0  0  0  0  0  0  0  0  0
   57.3630   29.7530   46.4270 H   0  0  0  0  0  0  0  0  0  0  0  0
   58.5214   28.8146   48.3036 H   0  0  0  0  0  0  0  0  0  0  0  0
   59.9458   26.6484   47.9510 H   0  0  0  0  0  0  0  0  0  0  0  0
  1  2  2  0
  2  3  1  0
  3  4  1  0
  4  5  1  0
  5  6  2  0
  6  7  1  0
  7  8  2  0
  7  9  1  0
  9 10  1  0
 10 11  1  0
 11 12  2  0
 12 13  1  0
 13 14  2  0
 14 15  1  0
 15 16  2  0
  9 17  2  0
 17 18  1  0
 17 19  1  0
  2 20  1  0
 20 21  2  0
 21 22  1  0
 22 23  1  0
 23 24  2  0
 24 25  1  0
 19  5  1  0
 25 21  1  0
 16 11  1  0
  3 26  1  0
  3 27  1  0
 10 28  1  0
 10 29  1  0
 12 30  1  0
 13 31  1  0
 14 32  1  0
 15 33  1  0
 16 34  1  0
 18 35  1  0
 19 36  1  0
 22 37  1  0
 23 38  1  0
 24 39  1  0
M  END
>  <smiles>  (23) 
O=C(CSc1nc(=O)c(Cc2ccccc2)c(O)[nH]1)N=c1[nH]ccs1

>  <score_type>  (23) 
oracle

>  <origin>  (23) 
adg

>  <m_score__min__energy>  (23) 
-9.25

>  <m_primary>  (23) 
energy

$$$$
23:0
     RDKit          3D

 50 54  0  0  1  0  0  0  0  0999 V2000
   63.3820   33.8420   46.1290 C   0  0  0  0  0  0  0  0  0  0  0  0
   63.3310   33.4480   47.5680 C   0  0  0  0  0  0  0  0  0  0  0  0
   62.1650   33.2900   48.1970 N   0  0  0  0  0  0  0  0  0  0  0  0
   62.0140   32.9450   49.4770 C   0  0  0  0  0  0  0  0  0  0  0  0
   60.8850   32.7540   50.0690 N   0  0  0  0  0  0  0  0  0  0  0  0
   59.8010   33.6120   49.6520 C   0  0  0  0  0  0  0  0  0  0  0  0
   59.3840   34.5700   50.3260 O   0  0  0  0  0  0  0  0  0  0  0  0
   59.2370   33.2310   48.3370 C   0  0  0  0  0  0  0  0  0  0  0  0
   58.9610   34.0900   47.2930 C   0  0  0  0  0  0  0  0  0  0  0  0
   58.4530   33.3460   46.2540 C   0  0  0  0  0  0  0  0  0  0  0  0
   58.0260   33.7200   44.9940 C   0  0  0  0  0  0  0  0  0  0  0  0
   57.5660   32.7090   44.1750 C   0  0  0  0  0  0  0  0  0  0  0  0
   57.5370   31.3830   44.6050 C   0  0  0  0  0  0  0  0  0  0  0  0
   57.9690   31.0450   45.8650 C   0  0  0  0  0  0  0  0  0  0  0  0
   57.8460   29.6810   46.0570 C   0  0  0  0  0  0  0  0  0  0  0  0
   57.3210   29.2080   44.8600 C   0  0  0  0  0  0  0  0  0  0  0  0
   57.0320   27.8840   44.6030 O   0  0  0  0  0  0  0  0  0  0  0  0
   57.1440   30.2450   44.0060 N   0  0  0  0  0  0  0  0  0  0  0  0
   56.6190   30.1450   42.6510 C   0  0  0  0  0  0  0  0  0  0  0  0
   58.4360   32.0430   46.7060 C   0  0  0  0  0  0  0  0  0  0  0  0
   58.9020   32.0320   47.9230 O   0  0  0  0  0  0  0  0  0  0  0  0
   63.1470   32.7300   50.2220 C   0  0  0  0  0  0  0  0  0  0  0  0
   64.3620   32.8940   49.5620 C   0  0  0  0  0  0  0  0  0  0  0  0
   65.5180   32.6380   50.3880 N   0  0  0  0  0  0  0  0  0  0  0  0
   65.8070   31.2880   50.8440 C   0  0  0  0  0  0  0  0  0  0  0  0
   67.2050   31.3890   51.3640 C   0  0  0  0  0  0  0  0  0  0  0  0
   67.7620   32.7060   50.8160 C   0  0  0  0  0  0  0  0  0  0  0  0
   66.5160   33.5660   50.8710 C   0  0  0  0  0  0  0  0  0  0  0  0
   64.4570   33.2430   48.2740 N   0  0  0  0  0  0  0  0  0  0  0  0
   63.5229   34.9302   46.0516 H   0  0  0  0  0  0  0  0  0  0  0  0
   64.2211   33.3278   45.6376 H   0  0  0  0  0  0  0  0  0  0  0  0
   62.4396   33.5584   45.6376 H   0  0  0  0  0  0  0  0  0  0  0  0
   59.1195   35.1785   47.2920 H   0  0  0  0  0  0  0  0  0  0  0  0
   58.0514   34.7682   44.6614 H   0  0  0  0  0  0  0  0  0  0  0  0
   57.2149   32.9544   43.1618 H   0  0  0  0  0  0  0  0  0  0  0  0
   58.1053   29.1009   46.9549 H   0  0  0  0  0  0  0  0  0  0  0  0
   56.7010   27.6780   43.6530 H   0  0  0  0  0  0  0  0  0  0  0  0
   55.5391   29.9393   42.6904 H   0  0  0  0  0  0  0  0  0  0  0  0
   56.7926   31.0924   42.1196 H   0  0  0  0  0  0  0  0  0  0  0  0
   57.1288   29.3278   42.1196 H   0  0  0  0  0  0  0  0  0  0  0  0
   63.0976   32.4437   51.2829 H   0  0  0  0  0  0  0  0  0  0  0  0
   65.1118   30.9845   51.6406 H   0  0  0  0  0  0  0  0  0  0  0  0
   65.6978   30.5343   50.0503 H   0  0  0  0  0  0  0  0  0  0  0  0
   67.2042   31.4020   52.4639 H   0  0  0  0  0  0  0  0  0  0  0  0
   67.8160   30.5300   51.0497 H   0  0  0  0  0  0  0  0  0  0  0  0
   68.5627   33.1071   51.4548 H   0  0  0  0  0  0  0  0  0  0  0  0
   68.2290   32.6323   49.8228 H   0  0  0  0  0  0  0  0  0  0  0  0
   66.2978   33.8956   51.8975 H   0  0  0  0  0  0  0  0  0  0  0  0
   66.5839   34.4997   50.2934 H   0  0  0  0  0  0  0  0  0  0  0  0
   65.3970   33.3530   47.8220 H   0  0  0  0  0  0  0  0  0  0  0  0
  1  2  1  0
  2  3  2  0
  3  4  1  0
  4  5  2  0
  5  6  1  0
  6  7  2  0
  6  8  1  0
  8  9  2  0
  9 10  1  0
 10 11  2  0
 11 12  1  0
 12 13  2  0
 13 14  1  0
 14 15  1  0
 15 16  2  0
 16 17  1  0
 16 18  1  0
 18 19  1  0
 14 20  2  0
 20 21  1  0
  4 22  1  0
 22 23  2  0
 23 24  1  0
 24 25  1  0
 25 26  1  0
 26 27  1  0
 27 28  1  0
 23 29  1  0
 29  2  1  0
 21  8  1  0
 28 24  1  0
 20 10  1  0
 18 13  1  0
  1 30  1  0
  1 31  1  0
  1 32  1  0
  9 33  1  0
 11 34  1  0
 12 35  1  0
 15 36  1  0
 17 37  1  0
 19 38  1  0
 19 39  1  0
 19 40  1  0
 22 41  1  0
 25 42  1  0
 25 43  1  0
 26 44  1  0
 26 45  1  0
 27 46  1  0
 27 47  1  0
 28 48  1  0
 28 49  1  0
 29 50  1  0
M  END
>  <smiles>  (24) 
Cc1nc(=NC(=O)c2cc3ccc4c(cc(O)n4C)c3o2)cc(N2CCCC2)[nH]1

>  <score_type>  (24) 
oracle

>  <origin>  (24) 
adg

>  <m_score__min__energy>  (24) 
-8.7699999999999996

>  <m_primary>  (24) 
energy

$$$$
24:0
     RDKit          3D

 41 43  0  0  0  0  0  0  0  0999 V2000
   58.3070   25.6330   47.4070 O   0  0  0  0  0  0  0  0  0  0  0  0
   57.4830   26.2760   46.7060 C   0  0  0  0  0  0  0  0  0  0  0  0
   57.8020   27.6230   46.3310 N   0  0  0  0  0  0  0  0  0  0  0  0
   57.6670   28.1700   44.9860 C   0  0  0  0  0  0  0  0  0  0  0  0
   57.8600   29.6600   45.0330 C   0  0  0  0  0  0  0  0  0  0  0  0
   58.6520   30.2390   46.0380 C   0  0  0  0  0  0  0  0  0  0  0  0
   58.8440   31.6230   46.0740 C   0  0  0  0  0  0  0  0  0  0  0  0
   58.2590   32.4420   45.1010 C   0  0  0  0  0  0  0  0  0  0  0  0
   58.4890   34.1870   45.1750 S   0  0  0  0  0  0  0  0  0  0  0  0
   57.1960   34.9090   44.9190 O   0  0  0  0  0  0  0  0  0  0  0  0
   59.4880   34.5860   44.1260 O   0  0  0  0  0  0  0  0  0  0  0  0
   59.0900   34.6340   46.7400 N   0  0  0  0  0  0  0  0  0  0  0  0
   60.3760   34.2320   47.2470 C   0  0  0  0  0  0  0  0  0  0  0  0
   61.4180   33.8380   46.3840 C   0  0  0  0  0  0  0  0  0  0  0  0
   62.6600   33.4570   46.9010 C   0  0  0  0  0  0  0  0  0  0  0  0
   62.8750   33.4580   48.2800 C   0  0  0  0  0  0  0  0  0  0  0  0
   61.8490   33.8360   49.1470 C   0  0  0  0  0  0  0  0  0  0  0  0
   60.6020   34.2160   48.6360 C   0  0  0  0  0  0  0  0  0  0  0  0
   59.6200   34.5800   49.4980 F   0  0  0  0  0  0  0  0  0  0  0  0
   57.4850   31.8670   44.0850 C   0  0  0  0  0  0  0  0  0  0  0  0
   57.2870   30.4830   44.0470 C   0  0  0  0  0  0  0  0  0  0  0  0
   56.5390   29.9470   43.0490 F   0  0  0  0  0  0  0  0  0  0  0  0
   56.2530   25.6000   46.2560 C   0  0  0  0  0  0  0  0  0  0  0  0
   56.2290   24.2290   45.9760 C   0  0  0  0  0  0  0  0  0  0  0  0
   55.0440   23.6440   45.5370 C   0  0  0  0  0  0  0  0  0  0  0  0
   53.9130   24.4450   45.3690 C   0  0  0  0  0  0  0  0  0  0  0  0
   52.8290   23.9430   44.9750 O   0  0  0  0  0  0  0  0  0  0  0  0
   53.9920   25.7760   45.6270 N   0  0  0  0  0  0  0  0  0  0  0  0
   55.1270   26.3350   46.0510 N   0  0  0  0  0  0  0  0  0  0  0  0
   58.4271   27.7217   44.3292 H   0  0  0  0  0  0  0  0  0  0  0  0
   56.6650   27.9408   44.5943 H   0  0  0  0  0  0  0  0  0  0  0  0
   59.1231   29.6007   46.7999 H   0  0  0  0  0  0  0  0  0  0  0  0
   59.4572   32.0704   46.8701 H   0  0  0  0  0  0  0  0  0  0  0  0
   58.5100   35.3060   47.2910 H   0  0  0  0  0  0  0  0  0  0  0  0
   61.2532   33.8301   45.2964 H   0  0  0  0  0  0  0  0  0  0  0  0
   63.4693   33.1559   46.2195 H   0  0  0  0  0  0  0  0  0  0  0  0
   63.8540   33.1606   48.6838 H   0  0  0  0  0  0  0  0  0  0  0  0
   62.0201   33.8354   50.2336 H   0  0  0  0  0  0  0  0  0  0  0  0
   57.0310   32.5066   43.3138 H   0  0  0  0  0  0  0  0  0  0  0  0
   57.1365   23.6200   46.1014 H   0  0  0  0  0  0  0  0  0  0  0  0
   54.9997   22.5654   45.3255 H   0  0  0  0  0  0  0  0  0  0  0  0
  1  2  2  0
  2  3  1  0
  3  4  1  0
  4  5  1  0
  5  6  2  0
  6  7  1  0
  7  8  2  0
  8  9  1  0
  9 10  2  0
  9 11  2  0
  9 12  1  0
 12 13  1  0
 13 14  2  0
 14 15  1  0
 15 16  2  0
 16 17  1  0
 17 18  2  0
 18 19  1  0
  8 20  1  0
 20 21  2  0
 21 22  1  0
  2 23  1  0
 23 24  1  0
 24 25  2  0
 25 26  1  0
 26 27  2  0
 26 28  1  0
 28 29  1  0
 21  5  1  0
 29 23  2  0
 18 13  1  0
  4 30  1  0
  4 31  1  0
  6 32  1  0
  7 33  1  0
 12 34  1  0
 14 35  1  0
 15 36  1  0
 16 37  1  0
 17 38  1  0
 20 39  1  0
 24 40  1  0
 25 41  1  0
M  CHG  2   3  -1  28  -1
M  END
>  <UniqueID>  (25) 
19

>  <SMILES>  (25) 
O=C([N-]Cc1ccc(S(=O)(=O)Nc2ccccc2F)cc1F)c1ccc(=O)[n-]n1

>  <Energy>  (25) 
51.91316062483228

>  <Genealogy>  (25) 
O=C([N-]Cc1ccc(S(=O)(=O)Nc2ccccc2F)cc1F)c1ccc(=O)[n-]n1 (protonated)
O=C([N-]Cc1ccc(S(=O)(=O)Nc2ccccc2F)cc1F)c1ccc(=O)[n-]n1 (3D coordinates assigned)
O=C([N-]Cc1ccc(S(=O)(=O)Nc2ccccc2F)cc1F)c1ccc(=O)[n-]n1 (optimized conformer: 51.91316062483228 kcal/mol)

>  <smiles>  (25) 
O=C(NCc1ccc(S(=O)(=O)Nc2ccccc2F)cc1F)c1ccc(=O)[nH]n1

>  <score_type>  (25) 
oracle

>  <origin>  (25) 
adg

>  <m_score__min__energy>  (25) 
-12.83

>  <m_primary>  (25) 
energy

$$$$
25:0
     RDKit          3D

 38 40  0  0  0  0  0  0  0  0999 V2000
   57.0670   33.9200   44.8880 C   0  0  0  0  0  0  0  0  0  0  0  0
   58.1740   33.0860   45.4430 C   0  0  0  0  0  0  0  0  0  0  0  0
   59.2210   33.5660   46.0650 O   0  0  0  0  0  0  0  0  0  0  0  0
   59.9920   32.5450   46.3720 C   0  0  0  0  0  0  0  0  0  0  0  0
   61.2840   32.6710   47.0840 C   0  0  0  0  0  0  0  0  0  0  0  0
   62.1610   33.7260   46.7710 C   0  0  0  0  0  0  0  0  0  0  0  0
   63.3830   33.8540   47.4390 C   0  0  0  0  0  0  0  0  0  0  0  0
   63.7420   32.9340   48.4240 C   0  0  0  0  0  0  0  0  0  0  0  0
   62.8800   31.8820   48.7450 C   0  0  0  0  0  0  0  0  0  0  0  0
   61.6560   31.7460   48.0810 C   0  0  0  0  0  0  0  0  0  0  0  0
   60.8420   30.7130   48.4160 F   0  0  0  0  0  0  0  0  0  0  0  0
   59.4770   31.3650   45.9580 N   0  0  0  0  0  0  0  0  0  0  0  0
   58.3150   31.7150   45.3740 C   0  0  0  0  0  0  0  0  0  0  0  0
   57.4040   30.7400   44.6880 C   0  0  0  0  0  0  0  0  0  0  0  0
   57.9050   29.3660   44.8560 N   0  0  0  0  0  0  0  0  0  0  0  0
   59.2480   29.1300   44.7490 C   0  0  0  0  0  0  0  0  0  0  0  0
   59.7640   27.8490   44.9300 C   0  0  0  0  0  0  0  0  0  0  0  0
   58.9020   26.7980   45.2270 C   0  0  0  0  0  0  0  0  0  0  0  0
   57.5290   27.0330   45.3410 C   0  0  0  0  0  0  0  0  0  0  0  0
   56.4300   25.7040   45.7270 S   0  0  0  0  0  0  0  0  0  0  0  0
   54.8060   26.2960   45.7760 N   0  0  0  0  0  0  0  0  0  0  0  0
   56.7730   25.1110   47.0640 O   0  0  0  0  0  0  0  0  0  0  0  0
   56.5460   24.6380   44.6750 O   0  0  0  0  0  0  0  0  0  0  0  0
   57.0420   28.3380   45.1500 C   0  0  0  0  0  0  0  0  0  0  0  0
   55.8030   28.5580   45.2500 O   0  0  0  0  0  0  0  0  0  0  0  0
   56.4872   34.3568   45.7145 H   0  0  0  0  0  0  0  0  0  0  0  0
   57.4895   34.7262   44.2703 H   0  0  0  0  0  0  0  0  0  0  0  0
   56.4086   33.2915   44.2703 H   0  0  0  0  0  0  0  0  0  0  0  0
   61.8835   34.4551   45.9955 H   0  0  0  0  0  0  0  0  0  0  0  0
   64.0623   34.6817   47.1871 H   0  0  0  0  0  0  0  0  0  0  0  0
   64.7037   33.0365   48.9481 H   0  0  0  0  0  0  0  0  0  0  0  0
   63.1649   31.1581   49.5227 H   0  0  0  0  0  0  0  0  0  0  0  0
   56.3973   30.8150   45.1250 H   0  0  0  0  0  0  0  0  0  0  0  0
   57.3682   30.9786   43.6148 H   0  0  0  0  0  0  0  0  0  0  0  0
   59.9290   29.9622   44.5171 H   0  0  0  0  0  0  0  0  0  0  0  0
   60.8454   27.6695   44.8388 H   0  0  0  0  0  0  0  0  0  0  0  0
   59.3007   25.7831   45.3719 H   0  0  0  0  0  0  0  0  0  0  0  0
   54.7920   27.0900   46.4540 H   0  0  0  0  0  0  0  0  0  0  0  0
  1  2  1  0
  2  3  1  0
  3  4  1  0
  4  5  1  0
  5  6  2  0
  6  7  1  0
  7  8  2  0
  8  9  1  0
  9 10  2  0
 10 11  1  0
  4 12  2  0
 12 13  1  0
 13 14  1  0
 14 15  1  0
 15 16  1  0
 16 17  2  0
 17 18  1  0
 18 19  2  0
 19 20  1  0
 20 21  1  0
 20 22  2  0
 20 23  2  0
 19 24  1  0
 24 25  2  0
 13  2  2  0
 24 15  1  0
 10  5  1  0
  1 26  1  0
  1 27  1  0
  1 28  1  0
  6 29  1  0
  7 30  1  0
  8 31  1  0
  9 32  1  0
 14 33  1  0
 14 34  1  0
 16 35  1  0
 17 36  1  0
 18 37  1  0
 21 38  1  0
M  CHG  1  21  -1
M  END
>  <UniqueID>  (26) 
20

>  <SMILES>  (26) 
Cc1oc(-c2ccccc2F)nc1Cn1cccc(S([NH-])(=O)=O)c1=O

>  <Energy>  (26) 
71.40654845576925

>  <Genealogy>  (26) 
Cc1oc(-c2ccccc2F)nc1Cn1cccc(S([NH-])(=O)=O)c1=O (protonated)
Cc1oc(-c2ccccc2F)nc1Cn1cccc(S([NH-])(=O)=O)c1=O (3D coordinates assigned)
Cc1oc(-c2ccccc2F)nc1Cn1cccc(S([NH-])(=O)=O)c1=O (optimized conformer: 71.40654845576925 kcal/mol)

>  <smiles>  (26) 
Cc1oc(-c2ccccc2F)nc1Cn1cccc(S(N)(=O)=O)c1=O

>  <score_type>  (26) 
oracle

>  <origin>  (26) 
adg

>  <m_score__min__energy>  (26) 
-11.48

>  <m_primary>  (26) 
energy

$$$$
26:0
     RDKit          3D

 43 45  0  0  0  0  0  0  0  0999 V2000
   55.9490   29.7350   52.4480 C   0  0  0  0  0  0  0  0  0  0  0  0
   57.0680   30.0880   51.6420 O   0  0  0  0  0  0  0  0  0  0  0  0
   57.7070   31.3380   51.6690 C   0  0  0  0  0  0  0  0  0  0  0  0
   57.4240   32.2950   52.6660 C   0  0  0  0  0  0  0  0  0  0  0  0
   58.0820   33.5260   52.6710 C   0  0  0  0  0  0  0  0  0  0  0  0
   59.0200   33.8220   51.6830 C   0  0  0  0  0  0  0  0  0  0  0  0
   59.3080   32.8860   50.6890 C   0  0  0  0  0  0  0  0  0  0  0  0
   58.6650   31.6340   50.6770 C   0  0  0  0  0  0  0  0  0  0  0  0
   58.9630   30.6650   49.6570 N   0  0  0  0  0  0  0  0  0  0  0  0
   60.0740   30.9850   48.3630 S   0  0  0  0  0  0  0  0  0  0  0  0
   60.6740   29.6940   47.8780 O   0  0  0  0  0  0  0  0  0  0  0  0
   61.1820   31.8680   48.8650 O   0  0  0  0  0  0  0  0  0  0  0  0
   59.2300   31.8190   47.0620 C   0  0  0  0  0  0  0  0  0  0  0  0
   59.4010   33.1990   46.9000 C   0  0  0  0  0  0  0  0  0  0  0  0
   58.6830   33.8830   45.9170 C   0  0  0  0  0  0  0  0  0  0  0  0
   57.7860   33.1960   45.0950 C   0  0  0  0  0  0  0  0  0  0  0  0
   57.6180   31.8060   45.2390 C   0  0  0  0  0  0  0  0  0  0  0  0
   56.6550   31.0720   44.4690 N   0  0  0  0  0  0  0  0  0  0  0  0
   56.3190   29.6880   44.6150 C   0  0  0  0  0  0  0  0  0  0  0  0
   55.1430   29.3350   44.9020 O   0  0  0  0  0  0  0  0  0  0  0  0
   57.3810   28.6530   44.4290 C   0  0  0  0  0  0  0  0  0  0  0  0
   57.9080   27.9710   46.0390 S   0  0  0  0  0  0  0  0  0  0  0  0
   56.8050   26.5590   45.9820 C   0  0  0  0  0  0  0  0  0  0  0  0
   57.2330   25.2830   45.9270 N   0  0  0  0  0  0  0  0  0  0  0  0
   56.0690   24.6050   45.8890 C   0  0  0  0  0  0  0  0  0  0  0  0
   55.0000   25.4230   45.9230 N   0  0  0  0  0  0  0  0  0  0  0  0
   55.4650   26.6590   45.9830 N   0  0  0  0  0  0  0  0  0  0  0  0
   58.3380   31.1280   46.2300 C   0  0  0  0  0  0  0  0  0  0  0  0
   56.2208   29.8207   53.5104 H   0  0  0  0  0  0  0  0  0  0  0  0
   55.1106   30.4123   52.2282 H   0  0  0  0  0  0  0  0  0  0  0  0
   55.6510   28.6992   52.2282 H   0  0  0  0  0  0  0  0  0  0  0  0
   56.6801   32.0697   53.4444 H   0  0  0  0  0  0  0  0  0  0  0  0
   57.8600   34.2639   53.4560 H   0  0  0  0  0  0  0  0  0  0  0  0
   59.5337   34.7947   51.6870 H   0  0  0  0  0  0  0  0  0  0  0  0
   60.0438   33.1287   49.9082 H   0  0  0  0  0  0  0  0  0  0  0  0
   58.6600   29.6750   49.7820 H   0  0  0  0  0  0  0  0  0  0  0  0
   60.1021   33.7453   47.5481 H   0  0  0  0  0  0  0  0  0  0  0  0
   58.8240   34.9664   45.7893 H   0  0  0  0  0  0  0  0  0  0  0  0
   57.2100   33.7426   44.3338 H   0  0  0  0  0  0  0  0  0  0  0  0
   56.9858   27.8386   43.8040 H   0  0  0  0  0  0  0  0  0  0  0  0
   58.2493   29.1212   43.9423 H   0  0  0  0  0  0  0  0  0  0  0  0
   56.0000   23.5084   45.8362 H   0  0  0  0  0  0  0  0  0  0  0  0
   58.2026   30.0438   46.3569 H   0  0  0  0  0  0  0  0  0  0  0  0
  1  2  1  0
  2  3  1  0
  3  4  2  0
  4  5  1  0
  5  6  2  0
  6  7  1  0
  7  8  2  0
  8  9  1  0
  9 10  1  0
 10 11  2  0
 10 12  2  0
 10 13  1  0
 13 14  2  0
 14 15  1  0
 15 16  2  0
 16 17  1  0
 17 18  1  0
 18 19  1  0
 19 20  2  0
 19 21  1  0
 21 22  1  0
 22 23  1  0
 23 24  1  0
 24 25  2  0
 25 26  1  0
 26 27  1  0
 17 28  2  0
  8  3  1  0
 28 13  1  0
 27 23  2  0
  1 29  1  0
  1 30  1  0
  1 31  1  0
  4 32  1  0
  5 33  1  0
  6 34  1  0
  7 35  1  0
  9 36  1  0
 14 37  1  0
 15 38  1  0
 16 39  1  0
 21 40  1  0
 21 41  1  0
 25 42  1  0
 28 43  1  0
M  CHG  2  18  -1  26  -1
M  END
>  <UniqueID>  (27) 
21

>  <SMILES>  (27) 
COc1ccccc1NS(=O)(=O)c1cccc([N-]C(=O)CSc2nc[n-]n2)c1

>  <Energy>  (27) 
76.65231262723124

>  <Genealogy>  (27) 
COc1ccccc1NS(=O)(=O)c1cccc([N-]C(=O)CSc2nc[n-]n2)c1 (protonated)
COc1ccccc1NS(=O)(=O)c1cccc([N-]C(=O)CSc2nc[n-]n2)c1 (3D coordinates assigned)
COc1ccccc1NS(=O)(=O)c1cccc([N-]C(=O)CSc2nc[n-]n2)c1 (optimized conformer: 76.65231262723124 kcal/mol)

>  <smiles>  (27) 
COc1ccccc1NS(=O)(=O)c1cccc(NC(=O)CSc2nc[nH]n2)c1

>  <score_type>  (27) 
oracle

>  <origin>  (27) 
adg

>  <m_score__min__energy>  (27) 
-12.26

>  <m_primary>  (27) 
energy

$$$$
27:0
     RDKit          3D

 48 50  0  0  0  0  0  0  0  0999 V2000
   58.9480   29.7220   49.8750 C   0  0  0  0  0  0  0  0  0  0  0  0
   59.7570   30.8180   49.1840 C   0  0  0  0  0  0  0  0  0  0  0  0
   61.1220   30.3180   48.6840 C   0  0  0  0  0  0  0  0  0  0  0  0
   61.1960   30.1370   47.1580 C   0  0  0  0  0  0  0  0  0  0  0  0
   59.9170   30.4760   46.5100 N   0  0  0  0  0  0  0  0  0  0  0  0
   59.6820   31.7720   46.1290 C   0  0  0  0  0  0  0  0  0  0  0  0
   58.4800   32.1500   45.4800 C   0  0  0  0  0  0  0  0  0  0  0  0
   58.2830   33.5700   45.0780 C   0  0  0  0  0  0  0  0  0  0  0  0
   57.4950   33.8530   44.1350 O   0  0  0  0  0  0  0  0  0  0  0  0
   58.9740   34.6260   45.7540 N   0  0  0  0  0  0  0  0  0  0  0  0
   59.1590   34.6580   47.1980 C   0  0  0  0  0  0  0  0  0  0  0  0
   60.5640   34.2470   47.5280 C   0  0  0  0  0  0  0  0  0  0  0  0
   61.5350   34.1670   46.5160 C   0  0  0  0  0  0  0  0  0  0  0  0
   62.8530   33.8200   46.8300 C   0  0  0  0  0  0  0  0  0  0  0  0
   63.2170   33.5650   48.1550 C   0  0  0  0  0  0  0  0  0  0  0  0
   64.5330   33.2220   48.4540 O   0  0  0  0  0  0  0  0  0  0  0  0
   62.2560   33.6600   49.1710 C   0  0  0  0  0  0  0  0  0  0  0  0
   60.9360   34.0050   48.8610 C   0  0  0  0  0  0  0  0  0  0  0  0
   57.5020   31.1550   45.2320 C   0  0  0  0  0  0  0  0  0  0  0  0
   56.4100   31.4320   44.6660 O   0  0  0  0  0  0  0  0  0  0  0  0
   57.7600   29.8440   45.6350 C   0  0  0  0  0  0  0  0  0  0  0  0
   56.9110   28.7400   45.4740 C   0  0  0  0  0  0  0  0  0  0  0  0
   57.4630   27.5700   45.9840 C   0  0  0  0  0  0  0  0  0  0  0  0
   56.6900   25.9970   45.9780 S   0  0  0  0  0  0  0  0  0  0  0  0
   54.9730   26.1920   46.0020 N   0  0  0  0  0  0  0  0  0  0  0  0
   57.0800   25.2500   44.7330 O   0  0  0  0  0  0  0  0  0  0  0  0
   57.1250   25.2180   47.1870 O   0  0  0  0  0  0  0  0  0  0  0  0
   58.9870   27.8910   46.6350 S   0  0  0  0  0  0  0  0  0  0  0  0
   58.9560   29.5360   46.2620 C   0  0  0  0  0  0  0  0  0  0  0  0
   59.0324   29.8364   50.9658 H   0  0  0  0  0  0  0  0  0  0  0  0
   57.8919   29.8036   49.5784 H   0  0  0  0  0  0  0  0  0  0  0  0
   59.3371   28.7368   49.5784 H   0  0  0  0  0  0  0  0  0  0  0  0
   59.1818   31.1915   48.3239 H   0  0  0  0  0  0  0  0  0  0  0  0
   59.9427   31.6115   49.9228 H   0  0  0  0  0  0  0  0  0  0  0  0
   61.8895   31.0465   48.9845 H   0  0  0  0  0  0  0  0  0  0  0  0
   61.2840   29.3267   49.1324 H   0  0  0  0  0  0  0  0  0  0  0  0
   61.9837   30.7926   46.7583 H   0  0  0  0  0  0  0  0  0  0  0  0
   61.4199   29.0809   46.9468 H   0  0  0  0  0  0  0  0  0  0  0  0
   60.4454   32.5375   46.3321 H   0  0  0  0  0  0  0  0  0  0  0  0
   58.9778   35.6776   47.5690 H   0  0  0  0  0  0  0  0  0  0  0  0
   58.4509   33.9647   47.6753 H   0  0  0  0  0  0  0  0  0  0  0  0
   61.2577   34.3781   45.4727 H   0  0  0  0  0  0  0  0  0  0  0  0
   63.6058   33.7475   46.0312 H   0  0  0  0  0  0  0  0  0  0  0  0
   65.1280   32.7630   47.7740 H   0  0  0  0  0  0  0  0  0  0  0  0
   62.5405   33.4627   50.2151 H   0  0  0  0  0  0  0  0  0  0  0  0
   60.1876   34.0870   49.6630 H   0  0  0  0  0  0  0  0  0  0  0  0
   55.9206   28.7933   44.9983 H   0  0  0  0  0  0  0  0  0  0  0  0
   54.7730   27.0550   46.5560 H   0  0  0  0  0  0  0  0  0  0  0  0
  1  2  1  0
  2  3  1  0
  3  4  1  0
  4  5  1  0
  5  6  1  0
  6  7  2  0
  7  8  1  0
  8  9  2  0
  8 10  1  0
 10 11  1  0
 11 12  1  0
 12 13  2  0
 13 14  1  0
 14 15  2  0
 15 16  1  0
 15 17  1  0
 17 18  2  0
  7 19  1  0
 19 20  2  0
 19 21  1  0
 21 22  1  0
 22 23  2  0
 23 24  1  0
 24 25  1  0
 24 26  2  0
 24 27  2  0
 23 28  1  0
 28 29  1  0
 29  5  1  0
 18 12  1  0
 29 21  2  0
  1 30  1  0
  1 31  1  0
  1 32  1  0
  2 33  1  0
  2 34  1  0
  3 35  1  0
  3 36  1  0
  4 37  1  0
  4 38  1  0
  6 39  1  0
 11 40  1  0
 11 41  1  0
 13 42  1  0
 14 43  1  0
 16 44  1  0
 17 45  1  0
 18 46  1  0
 22 47  1  0
 25 48  1  0
M  CHG  2  10  -1  25  -1
M  END
>  <UniqueID>  (28) 
22

>  <SMILES>  (28) 
CCCCn1cc(C(=O)[N-]Cc2ccc(O)cc2)c(=O)c2cc(S([NH-])(=O)=O)sc21

>  <Energy>  (28) 
77.13854226528292

>  <Genealogy>  (28) 
CCCCn1cc(C(=O)[N-]Cc2ccc(O)cc2)c(=O)c2cc(S([NH-])(=O)=O)sc21 (protonated)
CCCCn1cc(C(=O)[N-]Cc2ccc(O)cc2)c(=O)c2cc(S([NH-])(=O)=O)sc21 (3D coordinates assigned)
CCCCn1cc(C(=O)[N-]Cc2ccc(O)cc2)c(=O)c2cc(S([NH-])(=O)=O)sc21 (optimized conformer: 77.13854226528292 kcal/mol)

>  <smiles>  (28) 
CCCCn1cc(C(=O)NCc2ccc(O)cc2)c(=O)c2cc(S(N)(=O)=O)sc21

>  <score_type>  (28) 
oracle

>  <origin>  (28) 
adg

>  <m_score__min__energy>  (28) 
-12.16

>  <m_primary>  (28) 
energy

$$$$
28:0
     RDKit          3D

 51 54  0  0  0  0  0  0  0  0999 V2000
   55.5990   31.4320   52.0620 O   0  0  0  0  0  0  0  0  0  0  0  0
   56.8440   31.2400   52.0380 C   0  0  0  0  0  0  0  0  0  0  0  0
   57.4170   30.1650   51.2700 N   0  0  0  0  0  0  0  0  0  0  0  0
   58.5910   30.0900   50.7030 C   0  0  0  0  0  0  0  0  0  0  0  0
   59.1060   31.0970   49.8590 C   0  0  0  0  0  0  0  0  0  0  0  0
   60.3480   30.9180   49.2240 C   0  0  0  0  0  0  0  0  0  0  0  0
   60.8990   31.9050   48.3260 N   0  0  0  0  0  0  0  0  0  0  0  0
   60.5000   33.3150   48.2860 C   0  0  0  0  0  0  0  0  0  0  0  0
   59.6240   33.5800   47.0890 C   0  0  0  0  0  0  0  0  0  0  0  0
   59.7590   34.7790   46.3710 C   0  0  0  0  0  0  0  0  0  0  0  0
   58.9560   35.0260   45.2540 C   0  0  0  0  0  0  0  0  0  0  0  0
   58.0360   34.0660   44.8250 C   0  0  0  0  0  0  0  0  0  0  0  0
   57.9260   32.8450   45.5000 C   0  0  0  0  0  0  0  0  0  0  0  0
   57.0150   31.8520   45.0160 N   0  0  0  0  0  0  0  0  0  0  0  0
   57.4140   30.6800   44.2920 C   0  0  0  0  0  0  0  0  0  0  0  0
   57.3880   30.6760   43.0320 O   0  0  0  0  0  0  0  0  0  0  0  0
   57.8140   29.4600   45.0260 C   0  0  0  0  0  0  0  0  0  0  0  0
   59.1630   29.2750   45.3670 C   0  0  0  0  0  0  0  0  0  0  0  0
   59.5700   28.1230   46.0370 C   0  0  0  0  0  0  0  0  0  0  0  0
   58.6380   27.1460   46.3810 C   0  0  0  0  0  0  0  0  0  0  0  0
   57.2760   27.3060   46.0660 C   0  0  0  0  0  0  0  0  0  0  0  0
   56.3280   26.2840   46.4450 N   0  0  0  0  0  0  0  0  0  0  0  0
   56.6930   25.3090   47.1330 O   0  0  0  0  0  0  0  0  0  0  0  0
   55.0200   26.3280   46.0160 O   0  0  0  0  0  0  0  0  0  0  0  0
   56.8670   28.4780   45.3880 C   0  0  0  0  0  0  0  0  0  0  0  0
   55.5200   28.6870   45.1010 O   0  0  0  0  0  0  0  0  0  0  0  0
   58.6950   32.6200   46.6520 C   0  0  0  0  0  0  0  0  0  0  0  0
   61.0720   29.7470   49.4780 C   0  0  0  0  0  0  0  0  0  0  0  0
   60.5400   28.7730   50.3210 C   0  0  0  0  0  0  0  0  0  0  0  0
   59.3250   28.9620   50.8990 N   0  0  0  0  0  0  0  0  0  0  0  0
   57.7300   32.1770   52.7400 C   0  0  0  0  0  0  0  0  0  0  0  0
   58.1440   32.0720   54.0640 C   0  0  0  0  0  0  0  0  0  0  0  0
   58.9930   33.1120   54.4600 C   0  0  0  0  0  0  0  0  0  0  0  0
   59.2480   34.0380   53.4570 C   0  0  0  0  0  0  0  0  0  0  0  0
   58.4230   33.5560   52.0720 S   0  0  0  0  0  0  0  0  0  0  0  0
   58.5351   32.0233   49.6976 H   0  0  0  0  0  0  0  0  0  0  0  0
   61.5660   31.5830   47.5880 H   0  0  0  0  0  0  0  0  0  0  0  0
   59.9443   33.5605   49.2031 H   0  0  0  0  0  0  0  0  0  0  0  0
   61.4028   33.9390   48.2122 H   0  0  0  0  0  0  0  0  0  0  0  0
   60.5000   35.5272   46.6890 H   0  0  0  0  0  0  0  0  0  0  0  0
   59.0486   35.9784   44.7114 H   0  0  0  0  0  0  0  0  0  0  0  0
   57.3961   34.2705   43.9540 H   0  0  0  0  0  0  0  0  0  0  0  0
   59.9037   30.0444   45.1036 H   0  0  0  0  0  0  0  0  0  0  0  0
   60.6303   27.9845   46.2951 H   0  0  0  0  0  0  0  0  0  0  0  0
   58.9712   26.2383   46.9054 H   0  0  0  0  0  0  0  0  0  0  0  0
   58.5698   31.6849   47.2176 H   0  0  0  0  0  0  0  0  0  0  0  0
   62.0577   29.5961   49.0137 H   0  0  0  0  0  0  0  0  0  0  0  0
   61.1046   27.8499   50.5187 H   0  0  0  0  0  0  0  0  0  0  0  0
   57.8354   31.2544   54.7321 H   0  0  0  0  0  0  0  0  0  0  0  0
   59.4186   33.1887   55.4714 H   0  0  0  0  0  0  0  0  0  0  0  0
   59.8807   34.9329   53.5517 H   0  0  0  0  0  0  0  0  0  0  0  0
  1  2  2  0
  2  3  1  0
  3  4  2  3
  4  5  1  0
  5  6  2  0
  6  7  1  0
  7  8  1  0
  8  9  1  0
  9 10  2  0
 10 11  1  0
 11 12  2  0
 12 13  1  0
 13 14  1  0
 14 15  1  0
 15 16  2  0
 15 17  1  0
 17 18  2  0
 18 19  1  0
 19 20  2  0
 20 21  1  0
 21 22  1  0
 22 23  2  0
 22 24  1  0
 21 25  2  0
 25 26  1  0
 13 27  2  0
  6 28  1  0
 28 29  2  0
 29 30  1  0
  2 31  1  0
 31 32  2  0
 32 33  1  0
 33 34  2  0
 34 35  1  0
 30  4  1  0
 35 31  1  0
 27  9  1  0
 25 17  1  0
  5 36  1  0
  7 37  1  0
  8 38  1  0
  8 39  1  0
 10 40  1  0
 11 41  1  0
 12 42  1  0
 18 43  1  0
 19 44  1  0
 20 45  1  0
 27 46  1  0
 28 47  1  0
 29 48  1  0
 32 49  1  0
 33 50  1  0
 34 51  1  0
M  CHG  5  14  -1  22   1  24  -1  26  -1  30  -1
M  END
>  <UniqueID>  (29) 
23

>  <SMILES>  (29) 
O=C(N=c1cc(NCc2cccc([N-]C(=O)c3cccc([N+](=O)[O-])c3[O-])c2)cc[n-]1)c1cccs1

>  <Energy>  (29) 
94.48738633067559

>  <Genealogy>  (29) 
O=C(N=c1cc(NCc2cccc([N-]C(=O)c3cccc([N+](=O)[O-])c3[O-])c2)cc[n-]1)c1cccs1 (protonated)
O=C(N=c1cc(NCc2cccc([N-]C(=O)c3cccc([N+](=O)[O-])c3[O-])c2)cc[n-]1)c1cccs1 (3D coordinates assigned)
O=C(N=c1cc(NCc2cccc([N-]C(=O)c3cccc([N+](=O)[O-])c3[O-])c2)cc[n-]1)c1cccs1 (optimized conformer: 94.48738633067559 kcal/mol)

>  <smiles>  (29) 
O=C(N=c1cc(NCc2cccc(NC(=O)c3cccc([N+](=O)[O-])c3O)c2)cc[nH]1)c1cccs1

>  <score_type>  (29) 
oracle

>  <origin>  (29) 
adg

>  <m_score__min__energy>  (29) 
-16.02

>  <m_primary>  (29) 
energy

$$$$
29:0
     RDKit          3D

 50 53  0  0  0  0  0  0  0  0999 V2000
   57.0100   32.3720   40.7050 C   0  0  0  0  0  0  0  0  0  0  0  0
   58.1750   32.5040   41.6830 C   0  0  0  0  0  0  0  0  0  0  0  0
   57.7660   32.0640   43.0720 C   0  0  0  0  0  0  0  0  0  0  0  0
   56.9480   30.9280   43.1950 C   0  0  0  0  0  0  0  0  0  0  0  0
   56.5810   30.4610   44.4570 C   0  0  0  0  0  0  0  0  0  0  0  0
   55.8420   29.4480   44.5650 O   0  0  0  0  0  0  0  0  0  0  0  0
   57.0240   31.0940   45.5710 N   0  0  0  0  0  0  0  0  0  0  0  0
   57.8270   32.1870   45.5080 C   0  0  0  0  0  0  0  0  0  0  0  0
   58.2810   32.7720   46.6940 C   0  0  0  0  0  0  0  0  0  0  0  0
   59.1500   33.8730   46.6600 C   0  0  0  0  0  0  0  0  0  0  0  0
   59.7240   34.3910   47.8770 N   0  0  0  0  0  0  0  0  0  0  0  0
   60.9370   33.6850   48.1790 C   0  0  0  0  0  0  0  0  0  0  0  0
   61.4680   32.4470   47.8530 C   0  0  0  0  0  0  0  0  0  0  0  0
   61.0220   31.3450   47.0560 N   0  0  0  0  0  0  0  0  0  0  0  0
   60.0700   30.3540   47.5550 C   0  0  2  0  0  0  0  0  0  0  0  0
   60.6780   29.5820   48.7430 C   0  0  0  0  0  0  0  0  0  0  0  0
   59.9380   29.8590   50.0500 C   0  0  0  0  0  0  0  0  0  0  0  0
   59.7280   29.4040   46.4440 C   0  0  0  0  0  0  0  0  0  0  0  0
   58.7540   28.4280   46.4860 C   0  0  0  0  0  0  0  0  0  0  0  0
   58.7830   27.8210   45.2490 C   0  0  0  0  0  0  0  0  0  0  0  0
   59.7680   28.4650   44.5290 C   0  0  0  0  0  0  0  0  0  0  0  0
   60.3130   29.4040   45.2670 O   0  0  0  0  0  0  0  0  0  0  0  0
   62.6050   32.7480   48.5800 C   0  0  0  0  0  0  0  0  0  0  0  0
   63.6880   32.1560   48.8290 O   0  0  0  0  0  0  0  0  0  0  0  0
   62.0610   33.9660   48.9330 C   0  0  0  0  0  0  0  0  0  0  0  0
   62.4370   34.9370   49.6390 O   0  0  0  0  0  0  0  0  0  0  0  0
   59.5210   34.4130   45.4180 C   0  0  0  0  0  0  0  0  0  0  0  0
   59.0700   33.8380   44.2270 C   0  0  0  0  0  0  0  0  0  0  0  0
   58.2240   32.7090   44.2510 C   0  0  0  0  0  0  0  0  0  0  0  0
   56.0701   32.2655   41.2665 H   0  0  0  0  0  0  0  0  0  0  0  0
   56.9591   33.2701   40.0719 H   0  0  0  0  0  0  0  0  0  0  0  0
   57.1614   31.4853   40.0719 H   0  0  0  0  0  0  0  0  0  0  0  0
   59.0088   31.8755   41.3370 H   0  0  0  0  0  0  0  0  0  0  0  0
   58.4814   33.5597   41.7245 H   0  0  0  0  0  0  0  0  0  0  0  0
   56.5961   30.4055   42.2933 H   0  0  0  0  0  0  0  0  0  0  0  0
   57.9539   32.3654   47.6624 H   0  0  0  0  0  0  0  0  0  0  0  0
   59.0670   34.2810   48.6840 H   0  0  0  0  0  0  0  0  0  0  0  0
   59.9370   35.4070   47.7580 H   0  0  0  0  0  0  0  0  0  0  0  0
   61.5280   31.1450   46.1650 H   0  0  0  0  0  0  0  0  0  0  0  0
   59.1581   30.8622   47.9016 H   0  0  0  0  0  0  0  0  0  0  0  0
   60.6271   28.5043   48.5286 H   0  0  0  0  0  0  0  0  0  0  0  0
   61.7185   29.9167   48.8664 H   0  0  0  0  0  0  0  0  0  0  0  0
   60.5915   29.6144   50.9003 H   0  0  0  0  0  0  0  0  0  0  0  0
   59.6596   30.9222   50.0955 H   0  0  0  0  0  0  0  0  0  0  0  0
   59.0299   29.2399   50.0955 H   0  0  0  0  0  0  0  0  0  0  0  0
   58.0923   28.1850   47.3305 H   0  0  0  0  0  0  0  0  0  0  0  0
   58.1488   26.9906   44.9052 H   0  0  0  0  0  0  0  0  0  0  0  0
   60.0534   28.2277   43.4935 H   0  0  0  0  0  0  0  0  0  0  0  0
   60.1735   35.2979   45.3823 H   0  0  0  0  0  0  0  0  0  0  0  0
   59.3770   34.2691   43.2627 H   0  0  0  0  0  0  0  0  0  0  0  0
  1  2  1  0
  2  3  1  0
  3  4  2  0
  4  5  1  0
  5  6  2  0
  5  7  1  0
  7  8  1  0
  8  9  2  0
  9 10  1  0
 10 11  1  0
 11 12  1  0
 12 13  2  0
 13 14  1  0
 14 15  1  0
 15 16  1  0
 16 17  1  0
 15 18  1  0
 18 19  2  0
 19 20  1  0
 20 21  2  0
 21 22  1  0
 13 23  1  0
 23 24  2  0
 23 25  1  0
 25 26  2  0
 10 27  2  0
 27 28  1  0
 28 29  2  0
 29  3  1  0
 29  8  1  0
 25 12  1  0
 22 18  1  0
  1 30  1  0
  1 31  1  0
  1 32  1  0
  2 33  1  0
  2 34  1  0
  4 35  1  0
  9 36  1  0
 11 37  1  0
 11 38  1  0
 14 39  1  0
 15 40  1  1
 16 41  1  0
 16 42  1  0
 17 43  1  0
 17 44  1  0
 17 45  1  0
 19 46  1  0
 20 47  1  0
 21 48  1  0
 27 49  1  0
 28 50  1  0
M  CHG  2   7  -1  11   1
M  END
>  <UniqueID>  (30) 
24

>  <SMILES>  (30) 
CCc1cc(=O)[n-]c2cc([NH2+]c3c(N[C@H](CC)c4ccco4)c(=O)c3=O)ccc12

>  <Energy>  (30) 
65.80110944819063

>  <Genealogy>  (30) 
CCc1cc(=O)[n-]c2cc([NH2+]c3c(NC(CC)c4ccco4)c(=O)c3=O)ccc12 (protonated)
CCc1cc(=O)[n-]c2cc([NH2+]c3c(N[C@H](CC)c4ccco4)c(=O)c3=O)ccc12 (chirality)
CCc1cc(=O)[n-]c2cc([NH2+]c3c(N[C@H](CC)c4ccco4)c(=O)c3=O)ccc12 (3D coordinates assigned)
CCc1cc(=O)[n-]c2cc([NH2+]c3c(N[C@H](CC)c4ccco4)c(=O)c3=O)ccc12 (optimized conformer: 65.80110944819063 kcal/mol)

>  <smiles>  (30) 
CCc1cc(=O)[nH]c2cc(Nc3c(NC(CC)c4ccco4)c(=O)c3=O)ccc12

>  <score_type>  (30) 
oracle

>  <origin>  (30) 
adg

>  <m_score__min__energy>  (30) 
-8.5

>  <m_primary>  (30) 
energy

$$$$
30:0
     RDKit          3D

 42 44  0  0  1  0  0  0  0  0999 V2000
   58.1420   26.7660   42.2920 C   0  0  0  0  0  0  0  0  0  0  0  0
   58.1960   27.5740   43.4570 O   0  0  0  0  0  0  0  0  0  0  0  0
   58.2070   27.0330   44.7220 C   0  0  0  0  0  0  0  0  0  0  0  0
   57.4150   25.9110   44.9840 C   0  0  0  0  0  0  0  0  0  0  0  0
   57.3840   25.3230   46.2370 C   0  0  0  0  0  0  0  0  0  0  0  0
   58.1570   25.8570   47.2600 C   0  0  0  0  0  0  0  0  0  0  0  0
   58.9330   26.9570   47.0010 C   0  0  0  0  0  0  0  0  0  0  0  0
   58.9820   27.5640   45.7550 C   0  0  0  0  0  0  0  0  0  0  0  0
   59.7950   28.7090   45.4960 N   0  0  0  0  0  0  0  0  0  0  0  0
   59.3480   29.8480   45.2800 C   0  0  0  0  0  0  0  0  0  0  0  0
   58.6950   30.3780   44.1770 N   0  0  0  0  0  0  0  0  0  0  0  0
   58.3420   31.5700   44.2110 N   0  0  0  0  0  0  0  0  0  0  0  0
   58.5080   32.4300   45.1800 C   0  0  0  0  0  0  0  0  0  0  0  0
   58.1610   34.0690   45.5350 S   0  0  0  0  0  0  0  0  0  0  0  0
   59.6320   34.9720   46.0220 C   0  0  0  0  0  0  0  0  0  0  0  0
   60.0860   34.5790   47.3720 C   0  0  0  0  0  0  0  0  0  0  0  0
   59.3660   34.7100   48.3940 O   0  0  0  0  0  0  0  0  0  0  0  0
   61.3780   34.0340   47.5070 N   0  0  0  0  0  0  0  0  0  0  0  0
   62.2850   33.8440   46.3650 C   0  0  0  0  0  0  0  0  0  0  0  0
   63.5560   33.1940   46.8690 C   0  0  0  0  0  0  0  0  0  0  0  0
   63.3630   32.0930   47.6590 O   0  0  0  0  0  0  0  0  0  0  0  0
   62.3610   32.1740   48.5890 C   0  0  0  0  0  0  0  0  0  0  0  0
   61.9350   33.6090   48.7980 C   0  0  0  0  0  0  0  0  0  0  0  0
   59.4170   31.2780   46.4260 S   0  0  0  0  0  0  0  0  0  0  0  0
   58.0713   25.7075   42.5829 H   0  0  0  0  0  0  0  0  0  0  0  0
   57.2603   27.0419   41.6950 H   0  0  0  0  0  0  0  0  0  0  0  0
   59.0526   26.9221   41.6950 H   0  0  0  0  0  0  0  0  0  0  0  0
   56.8022   25.4855   44.1757 H   0  0  0  0  0  0  0  0  0  0  0  0
   56.7529   24.4410   46.4207 H   0  0  0  0  0  0  0  0  0  0  0  0
   58.1467   25.4043   48.2625 H   0  0  0  0  0  0  0  0  0  0  0  0
   59.5423   27.3757   47.8155 H   0  0  0  0  0  0  0  0  0  0  0  0
   58.5400   29.7010   43.3600 H   0  0  0  0  0  0  0  0  0  0  0  0
   60.4351   34.7633   45.2999 H   0  0  0  0  0  0  0  0  0  0  0  0
   59.3892   36.0447   46.0380 H   0  0  0  0  0  0  0  0  0  0  0  0
   61.8080   33.1957   45.6152 H   0  0  0  0  0  0  0  0  0  0  0  0
   62.5148   34.8134   45.8988 H   0  0  0  0  0  0  0  0  0  0  0  0
   64.1535   32.8892   45.9972 H   0  0  0  0  0  0  0  0  0  0  0  0
   64.0583   33.9430   47.4988 H   0  0  0  0  0  0  0  0  0  0  0  0
   61.4973   31.5890   48.2400 H   0  0  0  0  0  0  0  0  0  0  0  0
   62.7341   31.7752   49.5438 H   0  0  0  0  0  0  0  0  0  0  0  0
   61.1724   33.6744   49.5881 H   0  0  0  0  0  0  0  0  0  0  0  0
   62.7737   34.2462   49.1151 H   0  0  0  0  0  0  0  0  0  0  0  0
  1  2  1  0
  2  3  1  0
  3  4  2  0
  4  5  1  0
  5  6  2  0
  6  7  1  0
  7  8  2  0
  8  9  1  0
  9 10  2  0
 10 11  1  0
 11 12  1  0
 12 13  2  0
 13 14  1  0
 14 15  1  0
 15 16  1  0
 16 17  2  0
 16 18  1  0
 18 19  1  0
 19 20  1  0
 20 21  1  0
 21 22  1  0
 22 23  1  0
 13 24  1  0
  8  3  1  0
 24 10  1  0
 23 18  1  0
  1 25  1  0
  1 26  1  0
  1 27  1  0
  4 28  1  0
  5 29  1  0
  6 30  1  0
  7 31  1  0
 11 32  1  0
 15 33  1  0
 15 34  1  0
 19 35  1  0
 19 36  1  0
 20 37  1  0
 20 38  1  0
 22 39  1  0
 22 40  1  0
 23 41  1  0
 23 42  1  0
M  END
>  <smiles>  (31) 
COc1ccccc1N=c1[nH]nc(SCC(=O)N2CCOCC2)s1

>  <score_type>  (31) 
oracle

>  <origin>  (31) 
adg

>  <m_score__min__energy>  (31) 
-8.4700000000000006

>  <m_primary>  (31) 
energy

$$$$
31:0
     RDKit          3D

 33 34  0  0  0  0  0  0  0  0999 V2000
   59.4870   35.5360   45.2410 C   0  0  0  0  0  0  0  0  0  0  0  0
   58.8680   34.2300   45.6460 C   0  0  0  0  0  0  0  0  0  0  0  0
   59.0090   33.7590   46.9600 C   0  0  0  0  0  0  0  0  0  0  0  0
   58.4560   32.5250   47.3360 C   0  0  0  0  0  0  0  0  0  0  0  0
   58.6350   32.0100   48.7330 C   0  0  0  0  0  0  0  0  0  0  0  0
   57.7970   31.7430   46.3750 C   0  0  0  0  0  0  0  0  0  0  0  0
   57.6760   32.1970   45.0580 C   0  0  0  0  0  0  0  0  0  0  0  0
   56.8470   31.1820   43.8340 S   0  0  0  0  0  0  0  0  0  0  0  0
   57.3960   29.6500   44.5960 C   0  0  0  0  0  0  0  0  0  0  0  0
   58.7680   29.4180   44.7500 C   0  0  0  0  0  0  0  0  0  0  0  0
   59.2090   28.2190   45.3210 C   0  0  0  0  0  0  0  0  0  0  0  0
   60.6770   27.9670   45.5190 C   0  0  0  0  0  0  0  0  0  0  0  0
   61.4260   28.7880   44.6650 O   0  0  0  0  0  0  0  0  0  0  0  0
   58.2630   27.2840   45.7600 C   0  0  0  0  0  0  0  0  0  0  0  0
   56.9010   27.5520   45.5990 C   0  0  0  0  0  0  0  0  0  0  0  0
   56.0510   26.7070   45.9910 O   0  0  0  0  0  0  0  0  0  0  0  0
   56.4910   28.7200   45.0230 N   0  0  0  0  0  0  0  0  0  0  0  0
   55.1440   28.9640   44.8790 O   0  0  0  0  0  0  0  0  0  0  0  0
   58.2080   33.4390   44.6940 C   0  0  0  0  0  0  0  0  0  0  0  0
   59.7581   36.1079   46.1407 H   0  0  0  0  0  0  0  0  0  0  0  0
   60.3899   35.3439   44.6428 H   0  0  0  0  0  0  0  0  0  0  0  0
   58.7667   36.1133   44.6428 H   0  0  0  0  0  0  0  0  0  0  0  0
   59.5565   34.3607   47.7004 H   0  0  0  0  0  0  0  0  0  0  0  0
   58.3616   32.7966   49.4516 H   0  0  0  0  0  0  0  0  0  0  0  0
   57.9890   31.1329   48.8860 H   0  0  0  0  0  0  0  0  0  0  0  0
   59.6857   31.7227   48.8860 H   0  0  0  0  0  0  0  0  0  0  0  0
   57.3736   30.7683   46.6591 H   0  0  0  0  0  0  0  0  0  0  0  0
   59.4963   30.1750   44.4235 H   0  0  0  0  0  0  0  0  0  0  0  0
   60.9462   28.1860   46.5628 H   0  0  0  0  0  0  0  0  0  0  0  0
   60.8957   26.9137   45.2892 H   0  0  0  0  0  0  0  0  0  0  0  0
   61.9930   28.1840   44.1160 H   0  0  0  0  0  0  0  0  0  0  0  0
   58.5903   26.3442   46.2288 H   0  0  0  0  0  0  0  0  0  0  0  0
   58.1083   33.7961   43.6583 H   0  0  0  0  0  0  0  0  0  0  0  0
  1  2  1  0
  2  3  2  0
  3  4  1  0
  4  5  1  0
  4  6  2  0
  6  7  1  0
  7  8  1  0
  8  9  1  0
  9 10  2  0
 10 11  1  0
 11 12  1  0
 12 13  1  0
 11 14  2  0
 14 15  1  0
 15 16  2  0
 15 17  1  0
 17 18  1  0
  7 19  2  0
 19  2  1  0
 17  9  1  0
  1 20  1  0
  1 21  1  0
  1 22  1  0
  3 23  1  0
  5 24  1  0
  5 25  1  0
  5 26  1  0
  6 27  1  0
 10 28  1  0
 12 29  1  0
 12 30  1  0
 13 31  1  0
 14 32  1  0
 19 33  1  0
M  CHG  1  18  -1
M  END
>  <UniqueID>  (32) 
25

>  <SMILES>  (32) 
Cc1cc(C)cc(Sc2cc(CO)cc(=O)n2[O-])c1

>  <Energy>  (32) 
27.659615352323375

>  <Genealogy>  (32) 
Cc1cc(C)cc(Sc2cc(CO)cc(=O)n2[O-])c1 (protonated)
Cc1cc(C)cc(Sc2cc(CO)cc(=O)n2[O-])c1 (3D coordinates assigned)
Cc1cc(C)cc(Sc2cc(CO)cc(=O)n2[O-])c1 (optimized conformer: 27.659615352323375 kcal/mol)

>  <smiles>  (32) 
Cc1cc(C)cc(Sc2cc(CO)cc(=O)n2O)c1

>  <score_type>  (32) 
oracle

>  <origin>  (32) 
adg

>  <m_score__min__energy>  (32) 
-11.119999999999999

>  <m_primary>  (32) 
energy

$$$$
32:0
     RDKit          3D

 37 38  0  0  0  0  0  0  0  0999 V2000
   55.8510   23.3560   43.3690 C   0  0  0  0  0  0  0  0  0  0  0  0
   55.4790   22.8880   44.5630 C   0  0  0  0  0  0  0  0  0  0  0  0
   54.3830   23.5390   45.3520 C   0  0  0  0  0  0  0  0  0  0  0  0
   54.9570   24.4110   46.3670 N   0  0  0  0  0  0  0  0  0  0  0  0
   55.7200   25.5770   46.0470 C   0  0  0  0  0  0  0  0  0  0  0  0
   55.1670   26.7070   45.9970 O   0  0  0  0  0  0  0  0  0  0  0  0
   57.1720   25.4410   45.7130 C   0  0  0  0  0  0  0  0  0  0  0  0
   57.8200   26.7610   45.7390 N   0  0  0  0  0  0  0  0  0  0  0  0
   58.0340   27.3680   46.9470 C   0  0  0  0  0  0  0  0  0  0  0  0
   58.6220   28.6320   47.0170 C   0  0  0  0  0  0  0  0  0  0  0  0
   59.0030   29.2880   45.8440 C   0  0  0  0  0  0  0  0  0  0  0  0
   59.5820   30.6020   45.9210 N   0  0  0  0  0  0  0  0  0  0  0  0
   58.8410   31.8260   45.7860 C   0  0  0  0  0  0  0  0  0  0  0  0
   58.1330   32.1270   44.6080 C   0  0  0  0  0  0  0  0  0  0  0  0
   57.4410   33.3370   44.4910 C   0  0  0  0  0  0  0  0  0  0  0  0
   57.4640   34.2620   45.5380 C   0  0  0  0  0  0  0  0  0  0  0  0
   58.1830   33.9810   46.7020 C   0  0  0  0  0  0  0  0  0  0  0  0
   58.8750   32.7720   46.8230 C   0  0  0  0  0  0  0  0  0  0  0  0
   58.7430   28.6740   44.6110 C   0  0  0  0  0  0  0  0  0  0  0  0
   58.1520   27.4080   44.5740 C   0  0  0  0  0  0  0  0  0  0  0  0
   57.9230   26.8730   43.4530 O   0  0  0  0  0  0  0  0  0  0  0  0
   56.6583   22.8594   42.8108 H   0  0  0  0  0  0  0  0  0  0  0  0
   55.3501   24.2381   42.9436 H   0  0  0  0  0  0  0  0  0  0  0  0
   55.9881   22.0051   44.9769 H   0  0  0  0  0  0  0  0  0  0  0  0
   53.7497   24.1326   44.6763 H   0  0  0  0  0  0  0  0  0  0  0  0
   53.7769   22.7622   45.8411 H   0  0  0  0  0  0  0  0  0  0  0  0
   57.6554   24.7833   46.4505 H   0  0  0  0  0  0  0  0  0  0  0  0
   57.2720   25.0095   44.7061 H   0  0  0  0  0  0  0  0  0  0  0  0
   57.7391   26.8536   47.8735 H   0  0  0  0  0  0  0  0  0  0  0  0
   58.7850   29.1106   47.9939 H   0  0  0  0  0  0  0  0  0  0  0  0
   60.6130   30.6710   46.0850 H   0  0  0  0  0  0  0  0  0  0  0  0
   58.1236   31.4079   43.7757 H   0  0  0  0  0  0  0  0  0  0  0  0
   56.8777   33.5607   43.5731 H   0  0  0  0  0  0  0  0  0  0  0  0
   56.9160   35.2113   45.4455 H   0  0  0  0  0  0  0  0  0  0  0  0
   58.2049   34.7114   47.5242 H   0  0  0  0  0  0  0  0  0  0  0  0
   59.4499   32.5606   47.7367 H   0  0  0  0  0  0  0  0  0  0  0  0
   59.0037   29.1878   43.6740 H   0  0  0  0  0  0  0  0  0  0  0  0
  1  2  2  0
  2  3  1  0
  3  4  1  0
  4  5  1  0
  5  6  2  0
  5  7  1  0
  7  8  1  0
  8  9  1  0
  9 10  2  0
 10 11  1  0
 11 12  1  0
 12 13  1  0
 13 14  2  0
 14 15  1  0
 15 16  2  0
 16 17  1  0
 17 18  2  0
 11 19  2  0
 19 20  1  0
 20 21  2  0
 20  8  1  0
 18 13  1  0
  1 22  1  0
  1 23  1  0
  2 24  1  0
  3 25  1  0
  3 26  1  0
  7 27  1  0
  7 28  1  0
  9 29  1  0
 10 30  1  0
 12 31  1  0
 14 32  1  0
 15 33  1  0
 16 34  1  0
 17 35  1  0
 18 36  1  0
 19 37  1  0
M  CHG  1   4  -1
M  END
>  <UniqueID>  (33) 
26

>  <SMILES>  (33) 
C=CC[N-]C(=O)Cn1ccc(Nc2ccccc2)cc1=O

>  <Energy>  (33) 
37.888275531477255

>  <Genealogy>  (33) 
C=CC[N-]C(=O)Cn1ccc(Nc2ccccc2)cc1=O (protonated)
C=CC[N-]C(=O)Cn1ccc(Nc2ccccc2)cc1=O (3D coordinates assigned)
C=CC[N-]C(=O)Cn1ccc(Nc2ccccc2)cc1=O (optimized conformer: 37.888275531477255 kcal/mol)

>  <smiles>  (33) 
C=CCNC(=O)Cn1ccc(Nc2ccccc2)cc1=O

>  <score_type>  (33) 
oracle

>  <origin>  (33) 
adg

>  <m_score__min__energy>  (33) 
-8.6999999999999993

>  <m_primary>  (33) 
energy

$$$$
33:0
     RDKit          3D

 39 41  0  0  0  0  0  0  0  0999 V2000
   55.7120   29.3540   52.0940 O   0  0  0  0  0  0  0  0  0  0  0  0
   55.2810   30.5210   51.8900 C   0  0  0  0  0  0  0  0  0  0  0  0
   56.1890   31.6330   51.8790 N   0  0  0  0  0  0  0  0  0  0  0  0
   57.6160   31.4810   52.1590 C   0  0  0  0  0  0  0  0  0  0  0  0
   58.3960   31.4300   50.8740 C   0  0  0  0  0  0  0  0  0  0  0  0
   58.7340   32.6130   50.1960 C   0  0  0  0  0  0  0  0  0  0  0  0
   59.4470   32.5560   48.9970 C   0  0  0  0  0  0  0  0  0  0  0  0
   59.8180   31.3210   48.4580 C   0  0  0  0  0  0  0  0  0  0  0  0
   59.4640   30.1290   49.1140 C   0  0  0  0  0  0  0  0  0  0  0  0
   59.8280   28.8710   48.6110 O   0  0  0  0  0  0  0  0  0  0  0  0
   59.3070   28.2750   47.4530 C   0  0  0  0  0  0  0  0  0  0  0  0
   59.9320   28.4130   46.2030 C   0  0  0  0  0  0  0  0  0  0  0  0
   59.3740   27.8180   45.0690 C   0  0  0  0  0  0  0  0  0  0  0  0
   58.1850   27.0920   45.1710 C   0  0  0  0  0  0  0  0  0  0  0  0
   57.5350   26.9590   46.4090 C   0  0  0  0  0  0  0  0  0  0  0  0
   56.3060   26.2170   46.5110 N   0  0  0  0  0  0  0  0  0  0  0  0
   56.2690   25.1260   47.1160 O   0  0  0  0  0  0  0  0  0  0  0  0
   55.1490   26.6990   45.9430 O   0  0  0  0  0  0  0  0  0  0  0  0
   58.1060   27.5630   47.5460 C   0  0  0  0  0  0  0  0  0  0  0  0
   58.7670   30.1930   50.3270 C   0  0  0  0  0  0  0  0  0  0  0  0
   53.8420   30.7330   51.6620 C   0  0  0  0  0  0  0  0  0  0  0  0
   52.9050   29.7280   51.4850 C   0  0  0  0  0  0  0  0  0  0  0  0
   51.6930   30.3580   51.3070 C   0  0  0  0  0  0  0  0  0  0  0  0
   51.9610   31.7060   51.3860 C   0  0  0  0  0  0  0  0  0  0  0  0
   51.0080   32.7090   51.2600 O   0  0  0  0  0  0  0  0  0  0  0  0
   53.2670   31.9520   51.6030 N   0  0  0  0  0  0  0  0  0  0  0  0
   55.8300   32.5900   51.6600 H   0  0  0  0  0  0  0  0  0  0  0  0
   57.9612   32.3354   52.7597 H   0  0  0  0  0  0  0  0  0  0  0  0
   57.7749   30.5436   52.7122 H   0  0  0  0  0  0  0  0  0  0  0  0
   58.4360   33.5872   50.6110 H   0  0  0  0  0  0  0  0  0  0  0  0
   59.7175   33.4857   48.4751 H   0  0  0  0  0  0  0  0  0  0  0  0
   60.3884   31.2816   47.5182 H   0  0  0  0  0  0  0  0  0  0  0  0
   60.8637   28.9913   46.1166 H   0  0  0  0  0  0  0  0  0  0  0  0
   59.8720   27.9214   44.0936 H   0  0  0  0  0  0  0  0  0  0  0  0
   57.7545   26.6209   44.2750 H   0  0  0  0  0  0  0  0  0  0  0  0
   57.6015   27.4739   48.5194 H   0  0  0  0  0  0  0  0  0  0  0  0
   58.5080   29.2640   50.8559 H   0  0  0  0  0  0  0  0  0  0  0  0
   53.0915   28.6439   51.4863 H   0  0  0  0  0  0  0  0  0  0  0  0
   50.7154   29.8832   51.1372 H   0  0  0  0  0  0  0  0  0  0  0  0
  1  2  2  0
  2  3  1  0
  3  4  1  0
  4  5  1  0
  5  6  2  0
  6  7  1  0
  7  8  2  0
  8  9  1  0
  9 10  1  0
 10 11  1  0
 11 12  2  0
 12 13  1  0
 13 14  2  0
 14 15  1  0
 15 16  1  0
 16 17  2  0
 16 18  1  0
 15 19  2  0
  9 20  2  0
  2 21  1  0
 21 22  2  0
 22 23  1  0
 23 24  2  0
 24 25  1  0
 24 26  1  0
 20  5  1  0
 26 21  1  0
 19 11  1  0
  3 27  1  0
  4 28  1  0
  4 29  1  0
  6 30  1  0
  7 31  1  0
  8 32  1  0
 12 33  1  0
 13 34  1  0
 14 35  1  0
 19 36  1  0
 20 37  1  0
 22 38  1  0
 23 39  1  0
M  CHG  4  16   1  18  -1  25  -1  26  -1
M  END
>  <UniqueID>  (34) 
27

>  <SMILES>  (34) 
O=C(NCc1cccc(Oc2cccc([N+](=O)[O-])c2)c1)c1ccc([O-])[n-]1

>  <Energy>  (34) 
71.09893535839677

>  <Genealogy>  (34) 
O=C(NCc1cccc(Oc2cccc([N+](=O)[O-])c2)c1)c1ccc([O-])[n-]1 (protonated)
O=C(NCc1cccc(Oc2cccc([N+](=O)[O-])c2)c1)c1ccc([O-])[n-]1 (3D coordinates assigned)
O=C(NCc1cccc(Oc2cccc([N+](=O)[O-])c2)c1)c1ccc([O-])[n-]1 (optimized conformer: 71.09893535839677 kcal/mol)

>  <smiles>  (34) 
O=C(NCc1cccc(Oc2cccc([N+](=O)[O-])c2)c1)c1ccc(O)[nH]1

>  <score_type>  (34) 
oracle

>  <origin>  (34) 
adg

>  <m_score__min__energy>  (34) 
-14.84

>  <m_primary>  (34) 
energy

$$$$
34:0
     RDKit          3D

 42 45  0  0  0  0  0  0  0  0999 V2000
   56.0470   21.8830   41.5490 H   0  0  0  0  0  0  0  0  0  0  0  0
   56.1560   21.7780   42.5840 N   0  0  0  0  0  0  0  0  0  0  0  0
   56.6260   22.7250   43.3310 C   0  0  0  0  0  0  0  0  0  0  0  0
   57.3200   22.4110   44.4560 N   0  0  0  0  0  0  0  0  0  0  0  0
   57.8300   23.3740   45.2650 C   0  0  0  0  0  0  0  0  0  0  0  0
   58.3925   23.0959   46.1685 H   0  0  0  0  0  0  0  0  0  0  0  0
   57.6360   24.7280   44.9430 C   0  0  0  0  0  0  0  0  0  0  0  0
   58.1830   25.7960   45.8140 C   0  0  0  0  0  0  0  0  0  0  0  0
   59.5440   25.7910   46.1660 C   0  0  0  0  0  0  0  0  0  0  0  0
   60.1998   24.9873   45.7998 H   0  0  0  0  0  0  0  0  0  0  0  0
   60.0700   26.8000   46.9780 C   0  0  0  0  0  0  0  0  0  0  0  0
   61.1353   26.7835   47.2516 H   0  0  0  0  0  0  0  0  0  0  0  0
   59.2450   27.8330   47.4450 C   0  0  0  0  0  0  0  0  0  0  0  0
   59.7970   28.8980   48.3070 C   0  0  0  0  0  0  0  0  0  0  0  0
   60.1490   28.5700   49.6280 C   0  0  0  0  0  0  0  0  0  0  0  0
   59.9792   27.5489   50.0002 H   0  0  0  0  0  0  0  0  0  0  0  0
   60.7120   29.5290   50.4710 C   0  0  0  0  0  0  0  0  0  0  0  0
   60.9839   29.2622   51.5029 H   0  0  0  0  0  0  0  0  0  0  0  0
   60.9300   30.8250   50.0060 C   0  0  0  0  0  0  0  0  0  0  0  0
   61.3842   31.5767   50.6684 H   0  0  0  0  0  0  0  0  0  0  0  0
   60.5730   31.1710   48.7010 C   0  0  0  0  0  0  0  0  0  0  0  0
   60.7493   32.1954   48.3411 H   0  0  0  0  0  0  0  0  0  0  0  0
   59.9910   30.2230   47.8440 C   0  0  0  0  0  0  0  0  0  0  0  0
   59.4900   30.7440   46.2250 S   0  0  0  0  0  0  0  0  0  0  0  0
   60.0700   29.8450   45.1680 O   0  0  0  0  0  0  0  0  0  0  0  0
   59.9640   32.1500   45.9920 O   0  0  0  0  0  0  0  0  0  0  0  0
   57.7620   30.7050   46.0880 N   0  0  0  0  0  0  0  0  0  0  0  0
   57.1470   30.4770   44.9690 C   0  0  0  0  0  0  0  0  0  0  0  0
   55.9750   29.8110   44.8750 N   0  0  0  0  0  0  0  0  0  0  0  0
   55.5580   29.7270   43.5830 C   0  0  0  0  0  0  0  0  0  0  0  0
   54.6246   29.2207   43.2960 H   0  0  0  0  0  0  0  0  0  0  0  0
   56.3980   30.3280   42.6510 C   0  0  0  0  0  0  0  0  0  0  0  0
   56.2327   30.3660   41.5642 H   0  0  0  0  0  0  0  0  0  0  0  0
   57.7110   30.9870   43.4730 S   0  0  0  0  0  0  0  0  0  0  0  0
   57.8830   27.8310   47.1140 C   0  0  0  0  0  0  0  0  0  0  0  0
   57.2268   28.6272   47.4953 H   0  0  0  0  0  0  0  0  0  0  0  0
   57.3530   26.8230   46.3020 C   0  0  0  0  0  0  0  0  0  0  0  0
   56.0250   26.8340   46.0250 F   0  0  0  0  0  0  0  0  0  0  0  0
   56.9420   25.0410   43.8100 N   0  0  0  0  0  0  0  0  0  0  0  0
   56.8100   26.0390   43.5320 H   0  0  0  0  0  0  0  0  0  0  0  0
   56.4340   24.0730   43.0010 C   0  0  0  0  0  0  0  0  0  0  0  0
   55.8760   24.3467   42.0934 H   0  0  0  0  0  0  0  0  0  0  0  0
  1  2  1  0
  2  3  2  3
  3  4  1  0
  4  5  1  0
  5  6  1  0
  5  7  2  0
  7  8  1  0
  8  9  2  0
  9 10  1  0
  9 11  1  0
 11 12  1  0
 11 13  2  0
 13 14  1  0
 14 15  2  0
 15 16  1  0
 15 17  1  0
 17 18  1  0
 17 19  2  0
 19 20  1  0
 19 21  1  0
 21 22  1  0
 21 23  2  0
 23 24  1  0
 24 25  2  0
 24 26  2  0
 24 27  1  0
 27 28  2  0
 28 29  1  0
 29 30  1  0
 30 31  1  0
 30 32  2  0
 32 33  1  0
 32 34  1  0
 13 35  1  0
 35 36  1  0
 35 37  2  0
 37 38  1  0
  7 39  1  0
 39 40  1  0
 39 41  2  0
 41 42  1  0
 41  3  1  0
 37  8  1  0
 23 14  1  0
 34 28  1  0
M  CHG  3   4  -1  29  -1  39   1
M  END
>  <UniqueID>  (35) 
28

>  <SMILES>  (35) 
N=c1c[nH+]c(-c2ccc(-c3ccccc3S(=O)(=O)/N=c3\[n-]ccs3)cc2F)c[n-]1

>  <Energy>  (35) 
95.2948849928173

>  <Genealogy>  (35) 
N=c1c[nH+]c(-c2ccc(-c3ccccc3S(=O)(=O)N=c3[n-]ccs3)cc2F)c[n-]1 (protonated)
N=c1c[nH+]c(-c2ccc(-c3ccccc3S(=O)(=O)/N=c3\[n-]ccs3)cc2F)c[n-]1 (cis-trans isomerization)
N=c1c[nH+]c(-c2ccc(-c3ccccc3S(=O)(=O)/N=c3\[n-]ccs3)cc2F)c[n-]1 (3D coordinates assigned)
N=c1c[nH+]c(-c2ccc(-c3ccccc3S(=O)(=O)/N=c3\[n-]ccs3)cc2F)c[n-]1 (optimized conformer: 95.2948849928173 kcal/mol)

>  <smiles>  (35) 
N=c1cnc(-c2ccc(-c3ccccc3S(=O)(=O)N=c3[nH]ccs3)cc2F)c[nH]1

>  <score_type>  (35) 
oracle

>  <origin>  (35) 
adg

>  <m_score__min__energy>  (35) 
-10.369999999999999

>  <m_primary>  (35) 
energy

$$$$
35:0
     RDKit          3D

 29 30  0  0  0  0  0  0  0  0999 V2000
   58.3977   28.7134   43.5928 H   0  0  0  0  0  0  0  0  0  0  0  0
   58.1220   29.2760   44.4970 C   0  0  0  0  0  0  0  0  0  0  0  0
   56.8830   28.8730   45.2030 C   0  0  0  0  0  0  0  0  0  0  0  0
   55.9040   29.6640   45.2430 O   0  0  0  0  0  0  0  0  0  0  0  0
   56.8040   27.6490   45.9510 N   0  0  0  0  0  0  0  0  0  0  0  0
   56.7140   26.4390   45.4750 C   0  0  0  0  0  0  0  0  0  0  0  0
   57.5220   26.0180   44.4610 N   0  0  0  0  0  0  0  0  0  0  0  0
   57.4180   24.7660   43.9490 C   0  0  0  0  0  0  0  0  0  0  0  0
   58.0851   24.4455   43.1352 H   0  0  0  0  0  0  0  0  0  0  0  0
   56.4620   23.8860   44.4580 C   0  0  0  0  0  0  0  0  0  0  0  0
   56.3330   22.5530   43.9300 C   0  0  0  0  0  0  0  0  0  0  0  0
   56.2290   21.4820   43.5060 N   0  0  0  0  0  0  0  0  0  0  0  0
   55.6340   24.3300   45.4900 C   0  0  0  0  0  0  0  0  0  0  0  0
   54.8707   23.6587   45.9103 H   0  0  0  0  0  0  0  0  0  0  0  0
   55.7710   25.5930   45.9760 N   0  0  0  0  0  0  0  0  0  0  0  0
   55.1380   25.9090   46.7460 H   0  0  0  0  0  0  0  0  0  0  0  0
   58.9330   30.2750   44.8770 C   0  0  0  0  0  0  0  0  0  0  0  0
   60.0106   30.0616   44.9345 H   0  0  0  0  0  0  0  0  0  0  0  0
   58.4860   31.6440   45.2250 C   0  0  0  0  0  0  0  0  0  0  0  0
   58.5580   32.0950   46.5550 C   0  0  0  0  0  0  0  0  0  0  0  0
   58.9795   31.4406   47.3323 H   0  0  0  0  0  0  0  0  0  0  0  0
   58.0970   33.3700   46.8950 C   0  0  0  0  0  0  0  0  0  0  0  0
   58.1691   33.7209   47.9350 H   0  0  0  0  0  0  0  0  0  0  0  0
   57.5450   34.1990   45.9160 C   0  0  0  0  0  0  0  0  0  0  0  0
   57.1881   35.2044   46.1841 H   0  0  0  0  0  0  0  0  0  0  0  0
   57.4460   33.7520   44.5970 C   0  0  0  0  0  0  0  0  0  0  0  0
   57.0051   34.4054   43.8298 H   0  0  0  0  0  0  0  0  0  0  0  0
   57.9050   32.4760   44.2450 C   0  0  0  0  0  0  0  0  0  0  0  0
   57.7640   31.9640   42.5670 Cl  0  0  0  0  0  0  0  0  0  0  0  0
  1  2  1  0
  2  3  1  0
  3  4  2  0
  3  5  1  0
  5  6  2  0
  6  7  1  0
  7  8  2  0
  8  9  1  0
  8 10  1  0
 10 11  1  0
 11 12  3  0
 10 13  2  0
 13 14  1  0
 13 15  1  0
 15 16  1  0
  2 17  2  0
 17 18  1  0
 17 19  1  0
 19 20  2  0
 20 21  1  0
 20 22  1  0
 22 23  1  0
 22 24  2  0
 24 25  1  0
 24 26  1  0
 26 27  1  0
 26 28  2  0
 28 29  1  0
 15  6  1  0
 28 19  1  0
M  END
>  <UniqueID>  (36) 
29

>  <SMILES>  (36) 
N#Cc1cn/c(=N\C(=O)/C=C\c2ccccc2Cl)[nH]c1

>  <Energy>  (36) 
43.05890416649275

>  <Genealogy>  (36) 
N#Cc1cn/c(=N\C(=O)/C=C\c2ccccc2Cl)[nH]c1 (cis-trans isomerization)
N#Cc1cn/c(=N\C(=O)/C=C\c2ccccc2Cl)[nH]c1 (3D coordinates assigned)
N#Cc1cn/c(=N\C(=O)/C=C\c2ccccc2Cl)[nH]c1 (optimized conformer: 43.05890416649275 kcal/mol)

>  <smiles>  (36) 
N#Cc1cnc(=NC(=O)C=Cc2ccccc2Cl)[nH]c1

>  <score_type>  (36) 
oracle

>  <origin>  (36) 
adg

>  <m_score__min__energy>  (36) 
-7.46

>  <m_primary>  (36) 
energy

$$$$
36:0
     RDKit          3D

 36 36  0  0  0  0  0  0  0  0999 V2000
   57.7390   33.9160   44.9070 C   0  0  0  0  0  0  0  0  0  0  0  0
   57.3380   32.4420   44.8760 C   0  0  0  0  0  0  0  0  0  0  0  0
   57.5330   31.7890   43.4960 C   0  0  0  0  0  0  0  0  0  0  0  0
   57.1800   30.2900   43.4550 C   0  0  0  0  0  0  0  0  0  0  0  0
   57.9840   29.4570   44.4190 C   0  0  0  0  0  0  0  0  0  0  0  0
   59.1190   29.8670   44.7890 O   0  0  0  0  0  0  0  0  0  0  0  0
   57.4170   28.2410   45.0500 C   0  0  0  0  0  0  0  0  0  0  0  0
   56.0340   28.1110   45.2680 C   0  0  0  0  0  0  0  0  0  0  0  0
   55.1490   29.1110   44.8820 O   0  0  0  0  0  0  0  0  0  0  0  0
   55.5370   26.9870   45.8400 N   0  0  0  0  0  0  0  0  0  0  0  0
   56.3260   25.9500   46.2140 C   0  0  0  0  0  0  0  0  0  0  0  0
   55.7920   24.9350   46.7340 O   0  0  0  0  0  0  0  0  0  0  0  0
   57.7210   26.0110   46.0140 C   0  0  0  0  0  0  0  0  0  0  0  0
   58.5960   24.8320   46.3950 C   0  0  0  0  0  0  0  0  0  0  0  0
   58.7440   23.8260   45.2470 C   0  0  0  0  0  0  0  0  0  0  0  0
   57.4360   22.5450   45.3060 S   0  0  0  0  0  0  0  0  0  0  0  0
   56.7200   22.9170   43.6710 C   0  0  0  0  0  0  0  0  0  0  0  0
   58.2660   27.1770   45.4200 C   0  0  0  0  0  0  0  0  0  0  0  0
   59.6410   27.3150   45.1980 O   0  0  0  0  0  0  0  0  0  0  0  0
   57.8297   34.2494   45.9513 H   0  0  0  0  0  0  0  0  0  0  0  0
   58.7046   34.0441   44.3960 H   0  0  0  0  0  0  0  0  0  0  0  0
   56.9713   34.5157   44.3960 H   0  0  0  0  0  0  0  0  0  0  0  0
   57.9504   31.8977   45.6099 H   0  0  0  0  0  0  0  0  0  0  0  0
   56.2651   32.3903   45.1132 H   0  0  0  0  0  0  0  0  0  0  0  0
   56.8936   32.3146   42.7715 H   0  0  0  0  0  0  0  0  0  0  0  0
   58.6031   31.8700   43.2546 H   0  0  0  0  0  0  0  0  0  0  0  0
   56.1140   30.1764   43.7017 H   0  0  0  0  0  0  0  0  0  0  0  0
   57.4144   29.9298   42.4424 H   0  0  0  0  0  0  0  0  0  0  0  0
   59.5936   25.2053   46.6698 H   0  0  0  0  0  0  0  0  0  0  0  0
   58.1163   24.3139   47.2385 H   0  0  0  0  0  0  0  0  0  0  0  0
   58.6755   24.3633   44.2896 H   0  0  0  0  0  0  0  0  0  0  0  0
   59.7199   23.3284   45.3472 H   0  0  0  0  0  0  0  0  0  0  0  0
   55.7507   23.4206   43.8012 H   0  0  0  0  0  0  0  0  0  0  0  0
   57.4027   23.5744   43.1127 H   0  0  0  0  0  0  0  0  0  0  0  0
   56.5746   21.9804   43.1127 H   0  0  0  0  0  0  0  0  0  0  0  0
   60.0850   28.1770   44.9100 H   0  0  0  0  0  0  0  0  0  0  0  0
  1  2  1  0
  2  3  1  0
  3  4  1  0
  4  5  1  0
  5  6  2  0
  5  7  1  0
  7  8  2  0
  8  9  1  0
  8 10  1  0
 10 11  1  0
 11 12  2  0
 11 13  1  0
 13 14  1  0
 14 15  1  0
 15 16  1  0
 16 17  1  0
 13 18  2  0
 18 19  1  0
 18  7  1  0
  1 20  1  0
  1 21  1  0
  1 22  1  0
  2 23  1  0
  2 24  1  0
  3 25  1  0
  3 26  1  0
  4 27  1  0
  4 28  1  0
 14 29  1  0
 14 30  1  0
 15 31  1  0
 15 32  1  0
 17 33  1  0
 17 34  1  0
 17 35  1  0
 19 36  1  0
M  CHG  2   9  -1  10  -1
M  END
>  <UniqueID>  (37) 
30

>  <SMILES>  (37) 
CCCCC(=O)c1c([O-])[n-]c(=O)c(CCSC)c1O

>  <Energy>  (37) 
34.378132456743515

>  <Genealogy>  (37) 
CCCCC(=O)c1c([O-])[n-]c(=O)c(CCSC)c1O (protonated)
CCCCC(=O)c1c([O-])[n-]c(=O)c(CCSC)c1O (3D coordinates assigned)
CCCCC(=O)c1c([O-])[n-]c(=O)c(CCSC)c1O (optimized conformer: 34.378132456743515 kcal/mol)

>  <smiles>  (37) 
CCCCC(=O)c1c(O)[nH]c(=O)c(CCSC)c1O

>  <score_type>  (37) 
oracle

>  <origin>  (37) 
adg

>  <m_score__min__energy>  (37) 
-11.44

>  <m_primary>  (37) 
energy

$$$$
37:0
     RDKit          3D

 38 39  0  0  0  0  0  0  0  0999 V2000
   55.1730   26.6280   46.0010 O   0  0  0  0  0  0  0  0  0  0  0  0
   56.4270   26.5780   46.1150 C   0  0  0  0  0  0  0  0  0  0  0  0
   57.0570   25.3430   46.6850 C   0  0  0  0  0  0  0  0  0  0  0  0
   56.8830   24.2150   45.7630 N   0  0  0  0  0  0  0  0  0  0  0  0
   56.5470   24.4780   44.3560 C   0  0  0  0  0  0  0  0  0  0  0  0
   56.9360   23.3010   43.4540 C   0  0  0  0  0  0  0  0  0  0  0  0
   56.3020   22.0080   43.9700 C   0  0  0  0  0  0  0  0  0  0  0  0
   56.6990   21.7710   45.3540 N   0  0  0  0  0  0  0  0  0  0  0  0
   56.9010   22.8600   46.2570 C   0  0  0  0  0  0  0  0  0  0  0  0
   57.1280   22.6210   47.4730 O   0  0  0  0  0  0  0  0  0  0  0  0
   57.2460   27.6940   45.7250 N   0  0  0  0  0  0  0  0  0  0  0  0
   56.7300   28.9000   45.1370 C   0  0  0  0  0  0  0  0  0  0  0  0
   55.5130   28.9890   44.8200 O   0  0  0  0  0  0  0  0  0  0  0  0
   57.6120   30.0060   44.9070 N   0  0  0  0  0  0  0  0  0  0  0  0
   57.1340   31.2580   44.3210 C   0  0  0  0  0  0  0  0  0  0  0  0
   57.7700   32.4380   45.0030 C   0  0  0  0  0  0  0  0  0  0  0  0
   57.8230   32.4990   46.4060 C   0  0  0  0  0  0  0  0  0  0  0  0
   58.4520   33.5730   47.0410 C   0  0  0  0  0  0  0  0  0  0  0  0
   59.0420   34.5870   46.2820 C   0  0  0  0  0  0  0  0  0  0  0  0
   59.0050   34.5270   44.8860 C   0  0  0  0  0  0  0  0  0  0  0  0
   58.3770   33.4540   44.2470 C   0  0  0  0  0  0  0  0  0  0  0  0
   58.1309   25.5220   46.8419 H   0  0  0  0  0  0  0  0  0  0  0  0
   56.5731   25.1021   47.6430 H   0  0  0  0  0  0  0  0  0  0  0  0
   55.4634   24.6482   44.2734 H   0  0  0  0  0  0  0  0  0  0  0  0
   57.1097   25.3642   44.0275 H   0  0  0  0  0  0  0  0  0  0  0  0
   56.5831   23.4955   42.4305 H   0  0  0  0  0  0  0  0  0  0  0  0
   58.0305   23.1911   43.4593 H   0  0  0  0  0  0  0  0  0  0  0  0
   55.2067   22.0931   43.9154 H   0  0  0  0  0  0  0  0  0  0  0  0
   56.6441   21.1671   43.3488 H   0  0  0  0  0  0  0  0  0  0  0  0
   58.2750   27.6340   45.8870 H   0  0  0  0  0  0  0  0  0  0  0  0
   58.6160   29.9090   45.1790 H   0  0  0  0  0  0  0  0  0  0  0  0
   57.3899   31.2775   43.2513 H   0  0  0  0  0  0  0  0  0  0  0  0
   56.0435   31.3176   44.4523 H   0  0  0  0  0  0  0  0  0  0  0  0
   57.3675   31.6980   47.0067 H   0  0  0  0  0  0  0  0  0  0  0  0
   58.4827   33.6203   48.1396 H   0  0  0  0  0  0  0  0  0  0  0  0
   59.5357   35.4326   46.7832 H   0  0  0  0  0  0  0  0  0  0  0  0
   59.4707   35.3252   44.2894 H   0  0  0  0  0  0  0  0  0  0  0  0
   58.3582   33.4053   43.1482 H   0  0  0  0  0  0  0  0  0  0  0  0
  1  2  2  0
  2  3  1  0
  3  4  1  0
  4  5  1  0
  5  6  1  0
  6  7  1  0
  7  8  1  0
  8  9  1  0
  9 10  2  0
  2 11  1  0
 11 12  1  0
 12 13  2  0
 12 14  1  0
 14 15  1  0
 15 16  1  0
 16 17  2  0
 17 18  1  0
 18 19  2  0
 19 20  1  0
 20 21  2  0
  9  4  1  0
 21 16  1  0
  3 22  1  0
  3 23  1  0
  5 24  1  0
  5 25  1  0
  6 26  1  0
  6 27  1  0
  7 28  1  0
  7 29  1  0
 11 30  1  0
 14 31  1  0
 15 32  1  0
 15 33  1  0
 17 34  1  0
 18 35  1  0
 19 36  1  0
 20 37  1  0
 21 38  1  0
M  CHG  1   8  -1
M  END
>  <UniqueID>  (38) 
31

>  <SMILES>  (38) 
O=C(CN1CCC[N-]C1=O)NC(=O)NCc1ccccc1

>  <Energy>  (38) 
30.037295754039793

>  <Genealogy>  (38) 
O=C(CN1CCC[N-]C1=O)NC(=O)NCc1ccccc1 (protonated)
O=C(CN1CCC[N-]C1=O)NC(=O)NCc1ccccc1 (3D coordinates assigned)
O=C(CN1CCC[N-]C1=O)NC(=O)NCc1ccccc1 (nonaromatic ring conformer: 30.037295754039793 kcal/mol)

>  <smiles>  (38) 
O=C(CN1CCCNC1=O)NC(=O)NCc1ccccc1

>  <score_type>  (38) 
oracle

>  <origin>  (38) 
adg

>  <m_score__min__energy>  (38) 
-9.7799999999999994

>  <m_primary>  (38) 
energy

$$$$
38:0
     RDKit          3D

 39 41  0  0  0  0  0  0  0  0999 V2000
   58.8730   30.8160   47.5770 C   0  0  0  0  0  0  0  0  0  0  0  0
   58.3920   30.6960   46.3290 C   0  0  0  0  0  0  0  0  0  0  0  0
   58.2850   29.5180   45.5720 C   0  0  0  0  0  0  0  0  0  0  0  0
   58.4080   28.2250   45.9260 C   0  0  0  0  0  0  0  0  0  0  0  0
   57.2950   27.2960   46.1790 C   0  0  0  0  0  0  0  0  0  0  0  0
   56.0740   27.3900   45.6190 N   0  0  0  0  0  0  0  0  0  0  0  0
   55.4520   26.2670   46.0390 C   0  0  0  0  0  0  0  0  0  0  0  0
   54.2610   25.9970   45.7320 O   0  0  0  0  0  0  0  0  0  0  0  0
   56.2080   25.4530   46.8050 N   0  0  0  0  0  0  0  0  0  0  0  0
   57.3770   26.1130   46.8710 C   0  0  0  0  0  0  0  0  0  0  0  0
   58.5000   25.6420   47.5410 O   0  0  0  0  0  0  0  0  0  0  0  0
   57.9930   29.9180   44.2770 C   0  0  0  0  0  0  0  0  0  0  0  0
   57.8580   31.2900   44.3010 C   0  0  0  0  0  0  0  0  0  0  0  0
   57.5380   32.1280   43.1020 C   0  0  0  0  0  0  0  0  0  0  0  0
   58.1000   31.7630   45.5430 N   0  0  0  0  0  0  0  0  0  0  0  0
   58.1620   33.1480   45.9230 C   0  0  0  0  0  0  0  0  0  0  0  0
   57.2660   33.6290   46.6680 O   0  0  0  0  0  0  0  0  0  0  0  0
   59.3310   33.9980   45.5230 C   0  0  0  0  0  0  0  0  0  0  0  0
   60.3380   34.0370   46.6390 C   0  0  0  0  0  0  0  0  0  0  0  0
   59.9190   34.2530   47.9630 C   0  0  0  0  0  0  0  0  0  0  0  0
   60.8460   34.2190   49.0090 C   0  0  0  0  0  0  0  0  0  0  0  0
   62.1940   33.9600   48.7430 C   0  0  0  0  0  0  0  0  0  0  0  0
   63.1140   33.9240   49.7840 O   0  0  0  0  0  0  0  0  0  0  0  0
   62.6160   33.7330   47.4290 C   0  0  0  0  0  0  0  0  0  0  0  0
   61.6930   33.7690   46.3810 C   0  0  0  0  0  0  0  0  0  0  0  0
   58.9029   31.8027   48.0624 H   0  0  0  0  0  0  0  0  0  0  0  0
   59.2371   29.9276   48.1139 H   0  0  0  0  0  0  0  0  0  0  0  0
   59.4283   27.8287   46.0356 H   0  0  0  0  0  0  0  0  0  0  0  0
   59.3080   26.2380   47.6770 H   0  0  0  0  0  0  0  0  0  0  0  0
   57.8889   29.2651   43.3978 H   0  0  0  0  0  0  0  0  0  0  0  0
   57.1634   33.1090   43.4297 H   0  0  0  0  0  0  0  0  0  0  0  0
   58.4468   32.2657   42.4978 H   0  0  0  0  0  0  0  0  0  0  0  0
   56.7687   31.6249   42.4978 H   0  0  0  0  0  0  0  0  0  0  0  0
   59.7998   33.5739   44.6228 H   0  0  0  0  0  0  0  0  0  0  0  0
   58.9820   35.0198   45.3128 H   0  0  0  0  0  0  0  0  0  0  0  0
   58.8581   34.4495   48.1770 H   0  0  0  0  0  0  0  0  0  0  0  0
   60.5144   34.3963   50.0427 H   0  0  0  0  0  0  0  0  0  0  0  0
   63.6760   33.5259   47.2205 H   0  0  0  0  0  0  0  0  0  0  0  0
   62.0284   33.5868   45.3494 H   0  0  0  0  0  0  0  0  0  0  0  0
  1  2  2  0
  2  3  1  0
  3  4  2  3
  4  5  1  0
  5  6  1  0
  6  7  1  0
  7  8  2  0
  7  9  1  0
  9 10  1  0
 10 11  1  0
  3 12  1  0
 12 13  2  0
 13 14  1  0
 13 15  1  0
 15 16  1  0
 16 17  2  0
 16 18  1  0
 18 19  1  0
 19 20  2  0
 20 21  1  0
 21 22  2  0
 22 23  1  0
 22 24  1  0
 24 25  2  0
 15  2  1  0
 25 19  1  0
 10  5  2  0
  1 26  1  0
  1 27  1  0
  4 28  1  0
 11 29  1  0
 12 30  1  0
 14 31  1  0
 14 32  1  0
 14 33  1  0
 18 34  1  0
 18 35  1  0
 20 36  1  0
 21 37  1  0
 24 38  1  0
 25 39  1  0
M  CHG  3   6  -1   9  -1  23  -1
M  END
>  <UniqueID>  (39) 
32

>  <SMILES>  (39) 
C=c1c(=Cc2[n-]c(=O)[n-]c2O)cc(C)n1C(=O)Cc1ccc([O-])cc1

>  <Energy>  (39) 
111.77804071004695

>  <Genealogy>  (39) 
C=c1c(=Cc2[n-]c(=O)[n-]c2O)cc(C)n1C(=O)Cc1ccc([O-])cc1 (protonated)
C=c1c(=Cc2[n-]c(=O)[n-]c2O)cc(C)n1C(=O)Cc1ccc([O-])cc1 (3D coordinates assigned)
C=c1c(=Cc2[n-]c(=O)[n-]c2O)cc(C)n1C(=O)Cc1ccc([O-])cc1 (optimized conformer: 111.77804071004695 kcal/mol)

>  <smiles>  (39) 
C=c1c(=Cc2[nH]c(=O)[nH]c2O)cc(C)n1C(=O)Cc1ccc(O)cc1

>  <score_type>  (39) 
oracle

>  <origin>  (39) 
adg

>  <m_score__min__energy>  (39) 
-13.56

>  <m_primary>  (39) 
energy

$$$$
39:0
     RDKit          3D

 29 30  0  0  0  0  0  0  0  0999 V2000
   56.7680   20.7240   44.0450 C   0  0  0  0  0  0  0  0  0  0  0  0
   55.8990   21.7320   43.5410 O   0  0  0  0  0  0  0  0  0  0  0  0
   56.2080   23.0930   43.6100 C   0  0  0  0  0  0  0  0  0  0  0  0
   56.6630   23.7020   42.6040 O   0  0  0  0  0  0  0  0  0  0  0  0
   56.0460   23.8190   44.9080 C   0  0  0  0  0  0  0  0  0  0  0  0
   56.4790   25.2100   44.7810 N   0  0  0  0  0  0  0  0  0  0  0  0
   56.5710   26.0660   45.9300 C   0  0  0  0  0  0  0  0  0  0  0  0
   56.2500   25.6220   47.0650 O   0  0  0  0  0  0  0  0  0  0  0  0
   57.0360   27.4650   45.8140 C   0  0  0  0  0  0  0  0  0  0  0  0
   57.9980   28.0460   46.6400 C   0  0  0  0  0  0  0  0  0  0  0  0
   58.1290   29.3390   46.1860 C   0  0  0  0  0  0  0  0  0  0  0  0
   58.9440   30.3790   46.6300 C   0  0  0  0  0  0  0  0  0  0  0  0
   58.8610   31.6110   45.9550 C   0  0  0  0  0  0  0  0  0  0  0  0
   57.9750   31.7720   44.8660 C   0  0  0  0  0  0  0  0  0  0  0  0
   57.1660   30.7010   44.4410 C   0  0  0  0  0  0  0  0  0  0  0  0
   57.2700   29.4930   45.1310 C   0  0  0  0  0  0  0  0  0  0  0  0
   56.5950   28.3570   44.8900 N   0  0  0  0  0  0  0  0  0  0  0  0
   56.7521   20.7425   45.1447 H   0  0  0  0  0  0  0  0  0  0  0  0
   56.4316   19.7387   43.6899 H   0  0  0  0  0  0  0  0  0  0  0  0
   57.7921   20.9116   43.6899 H   0  0  0  0  0  0  0  0  0  0  0  0
   54.9869   23.7963   45.2044 H   0  0  0  0  0  0  0  0  0  0  0  0
   56.6667   23.3240   45.6694 H   0  0  0  0  0  0  0  0  0  0  0  0
   56.7120   25.5850   43.8340 H   0  0  0  0  0  0  0  0  0  0  0  0
   58.5362   27.5729   47.4746 H   0  0  0  0  0  0  0  0  0  0  0  0
   59.6291   30.2413   47.4795 H   0  0  0  0  0  0  0  0  0  0  0  0
   59.4898   32.4541   46.2771 H   0  0  0  0  0  0  0  0  0  0  0  0
   57.9170   32.7402   44.3471 H   0  0  0  0  0  0  0  0  0  0  0  0
   56.4747   30.8130   43.5928 H   0  0  0  0  0  0  0  0  0  0  0  0
   55.8870   28.2120   44.1370 H   0  0  0  0  0  0  0  0  0  0  0  0
  1  2  1  0
  2  3  1  0
  3  4  2  0
  3  5  1  0
  5  6  1  0
  6  7  1  0
  7  8  2  0
  7  9  1  0
  9 10  2  0
 10 11  1  0
 11 12  2  0
 12 13  1  0
 13 14  2  0
 14 15  1  0
 15 16  2  0
 16 17  1  0
 17  9  1  0
 16 11  1  0
  1 18  1  0
  1 19  1  0
  1 20  1  0
  5 21  1  0
  5 22  1  0
  6 23  1  0
 10 24  1  0
 12 25  1  0
 13 26  1  0
 14 27  1  0
 15 28  1  0
 17 29  1  0
M  END
>  <UniqueID>  (40) 
33

>  <SMILES>  (40) 
COC(=O)CNC(=O)c1cc2ccccc2[nH]1

>  <Energy>  (40) 
56.75227642628626

>  <Genealogy>  (40) 
COC(=O)CNC(=O)c1cc2ccccc2[nH]1 (3D coordinates assigned)
COC(=O)CNC(=O)c1cc2ccccc2[nH]1 (optimized conformer: 56.75227642628626 kcal/mol)

>  <smiles>  (40) 
COC(=O)CNC(=O)c1cc2ccccc2[nH]1

>  <score_type>  (40) 
oracle

>  <origin>  (40) 
adg

>  <m_score__min__energy>  (40) 
-6.3399999999999999

>  <m_primary>  (40) 
energy

$$$$
40:0
     RDKit          3D

 47 50  0  0  1  0  0  0  0  0999 V2000
   63.7380   34.2600   53.1670 C   0  0  0  0  0  0  0  0  0  0  0  0
   64.1240   33.9770   51.8410 O   0  0  0  0  0  0  0  0  0  0  0  0
   65.4070   33.8280   51.3920 C   0  0  0  0  0  0  0  0  0  0  0  0
   66.4440   34.5910   51.9150 C   0  0  0  0  0  0  0  0  0  0  0  0
   67.7410   34.4630   51.4840 C   0  0  0  0  0  0  0  0  0  0  0  0
   67.9910   33.5370   50.4950 C   0  0  0  0  0  0  0  0  0  0  0  0
   66.9700   32.7650   49.9590 C   0  0  0  0  0  0  0  0  0  0  0  0
   65.6530   32.8930   50.3960 C   0  0  0  0  0  0  0  0  0  0  0  0
   64.5820   32.0530   49.8020 C   0  0  0  0  0  0  0  0  0  0  0  0
   64.0340   32.6480   48.6030 N   0  0  0  0  0  0  0  0  0  0  0  0
   62.8310   33.1320   48.6680 C   0  0  0  0  0  0  0  0  0  0  0  0
   61.9750   33.1110   47.6320 N   0  0  0  0  0  0  0  0  0  0  0  0
   60.7310   33.6090   47.6930 C   0  0  0  0  0  0  0  0  0  0  0  0
   59.8210   33.5890   46.5970 N   0  0  0  0  0  0  0  0  0  0  0  0
   59.5960   34.6860   45.8200 C   0  0  0  0  0  0  0  0  0  0  0  0
   58.6750   34.3650   44.8470 C   0  0  0  0  0  0  0  0  0  0  0  0
   58.3560   33.0420   45.0670 C   0  0  0  0  0  0  0  0  0  0  0  0
   57.4960   32.1760   44.4200 C   0  0  0  0  0  0  0  0  0  0  0  0
   57.3430   30.8510   44.8410 C   0  0  0  0  0  0  0  0  0  0  0  0
   56.4360   29.9320   44.1600 C   0  0  0  0  0  0  0  0  0  0  0  0
   57.0060   28.9730   43.2510 N   0  0  0  0  0  0  0  0  0  0  0  0
   55.1920   29.9610   44.3480 O   0  0  0  0  0  0  0  0  0  0  0  0
   58.0690   30.4050   45.9280 C   0  0  0  0  0  0  0  0  0  0  0  0
   58.9450   31.2550   46.6020 C   0  0  0  0  0  0  0  0  0  0  0  0
   59.0690   32.5600   46.1540 C   0  0  0  0  0  0  0  0  0  0  0  0
   60.2760   34.1810   48.8640 C   0  0  0  0  0  0  0  0  0  0  0  0
   61.1440   34.2090   49.9360 C   0  0  0  0  0  0  0  0  0  0  0  0
   62.3910   33.6880   49.8130 N   0  0  0  0  0  0  0  0  0  0  0  0
   64.4243   33.7568   53.8640 H   0  0  0  0  0  0  0  0  0  0  0  0
   63.7753   35.3463   53.3358 H   0  0  0  0  0  0  0  0  0  0  0  0
   62.7132   33.8977   53.3358 H   0  0  0  0  0  0  0  0  0  0  0  0
   66.2173   35.3242   52.7030 H   0  0  0  0  0  0  0  0  0  0  0  0
   68.5487   35.0755   51.9113 H   0  0  0  0  0  0  0  0  0  0  0  0
   69.0182   33.4073   50.1236 H   0  0  0  0  0  0  0  0  0  0  0  0
   67.2058   32.0349   49.1707 H   0  0  0  0  0  0  0  0  0  0  0  0
   65.0010   31.0674   49.5507 H   0  0  0  0  0  0  0  0  0  0  0  0
   63.7709   31.9621   50.5394 H   0  0  0  0  0  0  0  0  0  0  0  0
   60.0728   35.6689   45.9490 H   0  0  0  0  0  0  0  0  0  0  0  0
   58.2783   35.0246   44.0611 H   0  0  0  0  0  0  0  0  0  0  0  0
   56.9192   32.5361   43.5553 H   0  0  0  0  0  0  0  0  0  0  0  0
   57.0310   27.9450   43.4820 H   0  0  0  0  0  0  0  0  0  0  0  0
   57.3940   29.3550   42.3480 H   0  0  0  0  0  0  0  0  0  0  0  0
   57.9545   29.3647   46.2667 H   0  0  0  0  0  0  0  0  0  0  0  0
   59.5229   30.8984   47.4674 H   0  0  0  0  0  0  0  0  0  0  0  0
   59.2610   34.5982   48.9395 H   0  0  0  0  0  0  0  0  0  0  0  0
   60.8253   34.6536   50.8903 H   0  0  0  0  0  0  0  0  0  0  0  0
   62.9800   33.7550   50.6820 H   0  0  0  0  0  0  0  0  0  0  0  0
  1  2  1  0
  2  3  1  0
  3  4  2  0
  4  5  1  0
  5  6  2  0
  6  7  1  0
  7  8  2  0
  8  9  1  0
  9 10  1  0
 10 11  2  0
 11 12  1  0
 12 13  2  0
 13 14  1  0
 14 15  1  0
 15 16  2  0
 16 17  1  0
 17 18  2  0
 18 19  1  0
 19 20  1  0
 20 21  1  0
 20 22  2  0
 19 23  2  0
 23 24  1  0
 24 25  2  0
 13 26  1  0
 26 27  2  0
 27 28  1  0
  8  3  1  0
 28 11  1  0
 25 14  1  0
 25 17  1  0
  1 29  1  0
  1 30  1  0
  1 31  1  0
  4 32  1  0
  5 33  1  0
  6 34  1  0
  7 35  1  0
  9 36  1  0
  9 37  1  0
 15 38  1  0
 16 39  1  0
 18 40  1  0
 21 41  1  0
 21 42  1  0
 23 43  1  0
 24 44  1  0
 26 45  1  0
 27 46  1  0
 28 47  1  0
M  END
>  <smiles>  (41) 
COc1ccccc1CN=c1nc(-n2ccc3cc(C(N)=O)ccc32)cc[nH]1

>  <score_type>  (41) 
oracle

>  <origin>  (41) 
adg

>  <m_score__min__energy>  (41) 
-8.7300000000000004

>  <m_primary>  (41) 
energy

$$$$
41:0
     RDKit          3D

 68 71  0  0  0  0  0  0  0  0999 V2000
   57.7180   23.1980   47.3390 O   0  0  0  0  0  0  0  0  0  0  0  0
   57.0630   24.1850   46.9110 C   0  0  0  0  0  0  0  0  0  0  0  0
   55.8120   24.4640   47.4460 O   0  0  0  0  0  0  0  0  0  0  0  0
   57.5960   25.0060   45.7750 C   0  0  0  0  0  0  0  0  0  0  0  0
   57.5130   26.5170   46.0550 C   0  0  2  0  0  0  0  0  0  0  0  0
   57.8770   26.7710   47.4480 N   0  0  0  0  0  0  0  0  0  0  0  0
   58.8770   27.7040   47.8680 C   0  0  0  0  0  0  0  0  0  0  0  0
   60.0940   27.3840   47.8490 O   0  0  0  0  0  0  0  0  0  0  0  0
   58.5000   29.0050   48.3260 N   0  0  0  0  0  0  0  0  0  0  0  0
   59.3680   29.8440   49.1520 C   0  0  2  0  0  0  0  0  0  0  0  0
   60.2770   28.9540   50.0290 C   0  0  0  0  0  0  0  0  0  0  0  0
   61.6450   29.2880   49.8500 O   0  0  0  0  0  0  0  0  0  0  0  0
   61.9590   30.5050   50.4910 C   0  0  0  0  0  0  0  0  0  0  0  0
   62.5380   31.4520   49.4790 C   0  0  0  0  0  0  0  0  0  0  0  0
   63.3120   32.5460   49.9070 C   0  0  0  0  0  0  0  0  0  0  0  0
   63.8540   33.4330   48.9720 C   0  0  0  0  0  0  0  0  0  0  0  0
   63.6280   33.2370   47.6070 C   0  0  0  0  0  0  0  0  0  0  0  0
   62.8640   32.1510   47.1730 C   0  0  0  0  0  0  0  0  0  0  0  0
   62.3210   31.2590   48.1050 C   0  0  0  0  0  0  0  0  0  0  0  0
   58.5430   30.8170   49.9660 C   0  0  0  0  0  0  0  0  0  0  0  0
   57.6120   30.4410   50.8680 N   0  0  0  0  0  0  0  0  0  0  0  0
   57.2500   31.5520   51.4950 N   0  0  0  0  0  0  0  0  0  0  0  0
   57.9450   32.5780   51.0310 N   0  0  0  0  0  0  0  0  0  0  0  0
   58.7650   32.1450   50.0880 N   0  0  0  0  0  0  0  0  0  0  0  0
   59.7250   33.0020   49.3920 C   0  0  0  0  0  0  0  0  0  0  0  0
   59.2160   33.3940   48.0270 C   0  0  0  0  0  0  0  0  0  0  0  0
   57.9200   33.0400   47.6150 C   0  0  0  0  0  0  0  0  0  0  0  0
   57.4460   33.4300   46.3590 C   0  0  0  0  0  0  0  0  0  0  0  0
   58.2550   34.1850   45.5080 C   0  0  0  0  0  0  0  0  0  0  0  0
   59.5380   34.5610   45.9160 C   0  0  0  0  0  0  0  0  0  0  0  0
   60.0140   34.1790   47.1740 C   0  0  0  0  0  0  0  0  0  0  0  0
   56.1410   27.0610   45.7360 C   0  0  0  0  0  0  0  0  0  0  0  0
   55.1130   26.3510   45.9080 O   0  0  0  0  0  0  0  0  0  0  0  0
   56.0110   28.4000   45.2460 N   0  0  0  0  0  0  0  0  0  0  0  0
   56.8340   28.9470   44.1750 C   0  0  0  0  0  0  0  0  0  0  0  0
   58.2190   29.2350   44.6850 C   0  0  0  0  0  0  0  0  0  0  0  0
   58.4630   30.3450   45.5100 C   0  0  0  0  0  0  0  0  0  0  0  0
   59.7490   30.5820   46.0080 C   0  0  0  0  0  0  0  0  0  0  0  0
   60.7970   29.7100   45.6890 C   0  0  0  0  0  0  0  0  0  0  0  0
   60.5580   28.5990   44.8750 C   0  0  0  0  0  0  0  0  0  0  0  0
   59.2720   28.3590   44.3770 C   0  0  0  0  0  0  0  0  0  0  0  0
   58.6487   24.7351   45.6066 H   0  0  0  0  0  0  0  0  0  0  0  0
   56.9791   24.7942   44.8892 H   0  0  0  0  0  0  0  0  0  0  0  0
   58.2230   27.0420   45.3990 H   0  0  0  0  0  0  0  0  0  0  0  0
   60.0238   30.4477   48.5075 H   0  0  0  0  0  0  0  0  0  0  0  0
   60.0076   29.0966   51.0859 H   0  0  0  0  0  0  0  0  0  0  0  0
   60.1315   27.9051   49.7312 H   0  0  0  0  0  0  0  0  0  0  0  0
   61.0465   30.9403   50.9245 H   0  0  0  0  0  0  0  0  0  0  0  0
   62.6887   30.3259   51.2944 H   0  0  0  0  0  0  0  0  0  0  0  0
   63.4913   32.7041   50.9807 H   0  0  0  0  0  0  0  0  0  0  0  0
   64.4593   34.2865   49.3114 H   0  0  0  0  0  0  0  0  0  0  0  0
   64.0521   33.9385   46.8735 H   0  0  0  0  0  0  0  0  0  0  0  0
   62.6890   31.9967   46.0980 H   0  0  0  0  0  0  0  0  0  0  0  0
   61.7219   30.4034   47.7599 H   0  0  0  0  0  0  0  0  0  0  0  0
   59.8918   33.9116   49.9877 H   0  0  0  0  0  0  0  0  0  0  0  0
   60.6641   32.4432   49.2666 H   0  0  0  0  0  0  0  0  0  0  0  0
   57.2747   32.4526   48.2847 H   0  0  0  0  0  0  0  0  0  0  0  0
   56.4334   33.1413   46.0406 H   0  0  0  0  0  0  0  0  0  0  0  0
   57.8830   34.4839   44.5169 H   0  0  0  0  0  0  0  0  0  0  0  0
   60.1742   35.1584   45.2463 H   0  0  0  0  0  0  0  0  0  0  0  0
   61.0169   34.4935   47.4985 H   0  0  0  0  0  0  0  0  0  0  0  0
   56.8929   28.2185   43.3529 H   0  0  0  0  0  0  0  0  0  0  0  0
   56.3810   29.8821   43.8139 H   0  0  0  0  0  0  0  0  0  0  0  0
   57.6410   31.0299   45.7654 H   0  0  0  0  0  0  0  0  0  0  0  0
   59.9369   31.4545   46.6510 H   0  0  0  0  0  0  0  0  0  0  0  0
   61.8081   29.8991   46.0788 H   0  0  0  0  0  0  0  0  0  0  0  0
   61.3809   27.9130   44.6257 H   0  0  0  0  0  0  0  0  0  0  0  0
   59.0857   27.4805   43.7418 H   0  0  0  0  0  0  0  0  0  0  0  0
  1  2  2  0
  2  3  1  0
  2  4  1  0
  4  5  1  0
  5  6  1  0
  6  7  1  0
  7  8  2  0
  7  9  1  0
  9 10  1  0
 10 11  1  0
 11 12  1  0
 12 13  1  0
 13 14  1  0
 14 15  2  0
 15 16  1  0
 16 17  2  0
 17 18  1  0
 18 19  2  0
 10 20  1  0
 20 21  2  0
 21 22  1  0
 22 23  2  0
 23 24  1  0
 24 25  1  0
 25 26  1  0
 26 27  2  0
 27 28  1  0
 28 29  2  0
 29 30  1  0
 30 31  2  0
  5 32  1  0
 32 33  2  0
 32 34  1  0
 34 35  1  0
 35 36  1  0
 36 37  2  0
 37 38  1  0
 38 39  2  0
 39 40  1  0
 40 41  2  0
 19 14  1  0
 24 20  1  0
 31 26  1  0
 41 36  1  0
  4 42  1  0
  4 43  1  0
  5 44  1  6
 10 45  1  6
 11 46  1  0
 11 47  1  0
 13 48  1  0
 13 49  1  0
 15 50  1  0
 16 51  1  0
 17 52  1  0
 18 53  1  0
 19 54  1  0
 25 55  1  0
 25 56  1  0
 27 57  1  0
 28 58  1  0
 29 59  1  0
 30 60  1  0
 31 61  1  0
 35 62  1  0
 35 63  1  0
 37 64  1  0
 38 65  1  0
 39 66  1  0
 40 67  1  0
 41 68  1  0
M  CHG  4   3  -1   6  -1   9  -1  34  -1
M  END
>  <UniqueID>  (42) 
34

>  <SMILES>  (42) 
O=C([O-])C[C@H]([N-]C(=O)[N-][C@H](COCc1ccccc1)c1nnnn1Cc1ccccc1)C(=O)[N-]Cc1ccccc1

>  <Energy>  (42) 
105.21029884447118

>  <Genealogy>  (42) 
O=C([O-])CC([N-]C(=O)[N-]C(COCc1ccccc1)c1nnnn1Cc1ccccc1)C(=O)[N-]Cc1ccccc1 (protonated)
O=C([O-])C[C@H]([N-]C(=O)[N-][C@H](COCc1ccccc1)c1nnnn1Cc1ccccc1)C(=O)[N-]Cc1ccccc1 (chirality)
O=C([O-])C[C@H]([N-]C(=O)[N-][C@H](COCc1ccccc1)c1nnnn1Cc1ccccc1)C(=O)[N-]Cc1ccccc1 (3D coordinates assigned)
O=C([O-])C[C@H]([N-]C(=O)[N-][C@H](COCc1ccccc1)c1nnnn1Cc1ccccc1)C(=O)[N-]Cc1ccccc1 (optimized conformer: 105.21029884447118 kcal/mol)

>  <smiles>  (42) 
O=C(O)CC(NC(=O)NC(COCc1ccccc1)c1nnnn1Cc1ccccc1)C(=O)NCc1ccccc1

>  <score_type>  (42) 
oracle

>  <origin>  (42) 
adg

>  <m_score__min__energy>  (42) 
-17.280000000000001

>  <m_primary>  (42) 
energy

$$$$
42:0
     RDKit          3D

 61 64  0  0  0  0  0  0  0  0999 V2000
   58.5300   34.3410   53.0680 C   0  0  0  0  0  0  0  0  0  0  0  0
   58.3870   32.9260   52.5710 C   0  0  0  0  0  0  0  0  0  0  0  0
   57.4410   32.0810   53.1800 C   0  0  0  0  0  0  0  0  0  0  0  0
   57.2830   30.7640   52.7460 C   0  0  0  0  0  0  0  0  0  0  0  0
   58.0640   30.2750   51.7010 C   0  0  0  0  0  0  0  0  0  0  0  0
   59.0170   31.0930   51.0940 C   0  0  0  0  0  0  0  0  0  0  0  0
   59.2020   32.4180   51.5290 C   0  0  0  0  0  0  0  0  0  0  0  0
   60.2400   33.2730   50.8330 C   0  0  0  0  0  0  0  0  0  0  0  0
   59.7660   33.7250   49.4800 C   0  0  0  0  0  0  0  0  0  0  0  0
   59.7230   34.9560   49.2110 O   0  0  0  0  0  0  0  0  0  0  0  0
   59.2640   32.7590   48.5430 N   0  0  0  0  0  0  0  0  0  0  0  0
   58.9370   33.0720   47.1800 C   0  0  0  0  0  0  0  0  0  0  0  0
   59.6800   34.0180   46.4540 C   0  0  0  0  0  0  0  0  0  0  0  0
   59.3740   34.2750   45.1160 C   0  0  0  0  0  0  0  0  0  0  0  0
   58.3390   33.5820   44.4870 C   0  0  0  0  0  0  0  0  0  0  0  0
   57.5790   32.6430   45.1970 C   0  0  0  0  0  0  0  0  0  0  0  0
   56.5230   31.9530   44.5140 N   0  0  0  0  0  0  0  0  0  0  0  0
   56.3100   30.5350   44.4840 C   0  0  0  0  0  0  0  0  0  0  0  0
   55.1360   30.0730   44.4890 O   0  0  0  0  0  0  0  0  0  0  0  0
   57.4650   29.6110   44.3890 C   0  0  0  0  0  0  0  0  0  0  0  0
   57.4280   28.5070   43.5180 C   0  0  0  0  0  0  0  0  0  0  0  0
   58.5170   27.6360   43.4320 C   0  0  0  0  0  0  0  0  0  0  0  0
   59.6550   27.8570   44.2090 C   0  0  0  0  0  0  0  0  0  0  0  0
   59.7130   28.9520   45.0840 C   0  0  0  0  0  0  0  0  0  0  0  0
   60.9360   29.1980   45.9220 C   0  0  0  0  0  0  0  0  0  0  0  0
   60.7280   28.6690   47.2680 N   0  0  0  0  0  0  0  0  0  0  0  0
   59.4680   28.2480   47.8040 C   0  0  0  0  0  0  0  0  0  0  0  0
   59.0680   28.7580   48.8850 O   0  0  0  0  0  0  0  0  0  0  0  0
   58.6390   27.2140   47.1460 C   0  0  0  0  0  0  0  0  0  0  0  0
   59.1820   25.9560   46.8320 C   0  0  0  0  0  0  0  0  0  0  0  0
   58.3880   24.9770   46.2250 C   0  0  0  0  0  0  0  0  0  0  0  0
   57.0450   25.2400   45.9420 C   0  0  0  0  0  0  0  0  0  0  0  0
   56.4910   26.4800   46.2710 C   0  0  0  0  0  0  0  0  0  0  0  0
   55.1530   26.7370   45.9960 O   0  0  0  0  0  0  0  0  0  0  0  0
   57.2820   27.4630   46.8760 C   0  0  0  0  0  0  0  0  0  0  0  0
   58.6160   29.8250   45.1690 C   0  0  0  0  0  0  0  0  0  0  0  0
   57.9070   32.3700   46.5380 C   0  0  0  0  0  0  0  0  0  0  0  0
   58.5304   34.3450   54.1680 H   0  0  0  0  0  0  0  0  0  0  0  0
   59.4756   34.7653   52.6994 H   0  0  0  0  0  0  0  0  0  0  0  0
   57.6884   34.9459   52.6994 H   0  0  0  0  0  0  0  0  0  0  0  0
   56.8209   32.4616   54.0050 H   0  0  0  0  0  0  0  0  0  0  0  0
   56.5411   30.1114   53.2295 H   0  0  0  0  0  0  0  0  0  0  0  0
   57.9286   29.2402   51.3534 H   0  0  0  0  0  0  0  0  0  0  0  0
   59.6285   30.6990   50.2689 H   0  0  0  0  0  0  0  0  0  0  0  0
   60.4478   34.1578   51.4527 H   0  0  0  0  0  0  0  0  0  0  0  0
   61.1485   32.6683   50.6955 H   0  0  0  0  0  0  0  0  0  0  0  0
   59.0450   31.7970   48.8950 H   0  0  0  0  0  0  0  0  0  0  0  0
   60.5054   34.5579   46.9411 H   0  0  0  0  0  0  0  0  0  0  0  0
   59.9506   35.0260   44.5561 H   0  0  0  0  0  0  0  0  0  0  0  0
   58.1182   33.7741   43.4266 H   0  0  0  0  0  0  0  0  0  0  0  0
   56.5355   28.3282   42.9004 H   0  0  0  0  0  0  0  0  0  0  0  0
   58.4773   26.7738   42.7501 H   0  0  0  0  0  0  0  0  0  0  0  0
   60.5104   27.1694   44.1350 H   0  0  0  0  0  0  0  0  0  0  0  0
   61.8006   28.6969   45.4622 H   0  0  0  0  0  0  0  0  0  0  0  0
   61.1237   30.2802   45.9820 H   0  0  0  0  0  0  0  0  0  0  0  0
   60.2353   25.7405   47.0645 H   0  0  0  0  0  0  0  0  0  0  0  0
   58.8215   23.9987   45.9701 H   0  0  0  0  0  0  0  0  0  0  0  0
   56.4238   24.4707   45.4601 H   0  0  0  0  0  0  0  0  0  0  0  0
   56.8401   28.4347   47.1415 H   0  0  0  0  0  0  0  0  0  0  0  0
   58.6573   30.6855   45.8530 H   0  0  0  0  0  0  0  0  0  0  0  0
   57.3495   31.5978   47.0883 H   0  0  0  0  0  0  0  0  0  0  0  0
  1  2  1  0
  2  3  2  0
  3  4  1  0
  4  5  2  0
  5  6  1  0
  6  7  2  0
  7  8  1  0
  8  9  1  0
  9 10  2  0
  9 11  1  0
 11 12  1  0
 12 13  2  0
 13 14  1  0
 14 15  2  0
 15 16  1  0
 16 17  1  0
 17 18  1  0
 18 19  2  0
 18 20  1  0
 20 21  2  0
 21 22  1  0
 22 23  2  0
 23 24  1  0
 24 25  1  0
 25 26  1  0
 26 27  1  0
 27 28  2  0
 27 29  1  0
 29 30  2  0
 30 31  1  0
 31 32  2  0
 32 33  1  0
 33 34  1  0
 33 35  2  0
 24 36  2  0
 16 37  2  0
  7  2  1  0
 37 12  1  0
 36 20  1  0
 35 29  1  0
  1 38  1  0
  1 39  1  0
  1 40  1  0
  3 41  1  0
  4 42  1  0
  5 43  1  0
  6 44  1  0
  8 45  1  0
  8 46  1  0
 11 47  1  0
 13 48  1  0
 14 49  1  0
 15 50  1  0
 21 51  1  0
 22 52  1  0
 23 53  1  0
 25 54  1  0
 25 55  1  0
 30 56  1  0
 31 57  1  0
 32 58  1  0
 35 59  1  0
 36 60  1  0
 37 61  1  0
M  CHG  3  17  -1  26  -1  34  -1
M  END
>  <UniqueID>  (43) 
35

>  <SMILES>  (43) 
Cc1ccccc1CC(=O)Nc1cccc([N-]C(=O)c2cccc(C[N-]C(=O)c3cccc([O-])c3)c2)c1

>  <Energy>  (43) 
78.74764678190753

>  <Genealogy>  (43) 
Cc1ccccc1CC(=O)Nc1cccc([N-]C(=O)c2cccc(C[N-]C(=O)c3cccc([O-])c3)c2)c1 (protonated)
Cc1ccccc1CC(=O)Nc1cccc([N-]C(=O)c2cccc(C[N-]C(=O)c3cccc([O-])c3)c2)c1 (3D coordinates assigned)
Cc1ccccc1CC(=O)Nc1cccc([N-]C(=O)c2cccc(C[N-]C(=O)c3cccc([O-])c3)c2)c1 (optimized conformer: 78.74764678190753 kcal/mol)

>  <smiles>  (43) 
Cc1ccccc1CC(=O)Nc1cccc(NC(=O)c2cccc(CNC(=O)c3cccc(O)c3)c2)c1

>  <score_type>  (43) 
oracle

>  <origin>  (43) 
adg

>  <m_score__min__energy>  (43) 
-17.370000000000001

>  <m_primary>  (43) 
energy

$$$$
43:0
     RDKit          3D

 41 43  0  0  0  0  0  0  0  0999 V2000
   56.9560   24.7970   47.0090 C   0  0  0  0  0  0  0  0  0  0  0  0
   56.8230   26.1180   46.3290 C   0  0  0  0  0  0  0  0  0  0  0  0
   57.8680   26.9440   45.9580 C   0  0  0  0  0  0  0  0  0  0  0  0
   57.2320   28.0490   45.4400 C   0  0  0  0  0  0  0  0  0  0  0  0
   57.8380   29.1170   45.0130 N   0  0  0  0  0  0  0  0  0  0  0  0
   57.2370   30.4150   44.9270 C   0  0  0  0  0  0  0  0  0  0  0  0
   56.0250   30.5020   44.5950 O   0  0  0  0  0  0  0  0  0  0  0  0
   57.9910   31.6390   45.2770 C   0  0  0  0  0  0  0  0  0  0  0  0
   58.1420   32.6690   44.3340 C   0  0  0  0  0  0  0  0  0  0  0  0
   58.8310   33.8370   44.6680 C   0  0  0  0  0  0  0  0  0  0  0  0
   59.3550   33.9990   45.9520 C   0  0  0  0  0  0  0  0  0  0  0  0
   59.2020   32.9870   46.9090 C   0  0  0  0  0  0  0  0  0  0  0  0
   59.7890   33.2310   48.5560 S   0  0  0  0  0  0  0  0  0  0  0  0
   59.9850   34.7030   48.7930 O   0  0  0  0  0  0  0  0  0  0  0  0
   58.7420   32.7500   49.5220 O   0  0  0  0  0  0  0  0  0  0  0  0
   61.3000   32.4030   48.8690 N   0  0  0  0  0  0  0  0  0  0  0  0
   61.8840   31.7880   47.6580 C   0  0  0  0  0  0  0  0  0  0  0  0
   63.1250   32.5350   47.1530 C   0  0  0  0  0  0  0  0  0  0  0  0
   62.9660   33.9190   47.3610 O   0  0  0  0  0  0  0  0  0  0  0  0
   63.0590   34.2070   48.7440 C   0  0  0  0  0  0  0  0  0  0  0  0
   62.2450   33.2370   49.6360 C   0  0  0  0  0  0  0  0  0  0  0  0
   58.5300   31.8050   46.5660 C   0  0  0  0  0  0  0  0  0  0  0  0
   55.8960   27.8890   45.5190 N   0  0  0  0  0  0  0  0  0  0  0  0
   55.6390   26.7140   46.0720 N   0  0  0  0  0  0  0  0  0  0  0  0
   56.9413   24.9427   48.0992 H   0  0  0  0  0  0  0  0  0  0  0  0
   56.1187   24.1471   46.7146 H   0  0  0  0  0  0  0  0  0  0  0  0
   57.9060   24.3271   46.7146 H   0  0  0  0  0  0  0  0  0  0  0  0
   58.9485   26.7616   46.0539 H   0  0  0  0  0  0  0  0  0  0  0  0
   57.7151   32.5550   43.3266 H   0  0  0  0  0  0  0  0  0  0  0  0
   58.9611   34.6310   43.9179 H   0  0  0  0  0  0  0  0  0  0  0  0
   59.8897   34.9241   46.2132 H   0  0  0  0  0  0  0  0  0  0  0  0
   62.1684   30.7515   47.8922 H   0  0  0  0  0  0  0  0  0  0  0  0
   61.1241   31.8324   46.8639 H   0  0  0  0  0  0  0  0  0  0  0  0
   64.0114   32.1828   47.7009 H   0  0  0  0  0  0  0  0  0  0  0  0
   63.2530   32.3415   46.0777 H   0  0  0  0  0  0  0  0  0  0  0  0
   64.1165   34.1479   49.0411 H   0  0  0  0  0  0  0  0  0  0  0  0
   62.6378   35.2122   48.8930 H   0  0  0  0  0  0  0  0  0  0  0  0
   62.9466   32.5753   50.1651 H   0  0  0  0  0  0  0  0  0  0  0  0
   61.6529   33.8492   50.3322 H   0  0  0  0  0  0  0  0  0  0  0  0
   58.4235   31.0018   47.3100 H   0  0  0  0  0  0  0  0  0  0  0  0
   55.1560   28.5710   45.2390 H   0  0  0  0  0  0  0  0  0  0  0  0
  1  2  1  0
  2  3  2  0
  3  4  1  0
  4  5  2  3
  5  6  1  0
  6  7  2  0
  6  8  1  0
  8  9  2  0
  9 10  1  0
 10 11  2  0
 11 12  1  0
 12 13  1  0
 13 14  2  0
 13 15  2  0
 13 16  1  0
 16 17  1  0
 17 18  1  0
 18 19  1  0
 19 20  1  0
 20 21  1  0
 12 22  2  0
  4 23  1  0
 23 24  1  0
 24  2  1  0
 22  8  1  0
 21 16  1  0
  1 25  1  0
  1 26  1  0
  1 27  1  0
  3 28  1  0
  9 29  1  0
 10 30  1  0
 11 31  1  0
 17 32  1  0
 17 33  1  0
 18 34  1  0
 18 35  1  0
 20 36  1  0
 20 37  1  0
 21 38  1  0
 21 39  1  0
 22 40  1  0
 23 41  1  0
M  CHG  1  24  -1
M  END
>  <UniqueID>  (44) 
36

>  <SMILES>  (44) 
Cc1cc(=NC(=O)c2cccc(S(=O)(=O)N3CCOCC3)c2)[nH][n-]1

>  <Energy>  (44) 
89.0955282547794

>  <Genealogy>  (44) 
Cc1cc(=NC(=O)c2cccc(S(=O)(=O)N3CCOCC3)c2)[nH][n-]1 (protonated)
Cc1cc(=NC(=O)c2cccc(S(=O)(=O)N3CCOCC3)c2)[nH][n-]1 (3D coordinates assigned)
Cc1cc(=NC(=O)c2cccc(S(=O)(=O)N3CCOCC3)c2)[nH][n-]1 (nonaromatic ring conformer: 89.0955282547794 kcal/mol)

>  <smiles>  (44) 
Cc1cc(=NC(=O)c2cccc(S(=O)(=O)N3CCOCC3)c2)[nH][nH]1

>  <score_type>  (44) 
oracle

>  <origin>  (44) 
adg

>  <m_score__min__energy>  (44) 
-11.18

>  <m_primary>  (44) 
energy

$$$$
44:0
     RDKit          3D

 55 59  0  0  0  0  0  0  0  0999 V2000
   57.3040   34.3820   45.4410 N   0  0  0  0  0  0  0  0  0  0  0  0
   58.3230   33.8870   46.3060 C   0  0  0  0  0  0  0  0  0  0  0  0
   58.9770   34.7030   47.0110 O   0  0  0  0  0  0  0  0  0  0  0  0
   58.6430   32.4380   46.3570 C   0  0  0  0  0  0  0  0  0  0  0  0
   57.7560   31.5290   45.7620 C   0  0  0  0  0  0  0  0  0  0  0  0
   57.9880   30.1420   45.8190 C   0  0  0  0  0  0  0  0  0  0  0  0
   57.0850   29.2350   45.2330 C   0  0  0  0  0  0  0  0  0  0  0  0
   56.0420   29.6410   44.6520 O   0  0  0  0  0  0  0  0  0  0  0  0
   57.3280   27.9040   45.2920 N   0  0  0  0  0  0  0  0  0  0  0  0
   58.4250   27.3860   45.9020 C   0  0  0  0  0  0  0  0  0  0  0  0
   58.5880   25.8920   45.9420 C   0  0  0  0  0  0  0  0  0  0  0  0
   57.6250   25.2320   45.0010 C   0  0  0  0  0  0  0  0  0  0  0  0
   57.7700   25.1030   43.6230 C   0  0  0  0  0  0  0  0  0  0  0  0
   56.7330   24.4060   43.1020 N   0  0  0  0  0  0  0  0  0  0  0  0
   55.9400   24.0880   44.1420 C   0  0  0  0  0  0  0  0  0  0  0  0
   54.7510   23.3610   44.1050 C   0  0  0  0  0  0  0  0  0  0  0  0
   54.0800   23.1320   45.3220 C   0  0  0  0  0  0  0  0  0  0  0  0
   52.8890   22.4150   45.3320 O   0  0  0  0  0  0  0  0  0  0  0  0
   54.6100   23.6300   46.5350 C   0  0  0  0  0  0  0  0  0  0  0  0
   55.8120   24.3620   46.5400 C   0  0  0  0  0  0  0  0  0  0  0  0
   56.4530   24.5720   45.3190 C   0  0  0  0  0  0  0  0  0  0  0  0
   59.3540   28.2400   46.5240 C   0  0  0  0  0  0  0  0  0  0  0  0
   60.4510   27.6600   47.1730 O   0  0  0  0  0  0  0  0  0  0  0  0
   59.1410   29.6430   46.4760 C   0  0  0  0  0  0  0  0  0  0  0  0
   60.0430   30.5640   47.0470 C   0  0  0  0  0  0  0  0  0  0  0  0
   59.8040   31.9440   46.9970 C   0  0  0  0  0  0  0  0  0  0  0  0
   60.7910   32.8340   47.5450 N   0  0  0  0  0  0  0  0  0  0  0  0
   60.7500   33.1480   48.9810 C   0  0  0  0  0  0  0  0  0  0  0  0
   62.0180   33.8820   49.4470 C   0  0  0  0  0  0  0  0  0  0  0  0
   63.3290   33.1000   49.2540 C   0  0  0  0  0  0  0  0  0  0  0  0
   63.9530   33.3060   47.9350 N   0  0  0  0  0  0  0  0  0  0  0  0
   63.1850   32.8590   46.7520 C   0  0  0  0  0  0  0  0  0  0  0  0
   61.7640   33.4510   46.6260 C   0  0  0  0  0  0  0  0  0  0  0  0
   56.3460   34.5870   45.8010 H   0  0  0  0  0  0  0  0  0  0  0  0
   56.8634   31.9067   45.2417 H   0  0  0  0  0  0  0  0  0  0  0  0
   59.6159   25.6323   45.6487 H   0  0  0  0  0  0  0  0  0  0  0  0
   58.3840   25.5397   46.9639 H   0  0  0  0  0  0  0  0  0  0  0  0
   58.6089   25.5100   43.0394 H   0  0  0  0  0  0  0  0  0  0  0  0
   56.5860   24.1660   42.0970 H   0  0  0  0  0  0  0  0  0  0  0  0
   54.3495   22.9782   43.1551 H   0  0  0  0  0  0  0  0  0  0  0  0
   54.0794   23.4440   47.4804 H   0  0  0  0  0  0  0  0  0  0  0  0
   56.2326   24.7560   47.4769 H   0  0  0  0  0  0  0  0  0  0  0  0
   60.8730   28.0050   48.0220 H   0  0  0  0  0  0  0  0  0  0  0  0
   60.9524   30.1920   47.5416 H   0  0  0  0  0  0  0  0  0  0  0  0
   59.8767   33.7866   49.1800 H   0  0  0  0  0  0  0  0  0  0  0  0
   60.6840   32.1995   49.5342 H   0  0  0  0  0  0  0  0  0  0  0  0
   62.0952   34.8226   48.8819 H   0  0  0  0  0  0  0  0  0  0  0  0
   61.9059   34.0322   50.5309 H   0  0  0  0  0  0  0  0  0  0  0  0
   64.0413   33.4196   50.0289 H   0  0  0  0  0  0  0  0  0  0  0  0
   63.0797   32.0312   49.3282 H   0  0  0  0  0  0  0  0  0  0  0  0
   64.8900   32.8390   47.9280 H   0  0  0  0  0  0  0  0  0  0  0  0
   63.7517   33.1410   45.8524 H   0  0  0  0  0  0  0  0  0  0  0  0
   63.0532   31.7730   46.8671 H   0  0  0  0  0  0  0  0  0  0  0  0
   61.8142   34.5283   46.8428 H   0  0  0  0  0  0  0  0  0  0  0  0
   61.4172   33.2496   45.6017 H   0  0  0  0  0  0  0  0  0  0  0  0
  1  2  1  0
  2  3  2  0
  2  4  1  0
  4  5  2  0
  5  6  1  0
  6  7  1  0
  7  8  2  0
  7  9  1  0
  9 10  1  0
 10 11  1  0
 11 12  1  0
 12 13  2  0
 13 14  1  0
 14 15  1  0
 15 16  2  0
 16 17  1  0
 17 18  1  0
 17 19  2  0
 19 20  1  0
 20 21  2  0
 10 22  2  0
 22 23  1  0
 22 24  1  0
 24 25  1  0
 25 26  2  0
 26 27  1  0
 27 28  1  0
 28 29  1  0
 29 30  1  0
 30 31  1  0
 31 32  1  0
 32 33  1  0
 26  4  1  0
 33 27  1  0
 24  6  2  0
 21 12  1  0
 21 15  1  0
  1 34  1  0
  5 35  1  0
 11 36  1  0
 11 37  1  0
 13 38  1  0
 14 39  1  0
 16 40  1  0
 19 41  1  0
 20 42  1  0
 23 43  1  0
 25 44  1  0
 28 45  1  0
 28 46  1  0
 29 47  1  0
 29 48  1  0
 30 49  1  0
 30 50  1  0
 31 51  1  0
 32 52  1  0
 32 53  1  0
 33 54  1  0
 33 55  1  0
M  CHG  3   1  -1   9  -1  18  -1
M  END
>  <UniqueID>  (45) 
37

>  <SMILES>  (45) 
[NH-]C(=O)c1cc2c(=O)[n-]c(Cc3c[nH]c4cc([O-])ccc34)c(O)c2cc1N1CCCNCC1

>  <Energy>  (45) 
117.78821537947172

>  <Genealogy>  (45) 
[NH-]C(=O)c1cc2c(=O)[n-]c(Cc3c[nH]c4cc([O-])ccc34)c(O)c2cc1N1CCCNCC1 (protonated)
[NH-]C(=O)c1cc2c(=O)[n-]c(Cc3c[nH]c4cc([O-])ccc34)c(O)c2cc1N1CCCNCC1 (3D coordinates assigned)
[NH-]C(=O)c1cc2c(=O)[n-]c(Cc3c[nH]c4cc([O-])ccc34)c(O)c2cc1N1CCCNCC1 (nonaromatic ring conformer: 117.78821537947172 kcal/mol)

>  <smiles>  (45) 
NC(=O)c1cc2c(=O)[nH]c(Cc3c[nH]c4cc(O)ccc34)c(O)c2cc1N1CCCNCC1

>  <score_type>  (45) 
oracle

>  <origin>  (45) 
adg

>  <m_score__min__energy>  (45) 
-11.32

>  <m_primary>  (45) 
energy

$$$$
45:0
     RDKit          3D

 44 47  0  0  0  0  0  0  0  0999 V2000
   63.1080   32.0230   48.6780 C   0  0  0  0  0  0  0  0  0  0  0  0
   62.1570   32.6030   47.6850 C   0  0  0  0  0  0  0  0  0  0  0  0
   62.3860   33.6590   46.8270 C   0  0  0  0  0  0  0  0  0  0  0  0
   61.2980   33.8410   46.0530 N   0  0  0  0  0  0  0  0  0  0  0  0
   60.4110   32.9080   46.3730 N   0  0  0  0  0  0  0  0  0  0  0  0
   59.0470   32.8480   45.8280 C   0  0  0  0  0  0  0  0  0  0  0  0
   58.5810   31.4260   45.6130 C   0  0  0  0  0  0  0  0  0  0  0  0
   57.2920   31.0940   45.3830 N   0  0  0  0  0  0  0  0  0  0  0  0
   57.3110   29.7530   45.2910 C   0  0  0  0  0  0  0  0  0  0  0  0
   56.0910   28.9470   45.0890 C   0  0  0  0  0  0  0  0  0  0  0  0
   55.1690   29.4280   44.3770 O   0  0  0  0  0  0  0  0  0  0  0  0
   55.9180   27.6260   45.6190 N   0  0  0  0  0  0  0  0  0  0  0  0
   56.9740   26.6510   45.8650 C   0  0  0  0  0  0  0  0  0  0  0  0
   56.5940   25.3440   45.2310 C   0  0  0  0  0  0  0  0  0  0  0  0
   55.4420   24.6590   45.6540 C   0  0  0  0  0  0  0  0  0  0  0  0
   55.0720   23.4580   45.0380 C   0  0  0  0  0  0  0  0  0  0  0  0
   55.8400   22.9410   43.9920 C   0  0  0  0  0  0  0  0  0  0  0  0
   56.9790   23.6250   43.5560 C   0  0  0  0  0  0  0  0  0  0  0  0
   57.3530   24.8260   44.1680 C   0  0  0  0  0  0  0  0  0  0  0  0
   58.5970   29.3030   45.5000 C   0  0  0  0  0  0  0  0  0  0  0  0
   59.4020   30.3590   45.7060 N   0  0  0  0  0  0  0  0  0  0  0  0
   58.8510   33.7670   44.6130 C   0  0  0  0  0  0  0  0  0  0  0  0
   57.8360   34.5890   45.3960 C   0  0  0  0  0  0  0  0  0  0  0  0
   58.0410   33.7000   46.6170 C   0  0  0  0  0  0  0  0  0  0  0  0
   60.8960   32.1460   47.3740 C   0  0  0  0  0  0  0  0  0  0  0  0
   62.7525   32.2398   49.6961 H   0  0  0  0  0  0  0  0  0  0  0  0
   63.1686   30.9340   48.5349 H   0  0  0  0  0  0  0  0  0  0  0  0
   64.1039   32.4676   48.5349 H   0  0  0  0  0  0  0  0  0  0  0  0
   63.3085   34.2564   46.7820 H   0  0  0  0  0  0  0  0  0  0  0  0
   57.9171   27.0116   45.4285 H   0  0  0  0  0  0  0  0  0  0  0  0
   57.1055   26.5128   46.9483 H   0  0  0  0  0  0  0  0  0  0  0  0
   54.8297   25.0678   46.4712 H   0  0  0  0  0  0  0  0  0  0  0  0
   54.1748   22.9202   45.3782 H   0  0  0  0  0  0  0  0  0  0  0  0
   55.5487   21.9955   43.5111 H   0  0  0  0  0  0  0  0  0  0  0  0
   57.5817   23.2181   42.7307 H   0  0  0  0  0  0  0  0  0  0  0  0
   58.2440   25.3666   43.8160 H   0  0  0  0  0  0  0  0  0  0  0  0
   58.9132   28.2494   45.4984 H   0  0  0  0  0  0  0  0  0  0  0  0
   59.7530   34.3258   44.3228 H   0  0  0  0  0  0  0  0  0  0  0  0
   58.5864   33.3439   43.6327 H   0  0  0  0  0  0  0  0  0  0  0  0
   58.1327   35.6369   45.5506 H   0  0  0  0  0  0  0  0  0  0  0  0
   56.8254   34.7498   44.9925 H   0  0  0  0  0  0  0  0  0  0  0  0
   58.4753   34.2203   47.4834 H   0  0  0  0  0  0  0  0  0  0  0  0
   57.1800   33.2280   47.1128 H   0  0  0  0  0  0  0  0  0  0  0  0
   60.3754   31.3063   47.8575 H   0  0  0  0  0  0  0  0  0  0  0  0
  1  2  1  0
  2  3  1  0
  3  4  2  0
  4  5  1  0
  5  6  1  0
  6  7  1  0
  7  8  2  0
  8  9  1  0
  9 10  1  0
 10 11  2  0
 10 12  1  0
 12 13  1  0
 13 14  1  0
 14 15  2  0
 15 16  1  0
 16 17  2  0
 17 18  1  0
 18 19  2  0
  9 20  2  0
 20 21  1  0
  6 22  1  0
 22 23  1  0
 23 24  1  0
  5 25  1  0
 25  2  2  0
 24  6  1  0
 21  7  1  0
 19 14  1  0
  1 26  1  0
  1 27  1  0
  1 28  1  0
  3 29  1  0
 13 30  1  0
 13 31  1  0
 15 32  1  0
 16 33  1  0
 17 34  1  0
 18 35  1  0
 19 36  1  0
 20 37  1  0
 22 38  1  0
 22 39  1  0
 23 40  1  0
 23 41  1  0
 24 42  1  0
 24 43  1  0
 25 44  1  0
M  CHG  2  12  -1  21  -1
M  END
>  <UniqueID>  (46) 
38

>  <SMILES>  (46) 
Cc1cnn(C2(c3nc(C(=O)[N-]Cc4ccccc4)c[n-]3)CCC2)c1

>  <Energy>  (46) 
166.83600822043311

>  <Genealogy>  (46) 
Cc1cnn(C2(c3nc(C(=O)[N-]Cc4ccccc4)c[n-]3)CCC2)c1 (protonated)
Cc1cnn(C2(c3nc(C(=O)[N-]Cc4ccccc4)c[n-]3)CCC2)c1 (3D coordinates assigned)
Cc1cnn(C2(c3nc(C(=O)[N-]Cc4ccccc4)c[n-]3)CCC2)c1 (nonaromatic ring conformer: 166.83600822043311 kcal/mol)

>  <smiles>  (46) 
Cc1cnn(C2(c3nc(C(=O)NCc4ccccc4)c[nH]3)CCC2)c1

>  <score_type>  (46) 
oracle

>  <origin>  (46) 
adg

>  <m_score__min__energy>  (46) 
-11.24

>  <m_primary>  (46) 
energy

$$$$
46:0
     RDKit          3D

 39 40  0  0  0  0  0  0  0  0999 V2000
   60.3390   28.4550   45.5290 O   0  0  0  0  0  0  0  0  0  0  0  0
   59.1460   28.0490   45.5520 C   0  0  0  0  0  0  0  0  0  0  0  0
   58.7830   26.7820   44.8460 C   0  0  0  0  0  0  0  0  0  0  0  0
   57.3490   26.5240   44.9770 N   0  0  0  0  0  0  0  0  0  0  0  0
   56.8060   25.2320   45.3120 C   0  0  0  0  0  0  0  0  0  0  0  0
   57.6120   24.0810   45.2340 C   0  0  0  0  0  0  0  0  0  0  0  0
   57.0870   22.8220   45.5370 C   0  0  0  0  0  0  0  0  0  0  0  0
   55.7500   22.6940   45.9110 C   0  0  0  0  0  0  0  0  0  0  0  0
   54.9370   23.8260   45.9920 C   0  0  0  0  0  0  0  0  0  0  0  0
   55.4530   25.0960   45.7070 C   0  0  0  0  0  0  0  0  0  0  0  0
   54.6080   26.1970   45.8510 O   0  0  0  0  0  0  0  0  0  0  0  0
   58.1180   28.8210   46.1850 N   0  0  0  0  0  0  0  0  0  0  0  0
   57.5040   30.0380   45.6550 C   0  0  1  0  0  0  0  0  0  0  0  0
   58.4800   30.7960   44.7300 C   0  0  0  0  0  0  0  0  0  0  0  0
   58.7250   32.2020   45.2170 C   0  0  0  0  0  0  0  0  0  0  0  0
   58.2400   33.2990   44.4840 C   0  0  0  0  0  0  0  0  0  0  0  0
   58.4900   34.6040   44.9180 C   0  0  0  0  0  0  0  0  0  0  0  0
   59.2270   34.8250   46.0850 C   0  0  0  0  0  0  0  0  0  0  0  0
   59.7180   33.7400   46.8180 C   0  0  0  0  0  0  0  0  0  0  0  0
   59.4700   32.4330   46.3870 C   0  0  0  0  0  0  0  0  0  0  0  0
   56.1960   29.7070   44.9850 C   0  0  0  0  0  0  0  0  0  0  0  0
   55.6570   30.5470   44.2170 O   0  0  0  0  0  0  0  0  0  0  0  0
   55.5420   28.5100   45.2510 O   0  0  0  0  0  0  0  0  0  0  0  0
   59.0399   26.8734   43.7803 H   0  0  0  0  0  0  0  0  0  0  0  0
   59.3406   25.9476   45.2964 H   0  0  0  0  0  0  0  0  0  0  0  0
   56.7020   27.3350   44.8550 H   0  0  0  0  0  0  0  0  0  0  0  0
   58.6656   24.1733   44.9316 H   0  0  0  0  0  0  0  0  0  0  0  0
   57.7293   21.9308   45.4804 H   0  0  0  0  0  0  0  0  0  0  0  0
   55.3359   21.7015   46.1422 H   0  0  0  0  0  0  0  0  0  0  0  0
   53.8814   23.7192   46.2824 H   0  0  0  0  0  0  0  0  0  0  0  0
   54.7750   27.0880   45.4030 H   0  0  0  0  0  0  0  0  0  0  0  0
   57.2797   30.7222   46.4866 H   0  0  0  0  0  0  0  0  0  0  0  0
   59.4378   30.2557   44.7016 H   0  0  0  0  0  0  0  0  0  0  0  0
   58.0315   30.8517   43.7271 H   0  0  0  0  0  0  0  0  0  0  0  0
   57.6608   33.1296   43.5643 H   0  0  0  0  0  0  0  0  0  0  0  0
   58.1063   35.4580   44.3405 H   0  0  0  0  0  0  0  0  0  0  0  0
   59.4208   35.8524   46.4268 H   0  0  0  0  0  0  0  0  0  0  0  0
   60.3001   33.9149   47.7348 H   0  0  0  0  0  0  0  0  0  0  0  0
   59.8593   31.5822   46.9655 H   0  0  0  0  0  0  0  0  0  0  0  0
  1  2  2  0
  2  3  1  0
  3  4  1  0
  4  5  1  0
  5  6  2  0
  6  7  1  0
  7  8  2  0
  8  9  1  0
  9 10  2  0
 10 11  1  0
  2 12  1  0
 12 13  1  0
 13 14  1  0
 14 15  1  0
 15 16  2  0
 16 17  1  0
 17 18  2  0
 18 19  1  0
 19 20  2  0
 13 21  1  0
 21 22  2  0
 21 23  1  0
 10  5  1  0
 20 15  1  0
  3 24  1  0
  3 25  1  0
  4 26  1  0
  6 27  1  0
  7 28  1  0
  8 29  1  0
  9 30  1  0
 11 31  1  0
 13 32  1  1
 14 33  1  0
 14 34  1  0
 16 35  1  0
 17 36  1  0
 18 37  1  0
 19 38  1  0
 20 39  1  0
M  CHG  2  12  -1  23  -1
M  END
>  <UniqueID>  (47) 
39

>  <SMILES>  (47) 
O=C(CNc1ccccc1O)[N-][C@@H](Cc1ccccc1)C(=O)[O-]

>  <Energy>  (47) 
37.87698054262901

>  <Genealogy>  (47) 
O=C(CNc1ccccc1O)[N-]C(Cc1ccccc1)C(=O)[O-] (protonated)
O=C(CNc1ccccc1O)[N-][C@@H](Cc1ccccc1)C(=O)[O-] (chirality)
O=C(CNc1ccccc1O)[N-][C@@H](Cc1ccccc1)C(=O)[O-] (3D coordinates assigned)
O=C(CNc1ccccc1O)[N-][C@@H](Cc1ccccc1)C(=O)[O-] (optimized conformer: 37.87698054262901 kcal/mol)

>  <smiles>  (47) 
O=C(CNc1ccccc1O)NC(Cc1ccccc1)C(=O)O

>  <score_type>  (47) 
oracle

>  <origin>  (47) 
adg

>  <m_score__min__energy>  (47) 
-12.02

>  <m_primary>  (47) 
energy

$$$$
47:0
     RDKit          3D

 53 56  0  0  0  0  0  0  0  0999 V2000
   63.6310   31.9730   47.1250 C   0  0  0  0  0  0  0  0  0  0  0  0
   63.2940   32.5540   48.4370 N   0  0  0  0  0  0  0  0  0  0  0  0
   62.5690   33.8420   48.2650 C   0  0  0  0  0  0  0  0  0  0  0  0
   61.6110   34.1520   49.4190 C   0  0  0  0  0  0  0  0  0  0  0  0
   60.6470   33.0130   49.5440 C   0  0  0  0  0  0  0  0  0  0  0  0
   59.2790   33.2290   49.7460 C   0  0  0  0  0  0  0  0  0  0  0  0
   58.4110   32.1430   49.8500 C   0  0  0  0  0  0  0  0  0  0  0  0
   58.9040   30.8380   49.7560 C   0  0  0  0  0  0  0  0  0  0  0  0
   60.2750   30.6070   49.5450 C   0  0  0  0  0  0  0  0  0  0  0  0
   60.8040   29.2710   49.5040 N   0  0  0  0  0  0  0  0  0  0  0  0
   60.2730   28.1700   48.7550 C   0  0  0  0  0  0  0  0  0  0  0  0
   60.6850   26.9970   48.9650 O   0  0  0  0  0  0  0  0  0  0  0  0
   59.2590   28.4200   47.7720 N   0  0  0  0  0  0  0  0  0  0  0  0
   58.5470   27.3830   47.0740 C   0  0  0  0  0  0  0  0  0  0  0  0
   58.5890   26.0520   47.5290 C   0  0  0  0  0  0  0  0  0  0  0  0
   57.8830   25.0530   46.8550 C   0  0  0  0  0  0  0  0  0  0  0  0
   57.1290   25.3700   45.7250 C   0  0  0  0  0  0  0  0  0  0  0  0
   57.0640   26.6900   45.2740 C   0  0  0  0  0  0  0  0  0  0  0  0
   57.7550   27.7100   45.9570 C   0  0  0  0  0  0  0  0  0  0  0  0
   57.7250   29.0450   45.5210 O   0  0  0  0  0  0  0  0  0  0  0  0
   56.6050   29.7220   45.0220 C   0  0  0  0  0  0  0  0  0  0  0  0
   55.5070   29.1240   44.8690 O   0  0  0  0  0  0  0  0  0  0  0  0
   56.6620   31.1330   44.7880 N   0  0  0  0  0  0  0  0  0  0  0  0
   57.6480   32.0350   45.3110 C   0  0  0  0  0  0  0  0  0  0  0  0
   57.4230   33.4140   45.2010 C   0  0  0  0  0  0  0  0  0  0  0  0
   58.3620   34.3260   45.6950 C   0  0  0  0  0  0  0  0  0  0  0  0
   59.5400   33.8650   46.2870 C   0  0  0  0  0  0  0  0  0  0  0  0
   59.7860   32.4920   46.3770 C   0  0  0  0  0  0  0  0  0  0  0  0
   58.8510   31.5770   45.8830 C   0  0  0  0  0  0  0  0  0  0  0  0
   61.1520   31.7090   49.4430 C   0  0  0  0  0  0  0  0  0  0  0  0
   62.6540   31.5450   49.3260 C   0  0  0  0  0  0  0  0  0  0  0  0
   64.1780   31.0299   47.2712 H   0  0  0  0  0  0  0  0  0  0  0  0
   62.7063   31.7771   46.5623 H   0  0  0  0  0  0  0  0  0  0  0  0
   64.2602   32.6784   46.5623 H   0  0  0  0  0  0  0  0  0  0  0  0
   63.3086   34.6534   48.1966 H   0  0  0  0  0  0  0  0  0  0  0  0
   61.9637   33.7576   47.3504 H   0  0  0  0  0  0  0  0  0  0  0  0
   62.1786   34.2641   50.3546 H   0  0  0  0  0  0  0  0  0  0  0  0
   61.0694   35.0891   49.2226 H   0  0  0  0  0  0  0  0  0  0  0  0
   58.8891   34.2547   49.8226 H   0  0  0  0  0  0  0  0  0  0  0  0
   57.3356   32.3133   50.0064 H   0  0  0  0  0  0  0  0  0  0  0  0
   58.2145   29.9859   49.8478 H   0  0  0  0  0  0  0  0  0  0  0  0
   59.1030   29.4120   47.4850 H   0  0  0  0  0  0  0  0  0  0  0  0
   59.1811   25.7970   48.4203 H   0  0  0  0  0  0  0  0  0  0  0  0
   57.9216   24.0146   47.2158 H   0  0  0  0  0  0  0  0  0  0  0  0
   56.5848   24.5789   45.1883 H   0  0  0  0  0  0  0  0  0  0  0  0
   56.4702   26.9345   44.3809 H   0  0  0  0  0  0  0  0  0  0  0  0
   56.5027   33.7814   44.7235 H   0  0  0  0  0  0  0  0  0  0  0  0
   58.1724   35.4067   45.6171 H   0  0  0  0  0  0  0  0  0  0  0  0
   60.2742   34.5824   46.6824 H   0  0  0  0  0  0  0  0  0  0  0  0
   60.7172   32.1304   46.8375 H   0  0  0  0  0  0  0  0  0  0  0  0
   59.0553   30.4977   45.9412 H   0  0  0  0  0  0  0  0  0  0  0  0
   63.0936   31.6369   50.3301 H   0  0  0  0  0  0  0  0  0  0  0  0
   62.8379   30.5568   48.8791 H   0  0  0  0  0  0  0  0  0  0  0  0
  1  2  1  0
  2  3  1  0
  3  4  1  0
  4  5  1  0
  5  6  2  0
  6  7  1  0
  7  8  2  0
  8  9  1  0
  9 10  1  0
 10 11  1  0
 11 12  2  0
 11 13  1  0
 13 14  1  0
 14 15  2  0
 15 16  1  0
 16 17  2  0
 17 18  1  0
 18 19  2  0
 19 20  1  0
 20 21  1  0
 21 22  2  0
 21 23  1  0
 23 24  1  0
 24 25  2  0
 25 26  1  0
 26 27  2  0
 27 28  1  0
 28 29  2  0
  9 30  2  0
 30 31  1  0
 31  2  1  0
 30  5  1  0
 19 14  1  0
 29 24  1  0
  1 32  1  0
  1 33  1  0
  1 34  1  0
  3 35  1  0
  3 36  1  0
  4 37  1  0
  4 38  1  0
  6 39  1  0
  7 40  1  0
  8 41  1  0
 13 42  1  0
 15 43  1  0
 16 44  1  0
 17 45  1  0
 18 46  1  0
 25 47  1  0
 26 48  1  0
 27 49  1  0
 28 50  1  0
 29 51  1  0
 31 52  1  0
 31 53  1  0
M  CHG  2  10  -1  23  -1
M  END
>  <UniqueID>  (48) 
40

>  <SMILES>  (48) 
CN1CCc2cccc([N-]C(=O)Nc3ccccc3OC(=O)[N-]c3ccccc3)c2C1

>  <Energy>  (48) 
82.5216445391679

>  <Genealogy>  (48) 
CN1CCc2cccc([N-]C(=O)Nc3ccccc3OC(=O)[N-]c3ccccc3)c2C1 (protonated)
CN1CCc2cccc([N-]C(=O)Nc3ccccc3OC(=O)[N-]c3ccccc3)c2C1 (3D coordinates assigned)
CN1CCc2cccc([N-]C(=O)Nc3ccccc3OC(=O)[N-]c3ccccc3)c2C1 (nonaromatic ring conformer: 82.5216445391679 kcal/mol)

>  <smiles>  (48) 
CN1CCc2cccc(NC(=O)Nc3ccccc3OC(=O)Nc3ccccc3)c2C1

>  <score_type>  (48) 
oracle

>  <origin>  (48) 
adg

>  <m_score__min__energy>  (48) 
-12.19

>  <m_primary>  (48) 
energy

$$$$
48:0
     RDKit          3D

 37 38  0  0  0  0  0  0  0  0999 V2000
   59.0112   25.0188   48.2711 H   0  0  0  0  0  0  0  0  0  0  0  0
   58.5380   25.7720   47.6240 C   0  0  0  0  0  0  0  0  0  0  0  0
   59.2590   26.8960   47.2230 C   0  0  0  0  0  0  0  0  0  0  0  0
   60.2959   27.0341   47.5634 H   0  0  0  0  0  0  0  0  0  0  0  0
   58.6660   27.8460   46.3900 C   0  0  0  0  0  0  0  0  0  0  0  0
   59.2321   28.7405   46.0910 H   0  0  0  0  0  0  0  0  0  0  0  0
   57.3530   27.6670   45.9320 C   0  0  0  0  0  0  0  0  0  0  0  0
   56.7740   28.6540   45.0640 N   0  0  0  0  0  0  0  0  0  0  0  0
   55.8260   29.0080   45.3220 H   0  0  0  0  0  0  0  0  0  0  0  0
   57.3570   29.1270   43.9930 C   0  0  0  0  0  0  0  0  0  0  0  0
   57.0080   28.6030   42.7090 N   0  0  0  0  0  0  0  0  0  0  0  0
   56.2950   27.8460   42.6120 H   0  0  0  0  0  0  0  0  0  0  0  0
   57.4640   28.9770   41.8480 H   0  0  0  0  0  0  0  0  0  0  0  0
   58.3600   30.1580   44.0670 N   0  0  0  0  0  0  0  0  0  0  0  0
   59.1810   30.0670   43.4270 H   0  0  0  0  0  0  0  0  0  0  0  0
   58.1920   31.3880   44.8000 C   0  0  0  0  0  0  0  0  0  0  0  0
   58.2630   31.3920   46.2070 C   0  0  0  0  0  0  0  0  0  0  0  0
   58.4455   30.4507   46.7461 H   0  0  0  0  0  0  0  0  0  0  0  0
   58.1040   32.5790   46.9230 C   0  0  0  0  0  0  0  0  0  0  0  0
   58.1768   32.5720   48.0206 H   0  0  0  0  0  0  0  0  0  0  0  0
   57.8530   33.7740   46.2500 C   0  0  0  0  0  0  0  0  0  0  0  0
   57.7305   34.7088   46.8168 H   0  0  0  0  0  0  0  0  0  0  0  0
   57.7570   33.7850   44.8570 C   0  0  0  0  0  0  0  0  0  0  0  0
   57.5442   34.7282   44.3326 H   0  0  0  0  0  0  0  0  0  0  0  0
   57.9300   32.6010   44.1190 C   0  0  0  0  0  0  0  0  0  0  0  0
   57.8040   32.6420   42.6210 C   0  0  0  0  0  0  0  0  0  0  0  0
   56.7909   32.9716   42.3471 H   0  0  0  0  0  0  0  0  0  0  0  0
   58.5424   33.3463   42.2101 H   0  0  0  0  0  0  0  0  0  0  0  0
   57.9866   31.6381   42.2101 H   0  0  0  0  0  0  0  0  0  0  0  0
   56.6050   26.5530   46.3670 C   0  0  0  0  0  0  0  0  0  0  0  0
   55.2650   26.4360   45.9640 O   0  0  0  0  0  0  0  0  0  0  0  0
   54.6300   25.2080   45.6210 C   0  0  0  0  0  0  0  0  0  0  0  0
   54.3518   24.6701   46.5393 H   0  0  0  0  0  0  0  0  0  0  0  0
   53.7261   25.4153   45.0294 H   0  0  0  0  0  0  0  0  0  0  0  0
   55.3217   24.5903   45.0294 H   0  0  0  0  0  0  0  0  0  0  0  0
   57.2160   25.6000   47.2060 C   0  0  0  0  0  0  0  0  0  0  0  0
   56.6492   24.7160   47.5336 H   0  0  0  0  0  0  0  0  0  0  0  0
  1  2  1  0
  2  3  2  0
  3  4  1  0
  3  5  1  0
  5  6  1  0
  5  7  2  0
  7  8  1  0
  8  9  1  0
  8 10  2  0
 10 11  1  0
 11 12  1  0
 11 13  1  0
 10 14  1  0
 14 15  1  0
 14 16  1  0
 16 17  2  0
 17 18  1  0
 17 19  1  0
 19 20  1  0
 19 21  2  0
 21 22  1  0
 21 23  1  0
 23 24  1  0
 23 25  2  0
 25 26  1  0
 26 27  1  0
 26 28  1  0
 26 29  1  0
  7 30  1  0
 30 31  1  0
 31 32  1  0
 32 33  1  0
 32 34  1  0
 32 35  1  0
 30 36  2  0
 36 37  1  0
 36  2  1  0
 25 16  1  0
M  CHG  1   8   1
M  END
>  <UniqueID>  (49) 
41

>  <SMILES>  (49) 
COc1ccccc1/[NH+]=C(/N)Nc1ccccc1C

>  <Energy>  (49) 
46.76880964170404

>  <Genealogy>  (49) 
COc1ccccc1[NH+]=C(N)Nc1ccccc1C (protonated)
COc1ccccc1/[NH+]=C(/N)Nc1ccccc1C (cis-trans isomerization)
COc1ccccc1/[NH+]=C(/N)Nc1ccccc1C (3D coordinates assigned)
COc1ccccc1/[NH+]=C(/N)Nc1ccccc1C (optimized conformer: 46.76880964170404 kcal/mol)

>  <smiles>  (49) 
COc1ccccc1N=C(N)Nc1ccccc1C

>  <score_type>  (49) 
oracle

>  <origin>  (49) 
adg

>  <m_score__min__energy>  (49) 
-5.8099999999999996

>  <m_primary>  (49) 
energy

$$$$
49:0
     RDKit          3D

 68 71  0  0  0  0  0  0  0  0999 V2000
   59.1395   25.3390   47.3237 H   0  0  0  0  0  0  0  0  0  0  0  0
   58.5440   26.1580   46.8940 C   0  0  0  0  0  0  0  0  0  0  0  0
   57.2390   25.9520   46.5800 N   0  0  0  0  0  0  0  0  0  0  0  0
   56.4640   26.9220   46.0200 C   0  0  0  0  0  0  0  0  0  0  0  0
   55.2030   26.7000   45.7820 N   0  0  0  0  0  0  0  0  0  0  0  0
   54.6210   25.3730   45.6200 C   0  0  0  0  0  0  0  0  0  0  0  0
   54.4284   24.9338   46.6099 H   0  0  0  0  0  0  0  0  0  0  0  0
   53.6753   25.4528   45.0639 H   0  0  0  0  0  0  0  0  0  0  0  0
   55.3203   24.7313   45.0639 H   0  0  0  0  0  0  0  0  0  0  0  0
   57.0310   28.1740   45.7170 C   0  0  0  0  0  0  0  0  0  0  0  0
   56.2410   29.2560   45.0930 C   0  0  0  0  0  0  0  0  0  0  0  0
   55.1680   28.9680   44.5010 O   0  0  0  0  0  0  0  0  0  0  0  0
   56.6540   30.6250   45.1550 N   0  0  0  0  0  0  0  0  0  0  0  0
   57.7340   31.1930   44.3560 C   0  0  0  0  0  0  0  0  0  0  0  0
   58.5280   30.4429   44.2258 H   0  0  0  0  0  0  0  0  0  0  0  0
   57.3456   31.4890   43.3703 H   0  0  0  0  0  0  0  0  0  0  0  0
   58.2920   32.3960   45.0570 C   0  0  0  0  0  0  0  0  0  0  0  0
   58.3940   32.4170   46.4580 C   0  0  0  0  0  0  0  0  0  0  0  0
   58.0833   31.5388   47.0430 H   0  0  0  0  0  0  0  0  0  0  0  0
   58.8890   33.5500   47.1120 C   0  0  0  0  0  0  0  0  0  0  0  0
   58.9756   33.5580   48.2086 H   0  0  0  0  0  0  0  0  0  0  0  0
   59.2740   34.6730   46.3720 C   0  0  0  0  0  0  0  0  0  0  0  0
   59.7560   35.7700   47.0070 F   0  0  0  0  0  0  0  0  0  0  0  0
   59.1600   34.6650   44.9780 C   0  0  0  0  0  0  0  0  0  0  0  0
   59.4598   35.5496   44.3970 H   0  0  0  0  0  0  0  0  0  0  0  0
   58.6650   33.5330   44.3220 C   0  0  0  0  0  0  0  0  0  0  0  0
   58.5676   33.5335   43.2263 H   0  0  0  0  0  0  0  0  0  0  0  0
   58.3700   28.4090   46.0560 C   0  0  0  0  0  0  0  0  0  0  0  0
   58.8244   29.3863   45.8360 H   0  0  0  0  0  0  0  0  0  0  0  0
   59.1360   27.4100   46.6730 C   0  0  0  0  0  0  0  0  0  0  0  0
   60.5860   27.6640   47.0450 C   0  0  0  0  0  0  0  0  0  0  0  0
   61.0387   26.7050   47.3371 H   0  0  0  0  0  0  0  0  0  0  0  0
   61.0617   28.1128   46.1605 H   0  0  0  0  0  0  0  0  0  0  0  0
   60.7770   28.6270   48.1620 N   0  0  2  0  0  0  0  0  0  0  0  0
   61.7200   28.3920   48.5580 H   0  0  0  0  0  0  0  0  0  0  0  0
   59.8130   28.4310   49.2840 C   0  0  0  0  0  0  0  0  0  0  0  0
   59.3472   27.4402   49.1772 H   0  0  0  0  0  0  0  0  0  0  0  0
   60.3783   28.5190   50.2235 H   0  0  0  0  0  0  0  0  0  0  0  0
   58.7020   29.4950   49.3130 C   0  0  0  0  0  0  0  0  0  0  0  0
   58.1095   29.4162   48.3896 H   0  0  0  0  0  0  0  0  0  0  0  0
   58.0777   29.3132   50.2002 H   0  0  0  0  0  0  0  0  0  0  0  0
   59.2810   30.9300   49.4170 C   0  0  1  0  0  0  0  0  0  0  0  0
   58.6439   31.5663   48.7851 H   0  0  0  0  0  0  0  0  0  0  0  0
   59.1860   31.5060   50.8480 C   0  0  0  0  0  0  0  0  0  0  0  0
   58.3816   30.9873   51.3901 H   0  0  0  0  0  0  0  0  0  0  0  0
   60.1541   31.3539   51.3477 H   0  0  0  0  0  0  0  0  0  0  0  0
   58.8940   32.9620   50.8270 N   0  0  0  0  0  0  0  0  0  0  0  0
   60.0300   33.7760   50.3440 C   0  0  0  0  0  0  0  0  0  0  0  0
   60.3750   33.3655   49.3836 H   0  0  0  0  0  0  0  0  0  0  0  0
   59.6773   34.8124   50.2373 H   0  0  0  0  0  0  0  0  0  0  0  0
   61.2150   33.7830   51.3340 C   0  0  0  0  0  0  0  0  0  0  0  0
   61.9045   32.9701   51.0623 H   0  0  0  0  0  0  0  0  0  0  0  0
   61.6980   34.7688   51.2647 H   0  0  0  0  0  0  0  0  0  0  0  0
   60.7750   33.5860   52.7920 C   0  0  0  0  0  0  0  0  0  0  0  0
   60.7755   32.5109   53.0247 H   0  0  0  0  0  0  0  0  0  0  0  0
   61.4787   34.1245   53.4438 H   0  0  0  0  0  0  0  0  0  0  0  0
   59.3730   34.1460   53.0270 C   0  0  0  0  0  0  0  0  0  0  0  0
   59.0874   33.9652   54.0738 H   0  0  0  0  0  0  0  0  0  0  0  0
   59.3915   35.2232   52.8048 H   0  0  0  0  0  0  0  0  0  0  0  0
   58.3310   33.4800   52.1010 C   0  0  0  0  0  0  0  0  0  0  0  0
   57.8740   32.6394   52.6437 H   0  0  0  0  0  0  0  0  0  0  0  0
   57.6022   34.2588   51.8320 H   0  0  0  0  0  0  0  0  0  0  0  0
   60.7140   31.0250   48.8430 C   0  0  0  0  0  0  0  0  0  0  0  0
   60.8916   32.0462   48.4749 H   0  0  0  0  0  0  0  0  0  0  0  0
   61.4365   30.7823   49.6361 H   0  0  0  0  0  0  0  0  0  0  0  0
   60.8850   30.0330   47.6880 C   0  0  0  0  0  0  0  0  0  0  0  0
   60.1029   30.2190   46.9372 H   0  0  0  0  0  0  0  0  0  0  0  0
   61.8849   30.1765   47.2525 H   0  0  0  0  0  0  0  0  0  0  0  0
  1  2  1  0
  2  3  1  0
  3  4  1  0
  4  5  2  0
  5  6  1  0
  6  7  1  0
  6  8  1  0
  6  9  1  0
  4 10  1  0
 10 11  1  0
 11 12  2  0
 11 13  1  0
 13 14  1  0
 14 15  1  0
 14 16  1  0
 14 17  1  0
 17 18  2  0
 18 19  1  0
 18 20  1  0
 20 21  1  0
 20 22  2  0
 22 23  1  0
 22 24  1  0
 24 25  1  0
 24 26  2  0
 26 27  1  0
 10 28  2  0
 28 29  1  0
 28 30  1  0
 30 31  1  0
 31 32  1  0
 31 33  1  0
 31 34  1  0
 34 35  1  6
 34 36  1  0
 36 37  1  0
 36 38  1  0
 36 39  1  0
 39 40  1  0
 39 41  1  0
 39 42  1  0
 42 43  1  1
 42 44  1  0
 44 45  1  0
 44 46  1  0
 44 47  1  0
 47 48  1  0
 48 49  1  0
 48 50  1  0
 48 51  1  0
 51 52  1  0
 51 53  1  0
 51 54  1  0
 54 55  1  0
 54 56  1  0
 54 57  1  0
 57 58  1  0
 57 59  1  0
 57 60  1  0
 60 61  1  0
 60 62  1  0
 42 63  1  0
 63 64  1  0
 63 65  1  0
 63 66  1  0
 66 67  1  0
 66 68  1  0
 30  2  2  0
 66 34  1  0
 26 17  1  0
 60 47  1  0
M  CHG  3   3  -1  13  -1  34   1
M  END
>  <UniqueID>  (50) 
42

>  <SMILES>  (50) 
C/N=c1\[n-]cc(C[NH+]2CCC(CN3CCCCC3)CC2)cc1C(=O)[N-]Cc1ccc(F)cc1

>  <Energy>  (50) 
94.3185929501008

>  <Genealogy>  (50) 
CN=c1[n-]cc(C[NH+]2CCC(CN3CCCCC3)CC2)cc1C(=O)[N-]Cc1ccc(F)cc1 (protonated)
C/N=c1\[n-]cc(C[NH+]2CCC(CN3CCCCC3)CC2)cc1C(=O)[N-]Cc1ccc(F)cc1 (cis-trans isomerization)
C/N=c1\[n-]cc(C[NH+]2CCC(CN3CCCCC3)CC2)cc1C(=O)[N-]Cc1ccc(F)cc1 (3D coordinates assigned)
C/N=c1\[n-]cc(C[NH+]2CCC(CN3CCCCC3)CC2)cc1C(=O)[N-]Cc1ccc(F)cc1 (nonaromatic ring conformer: 94.3185929501008 kcal/mol)

>  <smiles>  (50) 
CN=c1[nH]cc(CN2CCC(CN3CCCCC3)CC2)cc1C(=O)NCc1ccc(F)cc1

>  <score_type>  (50) 
oracle

>  <origin>  (50) 
adg

>  <m_score__min__energy>  (50) 
-11.02

>  <m_primary>  (50) 
energy

$$$$
50:0
     RDKit          3D

 53 57  0  0  0  0  0  0  0  0999 V2000
   55.8500   30.4430   44.0720 C   0  0  0  0  0  0  0  0  0  0  0  0
   57.1800   30.6680   44.6310 N   0  0  0  0  0  0  0  0  0  0  0  0
   58.1200   29.7220   44.8580 C   0  0  0  0  0  0  0  0  0  0  0  0
   59.2460   30.2890   45.4590 C   0  0  0  0  0  0  0  0  0  0  0  0
   60.4750   29.5720   45.9790 C   0  0  0  0  0  0  0  0  0  0  0  0
   60.3600   29.3380   47.4990 C   0  0  0  0  0  0  0  0  0  0  0  0
   59.2730   28.3030   47.8290 C   0  0  0  0  0  0  0  0  0  0  0  0
   59.2760   27.1900   46.8670 N   0  0  0  0  0  0  0  0  0  0  0  0
   58.1590   26.2810   46.8480 C   0  0  0  0  0  0  0  0  0  0  0  0
   58.3080   24.9380   47.2090 C   0  0  0  0  0  0  0  0  0  0  0  0
   57.1990   24.0930   47.1450 C   0  0  0  0  0  0  0  0  0  0  0  0
   57.3300   22.8860   47.4880 O   0  0  0  0  0  0  0  0  0  0  0  0
   55.9860   24.5740   46.7220 N   0  0  0  0  0  0  0  0  0  0  0  0
   54.8420   23.6990   46.6550 C   0  0  0  0  0  0  0  0  0  0  0  0
   54.6270   22.7350   47.6540 C   0  0  0  0  0  0  0  0  0  0  0  0
   53.5180   21.8870   47.5880 C   0  0  0  0  0  0  0  0  0  0  0  0
   52.6150   21.9970   46.5250 C   0  0  0  0  0  0  0  0  0  0  0  0
   52.8220   22.9530   45.5280 C   0  0  0  0  0  0  0  0  0  0  0  0
   53.9310   23.8030   45.5900 C   0  0  0  0  0  0  0  0  0  0  0  0
   55.8710   25.8910   46.3540 C   0  0  0  0  0  0  0  0  0  0  0  0
   54.7710   26.3490   45.9400 O   0  0  0  0  0  0  0  0  0  0  0  0
   56.9460   26.7160   46.4180 N   0  0  0  0  0  0  0  0  0  0  0  0
   60.4550   26.9840   46.0150 C   0  0  0  0  0  0  0  0  0  0  0  0
   60.7690   28.2540   45.2050 C   0  0  0  0  0  0  0  0  0  0  0  0
   58.9370   31.6290   45.6250 C   0  0  0  0  0  0  0  0  0  0  0  0
   59.6540   32.6690   46.2200 C   0  0  0  0  0  0  0  0  0  0  0  0
   59.0550   33.9400   46.2670 C   0  0  0  0  0  0  0  0  0  0  0  0
   57.7640   34.1430   45.7320 C   0  0  0  0  0  0  0  0  0  0  0  0
   57.0590   33.0750   45.1480 C   0  0  0  0  0  0  0  0  0  0  0  0
   57.6790   31.8240   45.1090 C   0  0  0  0  0  0  0  0  0  0  0  0
   55.1245   30.3203   44.8897 H   0  0  0  0  0  0  0  0  0  0  0  0
   55.5619   31.3052   43.4526 H   0  0  0  0  0  0  0  0  0  0  0  0
   55.8616   29.5341   43.4526 H   0  0  0  0  0  0  0  0  0  0  0  0
   58.0127   28.6569   44.6050 H   0  0  0  0  0  0  0  0  0  0  0  0
   61.3416   30.2251   45.7986 H   0  0  0  0  0  0  0  0  0  0  0  0
   61.3264   28.9749   47.8788 H   0  0  0  0  0  0  0  0  0  0  0  0
   60.0851   30.2908   47.9750 H   0  0  0  0  0  0  0  0  0  0  0  0
   59.4546   27.9036   48.8377 H   0  0  0  0  0  0  0  0  0  0  0  0
   58.2943   28.8023   47.7749 H   0  0  0  0  0  0  0  0  0  0  0  0
   59.2845   24.5535   47.5384 H   0  0  0  0  0  0  0  0  0  0  0  0
   55.3345   22.6472   48.4917 H   0  0  0  0  0  0  0  0  0  0  0  0
   53.3551   21.1329   48.3720 H   0  0  0  0  0  0  0  0  0  0  0  0
   51.7416   21.3302   46.4744 H   0  0  0  0  0  0  0  0  0  0  0  0
   52.1115   23.0376   44.6925 H   0  0  0  0  0  0  0  0  0  0  0  0
   54.0905   24.5549   44.8031 H   0  0  0  0  0  0  0  0  0  0  0  0
   61.3196   26.7367   46.6485 H   0  0  0  0  0  0  0  0  0  0  0  0
   60.2466   26.1609   45.3157 H   0  0  0  0  0  0  0  0  0  0  0  0
   61.8350   28.2396   44.9341 H   0  0  0  0  0  0  0  0  0  0  0  0
   60.1141   28.2445   44.3213 H   0  0  0  0  0  0  0  0  0  0  0  0
   60.6567   32.4990   46.6391 H   0  0  0  0  0  0  0  0  0  0  0  0
   59.5957   34.7821   46.7236 H   0  0  0  0  0  0  0  0  0  0  0  0
   57.3068   35.1427   45.7722 H   0  0  0  0  0  0  0  0  0  0  0  0
   56.0501   33.2206   44.7346 H   0  0  0  0  0  0  0  0  0  0  0  0
  1  2  1  0
  2  3  1  0
  3  4  2  0
  4  5  1  0
  5  6  1  0
  6  7  1  0
  7  8  1  0
  8  9  1  0
  9 10  2  0
 10 11  1  0
 11 12  2  0
 11 13  1  0
 13 14  1  0
 14 15  2  0
 15 16  1  0
 16 17  2  0
 17 18  1  0
 18 19  2  0
 13 20  1  0
 20 21  2  0
 20 22  1  0
  8 23  1  0
 23 24  1  0
  4 25  1  0
 25 26  2  0
 26 27  1  0
 27 28  2  0
 28 29  1  0
 29 30  2  0
 30  2  1  0
 24  5  1  0
 30 25  1  0
 22  9  1  0
 19 14  1  0
  1 31  1  0
  1 32  1  0
  1 33  1  0
  3 34  1  0
  5 35  1  0
  6 36  1  0
  6 37  1  0
  7 38  1  0
  7 39  1  0
 10 40  1  0
 15 41  1  0
 16 42  1  0
 17 43  1  0
 18 44  1  0
 19 45  1  0
 23 46  1  0
 23 47  1  0
 24 48  1  0
 24 49  1  0
 26 50  1  0
 27 51  1  0
 28 52  1  0
 29 53  1  0
M  CHG  1  22  -1
M  END
>  <UniqueID>  (51) 
43

>  <SMILES>  (51) 
Cn1cc(C2CCN(c3cc(=O)n(-c4ccccc4)c(=O)[n-]3)CC2)c2ccccc21

>  <Energy>  (51) 
107.50556190494478

>  <Genealogy>  (51) 
Cn1cc(C2CCN(c3cc(=O)n(-c4ccccc4)c(=O)[n-]3)CC2)c2ccccc21 (protonated)
Cn1cc(C2CCN(c3cc(=O)n(-c4ccccc4)c(=O)[n-]3)CC2)c2ccccc21 (3D coordinates assigned)
Cn1cc(C2CCN(c3cc(=O)n(-c4ccccc4)c(=O)[n-]3)CC2)c2ccccc21 (nonaromatic ring conformer: 107.50556190494478 kcal/mol)

>  <smiles>  (51) 
Cn1cc(C2CCN(c3cc(=O)n(-c4ccccc4)c(=O)[nH]3)CC2)c2ccccc21

>  <score_type>  (51) 
oracle

>  <origin>  (51) 
adg

>  <m_score__min__energy>  (51) 
-11.09

>  <m_primary>  (51) 
energy

$$$$
51:0
     RDKit          3D

 59 62  0  0  0  0  0  0  0  0999 V2000
   57.2680   33.8450   45.2550 C   0  0  0  0  0  0  0  0  0  0  0  0
   57.8190   32.5560   45.7860 C   0  0  0  0  0  0  0  0  0  0  0  0
   57.3730   31.3920   45.2490 N   0  0  0  0  0  0  0  0  0  0  0  0
   57.8180   30.1860   45.6740 C   0  0  0  0  0  0  0  0  0  0  0  0
   57.2610   28.6760   44.9070 S   0  0  0  0  0  0  0  0  0  0  0  0
   58.7310   27.6630   45.2870 C   0  0  0  0  0  0  0  0  0  0  0  0
   58.4810   26.6240   46.3310 C   0  0  0  0  0  0  0  0  0  0  0  0
   59.4550   25.9870   46.8160 O   0  0  0  0  0  0  0  0  0  0  0  0
   57.1370   26.2900   46.6970 N   0  0  0  0  0  0  0  0  0  0  0  0
   56.4720   25.1140   46.2160 C   0  0  0  0  0  0  0  0  0  0  0  0
   57.1990   23.9250   46.1180 C   0  0  0  0  0  0  0  0  0  0  0  0
   56.5550   22.7190   45.7990 C   0  0  0  0  0  0  0  0  0  0  0  0
   57.4690   21.2130   45.7830 S   0  0  0  0  0  0  0  0  0  0  0  0
   57.0220   20.3740   44.6180 O   0  0  0  0  0  0  0  0  0  0  0  0
   58.9300   21.5170   45.6030 O   0  0  0  0  0  0  0  0  0  0  0  0
   57.2600   20.3080   47.2620 N   0  0  0  0  0  0  0  0  0  0  0  0
   58.4740   19.5370   47.5830 C   0  0  0  0  0  0  0  0  0  0  0  0
   58.3660   18.9010   48.9810 C   0  0  0  0  0  0  0  0  0  0  0  0
   57.0430   18.9850   49.4810 O   0  0  0  0  0  0  0  0  0  0  0  0
   56.6820   20.3460   49.6600 C   0  0  0  0  0  0  0  0  0  0  0  0
   56.9070   21.1920   48.3820 C   0  0  0  0  0  0  0  0  0  0  0  0
   55.1790   22.7200   45.5280 C   0  0  0  0  0  0  0  0  0  0  0  0
   54.4570   23.9140   45.5710 C   0  0  0  0  0  0  0  0  0  0  0  0
   55.0980   25.1120   45.9120 C   0  0  0  0  0  0  0  0  0  0  0  0
   54.3670   26.2940   45.9350 O   0  0  0  0  0  0  0  0  0  0  0  0
   58.7130   30.1200   46.6840 N   0  0  0  0  0  0  0  0  0  0  0  0
   59.1710   31.2440   47.2930 C   0  0  0  0  0  0  0  0  0  0  0  0
   59.9640   31.1320   48.2660 O   0  0  0  0  0  0  0  0  0  0  0  0
   58.7370   32.5160   46.8610 C   0  0  0  0  0  0  0  0  0  0  0  0
   59.2320   33.7790   47.5600 C   0  0  0  0  0  0  0  0  0  0  0  0
   60.7420   33.8390   47.6300 C   0  0  0  0  0  0  0  0  0  0  0  0
   61.3980   33.8750   48.8740 C   0  0  0  0  0  0  0  0  0  0  0  0
   62.7970   33.8980   48.9350 C   0  0  0  0  0  0  0  0  0  0  0  0
   63.5570   33.8710   47.7590 C   0  0  0  0  0  0  0  0  0  0  0  0
   62.9190   33.8260   46.5200 C   0  0  0  0  0  0  0  0  0  0  0  0
   61.5160   33.8130   46.4530 C   0  0  0  0  0  0  0  0  0  0  0  0
   56.9888   34.4981   46.0950 H   0  0  0  0  0  0  0  0  0  0  0  0
   58.0313   34.3444   44.6402 H   0  0  0  0  0  0  0  0  0  0  0  0
   56.3796   33.6384   44.6402 H   0  0  0  0  0  0  0  0  0  0  0  0
   59.0556   27.1595   44.3645 H   0  0  0  0  0  0  0  0  0  0  0  0
   59.5006   28.3424   45.6823 H   0  0  0  0  0  0  0  0  0  0  0  0
   58.2851   23.9339   46.2922 H   0  0  0  0  0  0  0  0  0  0  0  0
   58.6042   18.7416   46.8344 H   0  0  0  0  0  0  0  0  0  0  0  0
   59.3370   20.2189   47.5724 H   0  0  0  0  0  0  0  0  0  0  0  0
   58.6591   17.8427   48.9174 H   0  0  0  0  0  0  0  0  0  0  0  0
   59.0323   19.4474   49.6648 H   0  0  0  0  0  0  0  0  0  0  0  0
   55.6176   20.3957   49.9332 H   0  0  0  0  0  0  0  0  0  0  0  0
   57.3225   20.7604   50.4524 H   0  0  0  0  0  0  0  0  0  0  0  0
   55.9851   21.7406   48.1390 H   0  0  0  0  0  0  0  0  0  0  0  0
   57.7253   21.9063   48.5558 H   0  0  0  0  0  0  0  0  0  0  0  0
   54.6676   21.7780   45.2810 H   0  0  0  0  0  0  0  0  0  0  0  0
   53.3823   23.9141   45.3366 H   0  0  0  0  0  0  0  0  0  0  0  0
   58.8679   34.6565   47.0056 H   0  0  0  0  0  0  0  0  0  0  0  0
   58.8464   33.7680   48.5901 H   0  0  0  0  0  0  0  0  0  0  0  0
   60.8093   33.8851   49.8032 H   0  0  0  0  0  0  0  0  0  0  0  0
   63.3015   33.9375   49.9117 H   0  0  0  0  0  0  0  0  0  0  0  0
   64.6556   33.8853   47.8127 H   0  0  0  0  0  0  0  0  0  0  0  0
   63.5142   33.8007   45.5953 H   0  0  0  0  0  0  0  0  0  0  0  0
   61.0172   33.7823   45.4731 H   0  0  0  0  0  0  0  0  0  0  0  0
  1  2  1  0
  2  3  1  0
  3  4  1  0
  4  5  1  0
  5  6  1  0
  6  7  1  0
  7  8  2  0
  7  9  1  0
  9 10  1  0
 10 11  2  0
 11 12  1  0
 12 13  1  0
 13 14  2  0
 13 15  2  0
 13 16  1  0
 16 17  1  0
 17 18  1  0
 18 19  1  0
 19 20  1  0
 20 21  1  0
 12 22  2  0
 22 23  1  0
 23 24  2  0
 24 25  1  0
  4 26  2  0
 26 27  1  0
 27 28  2  0
 27 29  1  0
 29 30  1  0
 30 31  1  0
 31 32  2  0
 32 33  1  0
 33 34  2  0
 34 35  1  0
 35 36  2  0
 29  2  2  0
 36 31  1  0
 24 10  1  0
 21 16  1  0
  1 37  1  0
  1 38  1  0
  1 39  1  0
  6 40  1  0
  6 41  1  0
 11 42  1  0
 17 43  1  0
 17 44  1  0
 18 45  1  0
 18 46  1  0
 20 47  1  0
 20 48  1  0
 21 49  1  0
 21 50  1  0
 22 51  1  0
 23 52  1  0
 30 53  1  0
 30 54  1  0
 32 55  1  0
 33 56  1  0
 34 57  1  0
 35 58  1  0
 36 59  1  0
M  CHG  3   3  -1   9  -1  25  -1
M  END
>  <UniqueID>  (52) 
44

>  <SMILES>  (52) 
Cc1[n-]c(SCC(=O)[N-]c2cc(S(=O)(=O)N3CCOCC3)ccc2[O-])nc(=O)c1Cc1ccccc1

>  <Energy>  (52) 
76.75051979675517

>  <Genealogy>  (52) 
Cc1[n-]c(SCC(=O)[N-]c2cc(S(=O)(=O)N3CCOCC3)ccc2[O-])nc(=O)c1Cc1ccccc1 (protonated)
Cc1[n-]c(SCC(=O)[N-]c2cc(S(=O)(=O)N3CCOCC3)ccc2[O-])nc(=O)c1Cc1ccccc1 (3D coordinates assigned)
Cc1[n-]c(SCC(=O)[N-]c2cc(S(=O)(=O)N3CCOCC3)ccc2[O-])nc(=O)c1Cc1ccccc1 (nonaromatic ring conformer: 76.75051979675517 kcal/mol)

>  <smiles>  (52) 
Cc1[nH]c(SCC(=O)Nc2cc(S(=O)(=O)N3CCOCC3)ccc2O)nc(=O)c1Cc1ccccc1

>  <score_type>  (52) 
oracle

>  <origin>  (52) 
adg

>  <m_score__min__energy>  (52) 
-18.129999999999999

>  <m_primary>  (52) 
energy

$$$$
52:0
     RDKit          3D

 50 53  0  0  0  0  0  0  0  0999 V2000
   60.7790   29.0760   46.3020 O   0  0  0  0  0  0  0  0  0  0  0  0
   59.8960   29.4860   47.1070 C   0  0  0  0  0  0  0  0  0  0  0  0
   60.1920   29.5110   48.5750 C   0  0  0  0  0  0  0  0  0  0  0  0
   61.3620   30.4120   48.8510 C   0  0  0  0  0  0  0  0  0  0  0  0
   62.0000   30.3830   50.1040 C   0  0  0  0  0  0  0  0  0  0  0  0
   63.1090   31.1980   50.3480 C   0  0  0  0  0  0  0  0  0  0  0  0
   63.5970   32.0470   49.3440 C   0  0  0  0  0  0  0  0  0  0  0  0
   64.9970   33.0570   49.6870 Cl  0  0  0  0  0  0  0  0  0  0  0  0
   62.9690   32.0750   48.0850 C   0  0  0  0  0  0  0  0  0  0  0  0
   63.5490   33.1220   46.7940 Cl  0  0  0  0  0  0  0  0  0  0  0  0
   61.8610   31.2540   47.8410 C   0  0  0  0  0  0  0  0  0  0  0  0
   58.6010   29.8750   46.6250 N   0  0  0  0  0  0  0  0  0  0  0  0
   58.2510   29.8210   45.2000 C   0  0  1  0  0  0  0  0  0  0  0  0
   56.7480   29.6370   44.9850 C   0  0  0  0  0  0  0  0  0  0  0  0
   56.3290   30.7480   44.0360 C   0  0  0  0  0  0  0  0  0  0  0  0
   57.3660   31.7860   44.0660 N   0  0  0  0  0  0  0  0  0  0  0  0
   57.0010   32.9860   44.8640 C   0  0  0  0  0  0  0  0  0  0  0  0
   58.0200   33.3800   45.9170 C   0  0  0  0  0  0  0  0  0  0  0  0
   59.0580   34.2720   45.5940 C   0  0  0  0  0  0  0  0  0  0  0  0
   60.0160   34.6250   46.5470 C   0  0  0  0  0  0  0  0  0  0  0  0
   59.9540   34.0890   47.8400 C   0  0  0  0  0  0  0  0  0  0  0  0
   60.9330   34.4070   48.7940 C   0  0  0  0  0  0  0  0  0  0  0  0
   60.8590   33.8670   50.0830 C   0  0  0  0  0  0  0  0  0  0  0  0
   61.8070   34.1780   51.0020 F   0  0  0  0  0  0  0  0  0  0  0  0
   59.8090   33.0120   50.4260 C   0  0  0  0  0  0  0  0  0  0  0  0
   58.8280   32.6890   49.4850 C   0  0  0  0  0  0  0  0  0  0  0  0
   58.8930   33.2190   48.1870 C   0  0  0  0  0  0  0  0  0  0  0  0
   57.9230   32.8870   47.2280 C   0  0  0  0  0  0  0  0  0  0  0  0
   58.6110   31.1300   44.4880 C   0  0  0  0  0  0  0  0  0  0  0  0
   59.3104   29.8831   49.1175 H   0  0  0  0  0  0  0  0  0  0  0  0
   60.4356   28.4921   48.9103 H   0  0  0  0  0  0  0  0  0  0  0  0
   61.6249   29.7166   50.8947 H   0  0  0  0  0  0  0  0  0  0  0  0
   63.6010   31.1734   51.3315 H   0  0  0  0  0  0  0  0  0  0  0  0
   61.3778   31.2678   46.8529 H   0  0  0  0  0  0  0  0  0  0  0  0
   57.8870   30.1590   47.3340 H   0  0  0  0  0  0  0  0  0  0  0  0
   58.8153   28.9679   44.7953 H   0  0  0  0  0  0  0  0  0  0  0  0
   56.5421   28.6531   44.5383 H   0  0  0  0  0  0  0  0  0  0  0  0
   56.1936   29.6831   45.9339 H   0  0  0  0  0  0  0  0  0  0  0  0
   56.2294   30.3494   43.0156 H   0  0  0  0  0  0  0  0  0  0  0  0
   55.3597   31.1675   44.3435 H   0  0  0  0  0  0  0  0  0  0  0  0
   56.8774   33.8327   44.1728 H   0  0  0  0  0  0  0  0  0  0  0  0
   56.0776   32.7310   45.4047 H   0  0  0  0  0  0  0  0  0  0  0  0
   59.1160   34.6960   44.5806 H   0  0  0  0  0  0  0  0  0  0  0  0
   60.8214   35.3257   46.2817 H   0  0  0  0  0  0  0  0  0  0  0  0
   61.7599   35.0819   48.5281 H   0  0  0  0  0  0  0  0  0  0  0  0
   59.7542   32.5913   51.4409 H   0  0  0  0  0  0  0  0  0  0  0  0
   58.0022   32.0173   49.7623 H   0  0  0  0  0  0  0  0  0  0  0  0
   57.0810   32.2360   47.5057 H   0  0  0  0  0  0  0  0  0  0  0  0
   59.2344   30.9148   43.6076 H   0  0  0  0  0  0  0  0  0  0  0  0
   59.1731   31.7875   45.1674 H   0  0  0  0  0  0  0  0  0  0  0  0
  1  2  2  0
  2  3  1  0
  3  4  1  0
  4  5  2  0
  5  6  1  0
  6  7  2  0
  7  8  1  0
  7  9  1  0
  9 10  1  0
  9 11  2  0
  2 12  1  0
 12 13  1  0
 13 14  1  0
 14 15  1  0
 15 16  1  0
 16 17  1  0
 17 18  1  0
 18 19  2  0
 19 20  1  0
 20 21  2  0
 21 22  1  0
 22 23  2  0
 23 24  1  0
 23 25  1  0
 25 26  2  0
 26 27  1  0
 27 28  2  0
 16 29  1  0
 11  4  1  0
 29 13  1  0
 28 18  1  0
 27 21  1  0
  3 30  1  0
  3 31  1  0
  5 32  1  0
  6 33  1  0
 11 34  1  0
 12 35  1  0
 13 36  1  6
 14 37  1  0
 14 38  1  0
 15 39  1  0
 15 40  1  0
 17 41  1  0
 17 42  1  0
 19 43  1  0
 20 44  1  0
 22 45  1  0
 25 46  1  0
 26 47  1  0
 28 48  1  0
 29 49  1  0
 29 50  1  0
M  END
>  <UniqueID>  (53) 
45

>  <SMILES>  (53) 
O=C(Cc1ccc(Cl)c(Cl)c1)N[C@H]1CCN(Cc2ccc3cc(F)ccc3c2)C1

>  <Energy>  (53) 
57.431559070607406

>  <Genealogy>  (53) 
O=C(Cc1ccc(Cl)c(Cl)c1)N[C@H]1CCN(Cc2ccc3cc(F)ccc3c2)C1 (chirality)
O=C(Cc1ccc(Cl)c(Cl)c1)N[C@H]1CCN(Cc2ccc3cc(F)ccc3c2)C1 (3D coordinates assigned)
O=C(Cc1ccc(Cl)c(Cl)c1)N[C@H]1CCN(Cc2ccc3cc(F)ccc3c2)C1 (nonaromatic ring conformer: 57.431559070607406 kcal/mol)

>  <smiles>  (53) 
O=C(Cc1ccc(Cl)c(Cl)c1)NC1CCN(Cc2ccc3cc(F)ccc3c2)C1

>  <score_type>  (53) 
oracle

>  <origin>  (53) 
adg

>  <m_score__min__energy>  (53) 
-8.9399999999999995

>  <m_primary>  (53) 
energy

$$$$
53:0
     RDKit          3D

 37 39  0  0  0  0  0  0  0  0999 V2000
   64.7625   33.7995   47.9947 H   0  0  0  0  0  0  0  0  0  0  0  0
   63.7170   33.4620   47.9400 C   0  0  0  0  0  0  0  0  0  0  0  0
   63.3890   32.3150   47.2110 C   0  0  0  0  0  0  0  0  0  0  0  0
   64.1763   31.7558   46.6842 H   0  0  0  0  0  0  0  0  0  0  0  0
   62.0620   31.8770   47.1500 C   0  0  0  0  0  0  0  0  0  0  0  0
   61.8079   30.9807   46.5651 H   0  0  0  0  0  0  0  0  0  0  0  0
   61.0550   32.5740   47.8300 C   0  0  0  0  0  0  0  0  0  0  0  0
   59.7330   32.1070   47.7460 O   0  0  0  0  0  0  0  0  0  0  0  0
   58.9690   32.0740   46.5710 C   0  0  0  0  0  0  0  0  0  0  0  0
   58.8720   33.2310   45.7880 C   0  0  0  0  0  0  0  0  0  0  0  0
   59.4121   34.1417   46.0861 H   0  0  0  0  0  0  0  0  0  0  0  0
   58.0910   33.2320   44.6290 C   0  0  0  0  0  0  0  0  0  0  0  0
   58.0155   34.1445   44.0193 H   0  0  0  0  0  0  0  0  0  0  0  0
   57.4050   32.0760   44.2420 C   0  0  0  0  0  0  0  0  0  0  0  0
   56.7746   32.0878   43.3406 H   0  0  0  0  0  0  0  0  0  0  0  0
   57.5190   30.9030   45.0000 C   0  0  0  0  0  0  0  0  0  0  0  0
   56.6180   29.4530   44.5690 S   0  0  0  0  0  0  0  0  0  0  0  0
   57.1210   28.9000   43.2640 O   0  0  0  0  0  0  0  0  0  0  0  0
   55.1590   29.7780   44.4110 O   0  0  0  0  0  0  0  0  0  0  0  0
   56.7920   28.2760   45.8340 N   0  0  0  0  0  0  0  0  0  0  0  0
   56.5320   27.0140   45.6870 C   0  0  0  0  0  0  0  0  0  0  0  0
   55.5000   26.3760   46.2820 N   0  0  0  0  0  0  0  0  0  0  0  0
   55.4220   25.0900   45.9480 N   0  0  0  0  0  0  0  0  0  0  0  0
   56.3920   24.7070   45.0900 C   0  0  0  0  0  0  0  0  0  0  0  0
   56.5270   23.0860   44.4430 S   0  0  0  0  0  0  0  0  0  0  0  0
   57.9700   22.7730   44.1640 O   0  0  0  0  0  0  0  0  0  0  0  0
   55.9910   22.1040   45.4460 O   0  0  0  0  0  0  0  0  0  0  0  0
   55.6040   22.9640   42.9870 N   0  0  0  0  0  0  0  0  0  0  0  0
   54.8380   23.6720   43.0490 H   0  0  0  0  0  0  0  0  0  0  0  0
   56.2280   23.2630   42.2040 H   0  0  0  0  0  0  0  0  0  0  0  0
   57.4220   25.9830   44.6990 S   0  0  0  0  0  0  0  0  0  0  0  0
   58.3220   30.9010   46.1480 C   0  0  0  0  0  0  0  0  0  0  0  0
   58.4471   29.9720   46.7237 H   0  0  0  0  0  0  0  0  0  0  0  0
   61.3880   33.7430   48.5430 C   0  0  0  0  0  0  0  0  0  0  0  0
   60.6011   34.3143   49.0572 H   0  0  0  0  0  0  0  0  0  0  0  0
   62.7150   34.1790   48.5990 C   0  0  0  0  0  0  0  0  0  0  0  0
   62.9708   35.0882   49.1629 H   0  0  0  0  0  0  0  0  0  0  0  0
  1  2  1  0
  2  3  2  0
  3  4  1  0
  3  5  1  0
  5  6  1  0
  5  7  2  0
  7  8  1  0
  8  9  1  0
  9 10  2  0
 10 11  1  0
 10 12  1  0
 12 13  1  0
 12 14  2  0
 14 15  1  0
 14 16  1  0
 16 17  1  0
 17 18  2  0
 17 19  2  0
 17 20  1  0
 20 21  2  0
 21 22  1  0
 22 23  1  0
 23 24  2  0
 24 25  1  0
 25 26  2  0
 25 27  2  0
 25 28  1  0
 28 29  1  0
 28 30  1  0
 24 31  1  0
 16 32  2  0
 32 33  1  0
  7 34  1  0
 34 35  1  0
 34 36  2  0
 36 37  1  0
 36  2  1  0
 32  9  1  0
 31 21  1  0
M  CHG  1  22  -1
M  END
>  <UniqueID>  (54) 
46

>  <SMILES>  (54) 
NS(=O)(=O)c1n[n-]/c(=N\S(=O)(=O)c2cccc(Oc3ccccc3)c2)s1

>  <Energy>  (54) 
79.82481794709025

>  <Genealogy>  (54) 
NS(=O)(=O)c1n[n-]c(=NS(=O)(=O)c2cccc(Oc3ccccc3)c2)s1 (protonated)
NS(=O)(=O)c1n[n-]/c(=N\S(=O)(=O)c2cccc(Oc3ccccc3)c2)s1 (cis-trans isomerization)
NS(=O)(=O)c1n[n-]/c(=N\S(=O)(=O)c2cccc(Oc3ccccc3)c2)s1 (3D coordinates assigned)
NS(=O)(=O)c1n[n-]/c(=N\S(=O)(=O)c2cccc(Oc3ccccc3)c2)s1 (optimized conformer: 79.82481794709025 kcal/mol)

>  <smiles>  (54) 
NS(=O)(=O)c1n[nH]c(=NS(=O)(=O)c2cccc(Oc3ccccc3)c2)s1

>  <score_type>  (54) 
oracle

>  <origin>  (54) 
adg

>  <m_score__min__energy>  (54) 
-11.359999999999999

>  <m_primary>  (54) 
energy

$$$$
54:0
     RDKit          3D

 32 34  0  0  0  0  0  0  0  0999 V2000
   60.3000   21.8350   45.5970 N   0  0  0  0  0  0  0  0  0  0  0  0
   58.6030   22.1410   45.4760 S   0  0  0  0  0  0  0  0  0  0  0  0
   57.8280   20.8880   45.7690 O   0  0  0  0  0  0  0  0  0  0  0  0
   58.2870   22.5880   44.0760 O   0  0  0  0  0  0  0  0  0  0  0  0
   58.1420   23.3980   46.5780 N   0  0  0  0  0  0  0  0  0  0  0  0
   58.0680   24.7990   46.2740 C   0  0  0  0  0  0  0  0  0  0  0  0
   56.8480   25.4940   46.2220 C   0  0  0  0  0  0  0  0  0  0  0  0
   56.8250   26.8580   45.9210 C   0  0  0  0  0  0  0  0  0  0  0  0
   58.0190   27.5570   45.6700 C   0  0  0  0  0  0  0  0  0  0  0  0
   57.9890   29.0060   45.3470 C   0  0  0  0  0  0  0  0  0  0  0  0
   57.5190   29.4880   44.1160 C   0  0  0  0  0  0  0  0  0  0  0  0
   57.4560   30.8540   43.7540 C   0  0  0  0  0  0  0  0  0  0  0  0
   57.0080   31.1160   42.6040 O   0  0  0  0  0  0  0  0  0  0  0  0
   57.8650   31.9330   44.5940 C   0  0  0  0  0  0  0  0  0  0  0  0
   57.7620   33.2660   44.1440 C   0  0  0  0  0  0  0  0  0  0  0  0
   58.1650   34.3250   44.9620 C   0  0  0  0  0  0  0  0  0  0  0  0
   58.6720   34.0570   46.2310 C   0  0  0  0  0  0  0  0  0  0  0  0
   58.7720   32.7750   46.6660 N   0  0  0  0  0  0  0  0  0  0  0  0
   58.3870   31.7280   45.8900 C   0  0  0  0  0  0  0  0  0  0  0  0
   58.5260   30.1540   46.4680 S   0  0  0  0  0  0  0  0  0  0  0  0
   59.2370   26.8540   45.7160 C   0  0  0  0  0  0  0  0  0  0  0  0
   59.2570   25.4890   46.0160 C   0  0  0  0  0  0  0  0  0  0  0  0
   60.7630   22.3000   44.7840 H   0  0  0  0  0  0  0  0  0  0  0  0
   60.4330   20.8070   45.4690 H   0  0  0  0  0  0  0  0  0  0  0  0
   55.9060   24.9613   46.4193 H   0  0  0  0  0  0  0  0  0  0  0  0
   55.8633   27.3905   45.8799 H   0  0  0  0  0  0  0  0  0  0  0  0
   57.1740   28.7490   43.3778 H   0  0  0  0  0  0  0  0  0  0  0  0
   57.3611   33.4736   43.1409 H   0  0  0  0  0  0  0  0  0  0  0  0
   58.0823   35.3626   44.6061 H   0  0  0  0  0  0  0  0  0  0  0  0
   58.9916   34.8846   46.8813 H   0  0  0  0  0  0  0  0  0  0  0  0
   60.1804   27.3826   45.5144 H   0  0  0  0  0  0  0  0  0  0  0  0
   60.2167   24.9524   46.0495 H   0  0  0  0  0  0  0  0  0  0  0  0
  1  2  1  0
  2  3  2  0
  2  4  2  0
  2  5  1  0
  5  6  1  0
  6  7  2  0
  7  8  1  0
  8  9  2  0
  9 10  1  0
 10 11  2  0
 11 12  1  0
 12 13  2  0
 12 14  1  0
 14 15  2  0
 15 16  1  0
 16 17  2  0
 17 18  1  0
 18 19  2  0
 19 20  1  0
  9 21  1  0
 21 22  2  0
 22  6  1  0
 20 10  1  0
 19 14  1  0
  1 23  1  0
  1 24  1  0
  7 25  1  0
  8 26  1  0
 11 27  1  0
 15 28  1  0
 16 29  1  0
 17 30  1  0
 21 31  1  0
 22 32  1  0
M  CHG  1   5  -1
M  END
>  <UniqueID>  (55) 
47

>  <SMILES>  (55) 
NS(=O)(=O)[N-]c1ccc(-c2cc(=O)c3cccnc3s2)cc1

>  <Energy>  (55) 
46.99555041096986

>  <Genealogy>  (55) 
NS(=O)(=O)[N-]c1ccc(-c2cc(=O)c3cccnc3s2)cc1 (protonated)
NS(=O)(=O)[N-]c1ccc(-c2cc(=O)c3cccnc3s2)cc1 (3D coordinates assigned)
NS(=O)(=O)[N-]c1ccc(-c2cc(=O)c3cccnc3s2)cc1 (optimized conformer: 46.99555041096986 kcal/mol)

>  <smiles>  (55) 
NS(=O)(=O)Nc1ccc(-c2cc(=O)c3cccnc3s2)cc1

>  <score_type>  (55) 
oracle

>  <origin>  (55) 
adg

>  <m_score__min__energy>  (55) 
-9.4299999999999997

>  <m_primary>  (55) 
energy

$$$$
55:0
     RDKit          3D

 39 41  0  0  0  0  0  0  0  0999 V2000
   55.4590   29.0890   45.0650 O   0  0  0  0  0  0  0  0  0  0  0  0
   56.7160   29.0130   45.0310 C   0  0  0  0  0  0  0  0  0  0  0  0
   57.4460   30.0220   44.3190 N   0  0  0  0  0  0  0  0  0  0  0  0
   57.7580   31.3480   44.7780 C   0  0  0  0  0  0  0  0  0  0  0  0
   57.7170   32.4040   43.8610 C   0  0  0  0  0  0  0  0  0  0  0  0
   57.9840   33.7100   44.2770 C   0  0  0  0  0  0  0  0  0  0  0  0
   58.2890   33.9720   45.6150 C   0  0  0  0  0  0  0  0  0  0  0  0
   58.3220   32.9330   46.5520 C   0  0  0  0  0  0  0  0  0  0  0  0
   58.6380   33.2470   47.8840 O   0  0  0  0  0  0  0  0  0  0  0  0
   59.5740   34.2470   48.2950 C   0  0  0  0  0  0  0  0  0  0  0  0
   60.9910   33.8230   48.0070 C   0  0  0  0  0  0  0  0  0  0  0  0
   61.7690   33.2260   49.0130 C   0  0  0  0  0  0  0  0  0  0  0  0
   63.0830   32.8310   48.7450 C   0  0  0  0  0  0  0  0  0  0  0  0
   63.6220   33.0110   47.4680 C   0  0  0  0  0  0  0  0  0  0  0  0
   62.8470   33.5850   46.4570 C   0  0  0  0  0  0  0  0  0  0  0  0
   61.5340   33.9850   46.7220 C   0  0  0  0  0  0  0  0  0  0  0  0
   58.0380   31.6200   46.1290 C   0  0  0  0  0  0  0  0  0  0  0  0
   57.3910   27.8390   45.6190 C   0  0  0  0  0  0  0  0  0  0  0  0
   58.7520   27.8490   45.6970 N   0  0  0  0  0  0  0  0  0  0  0  0
   59.4560   26.8090   46.2150 C   0  0  0  0  0  0  0  0  0  0  0  0
   58.7890   25.6780   46.6820 C   0  0  0  0  0  0  0  0  0  0  0  0
   57.3970   25.6360   46.6240 C   0  0  0  0  0  0  0  0  0  0  0  0
   56.6790   26.7190   46.1090 C   0  0  0  0  0  0  0  0  0  0  0  0
   55.2840   26.6650   46.1330 O   0  0  0  0  0  0  0  0  0  0  0  0
   57.4732   32.2044   42.8071 H   0  0  0  0  0  0  0  0  0  0  0  0
   57.9541   34.5345   43.5495 H   0  0  0  0  0  0  0  0  0  0  0  0
   58.5047   35.0023   45.9343 H   0  0  0  0  0  0  0  0  0  0  0  0
   59.3622   35.1803   47.7528 H   0  0  0  0  0  0  0  0  0  0  0  0
   59.4698   34.3946   49.3801 H   0  0  0  0  0  0  0  0  0  0  0  0
   61.3429   33.0688   50.0149 H   0  0  0  0  0  0  0  0  0  0  0  0
   63.6934   32.3780   49.5401 H   0  0  0  0  0  0  0  0  0  0  0  0
   64.6564   32.7007   47.2589 H   0  0  0  0  0  0  0  0  0  0  0  0
   63.2706   33.7223   45.4512 H   0  0  0  0  0  0  0  0  0  0  0  0
   60.9239   34.4282   45.9212 H   0  0  0  0  0  0  0  0  0  0  0  0
   58.0352   30.7998   46.8620 H   0  0  0  0  0  0  0  0  0  0  0  0
   60.5537   26.8597   46.2659 H   0  0  0  0  0  0  0  0  0  0  0  0
   59.3546   24.8281   47.0917 H   0  0  0  0  0  0  0  0  0  0  0  0
   56.8608   24.7461   46.9853 H   0  0  0  0  0  0  0  0  0  0  0  0
   54.7020   27.4620   46.3500 H   0  0  0  0  0  0  0  0  0  0  0  0
  1  2  2  0
  2  3  1  0
  3  4  1  0
  4  5  2  0
  5  6  1  0
  6  7  2  0
  7  8  1  0
  8  9  1  0
  9 10  1  0
 10 11  1  0
 11 12  2  0
 12 13  1  0
 13 14  2  0
 14 15  1  0
 15 16  2  0
  8 17  2  0
  2 18  1  0
 18 19  2  0
 19 20  1  0
 20 21  2  0
 21 22  1  0
 22 23  2  0
 23 24  1  0
 17  4  1  0
 23 18  1  0
 16 11  1  0
  5 25  1  0
  6 26  1  0
  7 27  1  0
 10 28  1  0
 10 29  1  0
 12 30  1  0
 13 31  1  0
 14 32  1  0
 15 33  1  0
 16 34  1  0
 17 35  1  0
 20 36  1  0
 21 37  1  0
 22 38  1  0
 24 39  1  0
M  CHG  1   3  -1
M  END
>  <UniqueID>  (56) 
48

>  <SMILES>  (56) 
O=C([N-]c1cccc(OCc2ccccc2)c1)c1ncccc1O

>  <Energy>  (56) 
49.15543071900219

>  <Genealogy>  (56) 
O=C([N-]c1cccc(OCc2ccccc2)c1)c1ncccc1O (protonated)
O=C([N-]c1cccc(OCc2ccccc2)c1)c1ncccc1O (3D coordinates assigned)
O=C([N-]c1cccc(OCc2ccccc2)c1)c1ncccc1O (optimized conformer: 49.15543071900219 kcal/mol)

>  <smiles>  (56) 
O=C(Nc1cccc(OCc2ccccc2)c1)c1ncccc1O

>  <score_type>  (56) 
oracle

>  <origin>  (56) 
adg

>  <m_score__min__energy>  (56) 
-10.51

>  <m_primary>  (56) 
energy

$$$$
56:0
     RDKit          3D

 67 69  0  0  0  0  0  0  0  0999 V2000
   61.0980   33.1910   52.4940 C   0  0  0  0  0  0  0  0  0  0  0  0
   62.5530   33.6090   52.6950 C   0  0  0  0  0  0  0  0  0  0  0  0
   63.0080   34.4000   51.5960 O   0  0  0  0  0  0  0  0  0  0  0  0
   63.0330   33.9960   50.2510 C   0  0  0  0  0  0  0  0  0  0  0  0
   61.9450   34.2020   49.3790 C   0  0  0  0  0  0  0  0  0  0  0  0
   62.0110   33.7970   48.0390 C   0  0  0  0  0  0  0  0  0  0  0  0
   60.8730   34.0130   47.1820 N   0  0  0  0  0  0  0  0  0  0  0  0
   59.7060   33.1810   47.1600 C   0  0  0  0  0  0  0  0  0  0  0  0
   59.6620   32.1120   47.8300 O   0  0  0  0  0  0  0  0  0  0  0  0
   58.6130   33.5340   46.3090 N   0  0  0  0  0  0  0  0  0  0  0  0
   58.7620   33.7420   44.8760 C   0  0  0  0  0  0  0  0  0  0  0  0
   58.0880   32.6240   44.1330 C   0  0  0  0  0  0  0  0  0  0  0  0
   58.0230   32.6520   42.7320 C   0  0  0  0  0  0  0  0  0  0  0  0
   57.3950   31.6150   42.0360 C   0  0  0  0  0  0  0  0  0  0  0  0
   56.8210   30.5470   42.7310 C   0  0  0  0  0  0  0  0  0  0  0  0
   56.8540   30.5150   44.1370 C   0  0  0  0  0  0  0  0  0  0  0  0
   56.2680   29.3720   44.8810 C   0  0  0  0  0  0  0  0  0  0  0  0
   55.1060   28.9770   44.5950 O   0  0  0  0  0  0  0  0  0  0  0  0
   56.9500   28.7490   45.9800 N   0  0  0  0  0  0  0  0  0  0  0  0
   57.4940   27.4200   45.9930 C   0  0  0  0  0  0  0  0  0  0  0  0
   58.8820   27.2060   45.8730 C   0  0  0  0  0  0  0  0  0  0  0  0
   59.3970   25.9070   45.8790 C   0  0  0  0  0  0  0  0  0  0  0  0
   58.5360   24.8120   45.9930 C   0  0  0  0  0  0  0  0  0  0  0  0
   57.1570   25.0130   46.0890 C   0  0  0  0  0  0  0  0  0  0  0  0
   56.6270   26.3120   46.0870 C   0  0  0  0  0  0  0  0  0  0  0  0
   55.2070   26.4940   46.1980 N   0  0  0  0  0  0  0  0  0  0  0  0
   57.4920   31.5600   44.8310 C   0  0  0  0  0  0  0  0  0  0  0  0
   63.1630   33.1430   47.5780 C   0  0  0  0  0  0  0  0  0  0  0  0
   64.2490   32.9390   48.4340 C   0  0  0  0  0  0  0  0  0  0  0  0
   64.1930   33.3700   49.7720 C   0  0  0  0  0  0  0  0  0  0  0  0
   65.2680   33.1910   50.6570 O   0  0  0  0  0  0  0  0  0  0  0  0
   65.4610   32.0420   51.4800 C   0  0  0  0  0  0  0  0  0  0  0  0
   64.6680   30.8710   50.9010 C   0  0  0  0  0  0  0  0  0  0  0  0
   63.3260   30.7840   51.5170 N   0  0  0  0  0  0  0  0  0  0  0  0
   63.2690   29.6990   52.5100 C   0  0  0  0  0  0  0  0  0  0  0  0
   62.3070   30.5500   50.4800 C   0  0  0  0  0  0  0  0  0  0  0  0
   60.6175   33.0530   53.4738 H   0  0  0  0  0  0  0  0  0  0  0  0
   60.5663   33.9727   51.9317 H   0  0  0  0  0  0  0  0  0  0  0  0
   61.0622   32.2463   51.9317 H   0  0  0  0  0  0  0  0  0  0  0  0
   62.6351   34.1967   53.6212 H   0  0  0  0  0  0  0  0  0  0  0  0
   63.1749   32.7040   52.7605 H   0  0  0  0  0  0  0  0  0  0  0  0
   61.0322   34.6870   49.7552 H   0  0  0  0  0  0  0  0  0  0  0  0
   60.9440   34.7500   46.4440 H   0  0  0  0  0  0  0  0  0  0  0  0
   58.2997   34.6997   44.5948 H   0  0  0  0  0  0  0  0  0  0  0  0
   59.8312   33.7602   44.6182 H   0  0  0  0  0  0  0  0  0  0  0  0
   58.4676   33.4927   42.1793 H   0  0  0  0  0  0  0  0  0  0  0  0
   57.3525   31.6397   40.9371 H   0  0  0  0  0  0  0  0  0  0  0  0
   56.3411   29.7275   42.1760 H   0  0  0  0  0  0  0  0  0  0  0  0
   59.5623   28.0647   45.7743 H   0  0  0  0  0  0  0  0  0  0  0  0
   60.4818   25.7460   45.7939 H   0  0  0  0  0  0  0  0  0  0  0  0
   58.9447   23.7908   46.0071 H   0  0  0  0  0  0  0  0  0  0  0  0
   56.4825   24.1475   46.1666 H   0  0  0  0  0  0  0  0  0  0  0  0
   54.7690   27.4400   46.1360 H   0  0  0  0  0  0  0  0  0  0  0  0
   54.5750   25.6760   46.3520 H   0  0  0  0  0  0  0  0  0  0  0  0
   57.5244   31.5437   45.9304 H   0  0  0  0  0  0  0  0  0  0  0  0
   63.2120   32.7889   46.5377 H   0  0  0  0  0  0  0  0  0  0  0  0
   65.1536   32.4380   48.0589 H   0  0  0  0  0  0  0  0  0  0  0  0
   66.5301   31.7846   51.5077 H   0  0  0  0  0  0  0  0  0  0  0  0
   65.1124   32.2558   52.5012 H   0  0  0  0  0  0  0  0  0  0  0  0
   64.5573   31.0130   49.8158 H   0  0  0  0  0  0  0  0  0  0  0  0
   65.2126   29.9393   51.1139 H   0  0  0  0  0  0  0  0  0  0  0  0
   63.2915   30.1274   53.5229 H   0  0  0  0  0  0  0  0  0  0  0  0
   62.3395   29.1265   52.3746 H   0  0  0  0  0  0  0  0  0  0  0  0
   64.1334   29.0323   52.3746 H   0  0  0  0  0  0  0  0  0  0  0  0
   61.3415   30.3283   50.9581 H   0  0  0  0  0  0  0  0  0  0  0  0
   62.2082   31.4488   49.8536 H   0  0  0  0  0  0  0  0  0  0  0  0
   62.6102   29.6981   49.8536 H   0  0  0  0  0  0  0  0  0  0  0  0
  1  2  1  0
  2  3  1  0
  3  4  1  0
  4  5  2  0
  5  6  1  0
  6  7  1  0
  7  8  1  0
  8  9  2  0
  8 10  1  0
 10 11  1  0
 11 12  1  0
 12 13  2  0
 13 14  1  0
 14 15  2  0
 15 16  1  0
 16 17  1  0
 17 18  2  0
 17 19  1  0
 19 20  1  0
 20 21  2  0
 21 22  1  0
 22 23  2  0
 23 24  1  0
 24 25  2  0
 25 26  1  0
 16 27  2  0
  6 28  2  0
 28 29  1  0
 29 30  2  0
 30 31  1  0
 31 32  1  0
 32 33  1  0
 33 34  1  0
 34 35  1  0
 34 36  1  0
 30  4  1  0
 27 12  1  0
 25 20  1  0
  1 37  1  0
  1 38  1  0
  1 39  1  0
  2 40  1  0
  2 41  1  0
  5 42  1  0
  7 43  1  0
 11 44  1  0
 11 45  1  0
 13 46  1  0
 14 47  1  0
 15 48  1  0
 21 49  1  0
 22 50  1  0
 23 51  1  0
 24 52  1  0
 26 53  1  0
 26 54  1  0
 27 55  1  0
 28 56  1  0
 29 57  1  0
 32 58  1  0
 32 59  1  0
 33 60  1  0
 33 61  1  0
 35 62  1  0
 35 63  1  0
 35 64  1  0
 36 65  1  0
 36 66  1  0
 36 67  1  0
M  CHG  2  10  -1  19  -1
M  END
>  <UniqueID>  (57) 
49

>  <SMILES>  (57) 
CCOc1cc(NC(=O)[N-]Cc2cccc(C(=O)[N-]c3ccccc3N)c2)ccc1OCCN(C)C

>  <Energy>  (57) 
72.41293846891858

>  <Genealogy>  (57) 
CCOc1cc(NC(=O)[N-]Cc2cccc(C(=O)[N-]c3ccccc3N)c2)ccc1OCCN(C)C (protonated)
CCOc1cc(NC(=O)[N-]Cc2cccc(C(=O)[N-]c3ccccc3N)c2)ccc1OCCN(C)C (3D coordinates assigned)
CCOc1cc(NC(=O)[N-]Cc2cccc(C(=O)[N-]c3ccccc3N)c2)ccc1OCCN(C)C (optimized conformer: 72.41293846891858 kcal/mol)

>  <smiles>  (57) 
CCOc1cc(NC(=O)NCc2cccc(C(=O)Nc3ccccc3N)c2)ccc1OCCN(C)C

>  <score_type>  (57) 
oracle

>  <origin>  (57) 
adg

>  <m_score__min__energy>  (57) 
-12.029999999999999

>  <m_primary>  (57) 
energy

$$$$
57:0
     RDKit          3D

 55 58  0  0  0  0  0  0  0  0999 V2000
   59.6690   34.7860   46.3130 C   0  0  0  0  0  0  0  0  0  0  0  0
   58.7400   34.1630   45.5820 C   0  0  0  0  0  0  0  0  0  0  0  0
   57.8370   33.1150   46.1720 C   0  0  0  0  0  0  0  0  0  0  0  0
   58.5140   31.8000   46.2120 N   0  0  0  0  0  0  0  0  0  0  0  0
   58.5970   31.0230   45.0790 C   0  0  0  0  0  0  0  0  0  0  0  0
   57.8400   31.5240   43.5140 S   0  0  0  0  0  0  0  0  0  0  0  0
   56.3130   30.5490   43.7540 C   0  0  0  0  0  0  0  0  0  0  0  0
   56.6380   29.1250   44.1000 C   0  0  0  0  0  0  0  0  0  0  0  0
   57.5120   28.5160   43.4300 O   0  0  0  0  0  0  0  0  0  0  0  0
   56.0750   28.4830   45.2520 N   0  0  0  0  0  0  0  0  0  0  0  0
   56.2730   27.2530   45.6220 C   0  0  0  0  0  0  0  0  0  0  0  0
   55.2620   26.3560   45.6830 N   0  0  0  0  0  0  0  0  0  0  0  0
   55.7040   25.1510   46.1230 C   0  0  0  0  0  0  0  0  0  0  0  0
   54.8970   24.0250   46.2780 C   0  0  0  0  0  0  0  0  0  0  0  0
   55.4800   22.8340   46.7400 C   0  0  0  0  0  0  0  0  0  0  0  0
   56.8560   22.7710   47.0460 C   0  0  0  0  0  0  0  0  0  0  0  0
   57.3800   21.5530   47.5010 O   0  0  0  0  0  0  0  0  0  0  0  0
   57.4040   20.3530   46.7340 C   0  0  0  0  0  0  0  0  0  0  0  0
   57.6590   23.9250   46.8860 C   0  0  0  0  0  0  0  0  0  0  0  0
   57.0540   25.0900   46.4240 C   0  0  0  0  0  0  0  0  0  0  0  0
   57.7520   26.5900   46.1420 S   0  0  0  0  0  0  0  0  0  0  0  0
   59.2900   29.8540   45.1020 N   0  0  0  0  0  0  0  0  0  0  0  0
   59.9180   29.4240   46.2210 C   0  0  0  0  0  0  0  0  0  0  0  0
   59.8500   30.1680   47.4000 C   0  0  0  0  0  0  0  0  0  0  0  0
   60.6050   29.7350   48.6090 C   0  0  0  0  0  0  0  0  0  0  0  0
   60.2360   28.7060   49.2360 O   0  0  0  0  0  0  0  0  0  0  0  0
   61.6870   30.5040   49.1520 N   0  0  0  0  0  0  0  0  0  0  0  0
   62.2670   31.6890   48.5920 C   0  0  0  0  0  0  0  0  0  0  0  0
   62.0010   32.9210   49.2040 C   0  0  0  0  0  0  0  0  0  0  0  0
   62.5790   34.0950   48.7100 C   0  0  0  0  0  0  0  0  0  0  0  0
   63.4400   34.0420   47.6130 C   0  0  0  0  0  0  0  0  0  0  0  0
   63.7270   32.8150   47.0090 C   0  0  0  0  0  0  0  0  0  0  0  0
   63.1430   31.6380   47.4920 C   0  0  0  0  0  0  0  0  0  0  0  0
   59.1240   31.3760   47.3700 C   0  0  0  0  0  0  0  0  0  0  0  0
   59.0370   32.0700   48.4210 O   0  0  0  0  0  0  0  0  0  0  0  0
   60.3133   35.5480   45.8501 H   0  0  0  0  0  0  0  0  0  0  0  0
   59.7895   34.5369   47.3776 H   0  0  0  0  0  0  0  0  0  0  0  0
   58.6327   34.4240   44.5188 H   0  0  0  0  0  0  0  0  0  0  0  0
   57.5622   33.4104   47.1953 H   0  0  0  0  0  0  0  0  0  0  0  0
   56.9382   33.0298   45.5436 H   0  0  0  0  0  0  0  0  0  0  0  0
   55.7261   30.9936   44.5712 H   0  0  0  0  0  0  0  0  0  0  0  0
   55.7363   30.5612   42.8174 H   0  0  0  0  0  0  0  0  0  0  0  0
   53.8233   24.0686   46.0427 H   0  0  0  0  0  0  0  0  0  0  0  0
   54.8551   21.9374   46.8651 H   0  0  0  0  0  0  0  0  0  0  0  0
   57.4213   19.4858   47.4105 H   0  0  0  0  0  0  0  0  0  0  0  0
   56.5066   20.3053   46.0996 H   0  0  0  0  0  0  0  0  0  0  0  0
   58.3026   20.3412   46.0996 H   0  0  0  0  0  0  0  0  0  0  0  0
   58.7334   23.9019   47.1207 H   0  0  0  0  0  0  0  0  0  0  0  0
   59.3630   29.2800   44.2320 H   0  0  0  0  0  0  0  0  0  0  0  0
   60.4857   28.4820   46.2013 H   0  0  0  0  0  0  0  0  0  0  0  0
   61.3341   32.9652   50.0776 H   0  0  0  0  0  0  0  0  0  0  0  0
   62.3547   35.0607   49.1865 H   0  0  0  0  0  0  0  0  0  0  0  0
   63.8927   34.9659   47.2238 H   0  0  0  0  0  0  0  0  0  0  0  0
   64.4142   32.7739   46.1510 H   0  0  0  0  0  0  0  0  0  0  0  0
   63.3687   30.6743   47.0121 H   0  0  0  0  0  0  0  0  0  0  0  0
  1  2  2  0
  2  3  1  0
  3  4  1  0
  4  5  1  0
  5  6  1  0
  6  7  1  0
  7  8  1  0
  8  9  2  0
  8 10  1  0
 10 11  2  3
 11 12  1  0
 12 13  1  0
 13 14  2  0
 14 15  1  0
 15 16  2  0
 16 17  1  0
 17 18  1  0
 16 19  1  0
 19 20  2  0
 20 21  1  0
  5 22  2  0
 22 23  1  0
 23 24  2  0
 24 25  1  0
 25 26  2  0
 25 27  1  0
 27 28  1  0
 28 29  2  0
 29 30  1  0
 30 31  2  0
 31 32  1  0
 32 33  2  0
 24 34  1  0
 34 35  2  0
 34  4  1  0
 21 11  1  0
 33 28  1  0
 20 13  1  0
  1 36  1  0
  1 37  1  0
  2 38  1  0
  3 39  1  0
  3 40  1  0
  7 41  1  0
  7 42  1  0
 14 43  1  0
 15 44  1  0
 18 45  1  0
 18 46  1  0
 18 47  1  0
 19 48  1  0
 22 49  1  0
 23 50  1  0
 29 51  1  0
 30 52  1  0
 31 53  1  0
 32 54  1  0
 33 55  1  0
M  CHG  3  12  -1  22   1  27  -1
M  END
>  <UniqueID>  (58) 
50

>  <SMILES>  (58) 
C=CCn1c(SCC(=O)N=c2[n-]c3ccc(OC)cc3s2)[nH+]cc(C(=O)[N-]c2ccccc2)c1=O

>  <Energy>  (58) 
103.86285584391564

>  <Genealogy>  (58) 
C=CCn1c(SCC(=O)N=c2[n-]c3ccc(OC)cc3s2)[nH+]cc(C(=O)[N-]c2ccccc2)c1=O (protonated)
C=CCn1c(SCC(=O)N=c2[n-]c3ccc(OC)cc3s2)[nH+]cc(C(=O)[N-]c2ccccc2)c1=O (3D coordinates assigned)
C=CCn1c(SCC(=O)N=c2[n-]c3ccc(OC)cc3s2)[nH+]cc(C(=O)[N-]c2ccccc2)c1=O (optimized conformer: 103.86285584391564 kcal/mol)

>  <smiles>  (58) 
C=CCn1c(SCC(=O)N=c2[nH]c3ccc(OC)cc3s2)ncc(C(=O)Nc2ccccc2)c1=O

>  <score_type>  (58) 
oracle

>  <origin>  (58) 
adg

>  <m_score__min__energy>  (58) 
-10.07

>  <m_primary>  (58) 
energy

$$$$
58:0
     RDKit          3D

 48 49  0  0  0  0  0  0  0  0999 V2000
   58.8590   23.6780   45.6170 C   0  0  0  0  0  0  0  0  0  0  0  0
   57.7640   23.9210   46.4890 O   0  0  0  0  0  0  0  0  0  0  0  0
   57.1870   25.1860   46.6430 C   0  0  0  0  0  0  0  0  0  0  0  0
   57.4910   25.9160   47.6300 O   0  0  0  0  0  0  0  0  0  0  0  0
   56.1800   25.6640   45.6310 C   0  0  1  0  0  0  0  0  0  0  0  0
   54.9580   24.7260   45.5410 C   0  0  0  0  0  0  0  0  0  0  0  0
   55.0010   23.7080   44.3860 C   0  0  0  0  0  0  0  0  0  0  0  0
   56.5080   23.9180   43.3730 S   0  0  0  0  0  0  0  0  0  0  0  0
   56.6940   22.1440   43.0130 C   0  0  0  0  0  0  0  0  0  0  0  0
   55.7530   27.0330   45.9250 N   0  0  0  0  0  0  0  0  0  0  0  0
   56.2660   28.1970   45.2590 C   0  0  0  0  0  0  0  0  0  0  0  0
   55.4740   28.9540   44.6380 O   0  0  0  0  0  0  0  0  0  0  0  0
   57.6990   28.5280   45.2940 C   0  0  0  0  0  0  0  0  0  0  0  0
   58.6490   27.4930   45.2140 C   0  0  0  0  0  0  0  0  0  0  0  0
   60.0130   27.7850   45.2560 C   0  0  0  0  0  0  0  0  0  0  0  0
   60.4370   29.1120   45.3850 C   0  0  0  0  0  0  0  0  0  0  0  0
   59.4990   30.1510   45.4780 C   0  0  0  0  0  0  0  0  0  0  0  0
   58.1190   29.8680   45.4320 C   0  0  0  0  0  0  0  0  0  0  0  0
   57.1420   30.8760   45.5380 O   0  0  0  0  0  0  0  0  0  0  0  0
   57.1720   32.1310   44.8560 C   0  0  0  0  0  0  0  0  0  0  0  0
   58.0170   33.1260   45.6060 C   0  0  0  0  0  0  0  0  0  0  0  0
   58.1390   33.0390   47.0030 C   0  0  0  0  0  0  0  0  0  0  0  0
   58.9300   33.9550   47.7040 C   0  0  0  0  0  0  0  0  0  0  0  0
   59.6120   34.9590   47.0120 C   0  0  0  0  0  0  0  0  0  0  0  0
   59.5170   35.0360   45.6190 C   0  0  0  0  0  0  0  0  0  0  0  0
   58.7230   34.1230   44.9160 C   0  0  0  0  0  0  0  0  0  0  0  0
   59.7630   23.4774   46.2107 H   0  0  0  0  0  0  0  0  0  0  0  0
   58.6363   22.8074   44.9826 H   0  0  0  0  0  0  0  0  0  0  0  0
   59.0255   24.5611   44.9826 H   0  0  0  0  0  0  0  0  0  0  0  0
   56.6790   25.6522   44.6508 H   0  0  0  0  0  0  0  0  0  0  0  0
   54.8869   24.1670   46.4857 H   0  0  0  0  0  0  0  0  0  0  0  0
   54.0888   25.3720   45.3485 H   0  0  0  0  0  0  0  0  0  0  0  0
   54.9890   22.6907   44.8042 H   0  0  0  0  0  0  0  0  0  0  0  0
   54.1240   23.8744   43.7432 H   0  0  0  0  0  0  0  0  0  0  0  0
   56.7529   21.5825   43.9571 H   0  0  0  0  0  0  0  0  0  0  0  0
   55.8275   21.7949   42.4322 H   0  0  0  0  0  0  0  0  0  0  0  0
   57.6140   21.9822   42.4322 H   0  0  0  0  0  0  0  0  0  0  0  0
   58.3151   26.4493   45.1180 H   0  0  0  0  0  0  0  0  0  0  0  0
   60.7529   26.9739   45.1879 H   0  0  0  0  0  0  0  0  0  0  0  0
   61.5123   29.3420   45.4137 H   0  0  0  0  0  0  0  0  0  0  0  0
   59.8418   31.1905   45.5872 H   0  0  0  0  0  0  0  0  0  0  0  0
   57.5934   31.9852   43.8504 H   0  0  0  0  0  0  0  0  0  0  0  0
   56.1454   32.5202   44.7877 H   0  0  0  0  0  0  0  0  0  0  0  0
   57.6087   32.2450   47.5492 H   0  0  0  0  0  0  0  0  0  0  0  0
   59.0150   33.8851   48.7985 H   0  0  0  0  0  0  0  0  0  0  0  0
   60.2236   35.6888   47.5629 H   0  0  0  0  0  0  0  0  0  0  0  0
   60.0681   35.8167   45.0741 H   0  0  0  0  0  0  0  0  0  0  0  0
   58.6522   34.1871   43.8202 H   0  0  0  0  0  0  0  0  0  0  0  0
  1  2  1  0
  2  3  1  0
  3  4  2  0
  3  5  1  0
  5  6  1  0
  6  7  1  0
  7  8  1  0
  8  9  1  0
  5 10  1  0
 10 11  1  0
 11 12  2  0
 11 13  1  0
 13 14  2  0
 14 15  1  0
 15 16  2  0
 16 17  1  0
 17 18  2  0
 18 19  1  0
 19 20  1  0
 20 21  1  0
 21 22  2  0
 22 23  1  0
 23 24  2  0
 24 25  1  0
 25 26  2  0
 18 13  1  0
 26 21  1  0
  1 27  1  0
  1 28  1  0
  1 29  1  0
  5 30  1  6
  6 31  1  0
  6 32  1  0
  7 33  1  0
  7 34  1  0
  9 35  1  0
  9 36  1  0
  9 37  1  0
 14 38  1  0
 15 39  1  0
 16 40  1  0
 17 41  1  0
 20 42  1  0
 20 43  1  0
 22 44  1  0
 23 45  1  0
 24 46  1  0
 25 47  1  0
 26 48  1  0
M  CHG  1  10  -1
M  END
>  <UniqueID>  (59) 
51

>  <SMILES>  (59) 
COC(=O)[C@@H](CCSC)[N-]C(=O)c1ccccc1OCc1ccccc1

>  <Energy>  (59) 
44.243846150019856

>  <Genealogy>  (59) 
COC(=O)C(CCSC)[N-]C(=O)c1ccccc1OCc1ccccc1 (protonated)
COC(=O)[C@@H](CCSC)[N-]C(=O)c1ccccc1OCc1ccccc1 (chirality)
COC(=O)[C@@H](CCSC)[N-]C(=O)c1ccccc1OCc1ccccc1 (3D coordinates assigned)
COC(=O)[C@@H](CCSC)[N-]C(=O)c1ccccc1OCc1ccccc1 (optimized conformer: 44.243846150019856 kcal/mol)

>  <smiles>  (59) 
COC(=O)C(CCSC)NC(=O)c1ccccc1OCc1ccccc1

>  <score_type>  (59) 
oracle

>  <origin>  (59) 
adg

>  <m_score__min__energy>  (59) 
-9.8200000000000003

>  <m_primary>  (59) 
energy

$$$$
59:0
     RDKit          3D

 33 33  0  0  0  0  0  0  0  0999 V2000
   59.3860   33.8670   45.6890 C   0  0  0  0  0  0  0  0  0  0  0  0
   58.7580   32.7290   45.3680 C   0  0  0  0  0  0  0  0  0  0  0  0
   57.6810   32.7670   44.3100 C   0  0  0  0  0  0  0  0  0  0  0  0
   56.5710   31.9610   44.7010 O   0  0  0  0  0  0  0  0  0  0  0  0
   56.3140   30.6960   44.1610 C   0  0  0  0  0  0  0  0  0  0  0  0
   56.6700   30.4190   42.7390 C   0  0  0  0  0  0  0  0  0  0  0  0
   55.7450   29.8040   44.8460 O   0  0  0  0  0  0  0  0  0  0  0  0
   59.1090   31.4500   46.0360 C   0  0  0  0  0  0  0  0  0  0  0  0
   60.2900   31.2670   46.4380 O   0  0  0  0  0  0  0  0  0  0  0  0
   58.1100   30.4450   46.2800 N   0  0  0  0  0  0  0  0  0  0  0  0
   58.4150   29.0680   46.5580 C   0  0  0  0  0  0  0  0  0  0  0  0
   59.7030   28.6700   46.9620 C   0  0  0  0  0  0  0  0  0  0  0  0
   59.9810   27.3220   47.2000 C   0  0  0  0  0  0  0  0  0  0  0  0
   58.9860   26.3570   47.0290 C   0  0  0  0  0  0  0  0  0  0  0  0
   57.7020   26.7380   46.6150 C   0  0  0  0  0  0  0  0  0  0  0  0
   56.4540   25.5190   46.3740 S   0  0  0  0  0  0  0  0  0  0  0  0
   54.9560   26.2950   45.9970 N   0  0  0  0  0  0  0  0  0  0  0  0
   56.2930   24.7010   47.6240 O   0  0  0  0  0  0  0  0  0  0  0  0
   56.8440   24.6050   45.2470 O   0  0  0  0  0  0  0  0  0  0  0  0
   57.4260   28.0900   46.3680 C   0  0  0  0  0  0  0  0  0  0  0  0
   60.1737   33.8628   46.4568 H   0  0  0  0  0  0  0  0  0  0  0  0
   59.1143   34.8062   45.1849 H   0  0  0  0  0  0  0  0  0  0  0  0
   57.3444   33.8052   44.1726 H   0  0  0  0  0  0  0  0  0  0  0  0
   58.0922   32.3750   43.3681 H   0  0  0  0  0  0  0  0  0  0  0  0
   57.5377   29.7439   42.7031 H   0  0  0  0  0  0  0  0  0  0  0  0
   55.8159   29.9456   42.2327 H   0  0  0  0  0  0  0  0  0  0  0  0
   56.9189   31.3633   42.2327 H   0  0  0  0  0  0  0  0  0  0  0  0
   57.1160   30.7540   46.3760 H   0  0  0  0  0  0  0  0  0  0  0  0
   60.4940   29.4235   47.0909 H   0  0  0  0  0  0  0  0  0  0  0  0
   60.9878   27.0192   47.5235 H   0  0  0  0  0  0  0  0  0  0  0  0
   59.2100   25.2970   47.2193 H   0  0  0  0  0  0  0  0  0  0  0  0
   55.1330   27.3240   46.0150 H   0  0  0  0  0  0  0  0  0  0  0  0
   56.4251   28.3874   46.0220 H   0  0  0  0  0  0  0  0  0  0  0  0
  1  2  2  0
  2  3  1  0
  3  4  1  0
  4  5  1  0
  5  6  1  0
  5  7  2  0
  2  8  1  0
  8  9  2  0
  8 10  1  0
 10 11  1  0
 11 12  2  0
 12 13  1  0
 13 14  2  0
 14 15  1  0
 15 16  1  0
 16 17  1  0
 16 18  2  0
 16 19  2  0
 15 20  2  0
 20 11  1  0
  1 21  1  0
  1 22  1  0
  3 23  1  0
  3 24  1  0
  6 25  1  0
  6 26  1  0
  6 27  1  0
 10 28  1  0
 12 29  1  0
 13 30  1  0
 14 31  1  0
 17 32  1  0
 20 33  1  0
M  CHG  1  17  -1
M  END
>  <UniqueID>  (60) 
52

>  <SMILES>  (60) 
C=C(COC(C)=O)C(=O)Nc1cccc(S([NH-])(=O)=O)c1

>  <Energy>  (60) 
31.391326115561654

>  <Genealogy>  (60) 
C=C(COC(C)=O)C(=O)Nc1cccc(S([NH-])(=O)=O)c1 (protonated)
C=C(COC(C)=O)C(=O)Nc1cccc(S([NH-])(=O)=O)c1 (3D coordinates assigned)
C=C(COC(C)=O)C(=O)Nc1cccc(S([NH-])(=O)=O)c1 (optimized conformer: 31.391326115561654 kcal/mol)

>  <smiles>  (60) 
C=C(COC(C)=O)C(=O)Nc1cccc(S(N)(=O)=O)c1

>  <score_type>  (60) 
oracle

>  <origin>  (60) 
adg

>  <m_score__min__energy>  (60) 
-11.01

>  <m_primary>  (60) 
energy

$$$$
60:0
     RDKit          3D

 33 35  0  0  0  0  0  0  0  0999 V2000
   55.1650   29.3710   44.8530 O   0  0  0  0  0  0  0  0  0  0  0  0
   56.1380   29.3400   44.0730 N   0  0  0  0  0  0  0  0  0  0  0  0
   55.9420   29.6830   42.7560 O   0  0  0  0  0  0  0  0  0  0  0  0
   57.4710   29.2480   44.5920 C   0  0  0  0  0  0  0  0  0  0  0  0
   57.9760   27.9780   44.9220 C   0  0  0  0  0  0  0  0  0  0  0  0
   59.2760   27.8320   45.4070 C   0  0  0  0  0  0  0  0  0  0  0  0
   60.0860   28.9520   45.5760 C   0  0  0  0  0  0  0  0  0  0  0  0
   59.5950   30.2230   45.2720 C   0  0  0  0  0  0  0  0  0  0  0  0
   58.2900   30.3930   44.7850 C   0  0  0  0  0  0  0  0  0  0  0  0
   57.7160   32.0490   44.5110 S   0  0  0  0  0  0  0  0  0  0  0  0
   57.7970   32.4090   43.0540 O   0  0  0  0  0  0  0  0  0  0  0  0
   56.2710   32.1510   44.9120 O   0  0  0  0  0  0  0  0  0  0  0  0
   58.6610   33.1750   45.4390 N   0  0  0  0  0  0  0  0  0  0  0  0
   59.2600   34.3890   44.8890 C   0  0  0  0  0  0  0  0  0  0  0  0
   59.9010   35.1310   46.0870 C   0  0  0  0  0  0  0  0  0  0  0  0
   59.6200   34.2310   47.2390 C   0  0  0  0  0  0  0  0  0  0  0  0
   59.9880   34.4100   48.5730 C   0  0  0  0  0  0  0  0  0  0  0  0
   59.6140   33.4330   49.5080 C   0  0  0  0  0  0  0  0  0  0  0  0
   58.8850   32.3020   49.0960 C   0  0  0  0  0  0  0  0  0  0  0  0
   58.5260   32.1440   47.7470 C   0  0  0  0  0  0  0  0  0  0  0  0
   58.9110   33.1330   46.8340 C   0  0  0  0  0  0  0  0  0  0  0  0
   57.3392   27.0899   44.7964 H   0  0  0  0  0  0  0  0  0  0  0  0
   59.6611   26.8321   45.6559 H   0  0  0  0  0  0  0  0  0  0  0  0
   61.1140   28.8351   45.9495 H   0  0  0  0  0  0  0  0  0  0  0  0
   60.2395   31.1027   45.4161 H   0  0  0  0  0  0  0  0  0  0  0  0
   60.0273   34.1325   44.1438 H   0  0  0  0  0  0  0  0  0  0  0  0
   58.5095   35.0144   44.3834 H   0  0  0  0  0  0  0  0  0  0  0  0
   60.9839   35.2554   45.9394 H   0  0  0  0  0  0  0  0  0  0  0  0
   59.5018   36.1464   46.2273 H   0  0  0  0  0  0  0  0  0  0  0  0
   60.5586   35.2973   48.8847 H   0  0  0  0  0  0  0  0  0  0  0  0
   59.8913   33.5514   50.5659 H   0  0  0  0  0  0  0  0  0  0  0  0
   58.5951   31.5387   49.8331 H   0  0  0  0  0  0  0  0  0  0  0  0
   57.9557   31.2637   47.4158 H   0  0  0  0  0  0  0  0  0  0  0  0
  1  2  2  0
  2  3  1  0
  2  4  1  0
  4  5  2  0
  5  6  1  0
  6  7  2  0
  7  8  1  0
  8  9  2  0
  9 10  1  0
 10 11  2  0
 10 12  2  0
 10 13  1  0
 13 14  1  0
 14 15  1  0
 15 16  1  0
 16 17  2  0
 17 18  1  0
 18 19  2  0
 19 20  1  0
 20 21  2  0
  9  4  1  0
 21 13  1  0
 21 16  1  0
  5 22  1  0
  6 23  1  0
  7 24  1  0
  8 25  1  0
 14 26  1  0
 14 27  1  0
 15 28  1  0
 15 29  1  0
 17 30  1  0
 18 31  1  0
 19 32  1  0
 20 33  1  0
M  CHG  2   2   1   3  -1
M  END
>  <UniqueID>  (61) 
53

>  <SMILES>  (61) 
O=[N+]([O-])c1ccccc1S(=O)(=O)N1CCc2ccccc21

>  <Energy>  (61) 
59.61321226236611

>  <Genealogy>  (61) 
O=[N+]([O-])c1ccccc1S(=O)(=O)N1CCc2ccccc21 (3D coordinates assigned)
O=[N+]([O-])c1ccccc1S(=O)(=O)N1CCc2ccccc21 (nonaromatic ring conformer: 59.61321226236611 kcal/mol)

>  <smiles>  (61) 
O=[N+]([O-])c1ccccc1S(=O)(=O)N1CCc2ccccc21

>  <score_type>  (61) 
oracle

>  <origin>  (61) 
adg

>  <m_score__min__energy>  (61) 
-8.5700000000000003

>  <m_primary>  (61) 
energy

$$$$
61:0
     RDKit          3D

 42 44  0  0  0  0  0  0  0  0999 V2000
   55.7420   30.8640   44.0160 O   0  0  0  0  0  0  0  0  0  0  0  0
   56.3090   29.8710   44.5470 C   0  0  0  0  0  0  0  0  0  0  0  0
   55.5430   28.8470   45.0010 N   0  0  0  0  0  0  0  0  0  0  0  0
   56.0900   27.7570   45.5860 C   0  0  0  0  0  0  0  0  0  0  0  0
   55.2600   26.7180   45.9930 O   0  0  0  0  0  0  0  0  0  0  0  0
   57.4790   27.6790   45.7560 C   0  0  0  0  0  0  0  0  0  0  0  0
   58.1190   26.4980   46.3840 C   0  0  0  0  0  0  0  0  0  0  0  0
   58.7990   25.5500   45.7210 C   0  0  0  0  0  0  0  0  0  0  0  0
   58.1970   24.3550   45.0820 C   0  0  0  0  0  0  0  0  0  0  0  0
   56.9760   24.4390   44.3910 C   0  0  0  0  0  0  0  0  0  0  0  0
   56.4080   23.3020   43.8130 C   0  0  0  0  0  0  0  0  0  0  0  0
   57.0420   22.0590   43.9360 C   0  0  0  0  0  0  0  0  0  0  0  0
   56.4850   20.9180   43.3630 O   0  0  0  0  0  0  0  0  0  0  0  0
   58.2430   21.9620   44.6450 C   0  0  0  0  0  0  0  0  0  0  0  0
   58.8180   23.0990   45.2230 C   0  0  0  0  0  0  0  0  0  0  0  0
   60.0130   22.9750   45.9240 O   0  0  0  0  0  0  0  0  0  0  0  0
   58.2650   28.7320   45.2590 C   0  0  0  0  0  0  0  0  0  0  0  0
   59.5220   28.6740   45.3820 O   0  0  0  0  0  0  0  0  0  0  0  0
   57.6760   29.8180   44.6570 N   0  0  0  0  0  0  0  0  0  0  0  0
   58.4980   30.9370   44.1500 C   0  0  0  0  0  0  0  0  0  0  0  0
   57.8240   32.2920   44.4040 C   0  0  0  0  0  0  0  0  0  0  0  0
   58.4680   33.0340   45.5470 C   0  0  0  0  0  0  0  0  0  0  0  0
   59.1010   34.2700   45.3260 C   0  0  0  0  0  0  0  0  0  0  0  0
   59.6860   34.9610   46.3930 C   0  0  0  0  0  0  0  0  0  0  0  0
   59.6290   34.4320   47.6850 C   0  0  0  0  0  0  0  0  0  0  0  0
   58.9920   33.2100   47.9140 C   0  0  0  0  0  0  0  0  0  0  0  0
   58.4140   32.5110   46.8490 C   0  0  0  0  0  0  0  0  0  0  0  0
   58.0297   26.3910   47.4751 H   0  0  0  0  0  0  0  0  0  0  0  0
   59.8900   25.6688   45.6455 H   0  0  0  0  0  0  0  0  0  0  0  0
   56.4636   25.4086   44.3048 H   0  0  0  0  0  0  0  0  0  0  0  0
   55.4606   23.3825   43.2599 H   0  0  0  0  0  0  0  0  0  0  0  0
   56.9720   20.0300   43.3710 H   0  0  0  0  0  0  0  0  0  0  0  0
   58.7390   20.9857   44.7491 H   0  0  0  0  0  0  0  0  0  0  0  0
   59.4735   30.9225   44.6582 H   0  0  0  0  0  0  0  0  0  0  0  0
   58.6194   30.8108   43.0640 H   0  0  0  0  0  0  0  0  0  0  0  0
   57.9020   32.9043   43.4935 H   0  0  0  0  0  0  0  0  0  0  0  0
   56.7724   32.1058   44.6675 H   0  0  0  0  0  0  0  0  0  0  0  0
   59.1364   34.6947   44.3119 H   0  0  0  0  0  0  0  0  0  0  0  0
   60.1913   35.9216   46.2144 H   0  0  0  0  0  0  0  0  0  0  0  0
   60.0863   34.9785   48.5229 H   0  0  0  0  0  0  0  0  0  0  0  0
   58.9449   32.7971   48.9325 H   0  0  0  0  0  0  0  0  0  0  0  0
   57.9152   31.5479   47.0322 H   0  0  0  0  0  0  0  0  0  0  0  0
  1  2  2  0
  2  3  1  0
  3  4  1  0
  4  5  1  0
  4  6  2  0
  6  7  1  0
  7  8  2  3
  8  9  1  0
  9 10  2  0
 10 11  1  0
 11 12  2  0
 12 13  1  0
 12 14  1  0
 14 15  2  0
 15 16  1  0
  6 17  1  0
 17 18  2  0
 17 19  1  0
 19 20  1  0
 20 21  1  0
 21 22  1  0
 22 23  2  0
 23 24  1  0
 24 25  2  0
 25 26  1  0
 26 27  2  0
 19  2  1  0
 27 22  1  0
 15  9  1  0
  7 28  1  0
  8 29  1  0
 10 30  1  0
 11 31  1  0
 13 32  1  0
 14 33  1  0
 20 34  1  0
 20 35  1  0
 21 36  1  0
 21 37  1  0
 23 38  1  0
 24 39  1  0
 25 40  1  0
 26 41  1  0
 27 42  1  0
M  CHG  3   3  -1   5  -1  16  -1
M  END
>  <UniqueID>  (62) 
54

>  <SMILES>  (62) 
O=c1[n-]c([O-])c(C=Cc2ccc(O)cc2[O-])c(=O)n1CCc1ccccc1

>  <Energy>  (62) 
56.1118707507465

>  <Genealogy>  (62) 
O=c1[n-]c([O-])c(C=Cc2ccc(O)cc2[O-])c(=O)n1CCc1ccccc1 (protonated)
O=c1[n-]c([O-])c(C=Cc2ccc(O)cc2[O-])c(=O)n1CCc1ccccc1 (3D coordinates assigned)
O=c1[n-]c([O-])c(C=Cc2ccc(O)cc2[O-])c(=O)n1CCc1ccccc1 (optimized conformer: 56.1118707507465 kcal/mol)

>  <smiles>  (62) 
O=c1[nH]c(O)c(C=Cc2ccc(O)cc2O)c(=O)n1CCc1ccccc1

>  <score_type>  (62) 
oracle

>  <origin>  (62) 
adg

>  <m_score__min__energy>  (62) 
-17.100000000000001

>  <m_primary>  (62) 
energy

$$$$
62:0
     RDKit          3D

 66 69  0  0  0  0  0  0  0  0999 V2000
   58.6480   31.8630   51.9970 C   0  0  0  0  0  0  0  0  0  0  0  0
   58.6940   31.3180   50.3050 S   0  0  0  0  0  0  0  0  0  0  0  0
   58.1540   29.9190   50.1940 O   0  0  0  0  0  0  0  0  0  0  0  0
   60.1210   31.3290   49.8360 O   0  0  0  0  0  0  0  0  0  0  0  0
   57.7720   32.3990   49.3090 N   0  0  0  0  0  0  0  0  0  0  0  0
   58.3050   33.0790   48.1610 C   0  0  0  0  0  0  0  0  0  0  0  0
   59.5650   33.6890   48.2540 C   0  0  0  0  0  0  0  0  0  0  0  0
   60.1260   34.3260   47.1480 C   0  0  0  0  0  0  0  0  0  0  0  0
   59.4450   34.3480   45.9300 C   0  0  0  0  0  0  0  0  0  0  0  0
   58.1930   33.7390   45.8060 C   0  0  0  0  0  0  0  0  0  0  0  0
   57.5640   33.7850   44.5490 O   0  0  0  0  0  0  0  0  0  0  0  0
   57.8790   32.9640   43.4220 C   0  0  0  0  0  0  0  0  0  0  0  0
   57.6460   31.5140   43.7280 C   0  0  0  0  0  0  0  0  0  0  0  0
   56.8680   30.7620   42.9050 N   0  0  0  0  0  0  0  0  0  0  0  0
   56.6790   29.4380   43.1430 C   0  0  0  0  0  0  0  0  0  0  0  0
   57.3010   28.8270   44.2340 C   0  0  0  0  0  0  0  0  0  0  0  0
   58.1190   29.6070   45.0640 C   0  0  0  0  0  0  0  0  0  0  0  0
   58.8700   29.0300   46.2050 C   0  0  0  0  0  0  0  0  0  0  0  0
   58.4990   27.7730   46.7200 C   0  0  0  0  0  0  0  0  0  0  0  0
   59.1200   27.2620   47.8620 C   0  0  0  0  0  0  0  0  0  0  0  0
   60.1010   28.0080   48.5270 C   0  0  0  0  0  0  0  0  0  0  0  0
   60.7020   27.4900   49.7690 C   0  0  0  0  0  0  0  0  0  0  0  0
   61.1860   26.3280   49.7760 O   0  0  0  0  0  0  0  0  0  0  0  0
   60.7140   28.2520   50.9860 N   0  0  0  0  0  0  0  0  0  0  0  0
   61.7300   28.1570   52.0330 C   0  0  0  0  0  0  0  0  0  0  0  0
   62.6180   29.4110   52.0310 C   0  0  0  0  0  0  0  0  0  0  0  0
   62.5420   30.1560   50.7650 N   0  0  0  0  0  0  0  0  0  0  0  0
   62.9200   31.5660   50.9270 C   0  0  0  0  0  0  0  0  0  0  0  0
   63.0590   32.2040   49.5740 C   0  0  0  0  0  0  0  0  0  0  0  0
   62.8740   31.4420   48.4090 C   0  0  0  0  0  0  0  0  0  0  0  0
   62.9720   32.0430   47.1490 C   0  0  0  0  0  0  0  0  0  0  0  0
   63.2440   33.4080   47.0450 C   0  0  0  0  0  0  0  0  0  0  0  0
   63.4120   34.1780   48.2000 C   0  0  0  0  0  0  0  0  0  0  0  0
   63.3130   33.5820   49.4610 C   0  0  0  0  0  0  0  0  0  0  0  0
   60.4910   29.2500   48.0060 C   0  0  0  0  0  0  0  0  0  0  0  0
   59.8780   29.7600   46.8590 C   0  0  0  0  0  0  0  0  0  0  0  0
   58.2640   30.9300   44.7870 N   0  0  0  0  0  0  0  0  0  0  0  0
   57.6190   33.1070   46.9300 C   0  0  0  0  0  0  0  0  0  0  0  0
   58.7215   30.9921   52.6649 H   0  0  0  0  0  0  0  0  0  0  0  0
   59.4920   32.5426   52.1864 H   0  0  0  0  0  0  0  0  0  0  0  0
   57.7021   32.3915   52.1864 H   0  0  0  0  0  0  0  0  0  0  0  0
   56.7370   32.4060   49.4600 H   0  0  0  0  0  0  0  0  0  0  0  0
   60.1144   33.6645   49.2067 H   0  0  0  0  0  0  0  0  0  0  0  0
   61.1085   34.8128   47.2356 H   0  0  0  0  0  0  0  0  0  0  0  0
   59.8970   34.8484   45.0609 H   0  0  0  0  0  0  0  0  0  0  0  0
   57.2435   33.2588   42.5740 H   0  0  0  0  0  0  0  0  0  0  0  0
   58.9420   33.1025   43.1751 H   0  0  0  0  0  0  0  0  0  0  0  0
   56.0352   28.8464   42.4756 H   0  0  0  0  0  0  0  0  0  0  0  0
   57.1524   27.7563   44.4380 H   0  0  0  0  0  0  0  0  0  0  0  0
   57.7135   27.1885   46.2187 H   0  0  0  0  0  0  0  0  0  0  0  0
   58.8371   26.2688   48.2408 H   0  0  0  0  0  0  0  0  0  0  0  0
   61.2353   28.0644   53.0111 H   0  0  0  0  0  0  0  0  0  0  0  0
   62.3579   27.2741   51.8427 H   0  0  0  0  0  0  0  0  0  0  0  0
   62.2956   30.0723   52.8488 H   0  0  0  0  0  0  0  0  0  0  0  0
   63.6594   29.0819   52.1619 H   0  0  0  0  0  0  0  0  0  0  0  0
   61.5630   30.1060   50.3980 H   0  0  0  0  0  0  0  0  0  0  0  0
   62.1427   32.0906   51.5020 H   0  0  0  0  0  0  0  0  0  0  0  0
   63.8780   31.6302   51.4637 H   0  0  0  0  0  0  0  0  0  0  0  0
   62.6510   30.3677   48.4872 H   0  0  0  0  0  0  0  0  0  0  0  0
   62.8346   31.4392   46.2399 H   0  0  0  0  0  0  0  0  0  0  0  0
   63.3262   33.8782   46.0540 H   0  0  0  0  0  0  0  0  0  0  0  0
   63.6224   35.2545   48.1165 H   0  0  0  0  0  0  0  0  0  0  0  0
   63.4343   34.1933   50.3674 H   0  0  0  0  0  0  0  0  0  0  0  0
   61.2847   29.8265   48.5037 H   0  0  0  0  0  0  0  0  0  0  0  0
   60.1861   30.7396   46.4647 H   0  0  0  0  0  0  0  0  0  0  0  0
   56.6299   32.6333   46.8447 H   0  0  0  0  0  0  0  0  0  0  0  0
  1  2  1  0
  2  3  2  0
  2  4  2  0
  2  5  1  0
  5  6  1  0
  6  7  2  0
  7  8  1  0
  8  9  2  0
  9 10  1  0
 10 11  1  0
 11 12  1  0
 12 13  1  0
 13 14  2  0
 14 15  1  0
 15 16  2  0
 16 17  1  0
 17 18  1  0
 18 19  2  0
 19 20  1  0
 20 21  2  0
 21 22  1  0
 22 23  2  0
 22 24  1  0
 24 25  1  0
 25 26  1  0
 26 27  1  0
 27 28  1  0
 28 29  1  0
 29 30  2  0
 30 31  1  0
 31 32  2  0
 32 33  1  0
 33 34  2  0
 21 35  1  0
 35 36  2  0
 17 37  2  0
 10 38  2  0
 38  6  1  0
 37 13  1  0
 36 18  1  0
 34 29  1  0
  1 39  1  0
  1 40  1  0
  1 41  1  0
  5 42  1  0
  7 43  1  0
  8 44  1  0
  9 45  1  0
 12 46  1  0
 12 47  1  0
 15 48  1  0
 16 49  1  0
 19 50  1  0
 20 51  1  0
 25 52  1  0
 25 53  1  0
 26 54  1  0
 26 55  1  0
 27 56  1  0
 28 57  1  0
 28 58  1  0
 30 59  1  0
 31 60  1  0
 32 61  1  0
 33 62  1  0
 34 63  1  0
 35 64  1  0
 36 65  1  0
 38 66  1  0
M  CHG  1  24  -1
M  END
>  <UniqueID>  (63) 
55

>  <SMILES>  (63) 
CS(=O)(=O)Nc1cccc(OCc2nccc(-c3ccc(C(=O)[N-]CCNCc4ccccc4)cc3)n2)c1

>  <Energy>  (63) 
72.75122592325097

>  <Genealogy>  (63) 
CS(=O)(=O)Nc1cccc(OCc2nccc(-c3ccc(C(=O)[N-]CCNCc4ccccc4)cc3)n2)c1 (protonated)
CS(=O)(=O)Nc1cccc(OCc2nccc(-c3ccc(C(=O)[N-]CCNCc4ccccc4)cc3)n2)c1 (3D coordinates assigned)
CS(=O)(=O)Nc1cccc(OCc2nccc(-c3ccc(C(=O)[N-]CCNCc4ccccc4)cc3)n2)c1 (optimized conformer: 72.75122592325097 kcal/mol)

>  <smiles>  (63) 
CS(=O)(=O)Nc1cccc(OCc2nccc(-c3ccc(C(=O)NCCNCc4ccccc4)cc3)n2)c1

>  <score_type>  (63) 
oracle

>  <origin>  (63) 
adg

>  <m_score__min__energy>  (63) 
-11.539999999999999

>  <m_primary>  (63) 
energy

$$$$
63:0
     RDKit          3D

 45 47  0  0  0  0  0  0  0  0999 V2000
   58.8120   25.6940   47.5470 H   0  0  0  0  0  0  0  0  0  0  0  0
   58.4310   26.4830   46.8820 C   0  0  0  0  0  0  0  0  0  0  0  0
   59.2540   27.4810   46.4720 N   0  0  0  0  0  0  0  0  0  0  0  0
   58.8360   28.4940   45.6610 C   0  0  0  0  0  0  0  0  0  0  0  0
   59.8740   29.5000   45.2300 C   0  0  0  0  0  0  0  0  0  0  0  0
   60.0490   30.2084   46.0531 H   0  0  0  0  0  0  0  0  0  0  0  0
   59.4993   30.0226   44.3375 H   0  0  0  0  0  0  0  0  0  0  0  0
   61.1940   28.8210   44.8700 C   0  0  0  0  0  0  0  0  0  0  0  0
   61.7282   28.5462   45.7915 H   0  0  0  0  0  0  0  0  0  0  0  0
   60.9914   27.9152   44.2796 H   0  0  0  0  0  0  0  0  0  0  0  0
   61.8130   29.5126   44.2796 H   0  0  0  0  0  0  0  0  0  0  0  0
   57.4860   28.5100   45.2100 C   0  0  0  0  0  0  0  0  0  0  0  0
   56.9230   29.5570   44.3190 C   0  0  0  0  0  0  0  0  0  0  0  0
   56.6800   29.3030   43.1100 O   0  0  0  0  0  0  0  0  0  0  0  0
   56.6040   30.8460   44.8710 N   0  0  0  0  0  0  0  0  0  0  0  0
   57.3900   31.8600   45.1120 C   0  0  0  0  0  0  0  0  0  0  0  0
   57.8610   32.0160   46.3790 N   0  0  0  0  0  0  0  0  0  0  0  0
   58.6850   33.0360   46.7410 C   0  0  0  0  0  0  0  0  0  0  0  0
   59.1490   33.1530   48.1750 C   0  0  0  0  0  0  0  0  0  0  0  0
   59.0163   34.1954   48.5003 H   0  0  0  0  0  0  0  0  0  0  0  0
   58.5454   32.4513   48.7694 H   0  0  0  0  0  0  0  0  0  0  0  0
   60.5680   32.7790   48.3670 N   0  0  0  0  0  0  0  0  0  0  0  0
   61.5130   33.9180   48.2970 C   0  0  0  0  0  0  0  0  0  0  0  0
   60.9391   34.8551   48.2474 H   0  0  0  0  0  0  0  0  0  0  0  0
   62.1484   33.8926   49.1945 H   0  0  0  0  0  0  0  0  0  0  0  0
   62.4240   33.8250   47.0610 C   0  0  0  0  0  0  0  0  0  0  0  0
   61.7956   33.8735   46.1595 H   0  0  0  0  0  0  0  0  0  0  0  0
   63.1347   34.6628   47.1160 H   0  0  0  0  0  0  0  0  0  0  0  0
   63.1870   32.6280   47.0150 O   0  0  0  0  0  0  0  0  0  0  0  0
   62.5110   31.4900   47.5420 C   0  0  0  0  0  0  0  0  0  0  0  0
   62.7799   30.6157   46.9310 H   0  0  0  0  0  0  0  0  0  0  0  0
   62.8286   31.3917   48.5906 H   0  0  0  0  0  0  0  0  0  0  0  0
   60.9790   31.6160   47.5550 C   0  0  0  0  0  0  0  0  0  0  0  0
   60.6167   31.7465   46.5246 H   0  0  0  0  0  0  0  0  0  0  0  0
   60.5483   30.7034   47.9928 H   0  0  0  0  0  0  0  0  0  0  0  0
   59.0930   33.9660   45.7770 C   0  0  0  0  0  0  0  0  0  0  0  0
   59.7587   34.7970   46.0533 H   0  0  0  0  0  0  0  0  0  0  0  0
   58.6470   33.8280   44.4640 C   0  0  0  0  0  0  0  0  0  0  0  0
   58.9652   34.5501   43.6976 H   0  0  0  0  0  0  0  0  0  0  0  0
   57.7970   32.7750   44.1190 C   0  0  0  0  0  0  0  0  0  0  0  0
   57.4481   32.6603   43.0821 H   0  0  0  0  0  0  0  0  0  0  0  0
   56.6370   27.4680   45.6240 C   0  0  0  0  0  0  0  0  0  0  0  0
   55.5914   27.4505   45.2828 H   0  0  0  0  0  0  0  0  0  0  0  0
   57.1050   26.4580   46.4610 C   0  0  0  0  0  0  0  0  0  0  0  0
   56.4337   25.6493   46.7857 H   0  0  0  0  0  0  0  0  0  0  0  0
  1  2  1  0
  2  3  2  0
  3  4  1  0
  4  5  1  0
  5  6  1  0
  5  7  1  0
  5  8  1  0
  8  9  1  0
  8 10  1  0
  8 11  1  0
  4 12  2  0
 12 13  1  0
 13 14  2  0
 13 15  1  0
 15 16  2  0
 16 17  1  0
 17 18  1  0
 18 19  1  0
 19 20  1  0
 19 21  1  0
 19 22  1  0
 22 23  1  0
 23 24  1  0
 23 25  1  0
 23 26  1  0
 26 27  1  0
 26 28  1  0
 26 29  1  0
 29 30  1  0
 30 31  1  0
 30 32  1  0
 30 33  1  0
 33 34  1  0
 33 35  1  0
 18 36  2  0
 36 37  1  0
 36 38  1  0
 38 39  1  0
 38 40  2  0
 40 41  1  0
 12 42  1  0
 42 43  1  0
 42 44  2  0
 44 45  1  0
 44  2  1  0
 40 16  1  0
 33 22  1  0
M  CHG  1  17  -1
M  END
>  <UniqueID>  (64) 
56

>  <SMILES>  (64) 
CCc1ncccc1C(=O)/N=c1\cccc(CN2CCOCC2)[n-]1

>  <Energy>  (64) 
73.24897477638622

>  <Genealogy>  (64) 
CCc1ncccc1C(=O)N=c1cccc(CN2CCOCC2)[n-]1 (protonated)
CCc1ncccc1C(=O)/N=c1\cccc(CN2CCOCC2)[n-]1 (cis-trans isomerization)
CCc1ncccc1C(=O)/N=c1\cccc(CN2CCOCC2)[n-]1 (3D coordinates assigned)
CCc1ncccc1C(=O)/N=c1\cccc(CN2CCOCC2)[n-]1 (nonaromatic ring conformer: 73.24897477638622 kcal/mol)

>  <smiles>  (64) 
CCc1ncccc1C(=O)N=c1cccc(CN2CCOCC2)[nH]1

>  <score_type>  (64) 
oracle

>  <origin>  (64) 
adg

>  <m_score__min__energy>  (64) 
-9.4700000000000006

>  <m_primary>  (64) 
energy

$$$$
64:0
     RDKit          3D

 46 48  0  0  0  0  0  0  0  0999 V2000
   58.9760   35.1710   47.0890 C   0  0  0  0  0  0  0  0  0  0  0  0
   59.5320   33.8850   47.5190 N   0  0  0  0  0  0  0  0  0  0  0  0
   60.2030   33.0380   46.5580 C   0  0  0  0  0  0  0  0  0  0  0  0
   61.0840   33.5260   45.7990 O   0  0  0  0  0  0  0  0  0  0  0  0
   59.8340   31.6200   46.3890 C   0  0  0  0  0  0  0  0  0  0  0  0
   58.6960   31.3050   45.6290 C   0  0  0  0  0  0  0  0  0  0  0  0
   58.2870   29.9750   45.4710 C   0  0  0  0  0  0  0  0  0  0  0  0
   56.8420   29.6140   44.5310 S   0  0  0  0  0  0  0  0  0  0  0  0
   56.0210   28.2700   45.2360 N   0  0  0  0  0  0  0  0  0  0  0  0
   55.9360   30.8100   44.5280 O   0  0  0  0  0  0  0  0  0  0  0  0
   57.2100   29.2830   43.1130 O   0  0  0  0  0  0  0  0  0  0  0  0
   59.0160   28.9510   46.0860 C   0  0  0  0  0  0  0  0  0  0  0  0
   60.1490   29.2540   46.8440 C   0  0  0  0  0  0  0  0  0  0  0  0
   60.5720   30.5810   46.9970 C   0  0  0  0  0  0  0  0  0  0  0  0
   61.7090   30.8520   47.8330 N   0  0  0  0  0  0  0  0  0  0  0  0
   62.9130   31.4640   47.2690 C   0  0  0  0  0  0  0  0  0  0  0  0
   63.4370   32.5290   48.2390 C   0  0  0  0  0  0  0  0  0  0  0  0
   63.5830   31.9990   49.5440 O   0  0  0  0  0  0  0  0  0  0  0  0
   62.3170   31.6350   50.0630 C   0  0  0  0  0  0  0  0  0  0  0  0
   61.7110   30.4880   49.2480 C   0  0  0  0  0  0  0  0  0  0  0  0
   59.2800   33.4330   48.8610 C   0  0  0  0  0  0  0  0  0  0  0  0
   58.4060   32.3580   49.0940 C   0  0  0  0  0  0  0  0  0  0  0  0
   58.1670   31.9170   50.3990 C   0  0  0  0  0  0  0  0  0  0  0  0
   58.8060   32.5380   51.4760 C   0  0  0  0  0  0  0  0  0  0  0  0
   59.6620   33.6220   51.2550 C   0  0  0  0  0  0  0  0  0  0  0  0
   59.8970   34.0660   49.9500 C   0  0  0  0  0  0  0  0  0  0  0  0
   58.7161   35.7720   47.9729 H   0  0  0  0  0  0  0  0  0  0  0  0
   59.7217   35.7095   46.4857 H   0  0  0  0  0  0  0  0  0  0  0  0
   58.0729   34.9967   46.4857 H   0  0  0  0  0  0  0  0  0  0  0  0
   58.1196   32.1117   45.1526 H   0  0  0  0  0  0  0  0  0  0  0  0
   55.1360   28.6380   45.6470 H   0  0  0  0  0  0  0  0  0  0  0  0
   58.6958   27.9048   45.9721 H   0  0  0  0  0  0  0  0  0  0  0  0
   60.7149   28.4430   47.3257 H   0  0  0  0  0  0  0  0  0  0  0  0
   63.6824   30.6924   47.1188 H   0  0  0  0  0  0  0  0  0  0  0  0
   62.6731   31.9301   46.3019 H   0  0  0  0  0  0  0  0  0  0  0  0
   64.4147   32.8880   47.8851 H   0  0  0  0  0  0  0  0  0  0  0  0
   62.7129   33.3562   48.2757 H   0  0  0  0  0  0  0  0  0  0  0  0
   62.4335   31.3137   51.1086 H   0  0  0  0  0  0  0  0  0  0  0  0
   61.6461   32.5048   50.0053 H   0  0  0  0  0  0  0  0  0  0  0  0
   62.3106   29.5772   49.3926 H   0  0  0  0  0  0  0  0  0  0  0  0
   60.6799   30.3016   49.5828 H   0  0  0  0  0  0  0  0  0  0  0  0
   57.9085   31.8620   48.2475 H   0  0  0  0  0  0  0  0  0  0  0  0
   57.4755   31.0806   50.5784 H   0  0  0  0  0  0  0  0  0  0  0  0
   58.6353   32.1734   52.4997 H   0  0  0  0  0  0  0  0  0  0  0  0
   60.1485   34.1234   52.1047 H   0  0  0  0  0  0  0  0  0  0  0  0
   60.5707   34.9180   49.7762 H   0  0  0  0  0  0  0  0  0  0  0  0
  1  2  1  0
  2  3  1  0
  3  4  2  0
  3  5  1  0
  5  6  2  0
  6  7  1  0
  7  8  1  0
  8  9  1  0
  8 10  2  0
  8 11  2  0
  7 12  2  0
 12 13  1  0
 13 14  2  0
 14 15  1  0
 15 16  1  0
 16 17  1  0
 17 18  1  0
 18 19  1  0
 19 20  1  0
  2 21  1  0
 21 22  2  0
 22 23  1  0
 23 24  2  0
 24 25  1  0
 25 26  2  0
 14  5  1  0
 20 15  1  0
 26 21  1  0
  1 27  1  0
  1 28  1  0
  1 29  1  0
  6 30  1  0
  9 31  1  0
 12 32  1  0
 13 33  1  0
 16 34  1  0
 16 35  1  0
 17 36  1  0
 17 37  1  0
 19 38  1  0
 19 39  1  0
 20 40  1  0
 20 41  1  0
 22 42  1  0
 23 43  1  0
 24 44  1  0
 25 45  1  0
 26 46  1  0
M  CHG  1   9  -1
M  END
>  <UniqueID>  (65) 
57

>  <SMILES>  (65) 
CN(C(=O)c1cc(S([NH-])(=O)=O)ccc1N1CCOCC1)c1ccccc1

>  <Energy>  (65) 
64.66933036087721

>  <Genealogy>  (65) 
CN(C(=O)c1cc(S([NH-])(=O)=O)ccc1N1CCOCC1)c1ccccc1 (protonated)
CN(C(=O)c1cc(S([NH-])(=O)=O)ccc1N1CCOCC1)c1ccccc1 (3D coordinates assigned)
CN(C(=O)c1cc(S([NH-])(=O)=O)ccc1N1CCOCC1)c1ccccc1 (nonaromatic ring conformer: 64.66933036087721 kcal/mol)

>  <smiles>  (65) 
CN(C(=O)c1cc(S(N)(=O)=O)ccc1N1CCOCC1)c1ccccc1

>  <score_type>  (65) 
oracle

>  <origin>  (65) 
adg

>  <m_score__min__energy>  (65) 
-10.890000000000001

>  <m_primary>  (65) 
energy

$$$$
65:0
     RDKit          3D

 60 62  0  0  0  0  0  0  0  0999 V2000
   59.5960   24.8360   45.9830 C   0  0  0  0  0  0  0  0  0  0  0  0
   58.4370   25.6620   46.5610 C   0  0  1  0  0  0  0  0  0  0  0  0
   58.8670   26.6320   47.6850 C   0  0  0  0  0  0  0  0  0  0  0  0
   60.3160   27.1400   47.5860 C   0  0  0  0  0  0  0  0  0  0  0  0
   60.7100   27.8910   48.8260 C   0  0  0  0  0  0  0  0  0  0  0  0
   60.8300   27.2710   49.9180 O   0  0  0  0  0  0  0  0  0  0  0  0
   60.9050   29.3130   48.7810 N   0  0  0  0  0  0  0  0  0  0  0  0
   61.3500   30.0580   49.9580 C   0  0  0  0  0  0  0  0  0  0  0  0
   62.2670   31.1850   49.5590 C   0  0  0  0  0  0  0  0  0  0  0  0
   62.8110   31.2260   48.2650 C   0  0  0  0  0  0  0  0  0  0  0  0
   63.6900   32.2510   47.9020 C   0  0  0  0  0  0  0  0  0  0  0  0
   64.0430   33.2330   48.8300 C   0  0  0  0  0  0  0  0  0  0  0  0
   63.5170   33.1930   50.1230 C   0  0  0  0  0  0  0  0  0  0  0  0
   62.6340   32.1720   50.4920 C   0  0  0  0  0  0  0  0  0  0  0  0
   62.1460   32.1430   51.7570 F   0  0  0  0  0  0  0  0  0  0  0  0
   57.6470   26.3320   45.5220 N   0  0  0  0  0  0  0  0  0  0  0  0
   56.5710   27.2680   45.6950 C   0  0  0  0  0  0  0  0  0  0  0  0
   55.4270   26.8580   46.0310 O   0  0  0  0  0  0  0  0  0  0  0  0
   56.8120   28.7180   45.4690 C   0  0  0  0  0  0  0  0  0  0  0  0
   57.9610   29.3250   46.0160 C   0  0  0  0  0  0  0  0  0  0  0  0
   58.2350   30.6800   45.7930 C   0  0  0  0  0  0  0  0  0  0  0  0
   59.7070   31.4030   46.4420 S   0  0  0  0  0  0  0  0  0  0  0  0
   59.6170   31.4440   47.9420 O   0  0  0  0  0  0  0  0  0  0  0  0
   60.8760   30.5290   46.0790 O   0  0  0  0  0  0  0  0  0  0  0  0
   59.9860   33.0230   45.8350 N   0  0  0  0  0  0  0  0  0  0  0  0
   58.8040   33.9000   45.9650 C   0  0  0  0  0  0  0  0  0  0  0  0
   58.8980   34.8610   47.1640 C   0  0  0  0  0  0  0  0  0  0  0  0
   59.6830   34.2960   48.1880 O   0  0  0  0  0  0  0  0  0  0  0  0
   61.0350   34.2420   47.7770 C   0  0  0  0  0  0  0  0  0  0  0  0
   61.2220   33.6230   46.3720 C   0  0  0  0  0  0  0  0  0  0  0  0
   57.3430   31.4510   45.0390 C   0  0  0  0  0  0  0  0  0  0  0  0
   56.1960   30.8690   44.4980 C   0  0  0  0  0  0  0  0  0  0  0  0
   55.9250   29.5130   44.7040 C   0  0  0  0  0  0  0  0  0  0  0  0
   54.7720   28.9720   44.1410 O   0  0  0  0  0  0  0  0  0  0  0  0
   60.1904   24.4124   46.8059 H   0  0  0  0  0  0  0  0  0  0  0  0
   59.1925   24.0207   45.3646 H   0  0  0  0  0  0  0  0  0  0  0  0
   60.2350   25.4835   45.3646 H   0  0  0  0  0  0  0  0  0  0  0  0
   57.7731   24.9279   47.0409 H   0  0  0  0  0  0  0  0  0  0  0  0
   58.1970   27.5040   47.6581 H   0  0  0  0  0  0  0  0  0  0  0  0
   58.8043   26.0621   48.6238 H   0  0  0  0  0  0  0  0  0  0  0  0
   60.9903   26.2806   47.4567 H   0  0  0  0  0  0  0  0  0  0  0  0
   60.3901   27.8214   46.7256 H   0  0  0  0  0  0  0  0  0  0  0  0
   60.7380   29.8170   47.8810 H   0  0  0  0  0  0  0  0  0  0  0  0
   60.4726   30.4724   50.4761 H   0  0  0  0  0  0  0  0  0  0  0  0
   61.8981   29.3744   50.6231 H   0  0  0  0  0  0  0  0  0  0  0  0
   62.5445   30.4485   47.5339 H   0  0  0  0  0  0  0  0  0  0  0  0
   64.1042   32.2839   46.8835 H   0  0  0  0  0  0  0  0  0  0  0  0
   64.7353   34.0380   48.5425 H   0  0  0  0  0  0  0  0  0  0  0  0
   63.7975   33.9662   50.8534 H   0  0  0  0  0  0  0  0  0  0  0  0
   58.6521   28.7255   46.6267 H   0  0  0  0  0  0  0  0  0  0  0  0
   58.7062   34.4954   45.0452 H   0  0  0  0  0  0  0  0  0  0  0  0
   57.9300   33.2526   46.1295 H   0  0  0  0  0  0  0  0  0  0  0  0
   59.3562   35.8056   46.8359 H   0  0  0  0  0  0  0  0  0  0  0  0
   57.8856   35.0458   47.5524 H   0  0  0  0  0  0  0  0  0  0  0  0
   61.4373   35.2657   47.7641 H   0  0  0  0  0  0  0  0  0  0  0  0
   61.5676   33.5969   48.4912 H   0  0  0  0  0  0  0  0  0  0  0  0
   61.5558   34.4129   45.6830 H   0  0  0  0  0  0  0  0  0  0  0  0
   61.9646   32.8168   46.4649 H   0  0  0  0  0  0  0  0  0  0  0  0
   57.5467   32.5190   44.8723 H   0  0  0  0  0  0  0  0  0  0  0  0
   55.5003   31.4812   43.9054 H   0  0  0  0  0  0  0  0  0  0  0  0
  1  2  1  0
  2  3  1  0
  3  4  1  0
  4  5  1  0
  5  6  2  0
  5  7  1  0
  7  8  1  0
  8  9  1  0
  9 10  2  0
 10 11  1  0
 11 12  2  0
 12 13  1  0
 13 14  2  0
 14 15  1  0
  2 16  1  0
 16 17  1  0
 17 18  2  0
 17 19  1  0
 19 20  2  0
 20 21  1  0
 21 22  1  0
 22 23  2  0
 22 24  2  0
 22 25  1  0
 25 26  1  0
 26 27  1  0
 27 28  1  0
 28 29  1  0
 29 30  1  0
 21 31  2  0
 31 32  1  0
 32 33  2  0
 33 34  1  0
 14  9  1  0
 33 19  1  0
 30 25  1  0
  1 35  1  0
  1 36  1  0
  1 37  1  0
  2 38  1  1
  3 39  1  0
  3 40  1  0
  4 41  1  0
  4 42  1  0
  7 43  1  0
  8 44  1  0
  8 45  1  0
 10 46  1  0
 11 47  1  0
 12 48  1  0
 13 49  1  0
 20 50  1  0
 26 51  1  0
 26 52  1  0
 27 53  1  0
 27 54  1  0
 29 55  1  0
 29 56  1  0
 30 57  1  0
 30 58  1  0
 31 59  1  0
 32 60  1  0
M  CHG  2  16  -1  34  -1
M  END
>  <UniqueID>  (66) 
58

>  <SMILES>  (66) 
C[C@@H](CCC(=O)NCc1ccccc1F)[N-]C(=O)c1cc(S(=O)(=O)N2CCOCC2)ccc1[O-]

>  <Energy>  (66) 
69.1475260454306

>  <Genealogy>  (66) 
CC(CCC(=O)NCc1ccccc1F)[N-]C(=O)c1cc(S(=O)(=O)N2CCOCC2)ccc1[O-] (protonated)
C[C@@H](CCC(=O)NCc1ccccc1F)[N-]C(=O)c1cc(S(=O)(=O)N2CCOCC2)ccc1[O-] (chirality)
C[C@@H](CCC(=O)NCc1ccccc1F)[N-]C(=O)c1cc(S(=O)(=O)N2CCOCC2)ccc1[O-] (3D coordinates assigned)
C[C@@H](CCC(=O)NCc1ccccc1F)[N-]C(=O)c1cc(S(=O)(=O)N2CCOCC2)ccc1[O-] (nonaromatic ring conformer: 69.1475260454306 kcal/mol)

>  <smiles>  (66) 
CC(CCC(=O)NCc1ccccc1F)NC(=O)c1cc(S(=O)(=O)N2CCOCC2)ccc1O

>  <score_type>  (66) 
oracle

>  <origin>  (66) 
adg

>  <m_score__min__energy>  (66) 
-14.5

>  <m_primary>  (66) 
energy

$$$$
66:0
     RDKit          3D

 40 43  0  0  0  0  0  0  0  0999 V2000
   64.0733   34.6571   47.8230 H   0  0  0  0  0  0  0  0  0  0  0  0
   63.3280   33.8510   47.8920 C   0  0  0  0  0  0  0  0  0  0  0  0
   62.2740   33.9750   48.7400 N   0  0  0  0  0  0  0  0  0  0  0  0
   61.3290   33.0020   48.8560 C   0  0  0  0  0  0  0  0  0  0  0  0
   60.2580   33.1750   49.7370 C   0  0  0  0  0  0  0  0  0  0  0  0
   60.1802   34.0961   50.3333 H   0  0  0  0  0  0  0  0  0  0  0  0
   59.2860   32.1790   49.8610 C   0  0  0  0  0  0  0  0  0  0  0  0
   58.4459   32.3170   50.5575 H   0  0  0  0  0  0  0  0  0  0  0  0
   59.3770   31.0090   49.1040 C   0  0  0  0  0  0  0  0  0  0  0  0
   58.6128   30.2258   49.2162 H   0  0  0  0  0  0  0  0  0  0  0  0
   60.4370   30.8240   48.2000 C   0  0  0  0  0  0  0  0  0  0  0  0
   60.5480   29.6050   47.4480 N   0  0  0  0  0  0  0  0  0  0  0  0
   59.7370   29.2210   46.5100 C   0  0  0  0  0  0  0  0  0  0  0  0
   58.6120   29.9020   46.2140 N   0  0  0  0  0  0  0  0  0  0  0  0
   57.8600   29.2510   45.2890 C   0  0  0  0  0  0  0  0  0  0  0  0
   56.5380   29.7520   44.8940 C   0  0  0  0  0  0  0  0  0  0  0  0
   55.5550   28.9690   44.9140 O   0  0  0  0  0  0  0  0  0  0  0  0
   56.3550   31.0940   44.4210 N   0  0  0  0  0  0  0  0  0  0  0  0
   57.4020   31.9350   43.8400 C   0  0  0  0  0  0  0  0  0  0  0  0
   58.1968   31.2915   43.4349 H   0  0  0  0  0  0  0  0  0  0  0  0
   56.9571   32.5469   43.0415 H   0  0  0  0  0  0  0  0  0  0  0  0
   57.9940   32.8560   44.8780 C   0  0  0  0  0  0  0  0  0  0  0  0
   58.9780   33.7950   44.5210 C   0  0  0  0  0  0  0  0  0  0  0  0
   59.3541   33.8271   43.4878 H   0  0  0  0  0  0  0  0  0  0  0  0
   59.4810   34.6880   45.4720 C   0  0  0  0  0  0  0  0  0  0  0  0
   60.2401   35.4295   45.1824 H   0  0  0  0  0  0  0  0  0  0  0  0
   59.0200   34.6390   46.7900 C   0  0  0  0  0  0  0  0  0  0  0  0
   59.4126   35.3450   47.5366 H   0  0  0  0  0  0  0  0  0  0  0  0
   58.0600   33.6930   47.1600 C   0  0  0  0  0  0  0  0  0  0  0  0
   57.7054   33.6489   48.2004 H   0  0  0  0  0  0  0  0  0  0  0  0
   57.5490   32.8020   46.2100 C   0  0  0  0  0  0  0  0  0  0  0  0
   56.7964   32.0567   46.5067 H   0  0  0  0  0  0  0  0  0  0  0  0
   58.3870   28.0440   44.8330 C   0  0  0  0  0  0  0  0  0  0  0  0
   57.9323   27.3812   44.0821 H   0  0  0  0  0  0  0  0  0  0  0  0
   59.8420   27.7810   45.6350 S   0  0  0  0  0  0  0  0  0  0  0  0
   61.4310   31.8190   48.0850 C   0  0  0  0  0  0  0  0  0  0  0  0
   62.5180   31.6860   47.2040 C   0  0  0  0  0  0  0  0  0  0  0  0
   62.6200   30.7792   46.5898 H   0  0  0  0  0  0  0  0  0  0  0  0
   63.4690   32.7050   47.1080 C   0  0  0  0  0  0  0  0  0  0  0  0
   64.3217   32.6049   46.4203 H   0  0  0  0  0  0  0  0  0  0  0  0
  1  2  1  0
  2  3  2  0
  3  4  1  0
  4  5  2  0
  5  6  1  0
  5  7  1  0
  7  8  1  0
  7  9  2  0
  9 10  1  0
  9 11  1  0
 11 12  1  0
 12 13  2  0
 13 14  1  0
 14 15  1  0
 15 16  1  0
 16 17  2  0
 16 18  1  0
 18 19  1  0
 19 20  1  0
 19 21  1  0
 19 22  1  0
 22 23  2  0
 23 24  1  0
 23 25  1  0
 25 26  1  0
 25 27  2  0
 27 28  1  0
 27 29  1  0
 29 30  1  0
 29 31  2  0
 31 32  1  0
 15 33  2  0
 33 34  1  0
 33 35  1  0
 11 36  2  0
 36 37  1  0
 37 38  1  0
 37 39  2  0
 39 40  1  0
 39  2  1  0
 36  4  1  0
 35 13  1  0
 31 22  1  0
M  CHG  2  14  -1  18  -1
M  END
>  <UniqueID>  (67) 
59

>  <SMILES>  (67) 
O=C([N-]Cc1ccccc1)c1cs/c(=N\c2cccc3ncccc23)[n-]1

>  <Energy>  (67) 
87.50526117843378

>  <Genealogy>  (67) 
O=C([N-]Cc1ccccc1)c1csc(=Nc2cccc3ncccc23)[n-]1 (protonated)
O=C([N-]Cc1ccccc1)c1cs/c(=N\c2cccc3ncccc23)[n-]1 (cis-trans isomerization)
O=C([N-]Cc1ccccc1)c1cs/c(=N\c2cccc3ncccc23)[n-]1 (3D coordinates assigned)
O=C([N-]Cc1ccccc1)c1cs/c(=N\c2cccc3ncccc23)[n-]1 (optimized conformer: 87.50526117843378 kcal/mol)

>  <smiles>  (67) 
O=C(NCc1ccccc1)c1csc(=Nc2cccc3ncccc23)[nH]1

>  <score_type>  (67) 
oracle

>  <origin>  (67) 
adg

>  <m_score__min__energy>  (67) 
-12.49

>  <m_primary>  (67) 
energy

$$$$
67:0
     RDKit          3D

 34 36  0  0  0  0  0  0  0  0999 V2000
   60.3311   33.1101   49.0067 H   0  0  0  0  0  0  0  0  0  0  0  0
   61.3260   32.9240   48.5760 C   0  0  0  0  0  0  0  0  0  0  0  0
   62.3600   33.7510   48.8770 N   0  0  0  0  0  0  0  0  0  0  0  0
   63.5950   33.5460   48.3490 C   0  0  0  0  0  0  0  0  0  0  0  0
   64.4229   34.2218   48.6097 H   0  0  0  0  0  0  0  0  0  0  0  0
   63.8090   32.5070   47.4990 N   0  0  0  0  0  0  0  0  0  0  0  0
   64.7590   32.3640   47.0880 H   0  0  0  0  0  0  0  0  0  0  0  0
   62.8010   31.6570   47.1720 C   0  0  0  0  0  0  0  0  0  0  0  0
   62.9872   30.8259   46.4759 H   0  0  0  0  0  0  0  0  0  0  0  0
   61.5230   31.8380   47.7210 C   0  0  0  0  0  0  0  0  0  0  0  0
   60.4390   31.0050   47.4070 O   0  0  0  0  0  0  0  0  0  0  0  0
   59.3980   31.3220   46.5230 C   0  0  0  0  0  0  0  0  0  0  0  0
   59.0940   32.6520   46.1830 C   0  0  0  0  0  0  0  0  0  0  0  0
   59.6738   33.4770   46.6225 H   0  0  0  0  0  0  0  0  0  0  0  0
   58.0570   32.9280   45.2880 C   0  0  0  0  0  0  0  0  0  0  0  0
   57.6780   34.5900   44.8760 Cl  0  0  0  0  0  0  0  0  0  0  0  0
   57.3280   31.8820   44.7140 C   0  0  0  0  0  0  0  0  0  0  0  0
   56.5087   32.1064   44.0151 H   0  0  0  0  0  0  0  0  0  0  0  0
   57.6350   30.5450   45.0240 C   0  0  0  0  0  0  0  0  0  0  0  0
   56.8670   29.4350   44.4140 C   0  0  0  0  0  0  0  0  0  0  0  0
   56.7060   29.3920   43.1630 O   0  0  0  0  0  0  0  0  0  0  0  0
   56.2070   28.4700   45.2490 N   0  0  0  0  0  0  0  0  0  0  0  0
   56.6390   27.3120   45.6680 C   0  0  0  0  0  0  0  0  0  0  0  0
   57.9860   27.1080   45.6810 N   0  0  0  0  0  0  0  0  0  0  0  0
   58.5490   25.9490   46.1050 C   0  0  0  0  0  0  0  0  0  0  0  0
   59.6431   25.8351   46.0990 H   0  0  0  0  0  0  0  0  0  0  0  0
   57.7430   24.9030   46.5480 C   0  0  0  0  0  0  0  0  0  0  0  0
   58.1944   23.9681   46.9117 H   0  0  0  0  0  0  0  0  0  0  0  0
   56.3580   25.0550   46.5250 C   0  0  0  0  0  0  0  0  0  0  0  0
   55.7108   24.2335   46.8660 H   0  0  0  0  0  0  0  0  0  0  0  0
   55.7880   26.2480   46.0700 C   0  0  0  0  0  0  0  0  0  0  0  0
   54.4030   26.3230   45.9780 O   0  0  0  0  0  0  0  0  0  0  0  0
   58.6780   30.2780   45.9290 C   0  0  0  0  0  0  0  0  0  0  0  0
   58.9314   29.2358   46.1733 H   0  0  0  0  0  0  0  0  0  0  0  0
  1  2  1  0
  2  3  2  0
  3  4  1  0
  4  5  1  0
  4  6  2  0
  6  7  1  0
  6  8  1  0
  8  9  1  0
  8 10  2  0
 10 11  1  0
 11 12  1  0
 12 13  2  0
 13 14  1  0
 13 15  1  0
 15 16  1  0
 15 17  2  0
 17 18  1  0
 17 19  1  0
 19 20  1  0
 20 21  2  0
 20 22  1  0
 22 23  2  0
 23 24  1  0
 24 25  1  0
 25 26  1  0
 25 27  2  0
 27 28  1  0
 27 29  1  0
 29 30  1  0
 29 31  2  0
 31 32  1  0
 19 33  2  0
 33 34  1  0
 10  2  1  0
 33 12  1  0
 31 23  1  0
M  CHG  3   6   1  24  -1  32  -1
M  END
>  <UniqueID>  (68) 
60

>  <SMILES>  (68) 
O=C(/N=c1/[n-]cccc1[O-])c1cc(Cl)cc(Oc2cnc[nH+]c2)c1

>  <Energy>  (68) 
57.42946180215038

>  <Genealogy>  (68) 
O=C(N=c1[n-]cccc1[O-])c1cc(Cl)cc(Oc2cnc[nH+]c2)c1 (protonated)
O=C(/N=c1/[n-]cccc1[O-])c1cc(Cl)cc(Oc2cnc[nH+]c2)c1 (cis-trans isomerization)
O=C(/N=c1/[n-]cccc1[O-])c1cc(Cl)cc(Oc2cnc[nH+]c2)c1 (3D coordinates assigned)
O=C(/N=c1/[n-]cccc1[O-])c1cc(Cl)cc(Oc2cnc[nH+]c2)c1 (optimized conformer: 57.42946180215038 kcal/mol)

>  <smiles>  (68) 
O=C(N=c1[nH]cccc1O)c1cc(Cl)cc(Oc2cncnc2)c1

>  <score_type>  (68) 
oracle

>  <origin>  (68) 
adg

>  <m_score__min__energy>  (68) 
-12.210000000000001

>  <m_primary>  (68) 
energy

$$$$
68:0
     RDKit          3D

 28 29  0  0  0  0  0  0  0  0999 V2000
   60.4163   26.4452   46.9452 H   0  0  0  0  0  0  0  0  0  0  0  0
   59.4710   26.7540   46.4750 C   0  0  0  0  0  0  0  0  0  0  0  0
   59.4590   27.7720   45.5770 N   0  0  0  0  0  0  0  0  0  0  0  0
   58.3010   28.1720   44.9800 C   0  0  0  0  0  0  0  0  0  0  0  0
   58.2970   29.1460   44.1210 N   0  0  0  0  0  0  0  0  0  0  0  0
   57.1200   30.4190   44.1100 S   0  0  0  0  0  0  0  0  0  0  0  0
   56.7370   30.7500   42.6940 O   0  0  0  0  0  0  0  0  0  0  0  0
   55.8920   29.9860   44.8630 O   0  0  0  0  0  0  0  0  0  0  0  0
   57.8120   31.8420   44.8800 C   0  0  0  0  0  0  0  0  0  0  0  0
   58.4410   31.7330   46.1270 C   0  0  0  0  0  0  0  0  0  0  0  0
   58.4945   30.7564   46.6303 H   0  0  0  0  0  0  0  0  0  0  0  0
   59.0010   32.8610   46.7340 C   0  0  0  0  0  0  0  0  0  0  0  0
   59.4796   32.7715   47.7204 H   0  0  0  0  0  0  0  0  0  0  0  0
   58.9550   34.1070   46.0900 C   0  0  0  0  0  0  0  0  0  0  0  0
   59.5220   35.3240   46.7570 C   0  0  0  0  0  0  0  0  0  0  0  0
   59.4658   35.2034   47.8489 H   0  0  0  0  0  0  0  0  0  0  0  0
   60.5722   35.4515   46.4557 H   0  0  0  0  0  0  0  0  0  0  0  0
   58.9440   36.2101   46.4557 H   0  0  0  0  0  0  0  0  0  0  0  0
   58.3170   34.2160   44.8450 C   0  0  0  0  0  0  0  0  0  0  0  0
   58.2580   35.1931   44.3431 H   0  0  0  0  0  0  0  0  0  0  0  0
   57.7560   33.0870   44.2400 C   0  0  0  0  0  0  0  0  0  0  0  0
   57.2689   33.1768   43.2578 H   0  0  0  0  0  0  0  0  0  0  0  0
   57.1320   27.5410   45.2870 N   0  0  0  0  0  0  0  0  0  0  0  0
   56.2390   27.8410   44.8340 H   0  0  0  0  0  0  0  0  0  0  0  0
   57.1060   26.5180   46.1820 C   0  0  0  0  0  0  0  0  0  0  0  0
   56.1547   26.0189   46.4187 H   0  0  0  0  0  0  0  0  0  0  0  0
   58.2840   26.1010   46.8000 C   0  0  0  0  0  0  0  0  0  0  0  0
   58.2765   25.2757   47.5272 H   0  0  0  0  0  0  0  0  0  0  0  0
  1  2  1  0
  2  3  2  0
  3  4  1  0
  4  5  2  0
  5  6  1  0
  6  7  2  0
  6  8  2  0
  6  9  1  0
  9 10  2  0
 10 11  1  0
 10 12  1  0
 12 13  1  0
 12 14  2  0
 14 15  1  0
 15 16  1  0
 15 17  1  0
 15 18  1  0
 14 19  1  0
 19 20  1  0
 19 21  2  0
 21 22  1  0
  4 23  1  0
 23 24  1  0
 23 25  1  0
 25 26  1  0
 25 27  2  0
 27 28  1  0
 27  2  1  0
 21  9  1  0
M  END
>  <UniqueID>  (69) 
61

>  <SMILES>  (69) 
Cc1ccc(S(=O)(=O)/N=c2\nccc[nH]2)cc1

>  <Energy>  (69) 
32.1744944516798

>  <Genealogy>  (69) 
Cc1ccc(S(=O)(=O)/N=c2\nccc[nH]2)cc1 (cis-trans isomerization)
Cc1ccc(S(=O)(=O)/N=c2\nccc[nH]2)cc1 (3D coordinates assigned)
Cc1ccc(S(=O)(=O)/N=c2\nccc[nH]2)cc1 (optimized conformer: 32.1744944516798 kcal/mol)

>  <smiles>  (69) 
Cc1ccc(S(=O)(=O)N=c2nccc[nH]2)cc1

>  <score_type>  (69) 
oracle

>  <origin>  (69) 
adg

>  <m_score__min__energy>  (69) 
-6.79

>  <m_primary>  (69) 
energy

$$$$
69:0
     RDKit          3D

 34 36  0  0  0  0  0  0  0  0999 V2000
   55.1360   26.7200   45.9900 N   0  0  0  0  0  0  0  0  0  0  0  0
   56.3180   26.1270   46.5290 C   0  0  0  0  0  0  0  0  0  0  0  0
   56.2570   24.9540   46.9870 O   0  0  0  0  0  0  0  0  0  0  0  0
   57.5970   26.8830   46.5420 C   0  0  0  0  0  0  0  0  0  0  0  0
   58.5370   26.6240   47.5570 C   0  0  0  0  0  0  0  0  0  0  0  0
   59.7640   27.2900   47.5790 C   0  0  0  0  0  0  0  0  0  0  0  0
   60.0740   28.2200   46.5900 C   0  0  0  0  0  0  0  0  0  0  0  0
   59.1610   28.4860   45.5720 C   0  0  0  0  0  0  0  0  0  0  0  0
   57.9270   27.8200   45.5310 C   0  0  0  0  0  0  0  0  0  0  0  0
   57.0230   28.0910   44.4530 N   0  0  0  0  0  0  0  0  0  0  0  0
   56.2900   29.3160   44.3120 C   0  0  0  0  0  0  0  0  0  0  0  0
   55.1700   29.4240   44.8750 O   0  0  0  0  0  0  0  0  0  0  0  0
   56.8040   30.4540   43.4680 C   0  0  0  0  0  0  0  0  0  0  0  0
   57.5460   31.4050   44.2920 N   0  0  0  0  0  0  0  0  0  0  0  0
   57.7820   31.2720   45.9400 S   0  0  0  0  0  0  0  0  0  0  0  0
   58.5380   32.7370   46.1910 C   0  0  0  0  0  0  0  0  0  0  0  0
   58.9910   33.3220   47.3680 C   0  0  0  0  0  0  0  0  0  0  0  0
   59.5550   34.6040   47.2880 C   0  0  0  0  0  0  0  0  0  0  0  0
   59.6500   35.2640   46.0470 C   0  0  0  0  0  0  0  0  0  0  0  0
   59.1830   34.6480   44.8700 C   0  0  0  0  0  0  0  0  0  0  0  0
   58.6230   33.3690   44.9580 C   0  0  0  0  0  0  0  0  0  0  0  0
   58.0720   32.6030   43.9100 C   0  0  0  0  0  0  0  0  0  0  0  0
   58.0510   33.0000   42.7130 O   0  0  0  0  0  0  0  0  0  0  0  0
   55.1480   27.2040   45.0660 H   0  0  0  0  0  0  0  0  0  0  0  0
   58.3025   25.8891   48.3412 H   0  0  0  0  0  0  0  0  0  0  0  0
   60.4879   27.0794   48.3800 H   0  0  0  0  0  0  0  0  0  0  0  0
   61.0404   28.7449   46.6126 H   0  0  0  0  0  0  0  0  0  0  0  0
   59.4095   29.2236   44.7947 H   0  0  0  0  0  0  0  0  0  0  0  0
   57.4687   30.0549   42.6876 H   0  0  0  0  0  0  0  0  0  0  0  0
   55.9491   30.9715   43.0083 H   0  0  0  0  0  0  0  0  0  0  0  0
   58.9098   32.7966   48.3310 H   0  0  0  0  0  0  0  0  0  0  0  0
   59.9251   35.0966   48.1992 H   0  0  0  0  0  0  0  0  0  0  0  0
   60.0930   36.2696   45.9970 H   0  0  0  0  0  0  0  0  0  0  0  0
   59.2570   35.1623   43.9005 H   0  0  0  0  0  0  0  0  0  0  0  0
  1  2  1  0
  2  3  2  0
  2  4  1  0
  4  5  2  0
  5  6  1  0
  6  7  2  0
  7  8  1  0
  8  9  2  0
  9 10  1  0
 10 11  1  0
 11 12  2  0
 11 13  1  0
 13 14  1  0
 14 15  1  0
 15 16  1  0
 16 17  2  0
 17 18  1  0
 18 19  2  0
 19 20  1  0
 20 21  2  0
 21 22  1  0
 22 23  2  0
  9  4  1  0
 22 14  1  0
 21 16  1  0
  1 24  1  0
  5 25  1  0
  6 26  1  0
  7 27  1  0
  8 28  1  0
 13 29  1  0
 13 30  1  0
 17 31  1  0
 18 32  1  0
 19 33  1  0
 20 34  1  0
M  CHG  2   1  -1  10  -1
M  END
>  <UniqueID>  (70) 
62

>  <SMILES>  (70) 
[NH-]C(=O)c1ccccc1[N-]C(=O)Cn1sc2ccccc2c1=O

>  <Energy>  (70) 
80.52389227052363

>  <Genealogy>  (70) 
[NH-]C(=O)c1ccccc1[N-]C(=O)Cn1sc2ccccc2c1=O (protonated)
[NH-]C(=O)c1ccccc1[N-]C(=O)Cn1sc2ccccc2c1=O (3D coordinates assigned)
[NH-]C(=O)c1ccccc1[N-]C(=O)Cn1sc2ccccc2c1=O (optimized conformer: 80.52389227052363 kcal/mol)

>  <smiles>  (70) 
NC(=O)c1ccccc1NC(=O)Cn1sc2ccccc2c1=O

>  <score_type>  (70) 
oracle

>  <origin>  (70) 
adg

>  <m_score__min__energy>  (70) 
-14.27

>  <m_primary>  (70) 
energy

$$$$
70:0
     RDKit          3D

 66 70  0  0  0  0  0  0  0  0999 V2000
   65.9918   32.9418   51.2327 H   0  0  0  0  0  0  0  0  0  0  0  0
   65.0900   33.2680   50.6940 C   0  0  0  0  0  0  0  0  0  0  0  0
   64.1590   34.1010   51.3270 C   0  0  0  0  0  0  0  0  0  0  0  0
   64.3255   34.4209   52.3662 H   0  0  0  0  0  0  0  0  0  0  0  0
   63.0170   34.5270   50.6390 C   0  0  0  0  0  0  0  0  0  0  0  0
   62.2780   35.1652   51.1455 H   0  0  0  0  0  0  0  0  0  0  0  0
   62.8110   34.1410   49.3000 C   0  0  0  0  0  0  0  0  0  0  0  0
   61.6380   34.5380   48.5630 N   0  0  0  0  0  0  0  0  0  0  0  0
   61.3040   35.5200   48.6980 H   0  0  0  0  0  0  0  0  0  0  0  0
   60.7600   33.6340   47.8710 C   0  0  0  0  0  0  0  0  0  0  0  0
   60.1430   34.0030   46.7150 N   0  0  0  0  0  0  0  0  0  0  0  0
   59.3270   33.1330   46.0730 C   0  0  0  0  0  0  0  0  0  0  0  0
   59.1140   31.8380   46.5120 C   0  0  0  0  0  0  0  0  0  0  0  0
   58.3360   31.2520   45.4980 C   0  0  0  0  0  0  0  0  0  0  0  0
   58.1350   29.8360   45.1660 C   0  0  0  0  0  0  0  0  0  0  0  0
   59.1350   29.1180   44.4960 C   0  0  0  0  0  0  0  0  0  0  0  0
   60.0835   29.6097   44.2340 H   0  0  0  0  0  0  0  0  0  0  0  0
   58.9270   27.7780   44.1610 C   0  0  0  0  0  0  0  0  0  0  0  0
   59.6970   27.2258   43.6022 H   0  0  0  0  0  0  0  0  0  0  0  0
   57.7410   27.1370   44.5350 C   0  0  0  0  0  0  0  0  0  0  0  0
   57.5724   26.0887   44.2474 H   0  0  0  0  0  0  0  0  0  0  0  0
   56.7670   27.8210   45.2730 C   0  0  0  0  0  0  0  0  0  0  0  0
   55.5650   27.1300   45.6350 N   0  0  0  0  0  0  0  0  0  0  0  0
   55.4580   25.7480   46.0060 C   0  0  0  0  0  0  0  0  0  0  0  0
   54.5910   25.0080   45.4670 O   0  0  0  0  0  0  0  0  0  0  0  0
   56.3040   25.2090   47.0290 N   0  0  0  0  0  0  0  0  0  0  0  0
   57.7550   25.0820   46.8990 C   0  0  0  0  0  0  0  0  0  0  0  0
   58.1608   26.0162   46.4836 H   0  0  0  0  0  0  0  0  0  0  0  0
   58.1771   24.8838   47.8953 H   0  0  0  0  0  0  0  0  0  0  0  0
   58.1300   23.9220   45.9760 C   0  0  0  0  0  0  0  0  0  0  0  0
   57.5450   24.0850   44.7270 F   0  0  0  0  0  0  0  0  0  0  0  0
   57.7150   22.7130   46.5110 F   0  0  0  0  0  0  0  0  0  0  0  0
   59.5020   23.8860   45.8250 F   0  0  0  0  0  0  0  0  0  0  0  0
   56.9630   29.1800   45.5800 C   0  0  0  0  0  0  0  0  0  0  0  0
   56.1969   29.7306   46.1456 H   0  0  0  0  0  0  0  0  0  0  0  0
   58.1120   32.2450   44.5520 C   0  0  0  0  0  0  0  0  0  0  0  0
   57.5194   32.1115   43.6349 H   0  0  0  0  0  0  0  0  0  0  0  0
   58.7170   33.3900   44.9090 N   0  0  0  0  0  0  0  0  0  0  0  0
   58.7690   34.2710   44.3530 H   0  0  0  0  0  0  0  0  0  0  0  0
   59.7020   31.4180   47.7430 C   0  0  0  0  0  0  0  0  0  0  0  0
   59.4680   30.3030   48.3820 N   0  0  0  0  0  0  0  0  0  0  0  0
   59.4590   30.0020   49.8040 C   0  0  0  0  0  0  0  0  0  0  0  0
   59.4252   28.9116   49.9452 H   0  0  0  0  0  0  0  0  0  0  0  0
   60.3706   30.4102   50.2648 H   0  0  0  0  0  0  0  0  0  0  0  0
   58.2280   30.6400   50.4700 C   0  0  0  0  0  0  0  0  0  0  0  0
   57.3907   30.5834   49.7589 H   0  0  0  0  0  0  0  0  0  0  0  0
   58.4650   32.1380   50.7910 C   0  0  0  0  0  0  0  0  0  0  0  0
   59.5351   32.2886   50.9967 H   0  0  0  0  0  0  0  0  0  0  0  0
   58.1317   32.7208   49.9196 H   0  0  0  0  0  0  0  0  0  0  0  0
   57.6550   32.6220   52.0120 C   0  0  0  0  0  0  0  0  0  0  0  0
   58.2521   32.4644   52.9223 H   0  0  0  0  0  0  0  0  0  0  0  0
   57.4263   33.6890   51.8734 H   0  0  0  0  0  0  0  0  0  0  0  0
   56.3850   31.8910   52.1410 N   0  0  0  0  0  0  0  0  0  0  0  0
   55.8530   31.9890   51.2450 H   0  0  0  0  0  0  0  0  0  0  0  0
   56.5960   30.4590   52.4270 C   0  0  0  0  0  0  0  0  0  0  0  0
   56.6988   30.3340   53.5150 H   0  0  0  0  0  0  0  0  0  0  0  0
   55.7271   29.9196   52.0218 H   0  0  0  0  0  0  0  0  0  0  0  0
   57.8540   29.8650   51.7460 C   0  0  0  0  0  0  0  0  0  0  0  0
   58.6968   29.9110   52.4513 H   0  0  0  0  0  0  0  0  0  0  0  0
   57.6333   28.8249   51.4641 H   0  0  0  0  0  0  0  0  0  0  0  0
   60.5470   32.3410   48.3890 C   0  0  0  0  0  0  0  0  0  0  0  0
   61.0528   32.0456   49.3201 H   0  0  0  0  0  0  0  0  0  0  0  0
   63.7390   33.2810   48.6860 C   0  0  0  0  0  0  0  0  0  0  0  0
   63.5698   32.9444   47.6525 H   0  0  0  0  0  0  0  0  0  0  0  0
   64.8730   32.8510   49.3770 C   0  0  0  0  0  0  0  0  0  0  0  0
   65.5963   32.1838   48.8853 H   0  0  0  0  0  0  0  0  0  0  0  0
  1  2  1  0
  2  3  2  0
  3  4  1  0
  3  5  1  0
  5  6  1  0
  5  7  2  0
  7  8  1  0
  8  9  1  0
  8 10  1  0
 10 11  1  0
 11 12  1  0
 12 13  2  0
 13 14  1  0
 14 15  1  0
 15 16  2  0
 16 17  1  0
 16 18  1  0
 18 19  1  0
 18 20  2  0
 20 21  1  0
 20 22  1  0
 22 23  1  0
 23 24  1  0
 24 25  2  0
 24 26  1  0
 26 27  1  0
 27 28  1  0
 27 29  1  0
 27 30  1  0
 30 31  1  0
 30 32  1  0
 30 33  1  0
 22 34  2  0
 34 35  1  0
 14 36  2  0
 36 37  1  0
 36 38  1  0
 38 39  1  0
 13 40  1  0
 40 41  2  0
 41 42  1  0
 42 43  1  0
 42 44  1  0
 42 45  1  0
 45 46  1  0
 45 47  1  0
 47 48  1  0
 47 49  1  0
 47 50  1  0
 50 51  1  0
 50 52  1  0
 50 53  1  0
 53 54  1  0
 53 55  1  0
 55 56  1  0
 55 57  1  0
 55 58  1  0
 58 59  1  0
 58 60  1  0
 40 61  1  0
 61 62  1  0
  7 63  1  0
 63 64  1  0
 63 65  2  0
 65 66  1  0
 65  2  1  0
 61 10  2  0
 38 12  1  0
 58 45  1  0
 34 15  1  0
M  CHG  3  11  -1  23  -1  26  -1
M  END
>  <UniqueID>  (71) 
63

>  <SMILES>  (71) 
O=C([N-]CC(F)(F)F)[N-]c1cccc(-c2c[nH]c3[n-]c(Nc4ccccc4)c/c(=N/CC4CCNCC4)c23)c1

>  <Energy>  (71) 
132.54510853371747

>  <Genealogy>  (71) 
O=C([N-]CC(F)(F)F)[N-]c1cccc(-c2c[nH]c3[n-]c(Nc4ccccc4)cc(=NCC4CCNCC4)c23)c1 (protonated)
O=C([N-]CC(F)(F)F)[N-]c1cccc(-c2c[nH]c3[n-]c(Nc4ccccc4)c/c(=N/CC4CCNCC4)c23)c1 (cis-trans isomerization)
O=C([N-]CC(F)(F)F)[N-]c1cccc(-c2c[nH]c3[n-]c(Nc4ccccc4)c/c(=N/CC4CCNCC4)c23)c1 (3D coordinates assigned)
O=C([N-]CC(F)(F)F)[N-]c1cccc(-c2c[nH]c3[n-]c(Nc4ccccc4)c/c(=N/CC4CCNCC4)c23)c1 (nonaromatic ring conformer: 132.54510853371747 kcal/mol)

>  <smiles>  (71) 
O=C(NCC(F)(F)F)Nc1cccc(-c2c[nH]c3[nH]c(Nc4ccccc4)cc(=NCC4CCNCC4)c23)c1

>  <score_type>  (71) 
oracle

>  <origin>  (71) 
adg

>  <m_score__min__energy>  (71) 
-14.23

>  <m_primary>  (71) 
energy

$$$$
71:0
     RDKit          3D

 46 48  0  0  0  0  0  0  0  0999 V2000
   55.2120   26.4860   45.8460 O   0  0  0  0  0  0  0  0  0  0  0  0
   56.2840   27.1380   45.7270 C   0  0  0  0  0  0  0  0  0  0  0  0
   57.5510   26.5550   46.0700 N   0  0  0  0  0  0  0  0  0  0  0  0
   58.5450   27.1170   46.6930 C   0  0  0  0  0  0  0  0  0  0  0  0
   58.8400   28.4250   46.5460 N   0  0  0  0  0  0  0  0  0  0  0  0
   59.9160   28.8040   47.2870 C   0  0  0  0  0  0  0  0  0  0  0  0
   60.4920   27.7860   48.0390 C   0  0  0  0  0  0  0  0  0  0  0  0
   59.6220   26.3700   47.7550 S   0  0  0  0  0  0  0  0  0  0  0  0
   56.2250   28.4820   45.2500 N   0  0  0  0  0  0  0  0  0  0  0  0
   57.2470   29.0670   43.9820 S   0  0  0  0  0  0  0  0  0  0  0  0
   58.4930   28.2290   43.9250 O   0  0  0  0  0  0  0  0  0  0  0  0
   56.5330   28.9510   42.6640 O   0  0  0  0  0  0  0  0  0  0  0  0
   57.6900   30.7410   44.3000 C   0  0  0  0  0  0  0  0  0  0  0  0
   57.9100   31.1830   45.6130 C   0  0  0  0  0  0  0  0  0  0  0  0
   58.2910   32.5060   45.8540 C   0  0  0  0  0  0  0  0  0  0  0  0
   58.4600   33.4020   44.7860 C   0  0  0  0  0  0  0  0  0  0  0  0
   58.8310   34.8350   45.0490 C   0  0  0  0  0  0  0  0  0  0  0  0
   59.7430   34.9450   46.2720 C   0  0  0  0  0  0  0  0  0  0  0  0
   58.9380   34.9660   47.4950 N   0  0  0  0  0  0  0  0  0  0  0  0
   59.5320   33.8160   48.6570 S   0  0  0  0  0  0  0  0  0  0  0  0
   59.6700   34.4850   49.9970 O   0  0  0  0  0  0  0  0  0  0  0  0
   58.5450   32.6910   48.7880 O   0  0  0  0  0  0  0  0  0  0  0  0
   61.0890   33.1610   48.1480 C   0  0  0  0  0  0  0  0  0  0  0  0
   62.2560   33.9330   48.2490 C   0  0  0  0  0  0  0  0  0  0  0  0
   63.4800   33.4150   47.8150 C   0  0  0  0  0  0  0  0  0  0  0  0
   63.5430   32.1270   47.2720 C   0  0  0  0  0  0  0  0  0  0  0  0
   62.3830   31.3560   47.1670 C   0  0  0  0  0  0  0  0  0  0  0  0
   61.1580   31.8700   47.6040 C   0  0  0  0  0  0  0  0  0  0  0  0
   58.2290   32.9590   43.4740 C   0  0  0  0  0  0  0  0  0  0  0  0
   57.8550   31.6340   43.2320 C   0  0  0  0  0  0  0  0  0  0  0  0
   58.3020   29.0800   45.9380 H   0  0  0  0  0  0  0  0  0  0  0  0
   60.3002   29.8347   47.2910 H   0  0  0  0  0  0  0  0  0  0  0  0
   61.3631   27.8869   48.7031 H   0  0  0  0  0  0  0  0  0  0  0  0
   57.7824   30.4867   46.4550 H   0  0  0  0  0  0  0  0  0  0  0  0
   58.4594   32.8473   46.8861 H   0  0  0  0  0  0  0  0  0  0  0  0
   59.3558   35.2386   44.1705 H   0  0  0  0  0  0  0  0  0  0  0  0
   57.9116   35.4071   45.2425 H   0  0  0  0  0  0  0  0  0  0  0  0
   60.4234   34.0811   46.2982 H   0  0  0  0  0  0  0  0  0  0  0  0
   60.3254   35.8758   46.2063 H   0  0  0  0  0  0  0  0  0  0  0  0
   62.2080   34.9479   48.6705 H   0  0  0  0  0  0  0  0  0  0  0  0
   64.3943   34.0206   47.9005 H   0  0  0  0  0  0  0  0  0  0  0  0
   64.5059   31.7216   46.9278 H   0  0  0  0  0  0  0  0  0  0  0  0
   62.4331   30.3434   46.7401 H   0  0  0  0  0  0  0  0  0  0  0  0
   60.2462   31.2603   47.5209 H   0  0  0  0  0  0  0  0  0  0  0  0
   58.3429   33.6580   42.6323 H   0  0  0  0  0  0  0  0  0  0  0  0
   57.6896   31.2909   42.2001 H   0  0  0  0  0  0  0  0  0  0  0  0
  1  2  2  0
  2  3  1  0
  3  4  2  3
  4  5  1  0
  5  6  1  0
  6  7  2  0
  7  8  1  0
  2  9  1  0
  9 10  1  0
 10 11  2  0
 10 12  2  0
 10 13  1  0
 13 14  2  0
 14 15  1  0
 15 16  2  0
 16 17  1  0
 17 18  1  0
 18 19  1  0
 19 20  1  0
 20 21  2  0
 20 22  2  0
 20 23  1  0
 23 24  2  0
 24 25  1  0
 25 26  2  0
 26 27  1  0
 27 28  2  0
 16 29  1  0
 29 30  2  0
  8  4  1  0
 30 13  1  0
 28 23  1  0
  5 31  1  0
  6 32  1  0
  7 33  1  0
 14 34  1  0
 15 35  1  0
 17 36  1  0
 17 37  1  0
 18 38  1  0
 18 39  1  0
 24 40  1  0
 25 41  1  0
 26 42  1  0
 27 43  1  0
 28 44  1  0
 29 45  1  0
 30 46  1  0
M  CHG  2   9  -1  19  -1
M  END
>  <UniqueID>  (72) 
64

>  <SMILES>  (72) 
O=C(N=c1[nH]ccs1)[N-]S(=O)(=O)c1ccc(CC[N-]S(=O)(=O)c2ccccc2)cc1

>  <Energy>  (72) 
78.0872176070654

>  <Genealogy>  (72) 
O=C(N=c1[nH]ccs1)[N-]S(=O)(=O)c1ccc(CC[N-]S(=O)(=O)c2ccccc2)cc1 (protonated)
O=C(N=c1[nH]ccs1)[N-]S(=O)(=O)c1ccc(CC[N-]S(=O)(=O)c2ccccc2)cc1 (3D coordinates assigned)
O=C(N=c1[nH]ccs1)[N-]S(=O)(=O)c1ccc(CC[N-]S(=O)(=O)c2ccccc2)cc1 (optimized conformer: 78.0872176070654 kcal/mol)

>  <smiles>  (72) 
O=C(N=c1[nH]ccs1)NS(=O)(=O)c1ccc(CCNS(=O)(=O)c2ccccc2)cc1

>  <score_type>  (72) 
oracle

>  <origin>  (72) 
adg

>  <m_score__min__energy>  (72) 
-11.51

>  <m_primary>  (72) 
energy

$$$$
72:0
     RDKit          3D

 40 42  0  0  0  0  0  0  0  0999 V2000
   52.3790   23.3300   45.6260 C   0  0  0  0  0  0  0  0  0  0  0  0
   53.5980   22.6270   45.5370 O   0  0  0  0  0  0  0  0  0  0  0  0
   54.4300   22.9490   46.6360 C   0  0  0  0  0  0  0  0  0  0  0  0
   55.4730   23.8840   46.2230 N   0  0  0  0  0  0  0  0  0  0  0  0
   56.8740   23.7390   46.4600 C   0  0  0  0  0  0  0  0  0  0  0  0
   57.4250   22.6650   46.8160 O   0  0  0  0  0  0  0  0  0  0  0  0
   57.5530   25.0110   46.2430 C   0  0  0  0  0  0  0  0  0  0  0  0
   58.8980   25.3500   46.3520 C   0  0  0  0  0  0  0  0  0  0  0  0
   59.2670   26.6800   46.0900 C   0  0  0  0  0  0  0  0  0  0  0  0
   58.2950   27.6380   45.7290 C   0  0  0  0  0  0  0  0  0  0  0  0
   56.9300   27.2750   45.6280 C   0  0  0  0  0  0  0  0  0  0  0  0
   55.9160   28.1790   45.2850 O   0  0  0  0  0  0  0  0  0  0  0  0
   56.0980   29.4570   44.1630 S   0  0  0  0  0  0  0  0  0  0  0  0
   57.0870   29.0610   43.1040 O   0  0  0  0  0  0  0  0  0  0  0  0
   54.7610   29.7220   43.5300 O   0  0  0  0  0  0  0  0  0  0  0  0
   56.6500   30.8760   44.9960 N   0  0  0  0  0  0  0  0  0  0  0  0
   57.4310   31.9250   44.4110 C   0  0  0  0  0  0  0  0  0  0  0  0
   57.5590   31.9560   43.1590 O   0  0  0  0  0  0  0  0  0  0  0  0
   58.0930   32.9670   45.2240 C   0  0  0  0  0  0  0  0  0  0  0  0
   58.1130   32.8570   46.6230 C   0  0  0  0  0  0  0  0  0  0  0  0
   58.7450   33.8330   47.3980 C   0  0  0  0  0  0  0  0  0  0  0  0
   59.3790   34.9150   46.7820 C   0  0  0  0  0  0  0  0  0  0  0  0
   59.3850   35.0190   45.3890 C   0  0  0  0  0  0  0  0  0  0  0  0
   58.7500   34.0470   44.6100 C   0  0  0  0  0  0  0  0  0  0  0  0
   56.5980   25.9430   45.8930 C   0  0  0  0  0  0  0  0  0  0  0  0
   55.3050   25.2630   45.8890 C   0  0  0  0  0  0  0  0  0  0  0  0
   54.1930   25.8020   45.6430 O   0  0  0  0  0  0  0  0  0  0  0  0
   52.1187   23.4801   46.6842 H   0  0  0  0  0  0  0  0  0  0  0  0
   52.4823   24.3072   45.1316 H   0  0  0  0  0  0  0  0  0  0  0  0
   51.5850   22.7511   45.1316 H   0  0  0  0  0  0  0  0  0  0  0  0
   53.8224   23.4097   47.4288 H   0  0  0  0  0  0  0  0  0  0  0  0
   54.9015   22.0285   47.0106 H   0  0  0  0  0  0  0  0  0  0  0  0
   59.6502   24.5989   46.6349 H   0  0  0  0  0  0  0  0  0  0  0  0
   60.3232   26.9777   46.1669 H   0  0  0  0  0  0  0  0  0  0  0  0
   58.6004   28.6748   45.5245 H   0  0  0  0  0  0  0  0  0  0  0  0
   57.6290   31.9986   47.1117 H   0  0  0  0  0  0  0  0  0  0  0  0
   58.7434   33.7493   48.4948 H   0  0  0  0  0  0  0  0  0  0  0  0
   59.8731   35.6844   47.3935 H   0  0  0  0  0  0  0  0  0  0  0  0
   59.8903   35.8672   44.9040 H   0  0  0  0  0  0  0  0  0  0  0  0
   58.7647   34.1279   43.5131 H   0  0  0  0  0  0  0  0  0  0  0  0
  1  2  1  0
  2  3  1  0
  3  4  1  0
  4  5  1  0
  5  6  2  0
  5  7  1  0
  7  8  2  0
  8  9  1  0
  9 10  2  0
 10 11  1  0
 11 12  1  0
 12 13  1  0
 13 14  2  0
 13 15  2  0
 13 16  1  0
 16 17  1  0
 17 18  2  0
 17 19  1  0
 19 20  2  0
 20 21  1  0
 21 22  2  0
 22 23  1  0
 23 24  2  0
 11 25  2  0
 25 26  1  0
 26 27  2  0
 26  4  1  0
 25  7  1  0
 24 19  1  0
  1 28  1  0
  1 29  1  0
  1 30  1  0
  3 31  1  0
  3 32  1  0
  8 33  1  0
  9 34  1  0
 10 35  1  0
 20 36  1  0
 21 37  1  0
 22 38  1  0
 23 39  1  0
 24 40  1  0
M  CHG  1  16  -1
M  END
>  <UniqueID>  (73) 
65

>  <SMILES>  (73) 
COCN1C(=O)c2cccc(OS(=O)(=O)[N-]C(=O)c3ccccc3)c2C1=O

>  <Energy>  (73) 
81.96781843955746

>  <Genealogy>  (73) 
COCN1C(=O)c2cccc(OS(=O)(=O)[N-]C(=O)c3ccccc3)c2C1=O (protonated)
COCN1C(=O)c2cccc(OS(=O)(=O)[N-]C(=O)c3ccccc3)c2C1=O (3D coordinates assigned)
COCN1C(=O)c2cccc(OS(=O)(=O)[N-]C(=O)c3ccccc3)c2C1=O (nonaromatic ring conformer: 81.96781843955746 kcal/mol)

>  <smiles>  (73) 
COCN1C(=O)c2cccc(OS(=O)(=O)NC(=O)c3ccccc3)c2C1=O

>  <score_type>  (73) 
oracle

>  <origin>  (73) 
adg

>  <m_score__min__energy>  (73) 
-10.970000000000001

>  <m_primary>  (73) 
energy

$$$$
73:0
     RDKit          3D

 42 44  0  0  0  0  0  0  0  0999 V2000
   56.2970   25.3210   47.1530 O   0  0  0  0  0  0  0  0  0  0  0  0
   55.9500   26.1160   46.2400 C   0  0  0  0  0  0  0  0  0  0  0  0
   54.6010   26.3180   45.9790 O   0  0  0  0  0  0  0  0  0  0  0  0
   56.9840   26.7990   45.4040 C   0  0  0  0  0  0  0  0  0  0  0  0
   57.9690   27.5210   46.2860 C   0  0  0  0  0  0  0  0  0  0  0  0
   58.9860   26.7960   46.9310 C   0  0  0  0  0  0  0  0  0  0  0  0
   59.9360   27.4530   47.7160 C   0  0  0  0  0  0  0  0  0  0  0  0
   59.8840   28.8400   47.8610 C   0  0  0  0  0  0  0  0  0  0  0  0
   58.8890   29.5750   47.2130 C   0  0  0  0  0  0  0  0  0  0  0  0
   57.9330   28.9250   46.4100 C   0  0  0  0  0  0  0  0  0  0  0  0
   56.9270   29.6500   45.7510 O   0  0  0  0  0  0  0  0  0  0  0  0
   57.1500   30.5260   44.6800 C   0  0  0  0  0  0  0  0  0  0  0  0
   56.8290   30.0960   43.3870 C   0  0  0  0  0  0  0  0  0  0  0  0
   57.0180   30.9440   42.2940 C   0  0  0  0  0  0  0  0  0  0  0  0
   57.5430   32.2230   42.4840 C   0  0  0  0  0  0  0  0  0  0  0  0
   57.8950   32.6520   43.7660 C   0  0  0  0  0  0  0  0  0  0  0  0
   57.7110   31.8070   44.8760 C   0  0  0  0  0  0  0  0  0  0  0  0
   58.1290   32.1950   46.1930 N   0  0  0  0  0  0  0  0  0  0  0  0
   59.0600   33.6030   46.5820 S   0  0  0  0  0  0  0  0  0  0  0  0
   58.9570   34.5890   45.4530 O   0  0  0  0  0  0  0  0  0  0  0  0
   58.5090   34.2380   47.8290 O   0  0  0  0  0  0  0  0  0  0  0  0
   60.7490   33.1530   46.7910 C   0  0  0  0  0  0  0  0  0  0  0  0
   61.0670   31.9090   47.3530 C   0  0  0  0  0  0  0  0  0  0  0  0
   62.4020   31.5440   47.5420 C   0  0  0  0  0  0  0  0  0  0  0  0
   63.4270   32.4200   47.1700 C   0  0  0  0  0  0  0  0  0  0  0  0
   63.1150   33.6590   46.6050 C   0  0  0  0  0  0  0  0  0  0  0  0
   61.7790   34.0270   46.4140 C   0  0  0  0  0  0  0  0  0  0  0  0
   57.5172   26.0495   44.8007 H   0  0  0  0  0  0  0  0  0  0  0  0
   56.4898   27.5277   44.7446 H   0  0  0  0  0  0  0  0  0  0  0  0
   59.0339   25.7030   46.8166 H   0  0  0  0  0  0  0  0  0  0  0  0
   60.7258   26.8768   48.2203 H   0  0  0  0  0  0  0  0  0  0  0  0
   60.6278   29.3551   48.4866 H   0  0  0  0  0  0  0  0  0  0  0  0
   58.8521   30.6681   47.3308 H   0  0  0  0  0  0  0  0  0  0  0  0
   56.4257   29.0845   43.2313 H   0  0  0  0  0  0  0  0  0  0  0  0
   56.7528   30.6036   41.2822 H   0  0  0  0  0  0  0  0  0  0  0  0
   57.6798   32.8941   41.6233 H   0  0  0  0  0  0  0  0  0  0  0  0
   58.3188   33.6570   43.9087 H   0  0  0  0  0  0  0  0  0  0  0  0
   60.2628   31.2180   47.6461 H   0  0  0  0  0  0  0  0  0  0  0  0
   62.6474   30.5669   47.9837 H   0  0  0  0  0  0  0  0  0  0  0  0
   64.4781   32.1335   47.3222 H   0  0  0  0  0  0  0  0  0  0  0  0
   63.9214   34.3465   46.3098 H   0  0  0  0  0  0  0  0  0  0  0  0
   61.5361   35.0026   45.9678 H   0  0  0  0  0  0  0  0  0  0  0  0
  1  2  2  0
  2  3  1  0
  2  4  1  0
  4  5  1  0
  5  6  2  0
  6  7  1  0
  7  8  2  0
  8  9  1  0
  9 10  2  0
 10 11  1  0
 11 12  1  0
 12 13  2  0
 13 14  1  0
 14 15  2  0
 15 16  1  0
 16 17  2  0
 17 18  1  0
 18 19  1  0
 19 20  2  0
 19 21  2  0
 19 22  1  0
 22 23  2  0
 23 24  1  0
 24 25  2  0
 25 26  1  0
 26 27  2  0
 10  5  1  0
 17 12  1  0
 27 22  1  0
  4 28  1  0
  4 29  1  0
  6 30  1  0
  7 31  1  0
  8 32  1  0
  9 33  1  0
 13 34  1  0
 14 35  1  0
 15 36  1  0
 16 37  1  0
 23 38  1  0
 24 39  1  0
 25 40  1  0
 26 41  1  0
 27 42  1  0
M  CHG  2   3  -1  18  -1
M  END
>  <UniqueID>  (74) 
66

>  <SMILES>  (74) 
O=C([O-])Cc1ccccc1Oc1ccccc1[N-]S(=O)(=O)c1ccccc1

>  <Energy>  (74) 
52.53348021465577

>  <Genealogy>  (74) 
O=C([O-])Cc1ccccc1Oc1ccccc1[N-]S(=O)(=O)c1ccccc1 (protonated)
O=C([O-])Cc1ccccc1Oc1ccccc1[N-]S(=O)(=O)c1ccccc1 (3D coordinates assigned)
O=C([O-])Cc1ccccc1Oc1ccccc1[N-]S(=O)(=O)c1ccccc1 (optimized conformer: 52.53348021465577 kcal/mol)

>  <smiles>  (74) 
O=C(O)Cc1ccccc1Oc1ccccc1NS(=O)(=O)c1ccccc1

>  <score_type>  (74) 
oracle

>  <origin>  (74) 
adg

>  <m_score__min__energy>  (74) 
-13.23

>  <m_primary>  (74) 
energy

$$$$
74:0
     RDKit          3D

 53 55  0  0  0  0  0  0  0  0999 V2000
   57.9730   29.4270   42.8950 H   0  0  0  0  0  0  0  0  0  0  0  0
   57.3540   29.6320   43.6710 O   0  0  0  0  0  0  0  0  0  0  0  0
   57.7330   30.5210   44.6740 C   0  0  0  0  0  0  0  0  0  0  0  0
   57.0190   31.6570   44.8550 N   0  0  0  0  0  0  0  0  0  0  0  0
   57.3680   32.5800   45.7860 C   0  0  0  0  0  0  0  0  0  0  0  0
   56.6530   33.6100   45.9150 O   0  0  0  0  0  0  0  0  0  0  0  0
   58.4780   32.3890   46.5690 N   0  0  0  0  0  0  0  0  0  0  0  0
   58.8480   33.3830   47.6010 C   0  0  0  0  0  0  0  0  0  0  0  0
   57.9396   33.9026   47.9398 H   0  0  0  0  0  0  0  0  0  0  0  0
   59.3283   32.8529   48.4367 H   0  0  0  0  0  0  0  0  0  0  0  0
   59.8400   34.4180   47.0500 C   0  0  0  0  0  0  0  0  0  0  0  0
   59.7365   34.4635   45.9558 H   0  0  0  0  0  0  0  0  0  0  0  0
   59.6102   35.3910   47.5089 H   0  0  0  0  0  0  0  0  0  0  0  0
   61.2630   34.0630   47.3910 C   0  0  0  0  0  0  0  0  0  0  0  0
   62.2050   33.8470   46.3710 C   0  0  0  0  0  0  0  0  0  0  0  0
   61.9116   33.9734   45.3184 H   0  0  0  0  0  0  0  0  0  0  0  0
   63.5140   33.4720   46.6890 C   0  0  0  0  0  0  0  0  0  0  0  0
   64.2485   33.3075   45.8869 H   0  0  0  0  0  0  0  0  0  0  0  0
   63.8900   33.3060   48.0240 C   0  0  0  0  0  0  0  0  0  0  0  0
   64.9212   33.0145   48.2725 H   0  0  0  0  0  0  0  0  0  0  0  0
   62.9570   33.5100   49.0440 C   0  0  0  0  0  0  0  0  0  0  0  0
   63.2536   33.3764   50.0948 H   0  0  0  0  0  0  0  0  0  0  0  0
   61.6460   33.8840   48.7300 C   0  0  0  0  0  0  0  0  0  0  0  0
   60.9125   34.0384   49.5351 H   0  0  0  0  0  0  0  0  0  0  0  0
   59.2260   31.2460   46.4180 C   0  0  0  0  0  0  0  0  0  0  0  0
   60.2470   31.0570   47.1390 O   0  0  0  0  0  0  0  0  0  0  0  0
   58.8560   30.2690   45.4770 C   0  0  0  0  0  0  0  0  0  0  0  0
   59.6740   29.0400   45.3250 C   0  0  0  0  0  0  0  0  0  0  0  0
   60.3976   28.9839   44.4984 H   0  0  0  0  0  0  0  0  0  0  0  0
   59.5630   27.9950   46.1590 C   0  0  0  0  0  0  0  0  0  0  0  0
   60.3214   27.8801   46.9474 H   0  0  0  0  0  0  0  0  0  0  0  0
   58.4790   26.9850   46.0820 C   0  0  0  0  0  0  0  0  0  0  0  0
   58.8320   25.6310   45.9780 C   0  0  0  0  0  0  0  0  0  0  0  0
   59.8942   25.3456   45.9600 H   0  0  0  0  0  0  0  0  0  0  0  0
   57.8490   24.6410   45.8970 C   0  0  0  0  0  0  0  0  0  0  0  0
   58.1429   23.5832   45.8281 H   0  0  0  0  0  0  0  0  0  0  0  0
   56.4850   24.9890   45.9030 C   0  0  0  0  0  0  0  0  0  0  0  0
   55.4570   24.0340   45.8260 O   0  0  0  0  0  0  0  0  0  0  0  0
   55.4870   22.8390   45.0460 C   0  0  0  0  0  0  0  0  0  0  0  0
   54.4730   22.4156   44.9954 H   0  0  0  0  0  0  0  0  0  0  0  0
   56.1762   22.1249   45.5204 H   0  0  0  0  0  0  0  0  0  0  0  0
   55.9810   23.1300   43.6270 C   0  0  0  0  0  0  0  0  0  0  0  0
   57.0104   23.5152   43.6723 H   0  0  0  0  0  0  0  0  0  0  0  0
   55.3208   23.8775   43.1630 H   0  0  0  0  0  0  0  0  0  0  0  0
   55.9580   21.9470   42.8500 O   0  0  0  0  0  0  0  0  0  0  0  0
   57.1710   21.2410   42.9910 C   0  0  0  0  0  0  0  0  0  0  0  0
   57.3967   21.1096   44.0596 H   0  0  0  0  0  0  0  0  0  0  0  0
   57.0793   20.2552   42.5117 H   0  0  0  0  0  0  0  0  0  0  0  0
   57.9829   21.8076   42.5117 H   0  0  0  0  0  0  0  0  0  0  0  0
   56.1300   26.3420   45.9940 C   0  0  0  0  0  0  0  0  0  0  0  0
   54.7890   26.7070   45.9940 O   0  0  0  0  0  0  0  0  0  0  0  0
   57.1140   27.3320   46.0780 C   0  0  0  0  0  0  0  0  0  0  0  0
   56.8197   28.3900   46.1414 H   0  0  0  0  0  0  0  0  0  0  0  0
  1  2  1  0
  2  3  1  0
  3  4  1  0
  4  5  1  0
  5  6  2  0
  5  7  1  0
  7  8  1  0
  8  9  1  0
  8 10  1  0
  8 11  1  0
 11 12  1  0
 11 13  1  0
 11 14  1  0
 14 15  2  0
 15 16  1  0
 15 17  1  0
 17 18  1  0
 17 19  2  0
 19 20  1  0
 19 21  1  0
 21 22  1  0
 21 23  2  0
 23 24  1  0
  7 25  1  0
 25 26  2  0
 25 27  1  0
 27 28  1  0
 28 29  1  0
 28 30  2  0
 30 31  1  0
 30 32  1  0
 32 33  2  0
 33 34  1  0
 33 35  1  0
 35 36  1  0
 35 37  2  0
 37 38  1  0
 38 39  1  0
 39 40  1  0
 39 41  1  0
 39 42  1  0
 42 43  1  0
 42 44  1  0
 42 45  1  0
 45 46  1  0
 46 47  1  0
 46 48  1  0
 46 49  1  0
 37 50  1  0
 50 51  1  0
 50 52  2  0
 52 53  1  0
 27  3  2  0
 52 32  1  0
 23 14  1  0
M  CHG  2   4  -1  51  -1
M  END
>  <UniqueID>  (75) 
67

>  <SMILES>  (75) 
COCCOc1ccc(/C=C/c2c(O)[n-]c(=O)n(CCc3ccccc3)c2=O)cc1[O-]

>  <Energy>  (75) 
64.75485969434179

>  <Genealogy>  (75) 
COCCOc1ccc(C=Cc2c(O)[n-]c(=O)n(CCc3ccccc3)c2=O)cc1[O-] (protonated)
COCCOc1ccc(/C=C/c2c(O)[n-]c(=O)n(CCc3ccccc3)c2=O)cc1[O-] (cis-trans isomerization)
COCCOc1ccc(/C=C/c2c(O)[n-]c(=O)n(CCc3ccccc3)c2=O)cc1[O-] (3D coordinates assigned)
COCCOc1ccc(/C=C/c2c(O)[n-]c(=O)n(CCc3ccccc3)c2=O)cc1[O-] (optimized conformer: 64.75485969434179 kcal/mol)

>  <smiles>  (75) 
COCCOc1ccc(C=Cc2c(O)[nH]c(=O)n(CCc3ccccc3)c2=O)cc1O

>  <score_type>  (75) 
oracle

>  <origin>  (75) 
adg

>  <m_score__min__energy>  (75) 
-14.65

>  <m_primary>  (75) 
energy

$$$$
75:0
     RDKit          3D

 41 43  0  0  0  0  0  0  0  0999 V2000
   59.9860   28.9640   45.1640 C   0  0  0  0  0  0  0  0  0  0  0  0
   58.7830   28.2650   45.7260 C   0  0  0  0  0  0  0  0  0  0  0  0
   58.7190   27.4530   46.8560 C   0  0  0  0  0  0  0  0  0  0  0  0
   59.8200   27.1280   47.7850 C   0  0  0  0  0  0  0  0  0  0  0  0
   60.4640   26.0610   47.6090 O   0  0  0  0  0  0  0  0  0  0  0  0
   60.1960   27.9900   48.8650 N   0  0  0  0  0  0  0  0  0  0  0  0
   60.1110   29.4230   48.8750 C   0  0  0  0  0  0  0  0  0  0  0  0
   61.0810   30.2270   48.2470 C   0  0  0  0  0  0  0  0  0  0  0  0
   60.9640   31.6200   48.2760 C   0  0  0  0  0  0  0  0  0  0  0  0
   59.8750   32.2190   48.9160 C   0  0  0  0  0  0  0  0  0  0  0  0
   58.8960   31.4250   49.5200 C   0  0  0  0  0  0  0  0  0  0  0  0
   57.8360   32.0060   50.1310 F   0  0  0  0  0  0  0  0  0  0  0  0
   59.0100   30.0310   49.4920 C   0  0  0  0  0  0  0  0  0  0  0  0
   57.4880   26.9170   46.9910 N   0  0  0  0  0  0  0  0  0  0  0  0
   56.7670   27.4110   45.9690 C   0  0  0  0  0  0  0  0  0  0  0  0
   55.4370   27.0740   45.7460 O   0  0  0  0  0  0  0  0  0  0  0  0
   57.5110   28.2600   45.1770 C   0  0  0  0  0  0  0  0  0  0  0  0
   57.0750   28.8770   43.8790 C   0  0  0  0  0  0  0  0  0  0  0  0
   55.9750   29.8570   44.1340 C   0  0  0  0  0  0  0  0  0  0  0  0
   54.7730   29.4820   44.0920 O   0  0  0  0  0  0  0  0  0  0  0  0
   56.3010   31.2060   44.4840 N   0  0  0  0  0  0  0  0  0  0  0  0
   57.4110   31.9270   43.8770 C   0  0  0  0  0  0  0  0  0  0  0  0
   57.8930   32.9810   44.8240 C   0  0  0  0  0  0  0  0  0  0  0  0
   58.8910   33.9100   44.5590 C   0  0  0  0  0  0  0  0  0  0  0  0
   59.2390   34.6790   45.6760 C   0  0  0  0  0  0  0  0  0  0  0  0
   58.5270   34.3500   46.8220 C   0  0  0  0  0  0  0  0  0  0  0  0
   57.4700   33.0960   46.4480 S   0  0  0  0  0  0  0  0  0  0  0  0
   60.6158   29.3299   45.9883 H   0  0  0  0  0  0  0  0  0  0  0  0
   60.5633   28.2607   44.5459 H   0  0  0  0  0  0  0  0  0  0  0  0
   59.6608   29.8138   44.5459 H   0  0  0  0  0  0  0  0  0  0  0  0
   61.9328   29.7584   47.7324 H   0  0  0  0  0  0  0  0  0  0  0  0
   61.7300   32.2456   47.7945 H   0  0  0  0  0  0  0  0  0  0  0  0
   59.7886   33.3152   48.9443 H   0  0  0  0  0  0  0  0  0  0  0  0
   58.2310   29.4090   49.9569 H   0  0  0  0  0  0  0  0  0  0  0  0
   57.9273   29.3957   43.4157 H   0  0  0  0  0  0  0  0  0  0  0  0
   56.7123   28.0884   43.2033 H   0  0  0  0  0  0  0  0  0  0  0  0
   58.2301   31.2255   43.6601 H   0  0  0  0  0  0  0  0  0  0  0  0
   57.0767   32.3978   42.9407 H   0  0  0  0  0  0  0  0  0  0  0  0
   59.3605   34.0294   43.5714 H   0  0  0  0  0  0  0  0  0  0  0  0
   60.0040   35.4690   45.6485 H   0  0  0  0  0  0  0  0  0  0  0  0
   58.6357   34.8280   47.8067 H   0  0  0  0  0  0  0  0  0  0  0  0
  1  2  1  0
  2  3  2  0
  3  4  1  0
  4  5  2  0
  4  6  1  0
  6  7  1  0
  7  8  2  0
  8  9  1  0
  9 10  2  0
 10 11  1  0
 11 12  1  0
 11 13  2  0
  3 14  1  0
 14 15  1  0
 15 16  1  0
 15 17  2  0
 17 18  1  0
 18 19  1  0
 19 20  2  0
 19 21  1  0
 21 22  1  0
 22 23  1  0
 23 24  2  0
 24 25  1  0
 25 26  2  0
 26 27  1  0
 17  2  1  0
 27 23  1  0
 13  7  1  0
  1 28  1  0
  1 29  1  0
  1 30  1  0
  8 31  1  0
  9 32  1  0
 10 33  1  0
 13 34  1  0
 18 35  1  0
 18 36  1  0
 22 37  1  0
 22 38  1  0
 24 39  1  0
 25 40  1  0
 26 41  1  0
M  CHG  4   6  -1  14  -1  16  -1  21  -1
M  END
>  <UniqueID>  (76) 
68

>  <SMILES>  (76) 
Cc1c(C(=O)[N-]c2cccc(F)c2)[n-]c([O-])c1CC(=O)[N-]Cc1cccs1

>  <Energy>  (76) 
93.51557591532307

>  <Genealogy>  (76) 
Cc1c(C(=O)[N-]c2cccc(F)c2)[n-]c([O-])c1CC(=O)[N-]Cc1cccs1 (protonated)
Cc1c(C(=O)[N-]c2cccc(F)c2)[n-]c([O-])c1CC(=O)[N-]Cc1cccs1 (3D coordinates assigned)
Cc1c(C(=O)[N-]c2cccc(F)c2)[n-]c([O-])c1CC(=O)[N-]Cc1cccs1 (optimized conformer: 93.51557591532307 kcal/mol)

>  <smiles>  (76) 
Cc1c(C(=O)Nc2cccc(F)c2)[nH]c(O)c1CC(=O)NCc1cccs1

>  <score_type>  (76) 
oracle

>  <origin>  (76) 
adg

>  <m_score__min__energy>  (76) 
-16.239999999999998

>  <m_primary>  (76) 
energy

$$$$
76:0
     RDKit          3D

 42 44  0  0  0  0  0  0  0  0999 V2000
   64.1870   33.4460   48.4740 N   0  0  0  0  0  0  0  0  0  0  0  0
   63.0720   33.4950   48.1620 C   0  0  0  0  0  0  0  0  0  0  0  0
   61.6880   33.5560   47.7750 C   0  0  0  0  0  0  0  0  0  0  0  0
   60.6820   33.3770   48.7330 C   0  0  0  0  0  0  0  0  0  0  0  0
   59.3370   33.4320   48.3550 C   0  0  0  0  0  0  0  0  0  0  0  0
   58.9850   33.6690   47.0170 C   0  0  0  0  0  0  0  0  0  0  0  0
   57.5380   33.6840   46.6070 C   0  0  0  0  0  0  0  0  0  0  0  0
   57.3650   33.5780   44.7910 S   0  0  0  0  0  0  0  0  0  0  0  0
   57.4450   31.7900   44.7370 C   0  0  0  0  0  0  0  0  0  0  0  0
   58.6470   31.1650   44.6470 N   0  0  0  0  0  0  0  0  0  0  0  0
   58.7330   29.8090   44.6400 C   0  0  0  0  0  0  0  0  0  0  0  0
   59.8610   29.2640   44.5180 O   0  0  0  0  0  0  0  0  0  0  0  0
   57.5650   29.0330   44.7420 C   0  0  0  0  0  0  0  0  0  0  0  0
   57.6040   27.5970   44.7400 N   0  0  0  0  0  0  0  0  0  0  0  0
   58.4380   26.8350   45.6250 C   0  0  0  0  0  0  0  0  0  0  0  0
   59.1220   27.4090   46.5150 O   0  0  0  0  0  0  0  0  0  0  0  0
   58.4330   25.3380   45.5550 C   0  0  0  0  0  0  0  0  0  0  0  0
   57.0700   24.8470   45.1500 C   0  0  0  0  0  0  0  0  0  0  0  0
   56.9190   24.0270   44.0200 C   0  0  0  0  0  0  0  0  0  0  0  0
   55.6570   23.5420   43.6640 C   0  0  0  0  0  0  0  0  0  0  0  0
   54.5390   23.8640   44.4370 C   0  0  0  0  0  0  0  0  0  0  0  0
   54.6820   24.6710   45.5710 C   0  0  0  0  0  0  0  0  0  0  0  0
   55.9430   25.1590   45.9290 C   0  0  0  0  0  0  0  0  0  0  0  0
   56.3350   29.7030   44.8010 C   0  0  0  0  0  0  0  0  0  0  0  0
   55.1460   28.9890   44.8740 O   0  0  0  0  0  0  0  0  0  0  0  0
   56.3010   31.0600   44.8010 N   0  0  0  0  0  0  0  0  0  0  0  0
   59.9990   33.8480   46.0600 C   0  0  0  0  0  0  0  0  0  0  0  0
   61.3440   33.7900   46.4380 C   0  0  0  0  0  0  0  0  0  0  0  0
   60.9504   33.1930   49.7838 H   0  0  0  0  0  0  0  0  0  0  0  0
   58.5503   33.2887   49.1104 H   0  0  0  0  0  0  0  0  0  0  0  0
   57.0258   32.8261   47.0670 H   0  0  0  0  0  0  0  0  0  0  0  0
   57.0898   34.6299   46.9451 H   0  0  0  0  0  0  0  0  0  0  0  0
   56.8840   27.0860   44.1810 H   0  0  0  0  0  0  0  0  0  0  0  0
   59.1751   25.0054   44.8143 H   0  0  0  0  0  0  0  0  0  0  0  0
   58.6850   24.9292   46.5446 H   0  0  0  0  0  0  0  0  0  0  0  0
   57.7976   23.7651   43.4122 H   0  0  0  0  0  0  0  0  0  0  0  0
   55.5443   22.9058   42.7737 H   0  0  0  0  0  0  0  0  0  0  0  0
   53.5465   23.4832   44.1543 H   0  0  0  0  0  0  0  0  0  0  0  0
   53.8020   24.9219   46.1815 H   0  0  0  0  0  0  0  0  0  0  0  0
   56.0528   25.7894   46.8237 H   0  0  0  0  0  0  0  0  0  0  0  0
   59.7332   34.0345   45.0090 H   0  0  0  0  0  0  0  0  0  0  0  0
   62.1329   33.9284   45.6840 H   0  0  0  0  0  0  0  0  0  0  0  0
  1  2  3  0
  2  3  1  0
  3  4  2  0
  4  5  1  0
  5  6  2  0
  6  7  1  0
  7  8  1  0
  8  9  1  0
  9 10  2  0
 10 11  1  0
 11 12  2  0
 11 13  1  0
 13 14  1  0
 14 15  1  0
 15 16  2  0
 15 17  1  0
 17 18  1  0
 18 19  2  0
 19 20  1  0
 20 21  2  0
 21 22  1  0
 22 23  2  0
 13 24  2  0
 24 25  1  0
 24 26  1  0
  6 27  1  0
 27 28  2  0
 28  3  1  0
 26  9  1  0
 23 18  1  0
  4 29  1  0
  5 30  1  0
  7 31  1  0
  7 32  1  0
 14 33  1  0
 17 34  1  0
 17 35  1  0
 19 36  1  0
 20 37  1  0
 21 38  1  0
 22 39  1  0
 23 40  1  0
 27 41  1  0
 28 42  1  0
M  CHG  2  25  -1  26  -1
M  END
>  <UniqueID>  (77) 
69

>  <SMILES>  (77) 
N#Cc1ccc(CSc2nc(=O)c(NC(=O)Cc3ccccc3)c([O-])[n-]2)cc1

>  <Energy>  (77) 
43.15112469808945

>  <Genealogy>  (77) 
N#Cc1ccc(CSc2nc(=O)c(NC(=O)Cc3ccccc3)c([O-])[n-]2)cc1 (protonated)
N#Cc1ccc(CSc2nc(=O)c(NC(=O)Cc3ccccc3)c([O-])[n-]2)cc1 (3D coordinates assigned)
N#Cc1ccc(CSc2nc(=O)c(NC(=O)Cc3ccccc3)c([O-])[n-]2)cc1 (optimized conformer: 43.15112469808945 kcal/mol)

>  <smiles>  (77) 
N#Cc1ccc(CSc2nc(=O)c(NC(=O)Cc3ccccc3)c(O)[nH]2)cc1

>  <score_type>  (77) 
oracle

>  <origin>  (77) 
adg

>  <m_score__min__energy>  (77) 
-13.970000000000001

>  <m_primary>  (77) 
energy

$$$$
77:0
     RDKit          3D

 43 45  0  0  0  0  0  0  0  0999 V2000
   58.6450   30.2380   48.3840 O   0  0  0  0  0  0  0  0  0  0  0  0
   59.0650   30.5510   47.2360 C   0  0  0  0  0  0  0  0  0  0  0  0
   60.0930   31.6100   47.1340 C   0  0  0  0  0  0  0  0  0  0  0  0
   61.4470   31.2360   47.2040 C   0  0  0  0  0  0  0  0  0  0  0  0
   62.4530   32.2030   47.1800 C   0  0  0  0  0  0  0  0  0  0  0  0
   62.1190   33.5560   47.0940 C   0  0  0  0  0  0  0  0  0  0  0  0
   60.7780   33.9460   47.0190 C   0  0  0  0  0  0  0  0  0  0  0  0
   59.7490   32.9850   47.0230 C   0  0  0  0  0  0  0  0  0  0  0  0
   58.3160   33.4650   46.8680 C   0  0  0  0  0  0  0  0  0  0  0  0
   57.9670   33.8040   45.4050 C   0  0  0  0  0  0  0  0  0  0  0  0
   57.5020   32.6020   44.6280 C   0  0  0  0  0  0  0  0  0  0  0  0
   57.8340   32.4400   43.2760 C   0  0  0  0  0  0  0  0  0  0  0  0
   57.3910   31.3050   42.5970 C   0  0  0  0  0  0  0  0  0  0  0  0
   56.6180   30.3640   43.2800 C   0  0  0  0  0  0  0  0  0  0  0  0
   56.2070   29.3290   42.6920 O   0  0  0  0  0  0  0  0  0  0  0  0
   56.3110   30.5700   44.5890 N   0  0  0  0  0  0  0  0  0  0  0  0
   56.7400   31.6540   45.2430 N   0  0  0  0  0  0  0  0  0  0  0  0
   58.5740   29.8690   46.0510 N   0  0  0  0  0  0  0  0  0  0  0  0
   57.9440   28.5660   46.3770 C   0  0  0  0  0  0  0  0  0  0  0  0
   58.9660   27.4320   46.5800 C   0  0  0  0  0  0  0  0  0  0  0  0
   59.8710   27.3470   45.4300 N   0  0  0  0  0  0  0  0  0  0  0  0
   60.6030   28.6060   45.2770 C   0  0  0  0  0  0  0  0  0  0  0  0
   59.6160   29.7500   45.0010 C   0  0  0  0  0  0  0  0  0  0  0  0
   61.7154   30.1719   47.2783 H   0  0  0  0  0  0  0  0  0  0  0  0
   63.5091   31.8993   47.2288 H   0  0  0  0  0  0  0  0  0  0  0  0
   62.9129   34.3174   47.0852 H   0  0  0  0  0  0  0  0  0  0  0  0
   60.5246   35.0146   46.9562 H   0  0  0  0  0  0  0  0  0  0  0  0
   57.6379   32.6732   47.2190 H   0  0  0  0  0  0  0  0  0  0  0  0
   58.2029   34.3837   47.4623 H   0  0  0  0  0  0  0  0  0  0  0  0
   57.1665   34.5585   45.3994 H   0  0  0  0  0  0  0  0  0  0  0  0
   58.8815   34.1795   44.9225 H   0  0  0  0  0  0  0  0  0  0  0  0
   58.4370   33.1992   42.7564 H   0  0  0  0  0  0  0  0  0  0  0  0
   57.6471   31.1533   41.5380 H   0  0  0  0  0  0  0  0  0  0  0  0
   57.8130   30.4680   45.6450 H   0  0  0  0  0  0  0  0  0  0  0  0
   57.3612   28.6813   47.3028 H   0  0  0  0  0  0  0  0  0  0  0  0
   57.3106   28.2862   45.5223 H   0  0  0  0  0  0  0  0  0  0  0  0
   59.5527   27.6314   47.4888 H   0  0  0  0  0  0  0  0  0  0  0  0
   58.4259   26.4789   46.6799 H   0  0  0  0  0  0  0  0  0  0  0  0
   60.5710   26.5930   45.6280 H   0  0  0  0  0  0  0  0  0  0  0  0
   61.1604   28.8192   46.2010 H   0  0  0  0  0  0  0  0  0  0  0  0
   61.3040   28.5190   44.4338 H   0  0  0  0  0  0  0  0  0  0  0  0
   60.1766   30.6951   44.9520 H   0  0  0  0  0  0  0  0  0  0  0  0
   59.1081   29.5305   44.0503 H   0  0  0  0  0  0  0  0  0  0  0  0
  1  2  2  0
  2  3  1  0
  3  4  2  0
  4  5  1  0
  5  6  2  0
  6  7  1  0
  7  8  2  0
  8  9  1  0
  9 10  1  0
 10 11  1  0
 11 12  1  0
 12 13  2  0
 13 14  1  0
 14 15  2  0
 14 16  1  0
 16 17  1  0
  2 18  1  0
 18 19  1  0
 19 20  1  0
 20 21  1  0
 21 22  1  0
 22 23  1  0
  8  3  1  0
 17 11  2  0
 23 18  1  0
  4 24  1  0
  5 25  1  0
  6 26  1  0
  7 27  1  0
  9 28  1  0
  9 29  1  0
 10 30  1  0
 10 31  1  0
 12 32  1  0
 13 33  1  0
 18 34  1  0
 19 35  1  0
 19 36  1  0
 20 37  1  0
 20 38  1  0
 21 39  1  0
 22 40  1  0
 22 41  1  0
 23 42  1  0
 23 43  1  0
M  CHG  2  16  -1  18   1
M  END
>  <UniqueID>  (78) 
70

>  <SMILES>  (78) 
O=C(c1ccccc1CCc1ccc(=O)[n-]n1)[NH+]1CCNCC1

>  <Energy>  (78) 
53.134524467553014

>  <Genealogy>  (78) 
O=C(c1ccccc1CCc1ccc(=O)[n-]n1)[NH+]1CCNCC1 (protonated)
O=C(c1ccccc1CCc1ccc(=O)[n-]n1)[NH+]1CCNCC1 (3D coordinates assigned)
O=C(c1ccccc1CCc1ccc(=O)[n-]n1)[NH+]1CCNCC1 (nonaromatic ring conformer: 53.134524467553014 kcal/mol)

>  <smiles>  (78) 
O=C(c1ccccc1CCc1ccc(=O)[nH]n1)N1CCNCC1

>  <score_type>  (78) 
oracle

>  <origin>  (78) 
adg

>  <m_score__min__energy>  (78) 
-7.46

>  <m_primary>  (78) 
energy

$$$$
78:0
     RDKit          3D

 52 55  0  0  1  0  0  0  0  0999 V2000
   58.7590   22.2610   44.9850 C   0  0  0  0  0  0  0  0  0  0  0  0
   57.9350   23.4420   45.3580 C   0  0  0  0  0  0  0  0  0  0  0  0
   56.6020   23.4930   45.0090 C   0  0  0  0  0  0  0  0  0  0  0  0
   55.7940   24.5750   45.3340 C   0  0  0  0  0  0  0  0  0  0  0  0
   56.3660   25.6230   46.0310 C   0  0  0  0  0  0  0  0  0  0  0  0
   55.5700   26.6990   46.3570 O   0  0  0  0  0  0  0  0  0  0  0  0
   57.7010   25.5610   46.3760 C   0  0  0  0  0  0  0  0  0  0  0  0
   58.2860   26.6970   47.1220 C   0  0  0  0  0  0  0  0  0  0  0  0
   57.6950   27.7720   47.0550 O   0  0  0  0  0  0  0  0  0  0  0  0
   59.4730   26.5310   47.8730 N   0  0  0  0  0  0  0  0  0  0  0  0
   60.1350   27.5030   48.6200 C   0  0  0  0  0  0  0  0  0  0  0  0
   60.6800   27.1210   49.8540 C   0  0  0  0  0  0  0  0  0  0  0  0
   61.3480   28.0160   50.6540 C   0  0  0  0  0  0  0  0  0  0  0  0
   61.5150   29.3210   50.2860 C   0  0  0  0  0  0  0  0  0  0  0  0
   60.9960   29.7300   49.0870 C   0  0  0  0  0  0  0  0  0  0  0  0
   61.1590   31.1600   48.6520 C   0  0  0  0  0  0  0  0  0  0  0  0
   60.8650   31.3470   47.2700 N   0  0  0  0  0  0  0  0  0  0  0  0
   59.7310   31.3980   46.7070 C   0  0  0  0  0  0  0  0  0  0  0  0
   58.9190   32.4150   46.9710 N   0  0  0  0  0  0  0  0  0  0  0  0
   57.6990   32.5730   46.4350 C   0  0  0  0  0  0  0  0  0  0  0  0
   57.2810   31.6310   45.5760 N   0  0  0  0  0  0  0  0  0  0  0  0
   58.0540   30.5720   45.2650 C   0  0  0  0  0  0  0  0  0  0  0  0
   57.6020   29.6130   44.3760 C   0  0  0  0  0  0  0  0  0  0  0  0
   56.2940   29.7060   43.7500 C   0  0  0  0  0  0  0  0  0  0  0  0
   55.1140   29.7320   44.5430 N   0  0  0  0  0  0  0  0  0  0  0  0
   56.1330   29.7660   42.4990 O   0  0  0  0  0  0  0  0  0  0  0  0
   58.4250   28.5430   44.0830 C   0  0  0  0  0  0  0  0  0  0  0  0
   59.6700   28.4190   44.6540 C   0  0  0  0  0  0  0  0  0  0  0  0
   60.1440   29.3670   45.5470 C   0  0  0  0  0  0  0  0  0  0  0  0
   59.3120   30.4260   45.8280 C   0  0  0  0  0  0  0  0  0  0  0  0
   60.3180   28.8150   48.2790 C   0  0  0  0  0  0  0  0  0  0  0  0
   58.4440   24.4940   46.0390 N   0  0  0  0  0  0  0  0  0  0  0  0
   59.1109   21.7566   45.8970 H   0  0  0  0  0  0  0  0  0  0  0  0
   58.1511   21.5626   44.3911 H   0  0  0  0  0  0  0  0  0  0  0  0
   59.6243   22.5905   44.3911 H   0  0  0  0  0  0  0  0  0  0  0  0
   56.1643   22.6494   44.4552 H   0  0  0  0  0  0  0  0  0  0  0  0
   54.7326   24.5973   45.0459 H   0  0  0  0  0  0  0  0  0  0  0  0
   55.7290   27.3540   47.0990 H   0  0  0  0  0  0  0  0  0  0  0  0
   59.8820   25.5460   47.8450 H   0  0  0  0  0  0  0  0  0  0  0  0
   60.5700   26.0793   50.1898 H   0  0  0  0  0  0  0  0  0  0  0  0
   61.7588   27.6732   51.6151 H   0  0  0  0  0  0  0  0  0  0  0  0
   62.0532   30.0257   50.9370 H   0  0  0  0  0  0  0  0  0  0  0  0
   60.4792   31.7889   49.2455 H   0  0  0  0  0  0  0  0  0  0  0  0
   62.2109   31.4398   48.8108 H   0  0  0  0  0  0  0  0  0  0  0  0
   59.2370   33.1480   47.6350 H   0  0  0  0  0  0  0  0  0  0  0  0
   57.0686   33.4379   46.6891 H   0  0  0  0  0  0  0  0  0  0  0  0
   54.4010   28.9730   44.5010 H   0  0  0  0  0  0  0  0  0  0  0  0
   54.9940   30.5680   45.1830 H   0  0  0  0  0  0  0  0  0  0  0  0
   58.0772   27.7737   43.3779 H   0  0  0  0  0  0  0  0  0  0  0  0
   60.2994   27.5539   44.3980 H   0  0  0  0  0  0  0  0  0  0  0  0
   61.1382   29.2770   46.0091 H   0  0  0  0  0  0  0  0  0  0  0  0
   59.9105   29.1670   47.3198 H   0  0  0  0  0  0  0  0  0  0  0  0
  1  2  1  0
  2  3  2  0
  3  4  1  0
  4  5  2  0
  5  6  1  0
  5  7  1  0
  7  8  1  0
  8  9  2  0
  8 10  1  0
 10 11  1  0
 11 12  2  0
 12 13  1  0
 13 14  2  0
 14 15  1  0
 15 16  1  0
 16 17  1  0
 17 18  2  0
 18 19  1  0
 19 20  1  0
 20 21  2  0
 21 22  1  0
 22 23  2  0
 23 24  1  0
 24 25  1  0
 24 26  2  0
 23 27  1  0
 27 28  2  0
 28 29  1  0
 29 30  2  0
 15 31  2  0
  7 32  2  0
 32  2  1  0
 31 11  1  0
 30 18  1  0
 30 22  1  0
  1 33  1  0
  1 34  1  0
  1 35  1  0
  3 36  1  0
  4 37  1  0
  6 38  1  0
 10 39  1  0
 12 40  1  0
 13 41  1  0
 14 42  1  0
 16 43  1  0
 16 44  1  0
 19 45  1  0
 20 46  1  0
 25 47  1  0
 25 48  1  0
 27 49  1  0
 28 50  1  0
 29 51  1  0
 31 52  1  0
M  END
>  <smiles>  (79) 
Cc1ccc(O)c(C(=O)Nc2cccc(CN=c3[nH]cnc4c(C(N)=O)cccc34)c2)n1

>  <score_type>  (79) 
oracle

>  <origin>  (79) 
adg

>  <m_score__min__energy>  (79) 
-9.8900000000000006

>  <m_primary>  (79) 
energy

$$$$
79:0
     RDKit          3D

 29 30  0  0  0  0  0  0  0  0999 V2000
   62.6090   34.1630   49.4860 C   0  0  0  0  0  0  0  0  0  0  0  0
   61.2620   34.5990   49.3310 O   0  0  0  0  0  0  0  0  0  0  0  0
   60.3840   34.1220   48.3460 C   0  0  0  0  0  0  0  0  0  0  0  0
   60.4170   34.5830   47.0150 C   0  0  0  0  0  0  0  0  0  0  0  0
   59.5180   34.0760   46.0730 C   0  0  0  0  0  0  0  0  0  0  0  0
   58.5590   33.1240   46.4500 C   0  0  0  0  0  0  0  0  0  0  0  0
   57.6730   32.5480   45.4790 N   0  0  0  0  0  0  0  0  0  0  0  0
   57.4690   31.2870   45.2080 C   0  0  0  0  0  0  0  0  0  0  0  0
   56.2380   30.9270   44.7710 N   0  0  0  0  0  0  0  0  0  0  0  0
   55.9420   29.6410   44.4720 C   0  0  0  0  0  0  0  0  0  0  0  0
   54.7870   29.3400   44.0700 O   0  0  0  0  0  0  0  0  0  0  0  0
   56.8910   28.6800   44.6090 N   0  0  0  0  0  0  0  0  0  0  0  0
   58.1270   28.9860   45.0240 N   0  0  0  0  0  0  0  0  0  0  0  0
   59.1370   27.9250   45.1220 C   0  0  0  0  0  0  0  0  0  0  0  0
   58.4640   30.2830   45.3090 C   0  0  0  0  0  0  0  0  0  0  0  0
   59.6530   30.5690   45.6150 O   0  0  0  0  0  0  0  0  0  0  0  0
   58.5480   32.6400   47.7630 C   0  0  0  0  0  0  0  0  0  0  0  0
   59.4470   33.1460   48.7070 C   0  0  0  0  0  0  0  0  0  0  0  0
   62.8484   34.0855   50.5568 H   0  0  0  0  0  0  0  0  0  0  0  0
   62.7329   33.1789   49.0104 H   0  0  0  0  0  0  0  0  0  0  0  0
   63.2861   34.8879   49.0104 H   0  0  0  0  0  0  0  0  0  0  0  0
   61.1527   35.3443   46.7165 H   0  0  0  0  0  0  0  0  0  0  0  0
   59.5625   34.4250   45.0308 H   0  0  0  0  0  0  0  0  0  0  0  0
   56.6420   27.6930   44.3720 H   0  0  0  0  0  0  0  0  0  0  0  0
   59.3415   27.7102   46.1813 H   0  0  0  0  0  0  0  0  0  0  0  0
   58.7626   27.0157   44.6291 H   0  0  0  0  0  0  0  0  0  0  0  0
   60.0636   28.2542   44.6291 H   0  0  0  0  0  0  0  0  0  0  0  0
   57.8299   31.8590   48.0534 H   0  0  0  0  0  0  0  0  0  0  0  0
   59.4179   32.7742   49.7419 H   0  0  0  0  0  0  0  0  0  0  0  0
  1  2  1  0
  2  3  1  0
  3  4  2  0
  4  5  1  0
  5  6  2  0
  6  7  1  0
  7  8  2  3
  8  9  1  0
  9 10  1  0
 10 11  2  0
 10 12  1  0
 12 13  1  0
 13 14  1  0
 13 15  1  0
 15 16  2  0
  6 17  1  0
 17 18  2  0
 18  3  1  0
 15  8  1  0
  1 19  1  0
  1 20  1  0
  1 21  1  0
  4 22  1  0
  5 23  1  0
 12 24  1  0
 14 25  1  0
 14 26  1  0
 14 27  1  0
 17 28  1  0
 18 29  1  0
M  CHG  1   9  -1
M  END
>  <UniqueID>  (80) 
71

>  <SMILES>  (80) 
COc1ccc(N=c2[n-]c(=O)[nH]n(C)c2=O)cc1

>  <Energy>  (80) 
44.41852174738827

>  <Genealogy>  (80) 
COc1ccc(N=c2[n-]c(=O)[nH]n(C)c2=O)cc1 (protonated)
COc1ccc(N=c2[n-]c(=O)[nH]n(C)c2=O)cc1 (3D coordinates assigned)
COc1ccc(N=c2[n-]c(=O)[nH]n(C)c2=O)cc1 (optimized conformer: 44.41852174738827 kcal/mol)

>  <smiles>  (80) 
COc1ccc(N=c2[nH]c(=O)[nH]n(C)c2=O)cc1

>  <score_type>  (80) 
oracle

>  <origin>  (80) 
adg

>  <m_score__min__energy>  (80) 
-7.5899999999999999

>  <m_primary>  (80) 
energy

$$$$
80:0
     RDKit          3D

 47 49  0  0  0  0  0  0  0  0999 V2000
   60.2450   27.1720   48.4150 C   0  0  0  0  0  0  0  0  0  0  0  0
   59.9160   26.3520   47.1710 C   0  0  0  0  0  0  0  0  0  0  0  0
   58.6010   26.7950   46.5660 C   0  0  0  0  0  0  0  0  0  0  0  0
   57.4900   25.9520   46.7010 C   0  0  0  0  0  0  0  0  0  0  0  0
   56.2530   26.3560   46.1950 C   0  0  0  0  0  0  0  0  0  0  0  0
   55.2520   25.6000   46.3050 O   0  0  0  0  0  0  0  0  0  0  0  0
   56.1230   27.5360   45.6030 O   0  0  0  0  0  0  0  0  0  0  0  0
   57.1340   28.3880   45.4530 C   0  0  0  0  0  0  0  0  0  0  0  0
   56.9070   29.6330   44.8270 C   0  0  0  0  0  0  0  0  0  0  0  0
   55.5270   29.9870   44.3340 C   0  0  0  0  0  0  0  0  0  0  0  0
   57.9680   30.5550   44.7200 C   0  0  0  0  0  0  0  0  0  0  0  0
   57.7640   31.8280   44.1770 O   0  0  0  0  0  0  0  0  0  0  0  0
   57.0490   32.8400   44.8830 C   0  0  0  0  0  0  0  0  0  0  0  0
   57.9420   33.4870   45.8960 C   0  0  0  0  0  0  0  0  0  0  0  0
   57.4600   33.8510   47.0030 O   0  0  0  0  0  0  0  0  0  0  0  0
   59.3210   33.7310   45.5870 N   0  0  0  0  0  0  0  0  0  0  0  0
   60.2230   34.4260   46.5030 C   0  0  0  0  0  0  0  0  0  0  0  0
   61.3310   33.5070   46.9380 C   0  0  0  0  0  0  0  0  0  0  0  0
   62.6750   33.8470   46.7060 C   0  0  0  0  0  0  0  0  0  0  0  0
   63.6950   32.9720   47.0870 C   0  0  0  0  0  0  0  0  0  0  0  0
   63.3850   31.7530   47.6980 C   0  0  0  0  0  0  0  0  0  0  0  0
   62.0520   31.4040   47.9190 C   0  0  0  0  0  0  0  0  0  0  0  0
   61.0260   32.2750   47.5350 C   0  0  0  0  0  0  0  0  0  0  0  0
   59.2460   30.2070   45.1630 C   0  0  0  0  0  0  0  0  0  0  0  0
   59.4790   28.9700   45.7620 C   0  0  0  0  0  0  0  0  0  0  0  0
   58.4280   28.0480   45.9290 C   0  0  0  0  0  0  0  0  0  0  0  0
   60.0092   26.5843   49.3145 H   0  0  0  0  0  0  0  0  0  0  0  0
   61.3150   27.4270   48.4137 H   0  0  0  0  0  0  0  0  0  0  0  0
   59.6479   28.0959   48.4137 H   0  0  0  0  0  0  0  0  0  0  0  0
   60.7171   26.4854   46.4291 H   0  0  0  0  0  0  0  0  0  0  0  0
   59.8323   25.2937   47.4589 H   0  0  0  0  0  0  0  0  0  0  0  0
   57.5917   24.9782   47.2024 H   0  0  0  0  0  0  0  0  0  0  0  0
   54.8629   30.1574   45.1942 H   0  0  0  0  0  0  0  0  0  0  0  0
   55.5788   30.9009   43.7241 H   0  0  0  0  0  0  0  0  0  0  0  0
   55.1324   29.1610   43.7241 H   0  0  0  0  0  0  0  0  0  0  0  0
   56.6955   33.6002   44.1709 H   0  0  0  0  0  0  0  0  0  0  0  0
   56.1911   32.3830   45.3979 H   0  0  0  0  0  0  0  0  0  0  0  0
   59.7010   33.3950   44.6750 H   0  0  0  0  0  0  0  0  0  0  0  0
   60.6549   35.3003   45.9940 H   0  0  0  0  0  0  0  0  0  0  0  0
   59.6562   34.7490   47.3886 H   0  0  0  0  0  0  0  0  0  0  0  0
   62.9240   34.8037   46.2236 H   0  0  0  0  0  0  0  0  0  0  0  0
   64.7456   33.2428   46.9058 H   0  0  0  0  0  0  0  0  0  0  0  0
   64.1910   31.0699   48.0041 H   0  0  0  0  0  0  0  0  0  0  0  0
   61.8074   30.4432   48.3955 H   0  0  0  0  0  0  0  0  0  0  0  0
   59.9762   31.9922   47.7021 H   0  0  0  0  0  0  0  0  0  0  0  0
   60.0773   30.9164   45.0379 H   0  0  0  0  0  0  0  0  0  0  0  0
   60.4913   28.7123   46.1067 H   0  0  0  0  0  0  0  0  0  0  0  0
  1  2  1  0
  2  3  1  0
  3  4  2  0
  4  5  1  0
  5  6  2  0
  5  7  1  0
  7  8  1  0
  8  9  2  0
  9 10  1  0
  9 11  1  0
 11 12  1  0
 12 13  1  0
 13 14  1  0
 14 15  2  0
 14 16  1  0
 16 17  1  0
 17 18  1  0
 18 19  2  0
 19 20  1  0
 20 21  2  0
 21 22  1  0
 22 23  2  0
 11 24  2  0
 24 25  1  0
 25 26  2  0
 26  3  1  0
 26  8  1  0
 23 18  1  0
  1 27  1  0
  1 28  1  0
  1 29  1  0
  2 30  1  0
  2 31  1  0
  4 32  1  0
 10 33  1  0
 10 34  1  0
 10 35  1  0
 13 36  1  0
 13 37  1  0
 16 38  1  0
 17 39  1  0
 17 40  1  0
 19 41  1  0
 20 42  1  0
 21 43  1  0
 22 44  1  0
 23 45  1  0
 24 46  1  0
 25 47  1  0
M  END
>  <UniqueID>  (81) 
72

>  <SMILES>  (81) 
CCc1cc(=O)oc2c(C)c(OCC(=O)NCc3ccccc3)ccc12

>  <Energy>  (81) 
51.64251112326711

>  <Genealogy>  (81) 
CCc1cc(=O)oc2c(C)c(OCC(=O)NCc3ccccc3)ccc12 (3D coordinates assigned)
CCc1cc(=O)oc2c(C)c(OCC(=O)NCc3ccccc3)ccc12 (optimized conformer: 51.64251112326711 kcal/mol)

>  <smiles>  (81) 
CCc1cc(=O)oc2c(C)c(OCC(=O)NCc3ccccc3)ccc12

>  <score_type>  (81) 
oracle

>  <origin>  (81) 
adg

>  <m_score__min__energy>  (81) 
-8.5

>  <m_primary>  (81) 
energy

$$$$
81:0
     RDKit          3D

 64 67  0  0  0  0  0  0  0  0999 V2000
   56.5130   33.0380   48.4640 H   0  0  0  0  0  0  0  0  0  0  0  0
   57.4320   32.7940   48.1160 O   0  0  0  0  0  0  0  0  0  0  0  0
   57.7900   33.0150   46.7890 C   0  0  0  0  0  0  0  0  0  0  0  0
   58.1700   34.2980   46.3830 C   0  0  0  0  0  0  0  0  0  0  0  0
   58.1806   35.1234   47.1100 H   0  0  0  0  0  0  0  0  0  0  0  0
   58.5360   34.5330   45.0560 C   0  0  0  0  0  0  0  0  0  0  0  0
   58.8386   35.5427   44.7413 H   0  0  0  0  0  0  0  0  0  0  0  0
   58.5190   33.4890   44.1260 C   0  0  0  0  0  0  0  0  0  0  0  0
   58.8161   33.6793   43.0841 H   0  0  0  0  0  0  0  0  0  0  0  0
   58.1230   32.1940   44.5170 C   0  0  0  0  0  0  0  0  0  0  0  0
   58.1010   31.0520   43.5710 C   0  0  0  0  0  0  0  0  0  0  0  0
   58.9903   30.8750   42.9482 H   0  0  0  0  0  0  0  0  0  0  0  0
   57.0560   30.2240   43.4340 C   0  0  0  0  0  0  0  0  0  0  0  0
   56.7285   29.9423   42.4224 H   0  0  0  0  0  0  0  0  0  0  0  0
   56.3290   29.6770   44.6010 C   0  0  0  0  0  0  0  0  0  0  0  0
   55.1550   30.0620   44.8450 O   0  0  0  0  0  0  0  0  0  0  0  0
   56.9170   28.6990   45.4700 N   0  0  0  0  0  0  0  0  0  0  0  0
   57.8490   27.6460   45.0780 C   0  0  0  0  0  0  0  0  0  0  0  0
   57.5050   26.6898   45.4990 H   0  0  0  0  0  0  0  0  0  0  0  0
   57.8780   27.6034   43.9792 H   0  0  0  0  0  0  0  0  0  0  0  0
   59.2710   27.9320   45.5860 C   0  0  0  0  0  0  0  0  0  0  0  0
   59.9810   27.7286   44.7708 H   0  0  0  0  0  0  0  0  0  0  0  0
   59.2987   28.9843   45.9051 H   0  0  0  0  0  0  0  0  0  0  0  0
   59.6640   27.0750   46.8020 C   0  0  0  0  0  0  0  0  0  0  0  0
   59.0326   26.1744   46.8187 H   0  0  0  0  0  0  0  0  0  0  0  0
   60.7288   26.8179   46.7019 H   0  0  0  0  0  0  0  0  0  0  0  0
   59.4920   27.8010   48.0820 N   0  0  0  0  0  0  0  0  0  0  0  0
   58.5660   28.9540   47.9330 C   0  0  0  0  0  0  0  0  0  0  0  0
   57.9228   28.7799   47.0578 H   0  0  0  0  0  0  0  0  0  0  0  0
   57.9753   29.0319   48.8577 H   0  0  0  0  0  0  0  0  0  0  0  0
   59.3140   30.2850   47.7400 C   0  0  0  0  0  0  0  0  0  0  0  0
   59.9572   30.2037   46.8513 H   0  0  0  0  0  0  0  0  0  0  0  0
   58.5623   31.0791   47.6207 H   0  0  0  0  0  0  0  0  0  0  0  0
   60.2060   30.6510   48.9760 C   0  0  0  0  0  0  0  0  0  0  0  0
   59.4680   31.4770   50.0540 C   0  0  0  0  0  0  0  0  0  0  0  0
   59.8250   32.8020   50.4030 C   0  0  0  0  0  0  0  0  0  0  0  0
   60.6821   33.2823   49.9082 H   0  0  0  0  0  0  0  0  0  0  0  0
   59.1010   33.5070   51.3690 C   0  0  0  0  0  0  0  0  0  0  0  0
   59.4019   34.5298   51.6397 H   0  0  0  0  0  0  0  0  0  0  0  0
   58.0000   32.9210   51.9910 C   0  0  0  0  0  0  0  0  0  0  0  0
   57.4371   33.4787   52.7539 H   0  0  0  0  0  0  0  0  0  0  0  0
   57.6130   31.6270   51.6450 C   0  0  0  0  0  0  0  0  0  0  0  0
   56.7409   31.1656   52.1314 H   0  0  0  0  0  0  0  0  0  0  0  0
   58.3320   30.9160   50.6810 C   0  0  0  0  0  0  0  0  0  0  0  0
   58.0084   29.9016   50.4050 H   0  0  0  0  0  0  0  0  0  0  0  0
   61.3700   31.5100   48.4300 C   0  0  0  0  0  0  0  0  0  0  0  0
   61.2420   32.3910   47.3300 C   0  0  0  0  0  0  0  0  0  0  0  0
   60.2767   32.4738   46.8091 H   0  0  0  0  0  0  0  0  0  0  0  0
   62.3280   33.1570   46.8980 C   0  0  0  0  0  0  0  0  0  0  0  0
   62.2134   33.8309   46.0362 H   0  0  0  0  0  0  0  0  0  0  0  0
   63.5560   33.0720   47.5530 C   0  0  0  0  0  0  0  0  0  0  0  0
   64.4102   33.6706   47.2037 H   0  0  0  0  0  0  0  0  0  0  0  0
   63.6980   32.2260   48.6520 C   0  0  0  0  0  0  0  0  0  0  0  0
   64.6639   32.1629   49.1745 H   0  0  0  0  0  0  0  0  0  0  0  0
   62.6180   31.4590   49.0910 C   0  0  0  0  0  0  0  0  0  0  0  0
   62.7402   30.8038   49.9661 H   0  0  0  0  0  0  0  0  0  0  0  0
   60.6680   29.3300   49.6780 C   0  0  0  0  0  0  0  0  0  0  0  0
   61.6445   29.5042   50.1536 H   0  0  0  0  0  0  0  0  0  0  0  0
   59.9043   29.0571   50.4212 H   0  0  0  0  0  0  0  0  0  0  0  0
   60.8010   28.1630   48.6870 C   0  0  0  0  0  0  0  0  0  0  0  0
   61.4956   28.4540   47.8852 H   0  0  0  0  0  0  0  0  0  0  0  0
   61.1771   27.2880   49.2374 H   0  0  0  0  0  0  0  0  0  0  0  0
   57.7750   31.9650   45.8590 C   0  0  0  0  0  0  0  0  0  0  0  0
   57.4884   30.9536   46.1830 H   0  0  0  0  0  0  0  0  0  0  0  0
  1  2  1  0
  2  3  1  0
  3  4  2  0
  4  5  1  0
  4  6  1  0
  6  7  1  0
  6  8  2  0
  8  9  1  0
  8 10  1  0
 10 11  1  0
 11 12  1  0
 11 13  2  0
 13 14  1  0
 13 15  1  0
 15 16  2  0
 15 17  1  0
 17 18  1  0
 18 19  1  0
 18 20  1  0
 18 21  1  0
 21 22  1  0
 21 23  1  0
 21 24  1  0
 24 25  1  0
 24 26  1  0
 24 27  1  0
 27 28  1  0
 28 29  1  0
 28 30  1  0
 28 31  1  0
 31 32  1  0
 31 33  1  0
 31 34  1  0
 34 35  1  0
 35 36  2  0
 36 37  1  0
 36 38  1  0
 38 39  1  0
 38 40  2  0
 40 41  1  0
 40 42  1  0
 42 43  1  0
 42 44  2  0
 44 45  1  0
 34 46  1  0
 46 47  2  0
 47 48  1  0
 47 49  1  0
 49 50  1  0
 49 51  2  0
 51 52  1  0
 51 53  1  0
 53 54  1  0
 53 55  2  0
 55 56  1  0
 34 57  1  0
 57 58  1  0
 57 59  1  0
 57 60  1  0
 60 61  1  0
 60 62  1  0
 10 63  2  0
 63 64  1  0
 63  3  1  0
 60 27  1  0
 44 35  1  0
 55 46  1  0
M  CHG  1  17  -1
M  END
>  <UniqueID>  (82) 
73

>  <SMILES>  (82) 
O=C(/C=C/c1cccc(O)c1)[N-]CCCN1CCC(c2ccccc2)(c2ccccc2)CC1

>  <Energy>  (82) 
87.79907640286457

>  <Genealogy>  (82) 
O=C(C=Cc1cccc(O)c1)[N-]CCCN1CCC(c2ccccc2)(c2ccccc2)CC1 (protonated)
O=C(/C=C/c1cccc(O)c1)[N-]CCCN1CCC(c2ccccc2)(c2ccccc2)CC1 (cis-trans isomerization)
O=C(/C=C/c1cccc(O)c1)[N-]CCCN1CCC(c2ccccc2)(c2ccccc2)CC1 (3D coordinates assigned)
O=C(/C=C/c1cccc(O)c1)[N-]CCCN1CCC(c2ccccc2)(c2ccccc2)CC1 (nonaromatic ring conformer: 87.79907640286457 kcal/mol)

>  <smiles>  (82) 
O=C(C=Cc1cccc(O)c1)NCCCN1CCC(c2ccccc2)(c2ccccc2)CC1

>  <score_type>  (82) 
oracle

>  <origin>  (82) 
adg

>  <m_score__min__energy>  (82) 
-12.67

>  <m_primary>  (82) 
energy

$$$$
82:0
     RDKit          3D

 43 45  0  0  0  0  0  0  0  0999 V2000
   59.3970   35.6920   45.0420 O   0  0  0  0  0  0  0  0  0  0  0  0
   59.5800   34.5850   45.6840 C   0  0  0  0  0  0  0  0  0  0  0  0
   60.5140   34.6610   46.7350 N   0  0  0  0  0  0  0  0  0  0  0  0
   61.4740   33.8250   46.8090 C   0  0  0  0  0  0  0  0  0  0  0  0
   62.7790   33.9020   46.4840 N   0  0  0  0  0  0  0  0  0  0  0  0
   63.3980   32.7690   46.7270 N   0  0  0  0  0  0  0  0  0  0  0  0
   62.4800   31.9440   47.2170 N   0  0  0  0  0  0  0  0  0  0  0  0
   61.2970   32.5590   47.2800 N   0  0  0  0  0  0  0  0  0  0  0  0
   58.8370   33.4250   45.2730 C   0  0  0  0  0  0  0  0  0  0  0  0
   58.4370   32.4400   46.1630 C   0  0  0  0  0  0  0  0  0  0  0  0
   57.7510   31.3240   45.7410 C   0  0  0  0  0  0  0  0  0  0  0  0
   57.4430   31.1660   44.3790 C   0  0  0  0  0  0  0  0  0  0  0  0
   56.6410   29.6840   43.8550 S   0  0  0  0  0  0  0  0  0  0  0  0
   55.9940   29.9090   42.5250 O   0  0  0  0  0  0  0  0  0  0  0  0
   55.6560   29.3090   44.9270 O   0  0  0  0  0  0  0  0  0  0  0  0
   57.7520   28.4030   43.7130 N   0  0  0  0  0  0  0  0  0  0  0  0
   57.8070   27.6140   44.9350 C   0  0  0  0  0  0  0  0  0  0  0  0
   58.6870   28.3060   45.9450 C   0  0  0  0  0  0  0  0  0  0  0  0
   59.8520   28.8840   45.4980 C   0  0  0  0  0  0  0  0  0  0  0  0
   60.6060   29.5380   46.4400 C   0  0  0  0  0  0  0  0  0  0  0  0
   60.2270   29.6230   47.7850 C   0  0  0  0  0  0  0  0  0  0  0  0
   60.9600   30.2490   48.6420 O   0  0  0  0  0  0  0  0  0  0  0  0
   61.5800   30.7560   49.6670 C   0  0  0  0  0  0  0  0  0  0  0  0
   61.4520   29.9110   50.7970 F   0  0  0  0  0  0  0  0  0  0  0  0
   61.2460   32.0540   50.0520 F   0  0  0  0  0  0  0  0  0  0  0  0
   62.9780   30.8060   49.4730 F   0  0  0  0  0  0  0  0  0  0  0  0
   59.0310   29.0110   48.1580 C   0  0  0  0  0  0  0  0  0  0  0  0
   58.2320   28.3320   47.2280 C   0  0  0  0  0  0  0  0  0  0  0  0
   57.8320   32.1410   43.4650 C   0  0  0  0  0  0  0  0  0  0  0  0
   58.5170   33.2480   43.9190 C   0  0  0  0  0  0  0  0  0  0  0  0
   62.6990   30.9730   47.4950 H   0  0  0  0  0  0  0  0  0  0  0  0
   60.3910   32.1310   47.6390 H   0  0  0  0  0  0  0  0  0  0  0  0
   58.6735   32.5531   47.2313 H   0  0  0  0  0  0  0  0  0  0  0  0
   57.4445   30.5575   46.4681 H   0  0  0  0  0  0  0  0  0  0  0  0
   57.4610   27.7670   42.9350 H   0  0  0  0  0  0  0  0  0  0  0  0
   56.7927   27.5055   45.3466 H   0  0  0  0  0  0  0  0  0  0  0  0
   58.2213   26.6202   44.7097 H   0  0  0  0  0  0  0  0  0  0  0  0
   60.1622   28.8254   44.4443 H   0  0  0  0  0  0  0  0  0  0  0  0
   61.5461   30.0147   46.1255 H   0  0  0  0  0  0  0  0  0  0  0  0
   58.7066   29.0623   49.2078 H   0  0  0  0  0  0  0  0  0  0  0  0
   57.2887   27.8466   47.5188 H   0  0  0  0  0  0  0  0  0  0  0  0
   57.5964   32.0300   42.3963 H   0  0  0  0  0  0  0  0  0  0  0  0
   58.8227   34.0179   43.1953 H   0  0  0  0  0  0  0  0  0  0  0  0
  1  2  2  0
  2  3  1  0
  3  4  2  3
  4  5  1  0
  5  6  2  0
  6  7  1  0
  7  8  1  0
  2  9  1  0
  9 10  2  0
 10 11  1  0
 11 12  2  0
 12 13  1  0
 13 14  2  0
 13 15  2  0
 13 16  1  0
 16 17  1  0
 17 18  1  0
 18 19  2  0
 19 20  1  0
 20 21  2  0
 21 22  1  0
 22 23  1  0
 23 24  1  0
 23 25  1  0
 23 26  1  0
 21 27  1  0
 27 28  2  0
 12 29  1  0
 29 30  2  0
  8  4  1  0
 30  9  1  0
 28 18  1  0
  7 31  1  0
  8 32  1  0
 10 33  1  0
 11 34  1  0
 16 35  1  0
 17 36  1  0
 17 37  1  0
 19 38  1  0
 20 39  1  0
 27 40  1  0
 28 41  1  0
 29 42  1  0
 30 43  1  0
M  END
>  <smiles>  (83) 
O=C(N=c1nn[nH][nH]1)c1ccc(S(=O)(=O)NCc2ccc(OC(F)(F)F)cc2)cc1

>  <score_type>  (83) 
oracle

>  <origin>  (83) 
adg

>  <m_score__min__energy>  (83) 
-8.8699999999999992

>  <m_primary>  (83) 
energy

$$$$
83:0
     RDKit          3D

 48 49  0  0  0  0  0  0  0  0999 V2000
   60.8670   33.8120   46.6380 C   0  0  0  0  0  0  0  0  0  0  0  0
   60.6680   32.5920   47.3440 O   0  0  0  0  0  0  0  0  0  0  0  0
   59.9420   32.4660   48.5410 C   0  0  0  0  0  0  0  0  0  0  0  0
   59.9690   33.4700   49.5270 C   0  0  0  0  0  0  0  0  0  0  0  0
   59.2700   33.3140   50.7230 C   0  0  0  0  0  0  0  0  0  0  0  0
   59.3560   34.3020   51.6970 O   0  0  0  0  0  0  0  0  0  0  0  0
   58.5050   32.1530   50.9450 C   0  0  0  0  0  0  0  0  0  0  0  0
   57.7760   31.9660   52.1660 N   0  0  0  0  0  0  0  0  0  0  0  0
   57.1750   30.7160   52.5290 C   0  0  0  0  0  0  0  0  0  0  0  0
   57.3820   29.6830   51.8360 O   0  0  0  0  0  0  0  0  0  0  0  0
   56.3620   30.6040   53.7810 C   0  0  0  0  0  0  0  0  0  0  0  0
   54.9740   30.7030   53.4710 O   0  0  0  0  0  0  0  0  0  0  0  0
   54.4070   30.1920   52.3010 C   0  0  0  0  0  0  0  0  0  0  0  0
   54.5950   28.9900   51.9760 O   0  0  0  0  0  0  0  0  0  0  0  0
   53.5050   31.0540   51.5160 C   0  0  0  0  0  0  0  0  0  0  0  0
   52.1960   31.2430   51.7480 C   0  0  0  0  0  0  0  0  0  0  0  0
   51.3680   32.3450   51.2180 C   0  0  0  0  0  0  0  0  0  0  0  0
   51.3970   32.6650   49.9990 O   0  0  0  0  0  0  0  0  0  0  0  0
   50.6060   33.1030   52.1000 O   0  0  0  0  0  0  0  0  0  0  0  0
   58.4800   31.1480   49.9710 C   0  0  0  0  0  0  0  0  0  0  0  0
   59.1780   31.3030   48.7640 C   0  0  0  0  0  0  0  0  0  0  0  0
   59.0810   30.0220   47.5420 S   0  0  0  0  0  0  0  0  0  0  0  0
   58.7810   28.7070   48.2060 O   0  0  0  0  0  0  0  0  0  0  0  0
   60.4190   29.8920   46.8690 O   0  0  0  0  0  0  0  0  0  0  0  0
   57.8530   30.3480   46.3440 N   0  0  0  0  0  0  0  0  0  0  0  0
   57.7210   29.2090   45.4210 C   0  0  0  0  0  0  0  0  0  0  0  0
   56.7390   29.5490   44.2790 C   0  0  0  0  0  0  0  0  0  0  0  0
   56.1160   30.8030   44.4920 O   0  0  0  0  0  0  0  0  0  0  0  0
   57.0970   31.8240   44.5090 C   0  0  0  0  0  0  0  0  0  0  0  0
   58.1640   31.5770   45.5950 C   0  0  0  0  0  0  0  0  0  0  0  0
   61.0011   34.6339   47.3567 H   0  0  0  0  0  0  0  0  0  0  0  0
   61.7633   33.7278   46.0059 H   0  0  0  0  0  0  0  0  0  0  0  0
   59.9904   34.0170   46.0059 H   0  0  0  0  0  0  0  0  0  0  0  0
   60.5484   34.3885   49.3518 H   0  0  0  0  0  0  0  0  0  0  0  0
   57.7760   32.7460   52.8600 H   0  0  0  0  0  0  0  0  0  0  0  0
   56.5603   29.6331   54.2586 H   0  0  0  0  0  0  0  0  0  0  0  0
   56.6384   31.4196   54.4654 H   0  0  0  0  0  0  0  0  0  0  0  0
   53.9442   31.5913   50.6625 H   0  0  0  0  0  0  0  0  0  0  0  0
   51.6931   30.5079   52.3935 H   0  0  0  0  0  0  0  0  0  0  0  0
   57.9070   30.2270   50.1539 H   0  0  0  0  0  0  0  0  0  0  0  0
   58.7066   28.9740   44.9929 H   0  0  0  0  0  0  0  0  0  0  0  0
   57.3330   28.3432   45.9777 H   0  0  0  0  0  0  0  0  0  0  0  0
   57.2919   29.5804   43.3285 H   0  0  0  0  0  0  0  0  0  0  0  0
   55.9587   28.7742   44.2500 H   0  0  0  0  0  0  0  0  0  0  0  0
   57.5907   31.8594   43.5267 H   0  0  0  0  0  0  0  0  0  0  0  0
   56.5947   32.7763   44.7344 H   0  0  0  0  0  0  0  0  0  0  0  0
   59.1499   31.4723   45.1185 H   0  0  0  0  0  0  0  0  0  0  0  0
   58.1715   32.4289   46.2908 H   0  0  0  0  0  0  0  0  0  0  0  0
  1  2  1  0
  2  3  1  0
  3  4  2  0
  4  5  1  0
  5  6  1  0
  5  7  2  0
  7  8  1  0
  8  9  1  0
  9 10  2  0
  9 11  1  0
 11 12  1  0
 12 13  1  0
 13 14  2  0
 13 15  1  0
 15 16  2  3
 16 17  1  0
 17 18  2  0
 17 19  1  0
  7 20  1  0
 20 21  2  0
 21 22  1  0
 22 23  2  0
 22 24  2  0
 22 25  1  0
 25 26  1  0
 26 27  1  0
 27 28  1  0
 28 29  1  0
 29 30  1  0
 21  3  1  0
 30 25  1  0
  1 31  1  0
  1 32  1  0
  1 33  1  0
  4 34  1  0
  8 35  1  0
 11 36  1  0
 11 37  1  0
 15 38  1  0
 16 39  1  0
 20 40  1  0
 26 41  1  0
 26 42  1  0
 27 43  1  0
 27 44  1  0
 29 45  1  0
 29 46  1  0
 30 47  1  0
 30 48  1  0
M  CHG  2   6  -1  19  -1
M  END
>  <UniqueID>  (84) 
74

>  <SMILES>  (84) 
COc1cc([O-])c(NC(=O)COC(=O)C=CC(=O)[O-])cc1S(=O)(=O)N1CCOCC1

>  <Energy>  (84) 
62.21433020418386

>  <Genealogy>  (84) 
COc1cc([O-])c(NC(=O)COC(=O)C=CC(=O)[O-])cc1S(=O)(=O)N1CCOCC1 (protonated)
COc1cc([O-])c(NC(=O)COC(=O)C=CC(=O)[O-])cc1S(=O)(=O)N1CCOCC1 (3D coordinates assigned)
COc1cc([O-])c(NC(=O)COC(=O)C=CC(=O)[O-])cc1S(=O)(=O)N1CCOCC1 (nonaromatic ring conformer: 62.21433020418386 kcal/mol)

>  <smiles>  (84) 
COc1cc(O)c(NC(=O)COC(=O)C=CC(=O)O)cc1S(=O)(=O)N1CCOCC1

>  <score_type>  (84) 
oracle

>  <origin>  (84) 
adg

>  <m_score__min__energy>  (84) 
-13.449999999999999

>  <m_primary>  (84) 
energy

$$$$
84:0
     RDKit          3D

 35 36  0  0  0  0  0  0  0  0999 V2000
   60.0010   27.7650   48.1700 C   0  0  0  0  0  0  0  0  0  0  0  0
   59.9360   29.2570   48.0320 C   0  0  0  0  0  0  0  0  0  0  0  0
   58.6980   29.9130   48.0570 C   0  0  0  0  0  0  0  0  0  0  0  0
   58.6300   31.2960   47.8890 C   0  0  0  0  0  0  0  0  0  0  0  0
   59.8010   32.0540   47.7170 C   0  0  0  0  0  0  0  0  0  0  0  0
   59.7380   33.4780   47.5510 N   0  0  0  0  0  0  0  0  0  0  0  0
   58.9120   34.2170   46.6360 C   0  0  0  0  0  0  0  0  0  0  0  0
   59.2640   35.3820   46.3170 O   0  0  0  0  0  0  0  0  0  0  0  0
   57.5910   33.7010   46.1300 C   0  0  0  0  0  0  0  0  0  0  0  0
   57.6680   33.3480   44.3420 S   0  0  0  0  0  0  0  0  0  0  0  0
   57.6310   31.5700   44.5410 C   0  0  0  0  0  0  0  0  0  0  0  0
   58.7910   30.8710   44.5860 N   0  0  0  0  0  0  0  0  0  0  0  0
   58.7940   29.5220   44.7420 C   0  0  0  0  0  0  0  0  0  0  0  0
   59.8970   28.9160   44.7830 O   0  0  0  0  0  0  0  0  0  0  0  0
   57.5750   28.8180   44.8350 C   0  0  0  0  0  0  0  0  0  0  0  0
   57.5400   27.3800   44.9610 N   0  0  0  0  0  0  0  0  0  0  0  0
   57.8760   26.6470   44.0080 O   0  0  0  0  0  0  0  0  0  0  0  0
   57.1160   26.7870   46.1290 O   0  0  0  0  0  0  0  0  0  0  0  0
   56.3870   29.5730   44.7970 C   0  0  0  0  0  0  0  0  0  0  0  0
   55.1440   28.9630   44.9160 O   0  0  0  0  0  0  0  0  0  0  0  0
   56.4440   30.9220   44.6600 N   0  0  0  0  0  0  0  0  0  0  0  0
   61.0440   31.3890   47.6170 C   0  0  0  0  0  0  0  0  0  0  0  0
   62.3020   32.1300   47.2560 C   0  0  0  0  0  0  0  0  0  0  0  0
   61.1000   29.9950   47.7780 C   0  0  0  0  0  0  0  0  0  0  0  0
   60.0127   27.4956   49.2364 H   0  0  0  0  0  0  0  0  0  0  0  0
   59.1217   27.3135   47.6874 H   0  0  0  0  0  0  0  0  0  0  0  0
   60.9163   27.3917   47.6874 H   0  0  0  0  0  0  0  0  0  0  0  0
   57.7751   29.3343   48.2099 H   0  0  0  0  0  0  0  0  0  0  0  0
   57.6512   31.7979   47.8911 H   0  0  0  0  0  0  0  0  0  0  0  0
   57.3360   32.7763   46.6685 H   0  0  0  0  0  0  0  0  0  0  0  0
   56.8249   34.4713   46.3023 H   0  0  0  0  0  0  0  0  0  0  0  0
   62.8232   32.4370   48.1748 H   0  0  0  0  0  0  0  0  0  0  0  0
   62.9573   31.4736   46.6646 H   0  0  0  0  0  0  0  0  0  0  0  0
   62.0456   33.0214   46.6646 H   0  0  0  0  0  0  0  0  0  0  0  0
   62.0676   29.4770   47.7040 H   0  0  0  0  0  0  0  0  0  0  0  0
  1  2  1  0
  2  3  2  0
  3  4  1  0
  4  5  2  0
  5  6  1  0
  6  7  1  0
  7  8  2  0
  7  9  1  0
  9 10  1  0
 10 11  1  0
 11 12  2  0
 12 13  1  0
 13 14  2  0
 13 15  1  0
 15 16  1  0
 16 17  2  0
 16 18  1  0
 15 19  2  0
 19 20  1  0
 19 21  1  0
  5 22  1  0
 22 23  1  0
 22 24  2  0
 24  2  1  0
 21 11  1  0
  1 25  1  0
  1 26  1  0
  1 27  1  0
  3 28  1  0
  4 29  1  0
  9 30  1  0
  9 31  1  0
 23 32  1  0
 23 33  1  0
 23 34  1  0
 24 35  1  0
M  CHG  5   6  -1  16   1  18  -1  20  -1  21  -1
M  END
>  <UniqueID>  (85) 
75

>  <SMILES>  (85) 
Cc1ccc([N-]C(=O)CSc2nc(=O)c([N+](=O)[O-])c([O-])[n-]2)c(C)c1

>  <Energy>  (85) 
38.502675644278334

>  <Genealogy>  (85) 
Cc1ccc([N-]C(=O)CSc2nc(=O)c([N+](=O)[O-])c([O-])[n-]2)c(C)c1 (protonated)
Cc1ccc([N-]C(=O)CSc2nc(=O)c([N+](=O)[O-])c([O-])[n-]2)c(C)c1 (3D coordinates assigned)
Cc1ccc([N-]C(=O)CSc2nc(=O)c([N+](=O)[O-])c([O-])[n-]2)c(C)c1 (optimized conformer: 38.502675644278334 kcal/mol)

>  <smiles>  (85) 
Cc1ccc(NC(=O)CSc2nc(=O)c([N+](=O)[O-])c(O)[nH]2)c(C)c1

>  <score_type>  (85) 
oracle

>  <origin>  (85) 
adg

>  <m_score__min__energy>  (85) 
-14.4

>  <m_primary>  (85) 
energy

$$$$
85:0
     RDKit          3D

 34 36  0  0  0  0  0  0  0  0999 V2000
   64.8771   33.0439   47.2776 H   0  0  0  0  0  0  0  0  0  0  0  0
   63.7830   32.9300   47.2750 C   0  0  0  0  0  0  0  0  0  0  0  0
   63.1090   31.8990   47.8200 N   0  0  0  0  0  0  0  0  0  0  0  0
   61.8190   32.1240   47.6270 N   0  0  0  0  0  0  0  0  0  0  0  0
   60.7640   31.1960   48.0180 C   0  0  0  0  0  0  0  0  0  0  0  0
   59.9339   31.7574   48.4716 H   0  0  0  0  0  0  0  0  0  0  0  0
   61.1664   30.4754   48.7452 H   0  0  0  0  0  0  0  0  0  0  0  0
   60.2630   30.4540   46.8110 C   0  0  0  0  0  0  0  0  0  0  0  0
   61.1580   29.7470   45.9950 C   0  0  0  0  0  0  0  0  0  0  0  0
   62.2346   29.7619   46.2202 H   0  0  0  0  0  0  0  0  0  0  0  0
   60.6860   29.0240   44.8970 C   0  0  0  0  0  0  0  0  0  0  0  0
   61.3932   28.4789   44.2545 H   0  0  0  0  0  0  0  0  0  0  0  0
   59.3180   28.9910   44.6120 C   0  0  0  0  0  0  0  0  0  0  0  0
   58.9544   28.4208   43.7445 H   0  0  0  0  0  0  0  0  0  0  0  0
   58.4030   29.6820   45.4270 C   0  0  0  0  0  0  0  0  0  0  0  0
   56.9510   29.6350   45.1340 C   0  0  0  0  0  0  0  0  0  0  0  0
   56.3670   30.6610   44.6860 O   0  0  0  0  0  0  0  0  0  0  0  0
   56.2310   28.3990   45.2510 N   0  0  0  0  0  0  0  0  0  0  0  0
   56.6040   27.2780   45.8080 C   0  0  0  0  0  0  0  0  0  0  0  0
   57.9240   27.1340   46.1070 N   0  0  0  0  0  0  0  0  0  0  0  0
   58.4290   26.0080   46.6770 C   0  0  0  0  0  0  0  0  0  0  0  0
   59.5044   25.9383   46.8974 H   0  0  0  0  0  0  0  0  0  0  0  0
   57.5860   24.9430   46.9820 C   0  0  0  0  0  0  0  0  0  0  0  0
   57.9912   24.0213   47.4251 H   0  0  0  0  0  0  0  0  0  0  0  0
   56.2220   25.0590   46.7190 C   0  0  0  0  0  0  0  0  0  0  0  0
   55.5448   24.2266   46.9609 H   0  0  0  0  0  0  0  0  0  0  0  0
   55.7110   26.2290   46.1490 C   0  0  0  0  0  0  0  0  0  0  0  0
   54.3350   26.3360   45.9890 O   0  0  0  0  0  0  0  0  0  0  0  0
   58.8880   30.4070   46.5310 C   0  0  0  0  0  0  0  0  0  0  0  0
   58.1819   30.9431   47.1821 H   0  0  0  0  0  0  0  0  0  0  0  0
   61.6490   33.2740   46.9480 C   0  0  0  0  0  0  0  0  0  0  0  0
   60.6850   33.7018   46.6354 H   0  0  0  0  0  0  0  0  0  0  0  0
   62.8910   33.8230   46.7120 C   0  0  0  0  0  0  0  0  0  0  0  0
   63.1213   34.7639   46.1908 H   0  0  0  0  0  0  0  0  0  0  0  0
  1  2  1  0
  2  3  2  0
  3  4  1  0
  4  5  1  0
  5  6  1  0
  5  7  1  0
  5  8  1  0
  8  9  2  0
  9 10  1  0
  9 11  1  0
 11 12  1  0
 11 13  2  0
 13 14  1  0
 13 15  1  0
 15 16  1  0
 16 17  2  0
 16 18  1  0
 18 19  2  0
 19 20  1  0
 20 21  1  0
 21 22  1  0
 21 23  2  0
 23 24  1  0
 23 25  1  0
 25 26  1  0
 25 27  2  0
 27 28  1  0
 15 29  2  0
 29 30  1  0
  4 31  1  0
 31 32  1  0
 31 33  2  0
 33 34  1  0
 33  2  1  0
 29  8  1  0
 27 19  1  0
M  CHG  2  20  -1  28  -1
M  END
>  <UniqueID>  (86) 
76

>  <SMILES>  (86) 
O=C(/N=c1/[n-]cccc1[O-])c1cccc(Cn2cccn2)c1

>  <Energy>  (86) 
77.8200996036631

>  <Genealogy>  (86) 
O=C(N=c1[n-]cccc1[O-])c1cccc(Cn2cccn2)c1 (protonated)
O=C(/N=c1/[n-]cccc1[O-])c1cccc(Cn2cccn2)c1 (cis-trans isomerization)
O=C(/N=c1/[n-]cccc1[O-])c1cccc(Cn2cccn2)c1 (3D coordinates assigned)
O=C(/N=c1/[n-]cccc1[O-])c1cccc(Cn2cccn2)c1 (optimized conformer: 77.8200996036631 kcal/mol)

>  <smiles>  (86) 
O=C(N=c1[nH]cccc1O)c1cccc(Cn2cccn2)c1

>  <score_type>  (86) 
oracle

>  <origin>  (86) 
adg

>  <m_score__min__energy>  (86) 
-13.08

>  <m_primary>  (86) 
energy

$$$$
86:0
     RDKit          3D

 58 61  0  0  0  0  0  0  0  0999 V2000
   58.6934   24.5303   47.4495 H   0  0  0  0  0  0  0  0  0  0  0  0
   58.2930   25.4430   46.9840 C   0  0  0  0  0  0  0  0  0  0  0  0
   56.9630   25.5500   46.7370 N   0  0  0  0  0  0  0  0  0  0  0  0
   56.4230   26.6550   46.1540 C   0  0  0  0  0  0  0  0  0  0  0  0
   55.1810   26.6870   45.9460 O   0  0  0  0  0  0  0  0  0  0  0  0
   57.2530   27.7430   45.7890 C   0  0  0  0  0  0  0  0  0  0  0  0
   56.7160   28.9670   45.1320 C   0  0  0  0  0  0  0  0  0  0  0  0
   55.4840   29.0570   44.8800 O   0  0  0  0  0  0  0  0  0  0  0  0
   57.6250   29.9960   44.6990 N   0  0  0  0  0  0  0  0  0  0  0  0
   57.6940   31.2490   45.0580 C   0  0  0  0  0  0  0  0  0  0  0  0
   57.3780   32.1960   44.1320 N   0  0  0  0  0  0  0  0  0  0  0  0
   57.3970   33.5240   44.4110 C   0  0  0  0  0  0  0  0  0  0  0  0
   57.1228   34.2521   43.6334 H   0  0  0  0  0  0  0  0  0  0  0  0
   57.7630   33.9670   45.6800 C   0  0  0  0  0  0  0  0  0  0  0  0
   57.7544   35.0413   45.9162 H   0  0  0  0  0  0  0  0  0  0  0  0
   58.1430   33.0310   46.6550 C   0  0  0  0  0  0  0  0  0  0  0  0
   58.5330   33.4120   47.9490 O   0  0  0  0  0  0  0  0  0  0  0  0
   59.8520   33.4150   48.4240 C   0  0  0  0  0  0  0  0  0  0  0  0
   60.1400   33.4010   49.8180 C   0  0  0  0  0  0  0  0  0  0  0  0
   59.0660   33.4500   50.7230 O   0  0  0  0  0  0  0  0  0  0  0  0
   58.2300   32.3510   51.0870 C   0  0  0  0  0  0  0  0  0  0  0  0
   57.2743   32.4296   50.5480 H   0  0  0  0  0  0  0  0  0  0  0  0
   58.0577   32.3807   52.1730 H   0  0  0  0  0  0  0  0  0  0  0  0
   58.8990   31.0270   50.7310 C   0  0  0  0  0  0  0  0  0  0  0  0
   58.5957   30.2547   51.4532 H   0  0  0  0  0  0  0  0  0  0  0  0
   59.9924   31.1427   50.7637 H   0  0  0  0  0  0  0  0  0  0  0  0
   58.4990   30.6440   49.4330 O   0  0  0  0  0  0  0  0  0  0  0  0
   59.2600   29.5310   49.0160 C   0  0  0  0  0  0  0  0  0  0  0  0
   58.6383   28.8733   48.3908 H   0  0  0  0  0  0  0  0  0  0  0  0
   59.6094   28.9709   49.8959 H   0  0  0  0  0  0  0  0  0  0  0  0
   60.4540   30.0170   48.2120 C   0  0  0  0  0  0  0  0  0  0  0  0
   61.2505   30.3412   48.8979 H   0  0  0  0  0  0  0  0  0  0  0  0
   60.8266   29.1990   47.5780 H   0  0  0  0  0  0  0  0  0  0  0  0
   60.1494   30.8627   47.5780 H   0  0  0  0  0  0  0  0  0  0  0  0
   61.4890   33.3650   50.2540 C   0  0  0  0  0  0  0  0  0  0  0  0
   61.7346   33.3232   51.3254 H   0  0  0  0  0  0  0  0  0  0  0  0
   62.4980   33.3840   49.2880 C   0  0  0  0  0  0  0  0  0  0  0  0
   62.2060   33.4330   47.9510 C   0  0  0  0  0  0  0  0  0  0  0  0
   60.8970   33.4580   47.4830 C   0  0  0  0  0  0  0  0  0  0  0  0
   60.6840   33.5100   46.4051 H   0  0  0  0  0  0  0  0  0  0  0  0
   63.3980   33.4440   47.2620 C   0  0  0  0  0  0  0  0  0  0  0  0
   63.5379   33.4786   46.1715 H   0  0  0  0  0  0  0  0  0  0  0  0
   64.3870   33.4020   48.2380 C   0  0  0  0  0  0  0  0  0  0  0  0
   65.4681   33.4077   48.0351 H   0  0  0  0  0  0  0  0  0  0  0  0
   63.8340   33.3530   49.4740 N   0  0  0  0  0  0  0  0  0  0  0  0
   64.5390   33.3630   50.7250 C   0  0  0  0  0  0  0  0  0  0  0  0
   64.3390   34.2990   51.5430 O   0  0  0  0  0  0  0  0  0  0  0  0
   65.4460   32.3140   51.0840 N   0  0  0  0  0  0  0  0  0  0  0  0
   66.7440   32.0970   50.4630 C   0  0  0  0  0  0  0  0  0  0  0  0
   67.5076   31.9693   51.2444 H   0  0  0  0  0  0  0  0  0  0  0  0
   66.7047   31.1930   49.8376 H   0  0  0  0  0  0  0  0  0  0  0  0
   67.0009   32.9647   49.8376 H   0  0  0  0  0  0  0  0  0  0  0  0
   58.1010   31.6670   46.3450 C   0  0  0  0  0  0  0  0  0  0  0  0
   58.3845   30.9212   47.1022 H   0  0  0  0  0  0  0  0  0  0  0  0
   58.6310   27.6370   46.0550 C   0  0  0  0  0  0  0  0  0  0  0  0
   59.3027   28.4676   45.7925 H   0  0  0  0  0  0  0  0  0  0  0  0
   59.1520   26.4870   46.6490 C   0  0  0  0  0  0  0  0  0  0  0  0
   60.2303   26.4057   46.8507 H   0  0  0  0  0  0  0  0  0  0  0  0
  1  2  1  0
  2  3  1  0
  3  4  1  0
  4  5  2  0
  4  6  1  0
  6  7  1  0
  7  8  2  0
  7  9  1  0
  9 10  2  0
 10 11  1  0
 11 12  1  0
 12 13  1  0
 12 14  2  0
 14 15  1  0
 14 16  1  0
 16 17  1  0
 17 18  1  0
 18 19  2  0
 19 20  1  0
 20 21  1  0
 21 22  1  0
 21 23  1  0
 21 24  1  0
 24 25  1  0
 24 26  1  0
 24 27  1  0
 27 28  1  0
 28 29  1  0
 28 30  1  0
 28 31  1  0
 31 32  1  0
 31 33  1  0
 31 34  1  0
 19 35  1  0
 35 36  1  0
 35 37  2  0
 37 38  1  0
 38 39  2  0
 39 40  1  0
 38 41  1  0
 41 42  1  0
 41 43  2  0
 43 44  1  0
 43 45  1  0
 45 46  1  0
 46 47  2  0
 46 48  1  0
 48 49  1  0
 49 50  1  0
 49 51  1  0
 49 52  1  0
 16 53  2  0
 53 54  1  0
  6 55  2  0
 55 56  1  0
 55 57  1  0
 57 58  1  0
 57  2  2  0
 53 10  1  0
 39 18  1  0
 45 37  1  0
M  CHG  3   3  -1  11  -1  48  -1
M  END
>  <UniqueID>  (87) 
77

>  <SMILES>  (87) 
CCOCCOc1cc2c(ccn2C(=O)[N-]C)cc1Oc1cc[n-]/c(=N/C(=O)c2ccc[n-]c2=O)c1

>  <Energy>  (87) 
113.40122994374106

>  <Genealogy>  (87) 
CCOCCOc1cc2c(ccn2C(=O)[N-]C)cc1Oc1cc[n-]c(=NC(=O)c2ccc[n-]c2=O)c1 (protonated)
CCOCCOc1cc2c(ccn2C(=O)[N-]C)cc1Oc1cc[n-]/c(=N/C(=O)c2ccc[n-]c2=O)c1 (cis-trans isomerization)
CCOCCOc1cc2c(ccn2C(=O)[N-]C)cc1Oc1cc[n-]/c(=N/C(=O)c2ccc[n-]c2=O)c1 (3D coordinates assigned)
CCOCCOc1cc2c(ccn2C(=O)[N-]C)cc1Oc1cc[n-]/c(=N/C(=O)c2ccc[n-]c2=O)c1 (optimized conformer: 113.40122994374106 kcal/mol)

>  <smiles>  (87) 
CCOCCOc1cc2c(ccn2C(=O)NC)cc1Oc1cc[nH]c(=NC(=O)c2ccc[nH]c2=O)c1

>  <score_type>  (87) 
oracle

>  <origin>  (87) 
adg

>  <m_score__min__energy>  (87) 
-13.41

>  <m_primary>  (87) 
energy

$$$$
87:0
     RDKit          3D

 43 45  0  0  0  0  0  0  0  0999 V2000
   57.0100   31.9220   45.1640 O   0  0  0  0  0  0  0  0  0  0  0  0
   58.0600   32.5830   45.3820 C   0  0  0  0  0  0  0  0  0  0  0  0
   58.0340   34.0750   45.2670 C   0  0  0  0  0  0  0  0  0  0  0  0
   59.4310   34.6530   45.5230 C   0  0  0  0  0  0  0  0  0  0  0  0
   59.8090   34.6470   46.9840 C   0  0  0  0  0  0  0  0  0  0  0  0
   58.9700   34.9930   47.8610 O   0  0  0  0  0  0  0  0  0  0  0  0
   61.1420   34.1900   47.4140 C   0  0  0  0  0  0  0  0  0  0  0  0
   61.5680   33.9760   48.7220 C   0  0  0  0  0  0  0  0  0  0  0  0
   62.8980   33.5480   48.8090 C   0  0  0  0  0  0  0  0  0  0  0  0
   63.5270   33.4240   47.5760 C   0  0  0  0  0  0  0  0  0  0  0  0
   62.4250   33.8490   46.3800 S   0  0  0  0  0  0  0  0  0  0  0  0
   59.2800   31.9280   45.7480 N   0  0  0  0  0  0  0  0  0  0  0  0
   59.4260   30.8680   46.7050 C   0  0  0  0  0  0  0  0  0  0  0  0
   60.2410   30.9990   47.8430 C   0  0  0  0  0  0  0  0  0  0  0  0
   60.3400   29.9510   48.7610 C   0  0  0  0  0  0  0  0  0  0  0  0
   59.6150   28.7740   48.5650 C   0  0  0  0  0  0  0  0  0  0  0  0
   58.7590   28.6490   47.4560 C   0  0  0  0  0  0  0  0  0  0  0  0
   58.0040   27.4520   47.2180 N   0  0  0  0  0  0  0  0  0  0  0  0
   57.1130   27.2190   46.1180 C   0  0  0  0  0  0  0  0  0  0  0  0
   56.5930   28.2110   45.5440 O   0  0  0  0  0  0  0  0  0  0  0  0
   56.7390   25.8490   45.6910 C   0  0  0  0  0  0  0  0  0  0  0  0
   57.7390   24.9220   45.3450 C   0  0  0  0  0  0  0  0  0  0  0  0
   57.3990   23.6250   44.9500 C   0  0  0  0  0  0  0  0  0  0  0  0
   56.0590   23.2380   44.9040 C   0  0  0  0  0  0  0  0  0  0  0  0
   55.0550   24.1450   45.2530 C   0  0  0  0  0  0  0  0  0  0  0  0
   55.3870   25.4460   45.6470 C   0  0  0  0  0  0  0  0  0  0  0  0
   54.3680   26.3340   45.9750 O   0  0  0  0  0  0  0  0  0  0  0  0
   58.6820   29.6950   46.5280 C   0  0  0  0  0  0  0  0  0  0  0  0
   57.7051   34.3553   44.2554 H   0  0  0  0  0  0  0  0  0  0  0  0
   57.3368   34.4794   46.0156 H   0  0  0  0  0  0  0  0  0  0  0  0
   60.1666   34.0528   44.9674 H   0  0  0  0  0  0  0  0  0  0  0  0
   59.4218   35.7008   45.1882 H   0  0  0  0  0  0  0  0  0  0  0  0
   60.9233   34.1282   49.6002 H   0  0  0  0  0  0  0  0  0  0  0  0
   63.3984   33.3302   49.7640 H   0  0  0  0  0  0  0  0  0  0  0  0
   64.5662   33.1032   47.4112 H   0  0  0  0  0  0  0  0  0  0  0  0
   60.8025   31.9298   48.0110 H   0  0  0  0  0  0  0  0  0  0  0  0
   60.9914   30.0533   49.6415 H   0  0  0  0  0  0  0  0  0  0  0  0
   59.7134   27.9431   49.2791 H   0  0  0  0  0  0  0  0  0  0  0  0
   58.7970   25.2202   45.3856 H   0  0  0  0  0  0  0  0  0  0  0  0
   58.1878   22.9092   44.6754 H   0  0  0  0  0  0  0  0  0  0  0  0
   55.7927   22.2172   44.5925 H   0  0  0  0  0  0  0  0  0  0  0  0
   54.0001   23.8353   45.2179 H   0  0  0  0  0  0  0  0  0  0  0  0
   58.0287   29.5938   45.6488 H   0  0  0  0  0  0  0  0  0  0  0  0
  1  2  2  0
  2  3  1  0
  3  4  1  0
  4  5  1  0
  5  6  2  0
  5  7  1  0
  7  8  2  0
  8  9  1  0
  9 10  2  0
 10 11  1  0
  2 12  1  0
 12 13  1  0
 13 14  2  0
 14 15  1  0
 15 16  2  0
 16 17  1  0
 17 18  1  0
 18 19  1  0
 19 20  2  0
 19 21  1  0
 21 22  2  0
 22 23  1  0
 23 24  2  0
 24 25  1  0
 25 26  2  0
 26 27  1  0
 17 28  2  0
 11  7  1  0
 28 13  1  0
 26 21  1  0
  3 29  1  0
  3 30  1  0
  4 31  1  0
  4 32  1  0
  8 33  1  0
  9 34  1  0
 10 35  1  0
 14 36  1  0
 15 37  1  0
 16 38  1  0
 22 39  1  0
 23 40  1  0
 24 41  1  0
 25 42  1  0
 28 43  1  0
M  CHG  3  12  -1  18  -1  27  -1
M  END
>  <UniqueID>  (88) 
78

>  <SMILES>  (88) 
O=C(CCC(=O)c1cccs1)[N-]c1cccc([N-]C(=O)c2ccccc2[O-])c1

>  <Energy>  (88) 
79.79659523367488

>  <Genealogy>  (88) 
O=C(CCC(=O)c1cccs1)[N-]c1cccc([N-]C(=O)c2ccccc2[O-])c1 (protonated)
O=C(CCC(=O)c1cccs1)[N-]c1cccc([N-]C(=O)c2ccccc2[O-])c1 (3D coordinates assigned)
O=C(CCC(=O)c1cccs1)[N-]c1cccc([N-]C(=O)c2ccccc2[O-])c1 (optimized conformer: 79.79659523367488 kcal/mol)

>  <smiles>  (88) 
O=C(CCC(=O)c1cccs1)Nc1cccc(NC(=O)c2ccccc2O)c1

>  <score_type>  (88) 
oracle

>  <origin>  (88) 
adg

>  <m_score__min__energy>  (88) 
-14.75

>  <m_primary>  (88) 
energy

$$$$
88:0
     RDKit          3D

 33 34  0  0  0  0  0  0  0  0999 V2000
   55.1670   30.7230   44.5030 N   0  0  0  0  0  0  0  0  0  0  0  0
   56.7340   30.4520   43.8280 S   0  0  0  0  0  0  0  0  0  0  0  0
   57.5910   31.6670   44.0520 O   0  0  0  0  0  0  0  0  0  0  0  0
   56.6110   30.2150   42.3490 O   0  0  0  0  0  0  0  0  0  0  0  0
   57.4720   29.0500   44.5970 C   0  0  0  0  0  0  0  0  0  0  0  0
   57.7190   29.0530   45.9760 C   0  0  0  0  0  0  0  0  0  0  0  0
   58.3150   27.9450   46.5860 C   0  0  0  0  0  0  0  0  0  0  0  0
   58.6850   26.8280   45.8220 C   0  0  0  0  0  0  0  0  0  0  0  0
   59.2930   25.6220   46.4830 C   0  0  0  0  0  0  0  0  0  0  0  0
   58.2020   24.6740   46.9890 C   0  0  0  0  0  0  0  0  0  0  0  0
   57.6080   23.9320   45.8640 N   0  0  0  0  0  0  0  0  0  0  0  0
   58.3190   22.9260   45.2560 C   0  0  0  0  0  0  0  0  0  0  0  0
   59.5940   22.5870   45.6990 O   0  0  0  0  0  0  0  0  0  0  0  0
   57.7770   22.2260   44.1760 C   0  0  0  0  0  0  0  0  0  0  0  0
   56.5100   22.5620   43.7040 C   0  0  0  0  0  0  0  0  0  0  0  0
   56.0110   21.9360   42.7310 O   0  0  0  0  0  0  0  0  0  0  0  0
   55.8010   23.5950   44.3110 C   0  0  0  0  0  0  0  0  0  0  0  0
   56.3660   24.2830   45.3930 C   0  0  0  0  0  0  0  0  0  0  0  0
   55.6570   25.3320   45.9830 O   0  0  0  0  0  0  0  0  0  0  0  0
   58.4300   26.8260   44.4410 C   0  0  0  0  0  0  0  0  0  0  0  0
   57.8360   27.9340   43.8310 C   0  0  0  0  0  0  0  0  0  0  0  0
   54.7820   29.7870   44.7640 H   0  0  0  0  0  0  0  0  0  0  0  0
   57.4433   29.9296   46.5806 H   0  0  0  0  0  0  0  0  0  0  0  0
   58.4948   27.9491   47.6712 H   0  0  0  0  0  0  0  0  0  0  0  0
   59.9237   25.0908   45.7550 H   0  0  0  0  0  0  0  0  0  0  0  0
   59.8969   25.9553   47.3398 H   0  0  0  0  0  0  0  0  0  0  0  0
   58.6425   23.9612   47.7017 H   0  0  0  0  0  0  0  0  0  0  0  0
   57.4162   25.2640   47.4834 H   0  0  0  0  0  0  0  0  0  0  0  0
   58.3471   21.4141   43.7008 H   0  0  0  0  0  0  0  0  0  0  0  0
   54.8016   23.8699   43.9428 H   0  0  0  0  0  0  0  0  0  0  0  0
   55.1400   25.2060   46.8450 H   0  0  0  0  0  0  0  0  0  0  0  0
   58.6993   25.9475   43.8362 H   0  0  0  0  0  0  0  0  0  0  0  0
   57.6535   27.9304   42.7463 H   0  0  0  0  0  0  0  0  0  0  0  0
  1  2  1  0
  2  3  2  0
  2  4  2  0
  2  5  1  0
  5  6  2  0
  6  7  1  0
  7  8  2  0
  8  9  1  0
  9 10  1  0
 10 11  1  0
 11 12  1  0
 12 13  1  0
 12 14  2  0
 14 15  1  0
 15 16  2  0
 15 17  1  0
 17 18  2  0
 18 19  1  0
  8 20  1  0
 20 21  2  0
 21  5  1  0
 18 11  1  0
  1 22  1  0
  6 23  1  0
  7 24  1  0
  9 25  1  0
  9 26  1  0
 10 27  1  0
 10 28  1  0
 14 29  1  0
 17 30  1  0
 19 31  1  0
 20 32  1  0
 21 33  1  0
M  CHG  2   1  -1  13  -1
M  END
>  <UniqueID>  (89) 
79

>  <SMILES>  (89) 
[NH-]S(=O)(=O)c1ccc(CCn2c([O-])cc(=O)cc2O)cc1

>  <Energy>  (89) 
33.19608877118638

>  <Genealogy>  (89) 
[NH-]S(=O)(=O)c1ccc(CCn2c([O-])cc(=O)cc2O)cc1 (protonated)
[NH-]S(=O)(=O)c1ccc(CCn2c([O-])cc(=O)cc2O)cc1 (3D coordinates assigned)
[NH-]S(=O)(=O)c1ccc(CCn2c([O-])cc(=O)cc2O)cc1 (optimized conformer: 33.19608877118638 kcal/mol)

>  <smiles>  (89) 
NS(=O)(=O)c1ccc(CCn2c(O)cc(=O)cc2O)cc1

>  <score_type>  (89) 
oracle

>  <origin>  (89) 
adg

>  <m_score__min__energy>  (89) 
-11.02

>  <m_primary>  (89) 
energy

$$$$
89:0
     RDKit          3D

 59 62  0  0  0  0  0  0  0  0999 V2000
   55.8960   28.2900   45.2510 O   0  0  0  0  0  0  0  0  0  0  0  0
   56.7250   29.1100   44.7720 C   0  0  0  0  0  0  0  0  0  0  0  0
   58.1530   28.6940   44.5180 C   0  0  0  0  0  0  0  0  0  0  0  0
   58.9550   28.5950   45.7800 C   0  0  0  0  0  0  0  0  0  0  0  0
   58.8520   27.5920   46.7340 C   0  0  0  0  0  0  0  0  0  0  0  0
   59.6820   27.7980   47.8420 C   0  0  0  0  0  0  0  0  0  0  0  0
   60.4270   28.9680   47.7700 C   0  0  0  0  0  0  0  0  0  0  0  0
   60.0520   29.7460   46.3260 S   0  0  0  0  0  0  0  0  0  0  0  0
   56.2870   30.4450   44.4950 N   0  0  0  0  0  0  0  0  0  0  0  0
   57.0480   31.4050   43.7050 C   0  0  0  0  0  0  0  0  0  0  0  0
   57.7100   32.3910   44.6240 C   0  0  0  0  0  0  0  0  0  0  0  0
   57.4190   32.3820   45.9970 C   0  0  0  0  0  0  0  0  0  0  0  0
   58.0590   33.2770   46.8590 C   0  0  0  0  0  0  0  0  0  0  0  0
   59.0100   34.1840   46.3640 C   0  0  0  0  0  0  0  0  0  0  0  0
   59.7040   35.1450   47.3020 C   0  0  0  0  0  0  0  0  0  0  0  0
   60.9020   34.5430   47.9360 N   0  0  0  0  0  0  0  0  0  0  0  0
   60.5530   33.7440   49.1460 C   0  0  0  0  0  0  0  0  0  0  0  0
   60.4820   32.2340   48.8550 C   0  0  0  0  0  0  0  0  0  0  0  0
   61.7680   31.7000   48.3370 N   0  0  0  0  0  0  0  0  0  0  0  0
   62.5650   31.0680   49.4110 C   0  0  0  0  0  0  0  0  0  0  0  0
   63.4950   32.0670   50.0500 C   0  0  0  0  0  0  0  0  0  0  0  0
   63.0140   32.9450   51.0370 C   0  0  0  0  0  0  0  0  0  0  0  0
   63.8770   33.8580   51.6490 C   0  0  0  0  0  0  0  0  0  0  0  0
   65.2260   33.8990   51.2840 C   0  0  0  0  0  0  0  0  0  0  0  0
   65.7140   33.0260   50.3070 C   0  0  0  0  0  0  0  0  0  0  0  0
   64.8530   32.1100   49.6930 C   0  0  0  0  0  0  0  0  0  0  0  0
   62.5640   32.7130   47.5980 C   0  0  0  0  0  0  0  0  0  0  0  0
   61.6610   33.7560   46.9290 C   0  0  0  0  0  0  0  0  0  0  0  0
   59.3080   34.1830   44.9920 C   0  0  0  0  0  0  0  0  0  0  0  0
   58.6680   33.2890   44.1290 C   0  0  0  0  0  0  0  0  0  0  0  0
   58.1515   27.7117   44.0230 H   0  0  0  0  0  0  0  0  0  0  0  0
   58.6183   29.4647   43.8859 H   0  0  0  0  0  0  0  0  0  0  0  0
   58.1855   26.7231   46.6298 H   0  0  0  0  0  0  0  0  0  0  0  0
   59.7389   27.0993   48.6897 H   0  0  0  0  0  0  0  0  0  0  0  0
   61.1403   29.3250   48.5275 H   0  0  0  0  0  0  0  0  0  0  0  0
   57.8149   30.8746   43.1214 H   0  0  0  0  0  0  0  0  0  0  0  0
   56.3713   31.9369   43.0201 H   0  0  0  0  0  0  0  0  0  0  0  0
   56.6841   31.6675   46.3964 H   0  0  0  0  0  0  0  0  0  0  0  0
   57.8162   33.2709   47.9319 H   0  0  0  0  0  0  0  0  0  0  0  0
   60.0135   36.0340   46.7329 H   0  0  0  0  0  0  0  0  0  0  0  0
   58.9952   35.4076   48.1012 H   0  0  0  0  0  0  0  0  0  0  0  0
   61.5340   35.3200   48.2460 H   0  0  0  0  0  0  0  0  0  0  0  0
   61.3178   33.9191   49.9170 H   0  0  0  0  0  0  0  0  0  0  0  0
   59.5570   34.0665   49.4837 H   0  0  0  0  0  0  0  0  0  0  0  0
   60.2286   31.7056   49.7859 H   0  0  0  0  0  0  0  0  0  0  0  0
   59.7153   32.0752   48.0823 H   0  0  0  0  0  0  0  0  0  0  0  0
   61.8842   30.6686   50.1771 H   0  0  0  0  0  0  0  0  0  0  0  0
   63.1668   30.2587   48.9719 H   0  0  0  0  0  0  0  0  0  0  0  0
   61.9539   32.9132   51.3288 H   0  0  0  0  0  0  0  0  0  0  0  0
   63.4947   34.5449   52.4184 H   0  0  0  0  0  0  0  0  0  0  0  0
   65.9040   34.6187   51.7659 H   0  0  0  0  0  0  0  0  0  0  0  0
   66.7756   33.0594   50.0209 H   0  0  0  0  0  0  0  0  0  0  0  0
   65.2407   31.4211   48.9281 H   0  0  0  0  0  0  0  0  0  0  0  0
   63.2376   33.2224   48.3028 H   0  0  0  0  0  0  0  0  0  0  0  0
   63.1369   32.1973   46.8133 H   0  0  0  0  0  0  0  0  0  0  0  0
   62.2844   34.4409   46.3355 H   0  0  0  0  0  0  0  0  0  0  0  0
   60.9400   33.2286   46.2872 H   0  0  0  0  0  0  0  0  0  0  0  0
   60.0501   34.8905   44.5936 H   0  0  0  0  0  0  0  0  0  0  0  0
   58.9163   33.2894   43.0574 H   0  0  0  0  0  0  0  0  0  0  0  0
  1  2  2  0
  2  3  1  0
  3  4  1  0
  4  5  2  0
  5  6  1  0
  6  7  2  0
  7  8  1  0
  2  9  1  0
  9 10  1  0
 10 11  1  0
 11 12  2  0
 12 13  1  0
 13 14  2  0
 14 15  1  0
 15 16  1  0
 16 17  1  0
 17 18  1  0
 18 19  1  0
 19 20  1  0
 20 21  1  0
 21 22  2  0
 22 23  1  0
 23 24  2  0
 24 25  1  0
 25 26  2  0
 19 27  1  0
 27 28  1  0
 14 29  1  0
 29 30  2  0
  8  4  1  0
 30 11  1  0
 28 16  1  0
 26 21  1  0
  3 31  1  0
  3 32  1  0
  5 33  1  0
  6 34  1  0
  7 35  1  0
 10 36  1  0
 10 37  1  0
 12 38  1  0
 13 39  1  0
 15 40  1  0
 15 41  1  0
 16 42  1  0
 17 43  1  0
 17 44  1  0
 18 45  1  0
 18 46  1  0
 20 47  1  0
 20 48  1  0
 22 49  1  0
 23 50  1  0
 24 51  1  0
 25 52  1  0
 26 53  1  0
 27 54  1  0
 27 55  1  0
 28 56  1  0
 28 57  1  0
 29 58  1  0
 30 59  1  0
M  CHG  2   9  -1  16   1
M  END
>  <UniqueID>  (90) 
80

>  <SMILES>  (90) 
O=C(Cc1cccs1)[N-]Cc1ccc(C[NH+]2CCN(Cc3ccccc3)CC2)cc1

>  <Energy>  (90) 
98.74785668166143

>  <Genealogy>  (90) 
O=C(Cc1cccs1)[N-]Cc1ccc(C[NH+]2CCN(Cc3ccccc3)CC2)cc1 (protonated)
O=C(Cc1cccs1)[N-]Cc1ccc(C[NH+]2CCN(Cc3ccccc3)CC2)cc1 (3D coordinates assigned)
O=C(Cc1cccs1)[N-]Cc1ccc(C[NH+]2CCN(Cc3ccccc3)CC2)cc1 (nonaromatic ring conformer: 98.74785668166143 kcal/mol)

>  <smiles>  (90) 
O=C(Cc1cccs1)NCc1ccc(CN2CCN(Cc3ccccc3)CC2)cc1

>  <score_type>  (90) 
oracle

>  <origin>  (90) 
adg

>  <m_score__min__energy>  (90) 
-9.8800000000000008

>  <m_primary>  (90) 
energy

$$$$
90:0
     RDKit          3D

 42 44  0  0  0  0  0  0  0  0999 V2000
   55.2180   26.7150   45.9990 O   0  0  0  0  0  0  0  0  0  0  0  0
   56.2880   27.2670   45.6300 C   0  0  0  0  0  0  0  0  0  0  0  0
   57.4850   26.4300   45.2960 C   0  0  0  0  0  0  0  0  0  0  0  0
   58.3840   27.1190   44.2630 C   0  0  0  0  0  0  0  0  0  0  0  0
   59.3100   28.1080   44.9100 C   0  0  0  0  0  0  0  0  0  0  0  0
   58.9770   28.8900   45.9490 N   0  0  0  0  0  0  0  0  0  0  0  0
   60.0980   29.6130   46.1510 C   0  0  0  0  0  0  0  0  0  0  0  0
   60.2710   30.6370   47.2080 C   0  0  0  0  0  0  0  0  0  0  0  0
   59.4510   30.6110   48.3530 C   0  0  0  0  0  0  0  0  0  0  0  0
   59.5920   31.5820   49.3480 C   0  0  0  0  0  0  0  0  0  0  0  0
   60.5570   32.5870   49.2180 C   0  0  0  0  0  0  0  0  0  0  0  0
   60.7200   33.8130   50.4540 Cl  0  0  0  0  0  0  0  0  0  0  0  0
   61.3790   32.6200   48.0890 C   0  0  0  0  0  0  0  0  0  0  0  0
   61.2410   31.6520   47.0900 C   0  0  0  0  0  0  0  0  0  0  0  0
   61.0610   29.2790   45.2670 N   0  0  0  0  0  0  0  0  0  0  0  0
   60.5360   28.3520   44.5180 O   0  0  0  0  0  0  0  0  0  0  0  0
   56.3950   28.6960   45.5920 N   0  0  0  0  0  0  0  0  0  0  0  0
   55.8240   29.5290   44.5400 C   0  0  0  0  0  0  0  0  0  0  0  0
   56.9070   30.0600   43.5930 C   0  0  0  0  0  0  0  0  0  0  0  0
   57.4710   31.3290   44.0850 N   0  0  0  0  0  0  0  0  0  0  0  0
   57.4330   31.6070   45.4240 C   0  0  0  0  0  0  0  0  0  0  0  0
   57.9350   32.8110   45.9160 C   0  0  0  0  0  0  0  0  0  0  0  0
   57.8970   33.0780   47.2440 F   0  0  0  0  0  0  0  0  0  0  0  0
   58.4740   33.7220   45.0140 C   0  0  0  0  0  0  0  0  0  0  0  0
   58.9370   34.8200   45.4210 O   0  0  0  0  0  0  0  0  0  0  0  0
   58.4940   33.4270   43.6910 N   0  0  0  0  0  0  0  0  0  0  0  0
   58.0010   32.2510   43.2190 C   0  0  0  0  0  0  0  0  0  0  0  0
   58.0420   32.0230   41.9800 O   0  0  0  0  0  0  0  0  0  0  0  0
   58.0653   26.2544   46.2138 H   0  0  0  0  0  0  0  0  0  0  0  0
   57.1324   25.4805   44.8669 H   0  0  0  0  0  0  0  0  0  0  0  0
   58.9826   26.3555   43.7446 H   0  0  0  0  0  0  0  0  0  0  0  0
   57.7412   27.6615   43.5541 H   0  0  0  0  0  0  0  0  0  0  0  0
   58.0640   28.9120   46.4550 H   0  0  0  0  0  0  0  0  0  0  0  0
   58.6942   29.8206   48.4647 H   0  0  0  0  0  0  0  0  0  0  0  0
   58.9428   31.5563   50.2356 H   0  0  0  0  0  0  0  0  0  0  0  0
   62.1373   33.4102   47.9858 H   0  0  0  0  0  0  0  0  0  0  0  0
   61.8943   31.6829   46.2056 H   0  0  0  0  0  0  0  0  0  0  0  0
   55.1051   28.9307   43.9611 H   0  0  0  0  0  0  0  0  0  0  0  0
   55.3271   30.3891   45.0126 H   0  0  0  0  0  0  0  0  0  0  0  0
   57.7129   29.3152   43.5163 H   0  0  0  0  0  0  0  0  0  0  0  0
   56.4502   30.2408   42.6088 H   0  0  0  0  0  0  0  0  0  0  0  0
   57.0016   30.8725   46.1200 H   0  0  0  0  0  0  0  0  0  0  0  0
  1  2  2  0
  2  3  1  0
  3  4  1  0
  4  5  1  0
  5  6  2  0
  6  7  1  0
  7  8  1  0
  8  9  2  0
  9 10  1  0
 10 11  2  0
 11 12  1  0
 11 13  1  0
 13 14  2  0
  7 15  2  0
 15 16  1  0
  2 17  1  0
 17 18  1  0
 18 19  1  0
 19 20  1  0
 20 21  1  0
 21 22  2  0
 22 23  1  0
 22 24  1  0
 24 25  2  0
 24 26  1  0
 26 27  1  0
 27 28  2  0
 16  5  1  0
 27 20  1  0
 14  8  1  0
  3 29  1  0
  3 30  1  0
  4 31  1  0
  4 32  1  0
  6 33  1  0
  9 34  1  0
 10 35  1  0
 13 36  1  0
 14 37  1  0
 18 38  1  0
 18 39  1  0
 19 40  1  0
 19 41  1  0
 21 42  1  0
M  CHG  3   6   1  17  -1  26  -1
M  END
>  <UniqueID>  (91) 
81

>  <SMILES>  (91) 
O=C(CCc1[nH+]c(-c2ccc(Cl)cc2)no1)[N-]CCn1cc(F)c(=O)[n-]c1=O

>  <Energy>  (91) 
74.06608450605567

>  <Genealogy>  (91) 
O=C(CCc1[nH+]c(-c2ccc(Cl)cc2)no1)[N-]CCn1cc(F)c(=O)[n-]c1=O (protonated)
O=C(CCc1[nH+]c(-c2ccc(Cl)cc2)no1)[N-]CCn1cc(F)c(=O)[n-]c1=O (3D coordinates assigned)
O=C(CCc1[nH+]c(-c2ccc(Cl)cc2)no1)[N-]CCn1cc(F)c(=O)[n-]c1=O (optimized conformer: 74.06608450605567 kcal/mol)

>  <smiles>  (91) 
O=C(CCc1nc(-c2ccc(Cl)cc2)no1)NCCn1cc(F)c(=O)[nH]c1=O

>  <score_type>  (91) 
oracle

>  <origin>  (91) 
adg

>  <m_score__min__energy>  (91) 
-10.529999999999999

>  <m_primary>  (91) 
energy

$$$$
91:0
     RDKit          3D

 50 53  0  0  0  0  0  0  0  0999 V2000
   55.7510   30.5690   43.7730 O   0  0  0  0  0  0  0  0  0  0  0  0
   56.3020   29.6550   44.4450 C   0  0  0  0  0  0  0  0  0  0  0  0
   55.5440   28.6230   44.8840 N   0  0  0  0  0  0  0  0  0  0  0  0
   56.0700   27.6040   45.6060 C   0  0  0  0  0  0  0  0  0  0  0  0
   55.2350   26.5760   46.0330 O   0  0  0  0  0  0  0  0  0  0  0  0
   57.4400   27.5990   45.9130 C   0  0  0  0  0  0  0  0  0  0  0  0
   58.0510   26.4590   46.7290 C   0  0  1  0  0  0  0  0  0  0  0  0
   58.6910   25.4650   45.8520 N   0  0  0  0  0  0  0  0  0  0  0  0
   57.9720   24.4630   45.1020 C   0  0  0  0  0  0  0  0  0  0  0  0
   58.0320   23.1230   45.5220 C   0  0  0  0  0  0  0  0  0  0  0  0
   57.3420   22.1270   44.8230 C   0  0  0  0  0  0  0  0  0  0  0  0
   56.5850   22.4580   43.6980 C   0  0  0  0  0  0  0  0  0  0  0  0
   55.9000   21.4670   43.0050 O   0  0  0  0  0  0  0  0  0  0  0  0
   56.5180   23.7860   43.2690 C   0  0  0  0  0  0  0  0  0  0  0  0
   57.2060   24.7850   43.9640 C   0  0  0  0  0  0  0  0  0  0  0  0
   59.0100   27.0160   47.7690 C   0  0  0  0  0  0  0  0  0  0  0  0
   60.2090   26.3580   48.1110 C   0  0  0  0  0  0  0  0  0  0  0  0
   61.0740   26.9120   49.0600 C   0  0  0  0  0  0  0  0  0  0  0  0
   60.7590   28.1280   49.6710 C   0  0  0  0  0  0  0  0  0  0  0  0
   59.5800   28.7960   49.3310 C   0  0  0  0  0  0  0  0  0  0  0  0
   59.2700   30.0080   49.9360 O   0  0  0  0  0  0  0  0  0  0  0  0
   58.7120   28.2440   48.3840 C   0  0  0  0  0  0  0  0  0  0  0  0
   58.2160   28.6860   45.4570 C   0  0  0  0  0  0  0  0  0  0  0  0
   59.4500   28.7230   45.7210 O   0  0  0  0  0  0  0  0  0  0  0  0
   57.6440   29.7010   44.7290 N   0  0  0  0  0  0  0  0  0  0  0  0
   58.4780   30.8090   44.2200 C   0  0  0  0  0  0  0  0  0  0  0  0
   58.5690   31.9120   45.2430 C   0  0  0  0  0  0  0  0  0  0  0  0
   57.9620   33.1550   45.0000 C   0  0  0  0  0  0  0  0  0  0  0  0
   58.0730   34.1900   45.9330 C   0  0  0  0  0  0  0  0  0  0  0  0
   58.7950   33.9940   47.1140 C   0  0  0  0  0  0  0  0  0  0  0  0
   58.9040   34.9990   48.0180 F   0  0  0  0  0  0  0  0  0  0  0  0
   59.4050   32.7610   47.3630 C   0  0  0  0  0  0  0  0  0  0  0  0
   59.2960   31.7240   46.4320 C   0  0  0  0  0  0  0  0  0  0  0  0
   55.1350   26.3600   47.0190 H   0  0  0  0  0  0  0  0  0  0  0  0
   57.2480   25.9327   47.2659 H   0  0  0  0  0  0  0  0  0  0  0  0
   59.7290   25.4990   45.7300 H   0  0  0  0  0  0  0  0  0  0  0  0
   58.6266   22.8553   46.4079 H   0  0  0  0  0  0  0  0  0  0  0  0
   57.3961   21.0814   45.1604 H   0  0  0  0  0  0  0  0  0  0  0  0
   55.9221   24.0462   42.3818 H   0  0  0  0  0  0  0  0  0  0  0  0
   57.1490   25.8284   43.6205 H   0  0  0  0  0  0  0  0  0  0  0  0
   60.4656   25.4033   47.6286 H   0  0  0  0  0  0  0  0  0  0  0  0
   62.0045   26.3890   49.3259 H   0  0  0  0  0  0  0  0  0  0  0  0
   61.4393   28.5597   50.4199 H   0  0  0  0  0  0  0  0  0  0  0  0
   57.7868   28.7761   48.1177 H   0  0  0  0  0  0  0  0  0  0  0  0
   59.4883   30.4319   44.0030 H   0  0  0  0  0  0  0  0  0  0  0  0
   58.0187   31.2093   43.3041 H   0  0  0  0  0  0  0  0  0  0  0  0
   57.3961   33.3150   44.0704 H   0  0  0  0  0  0  0  0  0  0  0  0
   57.5918   35.1597   45.7377 H   0  0  0  0  0  0  0  0  0  0  0  0
   59.9717   32.6066   48.2931 H   0  0  0  0  0  0  0  0  0  0  0  0
   59.7810   30.7568   46.6303 H   0  0  0  0  0  0  0  0  0  0  0  0
  1  2  2  0
  2  3  1  0
  3  4  1  0
  4  5  1  0
  4  6  2  0
  6  7  1  0
  7  8  1  0
  8  9  1  0
  9 10  2  0
 10 11  1  0
 11 12  2  0
 12 13  1  0
 12 14  1  0
 14 15  2  0
  7 16  1  0
 16 17  2  0
 17 18  1  0
 18 19  2  0
 19 20  1  0
 20 21  1  0
 20 22  2  0
  6 23  1  0
 23 24  2  0
 23 25  1  0
 25 26  1  0
 26 27  1  0
 27 28  2  0
 28 29  1  0
 29 30  2  0
 30 31  1  0
 30 32  1  0
 32 33  2  0
 25  2  1  0
 33 27  1  0
 15  9  1  0
 22 16  1  0
  5 34  1  0
  7 35  1  1
  8 36  1  0
 10 37  1  0
 11 38  1  0
 14 39  1  0
 15 40  1  0
 17 41  1  0
 18 42  1  0
 19 43  1  0
 22 44  1  0
 26 45  1  0
 26 46  1  0
 28 47  1  0
 29 48  1  0
 32 49  1  0
 33 50  1  0
M  CHG  3   3  -1  13  -1  21  -1
M  END
>  <UniqueID>  (92) 
82

>  <SMILES>  (92) 
O=c1[n-]c(O)c([C@@H](Nc2ccc([O-])cc2)c2cccc([O-])c2)c(=O)n1Cc1ccc(F)cc1

>  <Energy>  (92) 
62.939216522623155

>  <Genealogy>  (92) 
O=c1[n-]c(O)c(C(Nc2ccc([O-])cc2)c2cccc([O-])c2)c(=O)n1Cc1ccc(F)cc1 (protonated)
O=c1[n-]c(O)c([C@@H](Nc2ccc([O-])cc2)c2cccc([O-])c2)c(=O)n1Cc1ccc(F)cc1 (chirality)
O=c1[n-]c(O)c([C@@H](Nc2ccc([O-])cc2)c2cccc([O-])c2)c(=O)n1Cc1ccc(F)cc1 (3D coordinates assigned)
O=c1[n-]c(O)c([C@@H](Nc2ccc([O-])cc2)c2cccc([O-])c2)c(=O)n1Cc1ccc(F)cc1 (optimized conformer: 62.939216522623155 kcal/mol)

>  <smiles>  (92) 
O=c1[nH]c(O)c(C(Nc2ccc(O)cc2)c2cccc(O)c2)c(=O)n1Cc1ccc(F)cc1

>  <score_type>  (92) 
oracle

>  <origin>  (92) 
adg

>  <m_score__min__energy>  (92) 
-13.76

>  <m_primary>  (92) 
energy

$$$$
92:0
     RDKit          3D

 48 50  0  0  0  0  0  0  0  0999 V2000
   60.5320   33.8400   50.2190 C   0  0  0  0  0  0  0  0  0  0  0  0
   61.3880   32.9470   49.5400 O   0  0  0  0  0  0  0  0  0  0  0  0
   60.7410   32.4020   48.4020 C   0  0  2  0  0  0  0  0  0  0  0  0
   59.5900   31.4860   48.8830 C   0  0  0  0  0  0  0  0  0  0  0  0
   60.0570   30.0400   49.0830 C   0  0  0  0  0  0  0  0  0  0  0  0
   60.5660   29.4140   47.7610 C   0  0  1  0  0  0  0  0  0  0  0  0
   59.4850   28.6740   47.1040 N   0  0  0  0  0  0  0  0  0  0  0  0
   59.0760   27.3690   47.5370 C   0  0  0  0  0  0  0  0  0  0  0  0
   59.7450   26.7570   48.4130 O   0  0  0  0  0  0  0  0  0  0  0  0
   57.8960   26.7060   46.9520 C   0  0  0  0  0  0  0  0  0  0  0  0
   57.2740   25.6610   47.5270 N   0  0  0  0  0  0  0  0  0  0  0  0
   56.2510   25.3820   46.6900 C   0  0  0  0  0  0  0  0  0  0  0  0
   56.1810   26.2050   45.6220 N   0  0  0  0  0  0  0  0  0  0  0  0
   57.2290   27.0290   45.7900 C   0  0  0  0  0  0  0  0  0  0  0  0
   57.5030   28.1600   44.9550 N   0  0  0  0  0  0  0  0  0  0  0  0
   56.6620   29.3140   44.8300 C   0  0  0  0  0  0  0  0  0  0  0  0
   55.4530   29.2180   45.1690 O   0  0  0  0  0  0  0  0  0  0  0  0
   57.1850   30.6190   44.3650 C   0  0  0  0  0  0  0  0  0  0  0  0
   57.1630   30.9400   42.9970 C   0  0  0  0  0  0  0  0  0  0  0  0
   57.6770   32.1580   42.5490 C   0  0  0  0  0  0  0  0  0  0  0  0
   58.2240   33.0660   43.4560 C   0  0  0  0  0  0  0  0  0  0  0  0
   58.2590   32.7630   44.8270 C   0  0  0  0  0  0  0  0  0  0  0  0
   58.8650   33.7310   45.8020 C   0  0  0  0  0  0  0  0  0  0  0  0
   57.7500   31.5320   45.2770 C   0  0  0  0  0  0  0  0  0  0  0  0
   57.7860   31.2370   46.6030 F   0  0  0  0  0  0  0  0  0  0  0  0
   61.1420   30.4650   46.7810 C   0  0  0  0  0  0  0  0  0  0  0  0
   61.7760   31.6430   47.5300 C   0  0  0  0  0  0  0  0  0  0  0  0
   60.6549   33.7118   51.3046 H   0  0  0  0  0  0  0  0  0  0  0  0
   60.7853   34.8737   49.9409 H   0  0  0  0  0  0  0  0  0  0  0  0
   59.4885   33.6307   49.9409 H   0  0  0  0  0  0  0  0  0  0  0  0
   60.3088   33.1952   47.7742 H   0  0  0  0  0  0  0  0  0  0  0  0
   59.2047   31.8709   49.8387 H   0  0  0  0  0  0  0  0  0  0  0  0
   58.8068   31.4879   48.1106 H   0  0  0  0  0  0  0  0  0  0  0  0
   60.8730   30.0278   49.8205 H   0  0  0  0  0  0  0  0  0  0  0  0
   59.1989   29.4482   49.4344 H   0  0  0  0  0  0  0  0  0  0  0  0
   61.3856   28.7314   48.0299 H   0  0  0  0  0  0  0  0  0  0  0  0
   59.1420   29.0260   46.1820 H   0  0  0  0  0  0  0  0  0  0  0  0
   55.5406   24.5601   46.8627 H   0  0  0  0  0  0  0  0  0  0  0  0
   56.7382   30.2272   42.2749 H   0  0  0  0  0  0  0  0  0  0  0  0
   57.6507   32.4028   41.4769 H   0  0  0  0  0  0  0  0  0  0  0  0
   58.6295   34.0231   43.0960 H   0  0  0  0  0  0  0  0  0  0  0  0
   58.6557   33.3966   46.8288 H   0  0  0  0  0  0  0  0  0  0  0  0
   59.9529   33.7762   45.6457 H   0  0  0  0  0  0  0  0  0  0  0  0
   58.4304   34.7293   45.6457 H   0  0  0  0  0  0  0  0  0  0  0  0
   61.9082   29.9864   46.1533 H   0  0  0  0  0  0  0  0  0  0  0  0
   60.3167   30.8515   46.1649 H   0  0  0  0  0  0  0  0  0  0  0  0
   62.5763   31.2608   48.1807 H   0  0  0  0  0  0  0  0  0  0  0  0
   62.1724   32.3467   46.7832 H   0  0  0  0  0  0  0  0  0  0  0  0
  1  2  1  0
  2  3  1  0
  3  4  1  0
  4  5  1  0
  5  6  1  0
  6  7  1  0
  7  8  1  0
  8  9  2  0
  8 10  1  0
 10 11  1  0
 11 12  1  0
 12 13  2  0
 13 14  1  0
 14 15  1  0
 15 16  1  0
 16 17  2  0
 16 18  1  0
 18 19  2  0
 19 20  1  0
 20 21  2  0
 21 22  1  0
 22 23  1  0
 22 24  2  0
 24 25  1  0
  6 26  1  0
 26 27  1  0
 27  3  1  0
 14 10  2  0
 24 18  1  0
  1 28  1  0
  1 29  1  0
  1 30  1  0
  3 31  1  6
  4 32  1  0
  4 33  1  0
  5 34  1  0
  5 35  1  0
  6 36  1  1
  7 37  1  0
 12 38  1  0
 19 39  1  0
 20 40  1  0
 21 41  1  0
 23 42  1  0
 23 43  1  0
 23 44  1  0
 26 45  1  0
 26 46  1  0
 27 47  1  0
 27 48  1  0
M  CHG  2  11  -1  15  -1
M  END
>  <UniqueID>  (93) 
83

>  <SMILES>  (93) 
COC1CCC(NC(=O)c2[n-]cnc2[N-]C(=O)c2cccc(C)c2F)CC1

>  <Energy>  (93) 
87.7711646256711

>  <Genealogy>  (93) 
COC1CCC(NC(=O)c2[n-]cnc2[N-]C(=O)c2cccc(C)c2F)CC1 (protonated)
COC1CCC(NC(=O)c2[n-]cnc2[N-]C(=O)c2cccc(C)c2F)CC1 (3D coordinates assigned)
COC1CCC(NC(=O)c2[n-]cnc2[N-]C(=O)c2cccc(C)c2F)CC1 (nonaromatic ring conformer: 87.7711646256711 kcal/mol)

>  <smiles>  (93) 
COC1CCC(NC(=O)c2[nH]cnc2NC(=O)c2cccc(C)c2F)CC1

>  <score_type>  (93) 
oracle

>  <origin>  (93) 
adg

>  <m_score__min__energy>  (93) 
-10.210000000000001

>  <m_primary>  (93) 
energy

$$$$
93:0
     RDKit          3D

 34 35  0  0  0  0  0  0  0  0999 V2000
   58.9838   34.7354   43.5985 H   0  0  0  0  0  0  0  0  0  0  0  0
   58.7970   34.1290   44.4970 C   0  0  0  0  0  0  0  0  0  0  0  0
   59.1750   34.6110   45.7510 C   0  0  0  0  0  0  0  0  0  0  0  0
   59.6561   35.5965   45.8369 H   0  0  0  0  0  0  0  0  0  0  0  0
   58.9440   33.8440   46.9020 C   0  0  0  0  0  0  0  0  0  0  0  0
   59.3000   34.3850   48.2550 C   0  0  0  0  0  0  0  0  0  0  0  0
   58.8728   33.7358   49.0335 H   0  0  0  0  0  0  0  0  0  0  0  0
   60.3944   34.4142   48.3619 H   0  0  0  0  0  0  0  0  0  0  0  0
   58.8939   35.4017   48.3619 H   0  0  0  0  0  0  0  0  0  0  0  0
   58.3080   32.5980   46.7850 C   0  0  0  0  0  0  0  0  0  0  0  0
   58.0922   32.0089   47.6885 H   0  0  0  0  0  0  0  0  0  0  0  0
   57.9440   32.0960   45.5210 C   0  0  0  0  0  0  0  0  0  0  0  0
   57.3030   30.8530   45.3860 O   0  0  0  0  0  0  0  0  0  0  0  0
   57.9450   29.6070   45.3510 C   0  0  0  0  0  0  0  0  0  0  0  0
   59.3410   29.4890   45.3000 C   0  0  0  0  0  0  0  0  0  0  0  0
   59.9743   30.3884   45.3080 H   0  0  0  0  0  0  0  0  0  0  0  0
   59.9200   28.2220   45.2390 C   0  0  0  0  0  0  0  0  0  0  0  0
   61.0149   28.1237   45.1995 H   0  0  0  0  0  0  0  0  0  0  0  0
   59.1410   27.1060   45.2280 N   0  0  0  0  0  0  0  0  0  0  0  0
   59.6340   26.1940   45.1280 H   0  0  0  0  0  0  0  0  0  0  0  0
   57.7740   27.1880   45.2820 C   0  0  0  0  0  0  0  0  0  0  0  0
   57.0060   26.1320   45.2650 N   0  0  0  0  0  0  0  0  0  0  0  0
   55.9050   25.8060   46.1290 C   0  0  0  0  0  0  0  0  0  0  0  0
   54.7730   26.3320   45.9640 O   0  0  0  0  0  0  0  0  0  0  0  0
   56.0590   24.8010   47.1310 N   0  0  0  0  0  0  0  0  0  0  0  0
   57.3570   24.2660   47.5150 C   0  0  0  0  0  0  0  0  0  0  0  0
   57.4310   24.2355   48.6121 H   0  0  0  0  0  0  0  0  0  0  0  0
   57.4682   23.2487   47.1116 H   0  0  0  0  0  0  0  0  0  0  0  0
   58.1527   24.9095   47.1116 H   0  0  0  0  0  0  0  0  0  0  0  0
   57.1640   28.4490   45.3190 C   0  0  0  0  0  0  0  0  0  0  0  0
   56.0668   28.5274   45.3229 H   0  0  0  0  0  0  0  0  0  0  0  0
   58.1810   32.8770   44.3770 C   0  0  0  0  0  0  0  0  0  0  0  0
   57.7970   32.3970   43.0730 C   0  0  0  0  0  0  0  0  0  0  0  0
   57.4890   32.0130   42.0260 N   0  0  0  0  0  0  0  0  0  0  0  0
  1  2  1  0
  2  3  2  0
  3  4  1  0
  3  5  1  0
  5  6  1  0
  6  7  1  0
  6  8  1  0
  6  9  1  0
  5 10  2  0
 10 11  1  0
 10 12  1  0
 12 13  1  0
 13 14  1  0
 14 15  1  0
 15 16  1  0
 15 17  2  0
 17 18  1  0
 17 19  1  0
 19 20  1  0
 19 21  1  0
 21 22  2  0
 22 23  1  0
 23 24  2  0
 23 25  1  0
 25 26  1  0
 26 27  1  0
 26 28  1  0
 26 29  1  0
 21 30  1  0
 30 31  1  0
 12 32  2  0
 32 33  1  0
 33 34  3  0
 32  2  1  0
 30 14  2  0
M  CHG  1  25  -1
M  END
>  <UniqueID>  (94) 
84

>  <SMILES>  (94) 
C[N-]C(=O)/N=c1/cc(Oc2cc(C)ccc2C#N)cc[nH]1

>  <Energy>  (94) 
43.92393968334417

>  <Genealogy>  (94) 
C[N-]C(=O)N=c1cc(Oc2cc(C)ccc2C#N)cc[nH]1 (protonated)
C[N-]C(=O)/N=c1/cc(Oc2cc(C)ccc2C#N)cc[nH]1 (cis-trans isomerization)
C[N-]C(=O)/N=c1/cc(Oc2cc(C)ccc2C#N)cc[nH]1 (3D coordinates assigned)
C[N-]C(=O)/N=c1/cc(Oc2cc(C)ccc2C#N)cc[nH]1 (optimized conformer: 43.92393968334417 kcal/mol)

>  <smiles>  (94) 
CNC(=O)N=c1cc(Oc2cc(C)ccc2C#N)cc[nH]1

>  <score_type>  (94) 
oracle

>  <origin>  (94) 
adg

>  <m_score__min__energy>  (94) 
-9.1099999999999994

>  <m_primary>  (94) 
energy

$$$$
94:0
     RDKit          3D

 30 32  0  0  0  0  0  0  0  0999 V2000
   57.9040   28.0270   46.6150 O   0  0  0  0  0  0  0  0  0  0  0  0
   57.9970   27.9090   45.3640 C   0  0  0  0  0  0  0  0  0  0  0  0
   57.7620   26.5520   44.7460 C   0  0  0  0  0  0  0  0  0  0  0  0
   57.2480   25.5510   45.7620 C   0  0  0  0  0  0  0  0  0  0  0  0
   55.9650   25.6750   46.3280 C   0  0  0  0  0  0  0  0  0  0  0  0
   55.1200   26.7160   45.9650 O   0  0  0  0  0  0  0  0  0  0  0  0
   55.5320   24.7630   47.2360 N   0  0  0  0  0  0  0  0  0  0  0  0
   56.3070   23.7110   47.6020 C   0  0  0  0  0  0  0  0  0  0  0  0
   55.8830   22.8830   48.4480 O   0  0  0  0  0  0  0  0  0  0  0  0
   57.5340   23.5480   47.0490 N   0  0  0  0  0  0  0  0  0  0  0  0
   58.0180   24.4310   46.1370 C   0  0  0  0  0  0  0  0  0  0  0  0
   59.1550   24.2320   45.6330 O   0  0  0  0  0  0  0  0  0  0  0  0
   58.2270   29.0910   44.5800 N   0  0  0  0  0  0  0  0  0  0  0  0
   58.1970   30.3290   44.9840 C   0  0  0  0  0  0  0  0  0  0  0  0
   59.2810   30.9050   45.5750 N   0  0  0  0  0  0  0  0  0  0  0  0
   59.2480   32.1870   46.0240 C   0  0  0  0  0  0  0  0  0  0  0  0
   60.3730   32.7600   46.6280 C   0  0  0  0  0  0  0  0  0  0  0  0
   60.3190   34.0830   47.0820 C   0  0  0  0  0  0  0  0  0  0  0  0
   59.1440   34.8310   46.9350 C   0  0  0  0  0  0  0  0  0  0  0  0
   58.0160   34.2600   46.3360 C   0  0  0  0  0  0  0  0  0  0  0  0
   58.0650   32.9370   45.8800 C   0  0  0  0  0  0  0  0  0  0  0  0
   56.9790   32.3610   45.3020 N   0  0  0  0  0  0  0  0  0  0  0  0
   57.0140   31.0780   44.8570 C   0  0  0  0  0  0  0  0  0  0  0  0
   55.9860   30.5740   44.3300 O   0  0  0  0  0  0  0  0  0  0  0  0
   57.0214   26.6520   43.9388 H   0  0  0  0  0  0  0  0  0  0  0  0
   58.7227   26.1823   44.3582 H   0  0  0  0  0  0  0  0  0  0  0  0
   61.2959   32.1731   46.7455 H   0  0  0  0  0  0  0  0  0  0  0  0
   61.2021   34.5366   47.5557 H   0  0  0  0  0  0  0  0  0  0  0  0
   59.1080   35.8709   47.2917 H   0  0  0  0  0  0  0  0  0  0  0  0
   57.0935   34.8485   46.2236 H   0  0  0  0  0  0  0  0  0  0  0  0
  1  2  2  0
  2  3  1  0
  3  4  1  0
  4  5  2  0
  5  6  1  0
  5  7  1  0
  7  8  1  0
  8  9  2  0
  8 10  1  0
 10 11  1  0
 11 12  2  0
  2 13  1  0
 13 14  2  3
 14 15  1  0
 15 16  1  0
 16 17  2  0
 17 18  1  0
 18 19  2  0
 19 20  1  0
 20 21  2  0
 21 22  1  0
 22 23  1  0
 23 24  2  0
 11  4  1  0
 23 14  1  0
 21 16  1  0
  3 25  1  0
  3 26  1  0
 17 27  1  0
 18 28  1  0
 19 29  1  0
 20 30  1  0
M  CHG  5   6  -1   7  -1  10  -1  15  -1  22  -1
M  END
>  <UniqueID>  (95) 
85

>  <SMILES>  (95) 
O=C(Cc1c([O-])[n-]c(=O)[n-]c1=O)N=c1[n-]c2ccccc2[n-]c1=O

>  <Energy>  (95) 
44.981119387423796

>  <Genealogy>  (95) 
O=C(Cc1c([O-])[n-]c(=O)[n-]c1=O)N=c1[n-]c2ccccc2[n-]c1=O (protonated)
O=C(Cc1c([O-])[n-]c(=O)[n-]c1=O)N=c1[n-]c2ccccc2[n-]c1=O (3D coordinates assigned)
O=C(Cc1c([O-])[n-]c(=O)[n-]c1=O)N=c1[n-]c2ccccc2[n-]c1=O (optimized conformer: 44.981119387423796 kcal/mol)

>  <smiles>  (95) 
O=C(Cc1c(O)[nH]c(=O)[nH]c1=O)N=c1[nH]c2ccccc2[nH]c1=O

>  <score_type>  (95) 
oracle

>  <origin>  (95) 
adg

>  <m_score__min__energy>  (95) 
-18.02

>  <m_primary>  (95) 
energy

$$$$
