0:0
     RDKit          3D

 63 66  0  0  0  0  0  0  0  0999 V2000
   54.3090   24.1450   44.9250 C   0  0  0  0  0  0  0  0  0  0  0  0
   54.6270   25.1570   45.8750 O   0  0  0  0  0  0  0  0  0  0  0  0
   55.9280   25.6020   46.1640 C   0  0  0  0  0  0  0  0  0  0  0  0
   56.3980   26.8570   45.7450 C   0  0  0  0  0  0  0  0  0  0  0  0
   57.7000   27.2980   46.0480 C   0  0  0  0  0  0  0  0  0  0  0  0
   58.5710   26.4190   46.7620 C   0  0  0  0  0  0  0  0  0  0  0  0
   58.0770   25.1700   47.1870 C   0  0  0  0  0  0  0  0  0  0  0  0
   56.7690   24.7570   46.8900 C   0  0  0  0  0  0  0  0  0  0  0  0
   56.2680   23.5120   47.3010 O   0  0  0  0  0  0  0  0  0  0  0  0
   55.1970   23.3330   48.2230 C   0  0  0  0  0  0  0  0  0  0  0  0
   59.9690   26.7870   47.2140 C   0  0  0  0  0  0  0  0  0  0  0  0
   60.0610   28.1740   47.7690 C   0  0  0  0  0  0  0  0  0  0  0  0
   60.2040   28.3360   49.0110 O   0  0  0  0  0  0  0  0  0  0  0  0
   59.9570   29.3100   46.8950 N   0  0  0  0  0  0  0  0  0  0  0  0
   61.1540   30.0990   46.5630 C   0  0  0  0  0  0  0  0  0  0  0  0
   61.6490   30.9170   47.7800 C   0  0  1  0  0  0  0  0  0  0  0  0
   62.5410   32.1130   47.3550 C   0  0  0  0  0  0  0  0  0  0  0  0
   61.7450   33.4240   47.3200 C   0  0  0  0  0  0  0  0  0  0  0  0
   61.1980   33.7870   48.6570 N   0  0  1  0  0  0  0  0  0  0  0  0
   60.0450   34.7130   48.5270 C   0  0  0  0  0  0  0  0  0  0  0  0
   59.1960   34.4000   47.3160 C   0  0  0  0  0  0  0  0  0  0  0  0
   58.1650   33.4480   47.3940 C   0  0  0  0  0  0  0  0  0  0  0  0
   57.3990   33.1460   46.2640 C   0  0  0  0  0  0  0  0  0  0  0  0
   57.6590   33.7860   45.0490 C   0  0  0  0  0  0  0  0  0  0  0  0
   58.6860   34.7310   44.9630 C   0  0  0  0  0  0  0  0  0  0  0  0
   59.4540   35.0360   46.0900 C   0  0  0  0  0  0  0  0  0  0  0  0
   60.8280   32.6020   49.4870 C   0  0  0  0  0  0  0  0  0  0  0  0
   60.4480   31.3840   48.6350 C   0  0  0  0  0  0  0  0  0  0  0  0
   58.6330   29.7050   46.4040 C   0  0  0  0  0  0  0  0  0  0  0  0
   58.0920   28.6410   45.4460 C   0  0  0  0  0  0  0  0  0  0  0  0
   54.0197   23.2244   45.4530 H   0  0  0  0  0  0  0  0  0  0  0  0
   53.4740   24.4837   44.2941 H   0  0  0  0  0  0  0  0  0  0  0  0
   55.1877   23.9452   44.2941 H   0  0  0  0  0  0  0  0  0  0  0  0
   55.7316   27.5124   45.1650 H   0  0  0  0  0  0  0  0  0  0  0  0
   58.7323   24.5023   47.7656 H   0  0  0  0  0  0  0  0  0  0  0  0
   55.5834   23.3976   49.2509 H   0  0  0  0  0  0  0  0  0  0  0  0
   54.4422   24.1175   48.0650 H   0  0  0  0  0  0  0  0  0  0  0  0
   54.7383   22.3457   48.0650 H   0  0  0  0  0  0  0  0  0  0  0  0
   60.2833   26.0768   47.9929 H   0  0  0  0  0  0  0  0  0  0  0  0
   60.6215   26.7439   46.3295 H   0  0  0  0  0  0  0  0  0  0  0  0
   61.9544   29.4163   46.2416 H   0  0  0  0  0  0  0  0  0  0  0  0
   60.8922   30.8015   45.7581 H   0  0  0  0  0  0  0  0  0  0  0  0
   62.2802   30.2580   48.3942 H   0  0  0  0  0  0  0  0  0  0  0  0
   62.9492   31.9159   46.3528 H   0  0  0  0  0  0  0  0  0  0  0  0
   63.3494   32.2199   48.0933 H   0  0  0  0  0  0  0  0  0  0  0  0
   60.9090   33.3119   46.6139 H   0  0  0  0  0  0  0  0  0  0  0  0
   62.4295   34.2260   47.0066 H   0  0  0  0  0  0  0  0  0  0  0  0
   61.9520   34.2960   49.1800 H   0  0  0  0  0  0  0  0  0  0  0  0
   59.4204   34.6301   49.4287 H   0  0  0  0  0  0  0  0  0  0  0  0
   60.4416   35.7320   48.4076 H   0  0  0  0  0  0  0  0  0  0  0  0
   57.9600   32.9388   48.3473 H   0  0  0  0  0  0  0  0  0  0  0  0
   56.5903   32.4034   46.3313 H   0  0  0  0  0  0  0  0  0  0  0  0
   57.0560   33.5464   44.1608 H   0  0  0  0  0  0  0  0  0  0  0  0
   58.8897   35.2351   44.0068 H   0  0  0  0  0  0  0  0  0  0  0  0
   60.2637   35.7769   46.0170 H   0  0  0  0  0  0  0  0  0  0  0  0
   59.9706   32.8698   50.1219 H   0  0  0  0  0  0  0  0  0  0  0  0
   61.7068   32.3279   50.0891 H   0  0  0  0  0  0  0  0  0  0  0  0
   59.6150   31.6548   47.9696 H   0  0  0  0  0  0  0  0  0  0  0  0
   60.1512   30.5634   49.3047 H   0  0  0  0  0  0  0  0  0  0  0  0
   57.9454   29.8118   47.2559 H   0  0  0  0  0  0  0  0  0  0  0  0
   58.7166   30.6631   45.8701 H   0  0  0  0  0  0  0  0  0  0  0  0
   57.1989   29.0583   44.9579 H   0  0  0  0  0  0  0  0  0  0  0  0
   58.9299   28.4153   44.7700 H   0  0  0  0  0  0  0  0  0  0  0  0
  1  2  1  0
  2  3  1  0
  3  4  2  0
  4  5  1  0
  5  6  2  0
  6  7  1  0
  7  8  2  0
  8  9  1  0
  9 10  1  0
  6 11  1  0
 11 12  1  0
 12 13  2  0
 12 14  1  0
 14 15  1  0
 15 16  1  0
 16 17  1  0
 17 18  1  0
 18 19  1  0
 19 20  1  0
 20 21  1  0
 21 22  2  0
 22 23  1  0
 23 24  2  0
 24 25  1  0
 25 26  2  0
 19 27  1  0
 27 28  1  0
 14 29  1  0
 29 30  1  0
  8  3  1  0
 28 16  1  0
 30  5  1  0
 26 21  1  0
  1 31  1  0
  1 32  1  0
  1 33  1  0
  4 34  1  0
  7 35  1  0
 10 36  1  0
 10 37  1  0
 10 38  1  0
 11 39  1  0
 11 40  1  0
 15 41  1  0
 15 42  1  0
 16 43  1  1
 17 44  1  0
 17 45  1  0
 18 46  1  0
 18 47  1  0
 19 48  1  1
 20 49  1  0
 20 50  1  0
 22 51  1  0
 23 52  1  0
 24 53  1  0
 25 54  1  0
 26 55  1  0
 27 56  1  0
 27 57  1  0
 28 58  1  0
 28 59  1  0
 29 60  1  0
 29 61  1  0
 30 62  1  0
 30 63  1  0
M  CHG  1  19   1
M  END
>  <UniqueID>  (1) 
1

>  <SMILES>  (1) 
COc1cc2c(cc1OC)CC(=O)N(CC1CC[NH+](Cc3ccccc3)CC1)CC2

>  <Energy>  (1) 
79.73131974528776

>  <Genealogy>  (1) 
COc1cc2c(cc1OC)CC(=O)N(CC1CC[NH+](Cc3ccccc3)CC1)CC2 (protonated)
COc1cc2c(cc1OC)CC(=O)N(CC1CC[NH+](Cc3ccccc3)CC1)CC2 (3D coordinates assigned)
COc1cc2c(cc1OC)CC(=O)N(CC1CC[NH+](Cc3ccccc3)CC1)CC2 (nonaromatic ring conformer: 79.73131974528776 kcal/mol)

>  <smiles>  (1) 
COc1cc2c(cc1OC)CC(=O)N(CC1CCN(Cc3ccccc3)CC1)CC2

>  <score_type>  (1) 
oracle

>  <origin>  (1) 
adg

>  <m_score__min__energy>  (1) 
-5.4699999999999998

>  <m_primary>  (1) 
energy

$$$$
1:0
     RDKit          3D

 27 28  0  0  0  0  0  0  0  0999 V2000
   55.6160   27.9330   44.7360 H   0  0  0  0  0  0  0  0  0  0  0  0
   55.5380   28.9660   44.8640 N   0  0  0  0  0  0  0  0  0  0  0  0
   56.5840   29.7140   45.0140 C   0  0  0  0  0  0  0  0  0  0  0  0
   56.5680   30.9860   44.5320 N   0  0  0  0  0  0  0  0  0  0  0  0
   57.6350   31.8120   44.6680 C   0  0  0  0  0  0  0  0  0  0  0  0
   57.5974   32.8363   44.2688 H   0  0  0  0  0  0  0  0  0  0  0  0
   58.7770   31.3540   45.3160 C   0  0  0  0  0  0  0  0  0  0  0  0
   59.6488   32.0145   45.4332 H   0  0  0  0  0  0  0  0  0  0  0  0
   58.8100   30.0850   45.8040 N   0  0  0  0  0  0  0  0  0  0  0  0
   59.6830   29.7710   46.2850 H   0  0  0  0  0  0  0  0  0  0  0  0
   57.7440   29.2380   45.6730 C   0  0  0  0  0  0  0  0  0  0  0  0
   57.8360   27.8590   46.2270 C   0  0  0  0  0  0  0  0  0  0  0  0
   58.9580   27.4090   46.5880 O   0  0  0  0  0  0  0  0  0  0  0  0
   56.7000   27.0400   46.2910 O   0  0  0  0  0  0  0  0  0  0  0  0
   56.5320   25.8250   45.6100 C   0  0  0  0  0  0  0  0  0  0  0  0
   57.4040   25.5240   44.5580 C   0  0  0  0  0  0  0  0  0  0  0  0
   58.2016   26.2331   44.2914 H   0  0  0  0  0  0  0  0  0  0  0  0
   57.2710   24.3310   43.8430 C   0  0  0  0  0  0  0  0  0  0  0  0
   57.9711   24.1039   43.0255 H   0  0  0  0  0  0  0  0  0  0  0  0
   56.2500   23.4190   44.1600 C   0  0  0  0  0  0  0  0  0  0  0  0
   56.1140   22.1910   43.4230 N   0  0  0  0  0  0  0  0  0  0  0  0
   55.8910   22.2060   42.1940 O   0  0  0  0  0  0  0  0  0  0  0  0
   56.2260   20.9760   44.0600 O   0  0  0  0  0  0  0  0  0  0  0  0
   55.3600   23.7320   45.2040 C   0  0  0  0  0  0  0  0  0  0  0  0
   54.5505   23.0322   45.4589 H   0  0  0  0  0  0  0  0  0  0  0  0
   55.4960   24.9250   45.9200 C   0  0  0  0  0  0  0  0  0  0  0  0
   54.7897   25.1611   46.7295 H   0  0  0  0  0  0  0  0  0  0  0  0
  1  2  1  0
  2  3  2  0
  3  4  1  0
  4  5  1  0
  5  6  1  0
  5  7  2  0
  7  8  1  0
  7  9  1  0
  9 10  1  0
  9 11  2  0
 11 12  1  0
 12 13  2  0
 12 14  1  0
 14 15  1  0
 15 16  2  0
 16 17  1  0
 16 18  1  0
 18 19  1  0
 18 20  2  0
 20 21  1  0
 21 22  2  0
 21 23  1  0
 20 24  1  0
 24 25  1  0
 24 26  2  0
 26 27  1  0
 11  3  1  0
 26 15  1  0
M  CHG  4   4  -1   9   1  21   1  23  -1
M  END
>  <UniqueID>  (2) 
2

>  <SMILES>  (2) 
[H]/N=c1\[n-]cc[nH+]c1C(=O)Oc1ccc([N+](=O)[O-])cc1

>  <Energy>  (2) 
37.49300670879695

>  <Genealogy>  (2) 
N=c1[n-]cc[nH+]c1C(=O)Oc1ccc([N+](=O)[O-])cc1 (protonated)
[H]/N=c1\[n-]cc[nH+]c1C(=O)Oc1ccc([N+](=O)[O-])cc1 (cis-trans isomerization)
[H]/N=c1\[n-]cc[nH+]c1C(=O)Oc1ccc([N+](=O)[O-])cc1 (3D coordinates assigned)
[H]/N=c1\[n-]cc[nH+]c1C(=O)Oc1ccc([N+](=O)[O-])cc1 (optimized conformer: 37.49300670879695 kcal/mol)

>  <smiles>  (2) 
N=c1[nH]ccnc1C(=O)Oc1ccc([N+](=O)[O-])cc1

>  <score_type>  (2) 
oracle

>  <origin>  (2) 
adg

>  <m_score__min__energy>  (2) 
-6.9400000000000004

>  <m_primary>  (2) 
energy

$$$$
2:0
     RDKit          3D

 35 37  0  0  0  0  0  0  0  0999 V2000
   58.1170   26.8970   42.5880 C   0  0  0  0  0  0  0  0  0  0  0  0
   57.8130   26.6600   44.0370 C   0  0  0  0  0  0  0  0  0  0  0  0
   58.0110   25.4060   44.6400 C   0  0  0  0  0  0  0  0  0  0  0  0
   57.6280   25.3550   45.9720 C   0  0  0  0  0  0  0  0  0  0  0  0
   57.0520   26.8710   46.4090 S   0  0  0  0  0  0  0  0  0  0  0  0
   57.2970   27.6160   44.9200 C   0  0  0  0  0  0  0  0  0  0  0  0
   56.9640   29.0270   44.6490 C   0  0  0  0  0  0  0  0  0  0  0  0
   55.9780   29.5440   45.2420 O   0  0  0  0  0  0  0  0  0  0  0  0
   57.7660   29.8250   43.7660 N   0  0  0  0  0  0  0  0  0  0  0  0
   57.3960   31.1880   43.3920 C   0  0  0  0  0  0  0  0  0  0  0  0
   57.9740   32.1710   44.3740 C   0  0  0  0  0  0  0  0  0  0  0  0
   58.3300   33.4650   43.9610 C   0  0  0  0  0  0  0  0  0  0  0  0
   58.8460   34.3850   44.8780 C   0  0  0  0  0  0  0  0  0  0  0  0
   59.0100   34.0230   46.2230 C   0  0  0  0  0  0  0  0  0  0  0  0
   59.5260   34.9400   47.1530 C   0  0  0  0  0  0  0  0  0  0  0  0
   59.6820   34.5690   48.4910 C   0  0  0  0  0  0  0  0  0  0  0  0
   59.3250   33.2840   48.9110 C   0  0  0  0  0  0  0  0  0  0  0  0
   58.8100   32.3620   47.9950 C   0  0  0  0  0  0  0  0  0  0  0  0
   58.6490   32.7220   46.6490 C   0  0  0  0  0  0  0  0  0  0  0  0
   58.1320   31.8060   45.7200 C   0  0  0  0  0  0  0  0  0  0  0  0
   58.9818   27.5712   42.5003 H   0  0  0  0  0  0  0  0  0  0  0  0
   58.3483   25.9385   42.1003 H   0  0  0  0  0  0  0  0  0  0  0  0
   57.2439   27.3552   42.1003 H   0  0  0  0  0  0  0  0  0  0  0  0
   58.4319   24.5427   44.1038 H   0  0  0  0  0  0  0  0  0  0  0  0
   57.6906   24.4745   46.6283 H   0  0  0  0  0  0  0  0  0  0  0  0
   58.6890   29.4640   43.4410 H   0  0  0  0  0  0  0  0  0  0  0  0
   57.7849   31.4073   42.3867 H   0  0  0  0  0  0  0  0  0  0  0  0
   56.2996   31.2769   43.3980 H   0  0  0  0  0  0  0  0  0  0  0  0
   58.2019   33.7567   42.9082 H   0  0  0  0  0  0  0  0  0  0  0  0
   59.1242   35.3955   44.5440 H   0  0  0  0  0  0  0  0  0  0  0  0
   59.8079   35.9522   46.8275 H   0  0  0  0  0  0  0  0  0  0  0  0
   60.0869   35.2901   49.2163 H   0  0  0  0  0  0  0  0  0  0  0  0
   59.4498   32.9976   49.9657 H   0  0  0  0  0  0  0  0  0  0  0  0
   58.5305   31.3524   48.3305 H   0  0  0  0  0  0  0  0  0  0  0  0
   57.8487   30.7953   46.0489 H   0  0  0  0  0  0  0  0  0  0  0  0
  1  2  1  0
  2  3  1  0
  3  4  2  0
  4  5  1  0
  5  6  1  0
  6  7  1  0
  7  8  2  0
  7  9  1  0
  9 10  1  0
 10 11  1  0
 11 12  2  0
 12 13  1  0
 13 14  2  0
 14 15  1  0
 15 16  2  0
 16 17  1  0
 17 18  2  0
 18 19  1  0
 19 20  2  0
  6  2  2  0
 20 11  1  0
 19 14  1  0
  1 21  1  0
  1 22  1  0
  1 23  1  0
  3 24  1  0
  4 25  1  0
  9 26  1  0
 10 27  1  0
 10 28  1  0
 12 29  1  0
 13 30  1  0
 15 31  1  0
 16 32  1  0
 17 33  1  0
 18 34  1  0
 20 35  1  0
M  END
>  <UniqueID>  (3) 
3

>  <SMILES>  (3) 
Cc1ccsc1C(=O)NCc1ccc2ccccc2c1

>  <Energy>  (3) 
65.87834186133718

>  <Genealogy>  (3) 
Cc1ccsc1C(=O)NCc1ccc2ccccc2c1 (3D coordinates assigned)
Cc1ccsc1C(=O)NCc1ccc2ccccc2c1 (optimized conformer: 65.87834186133718 kcal/mol)

>  <smiles>  (3) 
Cc1ccsc1C(=O)NCc1ccc2ccccc2c1

>  <score_type>  (3) 
oracle

>  <origin>  (3) 
adg

>  <m_score__min__energy>  (3) 
-8.1400000000000006

>  <m_primary>  (3) 
energy

$$$$
3:0
     RDKit          3D

 34 36  0  0  0  0  0  0  0  0999 V2000
   56.2230   30.7890   44.4260 O   0  0  0  0  0  0  0  0  0  0  0  0
   57.3720   30.7320   44.9360 C   0  0  0  0  0  0  0  0  0  0  0  0
   58.0570   29.5540   44.9730 N   0  0  0  0  0  0  0  0  0  0  0  0
   59.3040   29.4740   45.5350 C   0  0  0  0  0  0  0  0  0  0  0  0
   59.8940   30.5820   46.0770 N   0  0  0  0  0  0  0  0  0  0  0  0
   59.2210   31.7650   46.0320 C   0  0  0  0  0  0  0  0  0  0  0  0
   57.9770   31.8560   45.4830 C   0  0  0  0  0  0  0  0  0  0  0  0
   57.5430   33.1530   45.6380 C   0  0  0  0  0  0  0  0  0  0  0  0
   58.5820   33.8030   46.2980 C   0  0  0  0  0  0  0  0  0  0  0  0
   59.6240   32.9590   46.5250 N   0  0  0  0  0  0  0  0  0  0  0  0
   60.8600   33.2520   47.2720 C   0  0  0  0  0  0  0  0  0  0  0  0
   61.9540   33.8520   46.3510 C   0  0  0  0  0  0  0  0  0  0  0  0
   63.3890   33.4500   46.7420 C   0  0  0  0  0  0  0  0  0  0  0  0
   63.8180   33.7900   48.1950 C   0  0  0  0  0  0  0  0  0  0  0  0
   62.9040   33.2480   49.3130 C   0  0  0  0  0  0  0  0  0  0  0  0
   61.6590   34.1130   49.6040 C   0  0  0  0  0  0  0  0  0  0  0  0
   60.5420   34.0640   48.5470 C   0  0  0  0  0  0  0  0  0  0  0  0
   59.8348   28.5106   45.5503 H   0  0  0  0  0  0  0  0  0  0  0  0
   60.8360   30.4960   46.5150 H   0  0  0  0  0  0  0  0  0  0  0  0
   56.5843   33.5822   45.3115 H   0  0  0  0  0  0  0  0  0  0  0  0
   58.5628   34.8614   46.5970 H   0  0  0  0  0  0  0  0  0  0  0  0
   61.3059   32.3138   47.6340 H   0  0  0  0  0  0  0  0  0  0  0  0
   61.7666   33.5099   45.3225 H   0  0  0  0  0  0  0  0  0  0  0  0
   61.8905   34.9456   46.4507 H   0  0  0  0  0  0  0  0  0  0  0  0
   63.4819   32.3620   46.6093 H   0  0  0  0  0  0  0  0  0  0  0  0
   64.0506   34.0404   46.0911 H   0  0  0  0  0  0  0  0  0  0  0  0
   64.8253   33.3776   48.3540 H   0  0  0  0  0  0  0  0  0  0  0  0
   63.7637   34.8860   48.2720 H   0  0  0  0  0  0  0  0  0  0  0  0
   62.5629   32.2440   49.0202 H   0  0  0  0  0  0  0  0  0  0  0  0
   63.5054   33.2491   50.2340 H   0  0  0  0  0  0  0  0  0  0  0  0
   61.2321   33.7775   50.5607 H   0  0  0  0  0  0  0  0  0  0  0  0
   62.0157   35.1536   49.6107 H   0  0  0  0  0  0  0  0  0  0  0  0
   59.6517   33.6203   49.0167 H   0  0  0  0  0  0  0  0  0  0  0  0
   60.4002   35.1024   48.2130 H   0  0  0  0  0  0  0  0  0  0  0  0
  1  2  2  0
  2  3  1  0
  3  4  2  0
  4  5  1  0
  5  6  1  0
  6  7  2  0
  7  8  1  0
  8  9  2  0
  9 10  1  0
 10 11  1  0
 11 12  1  0
 12 13  1  0
 13 14  1  0
 14 15  1  0
 15 16  1  0
 16 17  1  0
  7  2  1  0
 17 11  1  0
 10  6  1  0
  4 18  1  0
  5 19  1  0
  8 20  1  0
  9 21  1  0
 11 22  1  0
 12 23  1  0
 12 24  1  0
 13 25  1  0
 13 26  1  0
 14 27  1  0
 14 28  1  0
 15 29  1  0
 15 30  1  0
 16 31  1  0
 16 32  1  0
 17 33  1  0
 17 34  1  0
M  END
>  <UniqueID>  (4) 
4

>  <SMILES>  (4) 
O=c1nc[nH]c2c1ccn2C1CCCCCC1

>  <Energy>  (4) 
80.73513772108589

>  <Genealogy>  (4) 
O=c1nc[nH]c2c1ccn2C1CCCCCC1 (3D coordinates assigned)
O=c1nc[nH]c2c1ccn2C1CCCCCC1 (nonaromatic ring conformer: 80.73513772108589 kcal/mol)

>  <smiles>  (4) 
O=c1nc[nH]c2c1ccn2C1CCCCCC1

>  <score_type>  (4) 
oracle

>  <origin>  (4) 
adg

>  <m_score__min__energy>  (4) 
-4.6799999999999997

>  <m_primary>  (4) 
energy

$$$$
4:0
     RDKit          3D

 40 42  0  0  0  0  0  0  0  0999 V2000
   61.1000   27.2488   46.1850 H   0  0  0  0  0  0  0  0  0  0  0  0
   60.0070   27.3170   46.0820 C   0  0  0  0  0  0  0  0  0  0  0  0
   59.4640   27.9680   45.0190 N   0  0  0  0  0  0  0  0  0  0  0  0
   58.1140   28.0770   44.8510 C   0  0  0  0  0  0  0  0  0  0  0  0
   57.6170   28.7060   43.8290 N   0  0  0  0  0  0  0  0  0  0  0  0
   56.7880   30.2280   43.9350 S   0  0  0  0  0  0  0  0  0  0  0  0
   56.5210   30.7410   42.5470 O   0  0  0  0  0  0  0  0  0  0  0  0
   55.4670   30.0500   44.6310 O   0  0  0  0  0  0  0  0  0  0  0  0
   57.7920   31.3850   44.8030 C   0  0  0  0  0  0  0  0  0  0  0  0
   58.6280   30.9550   45.8450 C   0  0  0  0  0  0  0  0  0  0  0  0
   58.6300   29.8972   46.1466 H   0  0  0  0  0  0  0  0  0  0  0  0
   59.4580   31.8690   46.5000 C   0  0  0  0  0  0  0  0  0  0  0  0
   60.1104   31.5279   47.3173 H   0  0  0  0  0  0  0  0  0  0  0  0
   59.4630   33.2230   46.1190 C   0  0  0  0  0  0  0  0  0  0  0  0
   60.2870   34.1610   46.7550 O   0  0  0  0  0  0  0  0  0  0  0  0
   61.4350   33.8520   47.4990 C   0  0  0  0  0  0  0  0  0  0  0  0
   62.5850   33.4560   46.8050 C   0  0  0  0  0  0  0  0  0  0  0  0
   62.5699   33.4096   45.7061 H   0  0  0  0  0  0  0  0  0  0  0  0
   63.7490   33.1200   47.4950 C   0  0  0  0  0  0  0  0  0  0  0  0
   64.6490   32.8169   46.9399 H   0  0  0  0  0  0  0  0  0  0  0  0
   63.7730   33.1680   48.8900 C   0  0  0  0  0  0  0  0  0  0  0  0
   65.2390   32.7420   49.7540 Cl  0  0  0  0  0  0  0  0  0  0  0  0
   62.6250   33.5380   49.5980 C   0  0  0  0  0  0  0  0  0  0  0  0
   62.6451   33.5637   50.6975 H   0  0  0  0  0  0  0  0  0  0  0  0
   61.4430   33.8780   48.9110 C   0  0  0  0  0  0  0  0  0  0  0  0
   60.2630   34.2150   49.5960 O   0  0  0  0  0  0  0  0  0  0  0  0
   59.6500   33.4140   50.6000 C   0  0  0  0  0  0  0  0  0  0  0  0
   59.9367   33.7887   51.5937 H   0  0  0  0  0  0  0  0  0  0  0  0
   58.5565   33.4630   50.4912 H   0  0  0  0  0  0  0  0  0  0  0  0
   59.9830   32.3713   50.4912 H   0  0  0  0  0  0  0  0  0  0  0  0
   58.5990   33.6550   45.1050 C   0  0  0  0  0  0  0  0  0  0  0  0
   58.5680   34.9640   44.7530 F   0  0  0  0  0  0  0  0  0  0  0  0
   57.7780   32.7380   44.4410 C   0  0  0  0  0  0  0  0  0  0  0  0
   57.1181   33.0810   43.6305 H   0  0  0  0  0  0  0  0  0  0  0  0
   57.2510   27.4960   45.7930 C   0  0  0  0  0  0  0  0  0  0  0  0
   55.9070   27.5560   45.6290 F   0  0  0  0  0  0  0  0  0  0  0  0
   57.7920   26.8160   46.8890 C   0  0  0  0  0  0  0  0  0  0  0  0
   57.1271   26.3458   47.6285 H   0  0  0  0  0  0  0  0  0  0  0  0
   59.1780   26.7350   47.0430 C   0  0  0  0  0  0  0  0  0  0  0  0
   59.6116   26.2183   47.9119 H   0  0  0  0  0  0  0  0  0  0  0  0
  1  2  1  0
  2  3  1  0
  3  4  1  0
  4  5  2  0
  5  6  1  0
  6  7  2  0
  6  8  2  0
  6  9  1  0
  9 10  2  0
 10 11  1  0
 10 12  1  0
 12 13  1  0
 12 14  2  0
 14 15  1  0
 15 16  1  0
 16 17  2  0
 17 18  1  0
 17 19  1  0
 19 20  1  0
 19 21  2  0
 21 22  1  0
 21 23  1  0
 23 24  1  0
 23 25  2  0
 25 26  1  0
 26 27  1  0
 27 28  1  0
 27 29  1  0
 27 30  1  0
 14 31  1  0
 31 32  1  0
 31 33  2  0
 33 34  1  0
  4 35  1  0
 35 36  1  0
 35 37  2  0
 37 38  1  0
 37 39  1  0
 39 40  1  0
 39  2  2  0
 33  9  1  0
 25 16  1  0
M  CHG  1   3  -1
M  END
>  <UniqueID>  (5) 
5

>  <SMILES>  (5) 
COc1cc(Cl)ccc1Oc1ccc(S(=O)(=O)/N=c2\[n-]cccc2F)cc1F

>  <Energy>  (5) 
53.6079017125001

>  <Genealogy>  (5) 
COc1cc(Cl)ccc1Oc1ccc(S(=O)(=O)N=c2[n-]cccc2F)cc1F (protonated)
COc1cc(Cl)ccc1Oc1ccc(S(=O)(=O)/N=c2\[n-]cccc2F)cc1F (cis-trans isomerization)
COc1cc(Cl)ccc1Oc1ccc(S(=O)(=O)/N=c2\[n-]cccc2F)cc1F (3D coordinates assigned)
COc1cc(Cl)ccc1Oc1ccc(S(=O)(=O)/N=c2\[n-]cccc2F)cc1F (optimized conformer: 53.6079017125001 kcal/mol)

>  <smiles>  (5) 
COc1cc(Cl)ccc1Oc1ccc(S(=O)(=O)N=c2[nH]cccc2F)cc1F

>  <score_type>  (5) 
oracle

>  <origin>  (5) 
adg

>  <m_score__min__energy>  (5) 
-10.26

>  <m_primary>  (5) 
energy

$$$$
5:0
     RDKit          3D

 32 33  0  0  0  0  0  0  0  0999 V2000
   60.7440   34.2220   49.3660 C   0  0  0  0  0  0  0  0  0  0  0  0
   59.7880   34.7030   48.4270 O   0  0  0  0  0  0  0  0  0  0  0  0
   59.2420   33.9340   47.3890 C   0  0  0  0  0  0  0  0  0  0  0  0
   58.8360   32.6240   47.6730 C   0  0  0  0  0  0  0  0  0  0  0  0
   58.2830   31.8200   46.6720 C   0  0  0  0  0  0  0  0  0  0  0  0
   58.1270   32.3180   45.3730 C   0  0  0  0  0  0  0  0  0  0  0  0
   57.4130   31.3190   44.1120 S   0  0  0  0  0  0  0  0  0  0  0  0
   56.0000   30.9880   44.4990 O   0  0  0  0  0  0  0  0  0  0  0  0
   57.4030   32.0480   42.7970 O   0  0  0  0  0  0  0  0  0  0  0  0
   58.3180   29.8480   43.9350 N   0  0  0  0  0  0  0  0  0  0  0  0
   58.3630   28.8070   44.9280 C   0  0  0  0  0  0  0  0  0  0  0  0
   59.4930   28.6990   45.7550 C   0  0  0  0  0  0  0  0  0  0  0  0
   59.5720   27.6930   46.7210 C   0  0  0  0  0  0  0  0  0  0  0  0
   58.5240   26.7840   46.8770 C   0  0  0  0  0  0  0  0  0  0  0  0
   58.6180   25.8100   47.8180 F   0  0  0  0  0  0  0  0  0  0  0  0
   57.3860   26.8830   46.0640 C   0  0  0  0  0  0  0  0  0  0  0  0
   56.2990   25.9510   46.2200 C   0  0  0  0  0  0  0  0  0  0  0  0
   55.4250   25.2020   46.3460 N   0  0  0  0  0  0  0  0  0  0  0  0
   57.3050   27.8930   45.0960 C   0  0  0  0  0  0  0  0  0  0  0  0
   58.5370   33.6260   45.0800 C   0  0  0  0  0  0  0  0  0  0  0  0
   59.0890   34.4320   46.0800 C   0  0  0  0  0  0  0  0  0  0  0  0
   60.3792   34.4056   50.3874 H   0  0  0  0  0  0  0  0  0  0  0  0
   60.8920   33.1421   49.2181 H   0  0  0  0  0  0  0  0  0  0  0  0
   61.6994   34.7467   49.2181 H   0  0  0  0  0  0  0  0  0  0  0  0
   58.9531   32.2248   48.6913 H   0  0  0  0  0  0  0  0  0  0  0  0
   57.9692   30.7920   46.9060 H   0  0  0  0  0  0  0  0  0  0  0  0
   58.7880   29.6910   43.0140 H   0  0  0  0  0  0  0  0  0  0  0  0
   60.3226   29.4124   45.6411 H   0  0  0  0  0  0  0  0  0  0  0  0
   60.4633   27.6168   47.3611 H   0  0  0  0  0  0  0  0  0  0  0  0
   56.4089   27.9724   44.4631 H   0  0  0  0  0  0  0  0  0  0  0  0
   58.4240   34.0198   44.0592 H   0  0  0  0  0  0  0  0  0  0  0  0
   59.4051   35.4588   45.8439 H   0  0  0  0  0  0  0  0  0  0  0  0
  1  2  1  0
  2  3  1  0
  3  4  2  0
  4  5  1  0
  5  6  2  0
  6  7  1  0
  7  8  2  0
  7  9  2  0
  7 10  1  0
 10 11  1  0
 11 12  2  0
 12 13  1  0
 13 14  2  0
 14 15  1  0
 14 16  1  0
 16 17  1  0
 17 18  3  0
 16 19  2  0
  6 20  1  0
 20 21  2  0
 21  3  1  0
 19 11  1  0
  1 22  1  0
  1 23  1  0
  1 24  1  0
  4 25  1  0
  5 26  1  0
 10 27  1  0
 12 28  1  0
 13 29  1  0
 19 30  1  0
 20 31  1  0
 21 32  1  0
M  END
>  <UniqueID>  (6) 
6

>  <SMILES>  (6) 
COc1ccc(S(=O)(=O)Nc2ccc(F)c(C#N)c2)cc1

>  <Energy>  (6) 
33.97233522209088

>  <Genealogy>  (6) 
COc1ccc(S(=O)(=O)Nc2ccc(F)c(C#N)c2)cc1 (3D coordinates assigned)
COc1ccc(S(=O)(=O)Nc2ccc(F)c(C#N)c2)cc1 (optimized conformer: 33.97233522209088 kcal/mol)

>  <smiles>  (6) 
COc1ccc(S(=O)(=O)Nc2ccc(F)c(C#N)c2)cc1

>  <score_type>  (6) 
oracle

>  <origin>  (6) 
adg

>  <m_score__min__energy>  (6) 
-7.5099999999999998

>  <m_primary>  (6) 
energy

$$$$
6:0
     RDKit          3D

 41 43  0  0  0  0  0  0  0  0999 V2000
   57.3970   34.1680   45.3660 C   0  0  0  0  0  0  0  0  0  0  0  0
   58.5090   33.4970   46.1080 C   0  0  0  0  0  0  0  0  0  0  0  0
   59.8110   34.0080   46.0760 C   0  0  0  0  0  0  0  0  0  0  0  0
   60.8170   33.3200   46.7630 C   0  0  0  0  0  0  0  0  0  0  0  0
   62.2190   33.8390   46.7740 C   0  0  0  0  0  0  0  0  0  0  0  0
   60.5120   32.1790   47.4360 N   0  0  0  0  0  0  0  0  0  0  0  0
   59.2470   31.6850   47.4410 C   0  0  0  0  0  0  0  0  0  0  0  0
   58.8790   30.1700   48.3200 S   0  0  0  0  0  0  0  0  0  0  0  0
   60.4670   29.3540   47.9120 C   0  0  0  0  0  0  0  0  0  0  0  0
   60.7390   29.3210   46.4040 C   0  0  0  0  0  0  0  0  0  0  0  0
   60.2180   28.0360   45.7450 C   0  0  0  0  0  0  0  0  0  0  0  0
   58.7160   28.1000   45.5700 C   0  0  0  0  0  0  0  0  0  0  0  0
   57.9370   27.0520   46.0830 C   0  0  0  0  0  0  0  0  0  0  0  0
   56.5520   27.0730   45.9120 C   0  0  0  0  0  0  0  0  0  0  0  0
   55.8470   26.1400   46.3780 O   0  0  0  0  0  0  0  0  0  0  0  0
   55.9710   28.0710   45.2580 O   0  0  0  0  0  0  0  0  0  0  0  0
   56.6550   29.0840   44.7360 C   0  0  0  0  0  0  0  0  0  0  0  0
   55.9680   30.0930   44.0540 C   0  0  0  0  0  0  0  0  0  0  0  0
   56.6660   31.1630   43.4920 C   0  0  0  0  0  0  0  0  0  0  0  0
   58.0550   31.2300   43.6080 C   0  0  0  0  0  0  0  0  0  0  0  0
   58.7560   30.2290   44.2850 C   0  0  0  0  0  0  0  0  0  0  0  0
   58.0660   29.1420   44.8650 C   0  0  0  0  0  0  0  0  0  0  0  0
   58.2580   32.3450   46.7830 N   0  0  0  0  0  0  0  0  0  0  0  0
   56.6839   34.5983   46.0846 H   0  0  0  0  0  0  0  0  0  0  0  0
   57.8087   34.9686   44.7339 H   0  0  0  0  0  0  0  0  0  0  0  0
   56.8806   33.4306   44.7339 H   0  0  0  0  0  0  0  0  0  0  0  0
   60.0388   34.9309   45.5226 H   0  0  0  0  0  0  0  0  0  0  0  0
   62.5557   33.9636   47.8138 H   0  0  0  0  0  0  0  0  0  0  0  0
   62.8782   33.1253   46.2582 H   0  0  0  0  0  0  0  0  0  0  0  0
   62.2546   34.8099   46.2582 H   0  0  0  0  0  0  0  0  0  0  0  0
   61.2827   29.9026   48.4057 H   0  0  0  0  0  0  0  0  0  0  0  0
   60.4085   28.3135   48.2641 H   0  0  0  0  0  0  0  0  0  0  0  0
   60.2431   30.1843   45.9363 H   0  0  0  0  0  0  0  0  0  0  0  0
   61.8287   29.3555   46.2582 H   0  0  0  0  0  0  0  0  0  0  0  0
   60.6923   27.9168   44.7597 H   0  0  0  0  0  0  0  0  0  0  0  0
   60.4642   27.1804   46.3910 H   0  0  0  0  0  0  0  0  0  0  0  0
   58.4154   26.2180   46.6173 H   0  0  0  0  0  0  0  0  0  0  0  0
   54.8731   30.0433   43.9601 H   0  0  0  0  0  0  0  0  0  0  0  0
   56.1206   31.9544   42.9570 H   0  0  0  0  0  0  0  0  0  0  0  0
   58.6009   32.0755   43.1640 H   0  0  0  0  0  0  0  0  0  0  0  0
   59.8514   30.2879   44.3667 H   0  0  0  0  0  0  0  0  0  0  0  0
  1  2  1  0
  2  3  2  0
  3  4  1  0
  4  5  1  0
  4  6  2  0
  6  7  1  0
  7  8  1  0
  8  9  1  0
  9 10  1  0
 10 11  1  0
 11 12  1  0
 12 13  2  0
 13 14  1  0
 14 15  2  0
 14 16  1  0
 16 17  1  0
 17 18  2  0
 18 19  1  0
 19 20  2  0
 20 21  1  0
 21 22  2  0
  7 23  2  0
 23  2  1  0
 22 12  1  0
 22 17  1  0
  1 24  1  0
  1 25  1  0
  1 26  1  0
  3 27  1  0
  5 28  1  0
  5 29  1  0
  5 30  1  0
  9 31  1  0
  9 32  1  0
 10 33  1  0
 10 34  1  0
 11 35  1  0
 11 36  1  0
 13 37  1  0
 18 38  1  0
 19 39  1  0
 20 40  1  0
 21 41  1  0
M  END
>  <UniqueID>  (7) 
7

>  <SMILES>  (7) 
Cc1cc(C)nc(SCCCc2cc(=O)oc3ccccc23)n1

>  <Energy>  (7) 
38.760508973518654

>  <Genealogy>  (7) 
Cc1cc(C)nc(SCCCc2cc(=O)oc3ccccc23)n1 (3D coordinates assigned)
Cc1cc(C)nc(SCCCc2cc(=O)oc3ccccc23)n1 (optimized conformer: 38.760508973518654 kcal/mol)

>  <smiles>  (7) 
Cc1cc(C)nc(SCCCc2cc(=O)oc3ccccc23)n1

>  <score_type>  (7) 
oracle

>  <origin>  (7) 
adg

>  <m_score__min__energy>  (7) 
-8.0700000000000003

>  <m_primary>  (7) 
energy

$$$$
7:0
     RDKit          3D

 22 22  0  0  0  0  0  0  0  0999 V2000
   54.7570   28.9630   45.5730 H   0  0  0  0  0  0  0  0  0  0  0  0
   55.5150   29.0190   44.9010 O   0  0  0  0  0  0  0  0  0  0  0  0
   56.1080   30.2230   44.5830 N   0  0  0  0  0  0  0  0  0  0  0  0
   57.3900   30.3960   44.6620 C   0  0  0  0  0  0  0  0  0  0  0  0
   58.0640   29.5559   44.4387 H   0  0  0  0  0  0  0  0  0  0  0  0
   57.9610   31.7030   45.0470 C   0  0  0  0  0  0  0  0  0  0  0  0
   58.1360   32.7340   44.1120 C   0  0  0  0  0  0  0  0  0  0  0  0
   57.8504   32.5782   43.0612 H   0  0  0  0  0  0  0  0  0  0  0  0
   58.6720   33.9560   44.5150 C   0  0  0  0  0  0  0  0  0  0  0  0
   58.8077   34.7687   43.7862 H   0  0  0  0  0  0  0  0  0  0  0  0
   59.0350   34.1410   45.8490 C   0  0  0  0  0  0  0  0  0  0  0  0
   59.4515   35.1063   46.1725 H   0  0  0  0  0  0  0  0  0  0  0  0
   58.8770   33.1310   46.7580 N   0  0  0  0  0  0  0  0  0  0  0  0
   59.2390   33.3560   48.1630 C   0  0  0  0  0  0  0  0  0  0  0  0
   59.4335   32.3874   48.6467 H   0  0  0  0  0  0  0  0  0  0  0  0
   58.4078   33.8705   48.6674 H   0  0  0  0  0  0  0  0  0  0  0  0
   60.4890   34.2250   48.2580 C   0  0  0  0  0  0  0  0  0  0  0  0
   60.7364   34.3970   49.3159 H   0  0  0  0  0  0  0  0  0  0  0  0
   61.3287   33.7149   47.7633 H   0  0  0  0  0  0  0  0  0  0  0  0
   60.3033   35.1898   47.7633 H   0  0  0  0  0  0  0  0  0  0  0  0
   58.3410   31.9310   46.3780 C   0  0  0  0  0  0  0  0  0  0  0  0
   58.2064   31.1352   47.1253 H   0  0  0  0  0  0  0  0  0  0  0  0
  1  2  1  0
  2  3  1  0
  3  4  2  0
  4  5  1  0
  4  6  1  0
  6  7  2  0
  7  8  1  0
  7  9  1  0
  9 10  1  0
  9 11  2  0
 11 12  1  0
 11 13  1  0
 13 14  1  0
 14 15  1  0
 14 16  1  0
 14 17  1  0
 17 18  1  0
 17 19  1  0
 17 20  1  0
 13 21  2  0
 21 22  1  0
 21  6  1  0
M  CHG  1  13   1
M  END
>  <UniqueID>  (8) 
8

>  <SMILES>  (8) 
CC[n+]1cccc(/C=N/O)c1

>  <Energy>  (8) 
17.30938622083817

>  <Genealogy>  (8) 
CC[n+]1cccc(/C=N/O)c1 (cis-trans isomerization)
CC[n+]1cccc(/C=N/O)c1 (3D coordinates assigned)
CC[n+]1cccc(/C=N/O)c1 (optimized conformer: 17.30938622083817 kcal/mol)

>  <smiles>  (8) 
CC[n+]1cccc(C=NO)c1

>  <score_type>  (8) 
oracle

>  <origin>  (8) 
adg

>  <m_score__min__energy>  (8) 
-4.5300000000000002

>  <m_primary>  (8) 
energy

$$$$
8:0
     RDKit          3D

 41 42  0  0  1  0  0  0  0  0999 V2000
   60.2070   28.9440   44.9290 C   0  0  0  0  0  0  0  0  0  0  0  0
   59.5720   27.7070   45.4610 C   0  0  0  0  0  0  0  0  0  0  0  0
   58.5250   28.0230   46.5240 C   0  0  0  0  0  0  0  0  0  0  0  0
   59.2020   28.3760   47.7550 N   0  0  0  0  0  0  0  0  0  0  0  0
   60.2150   27.4790   48.2850 C   0  0  0  0  0  0  0  0  0  0  0  0
   58.8980   29.5800   48.4640 C   0  0  0  0  0  0  0  0  0  0  0  0
   58.5620   29.4960   49.6870 O   0  0  0  0  0  0  0  0  0  0  0  0
   58.9740   30.8660   47.7950 C   0  0  0  0  0  0  0  0  0  0  0  0
   59.5940   32.0140   48.2410 C   0  0  0  0  0  0  0  0  0  0  0  0
   59.4000   32.9980   47.2650 C   0  0  0  0  0  0  0  0  0  0  0  0
   59.7910   34.3180   47.1700 C   0  0  0  0  0  0  0  0  0  0  0  0
   59.4310   35.0300   46.0480 C   0  0  0  0  0  0  0  0  0  0  0  0
   58.6940   34.4330   45.0430 C   0  0  0  0  0  0  0  0  0  0  0  0
   58.2880   33.1180   45.1050 C   0  0  0  0  0  0  0  0  0  0  0  0
   57.5140   32.4600   44.0590 C   0  0  0  0  0  0  0  0  0  0  0  0
   57.7200   31.2410   43.6280 C   0  0  0  0  0  0  0  0  0  0  0  0
   56.9050   30.0740   43.8550 C   0  0  0  0  0  0  0  0  0  0  0  0
   56.8780   29.0600   42.8550 O   0  0  0  0  0  0  0  0  0  0  0  0
   56.1760   29.8200   44.8710 N   0  0  0  0  0  0  0  0  0  0  0  0
   55.5900   28.6400   45.0950 O   0  0  0  0  0  0  0  0  0  0  0  0
   58.6660   32.4210   46.2500 C   0  0  0  0  0  0  0  0  0  0  0  0
   58.4160   31.1250   46.5910 N   0  0  0  0  0  0  0  0  0  0  0  0
   60.5326   29.5784   45.7666 H   0  0  0  0  0  0  0  0  0  0  0  0
   61.0778   28.6736   44.3137 H   0  0  0  0  0  0  0  0  0  0  0  0
   59.4798   29.4940   44.3137 H   0  0  0  0  0  0  0  0  0  0  0  0
   59.0877   27.1700   44.6321 H   0  0  0  0  0  0  0  0  0  0  0  0
   60.3565   27.0909   45.9247 H   0  0  0  0  0  0  0  0  0  0  0  0
   57.9016   28.8656   46.1901 H   0  0  0  0  0  0  0  0  0  0  0  0
   57.8828   27.1453   46.6889 H   0  0  0  0  0  0  0  0  0  0  0  0
   60.1874   27.5034   49.3844 H   0  0  0  0  0  0  0  0  0  0  0  0
   60.0168   26.4549   47.9359 H   0  0  0  0  0  0  0  0  0  0  0  0
   61.2076   27.7997   47.9359 H   0  0  0  0  0  0  0  0  0  0  0  0
   60.1399   32.1341   49.1884 H   0  0  0  0  0  0  0  0  0  0  0  0
   60.3768   34.7904   47.9723 H   0  0  0  0  0  0  0  0  0  0  0  0
   59.7327   36.0833   45.9507 H   0  0  0  0  0  0  0  0  0  0  0  0
   58.4213   35.0302   44.1604 H   0  0  0  0  0  0  0  0  0  0  0  0
   56.6951   33.0310   43.5971 H   0  0  0  0  0  0  0  0  0  0  0  0
   58.6237   31.0892   43.0195 H   0  0  0  0  0  0  0  0  0  0  0  0
   56.3280   28.2140   42.9790 H   0  0  0  0  0  0  0  0  0  0  0  0
   55.9010   27.8460   44.5190 H   0  0  0  0  0  0  0  0  0  0  0  0
   57.8790   30.4350   46.0180 H   0  0  0  0  0  0  0  0  0  0  0  0
  1  2  1  0
  2  3  1  0
  3  4  1  0
  4  5  1  0
  4  6  1  0
  6  7  2  0
  6  8  1  0
  8  9  2  0
  9 10  1  0
 10 11  2  0
 11 12  1  0
 12 13  2  0
 13 14  1  0
 14 15  1  0
 15 16  2  0
 16 17  1  0
 17 18  1  0
 17 19  2  0
 19 20  1  0
 14 21  2  0
 21 22  1  0
 22  8  1  0
 21 10  1  0
  1 23  1  0
  1 24  1  0
  1 25  1  0
  2 26  1  0
  2 27  1  0
  3 28  1  0
  3 29  1  0
  5 30  1  0
  5 31  1  0
  5 32  1  0
  9 33  1  0
 11 34  1  0
 12 35  1  0
 13 36  1  0
 15 37  1  0
 16 38  1  0
 18 39  1  0
 20 40  1  0
 22 41  1  0
M  END
>  <smiles>  (9) 
CCCN(C)C(=O)c1cc2cccc(C=CC(O)=NO)c2[nH]1

>  <score_type>  (9) 
oracle

>  <origin>  (9) 
adg

>  <m_score__min__energy>  (9) 
-8.2899999999999991

>  <m_primary>  (9) 
energy

$$$$
9:0
     RDKit          3D

 30 31  0  0  0  0  0  0  0  0999 V2000
   61.8162   30.5402   50.1365 H   0  0  0  0  0  0  0  0  0  0  0  0
   61.2180   30.3510   49.2330 C   0  0  0  0  0  0  0  0  0  0  0  0
   59.8490   29.3820   49.1420 S   0  0  0  0  0  0  0  0  0  0  0  0
   59.5530   29.6130   47.5000 C   0  0  0  0  0  0  0  0  0  0  0  0
   58.4330   28.9990   46.7580 C   0  0  0  0  0  0  0  0  0  0  0  0
   57.6770   29.7840   45.9440 N   0  0  0  0  0  0  0  0  0  0  0  0
   56.6240   29.2820   45.2430 C   0  0  0  0  0  0  0  0  0  0  0  0
   55.9070   30.0460   44.4730 N   0  0  0  0  0  0  0  0  0  0  0  0
   56.2700   30.4630   43.1170 C   0  0  0  0  0  0  0  0  0  0  0  0
   55.4608   31.0836   42.7046 H   0  0  0  0  0  0  0  0  0  0  0  0
   56.4200   29.5609   42.5056 H   0  0  0  0  0  0  0  0  0  0  0  0
   57.5730   31.2730   43.1110 C   0  0  0  0  0  0  0  0  0  0  0  0
   57.6914   31.7400   42.1221 H   0  0  0  0  0  0  0  0  0  0  0  0
   58.3950   30.5776   43.3365 H   0  0  0  0  0  0  0  0  0  0  0  0
   57.5960   32.3690   44.1730 C   0  0  0  0  0  0  0  0  0  0  0  0
   57.5864   31.9108   45.1730 H   0  0  0  0  0  0  0  0  0  0  0  0
   58.5070   32.9742   44.0557 H   0  0  0  0  0  0  0  0  0  0  0  0
   56.7111   33.0119   44.0557 H   0  0  0  0  0  0  0  0  0  0  0  0
   56.3160   27.9640   45.3450 N   0  0  0  0  0  0  0  0  0  0  0  0
   57.0380   27.1290   46.1400 C   0  0  0  0  0  0  0  0  0  0  0  0
   56.6720   25.6770   46.2360 C   0  0  0  0  0  0  0  0  0  0  0  0
   55.3180   25.5230   46.0060 F   0  0  0  0  0  0  0  0  0  0  0  0
   56.9730   25.1820   47.4930 F   0  0  0  0  0  0  0  0  0  0  0  0
   57.3790   24.9570   45.2910 F   0  0  0  0  0  0  0  0  0  0  0  0
   58.1210   27.6370   46.8710 C   0  0  0  0  0  0  0  0  0  0  0  0
   58.7153   26.9786   47.5216 H   0  0  0  0  0  0  0  0  0  0  0  0
   60.5390   30.4630   47.0010 C   0  0  0  0  0  0  0  0  0  0  0  0
   60.5865   30.7817   45.9492 H   0  0  0  0  0  0  0  0  0  0  0  0
   61.4630   30.8710   47.9710 C   0  0  0  0  0  0  0  0  0  0  0  0
   62.3061   31.5426   47.7519 H   0  0  0  0  0  0  0  0  0  0  0  0
  1  2  1  0
  2  3  1  0
  3  4  1  0
  4  5  1  0
  5  6  2  0
  6  7  1  0
  7  8  2  0
  8  9  1  0
  9 10  1  0
  9 11  1  0
  9 12  1  0
 12 13  1  0
 12 14  1  0
 12 15  1  0
 15 16  1  0
 15 17  1  0
 15 18  1  0
  7 19  1  0
 19 20  1  0
 20 21  1  0
 21 22  1  0
 21 23  1  0
 21 24  1  0
 20 25  2  0
 25 26  1  0
  4 27  2  0
 27 28  1  0
 27 29  1  0
 29 30  1  0
 29  2  2  0
 25  5  1  0
M  CHG  1  19  -1
M  END
>  <UniqueID>  (10) 
9

>  <SMILES>  (10) 
CCC/N=c1\nc(-c2cccs2)cc(C(F)(F)F)[n-]1

>  <Energy>  (10) 
52.87662360711093

>  <Genealogy>  (10) 
CCCN=c1nc(-c2cccs2)cc(C(F)(F)F)[n-]1 (protonated)
CCC/N=c1\nc(-c2cccs2)cc(C(F)(F)F)[n-]1 (cis-trans isomerization)
CCC/N=c1\nc(-c2cccs2)cc(C(F)(F)F)[n-]1 (3D coordinates assigned)
CCC/N=c1\nc(-c2cccs2)cc(C(F)(F)F)[n-]1 (optimized conformer: 52.87662360711093 kcal/mol)

>  <smiles>  (10) 
CCCN=c1nc(-c2cccs2)cc(C(F)(F)F)[nH]1

>  <score_type>  (10) 
oracle

>  <origin>  (10) 
adg

>  <m_score__min__energy>  (10) 
-7.5099999999999998

>  <m_primary>  (10) 
energy

$$$$
10:0
     RDKit          3D

 35 37  0  0  0  0  0  0  0  0999 V2000
   57.7960   27.7460   47.2290 F   0  0  0  0  0  0  0  0  0  0  0  0
   58.8270   28.6250   47.1920 C   0  0  0  0  0  0  0  0  0  0  0  0
   59.1770   29.3300   48.3500 C   0  0  0  0  0  0  0  0  0  0  0  0
   60.2480   30.2250   48.3290 C   0  0  0  0  0  0  0  0  0  0  0  0
   60.9660   30.4270   47.1480 C   0  0  0  0  0  0  0  0  0  0  0  0
   60.6190   29.7290   45.9890 C   0  0  0  0  0  0  0  0  0  0  0  0
   59.5530   28.8060   46.0060 C   0  0  0  0  0  0  0  0  0  0  0  0
   59.2010   28.0370   44.8830 O   0  0  0  0  0  0  0  0  0  0  0  0
   57.9520   28.1150   44.1890 C   0  0  0  0  0  0  0  0  0  0  0  0
   57.4150   29.5140   44.2140 C   0  0  0  0  0  0  0  0  0  0  0  0
   58.0540   30.6420   43.7510 C   0  0  0  0  0  0  0  0  0  0  0  0
   57.3110   31.6830   44.1620 N   0  0  0  0  0  0  0  0  0  0  0  0
   57.7310   33.0790   44.1660 C   0  0  0  0  0  0  0  0  0  0  0  0
   58.4310   33.3780   45.4650 C   0  0  0  0  0  0  0  0  0  0  0  0
   59.4550   34.3390   45.5110 C   0  0  0  0  0  0  0  0  0  0  0  0
   60.0320   34.6950   46.7340 C   0  0  0  0  0  0  0  0  0  0  0  0
   59.5840   34.1040   47.9190 C   0  0  0  0  0  0  0  0  0  0  0  0
   58.5580   33.1580   47.8830 C   0  0  0  0  0  0  0  0  0  0  0  0
   57.9780   32.7970   46.6620 C   0  0  0  0  0  0  0  0  0  0  0  0
   56.2700   31.2160   44.8340 N   0  0  0  0  0  0  0  0  0  0  0  0
   56.3020   29.8910   44.8720 N   0  0  0  0  0  0  0  0  0  0  0  0
   58.6067   29.1782   49.2783 H   0  0  0  0  0  0  0  0  0  0  0  0
   60.5265   30.7711   49.2423 H   0  0  0  0  0  0  0  0  0  0  0  0
   61.8061   31.1369   47.1307 H   0  0  0  0  0  0  0  0  0  0  0  0
   61.1800   29.9001   45.0584 H   0  0  0  0  0  0  0  0  0  0  0  0
   58.1001   27.8043   43.1442 H   0  0  0  0  0  0  0  0  0  0  0  0
   57.2300   27.4515   44.6875 H   0  0  0  0  0  0  0  0  0  0  0  0
   58.9835   30.6826   43.1641 H   0  0  0  0  0  0  0  0  0  0  0  0
   58.4188   33.2593   43.3267 H   0  0  0  0  0  0  0  0  0  0  0  0
   56.8517   33.7313   44.0596 H   0  0  0  0  0  0  0  0  0  0  0  0
   59.8040   34.8130   44.5817 H   0  0  0  0  0  0  0  0  0  0  0  0
   60.8396   35.4412   46.7637 H   0  0  0  0  0  0  0  0  0  0  0  0
   60.0400   34.3844   48.8800 H   0  0  0  0  0  0  0  0  0  0  0  0
   58.2048   32.6955   48.8165 H   0  0  0  0  0  0  0  0  0  0  0  0
   57.1651   32.0563   46.6388 H   0  0  0  0  0  0  0  0  0  0  0  0
  1  2  1  0
  2  3  2  0
  3  4  1  0
  4  5  2  0
  5  6  1  0
  6  7  2  0
  7  8  1  0
  8  9  1  0
  9 10  1  0
 10 11  2  0
 11 12  1  0
 12 13  1  0
 13 14  1  0
 14 15  2  0
 15 16  1  0
 16 17  2  0
 17 18  1  0
 18 19  2  0
 12 20  1  0
 20 21  2  0
  7  2  1  0
 21 10  1  0
 19 14  1  0
  3 22  1  0
  4 23  1  0
  5 24  1  0
  6 25  1  0
  9 26  1  0
  9 27  1  0
 11 28  1  0
 13 29  1  0
 13 30  1  0
 15 31  1  0
 16 32  1  0
 17 33  1  0
 18 34  1  0
 19 35  1  0
M  END
>  <UniqueID>  (11) 
10

>  <SMILES>  (11) 
Fc1ccccc1OCc1cn(Cc2ccccc2)nn1

>  <Energy>  (11) 
69.11251268538845

>  <Genealogy>  (11) 
Fc1ccccc1OCc1cn(Cc2ccccc2)nn1 (3D coordinates assigned)
Fc1ccccc1OCc1cn(Cc2ccccc2)nn1 (optimized conformer: 69.11251268538845 kcal/mol)

>  <smiles>  (11) 
Fc1ccccc1OCc1cn(Cc2ccccc2)nn1

>  <score_type>  (11) 
oracle

>  <origin>  (11) 
adg

>  <m_score__min__energy>  (11) 
-7.9900000000000002

>  <m_primary>  (11) 
energy

$$$$
11:0
     RDKit          3D

 37 40  0  0  1  0  0  0  0  0999 V2000
   60.9790   30.9110   47.2040 O   0  0  0  0  0  0  0  0  0  0  0  0
   60.4170   32.0210   47.0050 C   0  0  0  0  0  0  0  0  0  0  0  0
   59.2590   32.1140   46.2260 C   0  0  0  0  0  0  0  0  0  0  0  0
   58.7130   30.9610   45.6580 C   0  0  0  0  0  0  0  0  0  0  0  0
   57.5680   31.0970   44.8980 C   0  0  0  0  0  0  0  0  0  0  0  0
   56.7930   29.7270   44.1370 S   0  0  0  0  0  0  0  0  0  0  0  0
   56.7230   29.9050   42.6430 O   0  0  0  0  0  0  0  0  0  0  0  0
   55.3880   29.6500   44.6410 O   0  0  0  0  0  0  0  0  0  0  0  0
   57.7050   28.3300   44.4790 N   0  0  0  0  0  0  0  0  0  0  0  0
   57.2210   27.4350   45.2700 C   0  0  0  0  0  0  0  0  0  0  0  0
   56.0120   27.0750   45.6620 N   0  0  0  0  0  0  0  0  0  0  0  0
   55.8810   26.1120   46.4850 N   0  0  0  0  0  0  0  0  0  0  0  0
   56.8170   25.4240   47.0030 C   0  0  0  0  0  0  0  0  0  0  0  0
   58.3520   26.2500   46.1950 S   0  0  0  0  0  0  0  0  0  0  0  0
   56.9770   32.3470   44.7020 C   0  0  0  0  0  0  0  0  0  0  0  0
   57.5020   33.4790   45.2500 C   0  0  0  0  0  0  0  0  0  0  0  0
   58.6470   33.3510   46.0140 C   0  0  0  0  0  0  0  0  0  0  0  0
   59.1910   34.4620   46.5730 N   0  0  0  0  0  0  0  0  0  0  0  0
   60.3130   34.3450   47.3230 C   0  0  0  0  0  0  0  0  0  0  0  0
   60.9120   33.1500   47.5330 N   0  0  0  0  0  0  0  0  0  0  0  0
   62.0800   33.1600   48.3350 C   0  0  0  0  0  0  0  0  0  0  0  0
   61.9220   33.2020   49.7200 C   0  0  0  0  0  0  0  0  0  0  0  0
   63.0050   33.2150   50.5790 C   0  0  0  0  0  0  0  0  0  0  0  0
   64.2940   33.1840   50.0430 C   0  0  0  0  0  0  0  0  0  0  0  0
   65.3870   33.1960   50.8530 F   0  0  0  0  0  0  0  0  0  0  0  0
   64.4510   33.1420   48.6690 C   0  0  0  0  0  0  0  0  0  0  0  0
   63.3630   33.1300   47.8020 C   0  0  0  0  0  0  0  0  0  0  0  0
   59.1797   29.9767   45.8109 H   0  0  0  0  0  0  0  0  0  0  0  0
   55.1500   27.6040   45.2740 H   0  0  0  0  0  0  0  0  0  0  0  0
   56.7627   24.5880   47.7158 H   0  0  0  0  0  0  0  0  0  0  0  0
   56.0656   32.4197   44.0904 H   0  0  0  0  0  0  0  0  0  0  0  0
   57.0311   34.4602   45.0900 H   0  0  0  0  0  0  0  0  0  0  0  0
   60.7499   35.2479   47.7745 H   0  0  0  0  0  0  0  0  0  0  0  0
   60.9061   33.2255   50.1411 H   0  0  0  0  0  0  0  0  0  0  0  0
   62.8537   33.2492   51.6680 H   0  0  0  0  0  0  0  0  0  0  0  0
   65.4674   33.1173   48.2492 H   0  0  0  0  0  0  0  0  0  0  0  0
   63.5158   33.0973   46.7131 H   0  0  0  0  0  0  0  0  0  0  0  0
  1  2  2  0
  2  3  1  0
  3  4  2  0
  4  5  1  0
  5  6  1  0
  6  7  2  0
  6  8  2  0
  6  9  1  0
  9 10  2  0
 10 11  1  0
 11 12  1  0
 12 13  2  0
 13 14  1  0
  5 15  2  0
 15 16  1  0
 16 17  2  0
 17 18  1  0
 18 19  2  0
 19 20  1  0
 20 21  1  0
 21 22  2  0
 22 23  1  0
 23 24  2  0
 24 25  1  0
 24 26  1  0
 26 27  2  0
 20  2  1  0
 27 21  1  0
 17  3  1  0
 14 10  1  0
  4 28  1  0
 11 29  1  0
 13 30  1  0
 15 31  1  0
 16 32  1  0
 19 33  1  0
 22 34  1  0
 23 35  1  0
 26 36  1  0
 27 37  1  0
M  END
>  <smiles>  (12) 
O=c1c2cc(S(=O)(=O)N=c3[nH]ncs3)ccc2ncn1-c1ccc(F)cc1

>  <score_type>  (12) 
oracle

>  <origin>  (12) 
adg

>  <m_score__min__energy>  (12) 
-10.050000000000001

>  <m_primary>  (12) 
energy

$$$$
12:0
     RDKit          3D

 52 55  0  0  0  0  0  0  0  0999 V2000
   59.6120   22.3740   44.8750 C   0  0  0  0  0  0  0  0  0  0  0  0
   59.3420   23.7300   45.5170 C   0  0  0  0  0  0  0  0  0  0  0  0
   57.9000   23.9170   45.7340 N   0  0  0  0  0  0  0  0  0  0  0  0
   57.0810   22.8230   45.8840 C   0  0  0  0  0  0  0  0  0  0  0  0
   55.6790   22.9670   46.0690 C   0  0  0  0  0  0  0  0  0  0  0  0
   54.8380   21.7550   46.2340 C   0  0  0  0  0  0  0  0  0  0  0  0
   55.2540   20.7600   46.8850 O   0  0  0  0  0  0  0  0  0  0  0  0
   53.5690   21.6990   45.6680 O   0  0  0  0  0  0  0  0  0  0  0  0
   55.1260   24.2720   46.0830 C   0  0  0  0  0  0  0  0  0  0  0  0
   53.8910   24.4710   46.2390 O   0  0  0  0  0  0  0  0  0  0  0  0
   55.9910   25.3480   45.9150 C   0  0  0  0  0  0  0  0  0  0  0  0
   55.6830   26.6560   45.8730 N   0  0  0  0  0  0  0  0  0  0  0  0
   56.8570   27.3030   45.6710 C   0  0  0  0  0  0  0  0  0  0  0  0
   56.9860   28.7970   45.5330 C   0  0  0  0  0  0  0  0  0  0  0  0
   56.2930   29.2990   44.2570 C   0  0  0  0  0  0  0  0  0  0  0  0
   56.3910   30.8370   44.1310 C   0  0  0  0  0  0  0  0  0  0  0  0
   57.4340   31.4170   45.0090 N   0  0  0  0  0  0  0  0  0  0  0  0
   57.6760   32.8290   44.6530 C   0  0  0  0  0  0  0  0  0  0  0  0
   58.4320   33.5260   45.7550 C   0  0  0  0  0  0  0  0  0  0  0  0
   59.2130   34.6600   45.4810 C   0  0  0  0  0  0  0  0  0  0  0  0
   59.9230   35.2910   46.5090 C   0  0  0  0  0  0  0  0  0  0  0  0
   59.8570   34.7920   47.8140 C   0  0  0  0  0  0  0  0  0  0  0  0
   59.0830   33.6620   48.0920 C   0  0  0  0  0  0  0  0  0  0  0  0
   58.3730   33.0290   47.0670 C   0  0  0  0  0  0  0  0  0  0  0  0
   58.6780   30.6230   44.9320 C   0  0  0  0  0  0  0  0  0  0  0  0
   58.4690   29.2280   45.5530 C   0  0  0  0  0  0  0  0  0  0  0  0
   57.9140   26.4000   45.5800 C   0  0  0  0  0  0  0  0  0  0  0  0
   57.3320   25.1580   45.7430 C   0  0  0  0  0  0  0  0  0  0  0  0
   59.7622   21.6195   45.6612 H   0  0  0  0  0  0  0  0  0  0  0  0
   58.7534   22.0866   44.2503 H   0  0  0  0  0  0  0  0  0  0  0  0
   60.5152   22.4374   44.2503 H   0  0  0  0  0  0  0  0  0  0  0  0
   59.8638   23.7835   46.4839 H   0  0  0  0  0  0  0  0  0  0  0  0
   59.7071   24.5213   44.8458 H   0  0  0  0  0  0  0  0  0  0  0  0
   57.5200   21.8147   45.8603 H   0  0  0  0  0  0  0  0  0  0  0  0
   54.7340   27.0820   45.9650 H   0  0  0  0  0  0  0  0  0  0  0  0
   56.4824   29.2564   46.3963 H   0  0  0  0  0  0  0  0  0  0  0  0
   56.7742   28.8367   43.3826 H   0  0  0  0  0  0  0  0  0  0  0  0
   55.2296   29.0224   44.3083 H   0  0  0  0  0  0  0  0  0  0  0  0
   56.6288   31.0902   43.0873 H   0  0  0  0  0  0  0  0  0  0  0  0
   55.4234   31.2583   44.4413 H   0  0  0  0  0  0  0  0  0  0  0  0
   58.2651   32.8731   43.7251 H   0  0  0  0  0  0  0  0  0  0  0  0
   56.7083   33.3321   44.5103 H   0  0  0  0  0  0  0  0  0  0  0  0
   59.2671   35.0538   44.4553 H   0  0  0  0  0  0  0  0  0  0  0  0
   60.5332   36.1798   46.2905 H   0  0  0  0  0  0  0  0  0  0  0  0
   60.4144   35.2890   48.6216 H   0  0  0  0  0  0  0  0  0  0  0  0
   59.0323   33.2700   49.1185 H   0  0  0  0  0  0  0  0  0  0  0  0
   57.7663   32.1388   47.2892 H   0  0  0  0  0  0  0  0  0  0  0  0
   58.9700   30.5095   43.8776 H   0  0  0  0  0  0  0  0  0  0  0  0
   59.4682   31.1458   45.4909 H   0  0  0  0  0  0  0  0  0  0  0  0
   59.0588   28.4947   44.9835 H   0  0  0  0  0  0  0  0  0  0  0  0
   58.7934   29.2737   46.6031 H   0  0  0  0  0  0  0  0  0  0  0  0
   58.9777   26.6263   45.4148 H   0  0  0  0  0  0  0  0  0  0  0  0
  1  2  1  0
  2  3  1  0
  3  4  1  0
  4  5  2  0
  5  6  1  0
  6  7  2  0
  6  8  1  0
  5  9  1  0
  9 10  2  0
  9 11  1  0
 11 12  1  0
 12 13  1  0
 13 14  1  0
 14 15  1  0
 15 16  1  0
 16 17  1  0
 17 18  1  0
 18 19  1  0
 19 20  2  0
 20 21  1  0
 21 22  2  0
 22 23  1  0
 23 24  2  0
 17 25  1  0
 25 26  1  0
 13 27  2  0
 27 28  1  0
 28  3  1  0
 28 11  2  0
 26 14  1  0
 24 19  1  0
  1 29  1  0
  1 30  1  0
  1 31  1  0
  2 32  1  0
  2 33  1  0
  4 34  1  0
 12 35  1  0
 14 36  1  0
 15 37  1  0
 15 38  1  0
 16 39  1  0
 16 40  1  0
 18 41  1  0
 18 42  1  0
 20 43  1  0
 21 44  1  0
 22 45  1  0
 23 46  1  0
 24 47  1  0
 25 48  1  0
 25 49  1  0
 26 50  1  0
 26 51  1  0
 27 52  1  0
M  CHG  1   8  -1
M  END
>  <UniqueID>  (13) 
11

>  <SMILES>  (13) 
CCn1cc(C(=O)[O-])c(=O)c2[nH]c(C3CCN(Cc4ccccc4)CC3)cc21

>  <Energy>  (13) 
94.32848228388151

>  <Genealogy>  (13) 
CCn1cc(C(=O)[O-])c(=O)c2[nH]c(C3CCN(Cc4ccccc4)CC3)cc21 (protonated)
CCn1cc(C(=O)[O-])c(=O)c2[nH]c(C3CCN(Cc4ccccc4)CC3)cc21 (3D coordinates assigned)
CCn1cc(C(=O)[O-])c(=O)c2[nH]c(C3CCN(Cc4ccccc4)CC3)cc21 (nonaromatic ring conformer: 94.32848228388151 kcal/mol)

>  <smiles>  (13) 
CCn1cc(C(=O)O)c(=O)c2[nH]c(C3CCN(Cc4ccccc4)CC3)cc21

>  <score_type>  (13) 
oracle

>  <origin>  (13) 
adg

>  <m_score__min__energy>  (13) 
-10.789999999999999

>  <m_primary>  (13) 
energy

$$$$
13:0
     RDKit          3D

 41 44  0  0  1  0  0  0  0  0999 V2000
   60.2750   34.5550   48.7090 C   0  0  0  0  0  0  0  0  0  0  0  0
   59.6300   34.8850   47.4890 O   0  0  0  0  0  0  0  0  0  0  0  0
   59.0980   33.9060   46.6450 C   0  0  0  0  0  0  0  0  0  0  0  0
   58.6740   32.6920   47.1660 C   0  0  0  0  0  0  0  0  0  0  0  0
   58.1440   31.7200   46.3270 C   0  0  0  0  0  0  0  0  0  0  0  0
   58.0360   31.9460   44.9810 C   0  0  0  0  0  0  0  0  0  0  0  0
   57.4850   30.9550   44.0420 C   0  0  0  0  0  0  0  0  0  0  0  0
   56.6910   31.1930   42.9650 N   0  0  0  0  0  0  0  0  0  0  0  0
   56.4030   30.0430   42.3730 N   0  0  0  0  0  0  0  0  0  0  0  0
   57.0060   29.0300   43.0530 C   0  0  0  0  0  0  0  0  0  0  0  0
   57.6970   29.5730   44.1140 C   0  0  0  0  0  0  0  0  0  0  0  0
   58.5230   28.9510   45.1290 C   0  0  0  0  0  0  0  0  0  0  0  0
   58.2880   27.7740   45.6700 C   0  0  0  0  0  0  0  0  0  0  0  0
   59.4730   26.6780   46.5010 S   0  0  0  0  0  0  0  0  0  0  0  0
   58.4500   25.2190   46.1610 C   0  0  0  0  0  0  0  0  0  0  0  0
   58.8430   23.9950   46.0670 N   0  0  0  0  0  0  0  0  0  0  0  0
   57.1320   25.7180   46.0230 N   0  0  0  0  0  0  0  0  0  0  0  0
   55.9950   24.8220   46.1550 C   0  0  0  0  0  0  0  0  0  0  0  0
   54.7880   25.1550   45.6620 N   0  0  0  0  0  0  0  0  0  0  0  0
   53.7850   24.2740   45.8260 C   0  0  0  0  0  0  0  0  0  0  0  0
   53.9720   23.0530   46.4830 C   0  0  0  0  0  0  0  0  0  0  0  0
   55.2410   22.7460   46.9790 C   0  0  0  0  0  0  0  0  0  0  0  0
   56.2250   23.6510   46.7980 N   0  0  0  0  0  0  0  0  0  0  0  0
   57.0300   27.0660   45.7640 C   0  0  0  0  0  0  0  0  0  0  0  0
   55.9130   27.6850   45.6120 O   0  0  0  0  0  0  0  0  0  0  0  0
   58.4630   33.1700   44.4520 C   0  0  0  0  0  0  0  0  0  0  0  0
   58.9900   34.1420   45.2790 C   0  0  0  0  0  0  0  0  0  0  0  0
   59.6478   34.8759   49.5538 H   0  0  0  0  0  0  0  0  0  0  0  0
   60.4295   33.4671   48.7595 H   0  0  0  0  0  0  0  0  0  0  0  0
   61.2477   35.0662   48.7595 H   0  0  0  0  0  0  0  0  0  0  0  0
   58.7577   32.4988   48.2457 H   0  0  0  0  0  0  0  0  0  0  0  0
   57.8083   30.7606   46.7476 H   0  0  0  0  0  0  0  0  0  0  0  0
   55.7990   29.9320   41.5050 H   0  0  0  0  0  0  0  0  0  0  0  0
   56.9511   27.9611   42.7991 H   0  0  0  0  0  0  0  0  0  0  0  0
   59.4108   29.5022   45.4725 H   0  0  0  0  0  0  0  0  0  0  0  0
   58.1870   23.2140   46.0100 H   0  0  0  0  0  0  0  0  0  0  0  0
   52.7881   24.5208   45.4319 H   0  0  0  0  0  0  0  0  0  0  0  0
   53.1361   22.3487   46.6065 H   0  0  0  0  0  0  0  0  0  0  0  0
   55.4321   21.7966   47.5006 H   0  0  0  0  0  0  0  0  0  0  0  0
   58.3782   33.3583   43.3716 H   0  0  0  0  0  0  0  0  0  0  0  0
   59.3239   35.1017   44.8578 H   0  0  0  0  0  0  0  0  0  0  0  0
  1  2  1  0
  2  3  1  0
  3  4  2  0
  4  5  1  0
  5  6  2  0
  6  7  1  0
  7  8  2  0
  8  9  1  0
  9 10  1  0
 10 11  2  0
 11 12  1  0
 12 13  2  0
 13 14  1  0
 14 15  1  0
 15 16  2  3
 15 17  1  0
 17 18  1  0
 18 19  2  0
 19 20  1  0
 20 21  2  0
 21 22  1  0
 22 23  2  0
 17 24  1  0
 24 25  2  0
  6 26  1  0
 26 27  2  0
 27  3  1  0
 11  7  1  0
 24 13  1  0
 23 18  1  0
  1 28  1  0
  1 29  1  0
  1 30  1  0
  4 31  1  0
  5 32  1  0
  9 33  1  0
 10 34  1  0
 12 35  1  0
 16 36  1  0
 20 37  1  0
 21 38  1  0
 22 39  1  0
 26 40  1  0
 27 41  1  0
M  END
>  <smiles>  (14) 
COc1ccc(-c2n[nH]cc2C=C2SC(=N)N(c3ncccn3)C2=O)cc1

>  <score_type>  (14) 
oracle

>  <origin>  (14) 
adg

>  <m_score__min__energy>  (14) 
-8.6199999999999992

>  <m_primary>  (14) 
energy

$$$$
14:0
     RDKit          3D

 28 29  0  0  0  0  0  0  0  0999 V2000
   57.7710   32.8530   43.4140 O   0  0  0  0  0  0  0  0  0  0  0  0
   57.4660   32.5720   44.6020 C   0  0  0  0  0  0  0  0  0  0  0  0
   56.3940   31.6510   44.8400 N   0  0  0  0  0  0  0  0  0  0  0  0
   56.3640   29.9990   44.3020 S   0  0  0  0  0  0  0  0  0  0  0  0
   55.1410   29.3250   44.8570 O   0  0  0  0  0  0  0  0  0  0  0  0
   56.2990   29.9660   42.8010 O   0  0  0  0  0  0  0  0  0  0  0  0
   57.7850   29.1370   44.8860 C   0  0  0  0  0  0  0  0  0  0  0  0
   59.0770   29.5720   44.5490 C   0  0  0  0  0  0  0  0  0  0  0  0
   60.1960   28.9120   45.0660 C   0  0  0  0  0  0  0  0  0  0  0  0
   60.0320   27.8150   45.9160 C   0  0  0  0  0  0  0  0  0  0  0  0
   58.7490   27.3740   46.2480 C   0  0  0  0  0  0  0  0  0  0  0  0
   57.6270   28.0320   45.7330 C   0  0  0  0  0  0  0  0  0  0  0  0
   58.2050   33.2170   45.7030 C   0  0  0  0  0  0  0  0  0  0  0  0
   58.1800   32.6530   46.9890 C   0  0  0  0  0  0  0  0  0  0  0  0
   58.9080   33.2390   48.0280 C   0  0  0  0  0  0  0  0  0  0  0  0
   59.6500   34.4010   47.7950 C   0  0  0  0  0  0  0  0  0  0  0  0
   60.3580   34.9660   48.8040 F   0  0  0  0  0  0  0  0  0  0  0  0
   59.6570   34.9830   46.5250 C   0  0  0  0  0  0  0  0  0  0  0  0
   58.9340   34.3960   45.4810 C   0  0  0  0  0  0  0  0  0  0  0  0
   59.2089   30.4331   43.8774 H   0  0  0  0  0  0  0  0  0  0  0  0
   61.2070   29.2568   44.8032 H   0  0  0  0  0  0  0  0  0  0  0  0
   60.9136   27.2987   46.3237 H   0  0  0  0  0  0  0  0  0  0  0  0
   58.6207   26.5087   46.9149 H   0  0  0  0  0  0  0  0  0  0  0  0
   56.6177   27.6809   45.9938 H   0  0  0  0  0  0  0  0  0  0  0  0
   57.5855   31.7472   47.1790 H   0  0  0  0  0  0  0  0  0  0  0  0
   58.8973   32.7856   49.0302 H   0  0  0  0  0  0  0  0  0  0  0  0
   60.2316   35.9037   46.3457 H   0  0  0  0  0  0  0  0  0  0  0  0
   58.9367   34.8596   44.4834 H   0  0  0  0  0  0  0  0  0  0  0  0
  1  2  2  0
  2  3  1  0
  3  4  1  0
  4  5  2  0
  4  6  2  0
  4  7  1  0
  7  8  2  0
  8  9  1  0
  9 10  2  0
 10 11  1  0
 11 12  2  0
  2 13  1  0
 13 14  2  0
 14 15  1  0
 15 16  2  0
 16 17  1  0
 16 18  1  0
 18 19  2  0
 12  7  1  0
 19 13  1  0
  8 20  1  0
  9 21  1  0
 10 22  1  0
 11 23  1  0
 12 24  1  0
 14 25  1  0
 15 26  1  0
 18 27  1  0
 19 28  1  0
M  CHG  1   3  -1
M  END
>  <UniqueID>  (15) 
12

>  <SMILES>  (15) 
O=C([N-]S(=O)(=O)c1ccccc1)c1ccc(F)cc1

>  <Energy>  (15) 
34.409746636915415

>  <Genealogy>  (15) 
O=C([N-]S(=O)(=O)c1ccccc1)c1ccc(F)cc1 (protonated)
O=C([N-]S(=O)(=O)c1ccccc1)c1ccc(F)cc1 (3D coordinates assigned)
O=C([N-]S(=O)(=O)c1ccccc1)c1ccc(F)cc1 (optimized conformer: 34.409746636915415 kcal/mol)

>  <smiles>  (15) 
O=C(NS(=O)(=O)c1ccccc1)c1ccc(F)cc1

>  <score_type>  (15) 
oracle

>  <origin>  (15) 
adg

>  <m_score__min__energy>  (15) 
-8.9600000000000009

>  <m_primary>  (15) 
energy

$$$$
15:0
     RDKit          3D

 56 59  0  0  0  0  0  0  0  0999 V2000
   57.2230   21.0470   42.6630 C   0  0  0  0  0  0  0  0  0  0  0  0
   56.2650   21.4640   43.6290 O   0  0  0  0  0  0  0  0  0  0  0  0
   56.2040   20.9920   44.9510 C   0  0  0  0  0  0  0  0  0  0  0  0
   56.1980   19.6120   45.2440 C   0  0  0  0  0  0  0  0  0  0  0  0
   56.1550   19.1710   46.5680 C   0  0  0  0  0  0  0  0  0  0  0  0
   56.1140   20.0930   47.6140 C   0  0  0  0  0  0  0  0  0  0  0  0
   56.1150   21.4630   47.3380 C   0  0  0  0  0  0  0  0  0  0  0  0
   56.1650   21.9220   46.0120 C   0  0  0  0  0  0  0  0  0  0  0  0
   56.1410   23.3760   45.7420 C   0  0  0  0  0  0  0  0  0  0  0  0
   55.1950   24.2750   46.2120 C   0  0  0  0  0  0  0  0  0  0  0  0
   55.5910   25.5140   45.7540 C   0  0  0  0  0  0  0  0  0  0  0  0
   54.9200   26.7060   46.0040 O   0  0  0  0  0  0  0  0  0  0  0  0
   56.7220   25.4260   45.0280 N   0  0  0  0  0  0  0  0  0  0  0  0
   57.4240   26.5300   44.3710 C   0  0  0  0  0  0  0  0  0  0  0  0
   58.3440   27.1870   45.3200 N   0  0  0  0  0  0  0  0  0  0  0  0
   59.3770   27.9750   44.5960 C   0  0  0  0  0  0  0  0  0  0  0  0
   59.8590   29.1900   45.3910 C   0  0  0  0  0  0  0  0  0  0  0  0
   58.7070   30.0380   45.7000 N   0  0  0  0  0  0  0  0  0  0  0  0
   58.8140   31.4680   45.6260 C   0  0  0  0  0  0  0  0  0  0  0  0
   59.4290   32.1730   46.6700 C   0  0  0  0  0  0  0  0  0  0  0  0
   59.5430   33.5630   46.6110 C   0  0  0  0  0  0  0  0  0  0  0  0
   59.0390   34.2590   45.5100 C   0  0  0  0  0  0  0  0  0  0  0  0
   58.4190   33.5670   44.4670 C   0  0  0  0  0  0  0  0  0  0  0  0
   58.2950   32.1640   44.5170 C   0  0  0  0  0  0  0  0  0  0  0  0
   57.6590   31.4350   43.4990 O   0  0  0  0  0  0  0  0  0  0  0  0
   57.4530   31.9110   42.1730 C   0  0  0  0  0  0  0  0  0  0  0  0
   57.4280   29.4200   46.0560 C   0  0  0  0  0  0  0  0  0  0  0  0
   57.6170   27.9310   46.3810 C   0  0  0  0  0  0  0  0  0  0  0  0
   57.0610   24.1220   45.0140 C   0  0  0  0  0  0  0  0  0  0  0  0
   58.1630   23.6200   44.3220 O   0  0  0  0  0  0  0  0  0  0  0  0
   58.1154   20.6586   43.1756 H   0  0  0  0  0  0  0  0  0  0  0  0
   56.7886   20.2565   42.0333 H   0  0  0  0  0  0  0  0  0  0  0  0
   57.5055   21.9036   42.0333 H   0  0  0  0  0  0  0  0  0  0  0  0
   56.2274   18.8790   44.4243 H   0  0  0  0  0  0  0  0  0  0  0  0
   56.1534   18.0930   46.7870 H   0  0  0  0  0  0  0  0  0  0  0  0
   56.0809   19.7418   48.6559 H   0  0  0  0  0  0  0  0  0  0  0  0
   56.0763   22.1868   48.1654 H   0  0  0  0  0  0  0  0  0  0  0  0
   54.3103   24.0465   46.8245 H   0  0  0  0  0  0  0  0  0  0  0  0
   57.9995   26.1387   43.5191 H   0  0  0  0  0  0  0  0  0  0  0  0
   56.6857   27.2659   44.0198 H   0  0  0  0  0  0  0  0  0  0  0  0
   60.2392   27.3226   44.3935 H   0  0  0  0  0  0  0  0  0  0  0  0
   58.9202   28.3464   43.6668 H   0  0  0  0  0  0  0  0  0  0  0  0
   60.3335   28.8559   46.3255 H   0  0  0  0  0  0  0  0  0  0  0  0
   60.5927   29.7570   44.7993 H   0  0  0  0  0  0  0  0  0  0  0  0
   59.8238   31.6281   47.5402 H   0  0  0  0  0  0  0  0  0  0  0  0
   60.0298   34.1102   47.4317 H   0  0  0  0  0  0  0  0  0  0  0  0
   59.1305   35.3542   45.4641 H   0  0  0  0  0  0  0  0  0  0  0  0
   58.0253   34.1203   43.6016 H   0  0  0  0  0  0  0  0  0  0  0  0
   57.0163   32.9200   42.2093 H   0  0  0  0  0  0  0  0  0  0  0  0
   58.4160   31.9471   41.6426 H   0  0  0  0  0  0  0  0  0  0  0  0
   56.7675   31.2337   41.6426 H   0  0  0  0  0  0  0  0  0  0  0  0
   57.0122   29.9319   46.9364 H   0  0  0  0  0  0  0  0  0  0  0  0
   56.7410   29.5113   45.2018 H   0  0  0  0  0  0  0  0  0  0  0  0
   58.1859   27.8475   47.3187 H   0  0  0  0  0  0  0  0  0  0  0  0
   56.6148   27.4852   46.4641 H   0  0  0  0  0  0  0  0  0  0  0  0
   58.1240   22.7420   43.8200 H   0  0  0  0  0  0  0  0  0  0  0  0
  1  2  1  0
  2  3  1  0
  3  4  2  0
  4  5  1  0
  5  6  2  0
  6  7  1  0
  7  8  2  0
  8  9  1  0
  9 10  1  0
 10 11  2  0
 11 12  1  0
 11 13  1  0
 13 14  1  0
 14 15  1  0
 15 16  1  0
 16 17  1  0
 17 18  1  0
 18 19  1  0
 19 20  2  0
 20 21  1  0
 21 22  2  0
 22 23  1  0
 23 24  2  0
 24 25  1  0
 25 26  1  0
 18 27  1  0
 27 28  1  0
 13 29  1  0
 29 30  1  0
  8  3  1  0
 29  9  2  0
 28 15  1  0
 24 19  1  0
  1 31  1  0
  1 32  1  0
  1 33  1  0
  4 34  1  0
  5 35  1  0
  6 36  1  0
  7 37  1  0
 10 38  1  0
 14 39  1  0
 14 40  1  0
 16 41  1  0
 16 42  1  0
 17 43  1  0
 17 44  1  0
 20 45  1  0
 21 46  1  0
 22 47  1  0
 23 48  1  0
 26 49  1  0
 26 50  1  0
 26 51  1  0
 27 52  1  0
 27 53  1  0
 28 54  1  0
 28 55  1  0
 30 56  1  0
M  CHG  1  12  -1
M  END
>  <UniqueID>  (16) 
13

>  <SMILES>  (16) 
COc1ccccc1-c1cc([O-])n(CN2CCN(c3ccccc3OC)CC2)c1O

>  <Energy>  (16) 
103.87187430409507

>  <Genealogy>  (16) 
COc1ccccc1-c1cc([O-])n(CN2CCN(c3ccccc3OC)CC2)c1O (protonated)
COc1ccccc1-c1cc([O-])n(CN2CCN(c3ccccc3OC)CC2)c1O (3D coordinates assigned)
COc1ccccc1-c1cc([O-])n(CN2CCN(c3ccccc3OC)CC2)c1O (nonaromatic ring conformer: 103.87187430409507 kcal/mol)

>  <smiles>  (16) 
COc1ccccc1-c1cc(O)n(CN2CCN(c3ccccc3OC)CC2)c1O

>  <score_type>  (16) 
oracle

>  <origin>  (16) 
adg

>  <m_score__min__energy>  (16) 
-10.74

>  <m_primary>  (16) 
energy

$$$$
16:0
     RDKit          3D

 28 29  0  0  0  0  0  0  0  0999 V2000
   57.7640   27.2140   42.5590 N   0  0  0  0  0  0  0  0  0  0  0  0
   58.2800   27.5680   43.8800 C   0  0  0  0  0  0  0  0  0  0  0  0
   57.9730   29.0080   44.2030 C   0  0  0  0  0  0  0  0  0  0  0  0
   58.8460   29.7540   45.0100 C   0  0  0  0  0  0  0  0  0  0  0  0
   58.5440   31.0790   45.3390 C   0  0  0  0  0  0  0  0  0  0  0  0
   57.3670   31.6750   44.8640 C   0  0  0  0  0  0  0  0  0  0  0  0
   57.0190   33.0850   45.2560 C   0  0  0  0  0  0  0  0  0  0  0  0
   58.1910   33.7470   45.8220 N   0  0  0  0  0  0  0  0  0  0  0  0
   59.1170   34.4560   45.1580 C   0  0  0  0  0  0  0  0  0  0  0  0
   59.9960   34.9720   46.0830 C   0  0  0  0  0  0  0  0  0  0  0  0
   59.6170   34.6000   47.3240 N   0  0  0  0  0  0  0  0  0  0  0  0
   58.5070   33.8570   47.1260 C   0  0  0  0  0  0  0  0  0  0  0  0
   56.4790   30.9200   44.0820 C   0  0  0  0  0  0  0  0  0  0  0  0
   56.7810   29.5960   43.7530 C   0  0  0  0  0  0  0  0  0  0  0  0
   58.2050   26.3240   42.2280 H   0  0  0  0  0  0  0  0  0  0  0  0
   57.9640   27.9830   41.8790 H   0  0  0  0  0  0  0  0  0  0  0  0
   56.7300   27.0760   42.6200 H   0  0  0  0  0  0  0  0  0  0  0  0
   57.8118   26.9205   44.6360 H   0  0  0  0  0  0  0  0  0  0  0  0
   59.3713   27.4297   43.8824 H   0  0  0  0  0  0  0  0  0  0  0  0
   59.7721   29.2942   45.3854 H   0  0  0  0  0  0  0  0  0  0  0  0
   59.2328   31.6564   45.9732 H   0  0  0  0  0  0  0  0  0  0  0  0
   56.6815   33.6380   44.3670 H   0  0  0  0  0  0  0  0  0  0  0  0
   56.2163   33.0643   46.0079 H   0  0  0  0  0  0  0  0  0  0  0  0
   59.1650   34.5993   44.0684 H   0  0  0  0  0  0  0  0  0  0  0  0
   60.8731   35.5925   45.8471 H   0  0  0  0  0  0  0  0  0  0  0  0
   57.9269   33.3942   47.9379 H   0  0  0  0  0  0  0  0  0  0  0  0
   55.5414   31.3725   43.7267 H   0  0  0  0  0  0  0  0  0  0  0  0
   56.0807   29.0116   43.1381 H   0  0  0  0  0  0  0  0  0  0  0  0
  1  2  1  0
  2  3  1  0
  3  4  2  0
  4  5  1  0
  5  6  2  0
  6  7  1  0
  7  8  1  0
  8  9  1  0
  9 10  2  0
 10 11  1  0
 11 12  2  0
  6 13  1  0
 13 14  2  0
 14  3  1  0
 12  8  1  0
  1 15  1  0
  1 16  1  0
  1 17  1  0
  2 18  1  0
  2 19  1  0
  4 20  1  0
  5 21  1  0
  7 22  1  0
  7 23  1  0
  9 24  1  0
 10 25  1  0
 12 26  1  0
 13 27  1  0
 14 28  1  0
M  CHG  1   1   1
M  END
>  <UniqueID>  (17) 
14

>  <SMILES>  (17) 
[NH3+]Cc1ccc(Cn2ccnc2)cc1

>  <Energy>  (17) 
53.57069002854613

>  <Genealogy>  (17) 
[NH3+]Cc1ccc(Cn2ccnc2)cc1 (protonated)
[NH3+]Cc1ccc(Cn2ccnc2)cc1 (3D coordinates assigned)
[NH3+]Cc1ccc(Cn2ccnc2)cc1 (optimized conformer: 53.57069002854613 kcal/mol)

>  <smiles>  (17) 
NCc1ccc(Cn2ccnc2)cc1

>  <score_type>  (17) 
oracle

>  <origin>  (17) 
adg

>  <m_score__min__energy>  (17) 
-4.1399999999999997

>  <m_primary>  (17) 
energy

$$$$
17:0
     RDKit          3D

 29 30  0  0  0  0  0  0  0  0999 V2000
   59.2408   27.5295   44.5387 H   0  0  0  0  0  0  0  0  0  0  0  0
   58.5810   28.3890   44.7280 C   0  0  0  0  0  0  0  0  0  0  0  0
   58.8490   29.9740   44.2240 S   0  0  0  0  0  0  0  0  0  0  0  0
   57.4090   30.5470   44.8920 C   0  0  0  0  0  0  0  0  0  0  0  0
   56.9900   31.7800   44.8900 N   0  0  0  0  0  0  0  0  0  0  0  0
   57.7670   32.9530   45.1740 C   0  0  0  0  0  0  0  0  0  0  0  0
   57.0870   34.4440   44.9990 S   0  0  0  0  0  0  0  0  0  0  0  0
   58.9500   32.7960   45.9740 N   0  0  0  0  0  0  0  0  0  0  0  0
   59.0340   31.9000   46.5040 H   0  0  0  0  0  0  0  0  0  0  0  0
   60.0310   33.7470   46.0330 C   0  0  0  0  0  0  0  0  0  0  0  0
   59.9800   34.8050   45.3470 O   0  0  0  0  0  0  0  0  0  0  0  0
   61.2170   33.5080   46.8900 C   0  0  0  0  0  0  0  0  0  0  0  0
   61.0920   32.9380   48.1720 C   0  0  0  0  0  0  0  0  0  0  0  0
   60.0973   32.6659   48.5548 H   0  0  0  0  0  0  0  0  0  0  0  0
   62.2250   32.7160   48.9610 C   0  0  0  0  0  0  0  0  0  0  0  0
   62.1172   32.2753   49.9631 H   0  0  0  0  0  0  0  0  0  0  0  0
   63.4940   33.0520   48.4810 C   0  0  0  0  0  0  0  0  0  0  0  0
   64.9120   32.7710   49.4730 Cl  0  0  0  0  0  0  0  0  0  0  0  0
   63.6300   33.6050   47.2040 C   0  0  0  0  0  0  0  0  0  0  0  0
   64.6281   33.8658   46.8223 H   0  0  0  0  0  0  0  0  0  0  0  0
   62.5010   33.8270   46.4120 C   0  0  0  0  0  0  0  0  0  0  0  0
   62.6170   34.2551   45.4054 H   0  0  0  0  0  0  0  0  0  0  0  0
   56.7310   29.5550   45.5080 N   0  0  0  0  0  0  0  0  0  0  0  0
   55.8140   29.6910   45.9910 H   0  0  0  0  0  0  0  0  0  0  0  0
   57.3760   28.3590   45.4270 C   0  0  0  0  0  0  0  0  0  0  0  0
   56.7930   27.1000   45.9870 C   0  0  0  0  0  0  0  0  0  0  0  0
   56.8132   27.1437   47.0859 H   0  0  0  0  0  0  0  0  0  0  0  0
   55.7536   26.9927   45.6434 H   0  0  0  0  0  0  0  0  0  0  0  0
   57.3836   26.2379   45.6434 H   0  0  0  0  0  0  0  0  0  0  0  0
  1  2  1  0
  2  3  1  0
  3  4  1  0
  4  5  2  0
  5  6  1  0
  6  7  2  0
  6  8  1  0
  8  9  1  0
  8 10  1  0
 10 11  2  0
 10 12  1  0
 12 13  2  0
 13 14  1  0
 13 15  1  0
 15 16  1  0
 15 17  2  0
 17 18  1  0
 17 19  1  0
 19 20  1  0
 19 21  2  0
 21 22  1  0
  4 23  1  0
 23 24  1  0
 23 25  1  0
 25 26  1  0
 26 27  1  0
 26 28  1  0
 26 29  1  0
 25  2  2  0
 21 12  1  0
M  END
>  <UniqueID>  (18) 
15

>  <SMILES>  (18) 
Cc1cs/c(=N\C(=S)NC(=O)c2ccc(Cl)cc2)[nH]1

>  <Energy>  (18) 
70.39405173664274

>  <Genealogy>  (18) 
Cc1cs/c(=N\C(=S)NC(=O)c2ccc(Cl)cc2)[nH]1 (cis-trans isomerization)
Cc1cs/c(=N\C(=S)NC(=O)c2ccc(Cl)cc2)[nH]1 (3D coordinates assigned)
Cc1cs/c(=N\C(=S)NC(=O)c2ccc(Cl)cc2)[nH]1 (optimized conformer: 70.39405173664274 kcal/mol)

>  <smiles>  (18) 
Cc1csc(=NC(=S)NC(=O)c2ccc(Cl)cc2)[nH]1

>  <score_type>  (18) 
oracle

>  <origin>  (18) 
adg

>  <m_score__min__energy>  (18) 
-7.3300000000000001

>  <m_primary>  (18) 
energy

$$$$
18:0
     RDKit          3D

 26 26  0  0  0  0  0  0  0  0999 V2000
   57.2300   31.2050   42.6260 C   0  0  0  0  0  0  0  0  0  0  0  0
   56.2980   30.0080   42.8000 C   0  0  0  0  0  0  0  0  0  0  0  0
   56.5870   29.2440   44.0960 C   0  0  0  0  0  0  0  0  0  0  0  0
   56.5410   30.1560   45.2480 N   0  0  0  0  0  0  0  0  0  0  0  0
   57.8710   30.3390   45.8410 C   0  0  0  0  0  0  0  0  0  0  0  0
   58.1720   31.8080   46.0280 C   0  0  0  0  0  0  0  0  0  0  0  0
   57.3670   32.7630   45.3830 C   0  0  0  0  0  0  0  0  0  0  0  0
   57.6100   34.1260   45.5560 C   0  0  0  0  0  0  0  0  0  0  0  0
   58.6550   34.5530   46.3740 C   0  0  0  0  0  0  0  0  0  0  0  0
   59.4650   33.6190   47.0270 C   0  0  0  0  0  0  0  0  0  0  0  0
   60.7690   34.2070   48.0520 Cl  0  0  0  0  0  0  0  0  0  0  0  0
   59.2300   32.2420   46.8600 C   0  0  0  0  0  0  0  0  0  0  0  0
   60.2580   31.0720   47.6930 Cl  0  0  0  0  0  0  0  0  0  0  0  0
   57.5264   31.5857   43.6146 H   0  0  0  0  0  0  0  0  0  0  0  0
   58.1262   30.8940   42.0690 H   0  0  0  0  0  0  0  0  0  0  0  0
   56.7088   31.9976   42.0690 H   0  0  0  0  0  0  0  0  0  0  0  0
   55.2584   30.3668   42.8228 H   0  0  0  0  0  0  0  0  0  0  0  0
   56.4618   29.3222   41.9557 H   0  0  0  0  0  0  0  0  0  0  0  0
   55.8322   28.4548   44.2278 H   0  0  0  0  0  0  0  0  0  0  0  0
   57.5910   28.7990   44.0323 H   0  0  0  0  0  0  0  0  0  0  0  0
   55.9260   29.7210   45.9750 H   0  0  0  0  0  0  0  0  0  0  0  0
   57.9033   29.8360   46.8187 H   0  0  0  0  0  0  0  0  0  0  0  0
   58.6233   29.9059   45.1654 H   0  0  0  0  0  0  0  0  0  0  0  0
   56.5397   32.4334   44.7373 H   0  0  0  0  0  0  0  0  0  0  0  0
   56.9754   34.8655   45.0457 H   0  0  0  0  0  0  0  0  0  0  0  0
   58.8430   35.6287   46.5062 H   0  0  0  0  0  0  0  0  0  0  0  0
  1  2  1  0
  2  3  1  0
  3  4  1  0
  4  5  1  0
  5  6  1  0
  6  7  2  0
  7  8  1  0
  8  9  2  0
  9 10  1  0
 10 11  1  0
 10 12  2  0
 12 13  1  0
 12  6  1  0
  1 14  1  0
  1 15  1  0
  1 16  1  0
  2 17  1  0
  2 18  1  0
  3 19  1  0
  3 20  1  0
  4 21  1  0
  5 22  1  0
  5 23  1  0
  7 24  1  0
  8 25  1  0
  9 26  1  0
M  END
>  <UniqueID>  (19) 
16

>  <SMILES>  (19) 
CCCNCc1cccc(Cl)c1Cl

>  <Energy>  (19) 
19.871698503454123

>  <Genealogy>  (19) 
CCCNCc1cccc(Cl)c1Cl (3D coordinates assigned)
CCCNCc1cccc(Cl)c1Cl (optimized conformer: 19.871698503454123 kcal/mol)

>  <smiles>  (19) 
CCCNCc1cccc(Cl)c1Cl

>  <score_type>  (19) 
oracle

>  <origin>  (19) 
adg

>  <m_score__min__energy>  (19) 
-5.8399999999999999

>  <m_primary>  (19) 
energy

$$$$
19:0
     RDKit          3D

 63 65  0  0  0  0  0  0  0  0999 V2000
   56.7220   29.3820   52.7350 C   0  0  0  0  0  0  0  0  0  0  0  0
   57.3250   29.9770   51.5900 O   0  0  0  0  0  0  0  0  0  0  0  0
   57.9570   31.2320   51.5590 C   0  0  0  0  0  0  0  0  0  0  0  0
   57.4740   32.2730   52.3810 C   0  0  0  0  0  0  0  0  0  0  0  0
   58.0760   33.5260   52.3830 C   0  0  0  0  0  0  0  0  0  0  0  0
   59.1720   33.7670   51.5690 C   0  0  0  0  0  0  0  0  0  0  0  0
   59.6720   32.7600   50.7470 C   0  0  0  0  0  0  0  0  0  0  0  0
   59.0870   31.4650   50.7060 C   0  0  0  0  0  0  0  0  0  0  0  0
   59.6430   30.4410   49.8020 N   0  0  0  0  0  0  0  0  0  0  0  0
   59.8120   30.7900   48.3730 C   0  0  0  0  0  0  0  0  0  0  0  0
   60.4610   29.6990   47.5230 C   0  0  0  0  0  0  0  0  0  0  0  0
   59.9630   28.3640   47.8710 N   0  0  0  0  0  0  0  0  0  0  0  0
   58.5130   28.1890   47.6340 C   0  0  0  0  0  0  0  0  0  0  0  0
   58.2700   26.9050   46.8290 C   0  0  0  0  0  0  0  0  0  0  0  0
   57.0960   27.0400   45.8390 C   0  0  0  0  0  0  0  0  0  0  0  0
   57.4710   27.7520   44.5260 C   0  0  0  0  0  0  0  0  0  0  0  0
   57.4610   29.2240   44.6680 N   0  0  0  0  0  0  0  0  0  0  0  0
   58.6470   29.9160   44.7060 C   0  0  0  0  0  0  0  0  0  0  0  0
   59.7510   29.3070   44.6660 O   0  0  0  0  0  0  0  0  0  0  0  0
   58.6500   31.3080   44.7780 C   0  0  0  0  0  0  0  0  0  0  0  0
   57.4280   31.9840   44.8430 C   0  0  0  0  0  0  0  0  0  0  0  0
   57.3650   33.4180   44.8630 N   0  0  0  0  0  0  0  0  0  0  0  0
   58.3190   34.2080   45.2690 C   0  0  0  0  0  0  0  0  0  0  0  0
   59.1440   33.9090   46.4090 N   0  0  0  0  0  0  0  0  0  0  0  0
   60.5660   34.2340   46.3330 C   0  0  0  0  0  0  0  0  0  0  0  0
   58.5200   33.7400   47.7250 C   0  0  0  0  0  0  0  0  0  0  0  0
   56.2760   31.2720   44.7930 N   0  0  0  0  0  0  0  0  0  0  0  0
   56.2750   29.9170   44.7180 C   0  0  0  0  0  0  0  0  0  0  0  0
   55.1690   29.3120   44.6830 O   0  0  0  0  0  0  0  0  0  0  0  0
   60.3730   28.0390   49.2410 C   0  0  0  0  0  0  0  0  0  0  0  0
   59.9020   29.0660   50.2940 C   0  0  0  0  0  0  0  0  0  0  0  0
   57.1602   29.8144   53.6466 H   0  0  0  0  0  0  0  0  0  0  0  0
   55.6392   29.5753   52.7214 H   0  0  0  0  0  0  0  0  0  0  0  0
   56.9009   28.2967   52.7214 H   0  0  0  0  0  0  0  0  0  0  0  0
   56.6060   32.0895   53.0314 H   0  0  0  0  0  0  0  0  0  0  0  0
   57.6834   34.3249   53.0293 H   0  0  0  0  0  0  0  0  0  0  0  0
   59.6490   34.7582   51.5724 H   0  0  0  0  0  0  0  0  0  0  0  0
   60.5443   32.9727   50.1115 H   0  0  0  0  0  0  0  0  0  0  0  0
   58.8186   31.0063   47.9531 H   0  0  0  0  0  0  0  0  0  0  0  0
   60.4918   31.6543   48.3420 H   0  0  0  0  0  0  0  0  0  0  0  0
   60.2403   29.8956   46.4634 H   0  0  0  0  0  0  0  0  0  0  0  0
   61.5442   29.7185   47.7134 H   0  0  0  0  0  0  0  0  0  0  0  0
   57.9908   28.1192   48.5996 H   0  0  0  0  0  0  0  0  0  0  0  0
   58.1305   29.0510   47.0678 H   0  0  0  0  0  0  0  0  0  0  0  0
   59.1825   26.6658   46.2631 H   0  0  0  0  0  0  0  0  0  0  0  0
   58.0146   26.1075   47.5423 H   0  0  0  0  0  0  0  0  0  0  0  0
   56.7301   26.0318   45.5949 H   0  0  0  0  0  0  0  0  0  0  0  0
   56.3301   27.6571   46.3315 H   0  0  0  0  0  0  0  0  0  0  0  0
   58.4792   27.4317   44.2244 H   0  0  0  0  0  0  0  0  0  0  0  0
   56.7219   27.4801   43.7677 H   0  0  0  0  0  0  0  0  0  0  0  0
   59.5983   31.8655   44.7836 H   0  0  0  0  0  0  0  0  0  0  0  0
   56.4870   33.8590   44.5060 H   0  0  0  0  0  0  0  0  0  0  0  0
   58.5008   35.1420   44.7171 H   0  0  0  0  0  0  0  0  0  0  0  0
   60.9756   34.3276   47.3496 H   0  0  0  0  0  0  0  0  0  0  0  0
   61.0968   33.4340   45.7961 H   0  0  0  0  0  0  0  0  0  0  0  0
   60.6966   35.1851   45.7961 H   0  0  0  0  0  0  0  0  0  0  0  0
   59.2624   33.9411   48.5114 H   0  0  0  0  0  0  0  0  0  0  0  0
   57.6799   34.4430   47.8255 H   0  0  0  0  0  0  0  0  0  0  0  0
   58.1495   32.7092   47.8255 H   0  0  0  0  0  0  0  0  0  0  0  0
   59.9547   27.0562   49.5041 H   0  0  0  0  0  0  0  0  0  0  0  0
   61.4729   28.0468   49.2561 H   0  0  0  0  0  0  0  0  0  0  0  0
   58.9691   28.6875   50.7372 H   0  0  0  0  0  0  0  0  0  0  0  0
   60.7367   29.1613   51.0041 H   0  0  0  0  0  0  0  0  0  0  0  0
  1  2  1  0
  2  3  1  0
  3  4  2  0
  4  5  1  0
  5  6  2  0
  6  7  1  0
  7  8  2  0
  8  9  1  0
  9 10  1  0
 10 11  1  0
 11 12  1  0
 12 13  1  0
 13 14  1  0
 14 15  1  0
 15 16  1  0
 16 17  1  0
 17 18  1  0
 18 19  2  0
 18 20  1  0
 20 21  2  0
 21 22  1  0
 22 23  2  3
 23 24  1  0
 24 25  1  0
 24 26  1  0
 21 27  1  0
 27 28  1  0
 28 29  2  0
 12 30  1  0
 30 31  1  0
  8  3  1  0
 31  9  1  0
 28 17  1  0
  1 32  1  0
  1 33  1  0
  1 34  1  0
  4 35  1  0
  5 36  1  0
  6 37  1  0
  7 38  1  0
 10 39  1  0
 10 40  1  0
 11 41  1  0
 11 42  1  0
 13 43  1  0
 13 44  1  0
 14 45  1  0
 14 46  1  0
 15 47  1  0
 15 48  1  0
 16 49  1  0
 16 50  1  0
 20 51  1  0
 22 52  1  0
 23 53  1  0
 25 54  1  0
 25 55  1  0
 25 56  1  0
 26 57  1  0
 26 58  1  0
 26 59  1  0
 30 60  1  0
 30 61  1  0
 31 62  1  0
 31 63  1  0
M  CHG  2  22   1  27  -1
M  END
>  <UniqueID>  (20) 
17

>  <SMILES>  (20) 
COc1ccccc1N1CCN(CCCCn2c(=O)cc([NH+]=CN(C)C)[n-]c2=O)CC1

>  <Energy>  (20) 
88.38052409947646

>  <Genealogy>  (20) 
COc1ccccc1N1CCN(CCCCn2c(=O)cc([NH+]=CN(C)C)[n-]c2=O)CC1 (protonated)
COc1ccccc1N1CCN(CCCCn2c(=O)cc([NH+]=CN(C)C)[n-]c2=O)CC1 (3D coordinates assigned)
COc1ccccc1N1CCN(CCCCn2c(=O)cc([NH+]=CN(C)C)[n-]c2=O)CC1 (nonaromatic ring conformer: 88.38052409947646 kcal/mol)

>  <smiles>  (20) 
COc1ccccc1N1CCN(CCCCn2c(=O)cc(N=CN(C)C)[nH]c2=O)CC1

>  <score_type>  (20) 
oracle

>  <origin>  (20) 
adg

>  <m_score__min__energy>  (20) 
-8.2100000000000009

>  <m_primary>  (20) 
energy

$$$$
20:0
     RDKit          3D

 26 27  0  0  0  0  0  0  0  0999 V2000
   58.9637   27.6006   46.5876 H   0  0  0  0  0  0  0  0  0  0  0  0
   57.9080   27.4870   46.3000 C   0  0  0  0  0  0  0  0  0  0  0  0
   57.1640   26.3850   46.4930 N   0  0  0  0  0  0  0  0  0  0  0  0
   55.9610   26.7190   45.9870 C   0  0  0  0  0  0  0  0  0  0  0  0
   54.9560   25.8960   45.9900 N   0  0  0  0  0  0  0  0  0  0  0  0
   55.0690   24.4880   45.6290 C   0  0  0  0  0  0  0  0  0  0  0  0
   55.1180   23.8779   46.5430 H   0  0  0  0  0  0  0  0  0  0  0  0
   54.1919   24.1900   45.0358 H   0  0  0  0  0  0  0  0  0  0  0  0
   55.9824   24.3337   45.0358 H   0  0  0  0  0  0  0  0  0  0  0  0
   55.8980   27.9700   45.4820 N   0  0  0  0  0  0  0  0  0  0  0  0
   57.1380   28.4560   45.6830 C   0  0  0  0  0  0  0  0  0  0  0  0
   57.5590   29.8220   45.2850 C   0  0  0  0  0  0  0  0  0  0  0  0
   57.1150   30.3640   44.0650 C   0  0  0  0  0  0  0  0  0  0  0  0
   56.4574   29.7709   43.4125 H   0  0  0  0  0  0  0  0  0  0  0  0
   57.5020   31.6500   43.6740 C   0  0  0  0  0  0  0  0  0  0  0  0
   57.1485   32.0605   42.7166 H   0  0  0  0  0  0  0  0  0  0  0  0
   58.3410   32.4210   44.4990 C   0  0  0  0  0  0  0  0  0  0  0  0
   58.7560   33.7150   44.1510 O   0  0  0  0  0  0  0  0  0  0  0  0
   59.1830   34.7010   45.0860 C   0  0  0  0  0  0  0  0  0  0  0  0
   59.0224   34.3301   46.1090 H   0  0  0  0  0  0  0  0  0  0  0  0
   60.2524   34.9103   44.9355 H   0  0  0  0  0  0  0  0  0  0  0  0
   58.6040   35.6241   44.9355 H   0  0  0  0  0  0  0  0  0  0  0  0
   58.7820   31.8840   45.7120 C   0  0  0  0  0  0  0  0  0  0  0  0
   59.4377   32.4796   46.3642 H   0  0  0  0  0  0  0  0  0  0  0  0
   58.3990   30.5990   46.1050 C   0  0  0  0  0  0  0  0  0  0  0  0
   58.7565   30.1915   47.0622 H   0  0  0  0  0  0  0  0  0  0  0  0
  1  2  1  0
  2  3  1  0
  3  4  1  0
  4  5  2  0
  5  6  1  0
  6  7  1  0
  6  8  1  0
  6  9  1  0
  4 10  1  0
 10 11  1  0
 11 12  1  0
 12 13  2  0
 13 14  1  0
 13 15  1  0
 15 16  1  0
 15 17  2  0
 17 18  1  0
 18 19  1  0
 19 20  1  0
 19 21  1  0
 19 22  1  0
 17 23  1  0
 23 24  1  0
 23 25  2  0
 25 26  1  0
 11  2  2  0
 25 12  1  0
M  CHG  2   3  -1  10  -1
M  END
>  <UniqueID>  (21) 
18

>  <SMILES>  (21) 
C/N=c1/[n-]cc(-c2ccc(OC)cc2)[n-]1

>  <Energy>  (21) 
53.45916520961212

>  <Genealogy>  (21) 
CN=c1[n-]cc(-c2ccc(OC)cc2)[n-]1 (protonated)
C/N=c1/[n-]cc(-c2ccc(OC)cc2)[n-]1 (cis-trans isomerization)
C/N=c1/[n-]cc(-c2ccc(OC)cc2)[n-]1 (3D coordinates assigned)
C/N=c1/[n-]cc(-c2ccc(OC)cc2)[n-]1 (optimized conformer: 53.45916520961212 kcal/mol)

>  <smiles>  (21) 
CN=c1[nH]cc(-c2ccc(OC)cc2)[nH]1

>  <score_type>  (21) 
oracle

>  <origin>  (21) 
adg

>  <m_score__min__energy>  (21) 
-10.08

>  <m_primary>  (21) 
energy

$$$$
21:0
     RDKit          3D

 36 39  0  0  0  0  0  0  0  0999 V2000
   66.1240   32.5140   50.1670 C   0  0  0  0  0  0  0  0  0  0  0  0
   65.2790   33.3620   49.3950 O   0  0  0  0  0  0  0  0  0  0  0  0
   64.0970   32.9410   48.7660 C   0  0  0  0  0  0  0  0  0  0  0  0
   63.4090   31.8510   49.3080 C   0  0  0  0  0  0  0  0  0  0  0  0
   62.2280   31.3910   48.7180 C   0  0  0  0  0  0  0  0  0  0  0  0
   61.7110   32.0150   47.5680 C   0  0  0  0  0  0  0  0  0  0  0  0
   60.4530   31.5400   46.9300 C   0  0  0  0  0  0  0  0  0  0  0  0
   59.5510   32.4190   46.5840 N   0  0  0  0  0  0  0  0  0  0  0  0
   58.3330   31.9920   45.9820 C   0  0  0  0  0  0  0  0  0  0  0  0
   57.3410   32.7770   45.5450 N   0  0  0  0  0  0  0  0  0  0  0  0
   56.5290   31.9720   44.8700 N   0  0  0  0  0  0  0  0  0  0  0  0
   57.0180   30.7350   44.8840 N   0  0  0  0  0  0  0  0  0  0  0  0
   58.1320   30.7350   45.6010 N   0  0  0  0  0  0  0  0  0  0  0  0
   59.1590   29.7040   45.6650 C   0  0  2  0  0  0  0  0  0  0  0  0
   58.5380   28.3560   45.8930 C   0  0  0  0  0  0  0  0  0  0  0  0
   59.2240   27.1720   46.0710 C   0  0  0  0  0  0  0  0  0  0  0  0
   58.2580   26.2100   46.2730 C   0  0  0  0  0  0  0  0  0  0  0  0
   57.0460   26.8670   46.2110 C   0  0  0  0  0  0  0  0  0  0  0  0
   57.2450   28.1460   45.9870 O   0  0  0  0  0  0  0  0  0  0  0  0
   60.1660   30.0400   46.7990 C   0  0  0  0  0  0  0  0  0  0  0  0
   62.4030   33.1160   47.0300 C   0  0  0  0  0  0  0  0  0  0  0  0
   63.5850   33.5740   47.6200 C   0  0  0  0  0  0  0  0  0  0  0  0
   65.9448   32.6939   51.2373 H   0  0  0  0  0  0  0  0  0  0  0  0
   65.9037   31.4627   49.9299 H   0  0  0  0  0  0  0  0  0  0  0  0
   67.1761   32.7306   49.9299 H   0  0  0  0  0  0  0  0  0  0  0  0
   63.8004   31.3512   50.2063 H   0  0  0  0  0  0  0  0  0  0  0  0
   61.6980   30.5330   49.1571 H   0  0  0  0  0  0  0  0  0  0  0  0
   57.2320   33.8100   45.6500 H   0  0  0  0  0  0  0  0  0  0  0  0
   59.6972   29.6738   44.7061 H   0  0  0  0  0  0  0  0  0  0  0  0
   60.3142   27.0264   46.0550 H   0  0  0  0  0  0  0  0  0  0  0  0
   58.4202   25.1362   46.4481 H   0  0  0  0  0  0  0  0  0  0  0  0
   56.0615   26.3913   46.3311 H   0  0  0  0  0  0  0  0  0  0  0  0
   59.7518   29.6792   47.7520 H   0  0  0  0  0  0  0  0  0  0  0  0
   61.1166   29.5471   46.5473 H   0  0  0  0  0  0  0  0  0  0  0  0
   62.0098   33.6217   46.1358 H   0  0  0  0  0  0  0  0  0  0  0  0
   64.1166   34.4334   47.1855 H   0  0  0  0  0  0  0  0  0  0  0  0
  1  2  1  0
  2  3  1  0
  3  4  2  0
  4  5  1  0
  5  6  2  0
  6  7  1  0
  7  8  2  0
  8  9  1  0
  9 10  2  0
 10 11  1  0
 11 12  2  0
 12 13  1  0
 13 14  1  0
 14 15  1  0
 15 16  2  0
 16 17  1  0
 17 18  2  0
 18 19  1  0
 14 20  1  0
  6 21  1  0
 21 22  2  0
 22  3  1  0
 20  7  1  0
 13  9  1  0
 19 15  1  0
  1 23  1  0
  1 24  1  0
  1 25  1  0
  4 26  1  0
  5 27  1  0
 10 28  1  0
 14 29  1  6
 16 30  1  0
 17 31  1  0
 18 32  1  0
 20 33  1  0
 20 34  1  0
 21 35  1  0
 22 36  1  0
M  CHG  1  10   1
M  END
>  <UniqueID>  (22) 
19

>  <SMILES>  (22) 
COc1ccc(C2=Nc3[nH+]nnn3[C@H](c3ccco3)C2)cc1

>  <Energy>  (22) 
114.58373940846987

>  <Genealogy>  (22) 
COc1ccc(C2=Nc3[nH+]nnn3C(c3ccco3)C2)cc1 (protonated)
COc1ccc(C2=Nc3[nH+]nnn3[C@H](c3ccco3)C2)cc1 (chirality)
COc1ccc(C2=Nc3[nH+]nnn3[C@H](c3ccco3)C2)cc1 (3D coordinates assigned)
COc1ccc(C2=Nc3[nH+]nnn3[C@H](c3ccco3)C2)cc1 (nonaromatic ring conformer: 114.58373940846987 kcal/mol)

>  <smiles>  (22) 
COc1ccc(C2=Nc3nnnn3C(c3ccco3)C2)cc1

>  <score_type>  (22) 
oracle

>  <origin>  (22) 
adg

>  <m_score__min__energy>  (22) 
-5.7699999999999996

>  <m_primary>  (22) 
energy

$$$$
22:0
     RDKit          3D

 38 39  0  0  0  0  0  0  0  0999 V2000
   58.4110   34.3680   45.2560 C   0  0  0  0  0  0  0  0  0  0  0  0
   57.5090   33.3220   45.6000 O   0  0  0  0  0  0  0  0  0  0  0  0
   57.6920   31.9740   45.2580 C   0  0  0  0  0  0  0  0  0  0  0  0
   58.8070   31.2310   45.6880 C   0  0  0  0  0  0  0  0  0  0  0  0
   58.9450   29.8900   45.3170 C   0  0  0  0  0  0  0  0  0  0  0  0
   57.9780   29.2740   44.5080 C   0  0  0  0  0  0  0  0  0  0  0  0
   58.1230   27.8310   44.1000 C   0  0  0  0  0  0  0  0  0  0  0  0
   57.4600   26.9510   45.0810 N   0  0  0  0  0  0  0  0  0  0  0  0
   58.1100   27.0650   46.3940 C   0  0  0  0  0  0  0  0  0  0  0  0
   57.5220   25.2820   44.5570 S   0  0  0  0  0  0  0  0  0  0  0  0
   58.6500   24.5820   45.2640 O   0  0  0  0  0  0  0  0  0  0  0  0
   57.7710   25.2050   43.0760 O   0  0  0  0  0  0  0  0  0  0  0  0
   55.9630   24.4960   44.8990 C   0  0  0  0  0  0  0  0  0  0  0  0
   55.6960   23.1780   44.4590 C   0  0  0  0  0  0  0  0  0  0  0  0
   56.6890   22.3770   43.6680 C   0  0  0  0  0  0  0  0  0  0  0  0
   54.4880   22.6140   44.7280 N   0  0  0  0  0  0  0  0  0  0  0  0
   53.5330   23.2790   45.4220 C   0  0  0  0  0  0  0  0  0  0  0  0
   52.4260   22.7280   45.6560 O   0  0  0  0  0  0  0  0  0  0  0  0
   53.7680   24.5390   45.8630 N   0  0  0  0  0  0  0  0  0  0  0  0
   54.9510   25.1600   45.6210 C   0  0  0  0  0  0  0  0  0  0  0  0
   55.1240   26.3290   46.0540 O   0  0  0  0  0  0  0  0  0  0  0  0
   56.8600   30.0130   44.0900 C   0  0  0  0  0  0  0  0  0  0  0  0
   56.7240   31.3540   44.4590 C   0  0  0  0  0  0  0  0  0  0  0  0
   58.8070   34.8273   46.1737 H   0  0  0  0  0  0  0  0  0  0  0  0
   59.2417   33.9560   44.6642 H   0  0  0  0  0  0  0  0  0  0  0  0
   57.8813   35.1291   44.6642 H   0  0  0  0  0  0  0  0  0  0  0  0
   59.5727   31.7069   46.3182 H   0  0  0  0  0  0  0  0  0  0  0  0
   59.8168   29.3144   45.6614 H   0  0  0  0  0  0  0  0  0  0  0  0
   57.6615   27.6853   43.1122 H   0  0  0  0  0  0  0  0  0  0  0  0
   59.1925   27.5774   44.0582 H   0  0  0  0  0  0  0  0  0  0  0  0
   57.3595   26.9334   47.1873 H   0  0  0  0  0  0  0  0  0  0  0  0
   58.8837   26.2888   46.4888 H   0  0  0  0  0  0  0  0  0  0  0  0
   58.5734   28.0581   46.4888 H   0  0  0  0  0  0  0  0  0  0  0  0
   57.3569   21.8382   44.3562 H   0  0  0  0  0  0  0  0  0  0  0  0
   56.1550   21.6538   43.0341 H   0  0  0  0  0  0  0  0  0  0  0  0
   57.2828   23.0520   43.0341 H   0  0  0  0  0  0  0  0  0  0  0  0
   56.0879   29.5346   43.4695 H   0  0  0  0  0  0  0  0  0  0  0  0
   55.8490   31.9272   44.1188 H   0  0  0  0  0  0  0  0  0  0  0  0
  1  2  1  0
  2  3  1  0
  3  4  2  0
  4  5  1  0
  5  6  2  0
  6  7  1  0
  7  8  1  0
  8  9  1  0
  8 10  1  0
 10 11  2  0
 10 12  2  0
 10 13  1  0
 13 14  2  0
 14 15  1  0
 14 16  1  0
 16 17  1  0
 17 18  2  0
 17 19  1  0
 19 20  1  0
 20 21  2  0
  6 22  1  0
 22 23  2  0
 23  3  1  0
 20 13  1  0
  1 24  1  0
  1 25  1  0
  1 26  1  0
  4 27  1  0
  5 28  1  0
  7 29  1  0
  7 30  1  0
  9 31  1  0
  9 32  1  0
  9 33  1  0
 15 34  1  0
 15 35  1  0
 15 36  1  0
 22 37  1  0
 23 38  1  0
M  CHG  2  16  -1  19  -1
M  END
>  <UniqueID>  (23) 
20

>  <SMILES>  (23) 
COc1ccc(CN(C)S(=O)(=O)c2c(C)[n-]c(=O)[n-]c2=O)cc1

>  <Energy>  (23) 
38.952786899395214

>  <Genealogy>  (23) 
COc1ccc(CN(C)S(=O)(=O)c2c(C)[n-]c(=O)[n-]c2=O)cc1 (protonated)
COc1ccc(CN(C)S(=O)(=O)c2c(C)[n-]c(=O)[n-]c2=O)cc1 (3D coordinates assigned)
COc1ccc(CN(C)S(=O)(=O)c2c(C)[n-]c(=O)[n-]c2=O)cc1 (optimized conformer: 38.952786899395214 kcal/mol)

>  <smiles>  (23) 
COc1ccc(CN(C)S(=O)(=O)c2c(C)[nH]c(=O)[nH]c2=O)cc1

>  <score_type>  (23) 
oracle

>  <origin>  (23) 
adg

>  <m_score__min__energy>  (23) 
-10.800000000000001

>  <m_primary>  (23) 
energy

$$$$
23:0
     RDKit          3D

 35 38  0  0  0  0  0  0  0  0999 V2000
   57.0830   23.6040   48.1210 O   0  0  0  0  0  0  0  0  0  0  0  0
   57.3710   24.6280   47.4480 C   0  0  0  0  0  0  0  0  0  0  0  0
   58.5440   25.2300   47.5170 O   0  0  0  0  0  0  0  0  0  0  0  0
   58.6190   26.2840   46.7200 C   0  0  0  0  0  0  0  0  0  0  0  0
   59.7340   27.1080   46.5900 C   0  0  0  0  0  0  0  0  0  0  0  0
   59.6730   28.1940   45.7010 C   0  0  0  0  0  0  0  0  0  0  0  0
   58.5010   28.4440   44.9410 C   0  0  0  0  0  0  0  0  0  0  0  0
   58.4300   29.5400   44.0160 N   0  0  0  0  0  0  0  0  0  0  0  0
   57.2310   30.7910   44.1240 S   0  0  0  0  0  0  0  0  0  0  0  0
   56.7970   31.1900   42.7420 O   0  0  0  0  0  0  0  0  0  0  0  0
   56.0390   30.2550   44.8660 O   0  0  0  0  0  0  0  0  0  0  0  0
   57.9030   32.2140   44.9440 C   0  0  0  0  0  0  0  0  0  0  0  0
   57.8680   33.4470   44.2720 C   0  0  0  0  0  0  0  0  0  0  0  0
   58.3340   34.6080   44.8860 C   0  0  0  0  0  0  0  0  0  0  0  0
   58.8440   34.5640   46.1810 C   0  0  0  0  0  0  0  0  0  0  0  0
   58.8990   33.3480   46.8750 C   0  0  0  0  0  0  0  0  0  0  0  0
   59.4160   33.3120   48.1800 C   0  0  0  0  0  0  0  0  0  0  0  0
   59.4800   32.1080   48.8790 C   0  0  0  0  0  0  0  0  0  0  0  0
   59.0380   30.9280   48.2820 C   0  0  0  0  0  0  0  0  0  0  0  0
   58.5230   30.9450   46.9840 C   0  0  0  0  0  0  0  0  0  0  0  0
   58.4360   32.1530   46.2600 C   0  0  0  0  0  0  0  0  0  0  0  0
   57.3800   27.6060   45.1010 C   0  0  0  0  0  0  0  0  0  0  0  0
   57.4700   26.5380   45.9890 C   0  0  0  0  0  0  0  0  0  0  0  0
   56.3110   25.3800   46.3630 S   0  0  0  0  0  0  0  0  0  0  0  0
   60.6461   26.9121   47.1729 H   0  0  0  0  0  0  0  0  0  0  0  0
   60.5434   28.8579   45.5928 H   0  0  0  0  0  0  0  0  0  0  0  0
   59.2270   29.7020   43.3610 H   0  0  0  0  0  0  0  0  0  0  0  0
   57.4679   33.4968   43.2486 H   0  0  0  0  0  0  0  0  0  0  0  0
   58.2987   35.5648   44.3445 H   0  0  0  0  0  0  0  0  0  0  0  0
   59.2046   35.4861   46.6603 H   0  0  0  0  0  0  0  0  0  0  0  0
   59.7724   34.2389   48.6531 H   0  0  0  0  0  0  0  0  0  0  0  0
   59.8799   32.0886   49.9035 H   0  0  0  0  0  0  0  0  0  0  0  0
   59.0952   29.9794   48.8359 H   0  0  0  0  0  0  0  0  0  0  0  0
   58.1817   30.0072   46.5214 H   0  0  0  0  0  0  0  0  0  0  0  0
   56.4542   27.7916   44.5367 H   0  0  0  0  0  0  0  0  0  0  0  0
  1  2  2  0
  2  3  1  0
  3  4  1  0
  4  5  2  0
  5  6  1  0
  6  7  2  0
  7  8  1  0
  8  9  1  0
  9 10  2  0
  9 11  2  0
  9 12  1  0
 12 13  2  0
 13 14  1  0
 14 15  2  0
 15 16  1  0
 16 17  2  0
 17 18  1  0
 18 19  2  0
 19 20  1  0
 20 21  2  0
  7 22  1  0
 22 23  2  0
 23 24  1  0
 24  2  1  0
 23  4  1  0
 21 12  1  0
 21 16  1  0
  5 25  1  0
  6 26  1  0
  8 27  1  0
 13 28  1  0
 14 29  1  0
 15 30  1  0
 17 31  1  0
 18 32  1  0
 19 33  1  0
 20 34  1  0
 22 35  1  0
M  END
>  <UniqueID>  (24) 
21

>  <SMILES>  (24) 
O=c1oc2ccc(NS(=O)(=O)c3cccc4ccccc34)cc2s1

>  <Energy>  (24) 
84.5011872905505

>  <Genealogy>  (24) 
O=c1oc2ccc(NS(=O)(=O)c3cccc4ccccc34)cc2s1 (3D coordinates assigned)
O=c1oc2ccc(NS(=O)(=O)c3cccc4ccccc34)cc2s1 (optimized conformer: 84.5011872905505 kcal/mol)

>  <smiles>  (24) 
O=c1oc2ccc(NS(=O)(=O)c3cccc4ccccc34)cc2s1

>  <score_type>  (24) 
oracle

>  <origin>  (24) 
adg

>  <m_score__min__energy>  (24) 
-8.8000000000000007

>  <m_primary>  (24) 
energy

$$$$
24:0
     RDKit          3D

 27 28  0  0  0  0  0  0  0  0999 V2000
   57.3620   32.3410   40.7460 C   0  0  0  0  0  0  0  0  0  0  0  0
   57.8880   31.9690   42.1270 C   0  0  0  0  0  0  0  0  0  0  0  0
   56.9440   31.1570   42.8230 O   0  0  0  0  0  0  0  0  0  0  0  0
   56.8350   31.1250   44.2180 C   0  0  0  0  0  0  0  0  0  0  0  0
   56.0020   30.3630   44.7800 O   0  0  0  0  0  0  0  0  0  0  0  0
   57.6930   31.9920   45.0340 C   0  0  0  0  0  0  0  0  0  0  0  0
   58.9080   31.6140   45.6110 C   0  0  0  0  0  0  0  0  0  0  0  0
   59.4960   32.6560   46.3340 C   0  0  0  0  0  0  0  0  0  0  0  0
   60.7070   32.6030   47.0260 C   0  0  0  0  0  0  0  0  0  0  0  0
   61.1410   33.7590   47.6990 C   0  0  0  0  0  0  0  0  0  0  0  0
   62.3500   33.7280   48.4000 O   0  0  0  0  0  0  0  0  0  0  0  0
   63.5370   33.1600   47.8590 C   0  0  0  0  0  0  0  0  0  0  0  0
   60.3800   34.9000   47.6650 N   0  0  0  0  0  0  0  0  0  0  0  0
   59.1960   34.9610   46.9920 C   0  0  0  0  0  0  0  0  0  0  0  0
   58.7570   33.8240   46.3230 C   0  0  0  0  0  0  0  0  0  0  0  0
   57.3580   33.6070   45.4220 S   0  0  0  0  0  0  0  0  0  0  0  0
   56.4681   32.9732   40.8522 H   0  0  0  0  0  0  0  0  0  0  0  0
   58.1377   32.8925   40.1945 H   0  0  0  0  0  0  0  0  0  0  0  0
   57.1005   31.4259   40.1945 H   0  0  0  0  0  0  0  0  0  0  0  0
   58.8308   31.4132   42.0169 H   0  0  0  0  0  0  0  0  0  0  0  0
   58.0544   32.8913   42.7029 H   0  0  0  0  0  0  0  0  0  0  0  0
   59.3507   30.6123   45.5083 H   0  0  0  0  0  0  0  0  0  0  0  0
   61.3064   31.6808   47.0445 H   0  0  0  0  0  0  0  0  0  0  0  0
   64.1986   32.8434   48.6788 H   0  0  0  0  0  0  0  0  0  0  0  0
   63.2774   32.2886   47.2400 H   0  0  0  0  0  0  0  0  0  0  0  0
   64.0527   33.9089   47.2400 H   0  0  0  0  0  0  0  0  0  0  0  0
   58.6025   35.8871   46.9786 H   0  0  0  0  0  0  0  0  0  0  0  0
  1  2  1  0
  2  3  1  0
  3  4  1  0
  4  5  2  0
  4  6  1  0
  6  7  2  0
  7  8  1  0
  8  9  2  0
  9 10  1  0
 10 11  1  0
 11 12  1  0
 10 13  2  0
 13 14  1  0
 14 15  2  0
 15 16  1  0
 16  6  1  0
 15  8  1  0
  1 17  1  0
  1 18  1  0
  1 19  1  0
  2 20  1  0
  2 21  1  0
  7 22  1  0
  9 23  1  0
 12 24  1  0
 12 25  1  0
 12 26  1  0
 14 27  1  0
M  END
>  <UniqueID>  (25) 
22

>  <SMILES>  (25) 
CCOC(=O)c1cc2cc(OC)ncc2s1

>  <Energy>  (25) 
52.12049336412952

>  <Genealogy>  (25) 
CCOC(=O)c1cc2cc(OC)ncc2s1 (3D coordinates assigned)
CCOC(=O)c1cc2cc(OC)ncc2s1 (optimized conformer: 52.12049336412952 kcal/mol)

>  <smiles>  (25) 
CCOC(=O)c1cc2cc(OC)ncc2s1

>  <score_type>  (25) 
oracle

>  <origin>  (25) 
adg

>  <m_score__min__energy>  (25) 
-5.5899999999999999

>  <m_primary>  (25) 
energy

$$$$
25:0
     RDKit          3D

 53 54  0  0  0  0  0  0  0  0999 V2000
   58.7114   30.1784   43.0753 H   0  0  0  0  0  0  0  0  0  0  0  0
   58.4850   30.0010   44.1370 C   0  0  0  0  0  0  0  0  0  0  0  0
   57.5020   30.8800   44.8060 C   0  0  0  0  0  0  0  0  0  0  0  0
   56.3020   30.5000   44.8520 O   0  0  0  0  0  0  0  0  0  0  0  0
   57.8740   32.1670   45.4410 C   0  0  0  0  0  0  0  0  0  0  0  0
   57.7300   33.3670   44.7220 C   0  0  0  0  0  0  0  0  0  0  0  0
   57.3264   33.3449   43.6989 H   0  0  0  0  0  0  0  0  0  0  0  0
   58.0950   34.5860   45.2960 C   0  0  0  0  0  0  0  0  0  0  0  0
   57.9723   35.5199   44.7279 H   0  0  0  0  0  0  0  0  0  0  0  0
   58.6150   34.6200   46.5890 C   0  0  0  0  0  0  0  0  0  0  0  0
   58.8985   35.5819   47.0411 H   0  0  0  0  0  0  0  0  0  0  0  0
   58.7770   33.4360   47.3120 C   0  0  0  0  0  0  0  0  0  0  0  0
   59.1922   33.4702   48.3301 H   0  0  0  0  0  0  0  0  0  0  0  0
   58.4120   32.1970   46.7460 C   0  0  0  0  0  0  0  0  0  0  0  0
   58.5600   30.9850   47.4440 O   0  0  0  0  0  0  0  0  0  0  0  0
   59.7870   30.4400   47.9290 C   0  0  0  0  0  0  0  0  0  0  0  0
   59.7528   29.3453   47.8262 H   0  0  0  0  0  0  0  0  0  0  0  0
   59.8964   30.7418   48.9811 H   0  0  0  0  0  0  0  0  0  0  0  0
   61.0140   30.9740   47.1540 C   0  0  0  0  0  0  0  0  0  0  0  0
   60.6541   31.4527   46.2313 H   0  0  0  0  0  0  0  0  0  0  0  0
   61.6641   30.1064   46.9680 H   0  0  0  0  0  0  0  0  0  0  0  0
   61.8370   31.9610   47.8950 N   0  0  0  0  0  0  0  0  0  0  0  0
   62.2100   33.1410   47.0850 C   0  0  0  0  0  0  0  0  0  0  0  0
   61.9116   34.0538   47.6215 H   0  0  0  0  0  0  0  0  0  0  0  0
   61.6944   33.0761   46.1155 H   0  0  0  0  0  0  0  0  0  0  0  0
   63.7140   33.1810   46.8320 C   0  0  0  0  0  0  0  0  0  0  0  0
   64.2474   33.1952   47.7939 H   0  0  0  0  0  0  0  0  0  0  0  0
   64.0134   32.2905   46.2598 H   0  0  0  0  0  0  0  0  0  0  0  0
   63.9656   34.0862   46.2598 H   0  0  0  0  0  0  0  0  0  0  0  0
   61.2980   32.3000   49.2330 C   0  0  0  0  0  0  0  0  0  0  0  0
   60.2486   31.9766   49.2978 H   0  0  0  0  0  0  0  0  0  0  0  0
   61.8892   31.7873   50.0061 H   0  0  0  0  0  0  0  0  0  0  0  0
   61.3790   33.8060   49.4490 C   0  0  0  0  0  0  0  0  0  0  0  0
   61.3906   34.0216   50.5276 H   0  0  0  0  0  0  0  0  0  0  0  0
   62.2993   34.1936   48.9877 H   0  0  0  0  0  0  0  0  0  0  0  0
   60.5056   34.2901   48.9877 H   0  0  0  0  0  0  0  0  0  0  0  0
   59.1130   28.9970   44.7670 C   0  0  0  0  0  0  0  0  0  0  0  0
   60.2094   28.9444   44.6950 H   0  0  0  0  0  0  0  0  0  0  0  0
   58.4130   27.9540   45.5550 C   0  0  0  0  0  0  0  0  0  0  0  0
   59.1530   27.2080   46.4860 C   0  0  0  0  0  0  0  0  0  0  0  0
   60.2255   27.4125   46.6200 H   0  0  0  0  0  0  0  0  0  0  0  0
   58.5390   26.2090   47.2430 C   0  0  0  0  0  0  0  0  0  0  0  0
   59.1266   25.6376   47.9766 H   0  0  0  0  0  0  0  0  0  0  0  0
   57.1820   25.9330   47.0720 C   0  0  0  0  0  0  0  0  0  0  0  0
   56.7041   25.1476   47.6759 H   0  0  0  0  0  0  0  0  0  0  0  0
   56.4250   26.6480   46.1380 C   0  0  0  0  0  0  0  0  0  0  0  0
   55.0680   26.3220   45.9940 O   0  0  0  0  0  0  0  0  0  0  0  0
   54.5820   25.0360   45.6200 C   0  0  0  0  0  0  0  0  0  0  0  0
   54.3607   24.4504   46.5245 H   0  0  0  0  0  0  0  0  0  0  0  0
   53.6649   25.1499   45.0234 H   0  0  0  0  0  0  0  0  0  0  0  0
   55.3452   24.5149   45.0234 H   0  0  0  0  0  0  0  0  0  0  0  0
   57.0450   27.6590   45.3750 C   0  0  0  0  0  0  0  0  0  0  0  0
   56.4579   28.2216   44.6342 H   0  0  0  0  0  0  0  0  0  0  0  0
  1  2  1  0
  2  3  1  0
  3  4  2  0
  3  5  1  0
  5  6  2  0
  6  7  1  0
  6  8  1  0
  8  9  1  0
  8 10  2  0
 10 11  1  0
 10 12  1  0
 12 13  1  0
 12 14  2  0
 14 15  1  0
 15 16  1  0
 16 17  1  0
 16 18  1  0
 16 19  1  0
 19 20  1  0
 19 21  1  0
 19 22  1  0
 22 23  1  0
 23 24  1  0
 23 25  1  0
 23 26  1  0
 26 27  1  0
 26 28  1  0
 26 29  1  0
 22 30  1  0
 30 31  1  0
 30 32  1  0
 30 33  1  0
 33 34  1  0
 33 35  1  0
 33 36  1  0
  2 37  2  0
 37 38  1  0
 37 39  1  0
 39 40  2  0
 40 41  1  0
 40 42  1  0
 42 43  1  0
 42 44  2  0
 44 45  1  0
 44 46  1  0
 46 47  1  0
 47 48  1  0
 48 49  1  0
 48 50  1  0
 48 51  1  0
 46 52  2  0
 52 53  1  0
 14  5  1  0
 52 39  1  0
M  END
>  <UniqueID>  (26) 
23

>  <SMILES>  (26) 
CCN(CC)CCOc1ccccc1C(=O)/C=C/c1cccc(OC)c1

>  <Energy>  (26) 
61.245879376355695

>  <Genealogy>  (26) 
CCN(CC)CCOc1ccccc1C(=O)/C=C/c1cccc(OC)c1 (cis-trans isomerization)
CCN(CC)CCOc1ccccc1C(=O)/C=C/c1cccc(OC)c1 (3D coordinates assigned)
CCN(CC)CCOc1ccccc1C(=O)/C=C/c1cccc(OC)c1 (optimized conformer: 61.245879376355695 kcal/mol)

>  <smiles>  (26) 
CCN(CC)CCOc1ccccc1C(=O)C=Cc1cccc(OC)c1

>  <score_type>  (26) 
oracle

>  <origin>  (26) 
adg

>  <m_score__min__energy>  (26) 
-8.0199999999999996

>  <m_primary>  (26) 
energy

$$$$
26:0
     RDKit          3D

 41 44  0  0  0  0  0  0  0  0999 V2000
   59.5640   34.8320   48.8470 O   0  0  0  0  0  0  0  0  0  0  0  0
   60.0390   34.3790   47.7710 C   0  0  0  0  0  0  0  0  0  0  0  0
   59.2270   34.2980   46.5920 N   0  0  0  0  0  0  0  0  0  0  0  0
   58.6410   33.1130   46.0340 C   0  0  0  0  0  0  0  0  0  0  0  0
   57.9320   33.2180   44.8310 C   0  0  0  0  0  0  0  0  0  0  0  0
   57.3640   32.0850   44.2410 C   0  0  0  0  0  0  0  0  0  0  0  0
   57.5090   30.8300   44.8440 C   0  0  0  0  0  0  0  0  0  0  0  0
   56.8090   29.4080   44.0750 S   0  0  0  0  0  0  0  0  0  0  0  0
   55.9120   29.8040   42.9340 O   0  0  0  0  0  0  0  0  0  0  0  0
   57.9170   28.5480   43.5380 O   0  0  0  0  0  0  0  0  0  0  0  0
   55.8960   28.5050   45.2390 N   0  0  0  0  0  0  0  0  0  0  0  0
   56.2730   27.3530   45.6960 C   0  0  0  0  0  0  0  0  0  0  0  0
   55.4250   26.3440   45.9950 N   0  0  0  0  0  0  0  0  0  0  0  0
   56.0960   25.2560   46.4590 C   0  0  0  0  0  0  0  0  0  0  0  0
   57.4780   25.3990   46.5270 C   0  0  0  0  0  0  0  0  0  0  0  0
   57.8740   26.9440   45.9870 S   0  0  0  0  0  0  0  0  0  0  0  0
   58.2410   30.7140   46.0330 C   0  0  0  0  0  0  0  0  0  0  0  0
   58.8080   31.8470   46.6240 C   0  0  0  0  0  0  0  0  0  0  0  0
   61.4430   33.9110   47.7370 C   0  0  0  0  0  0  0  0  0  0  0  0
   62.0960   33.8920   46.4970 C   0  0  0  0  0  0  0  0  0  0  0  0
   63.4400   33.5340   46.4180 C   0  0  0  0  0  0  0  0  0  0  0  0
   64.1280   33.1950   47.5390 N   0  0  0  0  0  0  0  0  0  0  0  0
   63.5300   33.1700   48.7640 C   0  0  0  0  0  0  0  0  0  0  0  0
   64.2680   32.7890   49.8960 C   0  0  0  0  0  0  0  0  0  0  0  0
   63.6580   32.7240   51.1480 C   0  0  0  0  0  0  0  0  0  0  0  0
   62.3030   33.0260   51.2830 C   0  0  0  0  0  0  0  0  0  0  0  0
   61.5540   33.4110   50.1680 C   0  0  0  0  0  0  0  0  0  0  0  0
   62.1580   33.5150   48.8970 C   0  0  0  0  0  0  0  0  0  0  0  0
   57.8211   34.1994   44.3466 H   0  0  0  0  0  0  0  0  0  0  0  0
   56.8016   32.1799   43.3004 H   0  0  0  0  0  0  0  0  0  0  0  0
   55.5832   24.3302   46.7588 H   0  0  0  0  0  0  0  0  0  0  0  0
   58.1893   24.6348   46.8736 H   0  0  0  0  0  0  0  0  0  0  0  0
   58.3700   29.7279   46.5032 H   0  0  0  0  0  0  0  0  0  0  0  0
   59.3870   31.7481   47.5540 H   0  0  0  0  0  0  0  0  0  0  0  0
   61.5455   34.1606   45.5833 H   0  0  0  0  0  0  0  0  0  0  0  0
   63.9471   33.5258   45.4419 H   0  0  0  0  0  0  0  0  0  0  0  0
   65.1370   32.9390   47.4410 H   0  0  0  0  0  0  0  0  0  0  0  0
   65.3346   32.5401   49.7944 H   0  0  0  0  0  0  0  0  0  0  0  0
   64.2464   32.4340   52.0310 H   0  0  0  0  0  0  0  0  0  0  0  0
   61.8225   32.9609   52.2704 H   0  0  0  0  0  0  0  0  0  0  0  0
   60.4832   33.6352   50.2822 H   0  0  0  0  0  0  0  0  0  0  0  0
  1  2  2  0
  2  3  1  0
  3  4  1  0
  4  5  2  0
  5  6  1  0
  6  7  2  0
  7  8  1  0
  8  9  2  0
  8 10  2  0
  8 11  1  0
 11 12  2  3
 12 13  1  0
 13 14  1  0
 14 15  2  0
 15 16  1  0
  7 17  1  0
 17 18  2  0
  2 19  1  0
 19 20  2  0
 20 21  1  0
 21 22  2  0
 22 23  1  0
 23 24  2  0
 24 25  1  0
 25 26  2  0
 26 27  1  0
 27 28  2  0
 18  4  1  0
 28 19  1  0
 16 12  1  0
 28 23  1  0
  5 29  1  0
  6 30  1  0
 14 31  1  0
 15 32  1  0
 17 33  1  0
 18 34  1  0
 20 35  1  0
 21 36  1  0
 22 37  1  0
 24 38  1  0
 25 39  1  0
 26 40  1  0
 27 41  1  0
M  CHG  3   3  -1  13  -1  22   1
M  END
>  <UniqueID>  (27) 
24

>  <SMILES>  (27) 
O=C([N-]c1ccc(S(=O)(=O)N=c2[n-]ccs2)cc1)c1cc[nH+]c2ccccc12

>  <Energy>  (27) 
92.46743322362099

>  <Genealogy>  (27) 
O=C([N-]c1ccc(S(=O)(=O)N=c2[n-]ccs2)cc1)c1cc[nH+]c2ccccc12 (protonated)
O=C([N-]c1ccc(S(=O)(=O)N=c2[n-]ccs2)cc1)c1cc[nH+]c2ccccc12 (3D coordinates assigned)
O=C([N-]c1ccc(S(=O)(=O)N=c2[n-]ccs2)cc1)c1cc[nH+]c2ccccc12 (optimized conformer: 92.46743322362099 kcal/mol)

>  <smiles>  (27) 
O=C(Nc1ccc(S(=O)(=O)N=c2[nH]ccs2)cc1)c1ccnc2ccccc12

>  <score_type>  (27) 
oracle

>  <origin>  (27) 
adg

>  <m_score__min__energy>  (27) 
-11.24

>  <m_primary>  (27) 
energy

$$$$
27:0
     RDKit          3D

 32 33  0  0  0  0  0  0  0  0999 V2000
   54.9650   26.3380   46.0580 N   0  0  0  0  0  0  0  0  0  0  0  0
   56.0180   25.4250   46.3610 C   0  0  0  0  0  0  0  0  0  0  0  0
   55.7850   24.4200   47.0850 O   0  0  0  0  0  0  0  0  0  0  0  0
   57.3880   25.6250   45.7820 C   0  0  2  0  0  0  0  0  0  0  0  0
   57.3650   26.7150   44.8130 N   0  0  0  0  0  0  0  0  0  0  0  0
   57.1080   28.0750   45.1730 C   0  0  0  0  0  0  0  0  0  0  0  0
   55.9430   28.5510   45.0870 O   0  0  0  0  0  0  0  0  0  0  0  0
   58.2270   28.9310   45.6740 C   0  0  0  0  0  0  0  0  0  0  0  0
   57.7120   30.1340   46.2480 O   0  0  0  0  0  0  0  0  0  0  0  0
   57.8890   31.4230   45.7180 C   0  0  0  0  0  0  0  0  0  0  0  0
   58.1510   32.5480   46.5260 C   0  0  0  0  0  0  0  0  0  0  0  0
   58.3430   33.8040   45.9410 C   0  0  0  0  0  0  0  0  0  0  0  0
   58.2710   33.9520   44.5540 C   0  0  0  0  0  0  0  0  0  0  0  0
   58.0010   32.8430   43.7490 C   0  0  0  0  0  0  0  0  0  0  0  0
   57.8070   31.5860   44.3280 C   0  0  0  0  0  0  0  0  0  0  0  0
   57.8580   24.3660   45.1080 C   0  0  0  0  0  0  0  0  0  0  0  0
   57.1590   23.6590   44.1380 C   0  0  0  0  0  0  0  0  0  0  0  0
   57.7850   22.4620   43.7670 C   0  0  0  0  0  0  0  0  0  0  0  0
   58.9680   22.2140   44.4510 C   0  0  0  0  0  0  0  0  0  0  0  0
   59.2320   23.4820   45.5210 S   0  0  0  0  0  0  0  0  0  0  0  0
   55.1520   27.3630   45.9760 H   0  0  0  0  0  0  0  0  0  0  0  0
   58.0805   25.8761   46.5990 H   0  0  0  0  0  0  0  0  0  0  0  0
   58.7932   28.3778   46.4378 H   0  0  0  0  0  0  0  0  0  0  0  0
   58.8849   29.1896   44.8312 H   0  0  0  0  0  0  0  0  0  0  0  0
   58.2046   32.4379   47.6192 H   0  0  0  0  0  0  0  0  0  0  0  0
   58.5514   34.6781   46.5754 H   0  0  0  0  0  0  0  0  0  0  0  0
   58.4267   34.9402   44.0965 H   0  0  0  0  0  0  0  0  0  0  0  0
   57.9409   32.9593   42.6568 H   0  0  0  0  0  0  0  0  0  0  0  0
   57.5884   30.7181   43.6884 H   0  0  0  0  0  0  0  0  0  0  0  0
   56.2089   24.0045   43.7045 H   0  0  0  0  0  0  0  0  0  0  0  0
   57.3774   21.7817   43.0047 H   0  0  0  0  0  0  0  0  0  0  0  0
   59.6198   21.3383   44.3155 H   0  0  0  0  0  0  0  0  0  0  0  0
  1  2  1  0
  2  3  2  0
  2  4  1  0
  4  5  1  0
  5  6  1  0
  6  7  2  0
  6  8  1  0
  8  9  1  0
  9 10  1  0
 10 11  2  0
 11 12  1  0
 12 13  2  0
 13 14  1  0
 14 15  2  0
  4 16  1  0
 16 17  2  0
 17 18  1  0
 18 19  2  0
 19 20  1  0
 15 10  1  0
 20 16  1  0
  1 21  1  0
  4 22  1  1
  8 23  1  0
  8 24  1  0
 11 25  1  0
 12 26  1  0
 13 27  1  0
 14 28  1  0
 15 29  1  0
 17 30  1  0
 18 31  1  0
 19 32  1  0
M  CHG  2   1  -1   5  -1
M  END
>  <UniqueID>  (28) 
25

>  <SMILES>  (28) 
[NH-]C(=O)[C@H]([N-]C(=O)COc1ccccc1)c1cccs1

>  <Energy>  (28) 
50.842357435786795

>  <Genealogy>  (28) 
[NH-]C(=O)C([N-]C(=O)COc1ccccc1)c1cccs1 (protonated)
[NH-]C(=O)[C@H]([N-]C(=O)COc1ccccc1)c1cccs1 (chirality)
[NH-]C(=O)[C@H]([N-]C(=O)COc1ccccc1)c1cccs1 (3D coordinates assigned)
[NH-]C(=O)[C@H]([N-]C(=O)COc1ccccc1)c1cccs1 (optimized conformer: 50.842357435786795 kcal/mol)

>  <smiles>  (28) 
NC(=O)C(NC(=O)COc1ccccc1)c1cccs1

>  <score_type>  (28) 
oracle

>  <origin>  (28) 
adg

>  <m_score__min__energy>  (28) 
-12.449999999999999

>  <m_primary>  (28) 
energy

$$$$
28:0
     RDKit          3D

 34 37  0  0  0  0  0  0  0  0999 V2000
   58.1280   32.7020   51.7650 C   0  0  0  0  0  0  0  0  0  0  0  0
   59.1610   33.8200   51.8060 C   0  0  0  0  0  0  0  0  0  0  0  0
   60.0710   33.7360   50.6220 C   0  0  0  0  0  0  0  0  0  0  0  0
   59.7110   33.1460   49.4500 N   0  0  0  0  0  0  0  0  0  0  0  0
   60.8320   33.2880   48.7190 C   0  0  0  0  0  0  0  0  0  0  0  0
   61.0810   32.8760   47.4130 C   0  0  0  0  0  0  0  0  0  0  0  0
   60.0800   32.1980   46.6350 C   0  0  0  0  0  0  0  0  0  0  0  0
   59.2410   31.6230   45.9900 C   0  0  0  0  0  0  0  0  0  0  0  0
   58.2470   30.9250   45.2160 C   0  0  0  0  0  0  0  0  0  0  0  0
   57.6230   31.5370   44.1120 C   0  0  0  0  0  0  0  0  0  0  0  0
   56.6510   30.8260   43.3730 C   0  0  0  0  0  0  0  0  0  0  0  0
   56.3100   29.5490   43.7200 N   0  0  0  0  0  0  0  0  0  0  0  0
   56.9190   28.9710   44.7860 C   0  0  0  0  0  0  0  0  0  0  0  0
   56.6940   27.7330   45.2500 N   0  0  0  0  0  0  0  0  0  0  0  0
   57.5170   27.5930   46.3150 C   0  0  0  0  0  0  0  0  0  0  0  0
   58.2640   28.7510   46.5220 C   0  0  0  0  0  0  0  0  0  0  0  0
   57.8620   29.6220   45.5290 C   0  0  0  0  0  0  0  0  0  0  0  0
   62.3150   33.1320   46.8830 N   0  0  0  0  0  0  0  0  0  0  0  0
   63.2930   33.7740   47.5990 C   0  0  0  0  0  0  0  0  0  0  0  0
   63.0510   34.1930   48.9210 C   0  0  0  0  0  0  0  0  0  0  0  0
   61.7900   33.9230   49.4420 C   0  0  0  0  0  0  0  0  0  0  0  0
   61.3110   34.1970   50.6250 O   0  0  0  0  0  0  0  0  0  0  0  0
   57.8603   32.4123   52.7918 H   0  0  0  0  0  0  0  0  0  0  0  0
   57.2291   33.0526   51.2368 H   0  0  0  0  0  0  0  0  0  0  0  0
   58.5484   31.8335   51.2368 H   0  0  0  0  0  0  0  0  0  0  0  0
   58.6441   34.7910   51.7971 H   0  0  0  0  0  0  0  0  0  0  0  0
   59.7599   33.7176   52.7230 H   0  0  0  0  0  0  0  0  0  0  0  0
   57.8912   32.5647   43.8260 H   0  0  0  0  0  0  0  0  0  0  0  0
   56.1643   31.3048   42.5105 H   0  0  0  0  0  0  0  0  0  0  0  0
   56.0270   27.0250   44.8710 H   0  0  0  0  0  0  0  0  0  0  0  0
   57.5870   26.6866   46.9343 H   0  0  0  0  0  0  0  0  0  0  0  0
   59.0126   28.9321   47.3073 H   0  0  0  0  0  0  0  0  0  0  0  0
   64.2733   33.9628   47.1370 H   0  0  0  0  0  0  0  0  0  0  0  0
   63.8215   34.7087   49.5130 H   0  0  0  0  0  0  0  0  0  0  0  0
  1  2  1  0
  2  3  1  0
  3  4  2  0
  4  5  1  0
  5  6  2  0
  6  7  1  0
  7  8  3  0
  8  9  1  0
  9 10  2  0
 10 11  1  0
 11 12  2  0
 12 13  1  0
 13 14  1  0
 14 15  1  0
 15 16  2  0
 16 17  1  0
  6 18  1  0
 18 19  2  0
 19 20  1  0
 20 21  2  0
 21 22  1  0
 22  3  1  0
 21  5  1  0
 17  9  1  0
 17 13  2  0
  1 23  1  0
  1 24  1  0
  1 25  1  0
  2 26  1  0
  2 27  1  0
 10 28  1  0
 11 29  1  0
 14 30  1  0
 15 31  1  0
 16 32  1  0
 19 33  1  0
 20 34  1  0
M  END
>  <UniqueID>  (29) 
26

>  <SMILES>  (29) 
CCc1nc2c(C#Cc3ccnc4[nH]ccc34)nccc2o1

>  <Energy>  (29) 
103.79506957363859

>  <Genealogy>  (29) 
CCc1nc2c(C#Cc3ccnc4[nH]ccc34)nccc2o1 (3D coordinates assigned)
CCc1nc2c(C#Cc3ccnc4[nH]ccc34)nccc2o1 (optimized conformer: 103.79506957363859 kcal/mol)

>  <smiles>  (29) 
CCc1nc2c(C#Cc3ccnc4[nH]ccc34)nccc2o1

>  <score_type>  (29) 
oracle

>  <origin>  (29) 
adg

>  <m_score__min__energy>  (29) 
-6.1699999999999999

>  <m_primary>  (29) 
energy

$$$$
29:0
     RDKit          3D

 33 35  0  0  0  0  0  0  0  0999 V2000
   56.6370   29.3990   42.7500 C   0  0  0  0  0  0  0  0  0  0  0  0
   56.8290   30.6640   43.5130 C   0  0  0  0  0  0  0  0  0  0  0  0
   56.3360   30.8710   44.7540 N   0  0  0  0  0  0  0  0  0  0  0  0
   56.6850   32.0490   45.2680 N   0  0  0  0  0  0  0  0  0  0  0  0
   57.4680   32.7760   44.4440 C   0  0  0  0  0  0  0  0  0  0  0  0
   58.0940   34.4010   44.8480 S   0  0  0  0  0  0  0  0  0  0  0  0
   59.0430   33.7810   46.2370 C   0  0  0  0  0  0  0  0  0  0  0  0
   58.3840   33.2810   47.3590 C   0  0  0  0  0  0  0  0  0  0  0  0
   59.1060   32.7830   48.4520 C   0  0  0  0  0  0  0  0  0  0  0  0
   58.3410   32.2490   49.6380 C   0  0  0  0  0  0  0  0  0  0  0  0
   60.5260   32.7910   48.4150 C   0  0  0  0  0  0  0  0  0  0  0  0
   61.2900   32.2980   49.4920 C   0  0  0  0  0  0  0  0  0  0  0  0
   62.6820   32.3100   49.4420 C   0  0  0  0  0  0  0  0  0  0  0  0
   63.3420   32.8100   48.3240 C   0  0  0  0  0  0  0  0  0  0  0  0
   62.6210   33.3120   47.2290 C   0  0  0  0  0  0  0  0  0  0  0  0
   63.3860   33.8410   46.0430 C   0  0  0  0  0  0  0  0  0  0  0  0
   61.2000   33.3050   47.2680 C   0  0  0  0  0  0  0  0  0  0  0  0
   60.4360   33.7980   46.1910 C   0  0  0  0  0  0  0  0  0  0  0  0
   57.7730   31.9640   43.0010 S   0  0  0  0  0  0  0  0  0  0  0  0
   56.5100   28.5625   43.4529 H   0  0  0  0  0  0  0  0  0  0  0  0
   55.7416   29.4850   42.1168 H   0  0  0  0  0  0  0  0  0  0  0  0
   57.5176   29.2154   42.1168 H   0  0  0  0  0  0  0  0  0  0  0  0
   57.2844   33.2773   47.3868 H   0  0  0  0  0  0  0  0  0  0  0  0
   58.8235   32.5858   50.5674 H   0  0  0  0  0  0  0  0  0  0  0  0
   57.3068   32.6224   49.6056 H   0  0  0  0  0  0  0  0  0  0  0  0
   58.3350   31.1495   49.6056 H   0  0  0  0  0  0  0  0  0  0  0  0
   60.7812   31.8993   50.3820 H   0  0  0  0  0  0  0  0  0  0  0  0
   63.2629   31.9218   50.2916 H   0  0  0  0  0  0  0  0  0  0  0  0
   64.4417   32.8120   48.2977 H   0  0  0  0  0  0  0  0  0  0  0  0
   64.2433   34.4338   46.3945 H   0  0  0  0  0  0  0  0  0  0  0  0
   63.7473   32.9989   45.4345 H   0  0  0  0  0  0  0  0  0  0  0  0
   62.7257   34.4763   45.4345 H   0  0  0  0  0  0  0  0  0  0  0  0
   60.9453   34.2011   45.3033 H   0  0  0  0  0  0  0  0  0  0  0  0
  1  2  1  0
  2  3  2  0
  3  4  1  0
  4  5  2  0
  5  6  1  0
  6  7  1  0
  7  8  2  0
  8  9  1  0
  9 10  1  0
  9 11  2  0
 11 12  1  0
 12 13  2  0
 13 14  1  0
 14 15  2  0
 15 16  1  0
 15 17  1  0
 17 18  2  0
  5 19  1  0
 19  2  1  0
 18  7  1  0
 17 11  1  0
  1 20  1  0
  1 21  1  0
  1 22  1  0
  8 23  1  0
 10 24  1  0
 10 25  1  0
 10 26  1  0
 12 27  1  0
 13 28  1  0
 14 29  1  0
 16 30  1  0
 16 31  1  0
 16 32  1  0
 18 33  1  0
M  END
>  <UniqueID>  (30) 
27

>  <SMILES>  (30) 
Cc1nnc(Sc2cc(C)c3cccc(C)c3c2)s1

>  <Energy>  (30) 
69.66227332959099

>  <Genealogy>  (30) 
Cc1nnc(Sc2cc(C)c3cccc(C)c3c2)s1 (3D coordinates assigned)
Cc1nnc(Sc2cc(C)c3cccc(C)c3c2)s1 (optimized conformer: 69.66227332959099 kcal/mol)

>  <smiles>  (30) 
Cc1nnc(Sc2cc(C)c3cccc(C)c3c2)s1

>  <score_type>  (30) 
oracle

>  <origin>  (30) 
adg

>  <m_score__min__energy>  (30) 
-8.5299999999999994

>  <m_primary>  (30) 
energy

$$$$
30:0
     RDKit          3D

 45 47  0  0  0  0  0  0  0  0999 V2000
   56.6500   20.7150   43.0970 C   0  0  0  0  0  0  0  0  0  0  0  0
   55.9470   21.8690   43.5430 O   0  0  0  0  0  0  0  0  0  0  0  0
   56.5590   23.0740   43.9170 C   0  0  0  0  0  0  0  0  0  0  0  0
   56.9550   23.2340   45.2480 C   0  0  0  0  0  0  0  0  0  0  0  0
   57.5600   24.4200   45.6720 C   0  0  0  0  0  0  0  0  0  0  0  0
   57.7740   25.4780   44.7680 C   0  0  0  0  0  0  0  0  0  0  0  0
   58.4110   26.7390   45.2290 C   0  0  0  0  0  0  0  0  0  0  0  0
   58.5500   26.9340   46.5080 N   0  0  0  0  0  0  0  0  0  0  0  0
   59.2830   28.3460   47.1830 S   0  0  0  0  0  0  0  0  0  0  0  0
   58.2830   29.0640   48.0480 O   0  0  0  0  0  0  0  0  0  0  0  0
   60.4700   27.9400   48.0110 O   0  0  0  0  0  0  0  0  0  0  0  0
   59.8210   29.3610   45.8770 N   0  0  0  0  0  0  0  0  0  0  0  0
   59.9700   30.7540   46.3130 C   0  0  0  0  0  0  0  0  0  0  0  0
   58.9560   29.2060   44.6890 C   0  0  2  0  0  0  0  0  0  0  0  0
   57.5580   29.7730   44.8670 C   0  0  0  0  0  0  0  0  0  0  0  0
   56.7410   29.1530   45.5990 O   0  0  0  0  0  0  0  0  0  0  0  0
   57.1990   31.0300   44.2680 N   0  0  0  0  0  0  0  0  0  0  0  0
   56.8600   32.1400   44.8630 C   0  0  0  0  0  0  0  0  0  0  0  0
   57.8130   33.0810   45.4820 C   0  0  0  0  0  0  0  0  0  0  0  0
   57.9330   33.1810   46.8740 C   0  0  0  0  0  0  0  0  0  0  0  0
   58.7930   34.1330   47.4230 C   0  0  0  0  0  0  0  0  0  0  0  0
   59.4860   34.9730   46.6080 N   0  0  0  0  0  0  0  0  0  0  0  0
   59.3700   34.9130   45.2550 C   0  0  0  0  0  0  0  0  0  0  0  0
   58.5260   33.9700   44.6710 C   0  0  0  0  0  0  0  0  0  0  0  0
   58.9460   27.7370   44.2150 C   0  0  0  0  0  0  0  0  0  0  0  0
   57.3930   25.3060   43.4250 C   0  0  0  0  0  0  0  0  0  0  0  0
   56.7870   24.1180   43.0030 C   0  0  0  0  0  0  0  0  0  0  0  0
   57.0003   20.1400   43.9669 H   0  0  0  0  0  0  0  0  0  0  0  0
   55.9796   20.0892   42.4897 H   0  0  0  0  0  0  0  0  0  0  0  0
   57.5136   21.0237   42.4897 H   0  0  0  0  0  0  0  0  0  0  0  0
   56.7889   22.4191   45.9679 H   0  0  0  0  0  0  0  0  0  0  0  0
   57.8718   24.5280   46.7213 H   0  0  0  0  0  0  0  0  0  0  0  0
   59.9745   30.7957   47.4122 H   0  0  0  0  0  0  0  0  0  0  0  0
   60.9167   31.1598   45.9268 H   0  0  0  0  0  0  0  0  0  0  0  0
   59.1306   31.3509   45.9268 H   0  0  0  0  0  0  0  0  0  0  0  0
   59.3993   29.8208   43.8918 H   0  0  0  0  0  0  0  0  0  0  0  0
   55.7901   32.3919   44.9063 H   0  0  0  0  0  0  0  0  0  0  0  0
   57.3537   32.5141   47.5295 H   0  0  0  0  0  0  0  0  0  0  0  0
   58.9104   34.2041   48.5144 H   0  0  0  0  0  0  0  0  0  0  0  0
   59.9414   35.6077   44.6219 H   0  0  0  0  0  0  0  0  0  0  0  0
   58.4211   33.9251   43.5769 H   0  0  0  0  0  0  0  0  0  0  0  0
   58.3213   27.6740   43.3118 H   0  0  0  0  0  0  0  0  0  0  0  0
   59.9968   27.4634   44.0389 H   0  0  0  0  0  0  0  0  0  0  0  0
   57.5733   26.1132   42.6998 H   0  0  0  0  0  0  0  0  0  0  0  0
   56.4874   23.9999   41.9512 H   0  0  0  0  0  0  0  0  0  0  0  0
  1  2  1  0
  2  3  1  0
  3  4  2  0
  4  5  1  0
  5  6  2  0
  6  7  1  0
  7  8  2  0
  8  9  1  0
  9 10  2  0
  9 11  2  0
  9 12  1  0
 12 13  1  0
 12 14  1  0
 14 15  1  0
 15 16  2  0
 15 17  1  0
 17 18  2  3
 18 19  1  0
 19 20  2  0
 20 21  1  0
 21 22  2  0
 22 23  1  0
 23 24  2  0
 14 25  1  0
  6 26  1  0
 26 27  2  0
 27  3  1  0
 25  7  1  0
 24 19  1  0
  1 28  1  0
  1 29  1  0
  1 30  1  0
  4 31  1  0
  5 32  1  0
 13 33  1  0
 13 34  1  0
 13 35  1  0
 14 36  1  6
 18 37  1  0
 20 38  1  0
 21 39  1  0
 23 40  1  0
 24 41  1  0
 25 42  1  0
 25 43  1  0
 26 44  1  0
 27 45  1  0
M  END
>  <UniqueID>  (31) 
28

>  <SMILES>  (31) 
COc1ccc(C2=NS(=O)(=O)N(C)[C@H](C(=O)N=Cc3ccncc3)C2)cc1

>  <Energy>  (31) 
64.5789861533203

>  <Genealogy>  (31) 
COc1ccc(C2=NS(=O)(=O)N(C)[C@H](C(=O)N=Cc3ccncc3)C2)cc1 (chirality)
COc1ccc(C2=NS(=O)(=O)N(C)[C@H](C(=O)N=Cc3ccncc3)C2)cc1 (3D coordinates assigned)
COc1ccc(C2=NS(=O)(=O)N(C)[C@H](C(=O)N=Cc3ccncc3)C2)cc1 (nonaromatic ring conformer: 64.5789861533203 kcal/mol)

>  <smiles>  (31) 
COc1ccc(C2=NS(=O)(=O)N(C)C(C(=O)N=Cc3ccncc3)C2)cc1

>  <score_type>  (31) 
oracle

>  <origin>  (31) 
adg

>  <m_score__min__energy>  (31) 
-9.0299999999999994

>  <m_primary>  (31) 
energy

$$$$
31:0
     RDKit          3D

 38 40  0  0  1  0  0  0  0  0999 V2000
   59.1360   26.2360   46.9150 C   0  0  0  0  0  0  0  0  0  0  0  0
   58.4530   27.4480   46.3640 C   0  0  0  0  0  0  0  0  0  0  0  0
   59.0280   28.7020   46.4800 C   0  0  0  0  0  0  0  0  0  0  0  0
   58.3770   29.7390   45.9730 N   0  0  0  0  0  0  0  0  0  0  0  0
   57.1840   29.6510   45.3480 C   0  0  0  0  0  0  0  0  0  0  0  0
   56.5760   30.6580   44.8680 N   0  0  0  0  0  0  0  0  0  0  0  0
   57.1690   31.5710   43.9940 C   0  0  0  0  0  0  0  0  0  0  0  0
   57.7820   32.6610   44.8400 C   0  0  0  0  0  0  0  0  0  0  0  0
   57.4740   32.7930   46.1790 C   0  0  0  0  0  0  0  0  0  0  0  0
   58.0840   33.8260   46.8940 C   0  0  0  0  0  0  0  0  0  0  0  0
   58.9720   34.6760   46.2340 C   0  0  0  0  0  0  0  0  0  0  0  0
   59.5920   35.7030   46.8970 F   0  0  0  0  0  0  0  0  0  0  0  0
   59.2670   34.5270   44.8950 C   0  0  0  0  0  0  0  0  0  0  0  0
   58.6650   33.5090   44.1940 C   0  0  0  0  0  0  0  0  0  0  0  0
   56.6230   28.4420   45.2320 N   0  0  0  0  0  0  0  0  0  0  0  0
   57.2320   27.3470   45.7260 C   0  0  0  0  0  0  0  0  0  0  0  0
   56.6350   26.0180   45.6090 C   0  0  0  0  0  0  0  0  0  0  0  0
   57.0980   24.9670   44.8400 C   0  0  0  0  0  0  0  0  0  0  0  0
   56.2010   23.9240   45.0570 C   0  0  0  0  0  0  0  0  0  0  0  0
   55.2500   24.3540   45.9240 N   0  0  0  0  0  0  0  0  0  0  0  0
   54.1430   23.5090   46.3750 C   0  0  0  0  0  0  0  0  0  0  0  0
   55.5060   25.6120   46.2570 N   0  0  0  0  0  0  0  0  0  0  0  0
   59.1159   26.2717   48.0142 H   0  0  0  0  0  0  0  0  0  0  0  0
   58.6147   25.3317   46.5679 H   0  0  0  0  0  0  0  0  0  0  0  0
   60.1796   26.2136   46.5679 H   0  0  0  0  0  0  0  0  0  0  0  0
   59.9991   28.8341   46.9796 H   0  0  0  0  0  0  0  0  0  0  0  0
   58.7820   30.7020   46.0410 H   0  0  0  0  0  0  0  0  0  0  0  0
   57.9480   31.0722   43.3987 H   0  0  0  0  0  0  0  0  0  0  0  0
   56.4254   31.9868   43.2981 H   0  0  0  0  0  0  0  0  0  0  0  0
   56.7690   32.1050   46.6684 H   0  0  0  0  0  0  0  0  0  0  0  0
   57.8673   33.9676   47.9631 H   0  0  0  0  0  0  0  0  0  0  0  0
   59.9709   35.2101   44.3971 H   0  0  0  0  0  0  0  0  0  0  0  0
   58.8839   33.3691   43.1251 H   0  0  0  0  0  0  0  0  0  0  0  0
   57.9875   24.9566   44.1930 H   0  0  0  0  0  0  0  0  0  0  0  0
   56.2543   22.9233   44.6034 H   0  0  0  0  0  0  0  0  0  0  0  0
   54.1197   23.4912   47.4746 H   0  0  0  0  0  0  0  0  0  0  0  0
   53.1938   23.9143   45.9946 H   0  0  0  0  0  0  0  0  0  0  0  0
   54.2837   22.4865   45.9946 H   0  0  0  0  0  0  0  0  0  0  0  0
  1  2  1  0
  2  3  2  0
  3  4  1  0
  4  5  1  0
  5  6  2  0
  6  7  1  0
  7  8  1  0
  8  9  2  0
  9 10  1  0
 10 11  2  0
 11 12  1  0
 11 13  1  0
 13 14  2  0
  5 15  1  0
 15 16  2  0
 16 17  1  0
 17 18  1  0
 18 19  2  0
 19 20  1  0
 20 21  1  0
 20 22  1  0
 16  2  1  0
 22 17  2  0
 14  8  1  0
  1 23  1  0
  1 24  1  0
  1 25  1  0
  3 26  1  0
  4 27  1  0
  7 28  1  0
  7 29  1  0
  9 30  1  0
 10 31  1  0
 13 32  1  0
 14 33  1  0
 18 34  1  0
 19 35  1  0
 21 36  1  0
 21 37  1  0
 21 38  1  0
M  END
>  <smiles>  (32) 
Cc1c[nH]c(=NCc2ccc(F)cc2)nc1-c1ccn(C)n1

>  <score_type>  (32) 
oracle

>  <origin>  (32) 
adg

>  <m_score__min__energy>  (32) 
-7.4299999999999997

>  <m_primary>  (32) 
energy

$$$$
32:0
     RDKit          3D

 36 38  0  0  0  0  0  0  0  0999 V2000
   60.2640   29.5910   46.9360 C   0  0  0  0  0  0  0  0  0  0  0  0
   60.7210   29.3470   45.6370 C   0  0  0  0  0  0  0  0  0  0  0  0
   59.9020   28.6800   44.7200 C   0  0  0  0  0  0  0  0  0  0  0  0
   58.6200   28.2470   45.1000 C   0  0  0  0  0  0  0  0  0  0  0  0
   57.7610   27.4590   44.1450 C   0  0  0  0  0  0  0  0  0  0  0  0
   57.3930   28.2790   42.9760 N   0  0  0  0  0  0  0  0  0  0  0  0
   56.4350   29.3460   43.3090 C   0  0  0  0  0  0  0  0  0  0  0  0
   57.1390   30.6470   43.5470 C   0  0  0  0  0  0  0  0  0  0  0  0
   57.4570   31.5850   42.5920 C   0  0  0  0  0  0  0  0  0  0  0  0
   58.0160   32.5960   43.2080 O   0  0  0  0  0  0  0  0  0  0  0  0
   58.0510   32.3030   44.4900 C   0  0  0  0  0  0  0  0  0  0  0  0
   58.5710   33.2150   45.5270 C   0  0  0  0  0  0  0  0  0  0  0  0
   58.4590   32.8890   46.8910 C   0  0  0  0  0  0  0  0  0  0  0  0
   58.9320   33.7690   47.8680 C   0  0  0  0  0  0  0  0  0  0  0  0
   59.5190   34.9800   47.4950 C   0  0  0  0  0  0  0  0  0  0  0  0
   59.6330   35.3140   46.1420 C   0  0  0  0  0  0  0  0  0  0  0  0
   59.1610   34.4370   45.1610 C   0  0  0  0  0  0  0  0  0  0  0  0
   57.5270   31.0860   44.7600 N   0  0  0  0  0  0  0  0  0  0  0  0
   58.1640   28.5080   46.4030 C   0  0  0  0  0  0  0  0  0  0  0  0
   58.9860   29.1760   47.3180 C   0  0  0  0  0  0  0  0  0  0  0  0
   60.9116   30.1103   47.6578 H   0  0  0  0  0  0  0  0  0  0  0  0
   61.7253   29.6799   45.3362 H   0  0  0  0  0  0  0  0  0  0  0  0
   60.2626   28.4937   43.6976 H   0  0  0  0  0  0  0  0  0  0  0  0
   58.3185   26.5741   43.8041 H   0  0  0  0  0  0  0  0  0  0  0  0
   56.8416   27.1539   44.6661 H   0  0  0  0  0  0  0  0  0  0  0  0
   56.9200   27.6460   42.2900 H   0  0  0  0  0  0  0  0  0  0  0  0
   55.7279   29.4673   42.4751 H   0  0  0  0  0  0  0  0  0  0  0  0
   55.9024   29.0632   44.2290 H   0  0  0  0  0  0  0  0  0  0  0  0
   57.2751   31.5010   41.5104 H   0  0  0  0  0  0  0  0  0  0  0  0
   57.9968   31.9366   47.1899 H   0  0  0  0  0  0  0  0  0  0  0  0
   58.8418   33.5074   48.9326 H   0  0  0  0  0  0  0  0  0  0  0  0
   59.8916   35.6710   48.2655 H   0  0  0  0  0  0  0  0  0  0  0  0
   60.0948   36.2684   45.8490 H   0  0  0  0  0  0  0  0  0  0  0  0
   59.2518   34.7045   44.0979 H   0  0  0  0  0  0  0  0  0  0  0  0
   57.1566   28.1860   46.7054 H   0  0  0  0  0  0  0  0  0  0  0  0
   58.6256   29.3742   48.3382 H   0  0  0  0  0  0  0  0  0  0  0  0
  1  2  2  0
  2  3  1  0
  3  4  2  0
  4  5  1  0
  5  6  1  0
  6  7  1  0
  7  8  1  0
  8  9  2  0
  9 10  1  0
 10 11  1  0
 11 12  1  0
 12 13  2  0
 13 14  1  0
 14 15  2  0
 15 16  1  0
 16 17  2  0
 11 18  2  0
  4 19  1  0
 19 20  2  0
 20  1  1  0
 18  8  1  0
 17 12  1  0
  1 21  1  0
  2 22  1  0
  3 23  1  0
  5 24  1  0
  5 25  1  0
  6 26  1  0
  7 27  1  0
  7 28  1  0
  9 29  1  0
 13 30  1  0
 14 31  1  0
 15 32  1  0
 16 33  1  0
 17 34  1  0
 19 35  1  0
 20 36  1  0
M  END
>  <UniqueID>  (33) 
29

>  <SMILES>  (33) 
c1ccc(CNCc2coc(-c3ccccc3)n2)cc1

>  <Energy>  (33) 
63.997021626304345

>  <Genealogy>  (33) 
c1ccc(CNCc2coc(-c3ccccc3)n2)cc1 (3D coordinates assigned)
c1ccc(CNCc2coc(-c3ccccc3)n2)cc1 (optimized conformer: 63.997021626304345 kcal/mol)

>  <smiles>  (33) 
c1ccc(CNCc2coc(-c3ccccc3)n2)cc1

>  <score_type>  (33) 
oracle

>  <origin>  (33) 
adg

>  <m_score__min__energy>  (33) 
-7.4000000000000004

>  <m_primary>  (33) 
energy

$$$$
33:0
     RDKit          3D

 58 61  0  0  0  0  0  0  0  0999 V2000
   59.6820   25.3650   45.7270 O   0  0  0  0  0  0  0  0  0  0  0  0
   58.4740   25.9410   46.4150 S   0  0  0  0  0  0  0  0  0  0  0  0
   58.7140   25.9200   47.9010 O   0  0  0  0  0  0  0  0  0  0  0  0
   58.2320   27.6090   45.9030 C   0  0  0  0  0  0  0  0  0  0  0  0
   58.5120   28.6590   46.7840 C   0  0  0  0  0  0  0  0  0  0  0  0
   58.2560   29.9810   46.4100 C   0  0  0  0  0  0  0  0  0  0  0  0
   57.6980   30.2680   45.1570 C   0  0  0  0  0  0  0  0  0  0  0  0
   57.4340   31.6340   44.7970 N   0  0  0  0  0  0  0  0  0  0  0  0
   58.1500   32.7590   45.3320 C   0  0  0  0  0  0  0  0  0  0  0  0
   57.4620   34.2460   45.2250 S   0  0  0  0  0  0  0  0  0  0  0  0
   59.5040   32.6000   45.8050 N   0  0  0  0  0  0  0  0  0  0  0  0
   60.2940   33.6630   46.4260 C   0  0  0  0  0  0  0  0  0  0  0  0
   61.4700   33.0700   47.1500 C   0  0  0  0  0  0  0  0  0  0  0  0
   61.2870   32.2470   48.2710 C   0  0  0  0  0  0  0  0  0  0  0  0
   62.3960   31.7270   48.9410 C   0  0  0  0  0  0  0  0  0  0  0  0
   63.6790   32.0390   48.4900 C   0  0  0  0  0  0  0  0  0  0  0  0
   63.8450   32.8530   47.4110 N   0  0  0  0  0  0  0  0  0  0  0  0
   62.7790   33.3740   46.7430 C   0  0  0  0  0  0  0  0  0  0  0  0
   57.4490   29.2150   44.2600 C   0  0  0  0  0  0  0  0  0  0  0  0
   57.7060   27.8940   44.6360 C   0  0  0  0  0  0  0  0  0  0  0  0
   57.0510   25.0030   46.0320 N   0  0  0  0  0  0  0  0  0  0  0  0
   57.0000   24.7490   44.5780 C   0  0  0  0  0  0  0  0  0  0  0  0
   55.8420   23.8010   44.2010 C   0  0  0  0  0  0  0  0  0  0  0  0
   55.0400   23.4590   45.3810 N   0  0  0  0  0  0  0  0  0  0  0  0
   53.6030   23.4530   45.3040 C   0  0  0  0  0  0  0  0  0  0  0  0
   52.8400   22.9190   46.3580 C   0  0  0  0  0  0  0  0  0  0  0  0
   51.4420   22.9810   46.3210 C   0  0  0  0  0  0  0  0  0  0  0  0
   50.7940   23.5820   45.2380 C   0  0  0  0  0  0  0  0  0  0  0  0
   51.5440   24.1170   44.1840 C   0  0  0  0  0  0  0  0  0  0  0  0
   52.9440   24.0490   44.2140 C   0  0  0  0  0  0  0  0  0  0  0  0
   55.7260   23.0040   46.5970 C   0  0  0  0  0  0  0  0  0  0  0  0
   57.0720   23.7310   46.7700 C   0  0  0  0  0  0  0  0  0  0  0  0
   58.9357   28.4430   47.7759 H   0  0  0  0  0  0  0  0  0  0  0  0
   58.4939   30.8012   47.1033 H   0  0  0  0  0  0  0  0  0  0  0  0
   56.7020   31.8180   44.0730 H   0  0  0  0  0  0  0  0  0  0  0  0
   60.0020   31.7070   45.5940 H   0  0  0  0  0  0  0  0  0  0  0  0
   60.6543   34.3518   45.6477 H   0  0  0  0  0  0  0  0  0  0  0  0
   59.6648   34.2095   47.1439 H   0  0  0  0  0  0  0  0  0  0  0  0
   60.2713   32.0117   48.6217 H   0  0  0  0  0  0  0  0  0  0  0  0
   62.2594   31.0765   49.8175 H   0  0  0  0  0  0  0  0  0  0  0  0
   64.5580   31.6267   49.0070 H   0  0  0  0  0  0  0  0  0  0  0  0
   64.8110   33.0860   47.0890 H   0  0  0  0  0  0  0  0  0  0  0  0
   62.9441   34.0362   45.8803 H   0  0  0  0  0  0  0  0  0  0  0  0
   57.0502   29.4317   43.2580 H   0  0  0  0  0  0  0  0  0  0  0  0
   57.4944   27.0740   43.9340 H   0  0  0  0  0  0  0  0  0  0  0  0
   56.8611   25.7063   44.0542 H   0  0  0  0  0  0  0  0  0  0  0  0
   57.9444   24.2690   44.2819 H   0  0  0  0  0  0  0  0  0  0  0  0
   55.1982   24.2962   43.4592 H   0  0  0  0  0  0  0  0  0  0  0  0
   56.2667   22.8757   43.7845 H   0  0  0  0  0  0  0  0  0  0  0  0
   53.3444   22.4502   47.2158 H   0  0  0  0  0  0  0  0  0  0  0  0
   50.8519   22.5557   47.1462 H   0  0  0  0  0  0  0  0  0  0  0  0
   49.6955   23.6345   45.2140 H   0  0  0  0  0  0  0  0  0  0  0  0
   51.0347   24.5909   43.3319 H   0  0  0  0  0  0  0  0  0  0  0  0
   53.5300   24.4640   43.3807 H   0  0  0  0  0  0  0  0  0  0  0  0
   55.0892   23.2118   47.4695 H   0  0  0  0  0  0  0  0  0  0  0  0
   55.9171   21.9242   46.5109 H   0  0  0  0  0  0  0  0  0  0  0  0
   57.2439   23.9314   47.8378 H   0  0  0  0  0  0  0  0  0  0  0  0
   57.8800   23.0967   46.3765 H   0  0  0  0  0  0  0  0  0  0  0  0
  1  2  2  0
  2  3  2  0
  2  4  1  0
  4  5  2  0
  5  6  1  0
  6  7  2  0
  7  8  1  0
  8  9  1  0
  9 10  2  0
  9 11  1  0
 11 12  1  0
 12 13  1  0
 13 14  2  0
 14 15  1  0
 15 16  2  0
 16 17  1  0
 17 18  2  0
  7 19  1  0
 19 20  2  0
  2 21  1  0
 21 22  1  0
 22 23  1  0
 23 24  1  0
 24 25  1  0
 25 26  2  0
 26 27  1  0
 27 28  2  0
 28 29  1  0
 29 30  2  0
 24 31  1  0
 31 32  1  0
 20  4  1  0
 32 21  1  0
 18 13  1  0
 30 25  1  0
  5 33  1  0
  6 34  1  0
  8 35  1  0
 11 36  1  0
 12 37  1  0
 12 38  1  0
 14 39  1  0
 15 40  1  0
 16 41  1  0
 17 42  1  0
 18 43  1  0
 19 44  1  0
 20 45  1  0
 22 46  1  0
 22 47  1  0
 23 48  1  0
 23 49  1  0
 26 50  1  0
 27 51  1  0
 28 52  1  0
 29 53  1  0
 30 54  1  0
 31 55  1  0
 31 56  1  0
 32 57  1  0
 32 58  1  0
M  CHG  1  17   1
M  END
>  <UniqueID>  (34) 
30

>  <SMILES>  (34) 
O=S(=O)(c1ccc(NC(=S)NCc2ccc[nH+]c2)cc1)N1CCN(c2ccccc2)CC1

>  <Energy>  (34) 
73.44906448934783

>  <Genealogy>  (34) 
O=S(=O)(c1ccc(NC(=S)NCc2ccc[nH+]c2)cc1)N1CCN(c2ccccc2)CC1 (protonated)
O=S(=O)(c1ccc(NC(=S)NCc2ccc[nH+]c2)cc1)N1CCN(c2ccccc2)CC1 (3D coordinates assigned)
O=S(=O)(c1ccc(NC(=S)NCc2ccc[nH+]c2)cc1)N1CCN(c2ccccc2)CC1 (nonaromatic ring conformer: 73.44906448934783 kcal/mol)

>  <smiles>  (34) 
O=S(=O)(c1ccc(NC(=S)NCc2cccnc2)cc1)N1CCN(c2ccccc2)CC1

>  <score_type>  (34) 
oracle

>  <origin>  (34) 
adg

>  <m_score__min__energy>  (34) 
-7.9500000000000002

>  <m_primary>  (34) 
energy

$$$$
34:0
     RDKit          3D

 49 52  0  0  0  0  0  0  0  0999 V2000
   58.5160   27.3330   43.9710 C   0  0  0  0  0  0  0  0  0  0  0  0
   58.0150   27.9270   45.1650 O   0  0  0  0  0  0  0  0  0  0  0  0
   58.8200   28.4920   46.1660 C   0  0  0  0  0  0  0  0  0  0  0  0
   58.5180   28.3660   47.5330 C   0  0  0  0  0  0  0  0  0  0  0  0
   59.3510   28.9410   48.4960 C   0  0  0  0  0  0  0  0  0  0  0  0
   60.5070   29.6450   48.1150 C   0  0  0  0  0  0  0  0  0  0  0  0
   61.3990   30.2250   49.0880 N   0  0  0  0  0  0  0  0  0  0  0  0
   61.4380   31.6510   49.4180 C   0  0  0  0  0  0  0  0  0  0  0  0
   62.3170   32.4040   48.4590 C   0  0  0  0  0  0  0  0  0  0  0  0
   63.6390   32.1150   48.1760 C   0  0  0  0  0  0  0  0  0  0  0  0
   64.1090   33.0530   47.3350 N   0  0  0  0  0  0  0  0  0  0  0  0
   63.0890   33.9060   47.1250 C   0  0  0  0  0  0  0  0  0  0  0  0
   61.9840   33.5450   47.8110 N   0  0  0  0  0  0  0  0  0  0  0  0
   60.6930   34.2400   47.7890 C   0  0  0  0  0  0  0  0  0  0  0  0
   59.7330   33.5320   46.8690 C   0  0  0  0  0  0  0  0  0  0  0  0
   58.9310   32.4830   47.3440 C   0  0  0  0  0  0  0  0  0  0  0  0
   58.1200   31.7610   46.4640 C   0  0  0  0  0  0  0  0  0  0  0  0
   58.0870   32.0800   45.0960 C   0  0  0  0  0  0  0  0  0  0  0  0
   57.2950   31.2980   44.1800 N   0  0  0  0  0  0  0  0  0  0  0  0
   56.3690   30.3720   44.4900 C   0  0  0  0  0  0  0  0  0  0  0  0
   55.8750   29.8500   43.3170 C   0  0  0  0  0  0  0  0  0  0  0  0
   56.4830   30.4390   42.2690 N   0  0  0  0  0  0  0  0  0  0  0  0
   57.3430   31.3150   42.8290 C   0  0  0  0  0  0  0  0  0  0  0  0
   58.8600   33.1600   44.6330 C   0  0  0  0  0  0  0  0  0  0  0  0
   59.6720   33.8810   45.5130 C   0  0  0  0  0  0  0  0  0  0  0  0
   60.7960   29.7810   46.7480 C   0  0  0  0  0  0  0  0  0  0  0  0
   59.9610   29.2080   45.7830 C   0  0  0  0  0  0  0  0  0  0  0  0
   60.2660   29.3460   44.4690 F   0  0  0  0  0  0  0  0  0  0  0  0
   59.2054   26.5157   44.2294 H   0  0  0  0  0  0  0  0  0  0  0  0
   57.6782   26.9333   43.3808 H   0  0  0  0  0  0  0  0  0  0  0  0
   59.0513   28.0914   43.3808 H   0  0  0  0  0  0  0  0  0  0  0  0
   57.6210   27.8117   47.8462 H   0  0  0  0  0  0  0  0  0  0  0  0
   59.1001   28.8420   49.5624 H   0  0  0  0  0  0  0  0  0  0  0  0
   61.9860   29.5840   49.6690 H   0  0  0  0  0  0  0  0  0  0  0  0
   60.4180   32.0596   49.3672 H   0  0  0  0  0  0  0  0  0  0  0  0
   61.8494   31.7641   50.4319 H   0  0  0  0  0  0  0  0  0  0  0  0
   64.2098   31.2621   48.5718 H   0  0  0  0  0  0  0  0  0  0  0  0
   65.0700   33.1120   46.9320 H   0  0  0  0  0  0  0  0  0  0  0  0
   63.1488   34.7901   46.4733 H   0  0  0  0  0  0  0  0  0  0  0  0
   60.2738   34.2589   48.8058 H   0  0  0  0  0  0  0  0  0  0  0  0
   60.8458   35.2667   47.4249 H   0  0  0  0  0  0  0  0  0  0  0  0
   58.9407   32.2278   48.4139 H   0  0  0  0  0  0  0  0  0  0  0  0
   57.5017   30.9353   46.8460 H   0  0  0  0  0  0  0  0  0  0  0  0
   56.0605   30.0826   45.5054 H   0  0  0  0  0  0  0  0  0  0  0  0
   55.1018   29.0708   43.2457 H   0  0  0  0  0  0  0  0  0  0  0  0
   58.0098   31.9708   42.2500 H   0  0  0  0  0  0  0  0  0  0  0  0
   58.8252   33.4395   43.5697 H   0  0  0  0  0  0  0  0  0  0  0  0
   60.2667   34.7274   45.1390 H   0  0  0  0  0  0  0  0  0  0  0  0
   61.6873   30.3433   46.4328 H   0  0  0  0  0  0  0  0  0  0  0  0
  1  2  1  0
  2  3  1  0
  3  4  2  0
  4  5  1  0
  5  6  2  0
  6  7  1  0
  7  8  1  0
  8  9  1  0
  9 10  2  0
 10 11  1  0
 11 12  2  0
 12 13  1  0
 13 14  1  0
 14 15  1  0
 15 16  2  0
 16 17  1  0
 17 18  2  0
 18 19  1  0
 19 20  1  0
 20 21  2  0
 21 22  1  0
 22 23  2  0
 18 24  1  0
 24 25  2  0
  6 26  1  0
 26 27  2  0
 27 28  1  0
 27  3  1  0
 13  9  1  0
 25 15  1  0
 23 19  1  0
  1 29  1  0
  1 30  1  0
  1 31  1  0
  4 32  1  0
  5 33  1  0
  7 34  1  0
  8 35  1  0
  8 36  1  0
 10 37  1  0
 11 38  1  0
 12 39  1  0
 14 40  1  0
 14 41  1  0
 16 42  1  0
 17 43  1  0
 20 44  1  0
 21 45  1  0
 23 46  1  0
 24 47  1  0
 25 48  1  0
 26 49  1  0
M  CHG  1  11   1
M  END
>  <UniqueID>  (35) 
31

>  <SMILES>  (35) 
COc1ccc(NCc2c[nH+]cn2Cc2ccc(-n3ccnc3)cc2)cc1F

>  <Energy>  (35) 
109.75067531931956

>  <Genealogy>  (35) 
COc1ccc(NCc2c[nH+]cn2Cc2ccc(-n3ccnc3)cc2)cc1F (protonated)
COc1ccc(NCc2c[nH+]cn2Cc2ccc(-n3ccnc3)cc2)cc1F (3D coordinates assigned)
COc1ccc(NCc2c[nH+]cn2Cc2ccc(-n3ccnc3)cc2)cc1F (optimized conformer: 109.75067531931956 kcal/mol)

>  <smiles>  (35) 
COc1ccc(NCc2cncn2Cc2ccc(-n3ccnc3)cc2)cc1F

>  <score_type>  (35) 
oracle

>  <origin>  (35) 
adg

>  <m_score__min__energy>  (35) 
-6.5300000000000002

>  <m_primary>  (35) 
energy

$$$$
35:0
     RDKit          3D

 24 26  0  0  0  0  0  0  0  0999 V2000
   56.7810   29.9750   43.0060 C   0  0  0  0  0  0  0  0  0  0  0  0
   57.0240   31.2170   42.4260 C   0  0  0  0  0  0  0  0  0  0  0  0
   57.6420   32.2330   43.1600 C   0  0  0  0  0  0  0  0  0  0  0  0
   58.0350   32.0220   44.5050 C   0  0  0  0  0  0  0  0  0  0  0  0
   57.7780   30.7450   45.0820 C   0  0  0  0  0  0  0  0  0  0  0  0
   57.1560   29.7380   44.3260 C   0  0  0  0  0  0  0  0  0  0  0  0
   58.1450   30.4790   46.4060 C   0  0  0  0  0  0  0  0  0  0  0  0
   58.7630   31.4570   47.1770 C   0  0  0  0  0  0  0  0  0  0  0  0
   59.0300   32.7210   46.6430 C   0  0  0  0  0  0  0  0  0  0  0  0
   59.6560   33.6880   47.4470 C   0  0  0  0  0  0  0  0  0  0  0  0
   59.9320   34.9550   46.9400 C   0  0  0  0  0  0  0  0  0  0  0  0
   59.5880   35.2720   45.6280 C   0  0  0  0  0  0  0  0  0  0  0  0
   58.9650   34.3240   44.8120 C   0  0  0  0  0  0  0  0  0  0  0  0
   58.6700   33.0270   45.2990 C   0  0  0  0  0  0  0  0  0  0  0  0
   56.2929   29.1810   42.4217 H   0  0  0  0  0  0  0  0  0  0  0  0
   56.7275   31.3999   41.3826 H   0  0  0  0  0  0  0  0  0  0  0  0
   57.8258   33.2092   42.6875 H   0  0  0  0  0  0  0  0  0  0  0  0
   56.9636   28.7547   44.7800 H   0  0  0  0  0  0  0  0  0  0  0  0
   57.9430   29.4886   46.8400 H   0  0  0  0  0  0  0  0  0  0  0  0
   59.0445   31.2341   48.2168 H   0  0  0  0  0  0  0  0  0  0  0  0
   59.9299   33.4426   48.4837 H   0  0  0  0  0  0  0  0  0  0  0  0
   60.4223   35.7065   47.5763 H   0  0  0  0  0  0  0  0  0  0  0  0
   59.8080   36.2744   45.2319 H   0  0  0  0  0  0  0  0  0  0  0  0
   58.7001   34.5885   43.7776 H   0  0  0  0  0  0  0  0  0  0  0  0
  1  2  2  0
  2  3  1  0
  3  4  2  0
  4  5  1  0
  5  6  2  0
  5  7  1  0
  7  8  2  0
  8  9  1  0
  9 10  2  0
 10 11  1  0
 11 12  2  0
 12 13  1  0
 13 14  2  0
  6  1  1  0
 14  9  1  0
 14  4  1  0
  1 15  1  0
  2 16  1  0
  3 17  1  0
  6 18  1  0
  7 19  1  0
  8 20  1  0
 10 21  1  0
 11 22  1  0
 12 23  1  0
 13 24  1  0
M  END
>  <UniqueID>  (36) 
32

>  <SMILES>  (36) 
c1ccc2c(c1)ccc1ccccc12

>  <Energy>  (36) 
37.93193874287029

>  <Genealogy>  (36) 
c1ccc2c(c1)ccc1ccccc12 (3D coordinates assigned)
c1ccc2c(c1)ccc1ccccc12 (optimized conformer: 37.93193874287029 kcal/mol)

>  <smiles>  (36) 
c1ccc2c(c1)ccc1ccccc12

>  <score_type>  (36) 
oracle

>  <origin>  (36) 
adg

>  <m_score__min__energy>  (36) 
-6.4100000000000001

>  <m_primary>  (36) 
energy

$$$$
36:0
     RDKit          3D

 38 39  0  0  0  0  0  0  0  0999 V2000
   59.2360   34.4010   46.9540 C   0  0  0  0  0  0  0  0  0  0  0  0
   58.4060   33.8980   45.8470 N   0  0  0  0  0  0  0  0  0  0  0  0
   59.0960   34.1280   44.5630 C   0  0  0  0  0  0  0  0  0  0  0  0
   57.9640   32.4920   46.0840 C   0  0  1  0  0  0  0  0  0  0  0  0
   57.5600   31.8100   44.7610 C   0  0  0  0  0  0  0  0  0  0  0  0
   56.2690   31.1360   44.8540 N   0  0  0  0  0  0  0  0  0  0  0  0
   56.0730   29.7370   44.6130 C   0  0  0  0  0  0  0  0  0  0  0  0
   55.0030   29.3380   44.0760 O   0  0  0  0  0  0  0  0  0  0  0  0
   57.1270   28.7640   44.9800 C   0  0  0  0  0  0  0  0  0  0  0  0
   57.4380   28.5220   46.3290 C   0  0  0  0  0  0  0  0  0  0  0  0
   58.4400   27.6100   46.6750 C   0  0  0  0  0  0  0  0  0  0  0  0
   59.1520   26.9200   45.6800 C   0  0  0  0  0  0  0  0  0  0  0  0
   60.1830   25.9810   46.0410 N   0  0  0  0  0  0  0  0  0  0  0  0
   61.3100   26.3800   46.4010 O   0  0  0  0  0  0  0  0  0  0  0  0
   59.9430   24.6260   45.9960 O   0  0  0  0  0  0  0  0  0  0  0  0
   58.8430   27.1630   44.3320 C   0  0  0  0  0  0  0  0  0  0  0  0
   57.8420   28.0750   43.9840 C   0  0  0  0  0  0  0  0  0  0  0  0
   58.9390   31.6620   46.9020 C   0  0  0  0  0  0  0  0  0  0  0  0
   59.9810   30.9090   46.3750 C   0  0  0  0  0  0  0  0  0  0  0  0
   60.6970   30.1920   47.3420 C   0  0  0  0  0  0  0  0  0  0  0  0
   60.2190   30.3680   48.6350 C   0  0  0  0  0  0  0  0  0  0  0  0
   58.9060   31.4140   48.5710 S   0  0  0  0  0  0  0  0  0  0  0  0
   58.7758   34.1221   47.9134 H   0  0  0  0  0  0  0  0  0  0  0  0
   60.2417   33.9603   46.8879 H   0  0  0  0  0  0  0  0  0  0  0  0
   59.3107   35.4965   46.8879 H   0  0  0  0  0  0  0  0  0  0  0  0
   60.1235   34.4705   44.7551 H   0  0  0  0  0  0  0  0  0  0  0  0
   59.1234   33.1904   43.9884 H   0  0  0  0  0  0  0  0  0  0  0  0
   58.5554   34.8945   43.9884 H   0  0  0  0  0  0  0  0  0  0  0  0
   57.0675   32.5538   46.7184 H   0  0  0  0  0  0  0  0  0  0  0  0
   57.5032   32.5747   43.9723 H   0  0  0  0  0  0  0  0  0  0  0  0
   58.3199   31.0488   44.5305 H   0  0  0  0  0  0  0  0  0  0  0  0
   56.8886   29.0545   47.1193 H   0  0  0  0  0  0  0  0  0  0  0  0
   58.6726   27.4315   47.7352 H   0  0  0  0  0  0  0  0  0  0  0  0
   59.3937   26.6308   43.5423 H   0  0  0  0  0  0  0  0  0  0  0  0
   57.6120   28.2549   42.9235 H   0  0  0  0  0  0  0  0  0  0  0  0
   60.2205   30.8789   45.3018 H   0  0  0  0  0  0  0  0  0  0  0  0
   61.5569   29.5499   47.1006 H   0  0  0  0  0  0  0  0  0  0  0  0
   60.6295   29.9028   49.5434 H   0  0  0  0  0  0  0  0  0  0  0  0
  1  2  1  0
  2  3  1  0
  2  4  1  0
  4  5  1  0
  5  6  1  0
  6  7  1  0
  7  8  2  0
  7  9  1  0
  9 10  2  0
 10 11  1  0
 11 12  2  0
 12 13  1  0
 13 14  2  0
 13 15  1  0
 12 16  1  0
 16 17  2  0
  4 18  1  0
 18 19  2  0
 19 20  1  0
 20 21  2  0
 21 22  1  0
 17  9  1  0
 22 18  1  0
  1 23  1  0
  1 24  1  0
  1 25  1  0
  3 26  1  0
  3 27  1  0
  3 28  1  0
  4 29  1  1
  5 30  1  0
  5 31  1  0
 10 32  1  0
 11 33  1  0
 16 34  1  0
 17 35  1  0
 19 36  1  0
 20 37  1  0
 21 38  1  0
M  CHG  3   6  -1  13   1  15  -1
M  END
>  <UniqueID>  (37) 
33

>  <SMILES>  (37) 
CN(C)[C@@H](C[N-]C(=O)c1ccc([N+](=O)[O-])cc1)c1cccs1

>  <Energy>  (37) 
70.41428755903875

>  <Genealogy>  (37) 
CN(C)C(C[N-]C(=O)c1ccc([N+](=O)[O-])cc1)c1cccs1 (protonated)
CN(C)[C@@H](C[N-]C(=O)c1ccc([N+](=O)[O-])cc1)c1cccs1 (chirality)
CN(C)[C@@H](C[N-]C(=O)c1ccc([N+](=O)[O-])cc1)c1cccs1 (3D coordinates assigned)
CN(C)[C@@H](C[N-]C(=O)c1ccc([N+](=O)[O-])cc1)c1cccs1 (optimized conformer: 70.41428755903875 kcal/mol)

>  <smiles>  (37) 
CN(C)C(CNC(=O)c1ccc([N+](=O)[O-])cc1)c1cccs1

>  <score_type>  (37) 
oracle

>  <origin>  (37) 
adg

>  <m_score__min__energy>  (37) 
-8.4600000000000009

>  <m_primary>  (37) 
energy

$$$$
37:0
     RDKit          3D

 35 36  0  0  0  0  0  0  0  0999 V2000
   59.6100   35.0020   45.9660 C   0  0  0  0  0  0  0  0  0  0  0  0
   59.3300   34.2400   44.7950 O   0  0  0  0  0  0  0  0  0  0  0  0
   58.5970   33.0440   44.7860 C   0  0  0  0  0  0  0  0  0  0  0  0
   58.5160   32.3040   45.9700 C   0  0  0  0  0  0  0  0  0  0  0  0
   57.7960   31.1070   46.0140 C   0  0  0  0  0  0  0  0  0  0  0  0
   57.1310   30.6360   44.8710 C   0  0  0  0  0  0  0  0  0  0  0  0
   56.3880   29.3550   44.9220 C   0  0  0  0  0  0  0  0  0  0  0  0
   55.1470   29.3580   44.7000 O   0  0  0  0  0  0  0  0  0  0  0  0
   57.0530   28.0710   45.2290 C   0  0  0  0  0  0  0  0  0  0  0  0
   58.4080   27.8080   45.1670 C   0  0  0  0  0  0  0  0  0  0  0  0
   59.4000   28.6920   44.7600 O   0  0  0  0  0  0  0  0  0  0  0  0
   58.6110   26.5080   45.5780 C   0  0  0  0  0  0  0  0  0  0  0  0
   57.4230   25.9530   45.9080 N   0  0  0  0  0  0  0  0  0  0  0  0
   57.2010   24.5970   46.4240 C   0  0  0  0  0  0  0  0  0  0  0  0
   57.3120   24.5820   47.9520 C   0  0  0  0  0  0  0  0  0  0  0  0
   58.1870   23.6120   45.7880 C   0  0  0  0  0  0  0  0  0  0  0  0
   56.4820   26.9030   45.7100 C   0  0  0  0  0  0  0  0  0  0  0  0
   55.1320   26.7260   45.9960 O   0  0  0  0  0  0  0  0  0  0  0  0
   57.2260   31.3680   43.6750 C   0  0  0  0  0  0  0  0  0  0  0  0
   57.9470   32.5650   43.6330 C   0  0  0  0  0  0  0  0  0  0  0  0
   59.3881   34.3981   46.8582 H   0  0  0  0  0  0  0  0  0  0  0  0
   60.6721   35.2883   45.9719 H   0  0  0  0  0  0  0  0  0  0  0  0
   58.9860   35.9079   45.9719 H   0  0  0  0  0  0  0  0  0  0  0  0
   59.0239   32.6677   46.8754 H   0  0  0  0  0  0  0  0  0  0  0  0
   57.7501   30.5306   46.9498 H   0  0  0  0  0  0  0  0  0  0  0  0
   59.5862   26.0017   45.6294 H   0  0  0  0  0  0  0  0  0  0  0  0
   56.1834   24.2789   46.1534 H   0  0  0  0  0  0  0  0  0  0  0  0
   56.3136   24.7169   48.3935 H   0  0  0  0  0  0  0  0  0  0  0  0
   57.7308   23.6191   48.2798 H   0  0  0  0  0  0  0  0  0  0  0  0
   57.9713   25.3992   48.2798 H   0  0  0  0  0  0  0  0  0  0  0  0
   58.7276   23.0720   46.5793 H   0  0  0  0  0  0  0  0  0  0  0  0
   57.6359   22.8930   45.1640 H   0  0  0  0  0  0  0  0  0  0  0  0
   58.9055   24.1638   45.1640 H   0  0  0  0  0  0  0  0  0  0  0  0
   56.7299   30.9967   42.7662 H   0  0  0  0  0  0  0  0  0  0  0  0
   58.0066   33.1353   42.6943 H   0  0  0  0  0  0  0  0  0  0  0  0
  1  2  1  0
  2  3  1  0
  3  4  2  0
  4  5  1  0
  5  6  2  0
  6  7  1  0
  7  8  2  0
  7  9  1  0
  9 10  1  0
 10 11  1  0
 10 12  2  0
 12 13  1  0
 13 14  1  0
 14 15  1  0
 14 16  1  0
 13 17  1  0
 17 18  1  0
  6 19  1  0
 19 20  2  0
 20  3  1  0
 17  9  2  0
  1 21  1  0
  1 22  1  0
  1 23  1  0
  4 24  1  0
  5 25  1  0
 12 26  1  0
 14 27  1  0
 15 28  1  0
 15 29  1  0
 15 30  1  0
 16 31  1  0
 16 32  1  0
 16 33  1  0
 19 34  1  0
 20 35  1  0
M  CHG  2  11  -1  18  -1
M  END
>  <UniqueID>  (38) 
34

>  <SMILES>  (38) 
COc1ccc(C(=O)c2c([O-])cn(C(C)C)c2[O-])cc1

>  <Energy>  (38) 
64.56006934135443

>  <Genealogy>  (38) 
COc1ccc(C(=O)c2c([O-])cn(C(C)C)c2[O-])cc1 (protonated)
COc1ccc(C(=O)c2c([O-])cn(C(C)C)c2[O-])cc1 (3D coordinates assigned)
COc1ccc(C(=O)c2c([O-])cn(C(C)C)c2[O-])cc1 (optimized conformer: 64.56006934135443 kcal/mol)

>  <smiles>  (38) 
COc1ccc(C(=O)c2c(O)cn(C(C)C)c2O)cc1

>  <score_type>  (38) 
oracle

>  <origin>  (38) 
adg

>  <m_score__min__energy>  (38) 
-10.970000000000001

>  <m_primary>  (38) 
energy

$$$$
38:0
     RDKit          3D

 42 43  0  0  0  0  0  0  0  0999 V2000
   57.3790   32.6890   40.5920 C   0  0  0  0  0  0  0  0  0  0  0  0
   57.4820   31.8620   41.8710 C   0  0  0  0  0  0  0  0  0  0  0  0
   57.8060   32.7470   43.0820 C   0  0  0  0  0  0  0  0  0  0  0  0
   58.6590   32.0040   44.0430 N   0  0  0  0  0  0  0  0  0  0  0  0
   59.0260   32.8580   45.2050 C   0  0  0  0  0  0  0  0  0  0  0  0
   58.8920   34.3580   44.9030 C   0  0  0  0  0  0  0  0  0  0  0  0
   59.6480   35.2030   45.9270 C   0  0  0  0  0  0  0  0  0  0  0  0
   58.0810   30.6540   44.3450 C   0  0  2  0  0  0  0  0  0  0  0  0
   56.6070   30.6620   44.8040 C   0  0  0  0  0  0  0  0  0  0  0  0
   56.0620   29.2320   44.8630 C   0  0  0  0  0  0  0  0  0  0  0  0
   56.9840   28.2770   45.5930 C   0  0  0  0  0  0  0  0  0  0  0  0
   56.4820   27.0350   46.0290 C   0  0  0  0  0  0  0  0  0  0  0  0
   55.1420   26.7080   45.8460 O   0  0  0  0  0  0  0  0  0  0  0  0
   57.3260   26.1110   46.6500 C   0  0  0  0  0  0  0  0  0  0  0  0
   58.6770   26.4050   46.8310 C   0  0  0  0  0  0  0  0  0  0  0  0
   59.1930   27.6230   46.3880 C   0  0  0  0  0  0  0  0  0  0  0  0
   58.3650   28.5610   45.7520 C   0  0  0  0  0  0  0  0  0  0  0  0
   58.9610   29.8900   45.3470 C   0  0  0  0  0  0  0  0  0  0  0  0
   57.2469   33.7499   40.8510 H   0  0  0  0  0  0  0  0  0  0  0  0
   58.2992   32.5675   40.0017 H   0  0  0  0  0  0  0  0  0  0  0  0
   56.5167   32.3455   40.0017 H   0  0  0  0  0  0  0  0  0  0  0  0
   56.5233   31.3519   42.0461 H   0  0  0  0  0  0  0  0  0  0  0  0
   58.2947   31.1310   41.7476 H   0  0  0  0  0  0  0  0  0  0  0  0
   58.3394   33.6471   42.7425 H   0  0  0  0  0  0  0  0  0  0  0  0
   56.8679   33.0334   43.5800 H   0  0  0  0  0  0  0  0  0  0  0  0
   58.3651   32.6082   46.0481 H   0  0  0  0  0  0  0  0  0  0  0  0
   60.0814   32.6597   45.4433 H   0  0  0  0  0  0  0  0  0  0  0  0
   59.3003   34.5592   43.9016 H   0  0  0  0  0  0  0  0  0  0  0  0
   57.8265   34.6269   44.9516 H   0  0  0  0  0  0  0  0  0  0  0  0
   59.3660   34.8878   46.9424 H   0  0  0  0  0  0  0  0  0  0  0  0
   60.7305   35.0660   45.7879 H   0  0  0  0  0  0  0  0  0  0  0  0
   59.3918   36.2637   45.7879 H   0  0  0  0  0  0  0  0  0  0  0  0
   58.0767   30.1267   43.3797 H   0  0  0  0  0  0  0  0  0  0  0  0
   56.5403   31.1175   45.8031 H   0  0  0  0  0  0  0  0  0  0  0  0
   56.0110   31.2431   44.0849 H   0  0  0  0  0  0  0  0  0  0  0  0
   55.0919   29.2477   45.3813 H   0  0  0  0  0  0  0  0  0  0  0  0
   55.9685   28.8724   43.8276 H   0  0  0  0  0  0  0  0  0  0  0  0
   56.9234   25.1481   46.9974 H   0  0  0  0  0  0  0  0  0  0  0  0
   59.3367   25.6756   47.3237 H   0  0  0  0  0  0  0  0  0  0  0  0
   60.2587   27.8504   46.5385 H   0  0  0  0  0  0  0  0  0  0  0  0
   59.0867   30.5085   46.2479 H   0  0  0  0  0  0  0  0  0  0  0  0
   59.9239   29.6864   44.8557 H   0  0  0  0  0  0  0  0  0  0  0  0
  1  2  1  0
  2  3  1  0
  3  4  1  0
  4  5  1  0
  5  6  1  0
  6  7  1  0
  4  8  1  0
  8  9  1  0
  9 10  1  0
 10 11  1  0
 11 12  2  0
 12 13  1  0
 12 14  1  0
 14 15  2  0
 15 16  1  0
 16 17  2  0
 17 18  1  0
 18  8  1  0
 17 11  1  0
  1 19  1  0
  1 20  1  0
  1 21  1  0
  2 22  1  0
  2 23  1  0
  3 24  1  0
  3 25  1  0
  5 26  1  0
  5 27  1  0
  6 28  1  0
  6 29  1  0
  7 30  1  0
  7 31  1  0
  7 32  1  0
  8 33  1  6
  9 34  1  0
  9 35  1  0
 10 36  1  0
 10 37  1  0
 14 38  1  0
 15 39  1  0
 16 40  1  0
 18 41  1  0
 18 42  1  0
M  CHG  1  13  -1
M  END
>  <UniqueID>  (39) 
35

>  <SMILES>  (39) 
CCCN(CCC)[C@@H]1CCc2c([O-])cccc2C1

>  <Energy>  (39) 
45.662045815426396

>  <Genealogy>  (39) 
CCCN(CCC)C1CCc2c([O-])cccc2C1 (protonated)
CCCN(CCC)[C@@H]1CCc2c([O-])cccc2C1 (chirality)
CCCN(CCC)[C@@H]1CCc2c([O-])cccc2C1 (3D coordinates assigned)
CCCN(CCC)[C@@H]1CCc2c([O-])cccc2C1 (nonaromatic ring conformer: 45.662045815426396 kcal/mol)

>  <smiles>  (39) 
CCCN(CCC)C1CCc2c(O)cccc2C1

>  <score_type>  (39) 
oracle

>  <origin>  (39) 
adg

>  <m_score__min__energy>  (39) 
-10.18

>  <m_primary>  (39) 
energy

$$$$
39:0
     RDKit          3D

 43 45  0  0  0  0  0  0  0  0999 V2000
   60.2880   28.2110   49.3030 C   0  0  0  0  0  0  0  0  0  0  0  0
   60.7370   26.7280   48.3510 S   0  0  0  0  0  0  0  0  0  0  0  0
   60.0430   27.3620   46.8270 C   0  0  0  0  0  0  0  0  0  0  0  0
   60.4720   28.4830   46.2100 N   0  0  0  0  0  0  0  0  0  0  0  0
   59.8070   28.7680   45.0930 N   0  0  0  0  0  0  0  0  0  0  0  0
   58.8370   27.8680   44.8200 C   0  0  0  0  0  0  0  0  0  0  0  0
   57.7690   27.9630   43.3850 S   0  0  0  0  0  0  0  0  0  0  0  0
   57.4790   29.7610   43.5230 C   0  0  0  0  0  0  0  0  0  0  0  0
   56.7310   30.0910   44.7740 C   0  0  0  0  0  0  0  0  0  0  0  0
   55.4730   30.1790   44.7450 O   0  0  0  0  0  0  0  0  0  0  0  0
   57.4500   30.3630   45.9810 N   0  0  0  0  0  0  0  0  0  0  0  0
   58.3400   31.4700   46.1660 C   0  0  0  0  0  0  0  0  0  0  0  0
   58.2110   32.7790   45.7180 C   0  0  0  0  0  0  0  0  0  0  0  0
   57.0720   33.3570   44.9300 C   0  0  0  0  0  0  0  0  0  0  0  0
   59.2800   33.4870   46.1670 N   0  0  0  0  0  0  0  0  0  0  0  0
   59.5480   34.9010   45.8900 C   0  0  0  0  0  0  0  0  0  0  0  0
   60.0400   32.6910   46.9180 N   0  0  0  0  0  0  0  0  0  0  0  0
   61.2370   33.0770   47.6180 C   0  0  0  0  0  0  0  0  0  0  0  0
   62.4970   32.7310   47.1040 C   0  0  0  0  0  0  0  0  0  0  0  0
   63.6610   33.0940   47.7890 C   0  0  0  0  0  0  0  0  0  0  0  0
   63.5740   33.7990   48.9920 C   0  0  0  0  0  0  0  0  0  0  0  0
   62.3230   34.1370   49.5150 C   0  0  0  0  0  0  0  0  0  0  0  0
   61.1570   33.7730   48.8340 C   0  0  0  0  0  0  0  0  0  0  0  0
   59.4810   31.4640   46.9310 C   0  0  0  0  0  0  0  0  0  0  0  0
   59.9360   30.4750   47.5660 O   0  0  0  0  0  0  0  0  0  0  0  0
   58.7730   26.6490   45.9840 S   0  0  0  0  0  0  0  0  0  0  0  0
   60.3548   27.9904   50.3786 H   0  0  0  0  0  0  0  0  0  0  0  0
   60.9784   29.0301   49.0531 H   0  0  0  0  0  0  0  0  0  0  0  0
   59.2592   28.5096   49.0531 H   0  0  0  0  0  0  0  0  0  0  0  0
   61.2520   29.0790   46.5650 H   0  0  0  0  0  0  0  0  0  0  0  0
   58.4481   30.2812   43.5361 H   0  0  0  0  0  0  0  0  0  0  0  0
   56.8778   30.0851   42.6607 H   0  0  0  0  0  0  0  0  0  0  0  0
   56.3081   33.7446   45.6201 H   0  0  0  0  0  0  0  0  0  0  0  0
   57.4430   34.1759   44.2962 H   0  0  0  0  0  0  0  0  0  0  0  0
   56.6301   32.5741   44.2962 H   0  0  0  0  0  0  0  0  0  0  0  0
   59.6516   35.4473   46.8391 H   0  0  0  0  0  0  0  0  0  0  0  0
   60.4792   34.9912   45.3115 H   0  0  0  0  0  0  0  0  0  0  0  0
   58.7144   35.3257   45.3115 H   0  0  0  0  0  0  0  0  0  0  0  0
   62.5688   32.1724   46.1591 H   0  0  0  0  0  0  0  0  0  0  0  0
   64.6459   32.8242   47.3802 H   0  0  0  0  0  0  0  0  0  0  0  0
   64.4903   34.0880   49.5276 H   0  0  0  0  0  0  0  0  0  0  0  0
   62.2553   34.6900   50.4635 H   0  0  0  0  0  0  0  0  0  0  0  0
   60.1737   34.0331   49.2529 H   0  0  0  0  0  0  0  0  0  0  0  0
  1  2  1  0
  2  3  1  0
  3  4  2  0
  4  5  1  0
  5  6  2  0
  6  7  1  0
  7  8  1  0
  8  9  1  0
  9 10  2  0
  9 11  1  0
 11 12  1  0
 12 13  2  0
 13 14  1  0
 13 15  1  0
 15 16  1  0
 15 17  1  0
 17 18  1  0
 18 19  2  0
 19 20  1  0
 20 21  2  0
 21 22  1  0
 22 23  2  0
 17 24  1  0
 24 25  2  0
  6 26  1  0
 26  3  1  0
 24 12  1  0
 23 18  1  0
  1 27  1  0
  1 28  1  0
  1 29  1  0
  4 30  1  0
  8 31  1  0
  8 32  1  0
 14 33  1  0
 14 34  1  0
 14 35  1  0
 16 36  1  0
 16 37  1  0
 16 38  1  0
 19 39  1  0
 20 40  1  0
 21 41  1  0
 22 42  1  0
 23 43  1  0
M  CHG  2   4   1  11  -1
M  END
>  <UniqueID>  (40) 
36

>  <SMILES>  (40) 
CSc1[nH+]nc(SCC(=O)[N-]c2c(C)n(C)n(-c3ccccc3)c2=O)s1

>  <Energy>  (40) 
114.84661277727633

>  <Genealogy>  (40) 
CSc1[nH+]nc(SCC(=O)[N-]c2c(C)n(C)n(-c3ccccc3)c2=O)s1 (protonated)
CSc1[nH+]nc(SCC(=O)[N-]c2c(C)n(C)n(-c3ccccc3)c2=O)s1 (3D coordinates assigned)
CSc1[nH+]nc(SCC(=O)[N-]c2c(C)n(C)n(-c3ccccc3)c2=O)s1 (optimized conformer: 114.84661277727633 kcal/mol)

>  <smiles>  (40) 
CSc1nnc(SCC(=O)Nc2c(C)n(C)n(-c3ccccc3)c2=O)s1

>  <score_type>  (40) 
oracle

>  <origin>  (40) 
adg

>  <m_score__min__energy>  (40) 
-9.7799999999999994

>  <m_primary>  (40) 
energy

$$$$
40:0
     RDKit          3D

 54 55  0  0  0  0  0  0  0  0999 V2000
   57.6680   32.0170   42.1230 C   0  0  0  0  0  0  0  0  0  0  0  0
   57.0780   31.1970   43.2420 C   0  0  0  0  0  0  0  0  0  0  0  0
   56.4320   29.8690   42.9330 C   0  0  0  0  0  0  0  0  0  0  0  0
   57.1700   31.6610   44.5030 C   0  0  0  0  0  0  0  0  0  0  0  0
   58.0730   32.7900   44.9420 C   0  0  0  0  0  0  0  0  0  0  0  0
   58.8440   32.4700   46.2030 C   0  0  0  0  0  0  0  0  0  0  0  0
   58.9330   31.1390   46.6350 C   0  0  0  0  0  0  0  0  0  0  0  0
   59.6000   30.8060   47.8230 C   0  0  0  0  0  0  0  0  0  0  0  0
   59.6060   29.3870   48.2700 C   0  0  0  0  0  0  0  0  0  0  0  0
   58.8780   29.0500   49.2420 O   0  0  0  0  0  0  0  0  0  0  0  0
   60.4760   28.3520   47.6720 C   0  0  0  0  0  0  0  0  0  0  0  0
   60.0400   27.2440   47.0580 C   0  0  0  0  0  0  0  0  0  0  0  0
   58.6360   26.9970   46.6780 C   0  0  0  0  0  0  0  0  0  0  0  0
   57.9360   27.9130   45.8750 C   0  0  0  0  0  0  0  0  0  0  0  0
   56.5880   27.6980   45.5770 C   0  0  0  0  0  0  0  0  0  0  0  0
   55.9340   26.5620   46.0610 C   0  0  0  0  0  0  0  0  0  0  0  0
   54.5990   26.3410   45.7490 O   0  0  0  0  0  0  0  0  0  0  0  0
   56.6240   25.6480   46.8620 C   0  0  0  0  0  0  0  0  0  0  0  0
   57.9680   25.8710   47.1840 C   0  0  0  0  0  0  0  0  0  0  0  0
   60.1950   31.8310   48.5880 C   0  0  0  0  0  0  0  0  0  0  0  0
   60.8030   31.5380   49.8100 O   0  0  0  0  0  0  0  0  0  0  0  0
   60.1590   33.1660   48.1380 C   0  0  0  0  0  0  0  0  0  0  0  0
   60.8470   34.2600   48.9190 C   0  0  0  0  0  0  0  0  0  0  0  0
   62.3450   34.1450   48.7730 C   0  0  0  0  0  0  0  0  0  0  0  0
   62.9640   33.3920   47.8380 C   0  0  0  0  0  0  0  0  0  0  0  0
   63.0810   33.8370   46.4010 C   0  0  0  0  0  0  0  0  0  0  0  0
   63.5380   32.0630   48.2500 C   0  0  0  0  0  0  0  0  0  0  0  0
   59.4330   33.4870   46.9780 C   0  0  0  0  0  0  0  0  0  0  0  0
   59.2960   34.8200   46.6010 O   0  0  0  0  0  0  0  0  0  0  0  0
   58.2611   32.8413   42.5458 H   0  0  0  0  0  0  0  0  0  0  0  0
   58.3157   31.3795   41.5034 H   0  0  0  0  0  0  0  0  0  0  0  0
   56.8577   32.4286   41.5034 H   0  0  0  0  0  0  0  0  0  0  0  0
   56.1821   29.3553   43.8730 H   0  0  0  0  0  0  0  0  0  0  0  0
   55.5138   30.0346   42.3503 H   0  0  0  0  0  0  0  0  0  0  0  0
   57.1291   29.2489   42.3503 H   0  0  0  0  0  0  0  0  0  0  0  0
   56.5419   31.1831   45.2692 H   0  0  0  0  0  0  0  0  0  0  0  0
   58.7908   32.9994   44.1352 H   0  0  0  0  0  0  0  0  0  0  0  0
   57.4342   33.6593   45.1571 H   0  0  0  0  0  0  0  0  0  0  0  0
   58.4720   30.3427   46.0321 H   0  0  0  0  0  0  0  0  0  0  0  0
   61.5637   28.5031   47.7361 H   0  0  0  0  0  0  0  0  0  0  0  0
   60.7795   26.4650   46.8209 H   0  0  0  0  0  0  0  0  0  0  0  0
   58.4504   28.8015   45.4800 H   0  0  0  0  0  0  0  0  0  0  0  0
   56.0400   28.4251   44.9596 H   0  0  0  0  0  0  0  0  0  0  0  0
   56.1102   24.7519   47.2401 H   0  0  0  0  0  0  0  0  0  0  0  0
   58.5015   25.1625   47.8347 H   0  0  0  0  0  0  0  0  0  0  0  0
   60.5193   35.2387   48.5384 H   0  0  0  0  0  0  0  0  0  0  0  0
   60.5824   34.1614   49.9821 H   0  0  0  0  0  0  0  0  0  0  0  0
   62.9743   34.7121   49.4747 H   0  0  0  0  0  0  0  0  0  0  0  0
   63.3606   34.9004   46.3681 H   0  0  0  0  0  0  0  0  0  0  0  0
   63.8525   33.2391   45.8937 H   0  0  0  0  0  0  0  0  0  0  0  0
   62.1152   33.6959   45.8937 H   0  0  0  0  0  0  0  0  0  0  0  0
   63.5653   31.9999   49.3478 H   0  0  0  0  0  0  0  0  0  0  0  0
   62.9096   31.2528   47.8516 H   0  0  0  0  0  0  0  0  0  0  0  0
   64.5586   31.9651   47.8516 H   0  0  0  0  0  0  0  0  0  0  0  0
  1  2  1  0
  2  3  1  0
  2  4  2  3
  4  5  1  0
  5  6  1  0
  6  7  2  0
  7  8  1  0
  8  9  1  0
  9 10  2  0
  9 11  1  0
 11 12  2  3
 12 13  1  0
 13 14  2  0
 14 15  1  0
 15 16  2  0
 16 17  1  0
 16 18  1  0
 18 19  2  0
  8 20  2  0
 20 21  1  0
 20 22  1  0
 22 23  1  0
 23 24  1  0
 24 25  2  3
 25 26  1  0
 25 27  1  0
 22 28  2  0
 28 29  1  0
 28  6  1  0
 19 13  1  0
  1 30  1  0
  1 31  1  0
  1 32  1  0
  3 33  1  0
  3 34  1  0
  3 35  1  0
  4 36  1  0
  5 37  1  0
  5 38  1  0
  7 39  1  0
 11 40  1  0
 12 41  1  0
 14 42  1  0
 15 43  1  0
 18 44  1  0
 19 45  1  0
 23 46  1  0
 23 47  1  0
 24 48  1  0
 26 49  1  0
 26 50  1  0
 26 51  1  0
 27 52  1  0
 27 53  1  0
 27 54  1  0
M  CHG  3  17  -1  21  -1  29  -1
M  END
>  <UniqueID>  (41) 
37

>  <SMILES>  (41) 
CC(C)=CCc1cc(C(=O)C=Cc2ccc([O-])cc2)c([O-])c(CC=C(C)C)c1[O-]

>  <Energy>  (41) 
58.48730186264839

>  <Genealogy>  (41) 
CC(C)=CCc1cc(C(=O)C=Cc2ccc([O-])cc2)c([O-])c(CC=C(C)C)c1[O-] (protonated)
CC(C)=CCc1cc(C(=O)C=Cc2ccc([O-])cc2)c([O-])c(CC=C(C)C)c1[O-] (3D coordinates assigned)
CC(C)=CCc1cc(C(=O)C=Cc2ccc([O-])cc2)c([O-])c(CC=C(C)C)c1[O-] (optimized conformer: 58.48730186264839 kcal/mol)

>  <smiles>  (41) 
CC(C)=CCc1cc(C(=O)C=Cc2ccc(O)cc2)c(O)c(CC=C(C)C)c1O

>  <score_type>  (41) 
oracle

>  <origin>  (41) 
adg

>  <m_score__min__energy>  (41) 
-13.82

>  <m_primary>  (41) 
energy

$$$$
41:0
     RDKit          3D

 40 43  0  0  0  0  0  0  0  0999 V2000
   55.6050   29.8660   44.1620 C   0  0  0  0  0  0  0  0  0  0  0  0
   56.7890   30.8420   44.3390 C   0  0  0  0  0  0  0  0  0  0  0  0
   57.3130   31.2030   42.9340 C   0  0  0  0  0  0  0  0  0  0  0  0
   56.3720   32.0750   44.9270 O   0  0  0  0  0  0  0  0  0  0  0  0
   57.1790   33.1780   45.2060 C   0  0  0  0  0  0  0  0  0  0  0  0
   56.9850   34.2280   44.5340 O   0  0  0  0  0  0  0  0  0  0  0  0
   58.2160   33.1620   46.3090 C   0  0  2  0  0  0  0  0  0  0  0  0
   58.8760   34.5520   46.4550 C   0  0  0  0  0  0  0  0  0  0  0  0
   60.0060   34.5330   47.4380 C   0  0  0  0  0  0  0  0  0  0  0  0
   60.8560   33.4960   47.4520 C   0  0  0  0  0  0  0  0  0  0  0  0
   62.0790   33.4900   48.2920 C   0  0  0  0  0  0  0  0  0  0  0  0
   63.3120   32.9580   47.8210 C   0  0  0  0  0  0  0  0  0  0  0  0
   64.4530   32.9530   48.6430 C   0  0  0  0  0  0  0  0  0  0  0  0
   64.3330   33.4740   49.9260 C   0  0  0  0  0  0  0  0  0  0  0  0
   63.1610   33.9740   50.3900 C   0  0  0  0  0  0  0  0  0  0  0  0
   62.0090   33.9980   49.6120 C   0  0  0  0  0  0  0  0  0  0  0  0
   63.3320   34.4160   51.6880 O   0  0  0  0  0  0  0  0  0  0  0  0
   64.6970   34.1800   52.0600 C   0  0  0  0  0  0  0  0  0  0  0  0
   65.3000   33.5780   50.9070 O   0  0  0  0  0  0  0  0  0  0  0  0
   60.5680   32.3640   46.6780 O   0  0  0  0  0  0  0  0  0  0  0  0
   59.3030   32.1100   46.1220 C   0  0  0  0  0  0  0  0  0  0  0  0
   59.1470   30.9100   45.5340 C   0  0  0  0  0  0  0  0  0  0  0  0
   57.8900   30.2140   45.1810 C   0  0  0  0  0  0  0  0  0  0  0  0
   57.7230   29.0610   45.6670 O   0  0  0  0  0  0  0  0  0  0  0  0
   55.2322   29.5587   45.1502 H   0  0  0  0  0  0  0  0  0  0  0  0
   54.7985   30.3651   43.6049 H   0  0  0  0  0  0  0  0  0  0  0  0
   55.9411   28.9791   43.6049 H   0  0  0  0  0  0  0  0  0  0  0  0
   58.2155   31.8248   43.0278 H   0  0  0  0  0  0  0  0  0  0  0  0
   57.5581   30.2812   42.3861 H   0  0  0  0  0  0  0  0  0  0  0  0
   56.5390   31.7604   42.3861 H   0  0  0  0  0  0  0  0  0  0  0  0
   57.6657   32.8965   47.2237 H   0  0  0  0  0  0  0  0  0  0  0  0
   59.2628   34.8668   45.4745 H   0  0  0  0  0  0  0  0  0  0  0  0
   58.1142   35.2541   46.8247 H   0  0  0  0  0  0  0  0  0  0  0  0
   60.1379   35.3655   48.1448 H   0  0  0  0  0  0  0  0  0  0  0  0
   63.3732   32.5462   46.8028 H   0  0  0  0  0  0  0  0  0  0  0  0
   65.4105   32.5494   48.2819 H   0  0  0  0  0  0  0  0  0  0  0  0
   61.0669   34.4014   50.0117 H   0  0  0  0  0  0  0  0  0  0  0  0
   65.1988   35.1269   52.3081 H   0  0  0  0  0  0  0  0  0  0  0  0
   64.7765   33.5375   52.9493 H   0  0  0  0  0  0  0  0  0  0  0  0
   60.0756   30.3765   45.2828 H   0  0  0  0  0  0  0  0  0  0  0  0
  1  2  1  0
  2  3  1  0
  2  4  1  0
  4  5  1  0
  5  6  2  0
  5  7  1  0
  7  8  1  0
  8  9  1  0
  9 10  2  0
 10 11  1  0
 11 12  2  0
 12 13  1  0
 13 14  2  0
 14 15  1  0
 15 16  2  0
 15 17  1  0
 17 18  1  0
 18 19  1  0
 10 20  1  0
 20 21  1  0
 21 22  2  0
 22 23  1  0
 23 24  2  0
 23  2  1  0
 21  7  1  0
 16 11  1  0
 19 14  1  0
  1 25  1  0
  1 26  1  0
  1 27  1  0
  3 28  1  0
  3 29  1  0
  3 30  1  0
  7 31  1  1
  8 32  1  0
  8 33  1  0
  9 34  1  0
 12 35  1  0
 13 36  1  0
 16 37  1  0
 18 38  1  0
 18 39  1  0
 22 40  1  0
M  END
>  <UniqueID>  (42) 
38

>  <SMILES>  (42) 
CC1(C)OC(=O)[C@@H]2CC=C(c3ccc4c(c3)OCO4)OC2=CC1=O

>  <Energy>  (42) 
86.7310348861164

>  <Genealogy>  (42) 
CC1(C)OC(=O)[C@@H]2CC=C(c3ccc4c(c3)OCO4)OC2=CC1=O (chirality)
CC1(C)OC(=O)[C@@H]2CC=C(c3ccc4c(c3)OCO4)OC2=CC1=O (3D coordinates assigned)
CC1(C)OC(=O)[C@@H]2CC=C(c3ccc4c(c3)OCO4)OC2=CC1=O (nonaromatic ring conformer: 86.7310348861164 kcal/mol)

>  <smiles>  (42) 
CC1(C)OC(=O)C2CC=C(c3ccc4c(c3)OCO4)OC2=CC1=O

>  <score_type>  (42) 
oracle

>  <origin>  (42) 
adg

>  <m_score__min__energy>  (42) 
-6.1699999999999999

>  <m_primary>  (42) 
energy

$$$$
42:0
     RDKit          3D

 30 32  0  0  0  0  0  0  0  0999 V2000
   56.2840   31.5190   44.4740 O   0  0  0  0  0  0  0  0  0  0  0  0
   57.3870   31.4000   45.0740 C   0  0  0  0  0  0  0  0  0  0  0  0
   57.9190   30.0360   45.3240 C   0  0  0  0  0  0  0  0  0  0  0  0
   59.2420   29.8450   45.4700 C   0  0  0  0  0  0  0  0  0  0  0  0
   59.8080   28.5030   45.6930 C   0  0  0  0  0  0  0  0  0  0  0  0
   61.0540   28.3750   45.8380 O   0  0  0  0  0  0  0  0  0  0  0  0
   58.9170   27.3240   45.7400 C   0  0  0  0  0  0  0  0  0  0  0  0
   59.4300   26.0310   45.9430 C   0  0  0  0  0  0  0  0  0  0  0  0
   58.5710   24.9310   45.9820 C   0  0  0  0  0  0  0  0  0  0  0  0
   57.1970   25.1090   45.8180 C   0  0  0  0  0  0  0  0  0  0  0  0
   56.6740   26.3890   45.6160 C   0  0  0  0  0  0  0  0  0  0  0  0
   57.5290   27.5050   45.5740 C   0  0  0  0  0  0  0  0  0  0  0  0
   56.9940   28.8720   45.3650 C   0  0  0  0  0  0  0  0  0  0  0  0
   55.7520   29.0490   45.2380 O   0  0  0  0  0  0  0  0  0  0  0  0
   58.1090   32.6250   45.5020 C   0  0  0  0  0  0  0  0  0  0  0  0
   58.3400   32.8930   46.8650 C   0  0  0  0  0  0  0  0  0  0  0  0
   59.0090   34.0570   47.2530 C   0  0  0  0  0  0  0  0  0  0  0  0
   59.4450   34.9690   46.2900 C   0  0  0  0  0  0  0  0  0  0  0  0
   59.2090   34.7220   44.9370 C   0  0  0  0  0  0  0  0  0  0  0  0
   58.5410   33.5590   44.5420 C   0  0  0  0  0  0  0  0  0  0  0  0
   59.9180   30.7114   45.4218 H   0  0  0  0  0  0  0  0  0  0  0  0
   60.5127   25.8853   46.0717 H   0  0  0  0  0  0  0  0  0  0  0  0
   58.9784   23.9219   46.1424 H   0  0  0  0  0  0  0  0  0  0  0  0
   56.5237   24.2396   45.8478 H   0  0  0  0  0  0  0  0  0  0  0  0
   55.5897   26.5243   45.4894 H   0  0  0  0  0  0  0  0  0  0  0  0
   57.9918   32.1820   47.6287 H   0  0  0  0  0  0  0  0  0  0  0  0
   59.1924   34.2551   48.3194 H   0  0  0  0  0  0  0  0  0  0  0  0
   59.9747   35.8826   46.5979 H   0  0  0  0  0  0  0  0  0  0  0  0
   59.5492   35.4437   44.1798 H   0  0  0  0  0  0  0  0  0  0  0  0
   58.3520   33.3729   43.4745 H   0  0  0  0  0  0  0  0  0  0  0  0
  1  2  2  0
  2  3  1  0
  3  4  2  0
  4  5  1  0
  5  6  2  0
  5  7  1  0
  7  8  2  0
  8  9  1  0
  9 10  2  0
 10 11  1  0
 11 12  2  0
 12 13  1  0
 13 14  2  0
  2 15  1  0
 15 16  2  0
 16 17  1  0
 17 18  2  0
 18 19  1  0
 19 20  2  0
 13  3  1  0
 20 15  1  0
 12  7  1  0
  4 21  1  0
  8 22  1  0
  9 23  1  0
 10 24  1  0
 11 25  1  0
 16 26  1  0
 17 27  1  0
 18 28  1  0
 19 29  1  0
 20 30  1  0
M  END
>  <UniqueID>  (43) 
39

>  <SMILES>  (43) 
O=C(C1=CC(=O)c2ccccc2C1=O)c1ccccc1

>  <Energy>  (43) 
41.410776452624496

>  <Genealogy>  (43) 
O=C(C1=CC(=O)c2ccccc2C1=O)c1ccccc1 (3D coordinates assigned)
O=C(C1=CC(=O)c2ccccc2C1=O)c1ccccc1 (nonaromatic ring conformer: 41.410776452624496 kcal/mol)

>  <smiles>  (43) 
O=C(C1=CC(=O)c2ccccc2C1=O)c1ccccc1

>  <score_type>  (43) 
oracle

>  <origin>  (43) 
adg

>  <m_score__min__energy>  (43) 
-8.1300000000000008

>  <m_primary>  (43) 
energy

$$$$
43:0
     RDKit          3D

 45 47  0  0  0  0  0  0  0  0999 V2000
   55.2530   26.0780   45.6630 N   0  0  0  0  0  0  0  0  0  0  0  0
   55.1880   24.4850   46.3340 S   0  0  0  0  0  0  0  0  0  0  0  0
   53.7460   24.0690   46.4170 O   0  0  0  0  0  0  0  0  0  0  0  0
   55.7720   24.4970   47.7180 O   0  0  0  0  0  0  0  0  0  0  0  0
   56.0860   23.3470   45.3170 C   0  0  0  0  0  0  0  0  0  0  0  0
   55.6190   22.0270   45.2070 C   0  0  0  0  0  0  0  0  0  0  0  0
   56.2730   21.1080   44.3840 C   0  0  0  0  0  0  0  0  0  0  0  0
   57.3990   21.4940   43.6590 C   0  0  0  0  0  0  0  0  0  0  0  0
   57.8830   22.7990   43.7630 C   0  0  0  0  0  0  0  0  0  0  0  0
   57.2460   23.7320   44.5970 C   0  0  0  0  0  0  0  0  0  0  0  0
   57.8230   25.0870   44.7010 C   0  0  0  0  0  0  0  0  0  0  0  0
   57.7240   25.9760   43.6200 C   0  0  0  0  0  0  0  0  0  0  0  0
   58.2830   27.2550   43.7080 C   0  0  0  0  0  0  0  0  0  0  0  0
   58.9520   27.6580   44.8750 C   0  0  0  0  0  0  0  0  0  0  0  0
   59.6060   29.0130   44.9470 C   0  0  0  0  0  0  0  0  0  0  0  0
   59.1330   29.7990   46.1760 C   0  0  0  0  0  0  0  0  0  0  0  0
   57.7630   30.2720   46.0010 N   0  0  0  0  0  0  0  0  0  0  0  0
   57.4170   31.4870   45.3250 C   0  0  0  0  0  0  0  0  0  0  0  0
   56.4880   31.4850   44.4710 O   0  0  0  0  0  0  0  0  0  0  0  0
   58.1500   32.7370   45.6250 C   0  0  0  0  0  0  0  0  0  0  0  0
   58.5470   33.6000   44.5850 C   0  0  0  0  0  0  0  0  0  0  0  0
   59.2490   34.7760   44.8710 C   0  0  0  0  0  0  0  0  0  0  0  0
   59.5640   35.1020   46.1920 C   0  0  0  0  0  0  0  0  0  0  0  0
   59.1790   34.2510   47.2320 C   0  0  0  0  0  0  0  0  0  0  0  0
   59.4860   34.5690   48.5140 F   0  0  0  0  0  0  0  0  0  0  0  0
   58.4750   33.0760   46.9520 C   0  0  0  0  0  0  0  0  0  0  0  0
   59.0660   26.7590   45.9480 C   0  0  0  0  0  0  0  0  0  0  0  0
   58.5050   25.4820   45.8600 C   0  0  0  0  0  0  0  0  0  0  0  0
   54.7540   26.7100   46.3290 H   0  0  0  0  0  0  0  0  0  0  0  0
   54.7300   21.7143   45.7743 H   0  0  0  0  0  0  0  0  0  0  0  0
   55.8985   20.0765   44.3076 H   0  0  0  0  0  0  0  0  0  0  0  0
   57.9064   20.7699   43.0046 H   0  0  0  0  0  0  0  0  0  0  0  0
   58.7707   23.0991   43.1869 H   0  0  0  0  0  0  0  0  0  0  0  0
   57.2053   25.6662   42.7008 H   0  0  0  0  0  0  0  0  0  0  0  0
   58.1982   27.9488   42.8587 H   0  0  0  0  0  0  0  0  0  0  0  0
   60.6966   28.8812   45.0046 H   0  0  0  0  0  0  0  0  0  0  0  0
   59.3279   29.5796   44.0461 H   0  0  0  0  0  0  0  0  0  0  0  0
   59.1775   29.1454   47.0596 H   0  0  0  0  0  0  0  0  0  0  0  0
   59.7901   30.6713   46.3074 H   0  0  0  0  0  0  0  0  0  0  0  0
   58.3038   33.3480   43.5422 H   0  0  0  0  0  0  0  0  0  0  0  0
   59.5536   35.4456   44.0532 H   0  0  0  0  0  0  0  0  0  0  0  0
   60.1148   36.0280   46.4139 H   0  0  0  0  0  0  0  0  0  0  0  0
   58.1728   32.4115   47.7748 H   0  0  0  0  0  0  0  0  0  0  0  0
   59.5991   27.0613   46.8615 H   0  0  0  0  0  0  0  0  0  0  0  0
   58.5992   24.7835   46.7045 H   0  0  0  0  0  0  0  0  0  0  0  0
  1  2  1  0
  2  3  2  0
  2  4  2  0
  2  5  1  0
  5  6  2  0
  6  7  1  0
  7  8  2  0
  8  9  1  0
  9 10  2  0
 10 11  1  0
 11 12  2  0
 12 13  1  0
 13 14  2  0
 14 15  1  0
 15 16  1  0
 16 17  1  0
 17 18  1  0
 18 19  2  0
 18 20  1  0
 20 21  2  0
 21 22  1  0
 22 23  2  0
 23 24  1  0
 24 25  1  0
 24 26  2  0
 14 27  1  0
 27 28  2  0
 10  5  1  0
 28 11  1  0
 26 20  1  0
  1 29  1  0
  6 30  1  0
  7 31  1  0
  8 32  1  0
  9 33  1  0
 12 34  1  0
 13 35  1  0
 15 36  1  0
 15 37  1  0
 16 38  1  0
 16 39  1  0
 21 40  1  0
 22 41  1  0
 23 42  1  0
 26 43  1  0
 27 44  1  0
 28 45  1  0
M  CHG  2   1  -1  17  -1
M  END
>  <UniqueID>  (44) 
40

>  <SMILES>  (44) 
[NH-]S(=O)(=O)c1ccccc1-c1ccc(CC[N-]C(=O)c2cccc(F)c2)cc1

>  <Energy>  (44) 
51.46400095132954

>  <Genealogy>  (44) 
[NH-]S(=O)(=O)c1ccccc1-c1ccc(CC[N-]C(=O)c2cccc(F)c2)cc1 (protonated)
[NH-]S(=O)(=O)c1ccccc1-c1ccc(CC[N-]C(=O)c2cccc(F)c2)cc1 (3D coordinates assigned)
[NH-]S(=O)(=O)c1ccccc1-c1ccc(CC[N-]C(=O)c2cccc(F)c2)cc1 (optimized conformer: 51.46400095132954 kcal/mol)

>  <smiles>  (44) 
NS(=O)(=O)c1ccccc1-c1ccc(CCNC(=O)c2cccc(F)c2)cc1

>  <score_type>  (44) 
oracle

>  <origin>  (44) 
adg

>  <m_score__min__energy>  (44) 
-12.32

>  <m_primary>  (44) 
energy

$$$$
44:0
     RDKit          3D

 30 31  0  0  0  0  0  0  0  0999 V2000
   56.0220   30.8200   44.4970 O   0  0  0  0  0  0  0  0  0  0  0  0
   57.2630   30.9590   44.3240 C   0  0  0  0  0  0  0  0  0  0  0  0
   57.7460   32.2300   43.6710 C   0  0  0  0  0  0  0  0  0  0  0  0
   57.3980   33.4740   44.5000 C   0  0  0  0  0  0  0  0  0  0  0  0
   58.3420   33.6540   45.6610 C   0  0  0  0  0  0  0  0  0  0  0  0
   59.5260   34.3940   45.5050 C   0  0  0  0  0  0  0  0  0  0  0  0
   60.3840   34.5890   46.5930 C   0  0  0  0  0  0  0  0  0  0  0  0
   60.0630   34.0530   47.8430 C   0  0  0  0  0  0  0  0  0  0  0  0
   58.8820   33.3230   48.0070 C   0  0  0  0  0  0  0  0  0  0  0  0
   58.0220   33.1260   46.9230 C   0  0  0  0  0  0  0  0  0  0  0  0
   58.1840   29.8570   44.7270 C   0  0  0  0  0  0  0  0  0  0  0  0
   59.2730   30.1330   45.5770 C   0  0  0  0  0  0  0  0  0  0  0  0
   60.1450   29.1150   45.9730 C   0  0  0  0  0  0  0  0  0  0  0  0
   59.9440   27.8080   45.5250 C   0  0  0  0  0  0  0  0  0  0  0  0
   58.8720   27.5180   44.6800 C   0  0  0  0  0  0  0  0  0  0  0  0
   57.9960   28.5320   44.2810 C   0  0  0  0  0  0  0  0  0  0  0  0
   58.8385   32.1758   43.5544 H   0  0  0  0  0  0  0  0  0  0  0  0
   57.2444   32.3216   42.6963 H   0  0  0  0  0  0  0  0  0  0  0  0
   57.4564   34.3613   43.8525 H   0  0  0  0  0  0  0  0  0  0  0  0
   56.3822   33.3444   44.9017 H   0  0  0  0  0  0  0  0  0  0  0  0
   59.7795   34.8217   44.5238 H   0  0  0  0  0  0  0  0  0  0  0  0
   61.3123   35.1649   46.4642 H   0  0  0  0  0  0  0  0  0  0  0  0
   60.7390   34.2053   48.6973 H   0  0  0  0  0  0  0  0  0  0  0  0
   58.6290   32.9027   48.9915 H   0  0  0  0  0  0  0  0  0  0  0  0
   57.0913   32.5555   47.0584 H   0  0  0  0  0  0  0  0  0  0  0  0
   59.4388   31.1606   45.9328 H   0  0  0  0  0  0  0  0  0  0  0  0
   60.9906   29.3438   46.6383 H   0  0  0  0  0  0  0  0  0  0  0  0
   60.6303   27.0073   45.8380 H   0  0  0  0  0  0  0  0  0  0  0  0
   58.7156   26.4881   44.3266 H   0  0  0  0  0  0  0  0  0  0  0  0
   57.1539   28.2948   43.6143 H   0  0  0  0  0  0  0  0  0  0  0  0
  1  2  2  0
  2  3  1  0
  3  4  1  0
  4  5  1  0
  5  6  2  0
  6  7  1  0
  7  8  2  0
  8  9  1  0
  9 10  2  0
  2 11  1  0
 11 12  2  0
 12 13  1  0
 13 14  2  0
 14 15  1  0
 15 16  2  0
 10  5  1  0
 16 11  1  0
  3 17  1  0
  3 18  1  0
  4 19  1  0
  4 20  1  0
  6 21  1  0
  7 22  1  0
  8 23  1  0
  9 24  1  0
 10 25  1  0
 12 26  1  0
 13 27  1  0
 14 28  1  0
 15 29  1  0
 16 30  1  0
M  END
>  <UniqueID>  (45) 
41

>  <SMILES>  (45) 
O=C(CCc1ccccc1)c1ccccc1

>  <Energy>  (45) 
29.059821468139237

>  <Genealogy>  (45) 
O=C(CCc1ccccc1)c1ccccc1 (3D coordinates assigned)
O=C(CCc1ccccc1)c1ccccc1 (optimized conformer: 29.059821468139237 kcal/mol)

>  <smiles>  (45) 
O=C(CCc1ccccc1)c1ccccc1

>  <score_type>  (45) 
oracle

>  <origin>  (45) 
adg

>  <m_score__min__energy>  (45) 
-6.7599999999999998

>  <m_primary>  (45) 
energy

$$$$
45:0
     RDKit          3D

 47 49  0  0  0  0  0  0  0  0999 V2000
   64.0760   33.5660   51.2930 C   0  0  0  0  0  0  0  0  0  0  0  0
   62.8460   33.4160   50.5900 O   0  0  0  0  0  0  0  0  0  0  0  0
   62.7050   33.4970   49.1930 C   0  0  0  0  0  0  0  0  0  0  0  0
   63.8140   33.3560   48.3390 C   0  0  0  0  0  0  0  0  0  0  0  0
   63.6560   33.4170   46.9580 C   0  0  0  0  0  0  0  0  0  0  0  0
   62.3930   33.6110   46.4050 C   0  0  0  0  0  0  0  0  0  0  0  0
   61.2640   33.7590   47.2280 C   0  0  0  0  0  0  0  0  0  0  0  0
   59.9060   33.9180   46.5660 C   0  0  0  0  0  0  0  0  0  0  0  0
   59.4430   32.6460   45.9750 N   0  0  0  0  0  0  0  0  0  0  0  0
   60.0400   31.4880   46.3860 C   0  0  0  0  0  0  0  0  0  0  0  0
   59.6580   30.2390   45.8770 C   0  0  0  0  0  0  0  0  0  0  0  0
   60.3510   29.0060   46.4190 C   0  0  0  0  0  0  0  0  0  0  0  0
   60.7270   28.0480   45.2800 C   0  0  0  0  0  0  0  0  0  0  0  0
   61.8070   28.6030   44.4650 N   0  0  0  0  0  0  0  0  0  0  0  0
   58.6150   30.1830   44.9220 C   0  0  0  0  0  0  0  0  0  0  0  0
   58.1390   28.9600   44.3960 C   0  0  0  0  0  0  0  0  0  0  0  0
   57.1210   28.9430   43.4430 C   0  0  0  0  0  0  0  0  0  0  0  0
   56.5570   30.1340   42.9960 C   0  0  0  0  0  0  0  0  0  0  0  0
   57.0030   31.3530   43.5060 C   0  0  0  0  0  0  0  0  0  0  0  0
   58.0270   31.3930   44.4730 C   0  0  0  0  0  0  0  0  0  0  0  0
   58.4700   32.6200   45.0080 C   0  0  0  0  0  0  0  0  0  0  0  0
   57.9600   33.6980   44.5920 O   0  0  0  0  0  0  0  0  0  0  0  0
   61.4220   33.7220   48.6400 C   0  0  0  0  0  0  0  0  0  0  0  0
   60.2290   33.8530   49.5580 C   0  0  0  0  0  0  0  0  0  0  0  0
   63.8846   33.5427   52.3760 H   0  0  0  0  0  0  0  0  0  0  0  0
   64.7553   32.7440   51.0229 H   0  0  0  0  0  0  0  0  0  0  0  0
   64.5378   34.5271   51.0229 H   0  0  0  0  0  0  0  0  0  0  0  0
   64.8147   33.1961   48.7668 H   0  0  0  0  0  0  0  0  0  0  0  0
   64.5318   33.3116   46.3009 H   0  0  0  0  0  0  0  0  0  0  0  0
   62.2779   33.6488   45.3117 H   0  0  0  0  0  0  0  0  0  0  0  0
   59.1767   34.2488   47.3201 H   0  0  0  0  0  0  0  0  0  0  0  0
   59.9982   34.6611   45.7602 H   0  0  0  0  0  0  0  0  0  0  0  0
   60.8424   31.5370   47.1369 H   0  0  0  0  0  0  0  0  0  0  0  0
   61.2645   29.3101   46.9510 H   0  0  0  0  0  0  0  0  0  0  0  0
   59.6641   28.4875   47.1040 H   0  0  0  0  0  0  0  0  0  0  0  0
   61.0558   27.0900   45.7092 H   0  0  0  0  0  0  0  0  0  0  0  0
   59.8447   27.9003   44.6400 H   0  0  0  0  0  0  0  0  0  0  0  0
   61.5030   28.6730   43.4670 H   0  0  0  0  0  0  0  0  0  0  0  0
   62.6380   27.9710   44.5220 H   0  0  0  0  0  0  0  0  0  0  0  0
   62.0770   29.5480   44.8220 H   0  0  0  0  0  0  0  0  0  0  0  0
   58.5763   28.0118   44.7421 H   0  0  0  0  0  0  0  0  0  0  0  0
   56.7621   27.9834   43.0427 H   0  0  0  0  0  0  0  0  0  0  0  0
   55.7586   30.1140   42.2396 H   0  0  0  0  0  0  0  0  0  0  0  0
   56.5516   32.2910   43.1504 H   0  0  0  0  0  0  0  0  0  0  0  0
   60.5658   33.8160   50.6045 H   0  0  0  0  0  0  0  0  0  0  0  0
   59.7244   34.8120   49.3689 H   0  0  0  0  0  0  0  0  0  0  0  0
   59.5283   33.0264   49.3689 H   0  0  0  0  0  0  0  0  0  0  0  0
  1  2  1  0
  2  3  1  0
  3  4  2  0
  4  5  1  0
  5  6  2  0
  6  7  1  0
  7  8  1  0
  8  9  1  0
  9 10  1  0
 10 11  2  0
 11 12  1  0
 12 13  1  0
 13 14  1  0
 11 15  1  0
 15 16  2  0
 16 17  1  0
 17 18  2  0
 18 19  1  0
 19 20  2  0
 20 21  1  0
 21 22  2  0
  7 23  2  0
 23 24  1  0
 23  3  1  0
 21  9  1  0
 20 15  1  0
  1 25  1  0
  1 26  1  0
  1 27  1  0
  4 28  1  0
  5 29  1  0
  6 30  1  0
  8 31  1  0
  8 32  1  0
 10 33  1  0
 12 34  1  0
 12 35  1  0
 13 36  1  0
 13 37  1  0
 14 38  1  0
 14 39  1  0
 14 40  1  0
 16 41  1  0
 17 42  1  0
 18 43  1  0
 19 44  1  0
 24 45  1  0
 24 46  1  0
 24 47  1  0
M  CHG  1  14   1
M  END
>  <UniqueID>  (46) 
42

>  <SMILES>  (46) 
COc1cccc(Cn2cc(CC[NH3+])c3ccccc3c2=O)c1C

>  <Energy>  (46) 
56.9021191170122

>  <Genealogy>  (46) 
COc1cccc(Cn2cc(CC[NH3+])c3ccccc3c2=O)c1C (protonated)
COc1cccc(Cn2cc(CC[NH3+])c3ccccc3c2=O)c1C (3D coordinates assigned)
COc1cccc(Cn2cc(CC[NH3+])c3ccccc3c2=O)c1C (optimized conformer: 56.9021191170122 kcal/mol)

>  <smiles>  (46) 
COc1cccc(Cn2cc(CCN)c3ccccc3c2=O)c1C

>  <score_type>  (46) 
oracle

>  <origin>  (46) 
adg

>  <m_score__min__energy>  (46) 
-6.2999999999999998

>  <m_primary>  (46) 
energy

$$$$
46:0
     RDKit          3D

 45 49  0  0  0  0  0  0  0  0999 V2000
   59.7160   29.6110   45.1380 C   0  0  0  0  0  0  0  0  0  0  0  0
   60.7630   29.7120   46.0590 C   0  0  0  0  0  0  0  0  0  0  0  0
   60.5340   30.2700   47.3200 C   0  0  0  0  0  0  0  0  0  0  0  0
   59.2590   30.7460   47.6580 C   0  0  0  0  0  0  0  0  0  0  0  0
   59.0260   31.3370   48.9840 C   0  0  0  0  0  0  0  0  0  0  0  0
   58.4750   30.6220   49.9960 N   0  0  0  0  0  0  0  0  0  0  0  0
   58.3960   31.4910   51.0120 C   0  0  0  0  0  0  0  0  0  0  0  0
   57.8700   31.2760   52.2850 C   0  0  0  0  0  0  0  0  0  0  0  0
   57.8650   32.3600   53.1800 C   0  0  0  0  0  0  0  0  0  0  0  0
   58.3720   33.6180   52.7830 C   0  0  0  0  0  0  0  0  0  0  0  0
   58.8930   33.8020   51.4880 C   0  0  0  0  0  0  0  0  0  0  0  0
   58.8960   32.7020   50.6250 C   0  0  0  0  0  0  0  0  0  0  0  0
   59.3210   32.6250   49.3430 N   0  0  0  0  0  0  0  0  0  0  0  0
   59.8770   33.7350   48.5430 C   0  0  1  0  0  0  0  0  0  0  0  0
   61.3630   33.5630   48.2690 C   0  0  0  0  0  0  0  0  0  0  0  0
   61.8710   33.2580   46.9880 C   0  0  0  0  0  0  0  0  0  0  0  0
   63.2450   33.0760   46.7970 C   0  0  0  0  0  0  0  0  0  0  0  0
   64.1250   33.1970   47.8740 C   0  0  0  0  0  0  0  0  0  0  0  0
   63.6350   33.5000   49.1460 C   0  0  0  0  0  0  0  0  0  0  0  0
   62.2630   33.6810   49.3430 C   0  0  0  0  0  0  0  0  0  0  0  0
   59.0480   33.9650   47.3090 C   0  0  0  0  0  0  0  0  0  0  0  0
   57.8060   33.4660   47.1250 N   0  0  0  0  0  0  0  0  0  0  0  0
   57.3010   33.7950   45.9070 C   0  0  0  0  0  0  0  0  0  0  0  0
   58.1410   34.5560   45.1040 C   0  0  0  0  0  0  0  0  0  0  0  0
   59.5660   34.8220   45.9570 S   0  0  0  0  0  0  0  0  0  0  0  0
   58.2060   30.6210   46.7410 C   0  0  0  0  0  0  0  0  0  0  0  0
   58.4380   30.0610   45.4810 C   0  0  0  0  0  0  0  0  0  0  0  0
   59.8980   29.1774   44.1436 H   0  0  0  0  0  0  0  0  0  0  0  0
   61.7674   29.3522   45.7912 H   0  0  0  0  0  0  0  0  0  0  0  0
   61.3555   30.3358   48.0486 H   0  0  0  0  0  0  0  0  0  0  0  0
   58.1600   29.6270   49.9790 H   0  0  0  0  0  0  0  0  0  0  0  0
   57.4730   30.2931   52.5787 H   0  0  0  0  0  0  0  0  0  0  0  0
   57.4639   32.2282   54.1958 H   0  0  0  0  0  0  0  0  0  0  0  0
   58.3595   34.4597   53.4911 H   0  0  0  0  0  0  0  0  0  0  0  0
   59.2845   34.7783   51.1661 H   0  0  0  0  0  0  0  0  0  0  0  0
   59.8127   34.6580   49.1380 H   0  0  0  0  0  0  0  0  0  0  0  0
   61.1829   33.1629   46.1351 H   0  0  0  0  0  0  0  0  0  0  0  0
   63.6328   32.8370   45.7958 H   0  0  0  0  0  0  0  0  0  0  0  0
   65.2048   33.0536   47.7205 H   0  0  0  0  0  0  0  0  0  0  0  0
   64.3293   33.5963   49.9937 H   0  0  0  0  0  0  0  0  0  0  0  0
   61.8837   33.9180   50.3479 H   0  0  0  0  0  0  0  0  0  0  0  0
   56.2986   33.4811   45.5803 H   0  0  0  0  0  0  0  0  0  0  0  0
   57.9146   34.9198   44.0909 H   0  0  0  0  0  0  0  0  0  0  0  0
   57.1967   30.9637   47.0129 H   0  0  0  0  0  0  0  0  0  0  0  0
   57.6132   29.9745   44.7584 H   0  0  0  0  0  0  0  0  0  0  0  0
  1  2  2  0
  2  3  1  0
  3  4  2  0
  4  5  1  0
  5  6  2  0
  6  7  1  0
  7  8  2  0
  8  9  1  0
  9 10  2  0
 10 11  1  0
 11 12  2  0
 12 13  1  0
 13 14  1  0
 14 15  1  0
 15 16  2  0
 16 17  1  0
 17 18  2  0
 18 19  1  0
 19 20  2  0
 14 21  1  0
 21 22  2  0
 22 23  1  0
 23 24  2  0
 24 25  1  0
  4 26  1  0
 26 27  2  0
 27  1  1  0
 13  5  1  0
 20 15  1  0
 25 21  1  0
 12  7  1  0
  1 28  1  0
  2 29  1  0
  3 30  1  0
  6 31  1  0
  8 32  1  0
  9 33  1  0
 10 34  1  0
 11 35  1  0
 14 36  1  1
 16 37  1  0
 17 38  1  0
 18 39  1  0
 19 40  1  0
 20 41  1  0
 23 42  1  0
 24 43  1  0
 26 44  1  0
 27 45  1  0
M  CHG  1   6   1
M  END
>  <UniqueID>  (47) 
43

>  <SMILES>  (47) 
c1ccc(-c2[nH+]c3ccccc3n2[C@@H](c2ccccc2)c2nccs2)cc1

>  <Energy>  (47) 
127.59469567251611

>  <Genealogy>  (47) 
c1ccc(-c2[nH+]c3ccccc3n2C(c2ccccc2)c2nccs2)cc1 (protonated)
c1ccc(-c2[nH+]c3ccccc3n2[C@@H](c2ccccc2)c2nccs2)cc1 (chirality)
c1ccc(-c2[nH+]c3ccccc3n2[C@@H](c2ccccc2)c2nccs2)cc1 (3D coordinates assigned)
c1ccc(-c2[nH+]c3ccccc3n2[C@@H](c2ccccc2)c2nccs2)cc1 (optimized conformer: 127.59469567251611 kcal/mol)

>  <smiles>  (47) 
c1ccc(-c2nc3ccccc3n2C(c2ccccc2)c2nccs2)cc1

>  <score_type>  (47) 
oracle

>  <origin>  (47) 
adg

>  <m_score__min__energy>  (47) 
-6.8200000000000003

>  <m_primary>  (47) 
energy

$$$$
47:0
     RDKit          3D

 45 47  0  0  0  0  0  0  0  0999 V2000
   63.0740   33.8220   46.5200 C   0  0  0  0  0  0  0  0  0  0  0  0
   61.7230   33.5950   47.0430 N   0  0  0  0  0  0  0  0  0  0  0  0
   60.6010   33.3520   46.1220 C   0  0  0  0  0  0  0  0  0  0  0  0
   59.3630   34.1800   46.5480 C   0  0  1  0  0  0  0  0  0  0  0  0
   59.6390   35.6800   46.3270 C   0  0  0  0  0  0  0  0  0  0  0  0
   58.1340   33.7210   45.7320 C   0  0  0  0  0  0  0  0  0  0  0  0
   58.4480   32.6100   44.8860 O   0  0  0  0  0  0  0  0  0  0  0  0
   58.0790   31.2690   45.0880 C   0  0  0  0  0  0  0  0  0  0  0  0
   57.0990   30.6110   44.3180 C   0  0  0  0  0  0  0  0  0  0  0  0
   56.7780   29.2750   44.5770 C   0  0  0  0  0  0  0  0  0  0  0  0
   57.4250   28.5790   45.6040 C   0  0  0  0  0  0  0  0  0  0  0  0
   57.0300   26.8910   45.9170 S   0  0  0  0  0  0  0  0  0  0  0  0
   57.6760   25.8810   44.6030 C   0  0  0  0  0  0  0  0  0  0  0  0
   57.6340   26.4600   47.2230 O   0  0  0  0  0  0  0  0  0  0  0  0
   55.5390   26.7230   45.9940 O   0  0  0  0  0  0  0  0  0  0  0  0
   58.4090   29.2240   46.3620 C   0  0  0  0  0  0  0  0  0  0  0  0
   58.7300   30.5600   46.1050 C   0  0  0  0  0  0  0  0  0  0  0  0
   59.0960   33.9540   47.9360 O   0  0  0  0  0  0  0  0  0  0  0  0
   60.1150   33.8020   48.8830 C   0  0  0  0  0  0  0  0  0  0  0  0
   59.8040   33.8110   50.2460 C   0  0  0  0  0  0  0  0  0  0  0  0
   60.8190   33.6810   51.1970 C   0  0  0  0  0  0  0  0  0  0  0  0
   62.1470   33.5380   50.7890 C   0  0  0  0  0  0  0  0  0  0  0  0
   62.4650   33.5160   49.4270 C   0  0  0  0  0  0  0  0  0  0  0  0
   61.4480   33.6390   48.4610 C   0  0  0  0  0  0  0  0  0  0  0  0
   63.7766   33.9400   47.3581 H   0  0  0  0  0  0  0  0  0  0  0  0
   63.3783   32.9624   45.9048 H   0  0  0  0  0  0  0  0  0  0  0  0
   63.0806   34.7338   45.9048 H   0  0  0  0  0  0  0  0  0  0  0  0
   60.8985   33.6428   45.1037 H   0  0  0  0  0  0  0  0  0  0  0  0
   60.3420   32.2833   46.1497 H   0  0  0  0  0  0  0  0  0  0  0  0
   59.7316   36.1831   47.3008 H   0  0  0  0  0  0  0  0  0  0  0  0
   60.5745   35.8012   45.7612 H   0  0  0  0  0  0  0  0  0  0  0  0
   58.8079   36.1263   45.7612 H   0  0  0  0  0  0  0  0  0  0  0  0
   57.3342   33.4256   46.4270 H   0  0  0  0  0  0  0  0  0  0  0  0
   57.8119   34.5580   45.0951 H   0  0  0  0  0  0  0  0  0  0  0  0
   56.5843   31.1509   43.5096 H   0  0  0  0  0  0  0  0  0  0  0  0
   56.0129   28.7685   43.9703 H   0  0  0  0  0  0  0  0  0  0  0  0
   58.2220   25.0274   45.0312 H   0  0  0  0  0  0  0  0  0  0  0  0
   56.8461   25.5116   43.9826 H   0  0  0  0  0  0  0  0  0  0  0  0
   58.3594   26.4794   43.9826 H   0  0  0  0  0  0  0  0  0  0  0  0
   58.9310   28.6783   47.1619 H   0  0  0  0  0  0  0  0  0  0  0  0
   59.5023   31.0597   46.7082 H   0  0  0  0  0  0  0  0  0  0  0  0
   58.7585   33.9206   50.5701 H   0  0  0  0  0  0  0  0  0  0  0  0
   60.5719   33.6913   52.2688 H   0  0  0  0  0  0  0  0  0  0  0  0
   62.9447   33.4425   51.5404 H   0  0  0  0  0  0  0  0  0  0  0  0
   63.5121   33.4023   49.1098 H   0  0  0  0  0  0  0  0  0  0  0  0
  1  2  1  0
  2  3  1  0
  3  4  1  0
  4  5  1  1
  4  6  1  0
  6  7  1  0
  7  8  1  0
  8  9  2  0
  9 10  1  0
 10 11  2  0
 11 12  1  0
 12 13  1  0
 12 14  2  0
 12 15  2  0
 11 16  1  0
 16 17  2  0
  4 18  1  0
 18 19  1  0
 19 20  2  0
 20 21  1  0
 21 22  2  0
 22 23  1  0
 23 24  2  0
 24  2  1  0
 17  8  1  0
 24 19  1  0
  1 25  1  0
  1 26  1  0
  1 27  1  0
  3 28  1  0
  3 29  1  0
  5 30  1  0
  5 31  1  0
  5 32  1  0
  6 33  1  0
  6 34  1  0
  9 35  1  0
 10 36  1  0
 13 37  1  0
 13 38  1  0
 13 39  1  0
 16 40  1  0
 17 41  1  0
 20 42  1  0
 21 43  1  0
 22 44  1  0
 23 45  1  0
M  END
>  <UniqueID>  (48) 
44

>  <SMILES>  (48) 
CN1C[C@@](C)(COc2ccc(S(C)(=O)=O)cc2)Oc2ccccc21

>  <Energy>  (48) 
45.065014012759754

>  <Genealogy>  (48) 
CN1C[C@@](C)(COc2ccc(S(C)(=O)=O)cc2)Oc2ccccc21 (chirality)
CN1C[C@@](C)(COc2ccc(S(C)(=O)=O)cc2)Oc2ccccc21 (3D coordinates assigned)
CN1C[C@@](C)(COc2ccc(S(C)(=O)=O)cc2)Oc2ccccc21 (nonaromatic ring conformer: 45.065014012759754 kcal/mol)

>  <smiles>  (48) 
CN1CC(C)(COc2ccc(S(C)(=O)=O)cc2)Oc2ccccc21

>  <score_type>  (48) 
oracle

>  <origin>  (48) 
adg

>  <m_score__min__energy>  (48) 
-7.7999999999999998

>  <m_primary>  (48) 
energy

$$$$
48:0
     RDKit          3D

 38 40  0  0  0  0  0  0  0  0999 V2000
   56.0846   28.5003   43.1123 H   0  0  0  0  0  0  0  0  0  0  0  0
   56.3570   29.4550   43.5860 C   0  0  0  0  0  0  0  0  0  0  0  0
   56.2740   29.7250   44.8710 O   0  0  0  0  0  0  0  0  0  0  0  0
   56.6690   30.9380   45.1290 N   0  0  0  0  0  0  0  0  0  0  0  0
   57.0240   31.4760   43.9480 C   0  0  0  0  0  0  0  0  0  0  0  0
   57.4760   32.6840   43.7830 N   0  0  0  0  0  0  0  0  0  0  0  0
   58.0670   33.5150   44.7970 C   0  0  0  0  0  0  0  0  0  0  0  0
   57.7640   34.7370   44.8770 O   0  0  0  0  0  0  0  0  0  0  0  0
   59.0380   32.9300   45.7530 C   0  0  0  0  0  0  0  0  0  0  0  0
   59.9220   33.7620   46.4610 C   0  0  0  0  0  0  0  0  0  0  0  0
   59.8994   34.8505   46.3041 H   0  0  0  0  0  0  0  0  0  0  0  0
   60.8340   33.2010   47.3690 C   0  0  0  0  0  0  0  0  0  0  0  0
   61.7480   33.9710   48.1070 O   0  0  0  0  0  0  0  0  0  0  0  0
   63.1620   33.7740   48.1480 C   0  0  0  0  0  0  0  0  0  0  0  0
   63.3923   32.9591   48.8501 H   0  0  0  0  0  0  0  0  0  0  0  0
   63.6387   34.7092   48.4769 H   0  0  0  0  0  0  0  0  0  0  0  0
   63.6990   33.4110   46.7670 C   0  0  0  0  0  0  0  0  0  0  0  0
   64.6059   32.7980   46.8757 H   0  0  0  0  0  0  0  0  0  0  0  0
   62.9362   32.8425   46.2148 H   0  0  0  0  0  0  0  0  0  0  0  0
   63.9422   34.3307   46.2148 H   0  0  0  0  0  0  0  0  0  0  0  0
   60.8500   31.8170   47.5460 C   0  0  0  0  0  0  0  0  0  0  0  0
   61.5627   31.3626   48.2500 H   0  0  0  0  0  0  0  0  0  0  0  0
   59.9600   31.0030   46.8290 C   0  0  0  0  0  0  0  0  0  0  0  0
   59.9800   29.5300   47.0100 C   0  0  0  0  0  0  0  0  0  0  0  0
   60.0040   28.9730   48.3020 C   0  0  0  0  0  0  0  0  0  0  0  0
   60.0063   29.6330   49.1820 H   0  0  0  0  0  0  0  0  0  0  0  0
   60.0250   27.5850   48.4740 C   0  0  0  0  0  0  0  0  0  0  0  0
   60.0423   27.1580   49.4876 H   0  0  0  0  0  0  0  0  0  0  0  0
   60.0240   26.7400   47.3620 C   0  0  0  0  0  0  0  0  0  0  0  0
   60.0413   25.6488   47.5002 H   0  0  0  0  0  0  0  0  0  0  0  0
   60.0010   27.2810   46.0740 C   0  0  0  0  0  0  0  0  0  0  0  0
   59.9994   26.6150   45.1986 H   0  0  0  0  0  0  0  0  0  0  0  0
   59.9800   28.6690   45.8960 C   0  0  0  0  0  0  0  0  0  0  0  0
   59.9634   29.0897   44.8798 H   0  0  0  0  0  0  0  0  0  0  0  0
   59.0800   31.5780   45.9560 N   0  0  0  0  0  0  0  0  0  0  0  0
   58.4060   30.9640   45.4460 H   0  0  0  0  0  0  0  0  0  0  0  0
   56.8420   30.5670   42.9320 C   0  0  0  0  0  0  0  0  0  0  0  0
   57.0365   30.6963   41.8571 H   0  0  0  0  0  0  0  0  0  0  0  0
  1  2  1  0
  2  3  1  0
  3  4  1  0
  4  5  1  0
  5  6  2  0
  6  7  1  0
  7  8  2  0
  7  9  1  0
  9 10  2  0
 10 11  1  0
 10 12  1  0
 12 13  1  0
 13 14  1  0
 14 15  1  0
 14 16  1  0
 14 17  1  0
 17 18  1  0
 17 19  1  0
 17 20  1  0
 12 21  2  0
 21 22  1  0
 21 23  1  0
 23 24  1  0
 24 25  2  0
 25 26  1  0
 25 27  1  0
 27 28  1  0
 27 29  2  0
 29 30  1  0
 29 31  1  0
 31 32  1  0
 31 33  2  0
 33 34  1  0
 23 35  2  0
 35 36  1  0
  5 37  1  0
 37 38  1  0
 37  2  2  0
 35  9  1  0
 33 24  1  0
M  CHG  2   4  -1  35   1
M  END
>  <UniqueID>  (49) 
45

>  <SMILES>  (49) 
CCOc1cc(C(=O)/N=c2/cco[n-]2)[nH+]c(-c2ccccc2)c1

>  <Energy>  (49) 
77.07934570333028

>  <Genealogy>  (49) 
CCOc1cc(C(=O)N=c2cco[n-]2)[nH+]c(-c2ccccc2)c1 (protonated)
CCOc1cc(C(=O)/N=c2/cco[n-]2)[nH+]c(-c2ccccc2)c1 (cis-trans isomerization)
CCOc1cc(C(=O)/N=c2/cco[n-]2)[nH+]c(-c2ccccc2)c1 (3D coordinates assigned)
CCOc1cc(C(=O)/N=c2/cco[n-]2)[nH+]c(-c2ccccc2)c1 (optimized conformer: 77.07934570333028 kcal/mol)

>  <smiles>  (49) 
CCOc1cc(C(=O)N=c2cco[nH]2)nc(-c2ccccc2)c1

>  <score_type>  (49) 
oracle

>  <origin>  (49) 
adg

>  <m_score__min__energy>  (49) 
-6.8200000000000003

>  <m_primary>  (49) 
energy

$$$$
49:0
     RDKit          3D

 36 38  0  0  0  0  0  0  0  0999 V2000
   61.7345   29.5651   48.1682 H   0  0  0  0  0  0  0  0  0  0  0  0
   60.7990   29.3550   47.6290 C   0  0  0  0  0  0  0  0  0  0  0  0
   60.7630   29.4340   46.2340 C   0  0  0  0  0  0  0  0  0  0  0  0
   61.6723   29.7001   45.6751 H   0  0  0  0  0  0  0  0  0  0  0  0
   59.5720   29.1750   45.5480 C   0  0  0  0  0  0  0  0  0  0  0  0
   59.5512   29.2218   44.4492 H   0  0  0  0  0  0  0  0  0  0  0  0
   58.4010   28.8550   46.2580 C   0  0  0  0  0  0  0  0  0  0  0  0
   57.1580   28.5840   45.5920 N   0  0  0  0  0  0  0  0  0  0  0  0
   56.3760   29.5080   44.8200 C   0  0  0  0  0  0  0  0  0  0  0  0
   55.1260   29.3640   44.7990 O   0  0  0  0  0  0  0  0  0  0  0  0
   56.9830   30.6400   44.0740 C   0  0  0  0  0  0  0  0  0  0  0  0
   56.8540   30.6770   42.6780 C   0  0  0  0  0  0  0  0  0  0  0  0
   56.2983   29.8820   42.1592 H   0  0  0  0  0  0  0  0  0  0  0  0
   57.4240   31.7120   41.9460 C   0  0  0  0  0  0  0  0  0  0  0  0
   57.3229   31.7390   40.8510 H   0  0  0  0  0  0  0  0  0  0  0  0
   58.1240   32.7140   42.6120 C   0  0  0  0  0  0  0  0  0  0  0  0
   58.5918   33.5278   42.0385 H   0  0  0  0  0  0  0  0  0  0  0  0
   58.2330   32.6930   43.9670 N   0  0  0  0  0  0  0  0  0  0  0  0
   58.7980   33.4520   44.4070 H   0  0  0  0  0  0  0  0  0  0  0  0
   57.6590   31.7020   44.7220 C   0  0  0  0  0  0  0  0  0  0  0  0
   57.7350   31.7110   46.0260 N   0  0  0  0  0  0  0  0  0  0  0  0
   58.6560   32.4540   46.8390 C   0  0  0  0  0  0  0  0  0  0  0  0
   58.3370   32.8050   48.1620 C   0  0  0  0  0  0  0  0  0  0  0  0
   57.3509   32.5471   48.5757 H   0  0  0  0  0  0  0  0  0  0  0  0
   59.2700   33.4810   48.9530 C   0  0  0  0  0  0  0  0  0  0  0  0
   59.0109   33.7695   49.9824 H   0  0  0  0  0  0  0  0  0  0  0  0
   60.5320   33.7910   48.4380 C   0  0  0  0  0  0  0  0  0  0  0  0
   61.2624   34.3300   49.0594 H   0  0  0  0  0  0  0  0  0  0  0  0
   60.8660   33.4160   47.1330 C   0  0  0  0  0  0  0  0  0  0  0  0
   62.4550   33.7880   46.4910 Cl  0  0  0  0  0  0  0  0  0  0  0  0
   59.9320   32.7390   46.3390 C   0  0  0  0  0  0  0  0  0  0  0  0
   60.2021   32.4300   45.3184 H   0  0  0  0  0  0  0  0  0  0  0  0
   58.4530   28.7510   47.6540 C   0  0  0  0  0  0  0  0  0  0  0  0
   57.5513   28.4650   48.2153 H   0  0  0  0  0  0  0  0  0  0  0  0
   59.6460   29.0090   48.3380 C   0  0  0  0  0  0  0  0  0  0  0  0
   59.6761   28.9393   49.4354 H   0  0  0  0  0  0  0  0  0  0  0  0
  1  2  1  0
  2  3  2  0
  3  4  1  0
  3  5  1  0
  5  6  1  0
  5  7  2  0
  7  8  1  0
  8  9  1  0
  9 10  2  0
  9 11  1  0
 11 12  2  0
 12 13  1  0
 12 14  1  0
 14 15  1  0
 14 16  2  0
 16 17  1  0
 16 18  1  0
 18 19  1  0
 18 20  1  0
 20 21  2  0
 21 22  1  0
 22 23  2  0
 23 24  1  0
 23 25  1  0
 25 26  1  0
 25 27  2  0
 27 28  1  0
 27 29  1  0
 29 30  1  0
 29 31  2  0
 31 32  1  0
  7 33  1  0
 33 34  1  0
 33 35  2  0
 35 36  1  0
 35  2  1  0
 20 11  1  0
 31 22  1  0
M  CHG  1   8  -1
M  END
>  <UniqueID>  (50) 
46

>  <SMILES>  (50) 
O=C([N-]c1ccccc1)c1ccc[nH]/c1=N\c1cccc(Cl)c1

>  <Energy>  (50) 
55.65811857651682

>  <Genealogy>  (50) 
O=C([N-]c1ccccc1)c1ccc[nH]c1=Nc1cccc(Cl)c1 (protonated)
O=C([N-]c1ccccc1)c1ccc[nH]/c1=N\c1cccc(Cl)c1 (cis-trans isomerization)
O=C([N-]c1ccccc1)c1ccc[nH]/c1=N\c1cccc(Cl)c1 (3D coordinates assigned)
O=C([N-]c1ccccc1)c1ccc[nH]/c1=N\c1cccc(Cl)c1 (optimized conformer: 55.65811857651682 kcal/mol)

>  <smiles>  (50) 
O=C(Nc1ccccc1)c1ccc[nH]c1=Nc1cccc(Cl)c1

>  <score_type>  (50) 
oracle

>  <origin>  (50) 
adg

>  <m_score__min__energy>  (50) 
-9.5399999999999991

>  <m_primary>  (50) 
energy

$$$$
50:0
     RDKit          3D

 47 49  0  0  0  0  0  0  0  0999 V2000
   56.1390   29.6770   42.6900 C   0  0  0  0  0  0  0  0  0  0  0  0
   56.2020   29.8060   44.1820 C   0  0  0  0  0  0  0  0  0  0  0  0
   55.2160   29.4090   44.8600 O   0  0  0  0  0  0  0  0  0  0  0  0
   57.3870   30.3860   44.8720 C   0  0  0  0  0  0  0  0  0  0  0  0
   57.5300   31.7760   45.0370 C   0  0  0  0  0  0  0  0  0  0  0  0
   58.6490   32.3050   45.6870 C   0  0  0  0  0  0  0  0  0  0  0  0
   59.6530   31.4590   46.1840 C   0  0  0  0  0  0  0  0  0  0  0  0
   60.8050   32.0080   46.8610 N   0  0  0  0  0  0  0  0  0  0  0  0
   60.9070   33.4680   47.0320 C   0  0  0  0  0  0  0  0  0  0  0  0
   62.0090   33.8400   48.0300 C   0  0  0  0  0  0  0  0  0  0  0  0
   63.3340   33.1620   47.6240 C   0  0  0  0  0  0  0  0  0  0  0  0
   64.4820   33.5310   48.4840 N   0  0  0  0  0  0  0  0  0  0  0  0
   64.3160   33.4050   49.9460 C   0  0  0  0  0  0  0  0  0  0  0  0
   65.0470   32.2200   50.5230 C   0  0  0  0  0  0  0  0  0  0  0  0
   66.4500   32.1590   50.4930 C   0  0  0  0  0  0  0  0  0  0  0  0
   67.1210   31.0650   51.0470 C   0  0  0  0  0  0  0  0  0  0  0  0
   66.3970   30.0180   51.6240 C   0  0  0  0  0  0  0  0  0  0  0  0
   65.0000   30.0610   51.6430 C   0  0  0  0  0  0  0  0  0  0  0  0
   64.2990   29.0420   52.1990 F   0  0  0  0  0  0  0  0  0  0  0  0
   64.3260   31.1540   51.0920 C   0  0  0  0  0  0  0  0  0  0  0  0
   63.1940   31.6260   47.4090 C   0  0  0  0  0  0  0  0  0  0  0  0
   61.7520   31.1140   47.5470 C   0  0  0  0  0  0  0  0  0  0  0  0
   59.5110   30.0710   46.0230 C   0  0  0  0  0  0  0  0  0  0  0  0
   58.3920   29.5410   45.3750 C   0  0  0  0  0  0  0  0  0  0  0  0
   55.6706   28.7178   42.4244 H   0  0  0  0  0  0  0  0  0  0  0  0
   55.5431   30.5034   42.2754 H   0  0  0  0  0  0  0  0  0  0  0  0
   57.1571   29.7151   42.2754 H   0  0  0  0  0  0  0  0  0  0  0  0
   56.7538   32.4530   44.6508 H   0  0  0  0  0  0  0  0  0  0  0  0
   58.7436   33.3940   45.8101 H   0  0  0  0  0  0  0  0  0  0  0  0
   61.1360   33.9269   46.0589 H   0  0  0  0  0  0  0  0  0  0  0  0
   59.9476   33.8380   47.4228 H   0  0  0  0  0  0  0  0  0  0  0  0
   62.1440   34.9317   48.0344 H   0  0  0  0  0  0  0  0  0  0  0  0
   61.7193   33.4977   49.0344 H   0  0  0  0  0  0  0  0  0  0  0  0
   63.5772   33.5790   46.6356 H   0  0  0  0  0  0  0  0  0  0  0  0
   65.3430   33.0250   48.1720 H   0  0  0  0  0  0  0  0  0  0  0  0
   64.6999   34.3192   50.4222 H   0  0  0  0  0  0  0  0  0  0  0  0
   63.2439   33.2575   50.1434 H   0  0  0  0  0  0  0  0  0  0  0  0
   67.0235   32.9762   50.0312 H   0  0  0  0  0  0  0  0  0  0  0  0
   68.2202   31.0281   51.0288 H   0  0  0  0  0  0  0  0  0  0  0  0
   66.9267   29.1599   52.0633 H   0  0  0  0  0  0  0  0  0  0  0  0
   63.2264   31.1812   51.1031 H   0  0  0  0  0  0  0  0  0  0  0  0
   63.5543   31.3821   46.3987 H   0  0  0  0  0  0  0  0  0  0  0  0
   63.7869   31.1351   48.1948 H   0  0  0  0  0  0  0  0  0  0  0  0
   61.6833   30.1095   47.1039 H   0  0  0  0  0  0  0  0  0  0  0  0
   61.4926   31.0834   48.6155 H   0  0  0  0  0  0  0  0  0  0  0  0
   60.2875   29.3951   46.4104 H   0  0  0  0  0  0  0  0  0  0  0  0
   58.2964   28.4515   45.2572 H   0  0  0  0  0  0  0  0  0  0  0  0
  1  2  1  0
  2  3  2  0
  2  4  1  0
  4  5  2  0
  5  6  1  0
  6  7  2  0
  7  8  1  0
  8  9  1  0
  9 10  1  0
 10 11  1  0
 11 12  1  0
 12 13  1  0
 13 14  1  0
 14 15  2  0
 15 16  1  0
 16 17  2  0
 17 18  1  0
 18 19  1  0
 18 20  2  0
 11 21  1  0
 21 22  1  0
  7 23  1  0
 23 24  2  0
 24  4  1  0
 22  8  1  0
 20 14  1  0
  1 25  1  0
  1 26  1  0
  1 27  1  0
  5 28  1  0
  6 29  1  0
  9 30  1  0
  9 31  1  0
 10 32  1  0
 10 33  1  0
 11 34  1  0
 12 35  1  0
 13 36  1  0
 13 37  1  0
 15 38  1  0
 16 39  1  0
 17 40  1  0
 20 41  1  0
 21 42  1  0
 21 43  1  0
 22 44  1  0
 22 45  1  0
 23 46  1  0
 24 47  1  0
M  END
>  <UniqueID>  (51) 
47

>  <SMILES>  (51) 
CC(=O)c1ccc(N2CCC(NCc3cccc(F)c3)CC2)cc1

>  <Energy>  (51) 
60.23218983118213

>  <Genealogy>  (51) 
CC(=O)c1ccc(N2CCC(NCc3cccc(F)c3)CC2)cc1 (3D coordinates assigned)
CC(=O)c1ccc(N2CCC(NCc3cccc(F)c3)CC2)cc1 (nonaromatic ring conformer: 60.23218983118213 kcal/mol)

>  <smiles>  (51) 
CC(=O)c1ccc(N2CCC(NCc3cccc(F)c3)CC2)cc1

>  <score_type>  (51) 
oracle

>  <origin>  (51) 
adg

>  <m_score__min__energy>  (51) 
-8.0399999999999991

>  <m_primary>  (51) 
energy

$$$$
51:0
     RDKit          3D

 33 36  0  0  0  0  0  0  0  0999 V2000
   58.8890   33.9770   47.5310 C   0  0  0  0  0  0  0  0  0  0  0  0
   58.6050   33.7350   46.1850 C   0  0  0  0  0  0  0  0  0  0  0  0
   58.4570   32.4150   45.7350 C   0  0  0  0  0  0  0  0  0  0  0  0
   58.1400   32.1500   44.3150 C   0  0  0  0  0  0  0  0  0  0  0  0
   58.0470   33.1060   43.3740 N   0  0  0  0  0  0  0  0  0  0  0  0
   57.6380   32.5060   42.2670 N   0  0  0  0  0  0  0  0  0  0  0  0
   57.4900   31.2100   42.5030 N   0  0  0  0  0  0  0  0  0  0  0  0
   57.7970   30.9620   43.7680 N   0  0  0  0  0  0  0  0  0  0  0  0
   57.8290   29.6440   44.3380 C   0  0  0  0  0  0  0  0  0  0  0  0
   59.0590   28.9920   44.5250 C   0  0  0  0  0  0  0  0  0  0  0  0
   59.1070   27.7160   45.0950 C   0  0  0  0  0  0  0  0  0  0  0  0
   57.9250   27.0890   45.4980 C   0  0  0  0  0  0  0  0  0  0  0  0
   56.6930   27.7280   45.3100 C   0  0  0  0  0  0  0  0  0  0  0  0
   56.6440   29.0090   44.7540 C   0  0  0  0  0  0  0  0  0  0  0  0
   55.5200   27.0670   45.6870 O   0  0  0  0  0  0  0  0  0  0  0  0
   55.5270   25.6700   45.9910 C   0  0  0  0  0  0  0  0  0  0  0  0
   56.8010   25.2990   46.7600 C   0  0  0  0  0  0  0  0  0  0  0  0
   57.9530   25.8250   46.0960 O   0  0  0  0  0  0  0  0  0  0  0  0
   58.5680   31.3640   46.6590 C   0  0  0  0  0  0  0  0  0  0  0  0
   58.8540   31.6500   47.9960 C   0  0  0  0  0  0  0  0  0  0  0  0
   59.0090   32.9390   48.4000 N   0  0  0  0  0  0  0  0  0  0  0  0
   59.0158   35.0096   47.8883 H   0  0  0  0  0  0  0  0  0  0  0  0
   58.4981   34.5745   45.4823 H   0  0  0  0  0  0  0  0  0  0  0  0
   58.2150   34.1310   43.4770 H   0  0  0  0  0  0  0  0  0  0  0  0
   59.9919   29.4891   44.2206 H   0  0  0  0  0  0  0  0  0  0  0  0
   60.0732   27.2068   45.2259 H   0  0  0  0  0  0  0  0  0  0  0  0
   55.6775   29.5220   44.6413 H   0  0  0  0  0  0  0  0  0  0  0  0
   54.6481   25.4282   46.6067 H   0  0  0  0  0  0  0  0  0  0  0  0
   55.4973   25.0991   45.0512 H   0  0  0  0  0  0  0  0  0  0  0  0
   56.7459   25.7164   47.7762 H   0  0  0  0  0  0  0  0  0  0  0  0
   56.8843   24.2031   46.8064 H   0  0  0  0  0  0  0  0  0  0  0  0
   58.4307   30.3226   46.3325 H   0  0  0  0  0  0  0  0  0  0  0  0
   58.9540   30.8309   48.7234 H   0  0  0  0  0  0  0  0  0  0  0  0
  1  2  2  0
  2  3  1  0
  3  4  1  0
  4  5  2  0
  5  6  1  0
  6  7  2  0
  7  8  1  0
  8  9  1  0
  9 10  2  0
 10 11  1  0
 11 12  2  0
 12 13  1  0
 13 14  2  0
 13 15  1  0
 15 16  1  0
 16 17  1  0
 17 18  1  0
  3 19  2  0
 19 20  1  0
 20 21  2  0
 21  1  1  0
  8  4  1  0
 14  9  1  0
 18 12  1  0
  1 22  1  0
  2 23  1  0
  5 24  1  0
 10 25  1  0
 11 26  1  0
 14 27  1  0
 16 28  1  0
 16 29  1  0
 17 30  1  0
 17 31  1  0
 19 32  1  0
 20 33  1  0
M  CHG  1   5   1
M  END
>  <UniqueID>  (52) 
48

>  <SMILES>  (52) 
c1cc(-c2[nH+]nnn2-c2ccc3c(c2)OCCO3)ccn1

>  <Energy>  (52) 
88.49761851111344

>  <Genealogy>  (52) 
c1cc(-c2[nH+]nnn2-c2ccc3c(c2)OCCO3)ccn1 (protonated)
c1cc(-c2[nH+]nnn2-c2ccc3c(c2)OCCO3)ccn1 (3D coordinates assigned)
c1cc(-c2[nH+]nnn2-c2ccc3c(c2)OCCO3)ccn1 (nonaromatic ring conformer: 88.49761851111344 kcal/mol)

>  <smiles>  (52) 
c1cc(-c2nnnn2-c2ccc3c(c2)OCCO3)ccn1

>  <score_type>  (52) 
oracle

>  <origin>  (52) 
adg

>  <m_score__min__energy>  (52) 
-5.8899999999999997

>  <m_primary>  (52) 
energy

$$$$
52:0
     RDKit          3D

 28 29  0  0  0  0  0  0  0  0999 V2000
   57.4411   33.5211   43.0380 H   0  0  0  0  0  0  0  0  0  0  0  0
   57.8090   32.7630   43.7450 C   0  0  0  0  0  0  0  0  0  0  0  0
   57.7510   31.4790   43.3590 C   0  0  0  0  0  0  0  0  0  0  0  0
   58.2310   31.2118   42.4060 H   0  0  0  0  0  0  0  0  0  0  0  0
   57.0920   30.4000   44.1170 C   0  0  0  0  0  0  0  0  0  0  0  0
   55.7900   30.4470   44.4690 N   0  0  0  0  0  0  0  0  0  0  0  0
   55.5280   29.3450   45.1580 N   0  0  0  0  0  0  0  0  0  0  0  0
   56.6800   28.6570   45.2250 C   0  0  0  0  0  0  0  0  0  0  0  0
   56.7980   27.5520   45.8190 O   0  0  0  0  0  0  0  0  0  0  0  0
   57.6900   29.2880   44.6000 N   0  0  0  0  0  0  0  0  0  0  0  0
   59.0870   28.8680   44.5240 C   0  0  0  0  0  0  0  0  0  0  0  0
   59.4893   28.7470   45.5406 H   0  0  0  0  0  0  0  0  0  0  0  0
   59.1532   27.9102   43.9871 H   0  0  0  0  0  0  0  0  0  0  0  0
   59.6704   29.6305   43.9871 H   0  0  0  0  0  0  0  0  0  0  0  0
   58.3280   33.2400   45.0450 C   0  0  0  0  0  0  0  0  0  0  0  0
   59.2630   34.2880   45.1310 C   0  0  0  0  0  0  0  0  0  0  0  0
   59.6325   34.7677   44.2127 H   0  0  0  0  0  0  0  0  0  0  0  0
   59.7250   34.7230   46.3760 C   0  0  0  0  0  0  0  0  0  0  0  0
   60.4750   35.5257   46.4316 H   0  0  0  0  0  0  0  0  0  0  0  0
   59.2370   34.1410   47.5550 C   0  0  0  0  0  0  0  0  0  0  0  0
   59.7650   34.5780   48.8890 C   0  0  0  0  0  0  0  0  0  0  0  0
   59.1834   34.0967   49.6891 H   0  0  0  0  0  0  0  0  0  0  0  0
   60.8221   34.2870   48.9782 H   0  0  0  0  0  0  0  0  0  0  0  0
   59.6767   35.6708   48.9782 H   0  0  0  0  0  0  0  0  0  0  0  0
   58.2950   33.1050   47.4730 C   0  0  0  0  0  0  0  0  0  0  0  0
   57.9190   32.6328   48.3926 H   0  0  0  0  0  0  0  0  0  0  0  0
   57.8320   32.6700   46.2280 C   0  0  0  0  0  0  0  0  0  0  0  0
   57.0734   31.8752   46.1748 H   0  0  0  0  0  0  0  0  0  0  0  0
  1  2  1  0
  2  3  2  0
  3  4  1  0
  3  5  1  0
  5  6  2  0
  6  7  1  0
  7  8  1  0
  8  9  2  0
  8 10  1  0
 10 11  1  0
 11 12  1  0
 11 13  1  0
 11 14  1  0
  2 15  1  0
 15 16  2  0
 16 17  1  0
 16 18  1  0
 18 19  1  0
 18 20  2  0
 20 21  1  0
 21 22  1  0
 21 23  1  0
 21 24  1  0
 20 25  1  0
 25 26  1  0
 25 27  2  0
 27 28  1  0
 10  5  1  0
 27 15  1  0
M  CHG  1   7  -1
M  END
>  <UniqueID>  (53) 
49

>  <SMILES>  (53) 
Cc1ccc(/C=C\c2n[n-]c(=O)n2C)cc1

>  <Energy>  (53) 
72.60436562725005

>  <Genealogy>  (53) 
Cc1ccc(C=Cc2n[n-]c(=O)n2C)cc1 (protonated)
Cc1ccc(/C=C\c2n[n-]c(=O)n2C)cc1 (cis-trans isomerization)
Cc1ccc(/C=C\c2n[n-]c(=O)n2C)cc1 (3D coordinates assigned)
Cc1ccc(/C=C\c2n[n-]c(=O)n2C)cc1 (optimized conformer: 72.60436562725005 kcal/mol)

>  <smiles>  (53) 
Cc1ccc(C=Cc2n[nH]c(=O)n2C)cc1

>  <score_type>  (53) 
oracle

>  <origin>  (53) 
adg

>  <m_score__min__energy>  (53) 
-8.8000000000000007

>  <m_primary>  (53) 
energy

$$$$
53:0
     RDKit          3D

 21 21  0  0  0  0  0  0  0  0999 V2000
   57.4520   33.8110   45.2470 C   0  0  0  0  0  0  0  0  0  0  0  0
   58.4400   33.3950   44.1580 C   0  0  0  0  0  0  0  0  0  0  0  0
   57.8260   32.4060   43.1590 C   0  0  0  0  0  0  0  0  0  0  0  0
   57.4200   31.1270   43.8250 C   0  0  0  0  0  0  0  0  0  0  0  0
   56.2680   30.9680   44.5110 N   0  0  0  0  0  0  0  0  0  0  0  0
   56.2660   29.7210   44.8840 O   0  0  0  0  0  0  0  0  0  0  0  0
   57.3520   29.1270   44.4490 C   0  0  0  0  0  0  0  0  0  0  0  0
   57.7500   27.4060   44.7310 S   0  0  0  0  0  0  0  0  0  0  0  0
   58.1410   27.0960   42.9820 C   0  0  0  0  0  0  0  0  0  0  0  0
   58.1240   29.9820   43.7610 N   0  0  0  0  0  0  0  0  0  0  0  0
   57.8961   33.6240   46.2358 H   0  0  0  0  0  0  0  0  0  0  0  0
   57.2229   34.8820   45.1445 H   0  0  0  0  0  0  0  0  0  0  0  0
   56.5258   33.2265   45.1445 H   0  0  0  0  0  0  0  0  0  0  0  0
   58.7633   34.2937   43.6122 H   0  0  0  0  0  0  0  0  0  0  0  0
   59.2882   32.8943   44.6478 H   0  0  0  0  0  0  0  0  0  0  0  0
   56.9385   32.8668   42.7007 H   0  0  0  0  0  0  0  0  0  0  0  0
   58.5849   32.1709   42.3982 H   0  0  0  0  0  0  0  0  0  0  0  0
   59.0013   26.4139   42.9139 H   0  0  0  0  0  0  0  0  0  0  0  0
   57.2711   26.6395   42.4871 H   0  0  0  0  0  0  0  0  0  0  0  0
   58.3871   28.0471   42.4871 H   0  0  0  0  0  0  0  0  0  0  0  0
   59.0370   29.8000   43.2880 H   0  0  0  0  0  0  0  0  0  0  0  0
  1  2  1  0
  2  3  1  0
  3  4  1  0
  4  5  2  0
  5  6  1  0
  6  7  1  0
  7  8  1  0
  8  9  1  0
  7 10  2  0
 10  4  1  0
  1 11  1  0
  1 12  1  0
  1 13  1  0
  2 14  1  0
  2 15  1  0
  3 16  1  0
  3 17  1  0
  9 18  1  0
  9 19  1  0
  9 20  1  0
 10 21  1  0
M  CHG  1  10   1
M  END
>  <UniqueID>  (54) 
50

>  <SMILES>  (54) 
CCCc1noc(SC)[nH+]1

>  <Energy>  (54) 
43.88329164857371

>  <Genealogy>  (54) 
CCCc1noc(SC)[nH+]1 (protonated)
CCCc1noc(SC)[nH+]1 (3D coordinates assigned)
CCCc1noc(SC)[nH+]1 (optimized conformer: 43.88329164857371 kcal/mol)

>  <smiles>  (54) 
CCCc1noc(SC)n1

>  <score_type>  (54) 
oracle

>  <origin>  (54) 
adg

>  <m_score__min__energy>  (54) 
-3.9300000000000002

>  <m_primary>  (54) 
energy

$$$$
54:0
     RDKit          3D

 34 36  0  0  0  0  0  0  0  0999 V2000
   56.8240   32.0070   51.1610 N   0  0  0  0  0  0  0  0  0  0  0  0
   57.9140   30.7300   51.5760 S   0  0  0  0  0  0  0  0  0  0  0  0
   58.5770   31.0450   52.8880 O   0  0  0  0  0  0  0  0  0  0  0  0
   57.1550   29.4400   51.7160 O   0  0  0  0  0  0  0  0  0  0  0  0
   59.1280   30.5640   50.3110 C   0  0  0  0  0  0  0  0  0  0  0  0
   60.3130   31.3100   50.3630 C   0  0  0  0  0  0  0  0  0  0  0  0
   61.2660   31.1800   49.3500 C   0  0  0  0  0  0  0  0  0  0  0  0
   61.0440   30.3050   48.2840 C   0  0  0  0  0  0  0  0  0  0  0  0
   59.8640   29.5490   48.2190 C   0  0  0  0  0  0  0  0  0  0  0  0
   59.6580   28.6540   47.1090 N   0  0  0  0  0  0  0  0  0  0  0  0
   58.3650   28.3130   46.5870 C   0  0  0  0  0  0  0  0  0  0  0  0
   57.7890   27.0950   46.9640 C   0  0  0  0  0  0  0  0  0  0  0  0
   56.5480   26.7200   46.4430 C   0  0  0  0  0  0  0  0  0  0  0  0
   56.0340   25.6180   46.7660 O   0  0  0  0  0  0  0  0  0  0  0  0
   55.8950   27.5430   45.5830 N   0  0  0  0  0  0  0  0  0  0  0  0
   56.4060   28.7460   45.2100 C   0  0  0  0  0  0  0  0  0  0  0  0
   55.6860   29.5630   44.3320 C   0  0  0  0  0  0  0  0  0  0  0  0
   56.1910   30.8120   43.9620 C   0  0  0  0  0  0  0  0  0  0  0  0
   57.4130   31.2560   44.4750 C   0  0  0  0  0  0  0  0  0  0  0  0
   58.0330   32.8310   44.0200 Cl  0  0  0  0  0  0  0  0  0  0  0  0
   58.1410   30.4470   45.3550 C   0  0  0  0  0  0  0  0  0  0  0  0
   57.6570   29.1740   45.7160 C   0  0  0  0  0  0  0  0  0  0  0  0
   58.8990   29.6970   49.2350 C   0  0  0  0  0  0  0  0  0  0  0  0
   55.8830   31.5730   51.0260 H   0  0  0  0  0  0  0  0  0  0  0  0
   57.1240   32.3730   50.2310 H   0  0  0  0  0  0  0  0  0  0  0  0
   60.4929   31.9983   51.2019 H   0  0  0  0  0  0  0  0  0  0  0  0
   62.1943   31.7686   49.3919 H   0  0  0  0  0  0  0  0  0  0  0  0
   61.7994   30.2081   47.4903 H   0  0  0  0  0  0  0  0  0  0  0  0
   60.4930   28.3440   46.5620 H   0  0  0  0  0  0  0  0  0  0  0  0
   58.3126   26.4334   47.6698 H   0  0  0  0  0  0  0  0  0  0  0  0
   54.7200   29.2213   43.9320 H   0  0  0  0  0  0  0  0  0  0  0  0
   55.6253   31.4477   43.2650 H   0  0  0  0  0  0  0  0  0  0  0  0
   59.0955   30.8067   45.7667 H   0  0  0  0  0  0  0  0  0  0  0  0
   57.9592   29.1277   49.1828 H   0  0  0  0  0  0  0  0  0  0  0  0
  1  2  1  0
  2  3  2  0
  2  4  2  0
  2  5  1  0
  5  6  2  0
  6  7  1  0
  7  8  2  0
  8  9  1  0
  9 10  1  0
 10 11  1  0
 11 12  2  0
 12 13  1  0
 13 14  2  0
 13 15  1  0
 15 16  1  0
 16 17  2  0
 17 18  1  0
 18 19  2  0
 19 20  1  0
 19 21  1  0
 21 22  2  0
  9 23  2  0
 23  5  1  0
 22 11  1  0
 22 16  1  0
  1 24  1  0
  1 25  1  0
  6 26  1  0
  7 27  1  0
  8 28  1  0
 10 29  1  0
 12 30  1  0
 17 31  1  0
 18 32  1  0
 21 33  1  0
 23 34  1  0
M  CHG  1  15  -1
M  END
>  <UniqueID>  (55) 
51

>  <SMILES>  (55) 
NS(=O)(=O)c1cccc(Nc2cc(=O)[n-]c3ccc(Cl)cc23)c1

>  <Energy>  (55) 
46.136924925949764

>  <Genealogy>  (55) 
NS(=O)(=O)c1cccc(Nc2cc(=O)[n-]c3ccc(Cl)cc23)c1 (protonated)
NS(=O)(=O)c1cccc(Nc2cc(=O)[n-]c3ccc(Cl)cc23)c1 (3D coordinates assigned)
NS(=O)(=O)c1cccc(Nc2cc(=O)[n-]c3ccc(Cl)cc23)c1 (optimized conformer: 46.136924925949764 kcal/mol)

>  <smiles>  (55) 
NS(=O)(=O)c1cccc(Nc2cc(=O)[nH]c3ccc(Cl)cc23)c1

>  <score_type>  (55) 
oracle

>  <origin>  (55) 
adg

>  <m_score__min__energy>  (55) 
-10.15

>  <m_primary>  (55) 
energy

$$$$
55:0
     RDKit          3D

 33 35  0  0  0  0  0  0  0  0999 V2000
   56.8023   28.5675   43.3981 H   0  0  0  0  0  0  0  0  0  0  0  0
   57.1580   29.3470   44.0880 C   0  0  0  0  0  0  0  0  0  0  0  0
   57.0960   30.6910   43.7100 C   0  0  0  0  0  0  0  0  0  0  0  0
   56.6739   30.9638   42.7315 H   0  0  0  0  0  0  0  0  0  0  0  0
   57.5670   31.6930   44.5670 C   0  0  0  0  0  0  0  0  0  0  0  0
   57.4790   33.0280   44.1450 O   0  0  0  0  0  0  0  0  0  0  0  0
   57.9840   34.1390   44.8800 C   0  0  0  0  0  0  0  0  0  0  0  0
   57.8926   33.9378   45.9576 H   0  0  0  0  0  0  0  0  0  0  0  0
   59.0423   34.2968   44.6250 H   0  0  0  0  0  0  0  0  0  0  0  0
   57.4070   35.0402   44.6250 H   0  0  0  0  0  0  0  0  0  0  0  0
   58.1160   31.3300   45.8130 C   0  0  0  0  0  0  0  0  0  0  0  0
   58.4967   32.1071   46.4922 H   0  0  0  0  0  0  0  0  0  0  0  0
   58.1780   29.9850   46.1880 C   0  0  0  0  0  0  0  0  0  0  0  0
   58.6268   29.7059   47.1527 H   0  0  0  0  0  0  0  0  0  0  0  0
   57.6700   28.9880   45.3390 C   0  0  0  0  0  0  0  0  0  0  0  0
   57.7760   27.6010   45.6840 N   0  0  0  0  0  0  0  0  0  0  0  0
   56.8100   26.7280   45.7180 C   0  0  0  0  0  0  0  0  0  0  0  0
   56.8770   25.3470   45.6250 C   0  0  0  0  0  0  0  0  0  0  0  0
   55.5780   24.9270   45.7090 C   0  0  0  0  0  0  0  0  0  0  0  0
   54.7580   25.9840   45.8800 N   0  0  0  0  0  0  0  0  0  0  0  0
   55.5170   27.0740   45.8760 N   0  0  0  0  0  0  0  0  0  0  0  0
   55.1460   28.0440   45.9860 H   0  0  0  0  0  0  0  0  0  0  0  0
   55.2000   23.4850   45.8320 C   0  0  0  0  0  0  0  0  0  0  0  0
   54.2934   23.2928   45.2394 H   0  0  0  0  0  0  0  0  0  0  0  0
   55.0077   23.2475   46.8887 H   0  0  0  0  0  0  0  0  0  0  0  0
   56.3520   22.5990   45.3100 C   0  0  0  0  0  0  0  0  0  0  0  0
   56.4011   22.6898   44.2149 H   0  0  0  0  0  0  0  0  0  0  0  0
   56.1473   21.5623   45.6157 H   0  0  0  0  0  0  0  0  0  0  0  0
   57.7200   23.0110   45.9070 C   0  0  0  0  0  0  0  0  0  0  0  0
   58.5140   22.4372   45.4066 H   0  0  0  0  0  0  0  0  0  0  0  0
   57.6991   22.7998   46.9863 H   0  0  0  0  0  0  0  0  0  0  0  0
   57.9850   24.4450   45.7280 N   0  0  0  0  0  0  0  0  0  0  0  0
   58.9350   24.7970   45.9720 H   0  0  0  0  0  0  0  0  0  0  0  0
  1  2  1  0
  2  3  2  0
  3  4  1  0
  3  5  1  0
  5  6  1  0
  6  7  1  0
  7  8  1  0
  7  9  1  0
  7 10  1  0
  5 11  2  0
 11 12  1  0
 11 13  1  0
 13 14  1  0
 13 15  2  0
 15 16  1  0
 16 17  2  0
 17 18  1  0
 18 19  2  0
 19 20  1  0
 20 21  1  0
 21 22  1  0
 19 23  1  0
 23 24  1  0
 23 25  1  0
 23 26  1  0
 26 27  1  0
 26 28  1  0
 26 29  1  0
 29 30  1  0
 29 31  1  0
 29 32  1  0
 32 33  1  0
 15  2  1  0
 21 17  1  0
 32 18  1  0
M  CHG  1  20  -1
M  END
>  <UniqueID>  (56) 
52

>  <SMILES>  (56) 
COc1ccc(/N=c2/[nH][n-]c3c2NCCC3)cc1

>  <Energy>  (56) 
78.7745218152025

>  <Genealogy>  (56) 
COc1ccc(N=c2[nH][n-]c3c2NCCC3)cc1 (protonated)
COc1ccc(/N=c2/[nH][n-]c3c2NCCC3)cc1 (cis-trans isomerization)
COc1ccc(/N=c2/[nH][n-]c3c2NCCC3)cc1 (3D coordinates assigned)
COc1ccc(/N=c2/[nH][n-]c3c2NCCC3)cc1 (nonaromatic ring conformer: 78.7745218152025 kcal/mol)

>  <smiles>  (56) 
COc1ccc(N=c2[nH][nH]c3c2NCCC3)cc1

>  <score_type>  (56) 
oracle

>  <origin>  (56) 
adg

>  <m_score__min__energy>  (56) 
-8.5500000000000007

>  <m_primary>  (56) 
energy

$$$$
56:0
     RDKit          3D

 38 39  0  0  0  0  0  0  0  0999 V2000
   63.9270   33.4050   48.0500 C   0  0  0  0  0  0  0  0  0  0  0  0
   62.6510   32.7730   47.6030 C   0  0  0  0  0  0  0  0  0  0  0  0
   62.3860   31.4230   47.4900 C   0  0  0  0  0  0  0  0  0  0  0  0
   61.1590   31.2750   46.9580 N   0  0  0  0  0  0  0  0  0  0  0  0
   60.6450   32.4750   46.7200 N   0  0  0  0  0  0  0  0  0  0  0  0
   59.3600   32.7390   46.1230 C   0  0  0  0  0  0  0  0  0  0  0  0
   58.5640   33.8200   46.5370 C   0  0  0  0  0  0  0  0  0  0  0  0
   57.3290   34.0160   45.9190 C   0  0  0  0  0  0  0  0  0  0  0  0
   56.9200   33.1770   44.9340 N   0  0  0  0  0  0  0  0  0  0  0  0
   57.7040   32.1450   44.5270 C   0  0  0  0  0  0  0  0  0  0  0  0
   57.2200   31.2080   43.4650 C   0  0  0  0  0  0  0  0  0  0  0  0
   56.2420   30.1890   44.0500 C   0  0  0  0  0  0  0  0  0  0  0  0
   56.6520   29.8420   45.4200 N   0  0  0  0  0  0  0  0  0  0  0  0
   57.4500   28.6030   45.5270 C   0  0  0  0  0  0  0  0  0  0  0  0
   58.6480   28.7870   46.4670 C   0  0  0  0  0  0  0  0  0  0  0  0
   57.8820   28.0420   44.1620 C   0  0  0  0  0  0  0  0  0  0  0  0
   58.9050   31.9320   45.1270 N   0  0  0  0  0  0  0  0  0  0  0  0
   61.5400   33.4140   47.0930 C   0  0  0  0  0  0  0  0  0  0  0  0
   63.9621   33.4224   49.1493 H   0  0  0  0  0  0  0  0  0  0  0  0
   64.7783   32.8244   47.6651 H   0  0  0  0  0  0  0  0  0  0  0  0
   63.9810   34.4340   47.6651 H   0  0  0  0  0  0  0  0  0  0  0  0
   63.0626   30.6073   47.7846 H   0  0  0  0  0  0  0  0  0  0  0  0
   60.7100   30.3590   46.7370 H   0  0  0  0  0  0  0  0  0  0  0  0
   58.9076   34.4979   47.3322 H   0  0  0  0  0  0  0  0  0  0  0  0
   56.6856   34.8520   46.2306 H   0  0  0  0  0  0  0  0  0  0  0  0
   56.7127   31.7851   42.6778 H   0  0  0  0  0  0  0  0  0  0  0  0
   58.0836   30.6703   43.0467 H   0  0  0  0  0  0  0  0  0  0  0  0
   55.2306   30.6212   44.0688 H   0  0  0  0  0  0  0  0  0  0  0  0
   56.2432   29.2822   43.4274 H   0  0  0  0  0  0  0  0  0  0  0  0
   55.7860   29.7230   45.9980 H   0  0  0  0  0  0  0  0  0  0  0  0
   56.7850   27.8467   45.9694 H   0  0  0  0  0  0  0  0  0  0  0  0
   58.3062   28.7345   47.5112 H   0  0  0  0  0  0  0  0  0  0  0  0
   59.3848   27.9915   46.2820 H   0  0  0  0  0  0  0  0  0  0  0  0
   59.1121   29.7670   46.2820 H   0  0  0  0  0  0  0  0  0  0  0  0
   58.5467   27.1788   44.3141 H   0  0  0  0  0  0  0  0  0  0  0  0
   56.9926   27.7250   43.5977 H   0  0  0  0  0  0  0  0  0  0  0  0
   58.4158   28.8209   43.5977 H   0  0  0  0  0  0  0  0  0  0  0  0
   61.4070   34.5024   47.0056 H   0  0  0  0  0  0  0  0  0  0  0  0
  1  2  1  0
  2  3  1  0
  3  4  2  0
  4  5  1  0
  5  6  1  0
  6  7  2  0
  7  8  1  0
  8  9  2  0
  9 10  1  0
 10 11  1  0
 11 12  1  0
 12 13  1  0
 13 14  1  0
 14 15  1  0
 14 16  1  0
 10 17  2  0
  5 18  1  0
 18  2  2  0
 17  6  1  0
  1 19  1  0
  1 20  1  0
  1 21  1  0
  3 22  1  0
  4 23  1  0
  7 24  1  0
  8 25  1  0
 11 26  1  0
 11 27  1  0
 12 28  1  0
 12 29  1  0
 13 30  1  0
 14 31  1  0
 15 32  1  0
 15 33  1  0
 15 34  1  0
 16 35  1  0
 16 36  1  0
 16 37  1  0
 18 38  1  0
M  CHG  1   4   1
M  END
>  <UniqueID>  (57) 
53

>  <SMILES>  (57) 
Cc1c[nH+]n(-c2ccnc(CCNC(C)C)n2)c1

>  <Energy>  (57) 
64.90572330886853

>  <Genealogy>  (57) 
Cc1c[nH+]n(-c2ccnc(CCNC(C)C)n2)c1 (protonated)
Cc1c[nH+]n(-c2ccnc(CCNC(C)C)n2)c1 (3D coordinates assigned)
Cc1c[nH+]n(-c2ccnc(CCNC(C)C)n2)c1 (optimized conformer: 64.90572330886853 kcal/mol)

>  <smiles>  (57) 
Cc1cnn(-c2ccnc(CCNC(C)C)n2)c1

>  <score_type>  (57) 
oracle

>  <origin>  (57) 
adg

>  <m_score__min__energy>  (57) 
-5.2199999999999998

>  <m_primary>  (57) 
energy

$$$$
57:0
     RDKit          3D

 36 38  0  0  0  0  0  0  0  0999 V2000
   56.1330   29.9190   44.9020 O   0  0  0  0  0  0  0  0  0  0  0  0
   57.2850   30.2610   44.5200 C   0  0  0  0  0  0  0  0  0  0  0  0
   58.0090   29.4250   43.6050 N   0  0  0  0  0  0  0  0  0  0  0  0
   57.4030   28.2190   43.0390 C   0  0  0  0  0  0  0  0  0  0  0  0
   58.1430   26.9510   43.4840 C   0  0  0  0  0  0  0  0  0  0  0  0
   58.5970   27.0450   44.9190 C   0  0  0  0  0  0  0  0  0  0  0  0
   59.7940   27.7100   45.2380 C   0  0  0  0  0  0  0  0  0  0  0  0
   60.2050   27.8200   46.5700 C   0  0  0  0  0  0  0  0  0  0  0  0
   59.4260   27.2720   47.5920 C   0  0  0  0  0  0  0  0  0  0  0  0
   58.2330   26.6130   47.2830 C   0  0  0  0  0  0  0  0  0  0  0  0
   57.8170   26.4990   45.9530 C   0  0  0  0  0  0  0  0  0  0  0  0
   57.8630   31.5220   45.0280 C   0  0  0  0  0  0  0  0  0  0  0  0
   58.1480   32.6620   44.2720 C   0  0  0  0  0  0  0  0  0  0  0  0
   58.6570   33.5700   45.1740 C   0  0  0  0  0  0  0  0  0  0  0  0
   59.1080   34.8760   44.9890 C   0  0  0  0  0  0  0  0  0  0  0  0
   59.5790   35.5730   46.1180 C   0  0  0  0  0  0  0  0  0  0  0  0
   60.0270   36.8460   45.9840 F   0  0  0  0  0  0  0  0  0  0  0  0
   59.5850   34.9560   47.3880 C   0  0  0  0  0  0  0  0  0  0  0  0
   59.1210   33.6350   47.5420 C   0  0  0  0  0  0  0  0  0  0  0  0
   58.6620   32.9710   46.4060 C   0  0  0  0  0  0  0  0  0  0  0  0
   58.1790   31.7210   46.3320 N   0  0  0  0  0  0  0  0  0  0  0  0
   58.9910   29.6730   43.3520 H   0  0  0  0  0  0  0  0  0  0  0  0
   56.3562   28.1562   43.3712 H   0  0  0  0  0  0  0  0  0  0  0  0
   57.4648   28.2857   41.9428 H   0  0  0  0  0  0  0  0  0  0  0  0
   57.4678   26.0889   43.3794 H   0  0  0  0  0  0  0  0  0  0  0  0
   59.0338   26.8332   42.8494 H   0  0  0  0  0  0  0  0  0  0  0  0
   60.4094   28.1453   44.4369 H   0  0  0  0  0  0  0  0  0  0  0  0
   61.1437   28.3391   46.8136 H   0  0  0  0  0  0  0  0  0  0  0  0
   59.7514   27.3592   48.6391 H   0  0  0  0  0  0  0  0  0  0  0  0
   57.6196   26.1828   48.0884 H   0  0  0  0  0  0  0  0  0  0  0  0
   56.8765   25.9805   45.7151 H   0  0  0  0  0  0  0  0  0  0  0  0
   57.9984   32.8035   43.1915 H   0  0  0  0  0  0  0  0  0  0  0  0
   59.0963   35.3461   43.9946 H   0  0  0  0  0  0  0  0  0  0  0  0
   59.9545   35.5107   48.2631 H   0  0  0  0  0  0  0  0  0  0  0  0
   59.1209   33.1438   48.5262 H   0  0  0  0  0  0  0  0  0  0  0  0
   58.0700   31.0440   47.1200 H   0  0  0  0  0  0  0  0  0  0  0  0
  1  2  2  0
  2  3  1  0
  3  4  1  0
  4  5  1  0
  5  6  1  0
  6  7  2  0
  7  8  1  0
  8  9  2  0
  9 10  1  0
 10 11  2  0
  2 12  1  0
 12 13  2  0
 13 14  1  0
 14 15  2  0
 15 16  1  0
 16 17  1  0
 16 18  2  0
 18 19  1  0
 19 20  2  0
 20 21  1  0
 11  6  1  0
 21 12  1  0
 20 14  1  0
  3 22  1  0
  4 23  1  0
  4 24  1  0
  5 25  1  0
  5 26  1  0
  7 27  1  0
  8 28  1  0
  9 29  1  0
 10 30  1  0
 11 31  1  0
 13 32  1  0
 15 33  1  0
 18 34  1  0
 19 35  1  0
 21 36  1  0
M  END
>  <UniqueID>  (58) 
54

>  <SMILES>  (58) 
O=C(NCCc1ccccc1)c1cc2cc(F)ccc2[nH]1

>  <Energy>  (58) 
66.41143023425438

>  <Genealogy>  (58) 
O=C(NCCc1ccccc1)c1cc2cc(F)ccc2[nH]1 (3D coordinates assigned)
O=C(NCCc1ccccc1)c1cc2cc(F)ccc2[nH]1 (optimized conformer: 66.41143023425438 kcal/mol)

>  <smiles>  (58) 
O=C(NCCc1ccccc1)c1cc2cc(F)ccc2[nH]1

>  <score_type>  (58) 
oracle

>  <origin>  (58) 
adg

>  <m_score__min__energy>  (58) 
-8.0399999999999991

>  <m_primary>  (58) 
energy

$$$$
58:0
     RDKit          3D

 38 40  0  0  0  0  0  0  0  0999 V2000
   56.6210   30.3650   43.5180 C   0  0  0  0  0  0  0  0  0  0  0  0
   56.6340   30.5330   44.9320 O   0  0  0  0  0  0  0  0  0  0  0  0
   57.3670   29.7310   45.8220 C   0  0  0  0  0  0  0  0  0  0  0  0
   58.4550   30.2330   46.5640 C   0  0  0  0  0  0  0  0  0  0  0  0
   59.1690   29.4000   47.4480 C   0  0  0  0  0  0  0  0  0  0  0  0
   60.3160   29.9300   48.2270 C   0  0  0  0  0  0  0  0  0  0  0  0
   61.2470   30.7230   47.6270 N   0  0  0  0  0  0  0  0  0  0  0  0
   62.3080   31.2190   48.3160 C   0  0  0  0  0  0  0  0  0  0  0  0
   63.3280   32.0540   47.6000 C   0  0  0  0  0  0  0  0  0  0  0  0
   63.0430   33.8330   47.9060 S   0  0  0  0  0  0  0  0  0  0  0  0
   61.3340   33.8170   47.3560 C   0  0  0  0  0  0  0  0  0  0  0  0
   60.2950   33.7790   48.2960 C   0  0  0  0  0  0  0  0  0  0  0  0
   58.9640   33.7500   47.8690 C   0  0  0  0  0  0  0  0  0  0  0  0
   58.6670   33.7700   46.5020 C   0  0  0  0  0  0  0  0  0  0  0  0
   56.9960   33.7320   45.9660 Cl  0  0  0  0  0  0  0  0  0  0  0  0
   59.7030   33.8200   45.5620 C   0  0  0  0  0  0  0  0  0  0  0  0
   61.0350   33.8460   45.9890 C   0  0  0  0  0  0  0  0  0  0  0  0
   62.4570   30.9060   49.6710 C   0  0  0  0  0  0  0  0  0  0  0  0
   61.4990   30.0920   50.2750 C   0  0  0  0  0  0  0  0  0  0  0  0
   61.6020   29.7870   51.4920 O   0  0  0  0  0  0  0  0  0  0  0  0
   60.4530   29.6230   49.5460 N   0  0  0  0  0  0  0  0  0  0  0  0
   58.7780   28.0550   47.5780 C   0  0  0  0  0  0  0  0  0  0  0  0
   57.7000   27.5570   46.8440 C   0  0  0  0  0  0  0  0  0  0  0  0
   56.9980   28.3890   45.9700 C   0  0  0  0  0  0  0  0  0  0  0  0
   55.9270   27.8770   45.2460 O   0  0  0  0  0  0  0  0  0  0  0  0
   56.5382   29.2950   43.2766 H   0  0  0  0  0  0  0  0  0  0  0  0
   55.7619   30.9044   43.0925 H   0  0  0  0  0  0  0  0  0  0  0  0
   57.5528   30.7658   43.0925 H   0  0  0  0  0  0  0  0  0  0  0  0
   58.7500   31.2867   46.4517 H   0  0  0  0  0  0  0  0  0  0  0  0
   64.3319   31.7829   47.9588 H   0  0  0  0  0  0  0  0  0  0  0  0
   63.2427   31.8645   46.5198 H   0  0  0  0  0  0  0  0  0  0  0  0
   60.5271   33.7720   49.3712 H   0  0  0  0  0  0  0  0  0  0  0  0
   58.1501   33.7115   48.6080 H   0  0  0  0  0  0  0  0  0  0  0  0
   59.4697   33.8389   44.4872 H   0  0  0  0  0  0  0  0  0  0  0  0
   61.8482   33.8893   45.2495 H   0  0  0  0  0  0  0  0  0  0  0  0
   63.3104   31.2930   50.2472 H   0  0  0  0  0  0  0  0  0  0  0  0
   59.3256   27.3909   48.2629 H   0  0  0  0  0  0  0  0  0  0  0  0
   57.4023   26.5039   46.9548 H   0  0  0  0  0  0  0  0  0  0  0  0
  1  2  1  0
  2  3  1  0
  3  4  2  0
  4  5  1  0
  5  6  1  0
  6  7  2  0
  7  8  1  0
  8  9  1  0
  9 10  1  0
 10 11  1  0
 11 12  2  0
 12 13  1  0
 13 14  2  0
 14 15  1  0
 14 16  1  0
 16 17  2  0
  8 18  2  0
 18 19  1  0
 19 20  2  0
 19 21  1  0
  5 22  2  0
 22 23  1  0
 23 24  2  0
 24 25  1  0
 24  3  1  0
 21  6  1  0
 17 11  1  0
  1 26  1  0
  1 27  1  0
  1 28  1  0
  4 29  1  0
  9 30  1  0
  9 31  1  0
 12 32  1  0
 13 33  1  0
 16 34  1  0
 17 35  1  0
 18 36  1  0
 22 37  1  0
 23 38  1  0
M  CHG  2  21  -1  25  -1
M  END
>  <UniqueID>  (59) 
55

>  <SMILES>  (59) 
COc1cc(-c2nc(CSc3ccc(Cl)cc3)cc(=O)[n-]2)ccc1[O-]

>  <Energy>  (59) 
37.064481553144404

>  <Genealogy>  (59) 
COc1cc(-c2nc(CSc3ccc(Cl)cc3)cc(=O)[n-]2)ccc1[O-] (protonated)
COc1cc(-c2nc(CSc3ccc(Cl)cc3)cc(=O)[n-]2)ccc1[O-] (3D coordinates assigned)
COc1cc(-c2nc(CSc3ccc(Cl)cc3)cc(=O)[n-]2)ccc1[O-] (optimized conformer: 37.064481553144404 kcal/mol)

>  <smiles>  (59) 
COc1cc(-c2nc(CSc3ccc(Cl)cc3)cc(=O)[nH]2)ccc1O

>  <score_type>  (59) 
oracle

>  <origin>  (59) 
adg

>  <m_score__min__energy>  (59) 
-11.75

>  <m_primary>  (59) 
energy

$$$$
59:0
     RDKit          3D

 34 35  0  0  0  0  0  0  0  0999 V2000
   60.3920   28.9080   47.2740 C   0  0  0  0  0  0  0  0  0  0  0  0
   59.5170   28.4690   46.0940 C   0  0  1  0  0  0  0  0  0  0  0  0
   58.1150   28.0700   46.5710 C   0  0  0  0  0  0  0  0  0  0  0  0
   57.2190   27.6120   45.4070 C   0  0  0  0  0  0  0  0  0  0  0  0
   57.7740   28.0040   44.0240 C   0  0  0  0  0  0  0  0  0  0  0  0
   58.3660   29.3590   43.9990 N   0  0  1  0  0  0  0  0  0  0  0  0
   57.1250   30.5960   44.0570 S   0  0  0  0  0  0  0  0  0  0  0  0
   56.6670   30.9400   42.6660 O   0  0  0  0  0  0  0  0  0  0  0  0
   55.9390   30.1170   44.8460 O   0  0  0  0  0  0  0  0  0  0  0  0
   57.7860   32.0480   44.8050 C   0  0  0  0  0  0  0  0  0  0  0  0
   57.7710   32.1810   46.2010 C   0  0  0  0  0  0  0  0  0  0  0  0
   58.2800   33.3360   46.8030 C   0  0  0  0  0  0  0  0  0  0  0  0
   58.8040   34.3630   46.0140 C   0  0  0  0  0  0  0  0  0  0  0  0
   58.8180   34.2390   44.6210 C   0  0  0  0  0  0  0  0  0  0  0  0
   58.3100   33.0850   44.0160 C   0  0  0  0  0  0  0  0  0  0  0  0
   59.4170   29.5900   45.0330 C   0  0  0  0  0  0  0  0  0  0  0  0
   59.8878   28.6551   48.2184 H   0  0  0  0  0  0  0  0  0  0  0  0
   61.3607   28.3892   47.2251 H   0  0  0  0  0  0  0  0  0  0  0  0
   60.5552   29.9947   47.2251 H   0  0  0  0  0  0  0  0  0  0  0  0
   59.9938   27.5915   45.6328 H   0  0  0  0  0  0  0  0  0  0  0  0
   58.2069   27.2460   47.2939 H   0  0  0  0  0  0  0  0  0  0  0  0
   57.6486   28.9533   47.0317 H   0  0  0  0  0  0  0  0  0  0  0  0
   57.1245   26.5168   45.4483 H   0  0  0  0  0  0  0  0  0  0  0  0
   56.2477   28.1149   45.5243 H   0  0  0  0  0  0  0  0  0  0  0  0
   58.5497   27.2778   43.7394 H   0  0  0  0  0  0  0  0  0  0  0  0
   56.9294   28.0021   43.3192 H   0  0  0  0  0  0  0  0  0  0  0  0
   58.8180   29.4660   43.0600 H   0  0  0  0  0  0  0  0  0  0  0  0
   57.3576   31.3744   46.8243 H   0  0  0  0  0  0  0  0  0  0  0  0
   58.2678   33.4360   47.8984 H   0  0  0  0  0  0  0  0  0  0  0  0
   59.2060   35.2701   46.4889 H   0  0  0  0  0  0  0  0  0  0  0  0
   59.2287   35.0495   44.0010 H   0  0  0  0  0  0  0  0  0  0  0  0
   58.3209   32.9893   42.9202 H   0  0  0  0  0  0  0  0  0  0  0  0
   60.3891   29.6723   44.5249 H   0  0  0  0  0  0  0  0  0  0  0  0
   59.1380   30.5094   45.5686 H   0  0  0  0  0  0  0  0  0  0  0  0
  1  2  1  0
  2  3  1  0
  3  4  1  0
  4  5  1  0
  5  6  1  0
  6  7  1  0
  7  8  2  0
  7  9  2  0
  7 10  1  0
 10 11  2  0
 11 12  1  0
 12 13  2  0
 13 14  1  0
 14 15  2  0
  6 16  1  0
 16  2  1  0
 15 10  1  0
  1 17  1  0
  1 18  1  0
  1 19  1  0
  2 20  1  6
  3 21  1  0
  3 22  1  0
  4 23  1  0
  4 24  1  0
  5 25  1  0
  5 26  1  0
  6 27  1  6
 11 28  1  0
 12 29  1  0
 13 30  1  0
 14 31  1  0
 15 32  1  0
 16 33  1  0
 16 34  1  0
M  CHG  1   6   1
M  END
>  <UniqueID>  (60) 
56

>  <SMILES>  (60) 
C[C@H]1CCC[N@@H+](S(=O)(=O)c2ccccc2)C1

>  <Energy>  (60) 
38.54410524965501

>  <Genealogy>  (60) 
CC1CCC[NH+](S(=O)(=O)c2ccccc2)C1 (protonated)
C[C@H]1CCC[N@@H+](S(=O)(=O)c2ccccc2)C1 (chirality)
C[C@H]1CCC[N@@H+](S(=O)(=O)c2ccccc2)C1 (3D coordinates assigned)
C[C@H]1CCC[N@@H+](S(=O)(=O)c2ccccc2)C1 (nonaromatic ring conformer: 38.54410524965501 kcal/mol)

>  <smiles>  (60) 
CC1CCCN(S(=O)(=O)c2ccccc2)C1

>  <score_type>  (60) 
oracle

>  <origin>  (60) 
adg

>  <m_score__min__energy>  (60) 
-6.0700000000000003

>  <m_primary>  (60) 
energy

$$$$
60:0
     RDKit          3D

 41 44  0  0  0  0  0  0  0  0999 V2000
   57.5730   33.0660   47.9140 O   0  0  0  0  0  0  0  0  0  0  0  0
   58.6530   33.5020   47.4300 C   0  0  0  0  0  0  0  0  0  0  0  0
   59.8160   33.5460   48.2130 C   0  0  0  0  0  0  0  0  0  0  0  0
   60.0140   33.1310   49.5500 C   0  0  0  0  0  0  0  0  0  0  0  0
   59.0210   32.4330   50.3910 C   0  0  0  0  0  0  0  0  0  0  0  0
   58.6990   31.0880   50.1450 C   0  0  0  0  0  0  0  0  0  0  0  0
   57.7810   30.4230   50.9640 C   0  0  0  0  0  0  0  0  0  0  0  0
   57.1890   31.0900   52.0410 C   0  0  0  0  0  0  0  0  0  0  0  0
   55.9370   30.1790   53.1580 Br  0  0  0  0  0  0  0  0  0  0  0  0
   57.5210   32.4240   52.3030 C   0  0  0  0  0  0  0  0  0  0  0  0
   58.4390   33.0920   51.4860 C   0  0  0  0  0  0  0  0  0  0  0  0
   61.3050   33.4070   50.0110 C   0  0  0  0  0  0  0  0  0  0  0  0
   62.2030   34.1250   48.7720 S   0  0  0  0  0  0  0  0  0  0  0  0
   60.9500   34.1000   47.6600 C   0  0  0  0  0  0  0  0  0  0  0  0
   60.9890   34.5580   46.3880 N   0  0  0  0  0  0  0  0  0  0  0  0
   59.8670   34.4760   45.6220 C   0  0  0  0  0  0  0  0  0  0  0  0
   58.7000   33.9590   46.1330 N   0  0  0  0  0  0  0  0  0  0  0  0
   57.5190   33.8590   45.2580 C   0  0  0  0  0  0  0  0  0  0  0  0
   57.7640   32.8810   44.1010 C   0  0  0  0  0  0  0  0  0  0  0  0
   57.5640   31.4520   44.5320 C   0  0  0  0  0  0  0  0  0  0  0  0
   56.4600   30.7210   44.0660 C   0  0  0  0  0  0  0  0  0  0  0  0
   56.3010   29.3790   44.4270 C   0  0  0  0  0  0  0  0  0  0  0  0
   57.2470   28.7580   45.2480 C   0  0  0  0  0  0  0  0  0  0  0  0
   58.3540   29.4770   45.7080 C   0  0  0  0  0  0  0  0  0  0  0  0
   58.5150   30.8180   45.3500 C   0  0  0  0  0  0  0  0  0  0  0  0
   59.1704   30.5561   49.3055 H   0  0  0  0  0  0  0  0  0  0  0  0
   57.5241   29.3730   50.7605 H   0  0  0  0  0  0  0  0  0  0  0  0
   57.0593   32.9481   53.1528 H   0  0  0  0  0  0  0  0  0  0  0  0
   58.7059   34.1370   51.7019 H   0  0  0  0  0  0  0  0  0  0  0  0
   61.6782   33.1905   51.0228 H   0  0  0  0  0  0  0  0  0  0  0  0
   61.8680   34.9630   45.9950 H   0  0  0  0  0  0  0  0  0  0  0  0
   59.8942   34.8281   44.5802 H   0  0  0  0  0  0  0  0  0  0  0  0
   56.6626   33.5054   45.8509 H   0  0  0  0  0  0  0  0  0  0  0  0
   57.3150   34.8536   44.8348 H   0  0  0  0  0  0  0  0  0  0  0  0
   57.0621   33.1096   43.2855 H   0  0  0  0  0  0  0  0  0  0  0  0
   58.8055   32.9972   43.7666 H   0  0  0  0  0  0  0  0  0  0  0  0
   55.7174   31.2051   43.4147 H   0  0  0  0  0  0  0  0  0  0  0  0
   55.4310   28.8118   44.0646 H   0  0  0  0  0  0  0  0  0  0  0  0
   57.1201   27.7029   45.5322 H   0  0  0  0  0  0  0  0  0  0  0  0
   59.0988   28.9868   46.3522 H   0  0  0  0  0  0  0  0  0  0  0  0
   59.3896   31.3798   45.7098 H   0  0  0  0  0  0  0  0  0  0  0  0
  1  2  2  0
  2  3  1  0
  3  4  1  0
  4  5  1  0
  5  6  2  0
  6  7  1  0
  7  8  2  0
  8  9  1  0
  8 10  1  0
 10 11  2  0
  4 12  2  0
 12 13  1  0
 13 14  1  0
 14 15  1  0
 15 16  2  0
 16 17  1  0
 17 18  1  0
 18 19  1  0
 19 20  1  0
 20 21  2  0
 21 22  1  0
 22 23  2  0
 23 24  1  0
 24 25  2  0
 17  2  1  0
 25 20  1  0
 14  3  2  0
 11  5  1  0
  6 26  1  0
  7 27  1  0
 10 28  1  0
 11 29  1  0
 12 30  1  0
 15 31  1  0
 16 32  1  0
 18 33  1  0
 18 34  1  0
 19 35  1  0
 19 36  1  0
 21 37  1  0
 22 38  1  0
 23 39  1  0
 24 40  1  0
 25 41  1  0
M  CHG  1  15   1
M  END
>  <UniqueID>  (61) 
57

>  <SMILES>  (61) 
O=c1c2c(-c3ccc(Br)cc3)csc2[nH+]cn1CCc1ccccc1

>  <Energy>  (61) 
83.21774760392094

>  <Genealogy>  (61) 
O=c1c2c(-c3ccc(Br)cc3)csc2[nH+]cn1CCc1ccccc1 (protonated)
O=c1c2c(-c3ccc(Br)cc3)csc2[nH+]cn1CCc1ccccc1 (3D coordinates assigned)
O=c1c2c(-c3ccc(Br)cc3)csc2[nH+]cn1CCc1ccccc1 (optimized conformer: 83.21774760392094 kcal/mol)

>  <smiles>  (61) 
O=c1c2c(-c3ccc(Br)cc3)csc2ncn1CCc1ccccc1

>  <score_type>  (61) 
oracle

>  <origin>  (61) 
adg

>  <m_score__min__energy>  (61) 
-7.0700000000000003

>  <m_primary>  (61) 
energy

$$$$
61:0
     RDKit          3D

 45 47  0  0  0  0  0  0  0  0999 V2000
   64.0900   32.6120   48.6100 C   0  0  0  0  0  0  0  0  0  0  0  0
   62.8470   33.2830   48.1170 C   0  0  0  0  0  0  0  0  0  0  0  0
   62.6350   33.4720   46.7460 C   0  0  0  0  0  0  0  0  0  0  0  0
   61.5040   34.0970   46.3260 N   0  0  0  0  0  0  0  0  0  0  0  0
   60.5710   34.5450   47.2090 C   0  0  0  0  0  0  0  0  0  0  0  0
   59.3440   35.2480   46.7010 C   0  0  0  0  0  0  0  0  0  0  0  0
   58.3370   34.2760   46.2250 N   0  0  0  0  0  0  0  0  0  0  0  0
   57.9580   33.2690   47.2480 C   0  0  0  0  0  0  0  0  0  0  0  0
   58.7410   31.9470   47.1770 C   0  0  0  0  0  0  0  0  0  0  0  0
   58.1740   30.8900   46.2150 C   0  0  0  0  0  0  0  0  0  0  0  0
   58.2690   31.2390   44.7750 N   0  0  0  0  0  0  0  0  0  0  0  0
   57.7360   30.1900   43.8790 C   0  0  0  0  0  0  0  0  0  0  0  0
   57.9220   28.8290   44.4770 C   0  0  0  0  0  0  0  0  0  0  0  0
   59.1290   28.1330   44.4280 C   0  0  0  0  0  0  0  0  0  0  0  0
   58.9000   26.6550   45.1940 S   0  0  0  0  0  0  0  0  0  0  0  0
   57.2810   26.9550   45.5340 C   0  0  0  0  0  0  0  0  0  0  0  0
   56.3910   26.0440   46.3070 C   0  0  0  0  0  0  0  0  0  0  0  0
   56.9020   28.1740   45.0960 N   0  0  0  0  0  0  0  0  0  0  0  0
   57.7910   32.5910   44.3800 C   0  0  0  0  0  0  0  0  0  0  0  0
   58.6700   33.7630   44.8700 C   0  0  0  0  0  0  0  0  0  0  0  0
   60.7890   34.3640   48.5810 C   0  0  0  0  0  0  0  0  0  0  0  0
   61.9200   33.7390   49.0010 N   0  0  0  0  0  0  0  0  0  0  0  0
   64.0939   32.6099   49.7100 H   0  0  0  0  0  0  0  0  0  0  0  0
   64.1183   31.5760   48.2412 H   0  0  0  0  0  0  0  0  0  0  0  0
   64.9716   33.1567   48.2412 H   0  0  0  0  0  0  0  0  0  0  0  0
   63.3773   33.1177   46.0156 H   0  0  0  0  0  0  0  0  0  0  0  0
   58.9095   35.8471   47.5148 H   0  0  0  0  0  0  0  0  0  0  0  0
   59.6330   35.8946   45.8594 H   0  0  0  0  0  0  0  0  0  0  0  0
   58.1243   33.7117   48.2412 H   0  0  0  0  0  0  0  0  0  0  0  0
   56.9053   33.0147   47.0552 H   0  0  0  0  0  0  0  0  0  0  0  0
   59.7680   32.1786   46.8582 H   0  0  0  0  0  0  0  0  0  0  0  0
   58.6765   31.5047   48.1821 H   0  0  0  0  0  0  0  0  0  0  0  0
   58.7245   29.9514   46.3760 H   0  0  0  0  0  0  0  0  0  0  0  0
   57.1007   30.8104   46.4426 H   0  0  0  0  0  0  0  0  0  0  0  0
   56.6628   30.3676   43.7154 H   0  0  0  0  0  0  0  0  0  0  0  0
   58.2828   30.2320   42.9255 H   0  0  0  0  0  0  0  0  0  0  0  0
   60.0640   28.4879   43.9699 H   0  0  0  0  0  0  0  0  0  0  0  0
   56.5480   26.2047   47.3838 H   0  0  0  0  0  0  0  0  0  0  0  0
   55.3415   26.2550   46.0540 H   0  0  0  0  0  0  0  0  0  0  0  0
   56.6264   24.9997   46.0540 H   0  0  0  0  0  0  0  0  0  0  0  0
   57.7502   32.6311   43.2815 H   0  0  0  0  0  0  0  0  0  0  0  0
   56.8092   32.7220   44.8585 H   0  0  0  0  0  0  0  0  0  0  0  0
   59.7161   33.4230   44.8817 H   0  0  0  0  0  0  0  0  0  0  0  0
   58.4882   34.5949   44.1737 H   0  0  0  0  0  0  0  0  0  0  0  0
   60.0507   34.7249   49.3122 H   0  0  0  0  0  0  0  0  0  0  0  0
  1  2  1  0
  2  3  2  0
  3  4  1  0
  4  5  2  0
  5  6  1  0
  6  7  1  0
  7  8  1  0
  8  9  1  0
  9 10  1  0
 10 11  1  0
 11 12  1  0
 12 13  1  0
 13 14  2  0
 14 15  1  0
 15 16  1  0
 16 17  1  0
 16 18  2  0
 11 19  1  0
 19 20  1  0
  5 21  1  0
 21 22  2  0
 22  2  1  0
 20  7  1  0
 18 13  1  0
  1 23  1  0
  1 24  1  0
  1 25  1  0
  3 26  1  0
  6 27  1  0
  6 28  1  0
  8 29  1  0
  8 30  1  0
  9 31  1  0
  9 32  1  0
 10 33  1  0
 10 34  1  0
 12 35  1  0
 12 36  1  0
 14 37  1  0
 17 38  1  0
 17 39  1  0
 17 40  1  0
 19 41  1  0
 19 42  1  0
 20 43  1  0
 20 44  1  0
 21 45  1  0
M  END
>  <UniqueID>  (62) 
58

>  <SMILES>  (62) 
Cc1cnc(CN2CCCN(Cc3csc(C)n3)CC2)cn1

>  <Energy>  (62) 
96.34976519484663

>  <Genealogy>  (62) 
Cc1cnc(CN2CCCN(Cc3csc(C)n3)CC2)cn1 (3D coordinates assigned)
Cc1cnc(CN2CCCN(Cc3csc(C)n3)CC2)cn1 (nonaromatic ring conformer: 96.34976519484663 kcal/mol)

>  <smiles>  (62) 
Cc1cnc(CN2CCCN(Cc3csc(C)n3)CC2)cn1

>  <score_type>  (62) 
oracle

>  <origin>  (62) 
adg

>  <m_score__min__energy>  (62) 
-5.25

>  <m_primary>  (62) 
energy

$$$$
62:0
     RDKit          3D

 60 64  0  0  0  0  0  0  0  0999 V2000
   59.2570   29.9860   49.7370 C   0  0  0  0  0  0  0  0  0  0  0  0
   58.5150   29.3950   48.6750 O   0  0  0  0  0  0  0  0  0  0  0  0
   58.9590   28.3110   47.9040 C   0  0  0  0  0  0  0  0  0  0  0  0
   60.2850   27.8870   48.0550 C   0  0  0  0  0  0  0  0  0  0  0  0
   60.7770   26.8140   47.3080 C   0  0  0  0  0  0  0  0  0  0  0  0
   59.9450   26.1500   46.4050 C   0  0  0  0  0  0  0  0  0  0  0  0
   58.6090   26.5490   46.2500 C   0  0  0  0  0  0  0  0  0  0  0  0
   57.7240   25.8510   45.2480 C   0  0  0  0  0  0  0  0  0  0  0  0
   57.7530   26.5560   43.9570 N   0  0  0  0  0  0  0  0  0  0  0  0
   58.7590   27.6310   43.9370 C   0  0  0  0  0  0  0  0  0  0  0  0
   58.1240   28.9940   44.0850 C   0  0  0  0  0  0  0  0  0  0  0  0
   56.8670   29.2490   43.5170 C   0  0  0  0  0  0  0  0  0  0  0  0
   56.2610   30.4940   43.6840 C   0  0  0  0  0  0  0  0  0  0  0  0
   56.8980   31.4950   44.4200 C   0  0  0  0  0  0  0  0  0  0  0  0
   58.1570   31.2600   45.0010 C   0  0  0  0  0  0  0  0  0  0  0  0
   58.8300   32.3200   45.7960 C   0  0  0  0  0  0  0  0  0  0  0  0
   58.3520   33.6420   45.7720 C   0  0  0  0  0  0  0  0  0  0  0  0
   58.9800   34.6350   46.5260 C   0  0  0  0  0  0  0  0  0  0  0  0
   60.0930   34.3250   47.3100 C   0  0  0  0  0  0  0  0  0  0  0  0
   60.5920   33.0130   47.3470 C   0  0  0  0  0  0  0  0  0  0  0  0
   61.7730   32.6860   48.1780 C   0  0  0  0  0  0  0  0  0  0  0  0
   61.7850   31.6690   49.0800 N   0  0  0  0  0  0  0  0  0  0  0  0
   63.0230   31.7370   49.5930 C   0  0  0  0  0  0  0  0  0  0  0  0
   63.5940   30.9230   50.5780 C   0  0  0  0  0  0  0  0  0  0  0  0
   62.8190   29.8240   51.2390 C   0  0  0  0  0  0  0  0  0  0  0  0
   64.9170   31.2230   50.9750 C   0  0  0  0  0  0  0  0  0  0  0  0
   65.6260   32.2860   50.3690 C   0  0  0  0  0  0  0  0  0  0  0  0
   65.0190   33.0690   49.3700 C   0  0  0  0  0  0  0  0  0  0  0  0
   63.7100   32.7600   49.0120 C   0  0  0  0  0  0  0  0  0  0  0  0
   62.9410   33.3820   48.1070 N   0  0  0  0  0  0  0  0  0  0  0  0
   59.9530   32.0160   46.5890 C   0  0  0  0  0  0  0  0  0  0  0  0
   58.7640   30.0020   44.8240 C   0  0  0  0  0  0  0  0  0  0  0  0
   58.1220   27.6390   46.9900 C   0  0  0  0  0  0  0  0  0  0  0  0
   58.8431   29.6563   50.7013 H   0  0  0  0  0  0  0  0  0  0  0  0
   60.3101   29.6766   49.6650 H   0  0  0  0  0  0  0  0  0  0  0  0
   59.1910   31.0817   49.6650 H   0  0  0  0  0  0  0  0  0  0  0  0
   60.9448   28.4032   48.7679 H   0  0  0  0  0  0  0  0  0  0  0  0
   61.8215   26.4919   47.4315 H   0  0  0  0  0  0  0  0  0  0  0  0
   60.3384   25.3107   45.8127 H   0  0  0  0  0  0  0  0  0  0  0  0
   58.0808   24.8202   45.1058 H   0  0  0  0  0  0  0  0  0  0  0  0
   56.6916   25.8455   45.6277 H   0  0  0  0  0  0  0  0  0  0  0  0
   57.9980   25.8670   43.2060 H   0  0  0  0  0  0  0  0  0  0  0  0
   56.8060   26.9490   43.7410 H   0  0  0  0  0  0  0  0  0  0  0  0
   59.4644   27.4745   44.7664 H   0  0  0  0  0  0  0  0  0  0  0  0
   59.2769   27.5977   42.9671 H   0  0  0  0  0  0  0  0  0  0  0  0
   56.3576   28.4645   42.9380 H   0  0  0  0  0  0  0  0  0  0  0  0
   55.2764   30.6883   43.2337 H   0  0  0  0  0  0  0  0  0  0  0  0
   56.4120   32.4737   44.5462 H   0  0  0  0  0  0  0  0  0  0  0  0
   57.4774   33.8956   45.1550 H   0  0  0  0  0  0  0  0  0  0  0  0
   58.5965   35.6657   46.5024 H   0  0  0  0  0  0  0  0  0  0  0  0
   60.5816   35.1129   47.9019 H   0  0  0  0  0  0  0  0  0  0  0  0
   62.8930   29.9290   52.3315 H   0  0  0  0  0  0  0  0  0  0  0  0
   61.7635   29.8857   50.9354 H   0  0  0  0  0  0  0  0  0  0  0  0
   63.2315   28.8505   50.9354 H   0  0  0  0  0  0  0  0  0  0  0  0
   65.3992   30.6245   51.7620 H   0  0  0  0  0  0  0  0  0  0  0  0
   66.6586   32.5020   50.6806 H   0  0  0  0  0  0  0  0  0  0  0  0
   65.5603   33.8968   48.8885 H   0  0  0  0  0  0  0  0  0  0  0  0
   60.3354   30.9850   46.6159 H   0  0  0  0  0  0  0  0  0  0  0  0
   59.7506   29.8066   45.2696 H   0  0  0  0  0  0  0  0  0  0  0  0
   57.0817   27.9702   46.8556 H   0  0  0  0  0  0  0  0  0  0  0  0
  1  2  1  0
  2  3  1  0
  3  4  2  0
  4  5  1  0
  5  6  2  0
  6  7  1  0
  7  8  1  0
  8  9  1  0
  9 10  1  0
 10 11  1  0
 11 12  2  0
 12 13  1  0
 13 14  2  0
 14 15  1  0
 15 16  1  0
 16 17  2  0
 17 18  1  0
 18 19  2  0
 19 20  1  0
 20 21  1  0
 21 22  2  0
 22 23  1  0
 23 24  2  0
 24 25  1  0
 24 26  1  0
 26 27  2  0
 27 28  1  0
 28 29  2  0
 29 30  1  0
 20 31  2  0
 15 32  2  0
  7 33  2  0
 33  3  1  0
 32 11  1  0
 31 16  1  0
 30 21  1  0
 29 23  1  0
  1 34  1  0
  1 35  1  0
  1 36  1  0
  4 37  1  0
  5 38  1  0
  6 39  1  0
  8 40  1  0
  8 41  1  0
  9 42  1  0
  9 43  1  0
 10 44  1  0
 10 45  1  0
 12 46  1  0
 13 47  1  0
 14 48  1  0
 17 49  1  0
 18 50  1  0
 19 51  1  0
 25 52  1  0
 25 53  1  0
 25 54  1  0
 26 55  1  0
 27 56  1  0
 28 57  1  0
 31 58  1  0
 32 59  1  0
 33 60  1  0
M  CHG  2   9   1  30  -1
M  END
>  <UniqueID>  (63) 
59

>  <SMILES>  (63) 
COc1cccc(C[NH2+]Cc2cccc(-c3cccc(-c4nc5c(C)cccc5[n-]4)c3)c2)c1

>  <Energy>  (63) 
104.08127323283688

>  <Genealogy>  (63) 
COc1cccc(C[NH2+]Cc2cccc(-c3cccc(-c4nc5c(C)cccc5[n-]4)c3)c2)c1 (protonated)
COc1cccc(C[NH2+]Cc2cccc(-c3cccc(-c4nc5c(C)cccc5[n-]4)c3)c2)c1 (3D coordinates assigned)
COc1cccc(C[NH2+]Cc2cccc(-c3cccc(-c4nc5c(C)cccc5[n-]4)c3)c2)c1 (optimized conformer: 104.08127323283688 kcal/mol)

>  <smiles>  (63) 
COc1cccc(CNCc2cccc(-c3cccc(-c4nc5c(C)cccc5[nH]4)c3)c2)c1

>  <score_type>  (63) 
oracle

>  <origin>  (63) 
adg

>  <m_score__min__energy>  (63) 
-9.7100000000000009

>  <m_primary>  (63) 
energy

$$$$
63:0
     RDKit          3D

 46 48  0  0  0  0  0  0  0  0999 V2000
   57.8550   31.3090   51.3030 C   0  0  0  0  0  0  0  0  0  0  0  0
   58.9170   30.3660   51.3990 O   0  0  0  0  0  0  0  0  0  0  0  0
   59.3250   29.5230   50.3540 C   0  0  0  0  0  0  0  0  0  0  0  0
   60.2950   28.5180   50.5310 C   0  0  0  0  0  0  0  0  0  0  0  0
   60.6630   27.7020   49.4590 C   0  0  0  0  0  0  0  0  0  0  0  0
   60.0800   27.8840   48.2030 C   0  0  0  0  0  0  0  0  0  0  0  0
   59.1250   28.8960   48.0070 C   0  0  0  0  0  0  0  0  0  0  0  0
   58.4960   29.0940   46.7300 N   0  0  0  0  0  0  0  0  0  0  0  0
   58.0980   30.3800   46.2270 C   0  0  0  0  0  0  0  0  0  0  0  0
   58.1550   31.3970   46.9710 O   0  0  0  0  0  0  0  0  0  0  0  0
   57.5730   30.5100   44.8480 C   0  0  0  0  0  0  0  0  0  0  0  0
   58.1610   31.4390   43.9730 C   0  0  0  0  0  0  0  0  0  0  0  0
   57.6980   31.5730   42.6640 C   0  0  0  0  0  0  0  0  0  0  0  0
   56.6530   30.7710   42.2090 C   0  0  0  0  0  0  0  0  0  0  0  0
   56.0610   29.8360   43.0610 C   0  0  0  0  0  0  0  0  0  0  0  0
   56.4980   29.7100   44.3950 C   0  0  0  0  0  0  0  0  0  0  0  0
   55.9540   28.7100   45.2740 N   0  0  0  0  0  0  0  0  0  0  0  0
   56.4110   27.3710   45.5000 C   0  0  0  0  0  0  0  0  0  0  0  0
   57.5990   27.0420   45.2480 O   0  0  0  0  0  0  0  0  0  0  0  0
   55.4990   26.3780   45.9760 N   0  0  0  0  0  0  0  0  0  0  0  0
   55.9160   25.0710   46.4780 C   0  0  0  0  0  0  0  0  0  0  0  0
   56.2180   24.1260   45.3450 C   0  0  0  0  0  0  0  0  0  0  0  0
   57.5100   23.6110   45.1710 C   0  0  0  0  0  0  0  0  0  0  0  0
   57.7750   22.7260   44.1240 C   0  0  0  0  0  0  0  0  0  0  0  0
   56.7430   22.3660   43.2560 C   0  0  0  0  0  0  0  0  0  0  0  0
   55.4960   22.8790   43.4300 N   0  0  0  0  0  0  0  0  0  0  0  0
   55.2130   23.7420   44.4410 C   0  0  0  0  0  0  0  0  0  0  0  0
   58.7420   29.6970   49.0930 C   0  0  0  0  0  0  0  0  0  0  0  0
   57.5292   31.5983   52.3130 H   0  0  0  0  0  0  0  0  0  0  0  0
   58.2039   32.2003   50.7609 H   0  0  0  0  0  0  0  0  0  0  0  0
   57.0113   30.8571   50.7609 H   0  0  0  0  0  0  0  0  0  0  0  0
   60.7640   28.3752   51.5157 H   0  0  0  0  0  0  0  0  0  0  0  0
   61.4152   26.9126   49.6045 H   0  0  0  0  0  0  0  0  0  0  0  0
   60.3693   27.2332   47.3647 H   0  0  0  0  0  0  0  0  0  0  0  0
   58.1730   28.2470   46.2090 H   0  0  0  0  0  0  0  0  0  0  0  0
   58.9939   32.0662   44.3234 H   0  0  0  0  0  0  0  0  0  0  0  0
   58.1577   32.3117   41.9909 H   0  0  0  0  0  0  0  0  0  0  0  0
   56.2930   30.8748   41.1748 H   0  0  0  0  0  0  0  0  0  0  0  0
   55.2489   29.1942   42.6887 H   0  0  0  0  0  0  0  0  0  0  0  0
   56.8193   25.1941   47.0936 H   0  0  0  0  0  0  0  0  0  0  0  0
   55.0952   24.6484   47.0760 H   0  0  0  0  0  0  0  0  0  0  0  0
   58.3159   23.9043   45.8599 H   0  0  0  0  0  0  0  0  0  0  0  0
   58.7865   22.3168   43.9847 H   0  0  0  0  0  0  0  0  0  0  0  0
   56.9388   21.6663   42.4301 H   0  0  0  0  0  0  0  0  0  0  0  0
   54.1940   24.1412   44.5520 H   0  0  0  0  0  0  0  0  0  0  0  0
   57.9739   30.4717   48.9521 H   0  0  0  0  0  0  0  0  0  0  0  0
  1  2  1  0
  2  3  1  0
  3  4  2  0
  4  5  1  0
  5  6  2  0
  6  7  1  0
  7  8  1  0
  8  9  1  0
  9 10  2  0
  9 11  1  0
 11 12  2  0
 12 13  1  0
 13 14  2  0
 14 15  1  0
 15 16  2  0
 16 17  1  0
 17 18  1  0
 18 19  2  0
 18 20  1  0
 20 21  1  0
 21 22  1  0
 22 23  2  0
 23 24  1  0
 24 25  2  0
 25 26  1  0
 26 27  2  0
  7 28  2  0
 28  3  1  0
 16 11  1  0
 27 22  1  0
  1 29  1  0
  1 30  1  0
  1 31  1  0
  4 32  1  0
  5 33  1  0
  6 34  1  0
  8 35  1  0
 12 36  1  0
 13 37  1  0
 14 38  1  0
 15 39  1  0
 21 40  1  0
 21 41  1  0
 23 42  1  0
 24 43  1  0
 25 44  1  0
 27 45  1  0
 28 46  1  0
M  CHG  2  17  -1  20  -1
M  END
>  <UniqueID>  (64) 
60

>  <SMILES>  (64) 
COc1cccc(NC(=O)c2ccccc2[N-]C(=O)[N-]Cc2cccnc2)c1

>  <Energy>  (64) 
56.042255323848586

>  <Genealogy>  (64) 
COc1cccc(NC(=O)c2ccccc2[N-]C(=O)[N-]Cc2cccnc2)c1 (protonated)
COc1cccc(NC(=O)c2ccccc2[N-]C(=O)[N-]Cc2cccnc2)c1 (3D coordinates assigned)
COc1cccc(NC(=O)c2ccccc2[N-]C(=O)[N-]Cc2cccnc2)c1 (optimized conformer: 56.042255323848586 kcal/mol)

>  <smiles>  (64) 
COc1cccc(NC(=O)c2ccccc2NC(=O)NCc2cccnc2)c1

>  <score_type>  (64) 
oracle

>  <origin>  (64) 
adg

>  <m_score__min__energy>  (64) 
-11.4

>  <m_primary>  (64) 
energy

$$$$
64:0
     RDKit          3D

 61 63  0  0  0  0  0  0  0  0999 V2000
   56.6000   22.6810   43.2610 C   0  0  0  0  0  0  0  0  0  0  0  0
   57.0860   24.0680   43.6760 C   0  0  0  0  0  0  0  0  0  0  0  0
   57.8720   24.0000   44.9170 N   0  0  0  0  0  0  0  0  0  0  0  0
   58.3160   22.6940   45.4190 C   0  0  0  0  0  0  0  0  0  0  0  0
   59.6340   22.2800   44.7730 C   0  0  0  0  0  0  0  0  0  0  0  0
   58.1850   25.2000   45.6560 C   0  0  0  0  0  0  0  0  0  0  0  0
   57.1680   26.1060   46.0070 C   0  0  0  0  0  0  0  0  0  0  0  0
   57.4690   27.2610   46.7340 C   0  0  0  0  0  0  0  0  0  0  0  0
   58.7910   27.5340   47.1160 C   0  0  0  0  0  0  0  0  0  0  0  0
   59.1310   28.8070   47.8610 C   0  0  0  0  0  0  0  0  0  0  0  0
   58.6890   30.0190   47.1120 N   0  0  2  0  0  0  0  0  0  0  0  0
   59.1090   30.0150   45.6790 C   0  0  0  0  0  0  0  0  0  0  0  0
   58.0330   29.8830   44.5670 C   0  0  2  0  0  0  0  0  0  0  0  0
   58.0390   30.9380   43.4800 C   0  0  0  0  0  0  0  0  0  0  0  0
   56.6500   30.8250   42.9310 C   0  0  0  0  0  0  0  0  0  0  0  0
   55.8510   30.2300   44.0870 C   0  0  0  0  0  0  0  0  0  0  0  0
   56.7330   29.7910   45.0980 O   0  0  0  0  0  0  0  0  0  0  0  0
   59.0080   31.2340   47.8420 C   0  0  0  0  0  0  0  0  0  0  0  0
   58.9950   31.2400   49.1030 O   0  0  0  0  0  0  0  0  0  0  0  0
   59.1260   32.5390   47.1460 C   0  0  0  0  0  0  0  0  0  0  0  0
   57.9840   33.0490   46.5050 C   0  0  0  0  0  0  0  0  0  0  0  0
   58.0510   34.2290   45.7640 C   0  0  0  0  0  0  0  0  0  0  0  0
   59.2490   34.9380   45.6830 C   0  0  0  0  0  0  0  0  0  0  0  0
   60.3810   34.4730   46.3550 C   0  0  0  0  0  0  0  0  0  0  0  0
   60.3310   33.2890   47.1100 C   0  0  0  0  0  0  0  0  0  0  0  0
   61.5610   32.8590   47.8600 C   0  0  0  0  0  0  0  0  0  0  0  0
   59.8100   26.6410   46.7500 C   0  0  0  0  0  0  0  0  0  0  0  0
   59.5090   25.4810   46.0330 C   0  0  0  0  0  0  0  0  0  0  0  0
   56.3901   22.0820   44.1594 H   0  0  0  0  0  0  0  0  0  0  0  0
   55.6823   22.7780   42.6623 H   0  0  0  0  0  0  0  0  0  0  0  0
   57.3775   22.1840   42.6623 H   0  0  0  0  0  0  0  0  0  0  0  0
   57.7140   24.4841   42.8745 H   0  0  0  0  0  0  0  0  0  0  0  0
   56.2096   24.7095   43.8502 H   0  0  0  0  0  0  0  0  0  0  0  0
   58.4530   22.7550   46.5087 H   0  0  0  0  0  0  0  0  0  0  0  0
   57.5517   21.9437   45.1683 H   0  0  0  0  0  0  0  0  0  0  0  0
   60.3700   22.0488   45.5571 H   0  0  0  0  0  0  0  0  0  0  0  0
   59.4722   21.3894   44.1480 H   0  0  0  0  0  0  0  0  0  0  0  0
   60.0105   23.1032   44.1480 H   0  0  0  0  0  0  0  0  0  0  0  0
   56.1290   25.9042   45.7074 H   0  0  0  0  0  0  0  0  0  0  0  0
   56.6650   27.9598   47.0082 H   0  0  0  0  0  0  0  0  0  0  0  0
   58.6309   28.7912   48.8406 H   0  0  0  0  0  0  0  0  0  0  0  0
   60.2238   28.8551   47.9772 H   0  0  0  0  0  0  0  0  0  0  0  0
   57.6450   29.9770   47.0590 H   0  0  0  0  0  0  0  0  0  0  0  0
   59.6409   30.9609   45.4989 H   0  0  0  0  0  0  0  0  0  0  0  0
   59.6938   29.0882   45.5839 H   0  0  0  0  0  0  0  0  0  0  0  0
   58.3302   28.9452   44.0749 H   0  0  0  0  0  0  0  0  0  0  0  0
   58.2246   31.9394   43.8956 H   0  0  0  0  0  0  0  0  0  0  0  0
   58.8274   30.7948   42.7264 H   0  0  0  0  0  0  0  0  0  0  0  0
   56.2574   31.8136   42.6508 H   0  0  0  0  0  0  0  0  0  0  0  0
   56.6008   30.2120   42.0190 H   0  0  0  0  0  0  0  0  0  0  0  0
   55.1762   30.9956   44.4975 H   0  0  0  0  0  0  0  0  0  0  0  0
   55.2616   29.3762   43.7214 H   0  0  0  0  0  0  0  0  0  0  0  0
   57.0275   32.5122   46.5885 H   0  0  0  0  0  0  0  0  0  0  0  0
   57.1568   34.6010   45.2424 H   0  0  0  0  0  0  0  0  0  0  0  0
   59.3021   35.8630   45.0901 H   0  0  0  0  0  0  0  0  0  0  0  0
   61.3219   35.0395   46.2928 H   0  0  0  0  0  0  0  0  0  0  0  0
   61.3726   32.9249   48.9417 H   0  0  0  0  0  0  0  0  0  0  0  0
   61.8088   31.8209   47.5935 H   0  0  0  0  0  0  0  0  0  0  0  0
   62.4016   33.5166   47.5935 H   0  0  0  0  0  0  0  0  0  0  0  0
   60.8519   26.8561   47.0296 H   0  0  0  0  0  0  0  0  0  0  0  0
   60.3141   24.7824   45.7615 H   0  0  0  0  0  0  0  0  0  0  0  0
  1  2  1  0
  2  3  1  0
  3  4  1  0
  4  5  1  0
  3  6  1  0
  6  7  2  0
  7  8  1  0
  8  9  2  0
  9 10  1  0
 10 11  1  0
 11 12  1  0
 12 13  1  0
 13 14  1  0
 14 15  1  0
 15 16  1  0
 16 17  1  0
 11 18  1  0
 18 19  2  0
 18 20  1  0
 20 21  2  0
 21 22  1  0
 22 23  2  0
 23 24  1  0
 24 25  2  0
 25 26  1  0
  9 27  1  0
 27 28  2  0
 28  6  1  0
 17 13  1  0
 25 20  1  0
  1 29  1  0
  1 30  1  0
  1 31  1  0
  2 32  1  0
  2 33  1  0
  4 34  1  0
  4 35  1  0
  5 36  1  0
  5 37  1  0
  5 38  1  0
  7 39  1  0
  8 40  1  0
 10 41  1  0
 10 42  1  0
 11 43  1  6
 12 44  1  0
 12 45  1  0
 13 46  1  6
 14 47  1  0
 14 48  1  0
 15 49  1  0
 15 50  1  0
 16 51  1  0
 16 52  1  0
 21 53  1  0
 22 54  1  0
 23 55  1  0
 24 56  1  0
 26 57  1  0
 26 58  1  0
 26 59  1  0
 27 60  1  0
 28 61  1  0
M  CHG  1  11   1
M  END
>  <UniqueID>  (65) 
61

>  <SMILES>  (65) 
CCN(CC)c1ccc(C[N@H+](C[C@@H]2CCCO2)C(=O)c2ccccc2C)cc1

>  <Energy>  (65) 
80.86742977292818

>  <Genealogy>  (65) 
CCN(CC)c1ccc(C[NH+](CC2CCCO2)C(=O)c2ccccc2C)cc1 (protonated)
CCN(CC)c1ccc(C[N@H+](C[C@@H]2CCCO2)C(=O)c2ccccc2C)cc1 (chirality)
CCN(CC)c1ccc(C[N@H+](C[C@@H]2CCCO2)C(=O)c2ccccc2C)cc1 (3D coordinates assigned)
CCN(CC)c1ccc(C[N@H+](C[C@@H]2CCCO2)C(=O)c2ccccc2C)cc1 (nonaromatic ring conformer: 80.86742977292818 kcal/mol)

>  <smiles>  (65) 
CCN(CC)c1ccc(CN(CC2CCCO2)C(=O)c2ccccc2C)cc1

>  <score_type>  (65) 
oracle

>  <origin>  (65) 
adg

>  <m_score__min__energy>  (65) 
-6.5800000000000001

>  <m_primary>  (65) 
energy

$$$$
65:0
     RDKit          3D

 40 42  0  0  0  0  0  0  0  0999 V2000
   57.5540   29.6650   44.8060 C   0  0  0  0  0  0  0  0  0  0  0  0
   57.6120   31.0750   45.1660 N   0  0  0  0  0  0  0  0  0  0  0  0
   58.5820   31.6630   45.8890 C   0  0  0  0  0  0  0  0  0  0  0  0
   58.2310   32.9840   46.0720 C   0  0  0  0  0  0  0  0  0  0  0  0
   59.0250   34.0520   46.7820 C   0  0  0  0  0  0  0  0  0  0  0  0
   60.2940   33.5820   47.3810 N   0  0  0  0  0  0  0  0  0  0  0  0
   61.4600   33.6610   46.5020 C   0  0  0  0  0  0  0  0  0  0  0  0
   62.6680   33.5810   47.4110 C   0  0  0  0  0  0  0  0  0  0  0  0
   62.2040   34.1860   48.7270 C   0  0  0  0  0  0  0  0  0  0  0  0
   60.6710   34.2190   48.6510 C   0  0  2  0  0  0  0  0  0  0  0  0
   60.0440   33.4800   49.8020 C   0  0  0  0  0  0  0  0  0  0  0  0
   60.3370   33.8150   50.9810 O   0  0  0  0  0  0  0  0  0  0  0  0
   59.1800   32.3580   49.5560 N   0  0  0  0  0  0  0  0  0  0  0  0
   58.3500   31.7460   50.5570 C   0  0  0  0  0  0  0  0  0  0  0  0
   57.7570   32.5410   51.5470 C   0  0  0  0  0  0  0  0  0  0  0  0
   56.9690   31.9550   52.5390 C   0  0  0  0  0  0  0  0  0  0  0  0
   56.7910   30.5710   52.5420 C   0  0  0  0  0  0  0  0  0  0  0  0
   57.3930   29.8060   51.5920 N   0  0  0  0  0  0  0  0  0  0  0  0
   58.1620   30.3540   50.6130 C   0  0  0  0  0  0  0  0  0  0  0  0
   57.0210   33.1320   45.4170 C   0  0  0  0  0  0  0  0  0  0  0  0
   56.6580   31.9490   44.8840 N   0  0  0  0  0  0  0  0  0  0  0  0
   57.5289   29.0539   45.7203 H   0  0  0  0  0  0  0  0  0  0  0  0
   56.6473   29.4750   44.2129 H   0  0  0  0  0  0  0  0  0  0  0  0
   58.4421   29.4012   44.2129 H   0  0  0  0  0  0  0  0  0  0  0  0
   59.4933   31.1766   46.2671 H   0  0  0  0  0  0  0  0  0  0  0  0
   59.2612   34.8436   46.0556 H   0  0  0  0  0  0  0  0  0  0  0  0
   58.3987   34.4031   47.6154 H   0  0  0  0  0  0  0  0  0  0  0  0
   61.4603   32.8226   45.7898 H   0  0  0  0  0  0  0  0  0  0  0  0
   61.4591   34.5885   45.9106 H   0  0  0  0  0  0  0  0  0  0  0  0
   62.9776   32.5351   47.5531 H   0  0  0  0  0  0  0  0  0  0  0  0
   63.5374   34.1104   46.9941 H   0  0  0  0  0  0  0  0  0  0  0  0
   62.5328   33.5637   49.5724 H   0  0  0  0  0  0  0  0  0  0  0  0
   62.6246   35.1904   48.8830 H   0  0  0  0  0  0  0  0  0  0  0  0
   60.3137   35.2579   48.7054 H   0  0  0  0  0  0  0  0  0  0  0  0
   59.2080   31.9190   48.6080 H   0  0  0  0  0  0  0  0  0  0  0  0
   57.9129   33.6299   51.5424 H   0  0  0  0  0  0  0  0  0  0  0  0
   56.4931   32.5780   53.3106 H   0  0  0  0  0  0  0  0  0  0  0  0
   56.1639   30.0987   53.3125 H   0  0  0  0  0  0  0  0  0  0  0  0
   58.6383   29.7058   49.8627 H   0  0  0  0  0  0  0  0  0  0  0  0
   56.4466   34.0672   45.3432 H   0  0  0  0  0  0  0  0  0  0  0  0
  1  2  1  0
  2  3  1  0
  3  4  2  0
  4  5  1  0
  5  6  1  0
  6  7  1  0
  7  8  1  0
  8  9  1  0
  9 10  1  0
 10 11  1  0
 11 12  2  0
 11 13  1  0
 13 14  1  0
 14 15  2  0
 15 16  1  0
 16 17  2  0
 17 18  1  0
 18 19  2  0
  4 20  1  0
 20 21  2  0
 21  2  1  0
 10  6  1  0
 19 14  1  0
  1 22  1  0
  1 23  1  0
  1 24  1  0
  3 25  1  0
  5 26  1  0
  5 27  1  0
  7 28  1  0
  7 29  1  0
  8 30  1  0
  8 31  1  0
  9 32  1  0
  9 33  1  0
 10 34  1  6
 13 35  1  0
 15 36  1  0
 16 37  1  0
 17 38  1  0
 19 39  1  0
 20 40  1  0
M  END
>  <UniqueID>  (66) 
62

>  <SMILES>  (66) 
Cn1cc(CN2CCC[C@@H]2C(=O)Nc2cccnc2)cn1

>  <Energy>  (66) 
78.81102652589519

>  <Genealogy>  (66) 
Cn1cc(CN2CCC[C@@H]2C(=O)Nc2cccnc2)cn1 (chirality)
Cn1cc(CN2CCC[C@@H]2C(=O)Nc2cccnc2)cn1 (3D coordinates assigned)
Cn1cc(CN2CCC[C@@H]2C(=O)Nc2cccnc2)cn1 (nonaromatic ring conformer: 78.81102652589519 kcal/mol)

>  <smiles>  (66) 
Cn1cc(CN2CCCC2C(=O)Nc2cccnc2)cn1

>  <score_type>  (66) 
oracle

>  <origin>  (66) 
adg

>  <m_score__min__energy>  (66) 
-7.1600000000000001

>  <m_primary>  (66) 
energy

$$$$
66:0
     RDKit          3D

 34 35  0  0  0  0  0  0  0  0999 V2000
   58.1730   33.4880   47.0290 C   0  0  0  0  0  0  0  0  0  0  0  0
   57.7680   34.2120   45.9040 C   0  0  0  0  0  0  0  0  0  0  0  0
   57.7090   33.5890   44.6530 C   0  0  0  0  0  0  0  0  0  0  0  0
   58.0510   32.2330   44.5200 C   0  0  0  0  0  0  0  0  0  0  0  0
   58.0290   31.5750   43.1660 C   0  0  0  0  0  0  0  0  0  0  0  0
   56.6780   30.9080   42.8590 C   0  0  0  0  0  0  0  0  0  0  0  0
   56.4240   29.6240   43.6790 C   0  0  0  0  0  0  0  0  0  0  0  0
   57.4060   28.5750   43.3650 N   0  0  0  0  0  0  0  0  0  0  0  0
   58.2080   28.2840   44.5270 C   0  0  0  0  0  0  0  0  0  0  0  0
   59.6010   28.4840   44.4970 C   0  0  0  0  0  0  0  0  0  0  0  0
   60.3740   28.2280   45.6340 C   0  0  0  0  0  0  0  0  0  0  0  0
   59.7660   27.7830   46.8100 C   0  0  0  0  0  0  0  0  0  0  0  0
   58.3820   27.5920   46.8530 C   0  0  0  0  0  0  0  0  0  0  0  0
   57.6040   27.8460   45.7190 C   0  0  0  0  0  0  0  0  0  0  0  0
   58.4590   31.5120   45.6560 C   0  0  0  0  0  0  0  0  0  0  0  0
   58.5180   32.1390   46.9040 C   0  0  0  0  0  0  0  0  0  0  0  0
   58.2202   33.9793   48.0120 H   0  0  0  0  0  0  0  0  0  0  0  0
   57.4953   35.2731   46.0026 H   0  0  0  0  0  0  0  0  0  0  0  0
   57.3934   34.1634   43.7695 H   0  0  0  0  0  0  0  0  0  0  0  0
   58.2282   32.3382   42.3993 H   0  0  0  0  0  0  0  0  0  0  0  0
   58.7988   30.7892   43.1630 H   0  0  0  0  0  0  0  0  0  0  0  0
   55.8761   31.6274   43.0814 H   0  0  0  0  0  0  0  0  0  0  0  0
   56.6949   30.6164   41.7985 H   0  0  0  0  0  0  0  0  0  0  0  0
   56.4909   29.8659   44.7500 H   0  0  0  0  0  0  0  0  0  0  0  0
   55.4237   29.2453   43.4222 H   0  0  0  0  0  0  0  0  0  0  0  0
   58.0280   28.8750   42.5800 H   0  0  0  0  0  0  0  0  0  0  0  0
   56.9050   27.7070   43.0580 H   0  0  0  0  0  0  0  0  0  0  0  0
   60.0834   28.8430   43.5759 H   0  0  0  0  0  0  0  0  0  0  0  0
   61.4633   28.3775   45.6020 H   0  0  0  0  0  0  0  0  0  0  0  0
   60.3766   27.5827   47.7028 H   0  0  0  0  0  0  0  0  0  0  0  0
   57.9043   27.2415   47.7798 H   0  0  0  0  0  0  0  0  0  0  0  0
   56.5142   27.7025   45.7597 H   0  0  0  0  0  0  0  0  0  0  0  0
   58.7328   30.4507   45.5624 H   0  0  0  0  0  0  0  0  0  0  0  0
   58.8366   31.5697   47.7897 H   0  0  0  0  0  0  0  0  0  0  0  0
  1  2  2  0
  2  3  1  0
  3  4  2  0
  4  5  1  0
  5  6  1  0
  6  7  1  0
  7  8  1  0
  8  9  1  0
  9 10  2  0
 10 11  1  0
 11 12  2  0
 12 13  1  0
 13 14  2  0
  4 15  1  0
 15 16  2  0
 16  1  1  0
 14  9  1  0
  1 17  1  0
  2 18  1  0
  3 19  1  0
  5 20  1  0
  5 21  1  0
  6 22  1  0
  6 23  1  0
  7 24  1  0
  7 25  1  0
  8 26  1  0
  8 27  1  0
 10 28  1  0
 11 29  1  0
 12 30  1  0
 13 31  1  0
 14 32  1  0
 15 33  1  0
 16 34  1  0
M  CHG  1   8   1
M  END
>  <UniqueID>  (67) 
63

>  <SMILES>  (67) 
c1ccc(CCC[NH2+]c2ccccc2)cc1

>  <Energy>  (67) 
31.64015537316115

>  <Genealogy>  (67) 
c1ccc(CCC[NH2+]c2ccccc2)cc1 (protonated)
c1ccc(CCC[NH2+]c2ccccc2)cc1 (3D coordinates assigned)
c1ccc(CCC[NH2+]c2ccccc2)cc1 (optimized conformer: 31.64015537316115 kcal/mol)

>  <smiles>  (67) 
c1ccc(CCCNc2ccccc2)cc1

>  <score_type>  (67) 
oracle

>  <origin>  (67) 
adg

>  <m_score__min__energy>  (67) 
-5.2599999999999998

>  <m_primary>  (67) 
energy

$$$$
67:0
     RDKit          3D

 36 38  0  0  0  0  0  0  0  0999 V2000
   59.7360   35.9690   45.7570 N   0  0  0  0  0  0  0  0  0  0  0  0
   59.2390   34.9360   45.5950 C   0  0  0  0  0  0  0  0  0  0  0  0
   58.6230   33.6510   45.3940 C   0  0  0  0  0  0  0  0  0  0  0  0
   58.2650   33.2300   44.1100 C   0  0  0  0  0  0  0  0  0  0  0  0
   57.6670   31.9800   43.9300 C   0  0  0  0  0  0  0  0  0  0  0  0
   57.4390   31.1610   45.0390 C   0  0  0  0  0  0  0  0  0  0  0  0
   56.8190   29.9170   44.8530 O   0  0  0  0  0  0  0  0  0  0  0  0
   57.3180   28.6890   45.3090 C   0  0  0  0  0  0  0  0  0  0  0  0
   58.6980   28.5550   45.4960 C   0  0  0  0  0  0  0  0  0  0  0  0
   59.2380   27.3480   45.9460 C   0  0  0  0  0  0  0  0  0  0  0  0
   58.3990   26.2690   46.2360 C   0  0  0  0  0  0  0  0  0  0  0  0
   57.0060   26.4010   46.1010 C   0  0  0  0  0  0  0  0  0  0  0  0
   56.1110   25.3170   46.3840 N   0  0  0  0  0  0  0  0  0  0  0  0
   54.8660   25.0570   45.7260 C   0  0  0  0  0  0  0  0  0  0  0  0
   54.0020   25.9710   45.6750 O   0  0  0  0  0  0  0  0  0  0  0  0
   54.5660   23.7450   45.2310 N   0  0  0  0  0  0  0  0  0  0  0  0
   55.4360   22.8990   44.4660 C   0  0  0  0  0  0  0  0  0  0  0  0
   56.2910   22.0210   45.1390 C   0  0  0  0  0  0  0  0  0  0  0  0
   57.1630   21.2000   44.4210 C   0  0  0  0  0  0  0  0  0  0  0  0
   57.1840   21.2810   43.0270 C   0  0  0  0  0  0  0  0  0  0  0  0
   56.3670   22.1570   42.3850 N   0  0  0  0  0  0  0  0  0  0  0  0
   55.5060   22.9630   43.0620 C   0  0  0  0  0  0  0  0  0  0  0  0
   56.4740   27.6060   45.6230 C   0  0  0  0  0  0  0  0  0  0  0  0
   57.7850   31.5980   46.2830 N   0  0  0  0  0  0  0  0  0  0  0  0
   58.3690   32.8090   46.4810 C   0  0  0  0  0  0  0  0  0  0  0  0
   58.4535   33.8810   43.2436 H   0  0  0  0  0  0  0  0  0  0  0  0
   57.3781   31.6434   42.9234 H   0  0  0  0  0  0  0  0  0  0  0  0
   59.3625   29.4063   45.2871 H   0  0  0  0  0  0  0  0  0  0  0  0
   60.3260   27.2467   46.0723 H   0  0  0  0  0  0  0  0  0  0  0  0
   58.8296   25.3138   46.5708 H   0  0  0  0  0  0  0  0  0  0  0  0
   56.2767   21.9768   46.2380 H   0  0  0  0  0  0  0  0  0  0  0  0
   57.8258   20.4975   44.9474 H   0  0  0  0  0  0  0  0  0  0  0  0
   57.8617   20.6359   42.4487 H   0  0  0  0  0  0  0  0  0  0  0  0
   54.8635   23.6659   42.5114 H   0  0  0  0  0  0  0  0  0  0  0  0
   55.3866   27.7071   45.4917 H   0  0  0  0  0  0  0  0  0  0  0  0
   58.6423   33.1273   47.4979 H   0  0  0  0  0  0  0  0  0  0  0  0
  1  2  3  0
  2  3  1  0
  3  4  2  0
  4  5  1  0
  5  6  2  0
  6  7  1  0
  7  8  1  0
  8  9  2  0
  9 10  1  0
 10 11  2  0
 11 12  1  0
 12 13  1  0
 13 14  1  0
 14 15  2  0
 14 16  1  0
 16 17  1  0
 17 18  2  0
 18 19  1  0
 19 20  2  0
 20 21  1  0
 21 22  2  0
 12 23  2  0
  6 24  1  0
 24 25  2  0
 25  3  1  0
 23  8  1  0
 22 17  1  0
  4 26  1  0
  5 27  1  0
  9 28  1  0
 10 29  1  0
 11 30  1  0
 18 31  1  0
 19 32  1  0
 20 33  1  0
 22 34  1  0
 23 35  1  0
 25 36  1  0
M  CHG  2  13  -1  16  -1
M  END
>  <UniqueID>  (68) 
64

>  <SMILES>  (68) 
N#Cc1ccc(Oc2cccc([N-]C(=O)[N-]c3cccnc3)c2)nc1

>  <Energy>  (68) 
51.27682601486045

>  <Genealogy>  (68) 
N#Cc1ccc(Oc2cccc([N-]C(=O)[N-]c3cccnc3)c2)nc1 (protonated)
N#Cc1ccc(Oc2cccc([N-]C(=O)[N-]c3cccnc3)c2)nc1 (3D coordinates assigned)
N#Cc1ccc(Oc2cccc([N-]C(=O)[N-]c3cccnc3)c2)nc1 (optimized conformer: 51.27682601486045 kcal/mol)

>  <smiles>  (68) 
N#Cc1ccc(Oc2cccc(NC(=O)Nc3cccnc3)c2)nc1

>  <score_type>  (68) 
oracle

>  <origin>  (68) 
adg

>  <m_score__min__energy>  (68) 
-11.140000000000001

>  <m_primary>  (68) 
energy

$$$$
68:0
     RDKit          3D

 53 55  0  0  0  0  0  0  0  0999 V2000
   60.7840   30.5840   48.0260 C   0  0  0  0  0  0  0  0  0  0  0  0
   62.1490   31.2480   48.2850 C   0  0  0  0  0  0  0  0  0  0  0  0
   62.1660   32.7400   48.2620 N   0  0  0  0  0  0  0  0  0  0  0  0
   63.4460   33.3630   47.8310 C   0  0  0  0  0  0  0  0  0  0  0  0
   63.3990   33.8370   46.3730 C   0  0  0  0  0  0  0  0  0  0  0  0
   61.6030   33.3600   49.4930 C   0  0  0  0  0  0  0  0  0  0  0  0
   60.3520   34.2380   49.2950 C   0  0  0  0  0  0  0  0  0  0  0  0
   60.1760   34.6460   47.9390 O   0  0  0  0  0  0  0  0  0  0  0  0
   59.4580   33.9400   46.9580 C   0  0  0  0  0  0  0  0  0  0  0  0
   59.5920   34.1960   45.5800 C   0  0  0  0  0  0  0  0  0  0  0  0
   58.8320   33.4760   44.6540 C   0  0  0  0  0  0  0  0  0  0  0  0
   57.9340   32.4870   45.0860 C   0  0  0  0  0  0  0  0  0  0  0  0
   57.1220   31.7200   44.0780 C   0  0  0  0  0  0  0  0  0  0  0  0
   57.8480   30.5300   43.6380 N   0  0  0  0  0  0  0  0  0  0  0  0
   58.2280   29.4380   44.4990 C   0  0  0  0  0  0  0  0  0  0  0  0
   59.5920   29.2940   44.8610 C   0  0  0  0  0  0  0  0  0  0  0  0
   60.0060   28.2640   45.7250 C   0  0  0  0  0  0  0  0  0  0  0  0
   59.0380   27.3880   46.2060 C   0  0  0  0  0  0  0  0  0  0  0  0
   59.2160   26.3540   47.0430 N   0  0  0  0  0  0  0  0  0  0  0  0
   57.9910   25.8100   47.2220 C   0  0  0  0  0  0  0  0  0  0  0  0
   57.0320   26.5050   46.4950 C   0  0  0  0  0  0  0  0  0  0  0  0
   57.7230   27.5100   45.8540 C   0  0  0  0  0  0  0  0  0  0  0  0
   57.2750   28.5210   45.0080 C   0  0  0  0  0  0  0  0  0  0  0  0
   57.8230   32.2130   46.4570 C   0  0  0  0  0  0  0  0  0  0  0  0
   58.5750   32.9400   47.3830 C   0  0  0  0  0  0  0  0  0  0  0  0
   60.3021   30.3496   48.9866 H   0  0  0  0  0  0  0  0  0  0  0  0
   60.1445   31.2717   47.4532 H   0  0  0  0  0  0  0  0  0  0  0  0
   60.9303   29.6564   47.4532 H   0  0  0  0  0  0  0  0  0  0  0  0
   62.4988   30.9228   49.2759 H   0  0  0  0  0  0  0  0  0  0  0  0
   62.7952   30.9314   47.4530 H   0  0  0  0  0  0  0  0  0  0  0  0
   61.4670   33.0030   47.5260 H   0  0  0  0  0  0  0  0  0  0  0  0
   63.6542   34.2279   48.4779 H   0  0  0  0  0  0  0  0  0  0  0  0
   64.2358   32.6018   47.9128 H   0  0  0  0  0  0  0  0  0  0  0  0
   63.2905   34.9313   46.3465 H   0  0  0  0  0  0  0  0  0  0  0  0
   64.3302   33.5484   45.8634 H   0  0  0  0  0  0  0  0  0  0  0  0
   62.5426   33.3712   45.8634 H   0  0  0  0  0  0  0  0  0  0  0  0
   61.3387   32.5491   50.1877 H   0  0  0  0  0  0  0  0  0  0  0  0
   62.3844   34.0371   49.8684 H   0  0  0  0  0  0  0  0  0  0  0  0
   59.4666   33.6652   49.6081 H   0  0  0  0  0  0  0  0  0  0  0  0
   60.4835   35.1463   49.9014 H   0  0  0  0  0  0  0  0  0  0  0  0
   60.2970   34.9650   45.2311 H   0  0  0  0  0  0  0  0  0  0  0  0
   58.9382   33.6857   43.5794 H   0  0  0  0  0  0  0  0  0  0  0  0
   56.1698   31.4148   44.5363 H   0  0  0  0  0  0  0  0  0  0  0  0
   56.9328   32.3649   43.2072 H   0  0  0  0  0  0  0  0  0  0  0  0
   58.0950   30.4720   42.6230 H   0  0  0  0  0  0  0  0  0  0  0  0
   60.3365   29.9977   44.4604 H   0  0  0  0  0  0  0  0  0  0  0  0
   61.0624   28.1545   46.0115 H   0  0  0  0  0  0  0  0  0  0  0  0
   60.1110   26.0350   47.4760 H   0  0  0  0  0  0  0  0  0  0  0  0
   57.7820   24.9362   47.8567 H   0  0  0  0  0  0  0  0  0  0  0  0
   55.9530   26.2974   46.4426 H   0  0  0  0  0  0  0  0  0  0  0  0
   56.2110   28.6056   44.7421 H   0  0  0  0  0  0  0  0  0  0  0  0
   57.1413   31.4227   46.8044 H   0  0  0  0  0  0  0  0  0  0  0  0
   58.4724   32.7246   48.4568 H   0  0  0  0  0  0  0  0  0  0  0  0
  1  2  1  0
  2  3  1  0
  3  4  1  0
  4  5  1  0
  3  6  1  0
  6  7  1  0
  7  8  1  0
  8  9  1  0
  9 10  2  0
 10 11  1  0
 11 12  2  0
 12 13  1  0
 13 14  1  0
 14 15  1  0
 15 16  2  0
 16 17  1  0
 17 18  2  0
 18 19  1  0
 19 20  1  0
 20 21  2  0
 21 22  1  0
 22 23  2  0
 12 24  1  0
 24 25  2  0
 25  9  1  0
 23 15  1  0
 22 18  1  0
  1 26  1  0
  1 27  1  0
  1 28  1  0
  2 29  1  0
  2 30  1  0
  3 31  1  0
  4 32  1  0
  4 33  1  0
  5 34  1  0
  5 35  1  0
  5 36  1  0
  6 37  1  0
  6 38  1  0
  7 39  1  0
  7 40  1  0
 10 41  1  0
 11 42  1  0
 13 43  1  0
 13 44  1  0
 14 45  1  0
 16 46  1  0
 17 47  1  0
 19 48  1  0
 20 49  1  0
 21 50  1  0
 23 51  1  0
 24 52  1  0
 25 53  1  0
M  CHG  1   3   1
M  END
>  <UniqueID>  (69) 
65

>  <SMILES>  (69) 
CC[NH+](CC)CCOc1ccc(CNc2ccc3[nH]ccc3c2)cc1

>  <Energy>  (69) 
93.68941615643949

>  <Genealogy>  (69) 
CC[NH+](CC)CCOc1ccc(CNc2ccc3[nH]ccc3c2)cc1 (protonated)
CC[NH+](CC)CCOc1ccc(CNc2ccc3[nH]ccc3c2)cc1 (3D coordinates assigned)
CC[NH+](CC)CCOc1ccc(CNc2ccc3[nH]ccc3c2)cc1 (optimized conformer: 93.68941615643949 kcal/mol)

>  <smiles>  (69) 
CCN(CC)CCOc1ccc(CNc2ccc3[nH]ccc3c2)cc1

>  <score_type>  (69) 
oracle

>  <origin>  (69) 
adg

>  <m_score__min__energy>  (69) 
-5.7800000000000002

>  <m_primary>  (69) 
energy

$$$$
69:0
     RDKit          3D

 66 69  0  0  0  0  0  0  0  0999 V2000
   61.1996   30.5929   46.8273 H   0  0  0  0  0  0  0  0  0  0  0  0
   60.5990   30.0830   47.5950 C   0  0  0  0  0  0  0  0  0  0  0  0
   60.8840   30.2930   48.8860 C   0  0  0  0  0  0  0  0  0  0  0  0
   60.2307   29.8408   49.6467 H   0  0  0  0  0  0  0  0  0  0  0  0
   62.0410   31.1080   49.3410 C   0  0  0  0  0  0  0  0  0  0  0  0
   62.1830   32.4110   48.9150 N   0  0  0  0  0  0  0  0  0  0  0  0
   61.1900   33.0100   48.0560 C   0  0  0  0  0  0  0  0  0  0  0  0
   59.8850   33.2260   48.5230 C   0  0  0  0  0  0  0  0  0  0  0  0
   59.6320   32.9922   49.5677 H   0  0  0  0  0  0  0  0  0  0  0  0
   58.9060   33.7360   47.6690 C   0  0  0  0  0  0  0  0  0  0  0  0
   57.8854   33.9030   48.0439 H   0  0  0  0  0  0  0  0  0  0  0  0
   59.2180   34.0370   46.3330 C   0  0  0  0  0  0  0  0  0  0  0  0
   58.1630   34.5910   45.4130 C   0  0  0  0  0  0  0  0  0  0  0  0
   58.6151   34.7732   44.4269 H   0  0  0  0  0  0  0  0  0  0  0  0
   57.7830   35.5207   45.8616 H   0  0  0  0  0  0  0  0  0  0  0  0
   56.9710   33.6340   45.2400 C   0  0  0  0  0  0  0  0  0  0  0  0
   56.2349   34.1114   44.5765 H   0  0  0  0  0  0  0  0  0  0  0  0
   56.5645   33.4394   46.2434 H   0  0  0  0  0  0  0  0  0  0  0  0
   57.3600   32.2670   44.6350 C   0  0  0  0  0  0  0  0  0  0  0  0
   56.4444   31.6799   44.4707 H   0  0  0  0  0  0  0  0  0  0  0  0
   58.0374   31.7672   45.3430 H   0  0  0  0  0  0  0  0  0  0  0  0
   58.0970   32.4080   43.3060 C   0  0  0  0  0  0  0  0  0  0  0  0
   59.1611   32.6116   43.4966 H   0  0  0  0  0  0  0  0  0  0  0  0
   57.9993   31.4749   42.7318 H   0  0  0  0  0  0  0  0  0  0  0  0
   57.6618   33.2392   42.7318 H   0  0  0  0  0  0  0  0  0  0  0  0
   60.5300   33.8380   45.8720 C   0  0  0  0  0  0  0  0  0  0  0  0
   60.7875   34.0854   44.8316 H   0  0  0  0  0  0  0  0  0  0  0  0
   61.5090   33.3280   46.7270 C   0  0  0  0  0  0  0  0  0  0  0  0
   62.5337   33.1750   46.3576 H   0  0  0  0  0  0  0  0  0  0  0  0
   63.2550   33.1620   49.3210 C   0  0  0  0  0  0  0  0  0  0  0  0
   63.3680   34.3620   48.9390 O   0  0  0  0  0  0  0  0  0  0  0  0
   64.2240   32.6050   50.1710 C   0  0  0  0  0  0  0  0  0  0  0  0
   65.3390   33.3420   50.6190 C   0  0  0  0  0  0  0  0  0  0  0  0
   65.4700   34.3869   50.3011 H   0  0  0  0  0  0  0  0  0  0  0  0
   66.2780   32.7480   51.4660 C   0  0  0  0  0  0  0  0  0  0  0  0
   67.1457   33.3268   51.8155 H   0  0  0  0  0  0  0  0  0  0  0  0
   66.1170   31.4200   51.8700 C   0  0  0  0  0  0  0  0  0  0  0  0
   66.8595   30.9551   52.5352 H   0  0  0  0  0  0  0  0  0  0  0  0
   65.0150   30.6810   51.4310 C   0  0  0  0  0  0  0  0  0  0  0  0
   64.8939   29.6354   51.7504 H   0  0  0  0  0  0  0  0  0  0  0  0
   64.0610   31.2690   50.5830 C   0  0  0  0  0  0  0  0  0  0  0  0
   62.9850   30.5540   50.1570 N   0  0  0  0  0  0  0  0  0  0  0  0
   62.9030   29.5510   50.4420 H   0  0  0  0  0  0  0  0  0  0  0  0
   59.5020   29.1870   47.1680 C   0  0  0  0  0  0  0  0  0  0  0  0
   58.4430   29.7060   46.4200 C   0  0  0  0  0  0  0  0  0  0  0  0
   58.4266   30.7771   46.1700 H   0  0  0  0  0  0  0  0  0  0  0  0
   57.3970   28.8730   45.9830 C   0  0  0  0  0  0  0  0  0  0  0  0
   56.3070   29.3760   45.2530 O   0  0  0  0  0  0  0  0  0  0  0  0
   56.2450   29.4410   43.8310 C   0  0  0  0  0  0  0  0  0  0  0  0
   55.5147   30.2067   43.5305 H   0  0  0  0  0  0  0  0  0  0  0  0
   57.2361   29.7032   43.4324 H   0  0  0  0  0  0  0  0  0  0  0  0
   55.9363   28.4633   43.4324 H   0  0  0  0  0  0  0  0  0  0  0  0
   57.4250   27.4990   46.2700 C   0  0  0  0  0  0  0  0  0  0  0  0
   56.3470   26.7310   45.7870 O   0  0  0  0  0  0  0  0  0  0  0  0
   56.4180   25.4150   45.2470 C   0  0  0  0  0  0  0  0  0  0  0  0
   56.4575   24.6836   46.0676 H   0  0  0  0  0  0  0  0  0  0  0  0
   55.5288   25.2241   44.6282 H   0  0  0  0  0  0  0  0  0  0  0  0
   57.3225   25.3209   44.6282 H   0  0  0  0  0  0  0  0  0  0  0  0
   58.5060   26.9570   47.0120 C   0  0  0  0  0  0  0  0  0  0  0  0
   58.5430   25.5850   47.3030 O   0  0  0  0  0  0  0  0  0  0  0  0
   57.5300   24.8670   48.0040 C   0  0  0  0  0  0  0  0  0  0  0  0
   57.6855   24.9772   49.0874 H   0  0  0  0  0  0  0  0  0  0  0  0
   56.5421   25.2677   47.7327 H   0  0  0  0  0  0  0  0  0  0  0  0
   57.5809   23.8022   47.7327 H   0  0  0  0  0  0  0  0  0  0  0  0
   59.5350   27.8130   47.4500 C   0  0  0  0  0  0  0  0  0  0  0  0
   60.3778   27.3978   48.0222 H   0  0  0  0  0  0  0  0  0  0  0  0
  1  2  1  0
  2  3  2  0
  3  4  1  0
  3  5  1  0
  5  6  1  0
  6  7  1  0
  7  8  2  0
  8  9  1  0
  8 10  1  0
 10 11  1  0
 10 12  2  0
 12 13  1  0
 13 14  1  0
 13 15  1  0
 13 16  1  0
 16 17  1  0
 16 18  1  0
 16 19  1  0
 19 20  1  0
 19 21  1  0
 19 22  1  0
 22 23  1  0
 22 24  1  0
 22 25  1  0
 12 26  1  0
 26 27  1  0
 26 28  2  0
 28 29  1  0
  6 30  1  0
 30 31  2  0
 30 32  1  0
 32 33  2  0
 33 34  1  0
 33 35  1  0
 35 36  1  0
 35 37  2  0
 37 38  1  0
 37 39  1  0
 39 40  1  0
 39 41  2  0
 41 42  1  0
 42 43  1  0
  2 44  1  0
 44 45  2  0
 45 46  1  0
 45 47  1  0
 47 48  1  0
 48 49  1  0
 49 50  1  0
 49 51  1  0
 49 52  1  0
 47 53  2  0
 53 54  1  0
 54 55  1  0
 55 56  1  0
 55 57  1  0
 55 58  1  0
 53 59  1  0
 59 60  1  0
 60 61  1  0
 61 62  1  0
 61 63  1  0
 61 64  1  0
 59 65  2  0
 65 66  1  0
 42  5  2  0
 65 44  1  0
 28  7  1  0
 41 32  1  0
M  CHG  1  42   1
M  END
>  <UniqueID>  (70) 
66

>  <SMILES>  (70) 
CCCCc1ccc(-n2c(/C=C/c3cc(OC)c(OC)c(OC)c3)[nH+]c3ccccc3c2=O)cc1

>  <Energy>  (70) 
86.12436530977809

>  <Genealogy>  (70) 
CCCCc1ccc(-n2c(C=Cc3cc(OC)c(OC)c(OC)c3)[nH+]c3ccccc3c2=O)cc1 (protonated)
CCCCc1ccc(-n2c(/C=C/c3cc(OC)c(OC)c(OC)c3)[nH+]c3ccccc3c2=O)cc1 (cis-trans isomerization)
CCCCc1ccc(-n2c(/C=C/c3cc(OC)c(OC)c(OC)c3)[nH+]c3ccccc3c2=O)cc1 (3D coordinates assigned)
CCCCc1ccc(-n2c(/C=C/c3cc(OC)c(OC)c(OC)c3)[nH+]c3ccccc3c2=O)cc1 (optimized conformer: 86.12436530977809 kcal/mol)

>  <smiles>  (70) 
CCCCc1ccc(-n2c(C=Cc3cc(OC)c(OC)c(OC)c3)nc3ccccc3c2=O)cc1

>  <score_type>  (70) 
oracle

>  <origin>  (70) 
adg

>  <m_score__min__energy>  (70) 
-7.5

>  <m_primary>  (70) 
energy

$$$$
70:0
     RDKit          3D

 34 33  0  0  0  0  0  0  0  0999 V2000
   56.6070   29.7460   42.9700 C   0  0  0  0  0  0  0  0  0  0  0  0
   57.3930   29.0130   44.3910 S   0  0  0  0  0  0  0  0  0  0  0  0
   56.4640   29.0890   45.5710 O   0  0  0  0  0  0  0  0  0  0  0  0
   57.6820   27.5700   44.0880 O   0  0  0  0  0  0  0  0  0  0  0  0
   58.9390   29.8480   44.7470 C   0  0  0  0  0  0  0  0  0  0  0  0
   60.1710   28.9690   44.4980 C   0  0  0  0  0  0  0  0  0  0  0  0
   60.4010   27.7210   45.8190 S   0  0  0  0  0  0  0  0  0  0  0  0
   59.7050   28.6860   47.2140 C   0  0  0  0  0  0  0  0  0  0  0  0
   58.5290   27.9860   47.9090 C   0  0  0  0  0  0  0  0  0  0  0  0
   57.6650   27.2790   46.9480 N   0  0  0  0  0  0  0  0  0  0  0  0
   57.7910   25.8220   47.1150 C   0  0  0  0  0  0  0  0  0  0  0  0
   57.1150   25.0500   45.9690 C   0  0  0  0  0  0  0  0  0  0  0  0
   55.6080   25.2980   45.8960 C   0  0  0  0  0  0  0  0  0  0  0  0
   55.3620   26.6760   45.9080 O   0  0  0  0  0  0  0  0  0  0  0  0
   55.8403   30.4610   43.3032 H   0  0  0  0  0  0  0  0  0  0  0  0
   57.3603   30.2716   42.3648 H   0  0  0  0  0  0  0  0  0  0  0  0
   56.1351   28.9579   42.3648 H   0  0  0  0  0  0  0  0  0  0  0  0
   59.0104   30.7397   44.1068 H   0  0  0  0  0  0  0  0  0  0  0  0
   58.9324   30.1068   45.8161 H   0  0  0  0  0  0  0  0  0  0  0  0
   60.0483   28.4497   43.5361 H   0  0  0  0  0  0  0  0  0  0  0  0
   61.0572   29.6206   44.4878 H   0  0  0  0  0  0  0  0  0  0  0  0
   60.5005   28.8514   47.9555 H   0  0  0  0  0  0  0  0  0  0  0  0
   59.3229   29.6302   46.7986 H   0  0  0  0  0  0  0  0  0  0  0  0
   58.9255   27.2587   48.6327 H   0  0  0  0  0  0  0  0  0  0  0  0
   57.9230   28.7547   48.4108 H   0  0  0  0  0  0  0  0  0  0  0  0
   56.6690   27.5540   47.1050 H   0  0  0  0  0  0  0  0  0  0  0  0
   57.9540   27.5440   45.9780 H   0  0  0  0  0  0  0  0  0  0  0  0
   58.8587   25.5584   47.1395 H   0  0  0  0  0  0  0  0  0  0  0  0
   57.2906   25.5431   48.0541 H   0  0  0  0  0  0  0  0  0  0  0  0
   57.5694   25.3639   45.0177 H   0  0  0  0  0  0  0  0  0  0  0  0
   57.2654   23.9769   46.1584 H   0  0  0  0  0  0  0  0  0  0  0  0
   55.2089   24.8621   44.9682 H   0  0  0  0  0  0  0  0  0  0  0  0
   55.1164   24.8297   46.7614 H   0  0  0  0  0  0  0  0  0  0  0  0
   55.8980   27.0580   45.1640 H   0  0  0  0  0  0  0  0  0  0  0  0
  1  2  1  0
  2  3  2  0
  2  4  2  0
  2  5  1  0
  5  6  1  0
  6  7  1  0
  7  8  1  0
  8  9  1  0
  9 10  1  0
 10 11  1  0
 11 12  1  0
 12 13  1  0
 13 14  1  0
  1 15  1  0
  1 16  1  0
  1 17  1  0
  5 18  1  0
  5 19  1  0
  6 20  1  0
  6 21  1  0
  8 22  1  0
  8 23  1  0
  9 24  1  0
  9 25  1  0
 10 26  1  0
 10 27  1  0
 11 28  1  0
 11 29  1  0
 12 30  1  0
 12 31  1  0
 13 32  1  0
 13 33  1  0
 14 34  1  0
M  CHG  1  10   1
M  END
>  <UniqueID>  (71) 
67

>  <SMILES>  (71) 
CS(=O)(=O)CCSCC[NH2+]CCCO

>  <Energy>  (71) 
12.410357230059411

>  <Genealogy>  (71) 
CS(=O)(=O)CCSCC[NH2+]CCCO (protonated)
CS(=O)(=O)CCSCC[NH2+]CCCO (3D coordinates assigned)
CS(=O)(=O)CCSCC[NH2+]CCCO (optimized conformer: 12.410357230059411 kcal/mol)

>  <smiles>  (71) 
CS(=O)(=O)CCSCCNCCCO

>  <score_type>  (71) 
oracle

>  <origin>  (71) 
adg

>  <m_score__min__energy>  (71) 
-2.77

>  <m_primary>  (71) 
energy

$$$$
71:0
     RDKit          3D

 38 40  0  0  0  0  0  0  0  0999 V2000
   57.2776   35.1927   44.1298 H   0  0  0  0  0  0  0  0  0  0  0  0
   57.8090   34.5850   44.8770 C   0  0  0  0  0  0  0  0  0  0  0  0
   59.2040   34.6070   44.9300 C   0  0  0  0  0  0  0  0  0  0  0  0
   59.7709   35.2310   44.2234 H   0  0  0  0  0  0  0  0  0  0  0  0
   59.8810   33.8370   45.8800 C   0  0  0  0  0  0  0  0  0  0  0  0
   60.9805   33.8505   45.9099 H   0  0  0  0  0  0  0  0  0  0  0  0
   59.1680   33.0450   46.7980 C   0  0  0  0  0  0  0  0  0  0  0  0
   59.9230   32.1810   47.7930 C   0  0  0  0  0  0  0  0  0  0  0  0
   59.4235   32.2649   48.7694 H   0  0  0  0  0  0  0  0  0  0  0  0
   59.8640   30.7060   47.4590 C   0  0  0  0  0  0  0  0  0  0  0  0
   60.1220   29.8540   48.3510 O   0  0  0  0  0  0  0  0  0  0  0  0
   59.6790   30.2990   46.0920 N   0  0  0  0  0  0  0  0  0  0  0  0
   58.5510   30.1060   45.4720 C   0  0  0  0  0  0  0  0  0  0  0  0
   58.3620   30.3240   44.1260 C   0  0  0  0  0  0  0  0  0  0  0  0
   59.0970   30.6550   43.3775 H   0  0  0  0  0  0  0  0  0  0  0  0
   57.0240   30.0260   43.9430 C   0  0  0  0  0  0  0  0  0  0  0  0
   56.2710   30.1130   42.6590 C   0  0  0  0  0  0  0  0  0  0  0  0
   55.1987   30.2369   42.8705 H   0  0  0  0  0  0  0  0  0  0  0  0
   56.6325   30.9754   42.0796 H   0  0  0  0  0  0  0  0  0  0  0  0
   56.4263   29.1909   42.0796 H   0  0  0  0  0  0  0  0  0  0  0  0
   56.4940   29.6820   45.0960 O   0  0  0  0  0  0  0  0  0  0  0  0
   57.3890   29.7180   46.0380 N   0  0  0  0  0  0  0  0  0  0  0  0
   57.1840   29.5160   47.0400 H   0  0  0  0  0  0  0  0  0  0  0  0
   61.3450   32.6950   47.9350 C   0  0  0  0  0  0  0  0  0  0  0  0
   62.3840   32.0840   47.2080 C   0  0  0  0  0  0  0  0  0  0  0  0
   62.1562   31.2562   46.5203 H   0  0  0  0  0  0  0  0  0  0  0  0
   63.7030   32.5220   47.3540 C   0  0  0  0  0  0  0  0  0  0  0  0
   64.5070   32.0440   46.7751 H   0  0  0  0  0  0  0  0  0  0  0  0
   64.0030   33.5650   48.2330 C   0  0  0  0  0  0  0  0  0  0  0  0
   65.0416   33.9100   48.3435 H   0  0  0  0  0  0  0  0  0  0  0  0
   62.9830   34.1700   48.9720 C   0  0  0  0  0  0  0  0  0  0  0  0
   63.2199   34.9900   49.6659 H   0  0  0  0  0  0  0  0  0  0  0  0
   61.6620   33.7350   48.8310 C   0  0  0  0  0  0  0  0  0  0  0  0
   60.8648   34.2078   49.4235 H   0  0  0  0  0  0  0  0  0  0  0  0
   57.7600   33.0200   46.7240 C   0  0  0  0  0  0  0  0  0  0  0  0
   57.1871   32.3892   47.4196 H   0  0  0  0  0  0  0  0  0  0  0  0
   57.0880   33.7920   45.7720 C   0  0  0  0  0  0  0  0  0  0  0  0
   55.9890   33.7748   45.7278 H   0  0  0  0  0  0  0  0  0  0  0  0
  1  2  1  0
  2  3  2  0
  3  4  1  0
  3  5  1  0
  5  6  1  0
  5  7  2  0
  7  8  1  0
  8  9  1  0
  8 10  1  0
 10 11  2  0
 10 12  1  0
 12 13  2  0
 13 14  1  0
 14 15  1  0
 14 16  2  0
 16 17  1  0
 17 18  1  0
 17 19  1  0
 17 20  1  0
 16 21  1  0
 21 22  1  0
 22 23  1  0
  8 24  1  0
 24 25  2  0
 25 26  1  0
 25 27  1  0
 27 28  1  0
 27 29  2  0
 29 30  1  0
 29 31  1  0
 31 32  1  0
 31 33  2  0
 33 34  1  0
  7 35  1  0
 35 36  1  0
 35 37  2  0
 37 38  1  0
 37  2  1  0
 22 13  1  0
 33 24  1  0
M  END
>  <UniqueID>  (72) 
68

>  <SMILES>  (72) 
Cc1c/c(=N/C(=O)C(c2ccccc2)c2ccccc2)[nH]o1

>  <Energy>  (72) 
77.64258430516091

>  <Genealogy>  (72) 
Cc1c/c(=N/C(=O)C(c2ccccc2)c2ccccc2)[nH]o1 (cis-trans isomerization)
Cc1c/c(=N/C(=O)C(c2ccccc2)c2ccccc2)[nH]o1 (3D coordinates assigned)
Cc1c/c(=N/C(=O)C(c2ccccc2)c2ccccc2)[nH]o1 (optimized conformer: 77.64258430516091 kcal/mol)

>  <smiles>  (72) 
Cc1cc(=NC(=O)C(c2ccccc2)c2ccccc2)[nH]o1

>  <score_type>  (72) 
oracle

>  <origin>  (72) 
adg

>  <m_score__min__energy>  (72) 
-8.1799999999999997

>  <m_primary>  (72) 
energy

$$$$
72:0
     RDKit          3D

 22 23  0  0  0  0  0  0  0  0999 V2000
   59.5190   34.9590   46.2540 C   0  0  0  0  0  0  0  0  0  0  0  0
   58.8480   34.2170   47.2310 C   0  0  0  0  0  0  0  0  0  0  0  0
   57.9070   33.2540   46.8560 C   0  0  0  0  0  0  0  0  0  0  0  0
   57.6200   33.0330   45.5030 C   0  0  0  0  0  0  0  0  0  0  0  0
   56.6820   32.0470   45.1650 O   0  0  0  0  0  0  0  0  0  0  0  0
   56.9710   30.8350   44.5200 C   0  0  0  0  0  0  0  0  0  0  0  0
   56.3280   30.4510   43.3310 C   0  0  0  0  0  0  0  0  0  0  0  0
   56.6450   29.2230   42.7450 C   0  0  0  0  0  0  0  0  0  0  0  0
   57.5560   28.4020   43.3310 N   0  0  0  0  0  0  0  0  0  0  0  0
   58.1790   28.7430   44.4910 C   0  0  0  0  0  0  0  0  0  0  0  0
   57.8910   29.9620   45.1080 C   0  0  0  0  0  0  0  0  0  0  0  0
   58.3130   33.7700   44.5230 C   0  0  0  0  0  0  0  0  0  0  0  0
   59.2540   34.7320   44.9010 C   0  0  0  0  0  0  0  0  0  0  0  0
   60.2550   35.7209   46.5504 H   0  0  0  0  0  0  0  0  0  0  0  0
   59.0610   34.3914   48.2960 H   0  0  0  0  0  0  0  0  0  0  0  0
   57.3888   32.6662   47.6280 H   0  0  0  0  0  0  0  0  0  0  0  0
   55.5816   31.1115   42.8657 H   0  0  0  0  0  0  0  0  0  0  0  0
   56.1562   28.9199   41.8073 H   0  0  0  0  0  0  0  0  0  0  0  0
   58.9107   28.0576   44.9436 H   0  0  0  0  0  0  0  0  0  0  0  0
   58.3856   30.2341   46.0521 H   0  0  0  0  0  0  0  0  0  0  0  0
   58.1131   33.5880   43.4568 H   0  0  0  0  0  0  0  0  0  0  0  0
   59.7866   35.3111   44.1323 H   0  0  0  0  0  0  0  0  0  0  0  0
  1  2  2  0
  2  3  1  0
  3  4  2  0
  4  5  1  0
  5  6  1  0
  6  7  2  0
  7  8  1  0
  8  9  2  0
  9 10  1  0
 10 11  2  0
  4 12  1  0
 12 13  2  0
 13  1  1  0
 11  6  1  0
  1 14  1  0
  2 15  1  0
  3 16  1  0
  7 17  1  0
  8 18  1  0
 10 19  1  0
 11 20  1  0
 12 21  1  0
 13 22  1  0
M  END
>  <UniqueID>  (73) 
69

>  <SMILES>  (73) 
c1ccc(Oc2ccncc2)cc1

>  <Energy>  (73) 
30.149701404982398

>  <Genealogy>  (73) 
c1ccc(Oc2ccncc2)cc1 (3D coordinates assigned)
c1ccc(Oc2ccncc2)cc1 (optimized conformer: 30.149701404982398 kcal/mol)

>  <smiles>  (73) 
c1ccc(Oc2ccncc2)cc1

>  <score_type>  (73) 
oracle

>  <origin>  (73) 
adg

>  <m_score__min__energy>  (73) 
-5.2000000000000002

>  <m_primary>  (73) 
energy

$$$$
73:0
     RDKit          3D

 34 36  0  0  0  0  0  0  0  0999 V2000
   62.0770   33.8070   50.6310 C   0  0  0  0  0  0  0  0  0  0  0  0
   61.8240   34.2990   49.3190 O   0  0  0  0  0  0  0  0  0  0  0  0
   61.0560   33.6300   48.3540 C   0  0  0  0  0  0  0  0  0  0  0  0
   61.5690   32.4600   47.7950 C   0  0  0  0  0  0  0  0  0  0  0  0
   60.8390   31.7490   46.8430 C   0  0  0  0  0  0  0  0  0  0  0  0
   59.5740   32.1960   46.4210 C   0  0  0  0  0  0  0  0  0  0  0  0
   59.0620   33.4080   46.9570 C   0  0  0  0  0  0  0  0  0  0  0  0
   59.7990   34.0970   47.9330 C   0  0  0  0  0  0  0  0  0  0  0  0
   57.7920   33.9510   46.5550 N   0  0  0  0  0  0  0  0  0  0  0  0
   57.3510   33.9870   45.1940 C   0  0  0  0  0  0  0  0  0  0  0  0
   56.2970   34.6080   44.8960 O   0  0  0  0  0  0  0  0  0  0  0  0
   58.1260   33.2890   44.1240 C   0  0  0  0  0  0  0  0  0  0  0  0
   58.1890   31.8680   44.4340 N   0  0  0  0  0  0  0  0  0  0  0  0
   58.8040   31.3500   45.4590 C   0  0  0  0  0  0  0  0  0  0  0  0
   58.7500   29.8740   45.6360 C   0  0  0  0  0  0  0  0  0  0  0  0
   58.9050   29.0100   44.5340 C   0  0  0  0  0  0  0  0  0  0  0  0
   58.8640   27.6240   44.7100 C   0  0  0  0  0  0  0  0  0  0  0  0
   58.6750   27.0830   45.9840 C   0  0  0  0  0  0  0  0  0  0  0  0
   58.6240   25.3430   46.2000 Cl  0  0  0  0  0  0  0  0  0  0  0  0
   58.5300   27.9290   47.0850 C   0  0  0  0  0  0  0  0  0  0  0  0
   58.5710   29.3170   46.9160 C   0  0  0  0  0  0  0  0  0  0  0  0
   61.7051   34.5301   51.3718 H   0  0  0  0  0  0  0  0  0  0  0  0
   61.5619   32.8447   50.7674 H   0  0  0  0  0  0  0  0  0  0  0  0
   63.1594   33.6661   50.7674 H   0  0  0  0  0  0  0  0  0  0  0  0
   62.5583   32.0946   48.1078 H   0  0  0  0  0  0  0  0  0  0  0  0
   61.2583   30.8259   46.4163 H   0  0  0  0  0  0  0  0  0  0  0  0
   59.3866   35.0161   48.3749 H   0  0  0  0  0  0  0  0  0  0  0  0
   57.2560   34.5210   47.2480 H   0  0  0  0  0  0  0  0  0  0  0  0
   57.6275   33.4330   43.1541 H   0  0  0  0  0  0  0  0  0  0  0  0
   59.1437   33.7033   44.0722 H   0  0  0  0  0  0  0  0  0  0  0  0
   59.0593   29.4289   43.5286 H   0  0  0  0  0  0  0  0  0  0  0  0
   58.9809   26.9573   43.8429 H   0  0  0  0  0  0  0  0  0  0  0  0
   58.3831   27.5029   48.0884 H   0  0  0  0  0  0  0  0  0  0  0  0
   58.4626   29.9773   47.7891 H   0  0  0  0  0  0  0  0  0  0  0  0
  1  2  1  0
  2  3  1  0
  3  4  2  0
  4  5  1  0
  5  6  2  0
  6  7  1  0
  7  8  2  0
  7  9  1  0
  9 10  1  0
 10 11  2  0
 10 12  1  0
 12 13  1  0
 13 14  2  0
 14 15  1  0
 15 16  2  0
 16 17  1  0
 17 18  2  0
 18 19  1  0
 18 20  1  0
 20 21  2  0
  8  3  1  0
 21 15  1  0
 14  6  1  0
  1 22  1  0
  1 23  1  0
  1 24  1  0
  4 25  1  0
  5 26  1  0
  8 27  1  0
  9 28  1  0
 12 29  1  0
 12 30  1  0
 16 31  1  0
 17 32  1  0
 20 33  1  0
 21 34  1  0
M  END
>  <UniqueID>  (74) 
70

>  <SMILES>  (74) 
COc1ccc2c(c1)NC(=O)CN=C2c1ccc(Cl)cc1

>  <Energy>  (74) 
48.83859407771182

>  <Genealogy>  (74) 
COc1ccc2c(c1)NC(=O)CN=C2c1ccc(Cl)cc1 (3D coordinates assigned)
COc1ccc2c(c1)NC(=O)CN=C2c1ccc(Cl)cc1 (nonaromatic ring conformer: 48.83859407771182 kcal/mol)

>  <smiles>  (74) 
COc1ccc2c(c1)NC(=O)CN=C2c1ccc(Cl)cc1

>  <score_type>  (74) 
oracle

>  <origin>  (74) 
adg

>  <m_score__min__energy>  (74) 
-5.1500000000000004

>  <m_primary>  (74) 
energy

$$$$
74:0
     RDKit          3D

 44 48  0  0  0  0  0  0  0  0999 V2000
   59.3180   35.2600   47.4530 O   0  0  0  0  0  0  0  0  0  0  0  0
   59.2860   34.0110   47.6030 C   0  0  0  0  0  0  0  0  0  0  0  0
   59.3760   33.1720   46.4440 N   0  0  0  0  0  0  0  0  0  0  0  0
   59.5680   31.7500   46.4520 C   0  0  0  0  0  0  0  0  0  0  0  0
   60.7470   31.1820   46.9790 C   0  0  0  0  0  0  0  0  0  0  0  0
   61.8110   32.0460   47.5350 C   0  0  0  0  0  0  0  0  0  0  0  0
   62.3420   33.0810   46.7480 C   0  0  0  0  0  0  0  0  0  0  0  0
   63.3540   33.9020   47.2500 C   0  0  0  0  0  0  0  0  0  0  0  0
   63.8460   33.6970   48.5410 C   0  0  0  0  0  0  0  0  0  0  0  0
   63.3220   32.6740   49.3340 C   0  0  0  0  0  0  0  0  0  0  0  0
   62.3070   31.8440   48.8400 C   0  0  0  0  0  0  0  0  0  0  0  0
   61.6450   30.6030   49.8980 Cl  0  0  0  0  0  0  0  0  0  0  0  0
   60.8910   29.8190   47.0200 N   0  0  0  0  0  0  0  0  0  0  0  0
   59.9270   28.9830   46.5350 C   0  0  0  0  0  0  0  0  0  0  0  0
   60.1100   27.3600   46.7100 S   0  0  0  0  0  0  0  0  0  0  0  0
   58.8130   29.5370   45.9720 N   0  0  0  0  0  0  0  0  0  0  0  0
   57.6910   29.0450   45.3930 C   0  0  0  0  0  0  0  0  0  0  0  0
   57.4040   27.6360   45.0850 C   0  0  0  0  0  0  0  0  0  0  0  0
   56.6350   26.8580   45.9640 C   0  0  0  0  0  0  0  0  0  0  0  0
   56.4030   25.5070   45.6870 C   0  0  0  0  0  0  0  0  0  0  0  0
   56.9510   24.9240   44.5410 C   0  0  0  0  0  0  0  0  0  0  0  0
   57.7370   25.6880   43.6740 C   0  0  0  0  0  0  0  0  0  0  0  0
   57.9720   27.0390   43.9490 C   0  0  0  0  0  0  0  0  0  0  0  0
   56.8570   30.0460   45.0370 N   0  0  0  0  0  0  0  0  0  0  0  0
   57.4380   31.1890   45.3780 N   0  0  0  0  0  0  0  0  0  0  0  0
   58.6170   30.8630   45.9420 C   0  0  0  0  0  0  0  0  0  0  0  0
   59.2140   33.4580   48.9670 C   0  0  0  0  0  0  0  0  0  0  0  0
   58.5120   32.3350   49.3700 C   0  0  0  0  0  0  0  0  0  0  0  0
   58.7560   32.2080   50.7200 C   0  0  0  0  0  0  0  0  0  0  0  0
   59.5940   33.2520   51.0570 C   0  0  0  0  0  0  0  0  0  0  0  0
   59.8500   33.9760   49.9930 O   0  0  0  0  0  0  0  0  0  0  0  0
   61.9585   33.2459   45.7303 H   0  0  0  0  0  0  0  0  0  0  0  0
   63.7642   34.7112   46.6279 H   0  0  0  0  0  0  0  0  0  0  0  0
   64.6465   34.3416   48.9332 H   0  0  0  0  0  0  0  0  0  0  0  0
   63.7082   32.5189   50.3522 H   0  0  0  0  0  0  0  0  0  0  0  0
   61.7600   29.4120   47.4370 H   0  0  0  0  0  0  0  0  0  0  0  0
   56.2137   27.3119   46.8731 H   0  0  0  0  0  0  0  0  0  0  0  0
   55.7890   24.9030   46.3713 H   0  0  0  0  0  0  0  0  0  0  0  0
   56.7634   23.8626   44.3212 H   0  0  0  0  0  0  0  0  0  0  0  0
   58.1711   25.2265   42.7748 H   0  0  0  0  0  0  0  0  0  0  0  0
   58.6033   27.6349   43.2735 H   0  0  0  0  0  0  0  0  0  0  0  0
   57.8890   31.6803   48.7429 H   0  0  0  0  0  0  0  0  0  0  0  0
   58.3627   31.4319   51.3930 H   0  0  0  0  0  0  0  0  0  0  0  0
   59.9877   33.4475   52.0654 H   0  0  0  0  0  0  0  0  0  0  0  0
  1  2  2  0
  2  3  1  0
  3  4  1  0
  4  5  1  0
  5  6  1  0
  6  7  2  0
  7  8  1  0
  8  9  2  0
  9 10  1  0
 10 11  2  0
 11 12  1  0
  5 13  2  0
 13 14  1  0
 14 15  2  0
 14 16  1  0
 16 17  1  0
 17 18  1  0
 18 19  2  0
 19 20  1  0
 20 21  2  0
 21 22  1  0
 22 23  2  0
 17 24  2  0
 24 25  1  0
 25 26  1  0
  2 27  1  0
 27 28  2  0
 28 29  1  0
 29 30  2  0
 30 31  1  0
 26  4  2  0
 31 27  1  0
 11  6  1  0
 26 16  1  0
 23 18  1  0
  7 32  1  0
  8 33  1  0
  9 34  1  0
 10 35  1  0
 13 36  1  0
 19 37  1  0
 20 38  1  0
 21 39  1  0
 22 40  1  0
 23 41  1  0
 28 42  1  0
 29 43  1  0
 30 44  1  0
M  CHG  3   3  -1  13   1  25  -1
M  END
>  <UniqueID>  (75) 
71

>  <SMILES>  (75) 
O=C([N-]c1c(-c2ccccc2Cl)[nH+]c(=S)n2c(-c3ccccc3)n[n-]c12)c1ccco1

>  <Energy>  (75) 
141.40554539846536

>  <Genealogy>  (75) 
O=C([N-]c1c(-c2ccccc2Cl)[nH+]c(=S)n2c(-c3ccccc3)n[n-]c12)c1ccco1 (protonated)
O=C([N-]c1c(-c2ccccc2Cl)[nH+]c(=S)n2c(-c3ccccc3)n[n-]c12)c1ccco1 (3D coordinates assigned)
O=C([N-]c1c(-c2ccccc2Cl)[nH+]c(=S)n2c(-c3ccccc3)n[n-]c12)c1ccco1 (optimized conformer: 141.40554539846536 kcal/mol)

>  <smiles>  (75) 
O=C(Nc1c(-c2ccccc2Cl)nc(=S)n2c(-c3ccccc3)n[nH]c12)c1ccco1

>  <score_type>  (75) 
oracle

>  <origin>  (75) 
adg

>  <m_score__min__energy>  (75) 
-9.9600000000000009

>  <m_primary>  (75) 
energy

$$$$
75:0
     RDKit          3D

 45 47  0  0  0  0  0  0  0  0999 V2000
   60.4230   26.2400   46.0880 C   0  0  0  0  0  0  0  0  0  0  0  0
   59.3160   27.0920   45.5690 C   0  0  0  0  0  0  0  0  0  0  0  0
   59.1450   28.4420   45.8080 C   0  0  0  0  0  0  0  0  0  0  0  0
   57.9980   28.7550   45.1010 C   0  0  0  0  0  0  0  0  0  0  0  0
   57.3650   30.0810   44.9830 C   0  0  0  0  0  0  0  0  0  0  0  0
   56.2230   30.1620   44.4580 O   0  0  0  0  0  0  0  0  0  0  0  0
   58.0260   31.2790   45.4420 N   0  0  0  0  0  0  0  0  0  0  0  0
   57.6770   32.5740   44.8350 C   0  0  0  0  0  0  0  0  0  0  0  0
   58.8410   33.5840   44.8760 C   0  0  0  0  0  0  0  0  0  0  0  0
   58.9000   34.4130   46.1770 C   0  0  0  0  0  0  0  0  0  0  0  0
   59.1800   33.6030   47.3770 N   0  0  0  0  0  0  0  0  0  0  0  0
   60.0790   34.1390   48.3570 C   0  0  0  0  0  0  0  0  0  0  0  0
   59.6320   34.8870   49.2670 O   0  0  0  0  0  0  0  0  0  0  0  0
   61.4820   33.8380   48.3050 N   0  0  0  0  0  0  0  0  0  0  0  0
   62.4080   34.1920   49.3650 C   0  0  0  0  0  0  0  0  0  0  0  0
   63.7660   33.6850   48.9020 C   0  0  0  0  0  0  0  0  0  0  0  0
   63.6360   33.4740   47.3940 C   0  0  0  0  0  0  0  0  0  0  0  0
   62.1460   33.3050   47.1270 C   0  0  0  0  0  0  0  0  0  0  0  0
   58.4970   32.3290   47.6570 C   0  0  0  0  0  0  0  0  0  0  0  0
   58.8790   31.2410   46.6400 C   0  0  0  0  0  0  0  0  0  0  0  0
   57.5540   27.6460   44.4810 N   0  0  0  0  0  0  0  0  0  0  0  0
   58.3580   26.6680   44.7780 O   0  0  0  0  0  0  0  0  0  0  0  0
   60.4091   26.2507   47.1879 H   0  0  0  0  0  0  0  0  0  0  0  0
   60.2907   25.2085   45.7296 H   0  0  0  0  0  0  0  0  0  0  0  0
   61.3863   26.6320   45.7296 H   0  0  0  0  0  0  0  0  0  0  0  0
   59.7725   29.1099   46.4165 H   0  0  0  0  0  0  0  0  0  0  0  0
   57.3941   32.4057   43.7854 H   0  0  0  0  0  0  0  0  0  0  0  0
   56.8468   33.0005   45.4171 H   0  0  0  0  0  0  0  0  0  0  0  0
   59.7855   33.0292   44.7750 H   0  0  0  0  0  0  0  0  0  0  0  0
   58.6795   34.2932   44.0508 H   0  0  0  0  0  0  0  0  0  0  0  0
   59.6933   35.1680   46.0734 H   0  0  0  0  0  0  0  0  0  0  0  0
   57.9081   34.8675   46.3170 H   0  0  0  0  0  0  0  0  0  0  0  0
   62.4322   35.2826   49.5064 H   0  0  0  0  0  0  0  0  0  0  0  0
   62.1139   33.7512   50.3289 H   0  0  0  0  0  0  0  0  0  0  0  0
   64.5474   34.4281   49.1194 H   0  0  0  0  0  0  0  0  0  0  0  0
   64.0508   32.7567   49.4189 H   0  0  0  0  0  0  0  0  0  0  0  0
   64.0264   34.3466   46.8498 H   0  0  0  0  0  0  0  0  0  0  0  0
   64.2103   32.5988   47.0561 H   0  0  0  0  0  0  0  0  0  0  0  0
   61.8492   33.8678   46.2297 H   0  0  0  0  0  0  0  0  0  0  0  0
   61.8786   32.2534   46.9463 H   0  0  0  0  0  0  0  0  0  0  0  0
   58.7773   31.9886   48.6648 H   0  0  0  0  0  0  0  0  0  0  0  0
   57.4127   32.4992   47.5847 H   0  0  0  0  0  0  0  0  0  0  0  0
   59.9252   31.3919   46.3354 H   0  0  0  0  0  0  0  0  0  0  0  0
   58.7410   30.2624   47.1231 H   0  0  0  0  0  0  0  0  0  0  0  0
   56.7120   27.5610   43.8670 H   0  0  0  0  0  0  0  0  0  0  0  0
  1  2  1  0
  2  3  2  0
  3  4  1  0
  4  5  1  0
  5  6  2  0
  5  7  1  0
  7  8  1  0
  8  9  1  0
  9 10  1  0
 10 11  1  0
 11 12  1  0
 12 13  2  0
 12 14  1  0
 14 15  1  0
 15 16  1  0
 16 17  1  0
 17 18  1  0
 11 19  1  0
 19 20  1  0
  4 21  2  0
 21 22  1  0
 22  2  1  0
 20  7  1  0
 18 14  1  0
  1 23  1  0
  1 24  1  0
  1 25  1  0
  3 26  1  0
  8 27  1  0
  8 28  1  0
  9 29  1  0
  9 30  1  0
 10 31  1  0
 10 32  1  0
 15 33  1  0
 15 34  1  0
 16 35  1  0
 16 36  1  0
 17 37  1  0
 17 38  1  0
 18 39  1  0
 18 40  1  0
 19 41  1  0
 19 42  1  0
 20 43  1  0
 20 44  1  0
 21 45  1  0
M  CHG  1  21   1
M  END
>  <UniqueID>  (76) 
72

>  <SMILES>  (76) 
Cc1cc(C(=O)N2CCCN(C(=O)N3CCCC3)CC2)[nH+]o1

>  <Energy>  (76) 
85.65629813491364

>  <Genealogy>  (76) 
Cc1cc(C(=O)N2CCCN(C(=O)N3CCCC3)CC2)[nH+]o1 (protonated)
Cc1cc(C(=O)N2CCCN(C(=O)N3CCCC3)CC2)[nH+]o1 (3D coordinates assigned)
Cc1cc(C(=O)N2CCCN(C(=O)N3CCCC3)CC2)[nH+]o1 (nonaromatic ring conformer: 85.65629813491364 kcal/mol)

>  <smiles>  (76) 
Cc1cc(C(=O)N2CCCN(C(=O)N3CCCC3)CC2)no1

>  <score_type>  (76) 
oracle

>  <origin>  (76) 
adg

>  <m_score__min__energy>  (76) 
-4.5

>  <m_primary>  (76) 
energy

$$$$
76:0
     RDKit          3D

 47 49  0  0  0  0  0  0  0  0999 V2000
   56.4090   26.8990   44.5400 H   0  0  0  0  0  0  0  0  0  0  0  0
   57.2370   26.4980   44.9640 O   0  0  0  0  0  0  0  0  0  0  0  0
   58.1000   27.2660   45.7420 C   0  0  0  0  0  0  0  0  0  0  0  0
   58.9260   28.2330   45.1530 C   0  0  0  0  0  0  0  0  0  0  0  0
   58.8959   28.3905   44.0647 H   0  0  0  0  0  0  0  0  0  0  0  0
   59.7880   28.9980   45.9440 C   0  0  0  0  0  0  0  0  0  0  0  0
   60.4320   29.7572   45.4762 H   0  0  0  0  0  0  0  0  0  0  0  0
   59.8350   28.8010   47.3340 C   0  0  0  0  0  0  0  0  0  0  0  0
   60.7710   29.6080   48.1950 C   0  0  0  0  0  0  0  0  0  0  0  0
   61.8089   29.3999   47.8958 H   0  0  0  0  0  0  0  0  0  0  0  0
   60.6179   29.3284   49.2478 H   0  0  0  0  0  0  0  0  0  0  0  0
   60.4990   31.0530   48.0380 N   0  0  0  0  0  0  0  0  0  0  0  0
   59.3190   31.4830   48.8340 C   0  0  0  0  0  0  0  0  0  0  0  0
   58.4823   30.8081   48.6006 H   0  0  0  0  0  0  0  0  0  0  0  0
   59.6218   31.4418   49.8907 H   0  0  0  0  0  0  0  0  0  0  0  0
   58.8620   32.9260   48.5650 C   0  0  0  0  0  0  0  0  0  0  0  0
   57.7660   32.9502   48.4749 H   0  0  0  0  0  0  0  0  0  0  0  0
   59.1820   33.5676   49.3992 H   0  0  0  0  0  0  0  0  0  0  0  0
   59.4630   33.4190   47.3200 N   0  0  0  0  0  0  0  0  0  0  0  0
   58.8040   33.1580   46.0640 C   0  0  0  0  0  0  0  0  0  0  0  0
   57.7710   32.2730   46.0150 N   0  0  0  0  0  0  0  0  0  0  0  0
   57.1050   32.0110   44.8570 C   0  0  0  0  0  0  0  0  0  0  0  0
   56.1140   31.1680   44.8140 N   0  0  0  0  0  0  0  0  0  0  0  0
   56.0570   29.8630   44.2080 C   0  0  0  0  0  0  0  0  0  0  0  0
   55.5680   28.9150   44.8770 O   0  0  0  0  0  0  0  0  0  0  0  0
   56.5440   29.5790   42.8180 C   0  0  0  0  0  0  0  0  0  0  0  0
   57.4932   29.0254   42.8680 H   0  0  0  0  0  0  0  0  0  0  0  0
   55.7955   28.9758   42.2833 H   0  0  0  0  0  0  0  0  0  0  0  0
   56.7004   30.5275   42.2833 H   0  0  0  0  0  0  0  0  0  0  0  0
   57.4730   32.6530   43.7180 N   0  0  0  0  0  0  0  0  0  0  0  0
   58.4900   33.5530   43.7140 C   0  0  0  0  0  0  0  0  0  0  0  0
   58.7704   34.0623   42.7802 H   0  0  0  0  0  0  0  0  0  0  0  0
   59.1780   33.8310   44.8930 C   0  0  0  0  0  0  0  0  0  0  0  0
   59.9982   34.5639   44.9046 H   0  0  0  0  0  0  0  0  0  0  0  0
   60.7940   34.0450   47.3620 C   0  0  0  0  0  0  0  0  0  0  0  0
   60.8801   34.7572   46.5281 H   0  0  0  0  0  0  0  0  0  0  0  0
   60.9029   34.5577   48.3291 H   0  0  0  0  0  0  0  0  0  0  0  0
   61.9140   33.0000   47.2430 C   0  0  0  0  0  0  0  0  0  0  0  0
   61.9100   32.5923   46.2214 H   0  0  0  0  0  0  0  0  0  0  0  0
   62.8663   33.5004   47.4727 H   0  0  0  0  0  0  0  0  0  0  0  0
   61.7400   31.8390   48.2400 C   0  0  0  0  0  0  0  0  0  0  0  0
   62.5999   31.1611   48.1354 H   0  0  0  0  0  0  0  0  0  0  0  0
   61.6740   32.2869   49.2425 H   0  0  0  0  0  0  0  0  0  0  0  0
   59.0060   27.8310   47.9200 C   0  0  0  0  0  0  0  0  0  0  0  0
   59.0352   27.6703   49.0078 H   0  0  0  0  0  0  0  0  0  0  0  0
   58.1430   27.0680   47.1260 C   0  0  0  0  0  0  0  0  0  0  0  0
   57.4962   26.3099   47.5917 H   0  0  0  0  0  0  0  0  0  0  0  0
  1  2  1  0
  2  3  1  0
  3  4  2  0
  4  5  1  0
  4  6  1  0
  6  7  1  0
  6  8  2  0
  8  9  1  0
  9 10  1  0
  9 11  1  0
  9 12  1  0
 12 13  1  0
 13 14  1  0
 13 15  1  0
 13 16  1  0
 16 17  1  0
 16 18  1  0
 16 19  1  0
 19 20  1  0
 20 21  2  0
 21 22  1  0
 22 23  2  0
 23 24  1  0
 24 25  2  0
 24 26  1  0
 26 27  1  0
 26 28  1  0
 26 29  1  0
 22 30  1  0
 30 31  1  0
 31 32  1  0
 31 33  2  0
 33 34  1  0
 19 35  1  0
 35 36  1  0
 35 37  1  0
 35 38  1  0
 38 39  1  0
 38 40  1  0
 38 41  1  0
 41 42  1  0
 41 43  1  0
  8 44  1  0
 44 45  1  0
 44 46  2  0
 46 47  1  0
 46  3  1  0
 41 12  1  0
 33 20  1  0
M  CHG  1  30  -1
M  END
>  <UniqueID>  (77) 
73

>  <SMILES>  (77) 
CC(=O)/N=c1\nc(N2CCCN(Cc3ccc(O)cc3)CC2)cc[n-]1

>  <Energy>  (77) 
62.65366346736791

>  <Genealogy>  (77) 
CC(=O)N=c1nc(N2CCCN(Cc3ccc(O)cc3)CC2)cc[n-]1 (protonated)
CC(=O)/N=c1\nc(N2CCCN(Cc3ccc(O)cc3)CC2)cc[n-]1 (cis-trans isomerization)
CC(=O)/N=c1\nc(N2CCCN(Cc3ccc(O)cc3)CC2)cc[n-]1 (3D coordinates assigned)
CC(=O)/N=c1\nc(N2CCCN(Cc3ccc(O)cc3)CC2)cc[n-]1 (nonaromatic ring conformer: 62.65366346736791 kcal/mol)

>  <smiles>  (77) 
CC(=O)N=c1nc(N2CCCN(Cc3ccc(O)cc3)CC2)cc[nH]1

>  <score_type>  (77) 
oracle

>  <origin>  (77) 
adg

>  <m_score__min__energy>  (77) 
-7.4699999999999998

>  <m_primary>  (77) 
energy

$$$$
77:0
     RDKit          3D

 59 63  0  0  0  0  0  0  0  0999 V2000
   63.7800   33.9420   50.7940 C   0  0  0  0  0  0  0  0  0  0  0  0
   63.3010   33.6140   49.4030 C   0  0  0  0  0  0  0  0  0  0  0  0
   64.2530   33.4220   48.3870 C   0  0  0  0  0  0  0  0  0  0  0  0
   63.8520   33.1190   47.0870 C   0  0  0  0  0  0  0  0  0  0  0  0
   62.4990   32.9930   46.7830 C   0  0  0  0  0  0  0  0  0  0  0  0
   61.5300   33.1860   47.7750 C   0  0  0  0  0  0  0  0  0  0  0  0
   60.1490   32.9980   47.4320 N   0  0  0  0  0  0  0  0  0  0  0  0
   59.4390   31.8240   47.9570 C   0  0  0  0  0  0  0  0  0  0  0  0
   58.1560   31.5440   47.1650 C   0  0  0  0  0  0  0  0  0  0  0  0
   58.3840   31.7400   45.7230 N   0  0  0  0  0  0  0  0  0  0  0  0
   57.7980   30.8470   44.7570 C   0  0  0  0  0  0  0  0  0  0  0  0
   57.3310   31.3070   43.6810 O   0  0  0  0  0  0  0  0  0  0  0  0
   57.7110   29.3940   45.0000 C   0  0  0  0  0  0  0  0  0  0  0  0
   56.5170   28.7210   45.2600 C   0  0  0  0  0  0  0  0  0  0  0  0
   56.8840   27.4040   45.4410 C   0  0  0  0  0  0  0  0  0  0  0  0
   56.1470   26.2620   45.7260 C   0  0  0  0  0  0  0  0  0  0  0  0
   54.8960   26.3400   45.8750 O   0  0  0  0  0  0  0  0  0  0  0  0
   56.8160   25.0590   45.8390 N   0  0  0  0  0  0  0  0  0  0  0  0
   56.1240   23.9100   46.1220 C   0  0  0  0  0  0  0  0  0  0  0  0
   56.7850   22.6890   46.2430 C   0  0  0  0  0  0  0  0  0  0  0  0
   58.1640   22.6300   46.0780 C   0  0  0  0  0  0  0  0  0  0  0  0
   58.8870   23.7920   45.7860 C   0  0  0  0  0  0  0  0  0  0  0  0
   60.3810   23.7270   45.6130 C   0  0  0  0  0  0  0  0  0  0  0  0
   58.1960   25.0140   45.6660 C   0  0  0  0  0  0  0  0  0  0  0  0
   58.8950   26.1550   45.3800 N   0  0  0  0  0  0  0  0  0  0  0  0
   58.2290   27.3270   45.2780 C   0  0  0  0  0  0  0  0  0  0  0  0
   58.7620   28.5290   45.0010 N   0  0  0  0  0  0  0  0  0  0  0  0
   60.1580   28.7770   44.6440 C   0  0  0  0  0  0  0  0  0  0  0  0
   59.0480   32.9630   45.2420 C   0  0  0  0  0  0  0  0  0  0  0  0
   59.5320   33.8380   46.4030 C   0  0  0  0  0  0  0  0  0  0  0  0
   61.9190   33.5290   49.0920 C   0  0  0  0  0  0  0  0  0  0  0  0
   60.8730   33.7580   50.1600 C   0  0  0  0  0  0  0  0  0  0  0  0
   63.1068   33.4810   51.5318 H   0  0  0  0  0  0  0  0  0  0  0  0
   64.7988   33.5511   50.9327 H   0  0  0  0  0  0  0  0  0  0  0  0
   63.7839   35.0332   50.9327 H   0  0  0  0  0  0  0  0  0  0  0  0
   65.3243   33.5117   48.6199 H   0  0  0  0  0  0  0  0  0  0  0  0
   64.6065   32.9790   46.2989 H   0  0  0  0  0  0  0  0  0  0  0  0
   62.1898   32.7405   45.7580 H   0  0  0  0  0  0  0  0  0  0  0  0
   60.0995   30.9469   47.8897 H   0  0  0  0  0  0  0  0  0  0  0  0
   59.1627   32.0261   49.0024 H   0  0  0  0  0  0  0  0  0  0  0  0
   57.8404   30.5054   47.3433 H   0  0  0  0  0  0  0  0  0  0  0  0
   57.3738   32.2418   47.4985 H   0  0  0  0  0  0  0  0  0  0  0  0
   55.5043   29.1475   45.3098 H   0  0  0  0  0  0  0  0  0  0  0  0
   55.0329   23.9522   46.2553 H   0  0  0  0  0  0  0  0  0  0  0  0
   56.2170   21.7744   46.4685 H   0  0  0  0  0  0  0  0  0  0  0  0
   58.6880   21.6679   46.1772 H   0  0  0  0  0  0  0  0  0  0  0  0
   60.8640   23.7060   46.6011 H   0  0  0  0  0  0  0  0  0  0  0  0
   60.6463   22.8165   45.0558 H   0  0  0  0  0  0  0  0  0  0  0  0
   60.7244   24.6111   45.0558 H   0  0  0  0  0  0  0  0  0  0  0  0
   60.7574   28.8835   45.5602 H   0  0  0  0  0  0  0  0  0  0  0  0
   60.5405   27.9327   44.0516 H   0  0  0  0  0  0  0  0  0  0  0  0
   60.2263   29.7013   44.0516 H   0  0  0  0  0  0  0  0  0  0  0  0
   59.9129   32.6798   44.6242 H   0  0  0  0  0  0  0  0  0  0  0  0
   58.3186   33.5421   44.6566 H   0  0  0  0  0  0  0  0  0  0  0  0
   60.2714   34.5625   46.0310 H   0  0  0  0  0  0  0  0  0  0  0  0
   58.6747   34.3738   46.8367 H   0  0  0  0  0  0  0  0  0  0  0  0
   61.3348   33.6569   51.1532 H   0  0  0  0  0  0  0  0  0  0  0  0
   60.4538   34.7692   50.0518 H   0  0  0  0  0  0  0  0  0  0  0  0
   60.0696   33.0145   50.0518 H   0  0  0  0  0  0  0  0  0  0  0  0
  1  2  1  0
  2  3  2  0
  3  4  1  0
  4  5  2  0
  5  6  1  0
  6  7  1  0
  7  8  1  0
  8  9  1  0
  9 10  1  0
 10 11  1  0
 11 12  2  0
 11 13  1  0
 13 14  2  0
 14 15  1  0
 15 16  1  0
 16 17  2  0
 16 18  1  0
 18 19  1  0
 19 20  2  0
 20 21  1  0
 21 22  2  0
 22 23  1  0
 22 24  1  0
 24 25  2  0
 25 26  1  0
 26 27  1  0
 27 28  1  0
 10 29  1  0
 29 30  1  0
  6 31  2  0
 31 32  1  0
 31  2  1  0
 30  7  1  0
 27 13  1  0
 26 15  2  0
 24 18  1  0
  1 33  1  0
  1 34  1  0
  1 35  1  0
  3 36  1  0
  4 37  1  0
  5 38  1  0
  8 39  1  0
  8 40  1  0
  9 41  1  0
  9 42  1  0
 14 43  1  0
 19 44  1  0
 20 45  1  0
 21 46  1  0
 23 47  1  0
 23 48  1  0
 23 49  1  0
 28 50  1  0
 28 51  1  0
 28 52  1  0
 29 53  1  0
 29 54  1  0
 30 55  1  0
 30 56  1  0
 32 57  1  0
 32 58  1  0
 32 59  1  0
M  END
>  <UniqueID>  (78) 
74

>  <SMILES>  (78) 
Cc1cccc(N2CCN(C(=O)c3cc4c(=O)n5cccc(C)c5nc4n3C)CC2)c1C

>  <Energy>  (78) 
117.18161399794839

>  <Genealogy>  (78) 
Cc1cccc(N2CCN(C(=O)c3cc4c(=O)n5cccc(C)c5nc4n3C)CC2)c1C (3D coordinates assigned)
Cc1cccc(N2CCN(C(=O)c3cc4c(=O)n5cccc(C)c5nc4n3C)CC2)c1C (nonaromatic ring conformer: 117.18161399794839 kcal/mol)

>  <smiles>  (78) 
Cc1cccc(N2CCN(C(=O)c3cc4c(=O)n5cccc(C)c5nc4n3C)CC2)c1C

>  <score_type>  (78) 
oracle

>  <origin>  (78) 
adg

>  <m_score__min__energy>  (78) 
-8.4499999999999993

>  <m_primary>  (78) 
energy

$$$$
78:0
     RDKit          3D

 31 33  0  0  0  0  0  0  0  0999 V2000
   56.2890   29.7290   42.6220 C   0  0  0  0  0  0  0  0  0  0  0  0
   57.1680   30.6000   43.3920 N   0  0  0  0  0  0  0  0  0  0  0  0
   57.7040   31.8470   42.9480 C   0  0  0  0  0  0  0  0  0  0  0  0
   57.7610   32.2060   41.7420 O   0  0  0  0  0  0  0  0  0  0  0  0
   58.1370   32.6450   44.0910 C   0  0  0  0  0  0  0  0  0  0  0  0
   58.7230   33.9050   44.1520 C   0  0  0  0  0  0  0  0  0  0  0  0
   59.0190   34.4370   45.4180 C   0  0  0  0  0  0  0  0  0  0  0  0
   58.7150   33.7130   46.6030 C   0  0  0  0  0  0  0  0  0  0  0  0
   59.0000   34.2410   47.9100 N   0  0  0  0  0  0  0  0  0  0  0  0
   59.9600   33.4210   49.1000 S   0  0  0  0  0  0  0  0  0  0  0  0
   59.3730   32.0620   49.3620 O   0  0  0  0  0  0  0  0  0  0  0  0
   59.9540   34.2130   50.3770 O   0  0  0  0  0  0  0  0  0  0  0  0
   61.6130   33.2710   48.5350 C   0  0  0  0  0  0  0  0  0  0  0  0
   62.7120   32.9680   49.3240 C   0  0  0  0  0  0  0  0  0  0  0  0
   63.9090   32.9360   48.5990 C   0  0  0  0  0  0  0  0  0  0  0  0
   63.7510   33.2140   47.2470 C   0  0  0  0  0  0  0  0  0  0  0  0
   62.1190   33.5010   46.9500 S   0  0  0  0  0  0  0  0  0  0  0  0
   58.1210   32.4360   46.4990 C   0  0  0  0  0  0  0  0  0  0  0  0
   57.8450   31.9300   45.2300 C   0  0  0  0  0  0  0  0  0  0  0  0
   57.2260   30.6760   44.8190 C   0  0  0  0  0  0  0  0  0  0  0  0
   56.7750   29.7920   45.5940 O   0  0  0  0  0  0  0  0  0  0  0  0
   55.6787   29.1242   43.3088 H   0  0  0  0  0  0  0  0  0  0  0  0
   55.6303   30.3407   41.9880 H   0  0  0  0  0  0  0  0  0  0  0  0
   56.8946   29.0647   41.9880 H   0  0  0  0  0  0  0  0  0  0  0  0
   58.9483   34.4689   43.2348 H   0  0  0  0  0  0  0  0  0  0  0  0
   59.4924   35.4271   45.4934 H   0  0  0  0  0  0  0  0  0  0  0  0
   58.6820   35.2080   48.1460 H   0  0  0  0  0  0  0  0  0  0  0  0
   62.6499   32.7734   50.4049 H   0  0  0  0  0  0  0  0  0  0  0  0
   64.8837   32.7117   49.0570 H   0  0  0  0  0  0  0  0  0  0  0  0
   64.5558   33.2419   46.4977 H   0  0  0  0  0  0  0  0  0  0  0  0
   57.8812   31.8530   47.4005 H   0  0  0  0  0  0  0  0  0  0  0  0
  1  2  1  0
  2  3  1  0
  3  4  2  0
  3  5  1  0
  5  6  2  0
  6  7  1  0
  7  8  2  0
  8  9  1  0
  9 10  1  0
 10 11  2  0
 10 12  2  0
 10 13  1  0
 13 14  2  0
 14 15  1  0
 15 16  2  0
 16 17  1  0
  8 18  1  0
 18 19  2  0
 19 20  1  0
 20 21  2  0
 20  2  1  0
 19  5  1  0
 17 13  1  0
  1 22  1  0
  1 23  1  0
  1 24  1  0
  6 25  1  0
  7 26  1  0
  9 27  1  0
 14 28  1  0
 15 29  1  0
 16 30  1  0
 18 31  1  0
M  END
>  <UniqueID>  (79) 
75

>  <SMILES>  (79) 
CN1C(=O)c2ccc(NS(=O)(=O)c3cccs3)cc2C1=O

>  <Energy>  (79) 
92.89229040594358

>  <Genealogy>  (79) 
CN1C(=O)c2ccc(NS(=O)(=O)c3cccs3)cc2C1=O (3D coordinates assigned)
CN1C(=O)c2ccc(NS(=O)(=O)c3cccs3)cc2C1=O (nonaromatic ring conformer: 92.89229040594358 kcal/mol)

>  <smiles>  (79) 
CN1C(=O)c2ccc(NS(=O)(=O)c3cccs3)cc2C1=O

>  <score_type>  (79) 
oracle

>  <origin>  (79) 
adg

>  <m_score__min__energy>  (79) 
-8.1099999999999994

>  <m_primary>  (79) 
energy

$$$$
79:0
     RDKit          3D

 38 41  0  0  0  0  0  0  0  0999 V2000
   61.7560   34.2510   45.8600 H   0  0  0  0  0  0  0  0  0  0  0  0
   60.2710   34.7450   47.3290 N   0  0  0  0  0  0  0  0  0  0  0  0
   62.9640   33.6330   47.3850 C   0  0  0  0  0  0  0  0  0  0  0  0
   62.1780   33.9650   48.4620 C   0  0  0  0  0  0  0  0  0  0  0  0
   62.6770   33.8450   46.1410 N   0  0  0  0  0  0  0  0  0  0  0  0
   60.8970   34.5950   48.4250 N   0  0  0  0  0  0  0  0  0  0  0  0
   59.4490   33.7110   46.7740 C   0  0  0  0  0  0  0  0  0  0  0  0
   58.9660   32.6400   47.5680 C   0  0  0  0  0  0  0  0  0  0  0  0
   59.2226   32.5922   48.6366 H   0  0  0  0  0  0  0  0  0  0  0  0
   58.1610   31.6390   46.9970 C   0  0  0  0  0  0  0  0  0  0  0  0
   57.7805   30.8052   47.6052 H   0  0  0  0  0  0  0  0  0  0  0  0
   57.8580   31.7310   45.6410 C   0  0  0  0  0  0  0  0  0  0  0  0
   58.3180   32.7580   44.8690 C   0  0  0  0  0  0  0  0  0  0  0  0
   59.1190   33.7660   45.4070 C   0  0  0  0  0  0  0  0  0  0  0  0
   59.4856   34.5880   44.7746 H   0  0  0  0  0  0  0  0  0  0  0  0
   57.8390   32.5950   43.4730 C   0  0  0  0  0  0  0  0  0  0  0  0
   57.2128   33.4458   43.1663 H   0  0  0  0  0  0  0  0  0  0  0  0
   58.6525   32.5531   42.7337 H   0  0  0  0  0  0  0  0  0  0  0  0
   57.0090   31.2890   43.5500 C   0  0  0  0  0  0  0  0  0  0  0  0
   55.9626   31.4837   43.2723 H   0  0  0  0  0  0  0  0  0  0  0  0
   57.3922   30.5253   42.8573 H   0  0  0  0  0  0  0  0  0  0  0  0
   57.0900   30.8540   44.9070 O   0  0  0  0  0  0  0  0  0  0  0  0
   62.8910   33.5560   49.5740 C   0  0  0  0  0  0  0  0  0  0  0  0
   62.5719   33.6617   50.6214 H   0  0  0  0  0  0  0  0  0  0  0  0
   64.0520   33.0020   49.1470 N   0  0  0  0  0  0  0  0  0  0  0  0
   65.0880   32.4450   49.9800 C   0  0  0  0  0  0  0  0  0  0  0  0
   66.3470   33.0690   50.0720 C   0  0  0  0  0  0  0  0  0  0  0  0
   66.5435   33.9896   49.5029 H   0  0  0  0  0  0  0  0  0  0  0  0
   67.3490   32.5260   50.8820 C   0  0  0  0  0  0  0  0  0  0  0  0
   68.3297   33.0198   50.9475 H   0  0  0  0  0  0  0  0  0  0  0  0
   67.1070   31.3580   51.6080 C   0  0  0  0  0  0  0  0  0  0  0  0
   67.8972   30.9321   52.2438 H   0  0  0  0  0  0  0  0  0  0  0  0
   65.8610   30.7300   51.5270 C   0  0  0  0  0  0  0  0  0  0  0  0
   65.6702   29.8112   52.1009 H   0  0  0  0  0  0  0  0  0  0  0  0
   64.8570   31.2690   50.7170 C   0  0  0  0  0  0  0  0  0  0  0  0
   63.8788   30.7697   50.6554 H   0  0  0  0  0  0  0  0  0  0  0  0
   64.0950   33.0480   47.8190 N   0  0  0  0  0  0  0  0  0  0  0  0
   64.8850   32.7150   47.2230 H   0  0  0  0  0  0  0  0  0  0  0  0
  1  2  1  0
  2  3  2  0
  3  4  1  0
  4  5  1  0
  5  6  2  0
  6  7  1  0
  7  8  2  0
  8  9  1  0
  8 10  1  0
 10 11  1  0
 10 12  2  0
 12 13  1  0
 13 14  2  0
 14 15  1  0
 13 16  1  0
 16 17  1  0
 16 18  1  0
 16 19  1  0
 19 20  1  0
 19 21  1  0
 19 22  1  0
  4 23  2  0
 23 24  1  0
 23 25  1  0
 25 26  1  0
 26 27  2  0
 27 28  1  0
 27 29  1  0
 29 30  1  0
 29 31  2  0
 31 32  1  0
 31 33  1  0
 33 34  1  0
 33 35  2  0
 35 36  1  0
 25 37  1  0
 37 38  1  0
 37  3  1  0
 14  7  1  0
 35 26  1  0
 22 12  1  0
M  END
>  <UniqueID>  (80) 
76

>  <SMILES>  (80) 
[H]/N=c1\[nH]n(-c2ccccc2)cc1/N=N/c1ccc2c(c1)CCO2

>  <Energy>  (80) 
94.38066996939752

>  <Genealogy>  (80) 
[H]/N=c1\[nH]n(-c2ccccc2)cc1/N=N/c1ccc2c(c1)CCO2 (cis-trans isomerization)
[H]/N=c1\[nH]n(-c2ccccc2)cc1/N=N/c1ccc2c(c1)CCO2 (3D coordinates assigned)
[H]/N=c1\[nH]n(-c2ccccc2)cc1/N=N/c1ccc2c(c1)CCO2 (nonaromatic ring conformer: 94.38066996939752 kcal/mol)

>  <smiles>  (80) 
N=c1[nH]n(-c2ccccc2)cc1N=Nc1ccc2c(c1)CCO2

>  <score_type>  (80) 
oracle

>  <origin>  (80) 
adg

>  <m_score__min__energy>  (80) 
-8.0199999999999996

>  <m_primary>  (80) 
energy

$$$$
80:0
     RDKit          3D

 33 34  0  0  0  0  0  0  0  0999 V2000
   59.3294   33.8587   43.4882 H   0  0  0  0  0  0  0  0  0  0  0  0
   58.3700   33.3990   43.7680 C   0  0  0  0  0  0  0  0  0  0  0  0
   57.4010   34.1580   45.0780 S   0  0  0  0  0  0  0  0  0  0  0  0
   58.5720   33.6760   46.3470 C   0  0  0  0  0  0  0  0  0  0  0  0
   58.1220   33.0650   47.5220 C   0  0  0  0  0  0  0  0  0  0  0  0
   57.0481   32.8730   47.6626 H   0  0  0  0  0  0  0  0  0  0  0  0
   59.0340   32.6960   48.5220 C   0  0  0  0  0  0  0  0  0  0  0  0
   58.5540   32.0080   49.7650 C   0  0  0  0  0  0  0  0  0  0  0  0
   58.9285   32.5448   50.6491 H   0  0  0  0  0  0  0  0  0  0  0  0
   57.4541   32.0012   49.7788 H   0  0  0  0  0  0  0  0  0  0  0  0
   58.9273   30.9734   49.7788 H   0  0  0  0  0  0  0  0  0  0  0  0
   60.4070   32.9160   48.3210 C   0  0  0  0  0  0  0  0  0  0  0  0
   61.1280   32.6144   49.0951 H   0  0  0  0  0  0  0  0  0  0  0  0
   60.8640   33.5180   47.1390 C   0  0  0  0  0  0  0  0  0  0  0  0
   62.3260   33.7970   46.9500 C   0  0  0  0  0  0  0  0  0  0  0  0
   62.8116   33.8897   47.9326 H   0  0  0  0  0  0  0  0  0  0  0  0
   62.7875   32.9707   46.3894 H   0  0  0  0  0  0  0  0  0  0  0  0
   62.4508   34.7352   46.3894 H   0  0  0  0  0  0  0  0  0  0  0  0
   59.9390   33.9160   46.1630 C   0  0  0  0  0  0  0  0  0  0  0  0
   60.2888   34.4187   45.2493 H   0  0  0  0  0  0  0  0  0  0  0  0
   57.9720   32.2950   43.1170 C   0  0  0  0  0  0  0  0  0  0  0  0
   57.6890   32.3400   41.3750 Cl  0  0  0  0  0  0  0  0  0  0  0  0
   57.7530   31.0180   43.8400 C   0  0  0  0  0  0  0  0  0  0  0  0
   56.4720   30.4360   43.8660 C   0  0  0  0  0  0  0  0  0  0  0  0
   55.6358   30.9341   43.3535 H   0  0  0  0  0  0  0  0  0  0  0  0
   56.2540   29.2300   44.5380 C   0  0  0  0  0  0  0  0  0  0  0  0
   55.2475   28.7866   44.5570 H   0  0  0  0  0  0  0  0  0  0  0  0
   57.3120   28.5860   45.1860 C   0  0  0  0  0  0  0  0  0  0  0  0
   57.0110   26.9370   46.1020 Br  0  0  0  0  0  0  0  0  0  0  0  0
   58.5900   29.1480   45.1600 C   0  0  0  0  0  0  0  0  0  0  0  0
   59.4232   28.6401   45.6677 H   0  0  0  0  0  0  0  0  0  0  0  0
   58.8130   30.3550   44.4900 C   0  0  0  0  0  0  0  0  0  0  0  0
   59.8231   30.7900   44.4702 H   0  0  0  0  0  0  0  0  0  0  0  0
  1  2  1  0
  2  3  1  0
  3  4  1  0
  4  5  2  0
  5  6  1  0
  5  7  1  0
  7  8  1  0
  8  9  1  0
  8 10  1  0
  8 11  1  0
  7 12  2  0
 12 13  1  0
 12 14  1  0
 14 15  1  0
 15 16  1  0
 15 17  1  0
 15 18  1  0
 14 19  2  0
 19 20  1  0
  2 21  2  0
 21 22  1  0
 21 23  1  0
 23 24  2  0
 24 25  1  0
 24 26  1  0
 26 27  1  0
 26 28  2  0
 28 29  1  0
 28 30  1  0
 30 31  1  0
 30 32  2  0
 32 33  1  0
 19  4  1  0
 32 23  1  0
M  END
>  <UniqueID>  (81) 
77

>  <SMILES>  (81) 
Cc1cc(C)cc(S/C=C(\Cl)c2ccc(Br)cc2)c1

>  <Energy>  (81) 
31.86594133783747

>  <Genealogy>  (81) 
Cc1cc(C)cc(S/C=C(\Cl)c2ccc(Br)cc2)c1 (cis-trans isomerization)
Cc1cc(C)cc(S/C=C(\Cl)c2ccc(Br)cc2)c1 (3D coordinates assigned)
Cc1cc(C)cc(S/C=C(\Cl)c2ccc(Br)cc2)c1 (optimized conformer: 31.86594133783747 kcal/mol)

>  <smiles>  (81) 
Cc1cc(C)cc(SC=C(Cl)c2ccc(Br)cc2)c1

>  <score_type>  (81) 
oracle

>  <origin>  (81) 
adg

>  <m_score__min__energy>  (81) 
-8.1500000000000004

>  <m_primary>  (81) 
energy

$$$$
81:0
     RDKit          3D

 42 45  0  0  1  0  0  0  0  0999 V2000
   63.7840   32.7470   46.9960 N   0  0  0  0  0  0  0  0  0  0  0  0
   62.5970   32.5470   47.5160 C   0  0  0  0  0  0  0  0  0  0  0  0
   61.9490   31.4320   47.1140 N   0  0  0  0  0  0  0  0  0  0  0  0
   60.7110   31.1400   47.6000 C   0  0  0  0  0  0  0  0  0  0  0  0
   60.0250   29.8980   47.1350 C   0  0  0  0  0  0  0  0  0  0  0  0
   59.7000   30.0030   45.3390 S   0  0  0  0  0  0  0  0  0  0  0  0
   57.9900   30.3380   45.0220 C   0  0  0  0  0  0  0  0  0  0  0  0
   57.0790   29.4360   44.6270 N   0  0  0  0  0  0  0  0  0  0  0  0
   55.9370   30.0790   44.5010 N   0  0  0  0  0  0  0  0  0  0  0  0
   56.1410   31.3420   44.8090 N   0  0  0  0  0  0  0  0  0  0  0  0
   57.3850   31.5550   45.1370 N   0  0  0  0  0  0  0  0  0  0  0  0
   58.0470   32.7360   45.5330 C   0  0  0  0  0  0  0  0  0  0  0  0
   58.8800   33.3280   44.5770 C   0  0  0  0  0  0  0  0  0  0  0  0
   59.5720   34.4930   44.8790 C   0  0  0  0  0  0  0  0  0  0  0  0
   59.4300   35.0660   46.1410 C   0  0  0  0  0  0  0  0  0  0  0  0
   58.6080   34.4910   47.1000 C   0  0  0  0  0  0  0  0  0  0  0  0
   57.9210   33.3190   46.7750 C   0  0  0  0  0  0  0  0  0  0  0  0
   60.1620   31.9900   48.4840 N   0  0  0  0  0  0  0  0  0  0  0  0
   60.8320   33.1040   48.8720 C   0  0  0  0  0  0  0  0  0  0  0  0
   60.3070   33.9400   49.7320 N   0  0  0  0  0  0  0  0  0  0  0  0
   59.6130   33.4600   50.8800 C   0  0  0  0  0  0  0  0  0  0  0  0
   60.0970   33.8390   52.1200 C   0  0  0  0  0  0  0  0  0  0  0  0
   59.5200   33.4440   53.3030 C   0  0  0  0  0  0  0  0  0  0  0  0
   58.4020   32.6290   53.2350 C   0  0  0  0  0  0  0  0  0  0  0  0
   57.9170   32.2480   51.9930 C   0  0  0  0  0  0  0  0  0  0  0  0
   56.5020   31.2160   51.9810 Cl  0  0  0  0  0  0  0  0  0  0  0  0
   58.5030   32.6490   50.8070 C   0  0  0  0  0  0  0  0  0  0  0  0
   62.0610   33.4060   48.3980 N   0  0  0  0  0  0  0  0  0  0  0  0
   64.5120   32.0000   47.1270 H   0  0  0  0  0  0  0  0  0  0  0  0
   60.6668   29.0283   47.3394 H   0  0  0  0  0  0  0  0  0  0  0  0
   59.0703   29.7891   47.6704 H   0  0  0  0  0  0  0  0  0  0  0  0
   58.9868   32.8688   43.5831 H   0  0  0  0  0  0  0  0  0  0  0  0
   60.2268   34.9597   44.1284 H   0  0  0  0  0  0  0  0  0  0  0  0
   59.9782   35.9889   46.3811 H   0  0  0  0  0  0  0  0  0  0  0  0
   58.4998   34.9483   48.0946 H   0  0  0  0  0  0  0  0  0  0  0  0
   57.2663   32.8522   47.5257 H   0  0  0  0  0  0  0  0  0  0  0  0
   59.2010   31.7890   48.8770 H   0  0  0  0  0  0  0  0  0  0  0  0
   60.9851   34.4867   52.1605 H   0  0  0  0  0  0  0  0  0  0  0  0
   59.9321   33.7642   54.2713 H   0  0  0  0  0  0  0  0  0  0  0  0
   57.9049   32.2881   54.1552 H   0  0  0  0  0  0  0  0  0  0  0  0
   58.0955   32.3304   49.8362 H   0  0  0  0  0  0  0  0  0  0  0  0
   62.5810   34.2590   48.6930 H   0  0  0  0  0  0  0  0  0  0  0  0
  1  2  2  3
  2  3  1  0
  3  4  2  0
  4  5  1  0
  5  6  1  0
  6  7  1  0
  7  8  2  0
  8  9  1  0
  9 10  2  0
 10 11  1  0
 11 12  1  0
 12 13  2  0
 13 14  1  0
 14 15  2  0
 15 16  1  0
 16 17  2  0
  4 18  1  0
 18 19  1  0
 19 20  2  0
 20 21  1  0
 21 22  2  0
 22 23  1  0
 23 24  2  0
 24 25  1  0
 25 26  1  0
 25 27  2  0
 19 28  1  0
 28  2  1  0
 11  7  1  0
 17 12  1  0
 27 21  1  0
  1 29  1  0
  5 30  1  0
  5 31  1  0
 13 32  1  0
 14 33  1  0
 15 34  1  0
 16 35  1  0
 17 36  1  0
 18 37  1  0
 22 38  1  0
 23 39  1  0
 24 40  1  0
 27 41  1  0
 28 42  1  0
M  END
>  <smiles>  (82) 
N=c1nc(CSc2nnnn2-c2ccccc2)[nH]c(=Nc2cccc(Cl)c2)[nH]1

>  <score_type>  (82) 
oracle

>  <origin>  (82) 
adg

>  <m_score__min__energy>  (82) 
-9.2699999999999996

>  <m_primary>  (82) 
energy

$$$$
82:0
     RDKit          3D

 40 43  0  0  0  0  0  0  0  0999 V2000
   55.2251   30.4368   44.0110 H   0  0  0  0  0  0  0  0  0  0  0  0
   56.0040   29.8350   44.5020 C   0  0  0  0  0  0  0  0  0  0  0  0
   55.6930   28.6180   45.0030 N   0  0  0  0  0  0  0  0  0  0  0  0
   56.6240   27.8130   45.5700 C   0  0  0  0  0  0  0  0  0  0  0  0
   56.2430   26.5360   45.9990 C   0  0  0  0  0  0  0  0  0  0  0  0
   55.1839   26.2406   45.9672 H   0  0  0  0  0  0  0  0  0  0  0  0
   57.2000   25.6380   46.4660 C   0  0  0  0  0  0  0  0  0  0  0  0
   56.8930   24.6472   46.8320 H   0  0  0  0  0  0  0  0  0  0  0  0
   58.5460   25.9960   46.4690 C   0  0  0  0  0  0  0  0  0  0  0  0
   59.3050   25.2718   46.7998 H   0  0  0  0  0  0  0  0  0  0  0  0
   58.9360   27.2730   46.0530 C   0  0  0  0  0  0  0  0  0  0  0  0
   60.0050   27.5301   46.0207 H   0  0  0  0  0  0  0  0  0  0  0  0
   57.9740   28.2390   45.6730 C   0  0  0  0  0  0  0  0  0  0  0  0
   58.2950   29.5780   45.2780 C   0  0  0  0  0  0  0  0  0  0  0  0
   59.4420   30.1660   45.5200 N   0  0  0  0  0  0  0  0  0  0  0  0
   60.0640   30.5170   46.7640 C   0  0  0  0  0  0  0  0  0  0  0  0
   61.1420   31.4120   46.7630 C   0  0  0  0  0  0  0  0  0  0  0  0
   61.5313   31.8008   45.8105 H   0  0  0  0  0  0  0  0  0  0  0  0
   61.7240   31.8120   47.9690 C   0  0  0  0  0  0  0  0  0  0  0  0
   62.5840   32.4978   47.9628 H   0  0  0  0  0  0  0  0  0  0  0  0
   61.2150   31.3420   49.1830 C   0  0  0  0  0  0  0  0  0  0  0  0
   61.6796   31.6517   50.1308 H   0  0  0  0  0  0  0  0  0  0  0  0
   60.1150   30.4780   49.1930 C   0  0  0  0  0  0  0  0  0  0  0  0
   59.6090   30.0380   50.3710 F   0  0  0  0  0  0  0  0  0  0  0  0
   59.5310   30.0780   47.9870 C   0  0  0  0  0  0  0  0  0  0  0  0
   58.6514   29.4175   47.9962 H   0  0  0  0  0  0  0  0  0  0  0  0
   57.3080   30.3370   44.6020 C   0  0  0  0  0  0  0  0  0  0  0  0
   57.5830   31.7070   44.0940 C   0  0  0  0  0  0  0  0  0  0  0  0
   57.4240   31.9460   42.8650 O   0  0  0  0  0  0  0  0  0  0  0  0
   58.0580   32.7940   44.9880 C   0  0  0  0  0  0  0  0  0  0  0  0
   58.8550   33.8440   44.4930 C   0  0  0  0  0  0  0  0  0  0  0  0
   59.1256   33.8685   43.4271 H   0  0  0  0  0  0  0  0  0  0  0  0
   59.3050   34.8560   45.3470 C   0  0  0  0  0  0  0  0  0  0  0  0
   59.9214   35.6760   44.9499 H   0  0  0  0  0  0  0  0  0  0  0  0
   58.9730   34.8270   46.7030 C   0  0  0  0  0  0  0  0  0  0  0  0
   59.3259   35.6251   47.3727 H   0  0  0  0  0  0  0  0  0  0  0  0
   58.1930   33.7850   47.2090 C   0  0  0  0  0  0  0  0  0  0  0  0
   57.9336   33.7623   48.2777 H   0  0  0  0  0  0  0  0  0  0  0  0
   57.7410   32.7700   46.3590 C   0  0  0  0  0  0  0  0  0  0  0  0
   57.1337   31.9476   46.7650 H   0  0  0  0  0  0  0  0  0  0  0  0
  1  2  1  0
  2  3  1  0
  3  4  1  0
  4  5  2  0
  5  6  1  0
  5  7  1  0
  7  8  1  0
  7  9  2  0
  9 10  1  0
  9 11  1  0
 11 12  1  0
 11 13  2  0
 13 14  1  0
 14 15  2  0
 15 16  1  0
 16 17  2  0
 17 18  1  0
 17 19  1  0
 19 20  1  0
 19 21  2  0
 21 22  1  0
 21 23  1  0
 23 24  1  0
 23 25  2  0
 25 26  1  0
 14 27  1  0
 27 28  1  0
 28 29  2  0
 28 30  1  0
 30 31  2  0
 31 32  1  0
 31 33  1  0
 33 34  1  0
 33 35  2  0
 35 36  1  0
 35 37  1  0
 37 38  1  0
 37 39  2  0
 39 40  1  0
 27  2  2  0
 39 30  1  0
 13  4  1  0
 25 16  1  0
M  CHG  1   3  -1
M  END
>  <UniqueID>  (83) 
78

>  <SMILES>  (83) 
O=C(c1ccccc1)c1c[n-]c2ccccc2/c1=N\c1cccc(F)c1

>  <Energy>  (83) 
77.47908966404614

>  <Genealogy>  (83) 
O=C(c1ccccc1)c1c[n-]c2ccccc2c1=Nc1cccc(F)c1 (protonated)
O=C(c1ccccc1)c1c[n-]c2ccccc2/c1=N\c1cccc(F)c1 (cis-trans isomerization)
O=C(c1ccccc1)c1c[n-]c2ccccc2/c1=N\c1cccc(F)c1 (3D coordinates assigned)
O=C(c1ccccc1)c1c[n-]c2ccccc2/c1=N\c1cccc(F)c1 (optimized conformer: 77.47908966404614 kcal/mol)

>  <smiles>  (83) 
O=C(c1ccccc1)c1c[nH]c2ccccc2c1=Nc1cccc(F)c1

>  <score_type>  (83) 
oracle

>  <origin>  (83) 
adg

>  <m_score__min__energy>  (83) 
-10.359999999999999

>  <m_primary>  (83) 
energy

$$$$
83:0
     RDKit          3D

 46 48  0  0  0  0  0  0  0  0999 V2000
   56.6400   29.2430   43.0080 O   0  0  0  0  0  0  0  0  0  0  0  0
   56.5320   29.6250   44.2030 C   0  0  0  0  0  0  0  0  0  0  0  0
   56.4510   31.0960   44.5030 C   0  0  0  0  0  0  0  0  0  0  0  0
   57.7980   31.7030   44.3770 N   0  0  0  0  0  0  0  0  0  0  0  0
   57.7760   33.0700   43.8110 C   0  0  0  0  0  0  0  0  0  0  0  0
   57.3100   34.1310   44.8260 C   0  0  0  0  0  0  0  0  0  0  0  0
   58.1100   34.0720   46.1410 C   0  0  0  0  0  0  0  0  0  0  0  0
   59.5250   34.6790   45.9720 C   0  0  0  0  0  0  0  0  0  0  0  0
   60.4810   34.2040   47.0370 C   0  0  0  0  0  0  0  0  0  0  0  0
   60.1790   34.3810   48.3980 C   0  0  0  0  0  0  0  0  0  0  0  0
   61.0780   33.9570   49.3810 C   0  0  0  0  0  0  0  0  0  0  0  0
   62.2850   33.3560   49.0130 C   0  0  0  0  0  0  0  0  0  0  0  0
   62.5950   33.1790   47.6620 C   0  0  0  0  0  0  0  0  0  0  0  0
   61.6980   33.6020   46.6750 C   0  0  0  0  0  0  0  0  0  0  0  0
   58.1230   32.6270   46.6780 C   0  0  0  0  0  0  0  0  0  0  0  0
   58.6010   31.6250   45.6150 C   0  0  0  0  0  0  0  0  0  0  0  0
   56.5250   28.6380   45.2440 N   0  0  0  0  0  0  0  0  0  0  0  0
   57.6670   27.9510   45.7760 C   0  0  0  0  0  0  0  0  0  0  0  0
   58.8940   28.6160   45.9630 C   0  0  0  0  0  0  0  0  0  0  0  0
   59.9870   27.9380   46.5100 C   0  0  0  0  0  0  0  0  0  0  0  0
   59.8610   26.6000   46.8910 C   0  0  0  0  0  0  0  0  0  0  0  0
   58.6400   25.9410   46.7340 C   0  0  0  0  0  0  0  0  0  0  0  0
   57.5400   26.6130   46.1880 C   0  0  0  0  0  0  0  0  0  0  0  0
   55.8820   25.6760   45.9930 Br  0  0  0  0  0  0  0  0  0  0  0  0
   55.7641   31.5777   43.7915 H   0  0  0  0  0  0  0  0  0  0  0  0
   56.0791   31.2404   45.5281 H   0  0  0  0  0  0  0  0  0  0  0  0
   58.7914   33.3274   43.4753 H   0  0  0  0  0  0  0  0  0  0  0  0
   57.0572   33.0713   42.9783 H   0  0  0  0  0  0  0  0  0  0  0  0
   57.4368   35.1281   44.3791 H   0  0  0  0  0  0  0  0  0  0  0  0
   56.2552   33.9291   45.0640 H   0  0  0  0  0  0  0  0  0  0  0  0
   57.6139   34.6969   46.8982 H   0  0  0  0  0  0  0  0  0  0  0  0
   59.9195   34.3885   44.9871 H   0  0  0  0  0  0  0  0  0  0  0  0
   59.4360   35.7717   46.0620 H   0  0  0  0  0  0  0  0  0  0  0  0
   59.2308   34.8554   48.6912 H   0  0  0  0  0  0  0  0  0  0  0  0
   60.8353   34.0965   50.4448 H   0  0  0  0  0  0  0  0  0  0  0  0
   62.9913   33.0221   49.7873 H   0  0  0  0  0  0  0  0  0  0  0  0
   63.5456   32.7064   47.3740 H   0  0  0  0  0  0  0  0  0  0  0  0
   61.9462   33.4629   45.6124 H   0  0  0  0  0  0  0  0  0  0  0  0
   58.7987   32.5757   47.5445 H   0  0  0  0  0  0  0  0  0  0  0  0
   57.0943   32.3591   46.9610 H   0  0  0  0  0  0  0  0  0  0  0  0
   59.6515   31.8412   45.3707 H   0  0  0  0  0  0  0  0  0  0  0  0
   58.4880   30.6122   46.0290 H   0  0  0  0  0  0  0  0  0  0  0  0
   58.9928   29.6737   45.6774 H   0  0  0  0  0  0  0  0  0  0  0  0
   60.9472   28.4585   46.6406 H   0  0  0  0  0  0  0  0  0  0  0  0
   60.7239   26.0654   47.3148 H   0  0  0  0  0  0  0  0  0  0  0  0
   58.5420   24.8892   47.0407 H   0  0  0  0  0  0  0  0  0  0  0  0
  1  2  2  0
  2  3  1  0
  3  4  1  0
  4  5  1  0
  5  6  1  0
  6  7  1  0
  7  8  1  0
  8  9  1  0
  9 10  2  0
 10 11  1  0
 11 12  2  0
 12 13  1  0
 13 14  2  0
  7 15  1  0
 15 16  1  0
  2 17  1  0
 17 18  1  0
 18 19  2  0
 19 20  1  0
 20 21  2  0
 21 22  1  0
 22 23  2  0
 23 24  1  0
 16  4  1  0
 23 18  1  0
 14  9  1  0
  3 25  1  0
  3 26  1  0
  5 27  1  0
  5 28  1  0
  6 29  1  0
  6 30  1  0
  7 31  1  0
  8 32  1  0
  8 33  1  0
 10 34  1  0
 11 35  1  0
 12 36  1  0
 13 37  1  0
 14 38  1  0
 15 39  1  0
 15 40  1  0
 16 41  1  0
 16 42  1  0
 19 43  1  0
 20 44  1  0
 21 45  1  0
 22 46  1  0
M  CHG  1  17  -1
M  END
>  <UniqueID>  (84) 
79

>  <SMILES>  (84) 
O=C(CN1CCC(Cc2ccccc2)CC1)[N-]c1ccccc1Br

>  <Energy>  (84) 
54.28775763298379

>  <Genealogy>  (84) 
O=C(CN1CCC(Cc2ccccc2)CC1)[N-]c1ccccc1Br (protonated)
O=C(CN1CCC(Cc2ccccc2)CC1)[N-]c1ccccc1Br (3D coordinates assigned)
O=C(CN1CCC(Cc2ccccc2)CC1)[N-]c1ccccc1Br (nonaromatic ring conformer: 54.28775763298379 kcal/mol)

>  <smiles>  (84) 
O=C(CN1CCC(Cc2ccccc2)CC1)Nc1ccccc1Br

>  <score_type>  (84) 
oracle

>  <origin>  (84) 
adg

>  <m_score__min__energy>  (84) 
-10.640000000000001

>  <m_primary>  (84) 
energy

$$$$
84:0
     RDKit          3D

 49 53  0  0  0  0  0  0  0  0999 V2000
   56.2490   29.3460   42.6190 C   0  0  0  0  0  0  0  0  0  0  0  0
   56.1000   29.3410   44.0350 O   0  0  0  0  0  0  0  0  0  0  0  0
   57.0720   29.7910   44.9460 C   0  0  0  0  0  0  0  0  0  0  0  0
   57.6460   31.0700   44.8580 C   0  0  0  0  0  0  0  0  0  0  0  0
   58.6180   31.5130   45.7910 C   0  0  0  0  0  0  0  0  0  0  0  0
   59.1460   32.8410   45.7820 C   0  0  0  0  0  0  0  0  0  0  0  0
   58.6400   33.8500   44.9190 C   0  0  0  0  0  0  0  0  0  0  0  0
   59.0730   35.1690   45.0170 C   0  0  0  0  0  0  0  0  0  0  0  0
   59.9820   35.5320   45.9980 C   0  0  0  0  0  0  0  0  0  0  0  0
   60.5070   34.5670   46.8510 C   0  0  0  0  0  0  0  0  0  0  0  0
   60.1720   33.1990   46.7090 C   0  0  0  0  0  0  0  0  0  0  0  0
   60.7560   32.2060   47.5490 C   0  0  0  0  0  0  0  0  0  0  0  0
   61.9880   32.3880   48.2680 C   0  0  0  0  0  0  0  0  0  0  0  0
   63.0890   33.2700   47.7190 C   0  0  0  0  0  0  0  0  0  0  0  0
   62.2820   31.4920   49.3250 C   0  0  0  0  0  0  0  0  0  0  0  0
   63.3170   31.5420   50.2990 C   0  0  0  0  0  0  0  0  0  0  0  0
   64.2420   32.7080   50.5260 C   0  0  0  0  0  0  0  0  0  0  0  0
   63.3390   30.3950   51.1090 C   0  0  0  0  0  0  0  0  0  0  0  0
   64.2780   30.1230   52.2430 C   0  0  0  0  0  0  0  0  0  0  0  0
   62.0750   29.3650   50.6820 S   0  0  0  0  0  0  0  0  0  0  0  0
   61.5100   30.3540   49.4580 C   0  0  0  0  0  0  0  0  0  0  0  0
   60.4790   30.0730   48.6370 N   0  0  0  0  0  0  0  0  0  0  0  0
   60.0850   30.9580   47.6770 C   0  0  0  0  0  0  0  0  0  0  0  0
   59.0430   30.6050   46.7950 C   0  0  0  0  0  0  0  0  0  0  0  0
   58.4470   29.3290   46.8790 C   0  0  0  0  0  0  0  0  0  0  0  0
   57.4650   28.9230   45.9650 C   0  0  0  0  0  0  0  0  0  0  0  0
   56.8590   27.6570   46.0310 O   0  0  0  0  0  0  0  0  0  0  0  0
   57.3860   26.4740   45.4400 C   0  0  0  0  0  0  0  0  0  0  0  0
   57.3182   29.3819   42.3629 H   0  0  0  0  0  0  0  0  0  0  0  0
   55.8021   28.4324   42.2001 H   0  0  0  0  0  0  0  0  0  0  0  0
   55.7418   30.2276   42.2001 H   0  0  0  0  0  0  0  0  0  0  0  0
   57.3343   31.7439   44.0464 H   0  0  0  0  0  0  0  0  0  0  0  0
   57.8913   33.5834   44.1585 H   0  0  0  0  0  0  0  0  0  0  0  0
   58.6929   35.9250   44.3142 H   0  0  0  0  0  0  0  0  0  0  0  0
   60.2883   36.5834   46.1021 H   0  0  0  0  0  0  0  0  0  0  0  0
   61.1962   34.8729   47.6519 H   0  0  0  0  0  0  0  0  0  0  0  0
   63.6492   33.7188   48.5525 H   0  0  0  0  0  0  0  0  0  0  0  0
   63.7704   32.6651   47.1028 H   0  0  0  0  0  0  0  0  0  0  0  0
   62.6474   34.0670   47.1028 H   0  0  0  0  0  0  0  0  0  0  0  0
   64.3701   32.8695   51.6065 H   0  0  0  0  0  0  0  0  0  0  0  0
   65.2195   32.4950   50.0687 H   0  0  0  0  0  0  0  0  0  0  0  0
   63.8122   33.6114   50.0687 H   0  0  0  0  0  0  0  0  0  0  0  0
   63.7535   30.2749   53.1979 H   0  0  0  0  0  0  0  0  0  0  0  0
   64.6353   29.0844   52.1821 H   0  0  0  0  0  0  0  0  0  0  0  0
   65.1351   30.8098   52.1821 H   0  0  0  0  0  0  0  0  0  0  0  0
   58.7590   28.6394   47.6772 H   0  0  0  0  0  0  0  0  0  0  0  0
   57.6969   25.7760   46.2313 H   0  0  0  0  0  0  0  0  0  0  0  0
   56.6137   26.0005   44.8160 H   0  0  0  0  0  0  0  0  0  0  0  0
   58.2546   26.7314   44.8160 H   0  0  0  0  0  0  0  0  0  0  0  0
  1  2  1  0
  2  3  1  0
  3  4  2  0
  4  5  1  0
  5  6  2  0
  6  7  1  0
  7  8  2  0
  8  9  1  0
  9 10  2  0
 10 11  1  0
 11 12  2  0
 12 13  1  0
 13 14  1  0
 13 15  2  0
 15 16  1  0
 16 17  1  0
 16 18  2  0
 18 19  1  0
 18 20  1  0
 20 21  1  0
 21 22  2  0
 22 23  1  0
 23 24  2  0
 24 25  1  0
 25 26  2  0
 26 27  1  0
 27 28  1  0
 26  3  1  0
 24  5  1  0
 11  6  1  0
 23 12  1  0
 21 15  1  0
  1 29  1  0
  1 30  1  0
  1 31  1  0
  4 32  1  0
  7 33  1  0
  8 34  1  0
  9 35  1  0
 10 36  1  0
 14 37  1  0
 14 38  1  0
 14 39  1  0
 17 40  1  0
 17 41  1  0
 17 42  1  0
 19 43  1  0
 19 44  1  0
 19 45  1  0
 25 46  1  0
 28 47  1  0
 28 48  1  0
 28 49  1  0
M  END
>  <UniqueID>  (85) 
80

>  <SMILES>  (85) 
COc1cc2c3ccccc3c3c(C)c4c(C)c(C)sc4nc3c2cc1OC

>  <Energy>  (85) 
124.64334068199221

>  <Genealogy>  (85) 
COc1cc2c3ccccc3c3c(C)c4c(C)c(C)sc4nc3c2cc1OC (3D coordinates assigned)
COc1cc2c3ccccc3c3c(C)c4c(C)c(C)sc4nc3c2cc1OC (optimized conformer: 124.64334068199221 kcal/mol)

>  <smiles>  (85) 
COc1cc2c3ccccc3c3c(C)c4c(C)c(C)sc4nc3c2cc1OC

>  <score_type>  (85) 
oracle

>  <origin>  (85) 
adg

>  <m_score__min__energy>  (85) 
-8.4000000000000004

>  <m_primary>  (85) 
energy

$$$$
85:0
     RDKit          3D

 37 38  0  0  0  0  0  0  0  0999 V2000
   61.1540   30.4080   47.7660 C   0  0  0  0  0  0  0  0  0  0  0  0
   59.8290   29.6830   47.7570 C   0  0  0  0  0  0  0  0  0  0  0  0
   59.9250   28.2380   47.5100 C   0  0  0  0  0  0  0  0  0  0  0  0
   60.3560   27.7230   46.1950 C   0  0  0  0  0  0  0  0  0  0  0  0
   60.1510   28.8840   44.8650 S   0  0  0  0  0  0  0  0  0  0  0  0
   58.6140   29.7100   44.7900 C   0  0  0  0  0  0  0  0  0  0  0  0
   57.4010   29.1900   44.6260 N   0  0  0  0  0  0  0  0  0  0  0  0
   56.2500   29.8720   44.5420 C   0  0  0  0  0  0  0  0  0  0  0  0
   55.1450   29.2970   44.3860 O   0  0  0  0  0  0  0  0  0  0  0  0
   56.3520   31.2310   44.6350 N   0  0  0  0  0  0  0  0  0  0  0  0
   57.5470   31.8250   44.8020 C   0  0  0  0  0  0  0  0  0  0  0  0
   57.5800   33.6060   44.9170 S   0  0  0  0  0  0  0  0  0  0  0  0
   59.2460   34.2630   44.8420 C   0  0  0  0  0  0  0  0  0  0  0  0
   59.8690   34.0870   46.1750 C   0  0  0  0  0  0  0  0  0  0  0  0
   61.2090   33.8610   46.3390 C   0  0  0  0  0  0  0  0  0  0  0  0
   61.7770   33.6990   47.5960 C   0  0  0  0  0  0  0  0  0  0  0  0
   60.9650   33.7690   48.7190 C   0  0  0  0  0  0  0  0  0  0  0  0
   59.5980   33.9990   48.5800 C   0  0  0  0  0  0  0  0  0  0  0  0
   59.0570   34.1570   47.3080 C   0  0  0  0  0  0  0  0  0  0  0  0
   58.6420   31.0870   44.8770 N   0  0  0  0  0  0  0  0  0  0  0  0
   61.4702   30.5810   48.8053 H   0  0  0  0  0  0  0  0  0  0  0  0
   61.9095   29.7976   47.2496 H   0  0  0  0  0  0  0  0  0  0  0  0
   61.0472   31.3734   47.2496 H   0  0  0  0  0  0  0  0  0  0  0  0
   59.3491   29.8328   48.7354 H   0  0  0  0  0  0  0  0  0  0  0  0
   59.2484   30.1043   46.9231 H   0  0  0  0  0  0  0  0  0  0  0  0
   60.6339   27.8395   48.2507 H   0  0  0  0  0  0  0  0  0  0  0  0
   58.8767   27.9100   47.5691 H   0  0  0  0  0  0  0  0  0  0  0  0
   61.4209   27.4551   46.2600 H   0  0  0  0  0  0  0  0  0  0  0  0
   59.7164   26.8580   45.9654 H   0  0  0  0  0  0  0  0  0  0  0  0
   59.8279   33.7190   44.0834 H   0  0  0  0  0  0  0  0  0  0  0  0
   59.2244   35.3282   44.5683 H   0  0  0  0  0  0  0  0  0  0  0  0
   61.8544   33.8061   45.4499 H   0  0  0  0  0  0  0  0  0  0  0  0
   62.8569   33.5175   47.7000 H   0  0  0  0  0  0  0  0  0  0  0  0
   61.4014   33.6427   49.7208 H   0  0  0  0  0  0  0  0  0  0  0  0
   58.9519   34.0552   49.4684 H   0  0  0  0  0  0  0  0  0  0  0  0
   57.9782   34.3390   47.1941 H   0  0  0  0  0  0  0  0  0  0  0  0
   59.5590   31.5890   45.0080 H   0  0  0  0  0  0  0  0  0  0  0  0
  1  2  1  0
  2  3  1  0
  3  4  1  0
  4  5  1  0
  5  6  1  0
  6  7  2  0
  7  8  1  0
  8  9  2  0
  8 10  1  0
 10 11  2  0
 11 12  1  0
 12 13  1  0
 13 14  1  0
 14 15  2  0
 15 16  1  0
 16 17  2  0
 17 18  1  0
 18 19  2  0
 11 20  1  0
 20  6  1  0
 19 14  1  0
  1 21  1  0
  1 22  1  0
  1 23  1  0
  2 24  1  0
  2 25  1  0
  3 26  1  0
  3 27  1  0
  4 28  1  0
  4 29  1  0
 13 30  1  0
 13 31  1  0
 15 32  1  0
 16 33  1  0
 17 34  1  0
 18 35  1  0
 19 36  1  0
 20 37  1  0
M  END
>  <smiles>  (86) 
CCCCSc1nc(=O)nc(SCc2ccccc2)[nH]1

>  <score_type>  (86) 
oracle

>  <origin>  (86) 
adg

>  <m_score__min__energy>  (86) 
-7

>  <m_primary>  (86) 
energy

$$$$
86:0
     RDKit          3D

 50 52  0  0  0  0  0  0  0  0999 V2000
   58.9480   29.7830   49.5530 C   0  0  0  0  0  0  0  0  0  0  0  0
   60.3970   29.9360   49.1020 C   0  0  0  0  0  0  0  0  0  0  0  0
   60.5030   30.9270   48.0800 O   0  0  0  0  0  0  0  0  0  0  0  0
   61.5950   31.7890   47.8820 C   0  0  0  0  0  0  0  0  0  0  0  0
   62.8520   31.5310   48.4670 C   0  0  0  0  0  0  0  0  0  0  0  0
   63.9090   32.4260   48.3000 C   0  0  0  0  0  0  0  0  0  0  0  0
   63.7300   33.5900   47.5570 C   0  0  0  0  0  0  0  0  0  0  0  0
   62.4960   33.8570   46.9650 C   0  0  0  0  0  0  0  0  0  0  0  0
   61.4230   32.9600   47.1060 C   0  0  0  0  0  0  0  0  0  0  0  0
   60.1610   33.2590   46.3870 C   0  0  0  0  0  0  0  0  0  0  0  0
   59.1330   32.3980   46.2280 N   0  0  0  0  0  0  0  0  0  0  0  0
   58.2790   33.0420   45.4130 C   0  0  0  0  0  0  0  0  0  0  0  0
   57.0130   32.4550   44.8660 C   0  0  0  0  0  0  0  0  0  0  0  0
   57.0580   30.9700   44.8790 N   0  0  0  0  0  0  0  0  0  0  0  0
   55.8660   30.4110   44.2010 C   0  0  0  0  0  0  0  0  0  0  0  0
   56.2670   29.7420   42.8870 C   0  0  0  0  0  0  0  0  0  0  0  0
   58.3140   30.4540   44.2760 C   0  0  0  0  0  0  0  0  0  0  0  0
   58.8940   29.3480   45.1210 C   0  0  0  0  0  0  0  0  0  0  0  0
   58.0980   28.6690   46.0580 C   0  0  0  0  0  0  0  0  0  0  0  0
   58.6290   27.5990   46.7860 C   0  0  0  0  0  0  0  0  0  0  0  0
   59.9550   27.2040   46.5870 C   0  0  0  0  0  0  0  0  0  0  0  0
   60.7570   27.8840   45.6670 C   0  0  0  0  0  0  0  0  0  0  0  0
   60.2320   28.9570   44.9400 C   0  0  0  0  0  0  0  0  0  0  0  0
   58.7880   34.2910   45.1370 C   0  0  0  0  0  0  0  0  0  0  0  0
   59.9490   34.3890   45.7440 O   0  0  0  0  0  0  0  0  0  0  0  0
   58.9046   29.7784   50.6521 H   0  0  0  0  0  0  0  0  0  0  0  0
   58.3529   30.6233   49.1661 H   0  0  0  0  0  0  0  0  0  0  0  0
   58.5415   28.8369   49.1661 H   0  0  0  0  0  0  0  0  0  0  0  0
   61.0136   30.2362   49.9621 H   0  0  0  0  0  0  0  0  0  0  0  0
   60.7470   28.9736   48.7005 H   0  0  0  0  0  0  0  0  0  0  0  0
   63.0002   30.6164   49.0599 H   0  0  0  0  0  0  0  0  0  0  0  0
   64.8866   32.2116   48.7565 H   0  0  0  0  0  0  0  0  0  0  0  0
   64.5623   34.2991   47.4370 H   0  0  0  0  0  0  0  0  0  0  0  0
   62.3608   34.7795   46.3814 H   0  0  0  0  0  0  0  0  0  0  0  0
   59.0450   31.4140   46.5590 H   0  0  0  0  0  0  0  0  0  0  0  0
   56.1660   32.7934   45.4809 H   0  0  0  0  0  0  0  0  0  0  0  0
   56.8959   32.7901   43.8249 H   0  0  0  0  0  0  0  0  0  0  0  0
   55.3914   29.6664   44.8570 H   0  0  0  0  0  0  0  0  0  0  0  0
   55.1614   31.2278   43.9857 H   0  0  0  0  0  0  0  0  0  0  0  0
   56.8217   28.8165   43.1011 H   0  0  0  0  0  0  0  0  0  0  0  0
   55.3636   29.5022   42.3070 H   0  0  0  0  0  0  0  0  0  0  0  0
   56.9043   30.4257   42.3070 H   0  0  0  0  0  0  0  0  0  0  0  0
   58.0986   30.0650   43.2699 H   0  0  0  0  0  0  0  0  0  0  0  0
   59.0431   31.2756   44.2187 H   0  0  0  0  0  0  0  0  0  0  0  0
   57.0551   28.9792   46.2197 H   0  0  0  0  0  0  0  0  0  0  0  0
   58.0017   27.0673   47.5166 H   0  0  0  0  0  0  0  0  0  0  0  0
   60.3674   26.3572   47.1552 H   0  0  0  0  0  0  0  0  0  0  0  0
   61.8017   27.5752   45.5145 H   0  0  0  0  0  0  0  0  0  0  0  0
   60.8685   29.4972   44.2237 H   0  0  0  0  0  0  0  0  0  0  0  0
   58.3095   35.0661   44.5203 H   0  0  0  0  0  0  0  0  0  0  0  0
  1  2  1  0
  2  3  1  0
  3  4  1  0
  4  5  2  0
  5  6  1  0
  6  7  2  0
  7  8  1  0
  8  9  2  0
  9 10  1  0
 10 11  2  0
 11 12  1  0
 12 13  1  0
 13 14  1  0
 14 15  1  0
 15 16  1  0
 14 17  1  0
 17 18  1  0
 18 19  2  0
 19 20  1  0
 20 21  2  0
 21 22  1  0
 22 23  2  0
 12 24  2  0
 24 25  1  0
  9  4  1  0
 25 10  1  0
 23 18  1  0
  1 26  1  0
  1 27  1  0
  1 28  1  0
  2 29  1  0
  2 30  1  0
  5 31  1  0
  6 32  1  0
  7 33  1  0
  8 34  1  0
 11 35  1  0
 13 36  1  0
 13 37  1  0
 15 38  1  0
 15 39  1  0
 16 40  1  0
 16 41  1  0
 16 42  1  0
 17 43  1  0
 17 44  1  0
 19 45  1  0
 20 46  1  0
 21 47  1  0
 22 48  1  0
 23 49  1  0
 24 50  1  0
M  CHG  1  11   1
M  END
>  <UniqueID>  (87) 
81

>  <SMILES>  (87) 
CCOc1ccccc1-c1[nH+]c(CN(CC)Cc2ccccc2)co1

>  <Energy>  (87) 
80.51236370095984

>  <Genealogy>  (87) 
CCOc1ccccc1-c1[nH+]c(CN(CC)Cc2ccccc2)co1 (protonated)
CCOc1ccccc1-c1[nH+]c(CN(CC)Cc2ccccc2)co1 (3D coordinates assigned)
CCOc1ccccc1-c1[nH+]c(CN(CC)Cc2ccccc2)co1 (optimized conformer: 80.51236370095984 kcal/mol)

>  <smiles>  (87) 
CCOc1ccccc1-c1nc(CN(CC)Cc2ccccc2)co1

>  <score_type>  (87) 
oracle

>  <origin>  (87) 
adg

>  <m_score__min__energy>  (87) 
-5.7300000000000004

>  <m_primary>  (87) 
energy

$$$$
87:0
     RDKit          3D

 27 29  0  0  0  0  0  0  0  0999 V2000
   63.7540   33.5490   49.3360 C   0  0  0  0  0  0  0  0  0  0  0  0
   63.9010   33.1260   48.0140 C   0  0  0  0  0  0  0  0  0  0  0  0
   62.8380   33.2460   47.1150 C   0  0  0  0  0  0  0  0  0  0  0  0
   61.6070   33.7940   47.5260 C   0  0  0  0  0  0  0  0  0  0  0  0
   60.4880   33.9120   46.5500 C   0  0  0  0  0  0  0  0  0  0  0  0
   59.9970   35.1190   46.0440 C   0  0  0  0  0  0  0  0  0  0  0  0
   58.7450   34.7670   44.9830 S   0  0  0  0  0  0  0  0  0  0  0  0
   58.8630   33.1020   45.1980 C   0  0  0  0  0  0  0  0  0  0  0  0
   58.0210   32.0800   44.5370 C   0  0  0  0  0  0  0  0  0  0  0  0
   57.8190   32.0870   43.1460 C   0  0  0  0  0  0  0  0  0  0  0  0
   57.0190   31.1110   42.5480 C   0  0  0  0  0  0  0  0  0  0  0  0
   56.4260   30.1320   43.3440 C   0  0  0  0  0  0  0  0  0  0  0  0
   56.6260   30.1330   44.6870 N   0  0  0  0  0  0  0  0  0  0  0  0
   57.4000   31.0720   45.2950 C   0  0  0  0  0  0  0  0  0  0  0  0
   59.8490   32.8060   46.0710 N   0  0  0  0  0  0  0  0  0  0  0  0
   61.4720   34.2170   48.8650 C   0  0  0  0  0  0  0  0  0  0  0  0
   62.5410   34.0940   49.7600 C   0  0  0  0  0  0  0  0  0  0  0  0
   64.5921   33.4531   50.0420 H   0  0  0  0  0  0  0  0  0  0  0  0
   64.8567   32.6968   47.6788 H   0  0  0  0  0  0  0  0  0  0  0  0
   62.9637   32.9090   46.0755 H   0  0  0  0  0  0  0  0  0  0  0  0
   60.3665   36.1237   46.2969 H   0  0  0  0  0  0  0  0  0  0  0  0
   58.2923   32.8633   42.5269 H   0  0  0  0  0  0  0  0  0  0  0  0
   56.8583   31.1146   41.4598 H   0  0  0  0  0  0  0  0  0  0  0  0
   55.7951   29.3576   42.8833 H   0  0  0  0  0  0  0  0  0  0  0  0
   57.5407   31.0424   46.3856 H   0  0  0  0  0  0  0  0  0  0  0  0
   60.5194   34.6467   49.2083 H   0  0  0  0  0  0  0  0  0  0  0  0
   62.4248   34.4281   50.8016 H   0  0  0  0  0  0  0  0  0  0  0  0
  1  2  2  0
  2  3  1  0
  3  4  2  0
  4  5  1  0
  5  6  2  0
  6  7  1  0
  7  8  1  0
  8  9  1  0
  9 10  2  0
 10 11  1  0
 11 12  2  0
 12 13  1  0
 13 14  2  0
  8 15  2  0
  4 16  1  0
 16 17  2  0
 17  1  1  0
 15  5  1  0
 14  9  1  0
  1 18  1  0
  2 19  1  0
  3 20  1  0
  6 21  1  0
 10 22  1  0
 11 23  1  0
 12 24  1  0
 14 25  1  0
 16 26  1  0
 17 27  1  0
M  END
>  <UniqueID>  (88) 
82

>  <SMILES>  (88) 
c1ccc(-c2csc(-c3cccnc3)n2)cc1

>  <Energy>  (88) 
63.538185686127115

>  <Genealogy>  (88) 
c1ccc(-c2csc(-c3cccnc3)n2)cc1 (3D coordinates assigned)
c1ccc(-c2csc(-c3cccnc3)n2)cc1 (optimized conformer: 63.538185686127115 kcal/mol)

>  <smiles>  (88) 
c1ccc(-c2csc(-c3cccnc3)n2)cc1

>  <score_type>  (88) 
oracle

>  <origin>  (88) 
adg

>  <m_score__min__energy>  (88) 
-7.1200000000000001

>  <m_primary>  (88) 
energy

$$$$
88:0
     RDKit          3D

 43 44  0  0  0  0  0  0  0  0999 V2000
   57.7330   29.7860   42.5750 H   0  0  0  0  0  0  0  0  0  0  0  0
   57.5120   29.2180   43.3850 O   0  0  0  0  0  0  0  0  0  0  0  0
   58.0930   29.4610   44.6300 C   0  0  0  0  0  0  0  0  0  0  0  0
   58.6100   28.3940   45.3780 C   0  0  0  0  0  0  0  0  0  0  0  0
   58.5841   27.3740   44.9669 H   0  0  0  0  0  0  0  0  0  0  0  0
   59.1580   28.6200   46.6430 C   0  0  0  0  0  0  0  0  0  0  0  0
   59.5654   27.7793   47.2237 H   0  0  0  0  0  0  0  0  0  0  0  0
   59.1890   29.9130   47.1710 C   0  0  0  0  0  0  0  0  0  0  0  0
   59.8680   30.1920   48.7640 Cl  0  0  0  0  0  0  0  0  0  0  0  0
   58.6800   30.9840   46.4300 C   0  0  0  0  0  0  0  0  0  0  0  0
   58.6978   31.9990   46.8536 H   0  0  0  0  0  0  0  0  0  0  0  0
   58.1460   30.7720   45.1480 C   0  0  0  0  0  0  0  0  0  0  0  0
   57.6120   31.9270   44.3880 C   0  0  0  0  0  0  0  0  0  0  0  0
   57.6520   31.8930   43.1300 O   0  0  0  0  0  0  0  0  0  0  0  0
   57.0270   33.1180   45.0390 C   0  0  0  0  0  0  0  0  0  0  0  0
   55.9464   33.1285   45.2445 H   0  0  0  0  0  0  0  0  0  0  0  0
   57.7580   34.1870   45.3900 C   0  0  0  0  0  0  0  0  0  0  0  0
   57.4356   35.1756   45.0312 H   0  0  0  0  0  0  0  0  0  0  0  0
   58.9760   34.1130   46.2340 C   0  0  0  0  0  0  0  0  0  0  0  0
   60.2160   33.9270   45.6070 C   0  0  0  0  0  0  0  0  0  0  0  0
   60.2636   33.8454   44.5111 H   0  0  0  0  0  0  0  0  0  0  0  0
   61.3910   33.8440   46.3560 C   0  0  0  0  0  0  0  0  0  0  0  0
   62.3532   33.7072   45.8409 H   0  0  0  0  0  0  0  0  0  0  0  0
   61.3630   33.9330   47.7640 C   0  0  0  0  0  0  0  0  0  0  0  0
   62.5890   33.8470   48.5490 N   0  0  0  0  0  0  0  0  0  0  0  0
   62.6980   34.4780   49.8740 C   0  0  0  0  0  0  0  0  0  0  0  0
   61.7235   34.4216   50.3812 H   0  0  0  0  0  0  0  0  0  0  0  0
   63.0009   35.5270   49.7403 H   0  0  0  0  0  0  0  0  0  0  0  0
   63.7490   33.7710   50.7290 C   0  0  0  0  0  0  0  0  0  0  0  0
   63.5197   33.9252   51.7937 H   0  0  0  0  0  0  0  0  0  0  0  0
   63.7406   32.6942   50.5043 H   0  0  0  0  0  0  0  0  0  0  0  0
   64.7432   34.1847   50.5043 H   0  0  0  0  0  0  0  0  0  0  0  0
   63.7720   33.1250   48.0450 C   0  0  0  0  0  0  0  0  0  0  0  0
   64.1982   33.6803   47.1965 H   0  0  0  0  0  0  0  0  0  0  0  0
   64.5070   33.0435   48.8593 H   0  0  0  0  0  0  0  0  0  0  0  0
   63.3970   31.7180   47.5840 C   0  0  0  0  0  0  0  0  0  0  0  0
   63.2264   31.0778   48.4621 H   0  0  0  0  0  0  0  0  0  0  0  0
   62.4794   31.7628   46.9790 H   0  0  0  0  0  0  0  0  0  0  0  0
   64.2151   31.3002   46.9790 H   0  0  0  0  0  0  0  0  0  0  0  0
   60.1090   34.1010   48.3890 C   0  0  0  0  0  0  0  0  0  0  0  0
   60.0554   34.1661   49.4858 H   0  0  0  0  0  0  0  0  0  0  0  0
   58.9340   34.1860   47.6370 C   0  0  0  0  0  0  0  0  0  0  0  0
   57.9678   34.3111   48.1477 H   0  0  0  0  0  0  0  0  0  0  0  0
  1  2  1  0
  2  3  1  0
  3  4  2  0
  4  5  1  0
  4  6  1  0
  6  7  1  0
  6  8  2  0
  8  9  1  0
  8 10  1  0
 10 11  1  0
 10 12  2  0
 12 13  1  0
 13 14  2  0
 13 15  1  0
 15 16  1  0
 15 17  2  0
 17 18  1  0
 17 19  1  0
 19 20  2  0
 20 21  1  0
 20 22  1  0
 22 23  1  0
 22 24  2  0
 24 25  1  0
 25 26  1  0
 26 27  1  0
 26 28  1  0
 26 29  1  0
 29 30  1  0
 29 31  1  0
 29 32  1  0
 25 33  1  0
 33 34  1  0
 33 35  1  0
 33 36  1  0
 36 37  1  0
 36 38  1  0
 36 39  1  0
 24 40  1  0
 40 41  1  0
 40 42  2  0
 42 43  1  0
 12  3  1  0
 42 19  1  0
M  END
>  <UniqueID>  (89) 
83

>  <SMILES>  (89) 
CCN(CC)c1ccc(/C=C/C(=O)c2cc(Cl)ccc2O)cc1

>  <Energy>  (89) 
49.91624192194495

>  <Genealogy>  (89) 
CCN(CC)c1ccc(/C=C/C(=O)c2cc(Cl)ccc2O)cc1 (cis-trans isomerization)
CCN(CC)c1ccc(/C=C/C(=O)c2cc(Cl)ccc2O)cc1 (3D coordinates assigned)
CCN(CC)c1ccc(/C=C/C(=O)c2cc(Cl)ccc2O)cc1 (optimized conformer: 49.91624192194495 kcal/mol)

>  <smiles>  (89) 
CCN(CC)c1ccc(C=CC(=O)c2cc(Cl)ccc2O)cc1

>  <score_type>  (89) 
oracle

>  <origin>  (89) 
adg

>  <m_score__min__energy>  (89) 
-9.2300000000000004

>  <m_primary>  (89) 
energy

$$$$
89:0
     RDKit          3D

 47 51  0  0  1  0  0  0  0  0999 V2000
   65.3700   32.7920   49.7050 C   0  0  0  0  0  0  0  0  0  0  0  0
   64.0320   33.2340   49.2060 C   0  0  0  0  0  0  0  0  0  0  0  0
   63.1760   33.7880   50.1270 C   0  0  0  0  0  0  0  0  0  0  0  0
   61.9300   34.2080   49.6950 C   0  0  0  0  0  0  0  0  0  0  0  0
   61.5360   34.0810   48.3720 C   0  0  0  0  0  0  0  0  0  0  0  0
   60.1880   34.5480   47.9700 C   0  0  0  0  0  0  0  0  0  0  0  0
   59.4460   33.4880   47.3040 N   0  0  0  0  0  0  0  0  0  0  0  0
   58.9910   32.3930   47.9800 C   0  0  0  0  0  0  0  0  0  0  0  0
   58.3260   31.5550   47.1090 C   0  0  0  0  0  0  0  0  0  0  0  0
   58.3890   32.1700   45.8850 C   0  0  0  0  0  0  0  0  0  0  0  0
   57.9100   31.8210   44.6410 C   0  0  0  0  0  0  0  0  0  0  0  0
   57.2180   30.6440   44.4780 C   0  0  0  0  0  0  0  0  0  0  0  0
   56.9720   29.8120   45.4290 N   0  0  0  0  0  0  0  0  0  0  0  0
   57.8190   28.6830   45.6080 C   0  0  0  0  0  0  0  0  0  0  0  0
   59.1970   28.7570   45.4400 C   0  0  0  0  0  0  0  0  0  0  0  0
   59.9930   27.6410   45.6230 C   0  0  0  0  0  0  0  0  0  0  0  0
   59.3770   26.4690   45.9730 C   0  0  0  0  0  0  0  0  0  0  0  0
   58.0050   26.3890   46.1420 C   0  0  0  0  0  0  0  0  0  0  0  0
   57.2320   24.8860   46.5890 Cl  0  0  0  0  0  0  0  0  0  0  0  0
   57.2070   27.4940   45.9630 C   0  0  0  0  0  0  0  0  0  0  0  0
   56.7710   30.3440   43.2530 N   0  0  0  0  0  0  0  0  0  0  0  0
   57.0100   31.1900   42.2340 C   0  0  0  0  0  0  0  0  0  0  0  0
   57.6850   32.3460   42.3750 N   0  0  0  0  0  0  0  0  0  0  0  0
   58.1520   32.6870   43.5860 C   0  0  0  0  0  0  0  0  0  0  0  0
   58.8220   33.8320   43.7310 N   0  0  0  0  0  0  0  0  0  0  0  0
   59.2900   34.1770   44.9440 C   0  0  0  0  0  0  0  0  0  0  0  0
   59.0810   33.3540   46.0330 C   0  0  0  0  0  0  0  0  0  0  0  0
   62.4280   33.5130   47.4590 C   0  0  0  0  0  0  0  0  0  0  0  0
   63.6740   33.0880   47.8660 C   0  0  0  0  0  0  0  0  0  0  0  0
   65.3695   32.7922   50.8050 H   0  0  0  0  0  0  0  0  0  0  0  0
   65.5808   31.7765   49.3386 H   0  0  0  0  0  0  0  0  0  0  0  0
   66.1443   33.4821   49.3386 H   0  0  0  0  0  0  0  0  0  0  0  0
   63.4734   33.8950   51.1806 H   0  0  0  0  0  0  0  0  0  0  0  0
   61.2340   34.6543   50.4206 H   0  0  0  0  0  0  0  0  0  0  0  0
   59.6352   34.8656   48.8664 H   0  0  0  0  0  0  0  0  0  0  0  0
   60.3027   35.3887   47.2700 H   0  0  0  0  0  0  0  0  0  0  0  0
   59.1329   32.2072   49.0549 H   0  0  0  0  0  0  0  0  0  0  0  0
   57.8457   30.5944   47.3467 H   0  0  0  0  0  0  0  0  0  0  0  0
   59.6596   29.7144   45.1582 H   0  0  0  0  0  0  0  0  0  0  0  0
   61.0839   27.6929   45.4919 H   0  0  0  0  0  0  0  0  0  0  0  0
   59.9885   25.5671   46.1239 H   0  0  0  0  0  0  0  0  0  0  0  0
   56.1169   27.4348   46.0977 H   0  0  0  0  0  0  0  0  0  0  0  0
   56.6346   30.9232   41.2350 H   0  0  0  0  0  0  0  0  0  0  0  0
   57.8440   32.9730   41.5450 H   0  0  0  0  0  0  0  0  0  0  0  0
   59.8423   35.1200   45.0692 H   0  0  0  0  0  0  0  0  0  0  0  0
   62.1328   33.4040   46.4050 H   0  0  0  0  0  0  0  0  0  0  0  0
   64.3749   32.6409   47.1457 H   0  0  0  0  0  0  0  0  0  0  0  0
  1  2  1  0
  2  3  2  0
  3  4  1  0
  4  5  2  0
  5  6  1  0
  6  7  1  0
  7  8  1  0
  8  9  2  0
  9 10  1  0
 10 11  2  0
 11 12  1  0
 12 13  2  0
 13 14  1  0
 14 15  2  0
 15 16  1  0
 16 17  2  0
 17 18  1  0
 18 19  1  0
 18 20  2  0
 12 21  1  0
 21 22  2  0
 22 23  1  0
 23 24  1  0
 24 25  2  0
 25 26  1  0
 26 27  2  0
  5 28  1  0
 28 29  2  0
 29  2  1  0
 27  7  1  0
 27 10  1  0
 24 11  1  0
 20 14  1  0
  1 30  1  0
  1 31  1  0
  1 32  1  0
  3 33  1  0
  4 34  1  0
  6 35  1  0
  6 36  1  0
  8 37  1  0
  9 38  1  0
 15 39  1  0
 16 40  1  0
 17 41  1  0
 20 42  1  0
 22 43  1  0
 23 44  1  0
 26 45  1  0
 28 46  1  0
 29 47  1  0
M  END
>  <smiles>  (90) 
Cc1ccc(Cn2ccc3c4c(=Nc5cccc(Cl)c5)nc[nH]c4ncc32)cc1

>  <score_type>  (90) 
oracle

>  <origin>  (90) 
adg

>  <m_score__min__energy>  (90) 
-9.2799999999999994

>  <m_primary>  (90) 
energy

$$$$
90:0
     RDKit          3D

 39 43  0  0  0  0  0  0  0  0999 V2000
   66.3270   34.3910   51.7740 C   0  0  0  0  0  0  0  0  0  0  0  0
   64.9360   34.5930   51.5420 O   0  0  0  0  0  0  0  0  0  0  0  0
   64.1600   33.8250   50.6590 C   0  0  0  0  0  0  0  0  0  0  0  0
   64.5010   32.5040   50.3110 C   0  0  0  0  0  0  0  0  0  0  0  0
   63.7010   31.7730   49.4270 C   0  0  0  0  0  0  0  0  0  0  0  0
   62.5470   32.3480   48.8780 C   0  0  0  0  0  0  0  0  0  0  0  0
   61.7610   31.6340   48.0120 N   0  0  0  0  0  0  0  0  0  0  0  0
   60.6490   32.2160   47.4940 C   0  0  0  0  0  0  0  0  0  0  0  0
   60.2740   33.4990   47.8030 C   0  0  0  0  0  0  0  0  0  0  0  0
   61.0380   34.2660   48.6760 C   0  0  0  0  0  0  0  0  0  0  0  0
   62.1970   33.6860   49.2270 C   0  0  0  0  0  0  0  0  0  0  0  0
   63.0090   34.4060   50.1140 C   0  0  0  0  0  0  0  0  0  0  0  0
   59.0100   33.8530   47.0780 C   0  0  0  0  0  0  0  0  0  0  0  0
   58.7250   32.6200   46.3310 N   0  0  0  0  0  0  0  0  0  0  0  0
   59.6710   31.6840   46.5750 C   0  0  0  0  0  0  0  0  0  0  0  0
   59.6230   30.4260   45.9830 C   0  0  0  0  0  0  0  0  0  0  0  0
   58.5550   30.1450   45.1130 C   0  0  0  0  0  0  0  0  0  0  0  0
   58.4600   28.8910   44.4900 C   0  0  0  0  0  0  0  0  0  0  0  0
   57.3970   28.6150   43.6260 C   0  0  0  0  0  0  0  0  0  0  0  0
   56.4230   29.5840   43.3760 C   0  0  0  0  0  0  0  0  0  0  0  0
   56.5010   30.8380   43.9880 C   0  0  0  0  0  0  0  0  0  0  0  0
   57.5640   31.1350   44.8610 C   0  0  0  0  0  0  0  0  0  0  0  0
   57.6730   32.3930   45.4960 C   0  0  0  0  0  0  0  0  0  0  0  0
   56.8150   33.2980   45.2990 O   0  0  0  0  0  0  0  0  0  0  0  0
   66.5179   34.3633   52.8570 H   0  0  0  0  0  0  0  0  0  0  0  0
   66.6395   33.4381   51.3221 H   0  0  0  0  0  0  0  0  0  0  0  0
   66.8977   35.2157   51.3221 H   0  0  0  0  0  0  0  0  0  0  0  0
   65.4040   32.0432   50.7379 H   0  0  0  0  0  0  0  0  0  0  0  0
   63.9788   30.7423   49.1615 H   0  0  0  0  0  0  0  0  0  0  0  0
   62.0070   30.6520   47.7480 H   0  0  0  0  0  0  0  0  0  0  0  0
   60.7455   35.2958   48.9288 H   0  0  0  0  0  0  0  0  0  0  0  0
   62.7392   35.4375   50.3844 H   0  0  0  0  0  0  0  0  0  0  0  0
   58.1988   34.0890   47.7825 H   0  0  0  0  0  0  0  0  0  0  0  0
   59.1016   34.7445   46.4402 H   0  0  0  0  0  0  0  0  0  0  0  0
   60.3980   29.6732   46.1896 H   0  0  0  0  0  0  0  0  0  0  0  0
   59.2242   28.1235   44.6823 H   0  0  0  0  0  0  0  0  0  0  0  0
   57.3271   27.6303   43.1407 H   0  0  0  0  0  0  0  0  0  0  0  0
   55.5900   29.3591   42.6938 H   0  0  0  0  0  0  0  0  0  0  0  0
   55.7290   31.5953   43.7867 H   0  0  0  0  0  0  0  0  0  0  0  0
  1  2  1  0
  2  3  1  0
  3  4  2  0
  4  5  1  0
  5  6  2  0
  6  7  1  0
  7  8  2  0
  8  9  1  0
  9 10  2  0
 10 11  1  0
 11 12  2  0
  9 13  1  0
 13 14  1  0
 14 15  1  0
 15 16  2  0
 16 17  1  0
 17 18  2  0
 18 19  1  0
 19 20  2  0
 20 21  1  0
 21 22  2  0
 22 23  1  0
 23 24  2  0
 12  3  1  0
 23 14  1  0
 11  6  1  0
 22 17  1  0
 15  8  1  0
  1 25  1  0
  1 26  1  0
  1 27  1  0
  4 28  1  0
  5 29  1  0
  7 30  1  0
 10 31  1  0
 12 32  1  0
 13 33  1  0
 13 34  1  0
 16 35  1  0
 18 36  1  0
 19 37  1  0
 20 38  1  0
 21 39  1  0
M  CHG  1   7   1
M  END
>  <UniqueID>  (91) 
84

>  <SMILES>  (91) 
COc1ccc2[nH+]c3c(cc2c1)Cn1c-3cc2ccccc2c1=O

>  <Energy>  (91) 
78.17343594526172

>  <Genealogy>  (91) 
COc1ccc2[nH+]c3c(cc2c1)Cn1c-3cc2ccccc2c1=O (protonated)
COc1ccc2[nH+]c3c(cc2c1)Cn1c-3cc2ccccc2c1=O (3D coordinates assigned)
COc1ccc2[nH+]c3c(cc2c1)Cn1c-3cc2ccccc2c1=O (nonaromatic ring conformer: 78.17343594526172 kcal/mol)

>  <smiles>  (91) 
COc1ccc2nc3c(cc2c1)Cn1c-3cc2ccccc2c1=O

>  <score_type>  (91) 
oracle

>  <origin>  (91) 
adg

>  <m_score__min__energy>  (91) 
-6.1600000000000001

>  <m_primary>  (91) 
energy

$$$$
91:0
     RDKit          3D

 43 45  0  0  1  0  0  0  0  0999 V2000
   59.8320   30.4830   49.4030 C   0  0  0  0  0  0  0  0  0  0  0  0
   59.9680   31.8020   48.9710 O   0  0  0  0  0  0  0  0  0  0  0  0
   61.0770   32.2080   48.2720 C   0  0  0  0  0  0  0  0  0  0  0  0
   62.2830   31.5920   48.2290 C   0  0  0  0  0  0  0  0  0  0  0  0
   63.3480   32.0660   47.4990 C   0  0  0  0  0  0  0  0  0  0  0  0
   63.2270   33.2350   46.7520 C   0  0  0  0  0  0  0  0  0  0  0  0
   62.0150   33.8800   46.7770 C   0  0  0  0  0  0  0  0  0  0  0  0
   60.9430   33.3840   47.5230 C   0  0  0  0  0  0  0  0  0  0  0  0
   59.6690   34.1520   47.4890 C   0  0  0  0  0  0  0  0  0  0  0  0
   58.6300   33.2630   47.1780 N   0  0  0  0  0  0  0  0  0  0  0  0
   58.5700   32.5210   46.1250 C   0  0  0  0  0  0  0  0  0  0  0  0
   59.1180   31.2980   46.1530 N   0  0  0  0  0  0  0  0  0  0  0  0
   59.0880   30.4680   45.0810 C   0  0  0  0  0  0  0  0  0  0  0  0
   59.6180   29.3180   45.1520 N   0  0  0  0  0  0  0  0  0  0  0  0
   58.9850   28.2220   45.7960 C   0  0  0  0  0  0  0  0  0  0  0  0
   59.7140   27.4450   46.6950 C   0  0  0  0  0  0  0  0  0  0  0  0
   59.1290   26.3620   47.3440 C   0  0  0  0  0  0  0  0  0  0  0  0
   57.8070   26.0630   47.0880 C   0  0  0  0  0  0  0  0  0  0  0  0
   57.0590   26.8140   46.2030 C   0  0  0  0  0  0  0  0  0  0  0  0
   55.7070   26.4420   45.9940 N   0  0  0  0  0  0  0  0  0  0  0  0
   57.6540   27.8910   45.5630 C   0  0  0  0  0  0  0  0  0  0  0  0
   58.4830   30.9030   43.9650 N   0  0  0  0  0  0  0  0  0  0  0  0
   57.9140   32.1330   43.8890 C   0  0  0  0  0  0  0  0  0  0  0  0
   57.9480   32.9810   44.9920 C   0  0  0  0  0  0  0  0  0  0  0  0
   57.2170   34.5470   44.8770 Cl  0  0  0  0  0  0  0  0  0  0  0  0
   59.8292   30.4558   50.5027 H   0  0  0  0  0  0  0  0  0  0  0  0
   58.8864   30.0685   49.0235 H   0  0  0  0  0  0  0  0  0  0  0  0
   60.6732   29.8843   49.0235 H   0  0  0  0  0  0  0  0  0  0  0  0
   62.4172   30.6659   48.8072 H   0  0  0  0  0  0  0  0  0  0  0  0
   64.3017   31.5180   47.5053 H   0  0  0  0  0  0  0  0  0  0  0  0
   64.0702   33.6268   46.1643 H   0  0  0  0  0  0  0  0  0  0  0  0
   61.8855   34.8062   46.1978 H   0  0  0  0  0  0  0  0  0  0  0  0
   59.4847   34.6113   48.4714 H   0  0  0  0  0  0  0  0  0  0  0  0
   59.7259   34.9494   46.7334 H   0  0  0  0  0  0  0  0  0  0  0  0
   59.5750   30.9750   47.0110 H   0  0  0  0  0  0  0  0  0  0  0  0
   60.7673   27.6917   46.8943 H   0  0  0  0  0  0  0  0  0  0  0  0
   59.7122   25.7533   48.0507 H   0  0  0  0  0  0  0  0  0  0  0  0
   57.3390   25.2088   47.5993 H   0  0  0  0  0  0  0  0  0  0  0  0
   55.0290   26.3230   46.7760 H   0  0  0  0  0  0  0  0  0  0  0  0
   55.3060   26.2620   45.0300 H   0  0  0  0  0  0  0  0  0  0  0  0
   57.0628   28.4944   44.8584 H   0  0  0  0  0  0  0  0  0  0  0  0
   58.4650   30.2540   43.1430 H   0  0  0  0  0  0  0  0  0  0  0  0
   57.4272   32.4587   42.9579 H   0  0  0  0  0  0  0  0  0  0  0  0
  1  2  1  0
  2  3  1  0
  3  4  2  0
  4  5  1  0
  5  6  2  0
  6  7  1  0
  7  8  2  0
  8  9  1  0
  9 10  1  0
 10 11  2  0
 11 12  1  0
 12 13  1  0
 13 14  2  0
 14 15  1  0
 15 16  2  0
 16 17  1  0
 17 18  2  0
 18 19  1  0
 19 20  1  0
 19 21  2  0
 13 22  1  0
 22 23  1  0
 23 24  2  0
 24 25  1  0
  8  3  1  0
 24 11  1  0
 21 15  1  0
  1 26  1  0
  1 27  1  0
  1 28  1  0
  4 29  1  0
  5 30  1  0
  6 31  1  0
  7 32  1  0
  9 33  1  0
  9 34  1  0
 12 35  1  0
 16 36  1  0
 17 37  1  0
 18 38  1  0
 20 39  1  0
 20 40  1  0
 21 41  1  0
 22 42  1  0
 23 43  1  0
M  END
>  <smiles>  (92) 
COc1ccccc1CN=c1[nH]c(=Nc2cccc(N)c2)[nH]cc1Cl

>  <score_type>  (92) 
oracle

>  <origin>  (92) 
adg

>  <m_score__min__energy>  (92) 
-7.8399999999999999

>  <m_primary>  (92) 
energy

$$$$
92:0
     RDKit          3D

 49 51  0  0  0  0  0  0  0  0999 V2000
   58.5520   34.4400   45.4820 C   0  0  0  0  0  0  0  0  0  0  0  0
   58.2150   33.0730   45.9970 C   0  0  0  0  0  0  0  0  0  0  0  0
   57.0250   32.6690   45.8850 O   0  0  0  0  0  0  0  0  0  0  0  0
   59.2370   32.1950   46.6280 C   0  0  0  0  0  0  0  0  0  0  0  0
   60.5660   32.6290   46.8020 C   0  0  0  0  0  0  0  0  0  0  0  0
   61.5130   31.7920   47.3940 C   0  0  0  0  0  0  0  0  0  0  0  0
   61.1510   30.5170   47.8270 C   0  0  0  0  0  0  0  0  0  0  0  0
   59.8340   30.0600   47.6770 C   0  0  0  0  0  0  0  0  0  0  0  0
   59.4890   28.7440   48.1530 N   0  0  0  0  0  0  0  0  0  0  0  0
   60.3680   27.5770   48.0650 C   0  0  0  0  0  0  0  0  0  0  0  0
   59.9250   26.6720   46.9530 C   0  0  0  0  0  0  0  0  0  0  0  0
   60.7430   26.3710   46.0410 O   0  0  0  0  0  0  0  0  0  0  0  0
   58.5920   26.1410   46.9360 N   0  0  0  0  0  0  0  0  0  0  0  0
   58.2110   25.0850   46.0440 C   0  0  0  0  0  0  0  0  0  0  0  0
   59.1320   24.0570   45.7990 C   0  0  0  0  0  0  0  0  0  0  0  0
   58.8360   23.0420   44.8900 C   0  0  0  0  0  0  0  0  0  0  0  0
   57.6140   23.0410   44.2180 C   0  0  0  0  0  0  0  0  0  0  0  0
   56.6760   24.0460   44.4670 C   0  0  0  0  0  0  0  0  0  0  0  0
   56.9500   25.0730   45.3910 C   0  0  0  0  0  0  0  0  0  0  0  0
   55.8950   26.0730   45.6870 C   0  0  0  0  0  0  0  0  0  0  0  0
   54.6790   25.7510   45.6260 O   0  0  0  0  0  0  0  0  0  0  0  0
   56.2690   27.4040   46.0710 N   0  0  0  0  0  0  0  0  0  0  0  0
   56.7600   28.4380   45.2050 C   0  0  0  0  0  0  0  0  0  0  0  0
   58.1330   28.6080   44.9460 C   0  0  0  0  0  0  0  0  0  0  0  0
   58.5690   29.6430   44.1130 C   0  0  0  0  0  0  0  0  0  0  0  0
   57.6440   30.5230   43.5450 C   0  0  0  0  0  0  0  0  0  0  0  0
   56.2820   30.3740   43.8150 C   0  0  0  0  0  0  0  0  0  0  0  0
   55.8430   29.3410   44.6490 C   0  0  0  0  0  0  0  0  0  0  0  0
   58.8850   30.9030   47.0640 C   0  0  0  0  0  0  0  0  0  0  0  0
   58.7197   35.1203   46.3300 H   0  0  0  0  0  0  0  0  0  0  0  0
   59.4638   34.3864   44.8690 H   0  0  0  0  0  0  0  0  0  0  0  0
   57.7197   34.8164   44.8690 H   0  0  0  0  0  0  0  0  0  0  0  0
   60.8595   33.6353   46.4687 H   0  0  0  0  0  0  0  0  0  0  0  0
   62.5491   32.1395   47.5195 H   0  0  0  0  0  0  0  0  0  0  0  0
   61.9052   29.8640   48.2903 H   0  0  0  0  0  0  0  0  0  0  0  0
   58.5300   28.5890   48.5370 H   0  0  0  0  0  0  0  0  0  0  0  0
   61.3976   27.9123   47.8712 H   0  0  0  0  0  0  0  0  0  0  0  0
   60.3235   27.0239   49.0148 H   0  0  0  0  0  0  0  0  0  0  0  0
   57.9630   26.3430   47.7450 H   0  0  0  0  0  0  0  0  0  0  0  0
   60.0963   24.0510   46.3283 H   0  0  0  0  0  0  0  0  0  0  0  0
   59.5668   22.2415   44.7028 H   0  0  0  0  0  0  0  0  0  0  0  0
   57.3882   22.2474   43.4905 H   0  0  0  0  0  0  0  0  0  0  0  0
   55.7129   24.0350   43.9356 H   0  0  0  0  0  0  0  0  0  0  0  0
   58.8654   27.9245   45.4003 H   0  0  0  0  0  0  0  0  0  0  0  0
   59.6422   29.7647   43.9044 H   0  0  0  0  0  0  0  0  0  0  0  0
   57.9886   31.3330   42.8853 H   0  0  0  0  0  0  0  0  0  0  0  0
   55.5543   31.0695   43.3715 H   0  0  0  0  0  0  0  0  0  0  0  0
   54.7706   29.2362   44.8704 H   0  0  0  0  0  0  0  0  0  0  0  0
   57.8539   30.5463   46.9241 H   0  0  0  0  0  0  0  0  0  0  0  0
  1  2  1  0
  2  3  2  0
  2  4  1  0
  4  5  2  0
  5  6  1  0
  6  7  2  0
  7  8  1  0
  8  9  1  0
  9 10  1  0
 10 11  1  0
 11 12  2  0
 11 13  1  0
 13 14  1  0
 14 15  2  0
 15 16  1  0
 16 17  2  0
 17 18  1  0
 18 19  2  0
 19 20  1  0
 20 21  2  0
 20 22  1  0
 22 23  1  0
 23 24  2  0
 24 25  1  0
 25 26  2  0
 26 27  1  0
 27 28  2  0
  8 29  2  0
 29  4  1  0
 19 14  1  0
 28 23  1  0
  1 30  1  0
  1 31  1  0
  1 32  1  0
  5 33  1  0
  6 34  1  0
  7 35  1  0
  9 36  1  0
 10 37  1  0
 10 38  1  0
 13 39  1  0
 15 40  1  0
 16 41  1  0
 17 42  1  0
 18 43  1  0
 24 44  1  0
 25 45  1  0
 26 46  1  0
 27 47  1  0
 28 48  1  0
 29 49  1  0
M  CHG  1  22  -1
M  END
>  <UniqueID>  (93) 
85

>  <SMILES>  (93) 
CC(=O)c1cccc(NCC(=O)Nc2ccccc2C(=O)[N-]c2ccccc2)c1

>  <Energy>  (93) 
62.215560756160606

>  <Genealogy>  (93) 
CC(=O)c1cccc(NCC(=O)Nc2ccccc2C(=O)[N-]c2ccccc2)c1 (protonated)
CC(=O)c1cccc(NCC(=O)Nc2ccccc2C(=O)[N-]c2ccccc2)c1 (3D coordinates assigned)
CC(=O)c1cccc(NCC(=O)Nc2ccccc2C(=O)[N-]c2ccccc2)c1 (optimized conformer: 62.215560756160606 kcal/mol)

>  <smiles>  (93) 
CC(=O)c1cccc(NCC(=O)Nc2ccccc2C(=O)Nc2ccccc2)c1

>  <score_type>  (93) 
oracle

>  <origin>  (93) 
adg

>  <m_score__min__energy>  (93) 
-10.49

>  <m_primary>  (93) 
energy

$$$$
93:0
     RDKit          3D

 38 40  0  0  0  0  0  0  0  0999 V2000
   59.8560   29.7130   45.6110 C   0  0  0  0  0  0  0  0  0  0  0  0
   58.5180   29.9500   44.9710 C   0  0  0  0  0  0  0  0  0  0  0  0
   57.7040   28.9900   44.3880 C   0  0  0  0  0  0  0  0  0  0  0  0
   57.9750   27.5580   44.1720 C   0  0  0  0  0  0  0  0  0  0  0  0
   58.7060   27.2090   43.2060 O   0  0  0  0  0  0  0  0  0  0  0  0
   57.4370   26.5590   45.0510 N   0  0  0  0  0  0  0  0  0  0  0  0
   56.9530   25.2920   44.4960 C   0  0  0  0  0  0  0  0  0  0  0  0
   55.7650   24.7390   45.3150 C   0  0  0  0  0  0  0  0  0  0  0  0
   55.7210   25.2120   46.7120 N   0  0  0  0  0  0  0  0  0  0  0  0
   57.0560   25.4970   47.2480 C   0  0  0  0  0  0  0  0  0  0  0  0
   57.6940   26.6680   46.4920 C   0  0  0  0  0  0  0  0  0  0  0  0
   56.5150   29.6430   44.1220 C   0  0  0  0  0  0  0  0  0  0  0  0
   56.6210   30.9320   44.4960 N   0  0  0  0  0  0  0  0  0  0  0  0
   57.8330   31.1170   44.9970 N   0  0  0  0  0  0  0  0  0  0  0  0
   58.2780   32.3820   45.5150 C   0  0  0  0  0  0  0  0  0  0  0  0
   58.4310   32.5570   46.8980 C   0  0  0  0  0  0  0  0  0  0  0  0
   58.8540   33.7900   47.3940 C   0  0  0  0  0  0  0  0  0  0  0  0
   59.1100   34.8400   46.5150 C   0  0  0  0  0  0  0  0  0  0  0  0
   58.9300   34.6430   45.1440 C   0  0  0  0  0  0  0  0  0  0  0  0
   58.5160   33.4340   44.6740 N   0  0  0  0  0  0  0  0  0  0  0  0
   59.7475   29.7322   46.7055 H   0  0  0  0  0  0  0  0  0  0  0  0
   60.2435   28.7322   45.2981 H   0  0  0  0  0  0  0  0  0  0  0  0
   60.5568   30.5010   45.2981 H   0  0  0  0  0  0  0  0  0  0  0  0
   56.6274   25.4563   43.4582 H   0  0  0  0  0  0  0  0  0  0  0  0
   57.7729   24.5597   44.5348 H   0  0  0  0  0  0  0  0  0  0  0  0
   54.8320   25.0435   44.8182 H   0  0  0  0  0  0  0  0  0  0  0  0
   55.8898   23.6468   45.3549 H   0  0  0  0  0  0  0  0  0  0  0  0
   55.1480   26.0880   46.7570 H   0  0  0  0  0  0  0  0  0  0  0  0
   56.9714   25.7561   48.3137 H   0  0  0  0  0  0  0  0  0  0  0  0
   57.6884   24.6053   47.1260 H   0  0  0  0  0  0  0  0  0  0  0  0
   57.2690   27.6119   46.8639 H   0  0  0  0  0  0  0  0  0  0  0  0
   58.7810   26.6458   46.6593 H   0  0  0  0  0  0  0  0  0  0  0  0
   55.6221   29.1817   43.6748 H   0  0  0  0  0  0  0  0  0  0  0  0
   58.2186   31.7267   47.5875 H   0  0  0  0  0  0  0  0  0  0  0  0
   58.9852   33.9330   48.4767 H   0  0  0  0  0  0  0  0  0  0  0  0
   59.4503   35.8139   46.8966 H   0  0  0  0  0  0  0  0  0  0  0  0
   59.1233   35.4672   44.4417 H   0  0  0  0  0  0  0  0  0  0  0  0
   58.3540   33.3320   43.6490 H   0  0  0  0  0  0  0  0  0  0  0  0
  1  2  1  0
  2  3  2  0
  3  4  1  0
  4  5  2  0
  4  6  1  0
  6  7  1  0
  7  8  1  0
  8  9  1  0
  9 10  1  0
 10 11  1  0
  3 12  1  0
 12 13  2  0
 13 14  1  0
 14 15  1  0
 15 16  2  0
 16 17  1  0
 17 18  2  0
 18 19  1  0
 19 20  2  0
 14  2  1  0
 20 15  1  0
 11  6  1  0
  1 21  1  0
  1 22  1  0
  1 23  1  0
  7 24  1  0
  7 25  1  0
  8 26  1  0
  8 27  1  0
  9 28  1  0
 10 29  1  0
 10 30  1  0
 11 31  1  0
 11 32  1  0
 12 33  1  0
 16 34  1  0
 17 35  1  0
 18 36  1  0
 19 37  1  0
 20 38  1  0
M  CHG  1  20   1
M  END
>  <UniqueID>  (94) 
86

>  <SMILES>  (94) 
Cc1c(C(=O)N2CCNCC2)cnn1-c1cccc[nH+]1

>  <Energy>  (94) 
81.94185817386729

>  <Genealogy>  (94) 
Cc1c(C(=O)N2CCNCC2)cnn1-c1cccc[nH+]1 (protonated)
Cc1c(C(=O)N2CCNCC2)cnn1-c1cccc[nH+]1 (3D coordinates assigned)
Cc1c(C(=O)N2CCNCC2)cnn1-c1cccc[nH+]1 (nonaromatic ring conformer: 81.94185817386729 kcal/mol)

>  <smiles>  (94) 
Cc1c(C(=O)N2CCNCC2)cnn1-c1ccccn1

>  <score_type>  (94) 
oracle

>  <origin>  (94) 
adg

>  <m_score__min__energy>  (94) 
-6.2400000000000002

>  <m_primary>  (94) 
energy

$$$$
94:0
     RDKit          3D

 43 46  0  0  0  0  0  0  0  0999 V2000
   58.8219   23.7310   46.9276 H   0  0  0  0  0  0  0  0  0  0  0  0
   58.4910   24.1190   45.9530 C   0  0  0  0  0  0  0  0  0  0  0  0
   58.7930   23.4720   44.8700 N   0  0  0  0  0  0  0  0  0  0  0  0
   57.9380   22.5510   44.2380 N   0  0  0  0  0  0  0  0  0  0  0  0
   56.9000   22.8630   43.4430 C   0  0  0  0  0  0  0  0  0  0  0  0
   56.5970   23.8883   43.1843 H   0  0  0  0  0  0  0  0  0  0  0  0
   56.2810   21.7480   43.0060 N   0  0  0  0  0  0  0  0  0  0  0  0
   56.9370   20.7250   43.5350 N   0  0  0  0  0  0  0  0  0  0  0  0
   56.6960   19.7200   43.3830 H   0  0  0  0  0  0  0  0  0  0  0  0
   57.9430   21.2060   44.2850 C   0  0  0  0  0  0  0  0  0  0  0  0
   58.6608   20.5940   44.8508 H   0  0  0  0  0  0  0  0  0  0  0  0
   57.7110   25.3660   45.8940 C   0  0  0  0  0  0  0  0  0  0  0  0
   56.3360   25.5530   45.7870 C   0  0  0  0  0  0  0  0  0  0  0  0
   55.2680   24.5370   45.8580 C   0  0  0  0  0  0  0  0  0  0  0  0
   54.0300   24.7840   45.2460 C   0  0  0  0  0  0  0  0  0  0  0  0
   53.8650   25.7274   44.7049 H   0  0  0  0  0  0  0  0  0  0  0  0
   53.0050   23.8360   45.3210 C   0  0  0  0  0  0  0  0  0  0  0  0
   52.0422   24.0334   44.8270 H   0  0  0  0  0  0  0  0  0  0  0  0
   53.1940   22.6370   46.0200 C   0  0  0  0  0  0  0  0  0  0  0  0
   52.1360   21.7160   46.0600 O   0  0  0  0  0  0  0  0  0  0  0  0
   50.7930   22.0510   46.3910 C   0  0  0  0  0  0  0  0  0  0  0  0
   50.6810   22.0789   47.4849 H   0  0  0  0  0  0  0  0  0  0  0  0
   50.5473   23.0379   45.9720 H   0  0  0  0  0  0  0  0  0  0  0  0
   50.1126   21.2951   45.9720 H   0  0  0  0  0  0  0  0  0  0  0  0
   54.4260   22.4020   46.6570 C   0  0  0  0  0  0  0  0  0  0  0  0
   54.5837   21.4679   47.2161 H   0  0  0  0  0  0  0  0  0  0  0  0
   55.4500   23.3490   46.5830 C   0  0  0  0  0  0  0  0  0  0  0  0
   56.4050   23.1626   47.0961 H   0  0  0  0  0  0  0  0  0  0  0  0
   56.0820   26.8670   45.6240 N   0  0  0  0  0  0  0  0  0  0  0  0
   57.2380   27.5160   45.6410 N   0  0  0  0  0  0  0  0  0  0  0  0
   57.3490   28.9450   45.4780 C   0  0  0  0  0  0  0  0  0  0  0  0
   56.6540   29.6230   44.4550 C   0  0  0  0  0  0  0  0  0  0  0  0
   56.0104   29.0583   43.7645 H   0  0  0  0  0  0  0  0  0  0  0  0
   56.7780   31.0090   44.3130 C   0  0  0  0  0  0  0  0  0  0  0  0
   56.2307   31.5293   43.5132 H   0  0  0  0  0  0  0  0  0  0  0  0
   57.5940   31.7340   45.1830 C   0  0  0  0  0  0  0  0  0  0  0  0
   57.6872   32.8242   45.0698 H   0  0  0  0  0  0  0  0  0  0  0  0
   58.2920   31.0750   46.1970 C   0  0  0  0  0  0  0  0  0  0  0  0
   58.9364   31.6466   46.8812 H   0  0  0  0  0  0  0  0  0  0  0  0
   58.1730   29.6890   46.3440 C   0  0  0  0  0  0  0  0  0  0  0  0
   58.7280   29.1759   47.1431 H   0  0  0  0  0  0  0  0  0  0  0  0
   58.2470   26.6330   45.8040 C   0  0  0  0  0  0  0  0  0  0  0  0
   59.3170   26.8829   45.8562 H   0  0  0  0  0  0  0  0  0  0  0  0
  1  2  1  0
  2  3  2  0
  3  4  1  0
  4  5  1  0
  5  6  1  0
  5  7  2  0
  7  8  1  0
  8  9  1  0
  8 10  2  0
 10 11  1  0
  2 12  1  0
 12 13  1  0
 13 14  1  0
 14 15  2  0
 15 16  1  0
 15 17  1  0
 17 18  1  0
 17 19  2  0
 19 20  1  0
 20 21  1  0
 21 22  1  0
 21 23  1  0
 21 24  1  0
 19 25  1  0
 25 26  1  0
 25 27  2  0
 27 28  1  0
 13 29  2  0
 29 30  1  0
 30 31  1  0
 31 32  2  0
 32 33  1  0
 32 34  1  0
 34 35  1  0
 34 36  2  0
 36 37  1  0
 36 38  1  0
 38 39  1  0
 38 40  2  0
 40 41  1  0
 30 42  1  0
 42 43  1  0
 10  4  1  0
 42 12  2  0
 27 14  1  0
 40 31  1  0
M  CHG  1   8   1
M  END
>  <UniqueID>  (95) 
87

>  <SMILES>  (95) 
COc1ccc(-c2nn(-c3ccccc3)cc2/C=N/n2cn[nH+]c2)cc1

>  <Energy>  (95) 
121.5611657789163

>  <Genealogy>  (95) 
COc1ccc(-c2nn(-c3ccccc3)cc2C=Nn2cn[nH+]c2)cc1 (protonated)
COc1ccc(-c2nn(-c3ccccc3)cc2/C=N/n2cn[nH+]c2)cc1 (cis-trans isomerization)
COc1ccc(-c2nn(-c3ccccc3)cc2/C=N/n2cn[nH+]c2)cc1 (3D coordinates assigned)
COc1ccc(-c2nn(-c3ccccc3)cc2/C=N/n2cn[nH+]c2)cc1 (optimized conformer: 121.5611657789163 kcal/mol)

>  <smiles>  (95) 
COc1ccc(-c2nn(-c3ccccc3)cc2C=Nn2cnnc2)cc1

>  <score_type>  (95) 
oracle

>  <origin>  (95) 
adg

>  <m_score__min__energy>  (95) 
-6.3600000000000003

>  <m_primary>  (95) 
energy

$$$$
95:0
     RDKit          3D

 34 35  0  0  0  0  0  0  0  0999 V2000
   63.3280   32.8130   47.5910 C   0  0  0  0  0  0  0  0  0  0  0  0
   61.8630   32.9130   47.8900 C   0  0  0  0  0  0  0  0  0  0  0  0
   61.4090   33.7270   48.9400 C   0  0  0  0  0  0  0  0  0  0  0  0
   60.0480   33.7830   49.2480 C   0  0  0  0  0  0  0  0  0  0  0  0
   59.1300   33.0250   48.5150 C   0  0  0  0  0  0  0  0  0  0  0  0
   59.5710   32.2070   47.4600 C   0  0  0  0  0  0  0  0  0  0  0  0
   58.6850   31.4130   46.7170 O   0  0  0  0  0  0  0  0  0  0  0  0
   58.3230   31.6290   45.3780 C   0  0  0  0  0  0  0  0  0  0  0  0
   58.5050   32.8830   44.7680 C   0  0  0  0  0  0  0  0  0  0  0  0
   58.1690   33.0750   43.4270 C   0  0  0  0  0  0  0  0  0  0  0  0
   57.6480   32.0170   42.6710 C   0  0  0  0  0  0  0  0  0  0  0  0
   57.3330   32.2110   41.2180 C   0  0  0  0  0  0  0  0  0  0  0  0
   57.4980   30.7540   43.2630 C   0  0  0  0  0  0  0  0  0  0  0  0
   57.8210   30.5550   44.6150 C   0  0  0  0  0  0  0  0  0  0  0  0
   57.6690   29.1830   45.2220 C   0  0  0  0  0  0  0  0  0  0  0  0
   56.2290   28.7820   45.2360 C   0  0  0  0  0  0  0  0  0  0  0  0
   55.3420   29.5920   44.8540 O   0  0  0  0  0  0  0  0  0  0  0  0
   55.8670   27.4990   45.6240 O   0  0  0  0  0  0  0  0  0  0  0  0
   60.9390   32.1390   47.1690 C   0  0  0  0  0  0  0  0  0  0  0  0
   63.8929   32.7744   48.5341 H   0  0  0  0  0  0  0  0  0  0  0  0
   63.5221   31.8995   47.0097 H   0  0  0  0  0  0  0  0  0  0  0  0
   63.6444   33.6916   47.0097 H   0  0  0  0  0  0  0  0  0  0  0  0
   62.1277   34.3226   49.5220 H   0  0  0  0  0  0  0  0  0  0  0  0
   59.6974   34.4251   50.0694 H   0  0  0  0  0  0  0  0  0  0  0  0
   58.0595   33.0687   48.7644 H   0  0  0  0  0  0  0  0  0  0  0  0
   58.9156   33.7195   45.3526 H   0  0  0  0  0  0  0  0  0  0  0  0
   58.3139   34.0612   42.9618 H   0  0  0  0  0  0  0  0  0  0  0  0
   56.4002   32.7855   41.1186 H   0  0  0  0  0  0  0  0  0  0  0  0
   58.1548   32.7597   40.7347 H   0  0  0  0  0  0  0  0  0  0  0  0
   57.2129   31.2302   40.7347 H   0  0  0  0  0  0  0  0  0  0  0  0
   57.1239   29.9117   42.6625 H   0  0  0  0  0  0  0  0  0  0  0  0
   58.2427   28.4569   44.6274 H   0  0  0  0  0  0  0  0  0  0  0  0
   58.0462   29.2035   46.2551 H   0  0  0  0  0  0  0  0  0  0  0  0
   61.2933   31.4732   46.3683 H   0  0  0  0  0  0  0  0  0  0  0  0
  1  2  1  0
  2  3  2  0
  3  4  1  0
  4  5  2  0
  5  6  1  0
  6  7  1  0
  7  8  1  0
  8  9  2  0
  9 10  1  0
 10 11  2  0
 11 12  1  0
 11 13  1  0
 13 14  2  0
 14 15  1  0
 15 16  1  0
 16 17  2  0
 16 18  1  0
  6 19  2  0
 19  2  1  0
 14  8  1  0
  1 20  1  0
  1 21  1  0
  1 22  1  0
  3 23  1  0
  4 24  1  0
  5 25  1  0
  9 26  1  0
 10 27  1  0
 12 28  1  0
 12 29  1  0
 12 30  1  0
 13 31  1  0
 15 32  1  0
 15 33  1  0
 19 34  1  0
M  CHG  1  18  -1
M  END
>  <UniqueID>  (96) 
88

>  <SMILES>  (96) 
Cc1cccc(Oc2ccc(C)cc2CC(=O)[O-])c1

>  <Energy>  (96) 
37.73739727052387

>  <Genealogy>  (96) 
Cc1cccc(Oc2ccc(C)cc2CC(=O)[O-])c1 (protonated)
Cc1cccc(Oc2ccc(C)cc2CC(=O)[O-])c1 (3D coordinates assigned)
Cc1cccc(Oc2ccc(C)cc2CC(=O)[O-])c1 (optimized conformer: 37.73739727052387 kcal/mol)

>  <smiles>  (96) 
Cc1cccc(Oc2ccc(C)cc2CC(=O)O)c1

>  <score_type>  (96) 
oracle

>  <origin>  (96) 
adg

>  <m_score__min__energy>  (96) 
-10.130000000000001

>  <m_primary>  (96) 
energy

$$$$
