0:0
     RDKit          3D

 28 30  0  0  0  0  0  0  0  0999 V2000
   56.4140   30.9030   51.4780 O   0  0  0  0  0  0  0  0  0  0  0  0
   56.3130   29.9890   52.3440 C   0  0  0  0  0  0  0  0  0  0  0  0
   55.0630   29.7050   52.9290 C   0  0  0  0  0  0  0  0  0  0  0  0
   53.8470   30.4830   52.5830 C   0  0  0  0  0  0  0  0  0  0  0  0
   52.9130   30.8200   53.5790 C   0  0  0  0  0  0  0  0  0  0  0  0
   51.7710   31.5610   53.2560 C   0  0  0  0  0  0  0  0  0  0  0  0
   51.5530   31.9760   51.9400 C   0  0  0  0  0  0  0  0  0  0  0  0
   50.4180   32.7110   51.6210 O   0  0  0  0  0  0  0  0  0  0  0  0
   52.4790   31.6520   50.9440 C   0  0  0  0  0  0  0  0  0  0  0  0
   53.6220   30.9120   51.2630 C   0  0  0  0  0  0  0  0  0  0  0  0
   54.9740   28.6550   53.8570 C   0  0  0  0  0  0  0  0  0  0  0  0
   56.0730   27.9330   54.1990 N   0  0  0  0  0  0  0  0  0  0  0  0
   57.2970   28.1940   53.6570 C   0  0  0  0  0  0  0  0  0  0  0  0
   58.4140   27.4300   54.0340 C   0  0  0  0  0  0  0  0  0  0  0  0
   59.6670   27.6950   53.4770 C   0  0  0  0  0  0  0  0  0  0  0  0
   59.8170   28.7200   52.5410 C   0  0  0  0  0  0  0  0  0  0  0  0
   58.7150   29.4880   52.1560 C   0  0  0  0  0  0  0  0  0  0  0  0
   57.4450   29.2340   52.7100 C   0  0  0  0  0  0  0  0  0  0  0  0
   53.0812   30.4992   54.6177 H   0  0  0  0  0  0  0  0  0  0  0  0
   51.0432   31.8174   54.0400 H   0  0  0  0  0  0  0  0  0  0  0  0
   52.3083   31.9796   49.9079 H   0  0  0  0  0  0  0  0  0  0  0  0
   54.3497   30.6640   50.4762 H   0  0  0  0  0  0  0  0  0  0  0  0
   54.0023   28.4139   54.3128 H   0  0  0  0  0  0  0  0  0  0  0  0
   55.9610   27.1640   54.8980 H   0  0  0  0  0  0  0  0  0  0  0  0
   58.3014   26.6205   54.7702 H   0  0  0  0  0  0  0  0  0  0  0  0
   60.5384   27.0943   53.7767 H   0  0  0  0  0  0  0  0  0  0  0  0
   60.8062   28.9237   52.1051 H   0  0  0  0  0  0  0  0  0  0  0  0
   58.8396   30.2938   51.4177 H   0  0  0  0  0  0  0  0  0  0  0  0
  1  2  2  0
  2  3  1  0
  3  4  1  0
  4  5  2  0
  5  6  1  0
  6  7  2  0
  7  8  1  0
  7  9  1  0
  9 10  2  0
  3 11  2  0
 11 12  1  0
 12 13  1  0
 13 14  2  0
 14 15  1  0
 15 16  2  0
 16 17  1  0
 17 18  2  0
 18  2  1  0
 10  4  1  0
 18 13  1  0
  5 19  1  0
  6 20  1  0
  9 21  1  0
 10 22  1  0
 11 23  1  0
 12 24  1  0
 14 25  1  0
 15 26  1  0
 16 27  1  0
 17 28  1  0
M  CHG  1   8  -1
M  END
>  <UniqueID>  (1) 
1

>  <SMILES>  (1) 
O=c1c(-c2ccc([O-])cc2)c[nH]c2ccccc12

>  <Energy>  (1) 
42.56919054649939

>  <Genealogy>  (1) 
O=c1c(-c2ccc([O-])cc2)c[nH]c2ccccc12 (protonated)
O=c1c(-c2ccc([O-])cc2)c[nH]c2ccccc12 (3D coordinates assigned)
O=c1c(-c2ccc([O-])cc2)c[nH]c2ccccc12 (optimized conformer: 42.56919054649939 kcal/mol)

>  <smiles>  (1) 
O=c1c(-c2ccc(O)cc2)c[nH]c2ccccc12

>  <score_type>  (1) 
oracle

>  <origin>  (1) 
adg

>  <m_score__min__energy>  (1) 
-9.5700000000000003

>  <m_primary>  (1) 
energy

$$$$
1:0
     RDKit          3D

 46 49  0  0  0  0  0  0  0  0999 V2000
   53.7450   22.6800   45.0880 N   0  0  0  0  0  0  0  0  0  0  0  0
   55.1870   22.9500   44.1720 S   0  0  0  0  0  0  0  0  0  0  0  0
   55.9810   21.6740   44.1330 O   0  0  0  0  0  0  0  0  0  0  0  0
   54.8240   23.3560   42.7720 O   0  0  0  0  0  0  0  0  0  0  0  0
   56.1390   24.2250   44.9230 C   0  0  0  0  0  0  0  0  0  0  0  0
   57.5340   24.2420   44.7840 C   0  0  0  0  0  0  0  0  0  0  0  0
   58.2860   25.2620   45.3720 C   0  0  0  0  0  0  0  0  0  0  0  0
   57.6520   26.2890   46.0900 C   0  0  0  0  0  0  0  0  0  0  0  0
   58.4160   27.3380   46.7090 N   0  0  0  0  0  0  0  0  0  0  0  0
   59.1200   27.1470   47.8150 N   0  0  0  0  0  0  0  0  0  0  0  0
   59.7790   28.2910   48.0850 C   0  0  0  0  0  0  0  0  0  0  0  0
   60.6610   28.4700   49.2430 C   0  0  0  0  0  0  0  0  0  0  0  0
   61.0690   27.4620   49.8820 O   0  0  0  0  0  0  0  0  0  0  0  0
   61.0930   29.7890   49.6020 N   0  0  0  0  0  0  0  0  0  0  0  0
   60.7400   31.0150   48.9440 C   0  0  0  0  0  0  0  0  0  0  0  0
   59.5450   31.7020   49.2320 C   0  0  0  0  0  0  0  0  0  0  0  0
   59.2310   32.8820   48.5500 C   0  0  0  0  0  0  0  0  0  0  0  0
   60.0950   33.3770   47.5690 C   0  0  0  0  0  0  0  0  0  0  0  0
   59.6600   34.9880   46.6380 Br  0  0  0  0  0  0  0  0  0  0  0  0
   61.2710   32.6870   47.2630 C   0  0  0  0  0  0  0  0  0  0  0  0
   61.5880   31.5070   47.9430 C   0  0  0  0  0  0  0  0  0  0  0  0
   59.4900   29.2400   47.1240 C   0  0  0  0  0  0  0  0  0  0  0  0
   58.6120   28.6050   46.2670 C   0  0  0  0  0  0  0  0  0  0  0  0
   57.9270   29.2540   45.1280 C   0  0  0  0  0  0  0  0  0  0  0  0
   57.5740   28.4970   43.9980 C   0  0  0  0  0  0  0  0  0  0  0  0
   56.9350   29.1060   42.9130 C   0  0  0  0  0  0  0  0  0  0  0  0
   56.6530   30.4740   42.9420 C   0  0  0  0  0  0  0  0  0  0  0  0
   57.0160   31.2380   44.0540 C   0  0  0  0  0  0  0  0  0  0  0  0
   57.6560   30.6340   45.1410 C   0  0  0  0  0  0  0  0  0  0  0  0
   56.2580   26.2600   46.2400 C   0  0  0  0  0  0  0  0  0  0  0  0
   55.5040   25.2390   45.6530 C   0  0  0  0  0  0  0  0  0  0  0  0
   53.6730   21.6500   45.2470 H   0  0  0  0  0  0  0  0  0  0  0  0
   58.0378   23.4500   44.2104 H   0  0  0  0  0  0  0  0  0  0  0  0
   59.3814   25.2607   45.2720 H   0  0  0  0  0  0  0  0  0  0  0  0
   58.8568   31.3096   49.9952 H   0  0  0  0  0  0  0  0  0  0  0  0
   58.3021   33.4217   48.7861 H   0  0  0  0  0  0  0  0  0  0  0  0
   61.9480   33.0725   46.4864 H   0  0  0  0  0  0  0  0  0  0  0  0
   62.5092   30.9614   47.6904 H   0  0  0  0  0  0  0  0  0  0  0  0
   59.8726   30.2691   47.0563 H   0  0  0  0  0  0  0  0  0  0  0  0
   57.8011   27.4212   43.9666 H   0  0  0  0  0  0  0  0  0  0  0  0
   56.6538   28.5064   42.0347 H   0  0  0  0  0  0  0  0  0  0  0  0
   56.1454   30.9494   42.0897 H   0  0  0  0  0  0  0  0  0  0  0  0
   56.7981   32.3160   44.0746 H   0  0  0  0  0  0  0  0  0  0  0  0
   57.9488   31.2412   46.0103 H   0  0  0  0  0  0  0  0  0  0  0  0
   55.7545   27.0452   46.8230 H   0  0  0  0  0  0  0  0  0  0  0  0
   54.4097   25.2317   45.7645 H   0  0  0  0  0  0  0  0  0  0  0  0
  1  2  1  0
  2  3  2  0
  2  4  2  0
  2  5  1  0
  5  6  2  0
  6  7  1  0
  7  8  2  0
  8  9  1  0
  9 10  1  0
 10 11  2  0
 11 12  1  0
 12 13  2  0
 12 14  1  0
 14 15  1  0
 15 16  2  0
 16 17  1  0
 17 18  2  0
 18 19  1  0
 18 20  1  0
 20 21  2  0
 11 22  1  0
 22 23  2  0
 23 24  1  0
 24 25  2  0
 25 26  1  0
 26 27  2  0
 27 28  1  0
 28 29  2  0
  8 30  1  0
 30 31  2  0
 31  5  1  0
 23  9  1  0
 29 24  1  0
 21 15  1  0
  1 32  1  0
  6 33  1  0
  7 34  1  0
 16 35  1  0
 17 36  1  0
 20 37  1  0
 21 38  1  0
 22 39  1  0
 25 40  1  0
 26 41  1  0
 27 42  1  0
 28 43  1  0
 29 44  1  0
 30 45  1  0
 31 46  1  0
M  CHG  2   1  -1  14  -1
M  END
>  <UniqueID>  (2) 
2

>  <SMILES>  (2) 
[NH-]S(=O)(=O)c1ccc(-n2nc(C(=O)[N-]c3ccc(Br)cc3)cc2-c2ccccc2)cc1

>  <Energy>  (2) 
92.05153485403672

>  <Genealogy>  (2) 
[NH-]S(=O)(=O)c1ccc(-n2nc(C(=O)[N-]c3ccc(Br)cc3)cc2-c2ccccc2)cc1 (protonated)
[NH-]S(=O)(=O)c1ccc(-n2nc(C(=O)[N-]c3ccc(Br)cc3)cc2-c2ccccc2)cc1 (3D coordinates assigned)
[NH-]S(=O)(=O)c1ccc(-n2nc(C(=O)[N-]c3ccc(Br)cc3)cc2-c2ccccc2)cc1 (optimized conformer: 92.05153485403672 kcal/mol)

>  <smiles>  (2) 
NS(=O)(=O)c1ccc(-n2nc(C(=O)Nc3ccc(Br)cc3)cc2-c2ccccc2)cc1

>  <score_type>  (2) 
oracle

>  <origin>  (2) 
adg

>  <m_score__min__energy>  (2) 
-11.84

>  <m_primary>  (2) 
energy

$$$$
2:0
     RDKit          3D

 55 58  0  0  0  0  0  0  0  0999 V2000
   61.3052   26.5575   49.0477 H   0  0  0  0  0  0  0  0  0  0  0  0
   60.7210   27.4680   49.2470 C   0  0  0  0  0  0  0  0  0  0  0  0
   61.0860   28.6470   50.3890 S   0  0  0  0  0  0  0  0  0  0  0  0
   59.7420   29.5930   49.9950 C   0  0  0  0  0  0  0  0  0  0  0  0
   59.3880   30.7100   50.5590 N   0  0  0  0  0  0  0  0  0  0  0  0
   58.6920   31.8130   49.9520 C   0  0  0  0  0  0  0  0  0  0  0  0
   57.6450   32.2830   50.4760 O   0  0  0  0  0  0  0  0  0  0  0  0
   59.2150   32.3980   48.6940 C   0  0  0  0  0  0  0  0  0  0  0  0
   58.3110   32.9350   47.7620 C   0  0  0  0  0  0  0  0  0  0  0  0
   57.2314   32.9047   47.9707 H   0  0  0  0  0  0  0  0  0  0  0  0
   58.7690   33.5060   46.5750 C   0  0  0  0  0  0  0  0  0  0  0  0
   58.0511   33.9282   45.8564 H   0  0  0  0  0  0  0  0  0  0  0  0
   60.1340   33.5430   46.2970 C   0  0  0  0  0  0  0  0  0  0  0  0
   60.4884   33.9966   45.3596 H   0  0  0  0  0  0  0  0  0  0  0  0
   61.0590   33.0060   47.2040 C   0  0  0  0  0  0  0  0  0  0  0  0
   62.5300   33.0930   46.8930 C   0  0  0  0  0  0  0  0  0  0  0  0
   63.1019   33.1268   47.8320 H   0  0  0  0  0  0  0  0  0  0  0  0
   62.8343   32.2113   46.3099 H   0  0  0  0  0  0  0  0  0  0  0  0
   62.7282   34.0044   46.3099 H   0  0  0  0  0  0  0  0  0  0  0  0
   60.6030   32.4570   48.4220 C   0  0  0  0  0  0  0  0  0  0  0  0
   61.5530   32.0120   49.3950 N   0  0  0  0  0  0  0  0  0  0  0  0
   62.5420   33.1330   50.2710 S   0  0  0  0  0  0  0  0  0  0  0  0
   61.9400   33.3870   51.6250 O   0  0  0  0  0  0  0  0  0  0  0  0
   62.5880   34.4320   49.5150 O   0  0  0  0  0  0  0  0  0  0  0  0
   64.1770   32.5000   50.4570 C   0  0  0  0  0  0  0  0  0  0  0  0
   64.4050   31.2970   51.1450 C   0  0  0  0  0  0  0  0  0  0  0  0
   63.5555   30.7213   51.5412 H   0  0  0  0  0  0  0  0  0  0  0  0
   65.7110   30.8300   51.3270 C   0  0  0  0  0  0  0  0  0  0  0  0
   65.8872   29.8862   51.8638 H   0  0  0  0  0  0  0  0  0  0  0  0
   66.7930   31.5620   50.8270 C   0  0  0  0  0  0  0  0  0  0  0  0
   67.8197   31.1950   50.9729 H   0  0  0  0  0  0  0  0  0  0  0  0
   66.5700   32.7580   50.1430 C   0  0  0  0  0  0  0  0  0  0  0  0
   67.4218   33.3336   49.7518 H   0  0  0  0  0  0  0  0  0  0  0  0
   65.2660   33.2260   49.9540 C   0  0  0  0  0  0  0  0  0  0  0  0
   65.0941   34.1661   49.4093 H   0  0  0  0  0  0  0  0  0  0  0  0
   59.0120   29.0290   49.0100 N   0  0  0  0  0  0  0  0  0  0  0  0
   59.5470   27.8480   48.5970 C   0  0  0  0  0  0  0  0  0  0  0  0
   58.9260   27.0410   47.4970 C   0  0  0  0  0  0  0  0  0  0  0  0
   59.5648   26.1704   47.2873 H   0  0  0  0  0  0  0  0  0  0  0  0
   57.9257   26.7211   47.8243 H   0  0  0  0  0  0  0  0  0  0  0  0
   58.7760   27.8520   46.2400 C   0  0  0  0  0  0  0  0  0  0  0  0
   59.2430   27.4130   45.1530 O   0  0  0  0  0  0  0  0  0  0  0  0
   58.0820   29.1100   46.2770 N   0  0  0  0  0  0  0  0  0  0  0  0
   57.9600   29.5710   47.2060 H   0  0  0  0  0  0  0  0  0  0  0  0
   57.5960   29.7970   45.1080 C   0  0  0  0  0  0  0  0  0  0  0  0
   58.3990   30.7360   44.4300 C   0  0  0  0  0  0  0  0  0  0  0  0
   59.4037   30.9732   44.8099 H   0  0  0  0  0  0  0  0  0  0  0  0
   57.9240   31.3670   43.2770 C   0  0  0  0  0  0  0  0  0  0  0  0
   58.5516   32.1069   42.7587 H   0  0  0  0  0  0  0  0  0  0  0  0
   56.6550   31.0610   42.7810 C   0  0  0  0  0  0  0  0  0  0  0  0
   56.2825   31.5625   41.8756 H   0  0  0  0  0  0  0  0  0  0  0  0
   55.8590   30.1180   43.4350 C   0  0  0  0  0  0  0  0  0  0  0  0
   54.8614   29.8746   43.0405 H   0  0  0  0  0  0  0  0  0  0  0  0
   56.3260   29.4820   44.5900 C   0  0  0  0  0  0  0  0  0  0  0  0
   55.5190   28.5400   45.2230 O   0  0  0  0  0  0  0  0  0  0  0  0
  1  2  1  0
  2  3  1  0
  3  4  1  0
  4  5  2  0
  5  6  1  0
  6  7  2  0
  6  8  1  0
  8  9  2  0
  9 10  1  0
  9 11  1  0
 11 12  1  0
 11 13  2  0
 13 14  1  0
 13 15  1  0
 15 16  1  0
 16 17  1  0
 16 18  1  0
 16 19  1  0
 15 20  2  0
 20 21  1  0
 21 22  1  0
 22 23  2  0
 22 24  2  0
 22 25  1  0
 25 26  2  0
 26 27  1  0
 26 28  1  0
 28 29  1  0
 28 30  2  0
 30 31  1  0
 30 32  1  0
 32 33  1  0
 32 34  2  0
 34 35  1  0
  4 36  1  0
 36 37  1  0
 37 38  1  0
 38 39  1  0
 38 40  1  0
 38 41  1  0
 41 42  2  0
 41 43  1  0
 43 44  1  0
 43 45  1  0
 45 46  2  0
 46 47  1  0
 46 48  1  0
 48 49  1  0
 48 50  2  0
 50 51  1  0
 50 52  1  0
 52 53  1  0
 52 54  2  0
 54 55  1  0
 37  2  2  0
 54 45  1  0
 20  8  1  0
 34 25  1  0
M  CHG  3  21  -1  36  -1  55  -1
M  END
>  <UniqueID>  (3) 
3

>  <SMILES>  (3) 
Cc1cccc(C(=O)/N=c2/[n-]c(CC(=O)Nc3ccccc3[O-])cs2)c1[N-]S(=O)(=O)c1ccccc1

>  <Energy>  (3) 
104.83731119072101

>  <Genealogy>  (3) 
Cc1cccc(C(=O)N=c2[n-]c(CC(=O)Nc3ccccc3[O-])cs2)c1[N-]S(=O)(=O)c1ccccc1 (protonated)
Cc1cccc(C(=O)/N=c2/[n-]c(CC(=O)Nc3ccccc3[O-])cs2)c1[N-]S(=O)(=O)c1ccccc1 (cis-trans isomerization)
Cc1cccc(C(=O)/N=c2/[n-]c(CC(=O)Nc3ccccc3[O-])cs2)c1[N-]S(=O)(=O)c1ccccc1 (3D coordinates assigned)
Cc1cccc(C(=O)/N=c2/[n-]c(CC(=O)Nc3ccccc3[O-])cs2)c1[N-]S(=O)(=O)c1ccccc1 (optimized conformer: 104.83731119072101 kcal/mol)

>  <smiles>  (3) 
Cc1cccc(C(=O)N=c2[nH]c(CC(=O)Nc3ccccc3O)cs2)c1NS(=O)(=O)c1ccccc1

>  <score_type>  (3) 
oracle

>  <origin>  (3) 
adg

>  <m_score__min__energy>  (3) 
-16.059999999999999

>  <m_primary>  (3) 
energy

$$$$
3:0
     RDKit          3D

 56 59  0  0  1  0  0  0  0  0999 V2000
   60.1980   29.4130   49.2440 C   0  0  0  0  0  0  0  0  0  0  0  0
   58.9220   29.8020   48.7820 O   0  0  0  0  0  0  0  0  0  0  0  0
   58.6750   30.0800   47.4450 C   0  0  0  0  0  0  0  0  0  0  0  0
   58.6460   28.9990   46.5810 C   0  0  0  0  0  0  0  0  0  0  0  0
   58.4060   29.2350   45.2590 C   0  0  0  0  0  0  0  0  0  0  0  0
   58.3670   28.1160   44.3150 C   0  0  0  0  0  0  0  0  0  0  0  0
   57.5240   28.1830   43.1590 N   0  0  0  0  0  0  0  0  0  0  0  0
   59.0460   27.0920   44.4710 O   0  0  0  0  0  0  0  0  0  0  0  0
   58.1980   30.5190   44.7990 C   0  0  0  0  0  0  0  0  0  0  0  0
   57.9610   30.7140   43.4700 N   0  0  0  0  0  0  0  0  0  0  0  0
   57.7590   31.9620   43.0260 C   0  0  0  0  0  0  0  0  0  0  0  0
   57.7910   32.9940   43.8750 N   0  0  0  0  0  0  0  0  0  0  0  0
   58.0170   32.8820   45.1920 C   0  0  0  0  0  0  0  0  0  0  0  0
   58.0390   33.8900   45.9600 N   0  0  0  0  0  0  0  0  0  0  0  0
   59.1210   34.8060   46.0830 C   0  0  0  0  0  0  0  0  0  0  0  0
   60.2560   34.2140   46.8790 C   0  0  0  0  0  0  0  0  0  0  0  0
   61.5400   34.1790   46.4330 C   0  0  0  0  0  0  0  0  0  0  0  0
   62.5760   33.6280   47.1760 C   0  0  0  0  0  0  0  0  0  0  0  0
   62.3160   33.0900   48.4200 C   0  0  0  0  0  0  0  0  0  0  0  0
   61.0220   33.1120   48.8980 C   0  0  0  0  0  0  0  0  0  0  0  0
   60.7470   32.5510   50.1970 N   0  0  0  0  0  0  0  0  0  0  0  0
   59.8290   33.2920   51.0020 C   0  0  0  0  0  0  0  0  0  0  0  0
   59.2930   34.3700   50.5980 O   0  0  0  0  0  0  0  0  0  0  0  0
   59.5250   32.7390   52.3480 C   0  0  0  0  0  0  0  0  0  0  0  0
   58.3260   31.8940   52.3550 C   0  0  0  0  0  0  0  0  0  0  0  0
   58.4760   30.5180   52.3700 C   0  0  0  0  0  0  0  0  0  0  0  0
   57.3910   29.6590   52.3760 C   0  0  0  0  0  0  0  0  0  0  0  0
   56.1280   30.2120   52.3670 C   0  0  0  0  0  0  0  0  0  0  0  0
   55.9950   31.5740   52.3520 C   0  0  0  0  0  0  0  0  0  0  0  0
   57.0630   32.4360   52.3450 C   0  0  0  0  0  0  0  0  0  0  0  0
   60.0190   33.6620   48.1440 C   0  0  0  0  0  0  0  0  0  0  0  0
   58.2300   31.5880   45.6730 C   0  0  0  0  0  0  0  0  0  0  0  0
   58.4730   31.3770   47.0250 C   0  0  0  0  0  0  0  0  0  0  0  0
   60.2048   29.4109   50.3440 H   0  0  0  0  0  0  0  0  0  0  0  0
   60.4298   28.4034   48.8740 H   0  0  0  0  0  0  0  0  0  0  0  0
   60.9537   30.1216   48.8740 H   0  0  0  0  0  0  0  0  0  0  0  0
   58.8121   27.9764   46.9507 H   0  0  0  0  0  0  0  0  0  0  0  0
   57.7560   28.7970   42.3440 H   0  0  0  0  0  0  0  0  0  0  0  0
   56.6470   27.6240   43.0810 H   0  0  0  0  0  0  0  0  0  0  0  0
   57.5659   32.1382   41.9575 H   0  0  0  0  0  0  0  0  0  0  0  0
   57.6300   33.9390   43.4850 H   0  0  0  0  0  0  0  0  0  0  0  0
   59.4859   35.0656   45.0783 H   0  0  0  0  0  0  0  0  0  0  0  0
   58.7585   35.7007   46.6103 H   0  0  0  0  0  0  0  0  0  0  0  0
   61.7673   34.6041   45.4442 H   0  0  0  0  0  0  0  0  0  0  0  0
   63.6000   33.6204   46.7744 H   0  0  0  0  0  0  0  0  0  0  0  0
   63.1267   32.6511   49.0202 H   0  0  0  0  0  0  0  0  0  0  0  0
   61.1960   31.6660   50.5120 H   0  0  0  0  0  0  0  0  0  0  0  0
   60.3822   32.1364   52.6827 H   0  0  0  0  0  0  0  0  0  0  0  0
   59.3371   33.5882   53.0215 H   0  0  0  0  0  0  0  0  0  0  0  0
   59.4908   30.0935   52.3774 H   0  0  0  0  0  0  0  0  0  0  0  0
   57.5319   28.5681   52.3876 H   0  0  0  0  0  0  0  0  0  0  0  0
   55.2377   29.5660   52.3718 H   0  0  0  0  0  0  0  0  0  0  0  0
   54.9806   31.9995   52.3452 H   0  0  0  0  0  0  0  0  0  0  0  0
   56.9130   33.5256   52.3318 H   0  0  0  0  0  0  0  0  0  0  0  0
   58.9948   33.6703   48.5451 H   0  0  0  0  0  0  0  0  0  0  0  0
   58.5031   32.2163   47.7354 H   0  0  0  0  0  0  0  0  0  0  0  0
  1  2  1  0
  2  3  1  0
  3  4  2  0
  4  5  1  0
  5  6  1  0
  6  7  1  0
  6  8  2  0
  5  9  2  0
  9 10  1  0
 10 11  2  0
 11 12  1  0
 12 13  1  0
 13 14  2  0
 14 15  1  0
 15 16  1  0
 16 17  2  0
 17 18  1  0
 18 19  2  0
 19 20  1  0
 20 21  1  0
 21 22  1  0
 22 23  2  0
 22 24  1  0
 24 25  1  0
 25 26  2  0
 26 27  1  0
 27 28  2  0
 28 29  1  0
 29 30  2  0
 20 31  2  0
 13 32  1  0
 32 33  2  0
 33  3  1  0
 32  9  1  0
 31 16  1  0
 30 25  1  0
  1 34  1  0
  1 35  1  0
  1 36  1  0
  4 37  1  0
  7 38  1  0
  7 39  1  0
 11 40  1  0
 12 41  1  0
 15 42  1  0
 15 43  1  0
 17 44  1  0
 18 45  1  0
 19 46  1  0
 21 47  1  0
 24 48  1  0
 24 49  1  0
 26 50  1  0
 27 51  1  0
 28 52  1  0
 29 53  1  0
 30 54  1  0
 31 55  1  0
 33 56  1  0
M  END
>  <smiles>  (4) 
COc1cc(C(N)=O)c2nc[nH]c(=NCc3cccc(NC(=O)Cc4ccccc4)c3)c2c1

>  <score_type>  (4) 
oracle

>  <origin>  (4) 
adg

>  <m_score__min__energy>  (4) 
-9.1999999999999993

>  <m_primary>  (4) 
energy

$$$$
4:0
     RDKit          3D

 47 49  0  0  0  0  0  0  0  0999 V2000
   55.4140   29.2520   44.8400 N   0  0  0  0  0  0  0  0  0  0  0  0
   56.7550   29.7860   43.8910 S   0  0  0  0  0  0  0  0  0  0  0  0
   56.3070   30.8690   42.9490 O   0  0  0  0  0  0  0  0  0  0  0  0
   57.2910   28.6360   43.0850 O   0  0  0  0  0  0  0  0  0  0  0  0
   58.0070   30.4080   44.9580 C   0  0  0  0  0  0  0  0  0  0  0  0
   57.7510   31.5270   45.7600 C   0  0  0  0  0  0  0  0  0  0  0  0
   58.7140   31.9760   46.6670 C   0  0  0  0  0  0  0  0  0  0  0  0
   59.9350   31.2930   46.7990 C   0  0  0  0  0  0  0  0  0  0  0  0
   60.8800   31.6550   47.8160 N   0  0  0  0  0  0  0  0  0  0  0  0
   60.8520   31.1520   49.1600 C   0  0  0  0  0  0  0  0  0  0  0  0
   61.6980   31.5710   49.9910 O   0  0  0  0  0  0  0  0  0  0  0  0
   59.8830   30.1790   49.5770 N   0  0  0  0  0  0  0  0  0  0  0  0
   59.6930   28.9180   48.9240 C   0  0  0  0  0  0  0  0  0  0  0  0
   60.6470   27.8960   49.0460 C   0  0  0  0  0  0  0  0  0  0  0  0
   60.5020   26.7130   48.3190 C   0  0  0  0  0  0  0  0  0  0  0  0
   59.4190   26.5520   47.4510 C   0  0  0  0  0  0  0  0  0  0  0  0
   58.4580   27.5660   47.3150 C   0  0  0  0  0  0  0  0  0  0  0  0
   57.4030   27.4080   46.3500 N   0  0  0  0  0  0  0  0  0  0  0  0
   57.5360   26.5820   45.1480 C   0  0  0  0  0  0  0  0  0  0  0  0
   56.6620   25.3580   45.2460 C   0  0  0  0  0  0  0  0  0  0  0  0
   57.2000   24.0930   44.9650 C   0  0  0  0  0  0  0  0  0  0  0  0
   56.4140   22.9450   45.0940 C   0  0  0  0  0  0  0  0  0  0  0  0
   55.0770   23.0390   45.5160 C   0  0  0  0  0  0  0  0  0  0  0  0
   54.2420   21.8260   45.6530 C   0  0  0  0  0  0  0  0  0  0  0  0
   52.9850   21.9100   45.6470 O   0  0  0  0  0  0  0  0  0  0  0  0
   54.8330   20.5760   45.7900 O   0  0  0  0  0  0  0  0  0  0  0  0
   54.5430   24.3060   45.8100 C   0  0  0  0  0  0  0  0  0  0  0  0
   55.3290   25.4560   45.6840 C   0  0  0  0  0  0  0  0  0  0  0  0
   54.7780   26.6950   45.9990 O   0  0  0  0  0  0  0  0  0  0  0  0
   58.5820   28.7340   48.0930 C   0  0  0  0  0  0  0  0  0  0  0  0
   60.2120   30.2100   45.9580 C   0  0  0  0  0  0  0  0  0  0  0  0
   59.2470   29.7590   45.0500 C   0  0  0  0  0  0  0  0  0  0  0  0
   55.1600   28.2970   44.5030 H   0  0  0  0  0  0  0  0  0  0  0  0
   56.7891   32.0539   45.6756 H   0  0  0  0  0  0  0  0  0  0  0  0
   58.5158   32.8675   47.2801 H   0  0  0  0  0  0  0  0  0  0  0  0
   61.5101   28.0272   49.7153 H   0  0  0  0  0  0  0  0  0  0  0  0
   61.2416   25.9063   48.4297 H   0  0  0  0  0  0  0  0  0  0  0  0
   59.3187   25.6235   46.8698 H   0  0  0  0  0  0  0  0  0  0  0  0
   56.4730   27.8390   46.5630 H   0  0  0  0  0  0  0  0  0  0  0  0
   57.2354   27.1714   44.2692 H   0  0  0  0  0  0  0  0  0  0  0  0
   58.5841   26.2625   45.0515 H   0  0  0  0  0  0  0  0  0  0  0  0
   58.2475   24.0044   44.6410 H   0  0  0  0  0  0  0  0  0  0  0  0
   56.8453   21.9597   44.8634 H   0  0  0  0  0  0  0  0  0  0  0  0
   53.4980   24.3935   46.1420 H   0  0  0  0  0  0  0  0  0  0  0  0
   57.8003   29.5066   48.0470 H   0  0  0  0  0  0  0  0  0  0  0  0
   61.1911   29.7114   46.0104 H   0  0  0  0  0  0  0  0  0  0  0  0
   59.4617   28.8930   44.4066 H   0  0  0  0  0  0  0  0  0  0  0  0
  1  2  1  0
  2  3  2  0
  2  4  2  0
  2  5  1  0
  5  6  2  0
  6  7  1  0
  7  8  2  0
  8  9  1  0
  9 10  1  0
 10 11  2  0
 10 12  1  0
 12 13  1  0
 13 14  2  0
 14 15  1  0
 15 16  2  0
 16 17  1  0
 17 18  1  0
 18 19  1  0
 19 20  1  0
 20 21  2  0
 21 22  1  0
 22 23  2  0
 23 24  1  0
 24 25  2  0
 24 26  1  0
 23 27  1  0
 27 28  2  0
 28 29  1  0
 17 30  2  0
  8 31  1  0
 31 32  2  0
 32  5  1  0
 30 13  1  0
 28 20  1  0
  1 33  1  0
  6 34  1  0
  7 35  1  0
 14 36  1  0
 15 37  1  0
 16 38  1  0
 18 39  1  0
 19 40  1  0
 19 41  1  0
 21 42  1  0
 22 43  1  0
 27 44  1  0
 30 45  1  0
 31 46  1  0
 32 47  1  0
M  CHG  5   1  -1   9  -1  12  -1  26  -1  29  -1
M  END
>  <UniqueID>  (5) 
4

>  <SMILES>  (5) 
[NH-]S(=O)(=O)c1ccc([N-]C(=O)[N-]c2cccc(NCc3ccc(C(=O)[O-])cc3[O-])c2)cc1

>  <Energy>  (5) 
56.690857780546736

>  <Genealogy>  (5) 
[NH-]S(=O)(=O)c1ccc([N-]C(=O)[N-]c2cccc(NCc3ccc(C(=O)[O-])cc3[O-])c2)cc1 (protonated)
[NH-]S(=O)(=O)c1ccc([N-]C(=O)[N-]c2cccc(NCc3ccc(C(=O)[O-])cc3[O-])c2)cc1 (3D coordinates assigned)
[NH-]S(=O)(=O)c1ccc([N-]C(=O)[N-]c2cccc(NCc3ccc(C(=O)[O-])cc3[O-])c2)cc1 (optimized conformer: 56.690857780546736 kcal/mol)

>  <smiles>  (5) 
NS(=O)(=O)c1ccc(NC(=O)Nc2cccc(NCc3ccc(C(=O)O)cc3O)c2)cc1

>  <score_type>  (5) 
oracle

>  <origin>  (5) 
adg

>  <m_score__min__energy>  (5) 
-18.100000000000001

>  <m_primary>  (5) 
energy

$$$$
5:0
     RDKit          3D

 64 67  0  0  0  0  0  0  0  0999 V2000
   63.3320   33.0210   47.1730 C   0  0  0  0  0  0  0  0  0  0  0  0
   62.5820   31.8000   47.7140 C   0  0  0  0  0  0  0  0  0  0  0  0
   62.8190   31.6200   49.1860 C   0  0  0  0  0  0  0  0  0  0  0  0
   63.9930   31.7070   49.6390 O   0  0  0  0  0  0  0  0  0  0  0  0
   61.7470   31.3290   50.0410 O   0  0  0  0  0  0  0  0  0  0  0  0
   61.3580   29.9850   50.3410 C   0  0  0  0  0  0  0  0  0  0  0  0
   59.9210   29.9090   50.6320 N   0  0  0  0  0  0  0  0  0  0  0  0
   59.4280   29.4950   51.7880 N   0  0  0  0  0  0  0  0  0  0  0  0
   58.1090   29.6170   51.7610 N   0  0  0  0  0  0  0  0  0  0  0  0
   57.7240   30.1200   50.5970 N   0  0  0  0  0  0  0  0  0  0  0  0
   58.8620   30.3110   49.8910 C   0  0  0  0  0  0  0  0  0  0  0  0
   58.9090   30.9510   48.5170 C   0  0  1  0  0  0  0  0  0  0  0  0
   59.2760   32.4610   48.5620 C   0  0  0  0  0  0  0  0  0  0  0  0
   58.9890   33.2170   47.2910 C   0  0  0  0  0  0  0  0  0  0  0  0
   59.9190   34.1350   46.7740 C   0  0  0  0  0  0  0  0  0  0  0  0
   59.6290   34.8540   45.6110 C   0  0  0  0  0  0  0  0  0  0  0  0
   58.3930   34.6920   44.9760 C   0  0  0  0  0  0  0  0  0  0  0  0
   57.4440   33.8130   45.5070 C   0  0  0  0  0  0  0  0  0  0  0  0
   57.7380   33.0860   46.6640 C   0  0  0  0  0  0  0  0  0  0  0  0
   59.8710   30.2350   47.6600 N   0  0  0  0  0  0  0  0  0  0  0  0
   59.5080   29.2570   46.6720 C   0  0  0  0  0  0  0  0  0  0  0  0
   60.0890   28.1430   46.6360 O   0  0  0  0  0  0  0  0  0  0  0  0
   58.5340   29.5790   45.6200 C   0  0  0  0  0  0  0  0  0  0  0  0
   58.8190   30.5280   44.6240 C   0  0  0  0  0  0  0  0  0  0  0  0
   57.8380   30.8700   43.6890 C   0  0  0  0  0  0  0  0  0  0  0  0
   56.5840   30.2480   43.7490 C   0  0  0  0  0  0  0  0  0  0  0  0
   56.3310   29.3090   44.7040 N   0  0  0  0  0  0  0  0  0  0  0  0
   57.2740   28.9510   45.6230 C   0  0  0  0  0  0  0  0  0  0  0  0
   57.0310   27.9010   46.5140 O   0  0  0  0  0  0  0  0  0  0  0  0
   57.2330   26.5470   46.2230 C   0  0  0  0  0  0  0  0  0  0  0  0
   57.1990   25.5640   47.2270 C   0  0  0  0  0  0  0  0  0  0  0  0
   57.5730   24.2440   46.9390 C   0  0  0  0  0  0  0  0  0  0  0  0
   57.9280   23.8830   45.6340 C   0  0  0  0  0  0  0  0  0  0  0  0
   58.4740   22.2450   45.2840 S   0  0  0  0  0  0  0  0  0  0  0  0
   57.8470   21.7350   43.7000 C   0  0  0  0  0  0  0  0  0  0  0  0
   57.9760   21.3030   46.3480 O   0  0  0  0  0  0  0  0  0  0  0  0
   59.9790   22.2000   45.2550 O   0  0  0  0  0  0  0  0  0  0  0  0
   57.9270   24.8540   44.6220 C   0  0  0  0  0  0  0  0  0  0  0  0
   57.5820   26.1810   44.9170 C   0  0  0  0  0  0  0  0  0  0  0  0
   63.7033   33.6254   48.0137 H   0  0  0  0  0  0  0  0  0  0  0  0
   64.1810   32.6871   46.5584 H   0  0  0  0  0  0  0  0  0  0  0  0
   62.6504   33.6273   46.5584 H   0  0  0  0  0  0  0  0  0  0  0  0
   61.5045   31.9351   47.5388 H   0  0  0  0  0  0  0  0  0  0  0  0
   62.9530   30.9060   47.1915 H   0  0  0  0  0  0  0  0  0  0  0  0
   61.5852   29.3428   49.4773 H   0  0  0  0  0  0  0  0  0  0  0  0
   61.9148   29.6471   51.2274 H   0  0  0  0  0  0  0  0  0  0  0  0
   57.8944   30.8759   48.0988 H   0  0  0  0  0  0  0  0  0  0  0  0
   58.7025   32.9288   49.3758 H   0  0  0  0  0  0  0  0  0  0  0  0
   60.3642   32.5117   48.7145 H   0  0  0  0  0  0  0  0  0  0  0  0
   60.8798   34.2884   47.2871 H   0  0  0  0  0  0  0  0  0  0  0  0
   60.3737   35.5482   45.1944 H   0  0  0  0  0  0  0  0  0  0  0  0
   58.1677   35.2561   44.0589 H   0  0  0  0  0  0  0  0  0  0  0  0
   56.4675   33.6938   45.0149 H   0  0  0  0  0  0  0  0  0  0  0  0
   56.9842   32.4058   47.0872 H   0  0  0  0  0  0  0  0  0  0  0  0
   59.8114   31.0005   44.5802 H   0  0  0  0  0  0  0  0  0  0  0  0
   58.0486   31.6207   42.9131 H   0  0  0  0  0  0  0  0  0  0  0  0
   55.8021   30.5180   43.0239 H   0  0  0  0  0  0  0  0  0  0  0  0
   56.8772   25.8319   48.2442 H   0  0  0  0  0  0  0  0  0  0  0  0
   57.5875   23.4904   47.7402 H   0  0  0  0  0  0  0  0  0  0  0  0
   57.0011   21.0469   43.8448 H   0  0  0  0  0  0  0  0  0  0  0  0
   57.5093   22.6181   43.1377 H   0  0  0  0  0  0  0  0  0  0  0  0
   58.6428   21.2245   43.1377 H   0  0  0  0  0  0  0  0  0  0  0  0
   58.1977   24.5738   43.5933 H   0  0  0  0  0  0  0  0  0  0  0  0
   57.5855   26.9379   44.1188 H   0  0  0  0  0  0  0  0  0  0  0  0
  1  2  1  0
  2  3  1  0
  3  4  2  0
  3  5  1  0
  5  6  1  0
  6  7  1  0
  7  8  1  0
  8  9  2  0
  9 10  1  0
 10 11  2  0
 11 12  1  0
 12 13  1  0
 13 14  1  0
 14 15  2  0
 15 16  1  0
 16 17  2  0
 17 18  1  0
 18 19  2  0
 12 20  1  0
 20 21  1  0
 21 22  2  0
 21 23  1  0
 23 24  2  0
 24 25  1  0
 25 26  2  0
 26 27  1  0
 27 28  2  0
 28 29  1  0
 29 30  1  0
 30 31  2  0
 31 32  1  0
 32 33  2  0
 33 34  1  0
 34 35  1  0
 34 36  2  0
 34 37  2  0
 33 38  1  0
 38 39  2  0
 11  7  1  0
 19 14  1  0
 28 23  1  0
 39 30  1  0
  1 40  1  0
  1 41  1  0
  1 42  1  0
  2 43  1  0
  2 44  1  0
  6 45  1  0
  6 46  1  0
 12 47  1  6
 13 48  1  0
 13 49  1  0
 15 50  1  0
 16 51  1  0
 17 52  1  0
 18 53  1  0
 19 54  1  0
 24 55  1  0
 25 56  1  0
 26 57  1  0
 31 58  1  0
 32 59  1  0
 35 60  1  0
 35 61  1  0
 35 62  1  0
 38 63  1  0
 39 64  1  0
M  CHG  1  20  -1
M  END
>  <UniqueID>  (6) 
5

>  <SMILES>  (6) 
CCC(=O)OCn1nnnc1[C@@H](Cc1ccccc1)[N-]C(=O)c1cccnc1Oc1ccc(S(C)(=O)=O)cc1

>  <Energy>  (6) 
115.10776204670208

>  <Genealogy>  (6) 
CCC(=O)OCn1nnnc1C(Cc1ccccc1)[N-]C(=O)c1cccnc1Oc1ccc(S(C)(=O)=O)cc1 (protonated)
CCC(=O)OCn1nnnc1[C@@H](Cc1ccccc1)[N-]C(=O)c1cccnc1Oc1ccc(S(C)(=O)=O)cc1 (chirality)
CCC(=O)OCn1nnnc1[C@@H](Cc1ccccc1)[N-]C(=O)c1cccnc1Oc1ccc(S(C)(=O)=O)cc1 (3D coordinates assigned)
CCC(=O)OCn1nnnc1[C@@H](Cc1ccccc1)[N-]C(=O)c1cccnc1Oc1ccc(S(C)(=O)=O)cc1 (optimized conformer: 115.10776204670208 kcal/mol)

>  <smiles>  (6) 
CCC(=O)OCn1nnnc1C(Cc1ccccc1)NC(=O)c1cccnc1Oc1ccc(S(C)(=O)=O)cc1

>  <score_type>  (6) 
oracle

>  <origin>  (6) 
adg

>  <m_score__min__energy>  (6) 
-11.02

>  <m_primary>  (6) 
energy

$$$$
6:0
     RDKit          3D

 33 35  0  0  0  0  0  0  0  0999 V2000
   55.1520   29.2630   44.7940 N   0  0  0  0  0  0  0  0  0  0  0  0
   56.7680   29.8560   44.6260 S   0  0  0  0  0  0  0  0  0  0  0  0
   56.7470   31.3580   44.5870 O   0  0  0  0  0  0  0  0  0  0  0  0
   57.3430   29.3310   43.3410 O   0  0  0  0  0  0  0  0  0  0  0  0
   57.7460   29.3180   45.9870 C   0  0  0  0  0  0  0  0  0  0  0  0
   57.8340   27.9580   46.2970 C   0  0  0  0  0  0  0  0  0  0  0  0
   58.6680   27.5280   47.3270 C   0  0  0  0  0  0  0  0  0  0  0  0
   59.3910   28.4550   48.0830 C   0  0  0  0  0  0  0  0  0  0  0  0
   60.2790   28.0030   49.0070 N   0  0  0  0  0  0  0  0  0  0  0  0
   61.0530   28.8490   49.7290 C   0  0  0  0  0  0  0  0  0  0  0  0
   60.9170   30.2260   49.5760 C   0  0  0  0  0  0  0  0  0  0  0  0
   59.9560   30.7520   48.7040 C   0  0  0  0  0  0  0  0  0  0  0  0
   59.7580   32.0450   48.7710 N   0  0  0  0  0  0  0  0  0  0  0  0
   59.5480   33.0000   47.7220 C   0  0  0  0  0  0  0  0  0  0  0  0
   60.5800   33.8810   47.3770 C   0  0  0  0  0  0  0  0  0  0  0  0
   60.3790   34.8460   46.3860 C   0  0  0  0  0  0  0  0  0  0  0  0
   59.1360   34.9540   45.7540 C   0  0  0  0  0  0  0  0  0  0  0  0
   58.0850   34.1020   46.1220 C   0  0  0  0  0  0  0  0  0  0  0  0
   56.8380   34.2090   45.5110 O   0  0  0  0  0  0  0  0  0  0  0  0
   58.2880   33.1360   47.1140 C   0  0  0  0  0  0  0  0  0  0  0  0
   59.2380   29.8500   47.8560 C   0  0  0  0  0  0  0  0  0  0  0  0
   58.4710   30.2520   46.7380 C   0  0  0  0  0  0  0  0  0  0  0  0
   55.1430   28.6350   45.6290 H   0  0  0  0  0  0  0  0  0  0  0  0
   57.2437   27.2257   45.7267 H   0  0  0  0  0  0  0  0  0  0  0  0
   58.7579   26.4538   47.5462 H   0  0  0  0  0  0  0  0  0  0  0  0
   61.7912   28.4465   50.4383 H   0  0  0  0  0  0  0  0  0  0  0  0
   61.5691   30.9056   50.1442 H   0  0  0  0  0  0  0  0  0  0  0  0
   61.5521   33.8135   47.8874 H   0  0  0  0  0  0  0  0  0  0  0  0
   61.1996   35.5215   46.1027 H   0  0  0  0  0  0  0  0  0  0  0  0
   58.9828   35.7079   44.9677 H   0  0  0  0  0  0  0  0  0  0  0  0
   56.4540   33.4530   44.9560 H   0  0  0  0  0  0  0  0  0  0  0  0
   57.4587   32.4809   47.4190 H   0  0  0  0  0  0  0  0  0  0  0  0
   58.4433   31.3143   46.4538 H   0  0  0  0  0  0  0  0  0  0  0  0
  1  2  1  0
  2  3  2  0
  2  4  2  0
  2  5  1  0
  5  6  2  0
  6  7  1  0
  7  8  2  0
  8  9  1  0
  9 10  1  0
 10 11  2  0
 11 12  1  0
 12 13  2  3
 13 14  1  0
 14 15  2  0
 15 16  1  0
 16 17  2  0
 17 18  1  0
 18 19  1  0
 18 20  2  0
 12 21  1  0
 21 22  2  0
 22  5  1  0
 21  8  1  0
 20 14  1  0
  1 23  1  0
  6 24  1  0
  7 25  1  0
 10 26  1  0
 11 27  1  0
 15 28  1  0
 16 29  1  0
 17 30  1  0
 19 31  1  0
 20 32  1  0
 22 33  1  0
M  CHG  2   1  -1   9  -1
M  END
>  <UniqueID>  (7) 
6

>  <SMILES>  (7) 
[NH-]S(=O)(=O)c1ccc2[n-]ccc(=Nc3cccc(O)c3)c2c1

>  <Energy>  (7) 
57.3999887030138

>  <Genealogy>  (7) 
[NH-]S(=O)(=O)c1ccc2[n-]ccc(=Nc3cccc(O)c3)c2c1 (protonated)
[NH-]S(=O)(=O)c1ccc2[n-]ccc(=Nc3cccc(O)c3)c2c1 (3D coordinates assigned)
[NH-]S(=O)(=O)c1ccc2[n-]ccc(=Nc3cccc(O)c3)c2c1 (optimized conformer: 57.3999887030138 kcal/mol)

>  <smiles>  (7) 
NS(=O)(=O)c1ccc2[nH]ccc(=Nc3cccc(O)c3)c2c1

>  <score_type>  (7) 
oracle

>  <origin>  (7) 
adg

>  <m_score__min__energy>  (7) 
-11.82

>  <m_primary>  (7) 
energy

$$$$
7:0
     RDKit          3D

 58 62  0  0  0  0  0  0  0  0999 V2000
   60.5138   30.5124   51.2098 H   0  0  0  0  0  0  0  0  0  0  0  0
   59.4650   30.7430   51.4480 C   0  0  0  0  0  0  0  0  0  0  0  0
   58.5740   29.7100   51.7440 C   0  0  0  0  0  0  0  0  0  0  0  0
   58.9187   28.6655   51.7341 H   0  0  0  0  0  0  0  0  0  0  0  0
   57.2430   30.0050   52.0530 C   0  0  0  0  0  0  0  0  0  0  0  0
   56.8000   31.3350   52.0580 C   0  0  0  0  0  0  0  0  0  0  0  0
   57.6980   32.3720   51.8010 C   0  0  0  0  0  0  0  0  0  0  0  0
   57.3665   33.4186   51.8705 H   0  0  0  0  0  0  0  0  0  0  0  0
   59.0240   32.0760   51.4540 C   0  0  0  0  0  0  0  0  0  0  0  0
   59.8870   33.1400   51.0470 N   0  0  0  0  0  0  0  0  0  0  0  0
   59.8400   33.8080   49.7780 C   0  0  0  0  0  0  0  0  0  0  0  0
   59.3550   34.9690   49.7200 O   0  0  0  0  0  0  0  0  0  0  0  0
   60.3520   33.2100   48.5790 N   0  0  0  0  0  0  0  0  0  0  0  0
   59.7440   33.2420   47.2800 C   0  0  0  0  0  0  0  0  0  0  0  0
   59.8450   34.4080   46.5200 C   0  0  0  0  0  0  0  0  0  0  0  0
   60.2975   35.3105   46.9567 H   0  0  0  0  0  0  0  0  0  0  0  0
   59.3740   34.4310   45.2100 C   0  0  0  0  0  0  0  0  0  0  0  0
   59.5007   35.3360   44.5977 H   0  0  0  0  0  0  0  0  0  0  0  0
   58.7390   33.3050   44.6690 C   0  0  0  0  0  0  0  0  0  0  0  0
   58.3910   33.3190   43.3550 N   0  0  0  0  0  0  0  0  0  0  0  0
   57.8180   32.2550   42.7490 C   0  0  0  0  0  0  0  0  0  0  0  0
   57.4190   32.3530   41.3100 C   0  0  0  0  0  0  0  0  0  0  0  0
   56.3528   32.6149   41.2422 H   0  0  0  0  0  0  0  0  0  0  0  0
   58.0197   33.1303   40.8151 H   0  0  0  0  0  0  0  0  0  0  0  0
   57.5912   31.3859   40.8151 H   0  0  0  0  0  0  0  0  0  0  0  0
   57.5020   31.1140   43.5000 C   0  0  0  0  0  0  0  0  0  0  0  0
   57.0302   30.2520   43.0057 H   0  0  0  0  0  0  0  0  0  0  0  0
   57.7800   31.0580   44.8740 C   0  0  0  0  0  0  0  0  0  0  0  0
   57.2500   30.0400   45.5110 N   0  0  0  0  0  0  0  0  0  0  0  0
   56.3550   28.9500   45.1120 C   0  0  0  0  0  0  0  0  0  0  0  0
   56.1651   29.0232   44.0310 H   0  0  0  0  0  0  0  0  0  0  0  0
   55.4215   29.0475   45.6856 H   0  0  0  0  0  0  0  0  0  0  0  0
   56.9510   27.5940   45.4130 C   0  0  0  0  0  0  0  0  0  0  0  0
   58.3430   27.4130   45.3520 C   0  0  0  0  0  0  0  0  0  0  0  0
   58.9900   28.2614   45.0844 H   0  0  0  0  0  0  0  0  0  0  0  0
   58.9150   26.1690   45.6270 C   0  0  0  0  0  0  0  0  0  0  0  0
   60.0066   26.0446   45.5726 H   0  0  0  0  0  0  0  0  0  0  0  0
   58.1050   25.0780   45.9720 C   0  0  0  0  0  0  0  0  0  0  0  0
   58.7270   23.8390   46.2060 O   0  0  0  0  0  0  0  0  0  0  0  0
   58.8630   22.8080   45.2350 C   0  0  0  0  0  0  0  0  0  0  0  0
   58.9906   21.8406   45.7428 H   0  0  0  0  0  0  0  0  0  0  0  0
   57.9613   22.7757   44.6057 H   0  0  0  0  0  0  0  0  0  0  0  0
   59.7422   23.0106   44.6057 H   0  0  0  0  0  0  0  0  0  0  0  0
   56.7120   25.2620   46.0760 C   0  0  0  0  0  0  0  0  0  0  0  0
   56.0679   24.4145   46.3531 H   0  0  0  0  0  0  0  0  0  0  0  0
   56.1430   26.5160   45.8290 C   0  0  0  0  0  0  0  0  0  0  0  0
   54.7770   26.6810   46.0020 O   0  0  0  0  0  0  0  0  0  0  0  0
   58.5020   32.1490   45.4660 C   0  0  0  0  0  0  0  0  0  0  0  0
   59.0790   32.1250   46.7530 C   0  0  0  0  0  0  0  0  0  0  0  0
   59.0057   31.2089   47.3575 H   0  0  0  0  0  0  0  0  0  0  0  0
   55.4480   31.6010   52.3090 O   0  0  0  0  0  0  0  0  0  0  0  0
   54.4770   30.5510   52.3040 C   0  0  0  0  0  0  0  0  0  0  0  0
   53.5971   30.8685   52.8828 H   0  0  0  0  0  0  0  0  0  0  0  0
   54.1889   30.3370   51.2642 H   0  0  0  0  0  0  0  0  0  0  0  0
   55.0620   29.2760   52.9310 C   0  0  0  0  0  0  0  0  0  0  0  0
   55.1748   29.4233   54.0152 H   0  0  0  0  0  0  0  0  0  0  0  0
   54.3809   28.4349   52.7345 H   0  0  0  0  0  0  0  0  0  0  0  0
   56.3370   28.9850   52.3600 O   0  0  0  0  0  0  0  0  0  0  0  0
  1  2  1  0
  2  3  2  0
  3  4  1  0
  3  5  1  0
  5  6  2  0
  6  7  1  0
  7  8  1  0
  7  9  2  0
  9 10  1  0
 10 11  1  0
 11 12  2  0
 11 13  1  0
 13 14  1  0
 14 15  2  0
 15 16  1  0
 15 17  1  0
 17 18  1  0
 17 19  2  0
 19 20  1  0
 20 21  1  0
 21 22  1  0
 22 23  1  0
 22 24  1  0
 22 25  1  0
 21 26  2  0
 26 27  1  0
 26 28  1  0
 28 29  2  0
 29 30  1  0
 30 31  1  0
 30 32  1  0
 30 33  1  0
 33 34  2  0
 34 35  1  0
 34 36  1  0
 36 37  1  0
 36 38  2  0
 38 39  1  0
 39 40  1  0
 40 41  1  0
 40 42  1  0
 40 43  1  0
 38 44  1  0
 44 45  1  0
 44 46  2  0
 46 47  1  0
 28 48  1  0
 48 49  2  0
 49 50  1  0
  6 51  1  0
 51 52  1  0
 52 53  1  0
 52 54  1  0
 52 55  1  0
 55 56  1  0
 55 57  1  0
 55 58  1  0
  9  2  1  0
 49 14  1  0
 58  5  1  0
 48 19  1  0
 46 33  1  0
M  CHG  4  10  -1  13  -1  20  -1  47  -1
M  END
>  <UniqueID>  (8) 
7

>  <SMILES>  (8) 
COc1ccc(C/N=c2/cc(C)[n-]c3ccc([N-]C(=O)[N-]c4ccc5c(c4)OCCO5)cc23)c([O-])c1

>  <Energy>  (8) 
88.98734098635695

>  <Genealogy>  (8) 
COc1ccc(CN=c2cc(C)[n-]c3ccc([N-]C(=O)[N-]c4ccc5c(c4)OCCO5)cc23)c([O-])c1 (protonated)
COc1ccc(C/N=c2/cc(C)[n-]c3ccc([N-]C(=O)[N-]c4ccc5c(c4)OCCO5)cc23)c([O-])c1 (cis-trans isomerization)
COc1ccc(C/N=c2/cc(C)[n-]c3ccc([N-]C(=O)[N-]c4ccc5c(c4)OCCO5)cc23)c([O-])c1 (3D coordinates assigned)
COc1ccc(C/N=c2/cc(C)[n-]c3ccc([N-]C(=O)[N-]c4ccc5c(c4)OCCO5)cc23)c([O-])c1 (nonaromatic ring conformer: 88.98734098635695 kcal/mol)

>  <smiles>  (8) 
COc1ccc(CN=c2cc(C)[nH]c3ccc(NC(=O)Nc4ccc5c(c4)OCCO5)cc23)c(O)c1

>  <score_type>  (8) 
oracle

>  <origin>  (8) 
adg

>  <m_score__min__energy>  (8) 
-15.49

>  <m_primary>  (8) 
energy

$$$$
8:0
     RDKit          3D

 58 62  0  0  0  0  0  0  0  0999 V2000
   56.7040   29.3820   42.6990 N   0  0  0  0  0  0  0  0  0  0  0  0
   56.4960   29.8310   44.3560 S   0  0  0  0  0  0  0  0  0  0  0  0
   55.9340   31.2220   44.4360 O   0  0  0  0  0  0  0  0  0  0  0  0
   55.5350   28.8840   45.0160 O   0  0  0  0  0  0  0  0  0  0  0  0
   58.0520   29.7630   45.1770 C   0  0  0  0  0  0  0  0  0  0  0  0
   59.2130   29.4240   44.4690 C   0  0  0  0  0  0  0  0  0  0  0  0
   60.4390   29.3370   45.1310 C   0  0  0  0  0  0  0  0  0  0  0  0
   60.5120   29.5770   46.5060 C   0  0  0  0  0  0  0  0  0  0  0  0
   59.3550   29.9080   47.2250 C   0  0  0  0  0  0  0  0  0  0  0  0
   59.4220   30.0880   48.6870 C   0  0  0  0  0  0  0  0  0  0  0  0
   58.9020   31.1440   49.4260 C   0  0  0  0  0  0  0  0  0  0  0  0
   58.1460   32.3350   48.9050 C   0  0  0  0  0  0  0  0  0  0  0  0
   58.8870   33.0120   47.7780 C   0  0  0  0  0  0  0  0  0  0  0  0
   60.2700   33.2440   47.8730 C   0  0  0  0  0  0  0  0  0  0  0  0
   60.9610   33.8340   46.8110 C   0  0  0  0  0  0  0  0  0  0  0  0
   60.2750   34.2110   45.6530 C   0  0  0  0  0  0  0  0  0  0  0  0
   58.8970   34.0020   45.5580 C   0  0  0  0  0  0  0  0  0  0  0  0
   58.2030   33.4080   46.6160 C   0  0  0  0  0  0  0  0  0  0  0  0
   59.1790   30.9620   50.7360 N   0  0  0  0  0  0  0  0  0  0  0  0
   59.8460   29.7890   50.7580 C   0  0  0  0  0  0  0  0  0  0  0  0
   59.9890   29.2260   49.5490 N   0  0  0  0  0  0  0  0  0  0  0  0
   60.8320   28.0570   49.2880 C   0  0  0  0  0  0  0  0  0  0  0  0
   60.8640   27.1350   50.5240 C   0  0  0  0  0  0  0  0  0  0  0  0
   61.0950   27.8950   51.7690 N   0  0  0  0  0  0  0  0  0  0  0  0
   61.8130   27.2660   52.8820 C   0  0  0  0  0  0  0  0  0  0  0  0
   63.2930   27.2540   52.6100 C   0  0  0  0  0  0  0  0  0  0  0  0
   64.0110   26.0460   52.6290 C   0  0  0  0  0  0  0  0  0  0  0  0
   65.3790   26.0350   52.3410 C   0  0  0  0  0  0  0  0  0  0  0  0
   66.0390   27.2270   52.0270 C   0  0  0  0  0  0  0  0  0  0  0  0
   65.3310   28.4310   51.9990 C   0  0  0  0  0  0  0  0  0  0  0  0
   63.9620   28.4470   52.2860 C   0  0  0  0  0  0  0  0  0  0  0  0
   60.4280   29.1620   51.9410 C   0  0  0  0  0  0  0  0  0  0  0  0
   60.3670   29.7280   53.0660 O   0  0  0  0  0  0  0  0  0  0  0  0
   58.1260   30.0030   46.5560 C   0  0  0  0  0  0  0  0  0  0  0  0
   57.4220   30.0260   42.2970 H   0  0  0  0  0  0  0  0  0  0  0  0
   55.8050   29.5890   42.2110 H   0  0  0  0  0  0  0  0  0  0  0  0
   59.1581   29.2259   43.3884 H   0  0  0  0  0  0  0  0  0  0  0  0
   61.3491   29.0791   44.5695 H   0  0  0  0  0  0  0  0  0  0  0  0
   61.4793   29.5060   47.0250 H   0  0  0  0  0  0  0  0  0  0  0  0
   57.1640   32.0021   48.5377 H   0  0  0  0  0  0  0  0  0  0  0  0
   58.0330   33.0578   49.7264 H   0  0  0  0  0  0  0  0  0  0  0  0
   60.8111   32.9598   48.7876 H   0  0  0  0  0  0  0  0  0  0  0  0
   62.0455   34.0018   46.8866 H   0  0  0  0  0  0  0  0  0  0  0  0
   60.8202   34.6723   44.8164 H   0  0  0  0  0  0  0  0  0  0  0  0
   58.3571   34.3054   44.6489 H   0  0  0  0  0  0  0  0  0  0  0  0
   57.1172   33.2499   46.5387 H   0  0  0  0  0  0  0  0  0  0  0  0
   60.4258   27.5006   48.4304 H   0  0  0  0  0  0  0  0  0  0  0  0
   61.8550   28.3952   49.0666 H   0  0  0  0  0  0  0  0  0  0  0  0
   59.9008   26.6093   50.6012 H   0  0  0  0  0  0  0  0  0  0  0  0
   61.6936   26.4236   50.3986 H   0  0  0  0  0  0  0  0  0  0  0  0
   61.6185   27.8318   53.8050 H   0  0  0  0  0  0  0  0  0  0  0  0
   61.4618   26.2296   52.9936 H   0  0  0  0  0  0  0  0  0  0  0  0
   63.4946   25.1055   52.8714 H   0  0  0  0  0  0  0  0  0  0  0  0
   65.9369   25.0872   52.3614 H   0  0  0  0  0  0  0  0  0  0  0  0
   67.1157   27.2167   51.8020 H   0  0  0  0  0  0  0  0  0  0  0  0
   65.8510   29.3681   51.7508 H   0  0  0  0  0  0  0  0  0  0  0  0
   63.4071   29.3964   52.2580 H   0  0  0  0  0  0  0  0  0  0  0  0
   57.2166   30.2669   47.1157 H   0  0  0  0  0  0  0  0  0  0  0  0
  1  2  1  0
  2  3  2  0
  2  4  2  0
  2  5  1  0
  5  6  2  0
  6  7  1  0
  7  8  2  0
  8  9  1  0
  9 10  1  0
 10 11  2  0
 11 12  1  0
 12 13  1  0
 13 14  2  0
 14 15  1  0
 15 16  2  0
 16 17  1  0
 17 18  2  0
 11 19  1  0
 19 20  2  0
 20 21  1  0
 21 22  1  0
 22 23  1  0
 23 24  1  0
 24 25  1  0
 25 26  1  0
 26 27  2  0
 27 28  1  0
 28 29  2  0
 29 30  1  0
 30 31  2  0
 24 32  1  0
 32 33  2  0
  9 34  2  0
 34  5  1  0
 21 10  1  0
 31 26  1  0
 18 13  1  0
 32 20  1  0
  1 35  1  0
  1 36  1  0
  6 37  1  0
  7 38  1  0
  8 39  1  0
 12 40  1  0
 12 41  1  0
 14 42  1  0
 15 43  1  0
 16 44  1  0
 17 45  1  0
 18 46  1  0
 22 47  1  0
 22 48  1  0
 23 49  1  0
 23 50  1  0
 25 51  1  0
 25 52  1  0
 27 53  1  0
 28 54  1  0
 29 55  1  0
 30 56  1  0
 31 57  1  0
 34 58  1  0
M  END
>  <UniqueID>  (9) 
8

>  <SMILES>  (9) 
NS(=O)(=O)c1cccc(-c2c(Cc3ccccc3)nc3n2CCN(Cc2ccccc2)C3=O)c1

>  <Energy>  (9) 
94.41943305166065

>  <Genealogy>  (9) 
NS(=O)(=O)c1cccc(-c2c(Cc3ccccc3)nc3n2CCN(Cc2ccccc2)C3=O)c1 (3D coordinates assigned)
NS(=O)(=O)c1cccc(-c2c(Cc3ccccc3)nc3n2CCN(Cc2ccccc2)C3=O)c1 (nonaromatic ring conformer: 94.41943305166065 kcal/mol)

>  <smiles>  (9) 
NS(=O)(=O)c1cccc(-c2c(Cc3ccccc3)nc3n2CCN(Cc2ccccc2)C3=O)c1

>  <score_type>  (9) 
oracle

>  <origin>  (9) 
adg

>  <m_score__min__energy>  (9) 
-9.6999999999999993

>  <m_primary>  (9) 
energy

$$$$
9:0
     RDKit          3D

 41 43  0  0  0  0  0  0  0  0999 V2000
   55.1880   26.3860   45.9860 N   0  0  0  0  0  0  0  0  0  0  0  0
   56.8540   26.8260   45.8510 S   0  0  0  0  0  0  0  0  0  0  0  0
   57.3290   27.4390   47.1370 O   0  0  0  0  0  0  0  0  0  0  0  0
   57.6640   25.5930   45.5670 O   0  0  0  0  0  0  0  0  0  0  0  0
   57.0620   27.9560   44.5490 N   0  0  0  0  0  0  0  0  0  0  0  0
   57.3240   29.3590   44.7310 C   0  0  0  0  0  0  0  0  0  0  0  0
   56.8280   30.2710   43.7850 C   0  0  0  0  0  0  0  0  0  0  0  0
   57.0600   31.6410   43.9240 C   0  0  0  0  0  0  0  0  0  0  0  0
   57.7940   32.1260   45.0140 C   0  0  0  0  0  0  0  0  0  0  0  0
   58.0330   33.5000   45.1610 C   0  0  0  0  0  0  0  0  0  0  0  0
   58.7680   33.9730   46.2510 C   0  0  0  0  0  0  0  0  0  0  0  0
   59.2750   33.0800   47.2080 C   0  0  0  0  0  0  0  0  0  0  0  0
   60.0770   33.5860   48.3790 C   0  0  0  0  0  0  0  0  0  0  0  0
   61.3410   34.1940   47.9140 N   0  0  0  0  0  0  0  0  0  0  0  0
   62.3770   34.2210   48.9800 C   0  0  0  0  0  0  0  0  0  0  0  0
   63.4530   33.1440   48.7800 C   0  0  0  0  0  0  0  0  0  0  0  0
   64.1460   33.2970   47.4870 N   0  0  0  0  0  0  0  0  0  0  0  0
   63.2860   33.8220   46.4090 C   0  0  0  0  0  0  0  0  0  0  0  0
   61.7990   33.5460   46.6640 C   0  0  0  0  0  0  0  0  0  0  0  0
   59.0380   31.7050   47.0650 C   0  0  0  0  0  0  0  0  0  0  0  0
   58.3020   31.2200   45.9740 C   0  0  0  0  0  0  0  0  0  0  0  0
   58.0640   29.8440   45.8260 C   0  0  0  0  0  0  0  0  0  0  0  0
   54.7370   27.0920   46.6090 H   0  0  0  0  0  0  0  0  0  0  0  0
   56.9690   27.5780   43.5790 H   0  0  0  0  0  0  0  0  0  0  0  0
   56.2502   29.9019   42.9248 H   0  0  0  0  0  0  0  0  0  0  0  0
   56.6647   32.3423   43.1744 H   0  0  0  0  0  0  0  0  0  0  0  0
   57.6406   34.2076   44.4158 H   0  0  0  0  0  0  0  0  0  0  0  0
   58.9506   35.0523   46.3599 H   0  0  0  0  0  0  0  0  0  0  0  0
   59.4894   34.3415   48.9212 H   0  0  0  0  0  0  0  0  0  0  0  0
   60.3109   32.7407   49.0429 H   0  0  0  0  0  0  0  0  0  0  0  0
   62.8613   35.2087   48.9767 H   0  0  0  0  0  0  0  0  0  0  0  0
   61.8763   34.0200   49.9386 H   0  0  0  0  0  0  0  0  0  0  0  0
   64.1914   33.2231   49.5915 H   0  0  0  0  0  0  0  0  0  0  0  0
   62.9594   32.1610   48.7897 H   0  0  0  0  0  0  0  0  0  0  0  0
   64.5050   32.3560   47.2020 H   0  0  0  0  0  0  0  0  0  0  0  0
   63.4363   34.9091   46.3344 H   0  0  0  0  0  0  0  0  0  0  0  0
   63.5676   33.3125   45.4757 H   0  0  0  0  0  0  0  0  0  0  0  0
   61.2115   33.9378   45.8206 H   0  0  0  0  0  0  0  0  0  0  0  0
   61.6583   32.4595   46.7630 H   0  0  0  0  0  0  0  0  0  0  0  0
   59.4321   31.0021   47.8137 H   0  0  0  0  0  0  0  0  0  0  0  0
   58.4592   29.1390   46.5722 H   0  0  0  0  0  0  0  0  0  0  0  0
  1  2  1  0
  2  3  2  0
  2  4  2  0
  2  5  1  0
  5  6  1  0
  6  7  2  0
  7  8  1  0
  8  9  2  0
  9 10  1  0
 10 11  2  0
 11 12  1  0
 12 13  1  0
 13 14  1  0
 14 15  1  0
 15 16  1  0
 16 17  1  0
 17 18  1  0
 18 19  1  0
 12 20  2  0
 20 21  1  0
 21 22  2  0
 22  6  1  0
 21  9  1  0
 19 14  1  0
  1 23  1  0
  5 24  1  0
  7 25  1  0
  8 26  1  0
 10 27  1  0
 11 28  1  0
 13 29  1  0
 13 30  1  0
 15 31  1  0
 15 32  1  0
 16 33  1  0
 16 34  1  0
 17 35  1  0
 18 36  1  0
 18 37  1  0
 19 38  1  0
 19 39  1  0
 20 40  1  0
 22 41  1  0
M  CHG  1   1  -1
M  END
>  <UniqueID>  (10) 
9

>  <SMILES>  (10) 
[NH-]S(=O)(=O)Nc1ccc2ccc(CN3CCNCC3)cc2c1

>  <Energy>  (10) 
55.81784934251758

>  <Genealogy>  (10) 
[NH-]S(=O)(=O)Nc1ccc2ccc(CN3CCNCC3)cc2c1 (protonated)
[NH-]S(=O)(=O)Nc1ccc2ccc(CN3CCNCC3)cc2c1 (3D coordinates assigned)
[NH-]S(=O)(=O)Nc1ccc2ccc(CN3CCNCC3)cc2c1 (nonaromatic ring conformer: 55.81784934251758 kcal/mol)

>  <smiles>  (10) 
NS(=O)(=O)Nc1ccc2ccc(CN3CCNCC3)cc2c1

>  <score_type>  (10) 
oracle

>  <origin>  (10) 
adg

>  <m_score__min__energy>  (10) 
-12.18

>  <m_primary>  (10) 
energy

$$$$
10:0
     RDKit          3D

 33 34  0  0  0  0  0  0  0  0999 V2000
   58.3760   26.3980   44.7150 O   0  0  0  0  0  0  0  0  0  0  0  0
   58.2700   27.6520   44.6810 C   0  0  0  0  0  0  0  0  0  0  0  0
   59.4130   28.4480   44.6970 C   0  0  0  0  0  0  0  0  0  0  0  0
   59.2630   29.8320   44.6580 C   0  0  0  0  0  0  0  0  0  0  0  0
   58.0170   30.3940   44.6200 N   0  0  0  0  0  0  0  0  0  0  0  0
   57.8910   31.8550   44.5480 C   0  0  0  0  0  0  0  0  0  0  0  0
   57.0270   32.2940   45.5780 O   0  0  0  0  0  0  0  0  0  0  0  0
   57.0380   33.7060   45.6640 C   0  0  0  0  0  0  0  0  0  0  0  0
   58.1880   34.2630   44.8660 C   0  0  0  0  0  0  0  0  0  0  0  0
   59.2300   34.9310   45.3820 C   0  0  0  0  0  0  0  0  0  0  0  0
   59.9950   34.5090   46.5710 C   0  0  0  0  0  0  0  0  0  0  0  0
   61.2570   33.9050   46.4440 C   0  0  0  0  0  0  0  0  0  0  0  0
   61.9510   33.4790   47.5800 C   0  0  0  0  0  0  0  0  0  0  0  0
   61.3800   33.6330   48.8470 C   0  0  0  0  0  0  0  0  0  0  0  0
   60.1120   34.2060   48.9780 C   0  0  0  0  0  0  0  0  0  0  0  0
   59.4160   34.6330   47.8430 C   0  0  0  0  0  0  0  0  0  0  0  0
   56.9080   29.5880   44.5850 C   0  0  0  0  0  0  0  0  0  0  0  0
   55.7520   30.0920   44.5150 O   0  0  0  0  0  0  0  0  0  0  0  0
   57.0430   28.2340   44.6230 N   0  0  0  0  0  0  0  0  0  0  0  0
   60.4135   27.9928   44.7396 H   0  0  0  0  0  0  0  0  0  0  0  0
   60.1534   30.4778   44.6578 H   0  0  0  0  0  0  0  0  0  0  0  0
   58.8810   32.3172   44.6751 H   0  0  0  0  0  0  0  0  0  0  0  0
   57.4802   32.1448   43.5696 H   0  0  0  0  0  0  0  0  0  0  0  0
   56.0925   34.1024   45.2654 H   0  0  0  0  0  0  0  0  0  0  0  0
   57.1529   34.0022   46.7171 H   0  0  0  0  0  0  0  0  0  0  0  0
   58.1717   34.1101   43.7768 H   0  0  0  0  0  0  0  0  0  0  0  0
   59.5369   35.8617   44.8823 H   0  0  0  0  0  0  0  0  0  0  0  0
   61.7006   33.7668   45.4469 H   0  0  0  0  0  0  0  0  0  0  0  0
   62.9465   33.0225   47.4773 H   0  0  0  0  0  0  0  0  0  0  0  0
   61.9291   33.3030   49.7412 H   0  0  0  0  0  0  0  0  0  0  0  0
   59.6612   34.3211   49.9748 H   0  0  0  0  0  0  0  0  0  0  0  0
   58.4110   35.0677   47.9477 H   0  0  0  0  0  0  0  0  0  0  0  0
   56.1890   27.6300   44.6020 H   0  0  0  0  0  0  0  0  0  0  0  0
  1  2  2  0
  2  3  1  0
  3  4  2  0
  4  5  1  0
  5  6  1  0
  6  7  1  0
  7  8  1  0
  8  9  1  0
  9 10  2  3
 10 11  1  0
 11 12  2  0
 12 13  1  0
 13 14  2  0
 14 15  1  0
 15 16  2  0
  5 17  1  0
 17 18  2  0
 17 19  1  0
 19  2  1  0
 16 11  1  0
  3 20  1  0
  4 21  1  0
  6 22  1  0
  6 23  1  0
  8 24  1  0
  8 25  1  0
  9 26  1  0
 10 27  1  0
 12 28  1  0
 13 29  1  0
 14 30  1  0
 15 31  1  0
 16 32  1  0
 19 33  1  0
M  END
>  <UniqueID>  (11) 
10

>  <SMILES>  (11) 
O=c1ccn(COCC=Cc2ccccc2)c(=O)[nH]1

>  <Energy>  (11) 
43.91591552952092

>  <Genealogy>  (11) 
O=c1ccn(COCC=Cc2ccccc2)c(=O)[nH]1 (3D coordinates assigned)
O=c1ccn(COCC=Cc2ccccc2)c(=O)[nH]1 (optimized conformer: 43.91591552952092 kcal/mol)

>  <smiles>  (11) 
O=c1ccn(COCC=Cc2ccccc2)c(=O)[nH]1

>  <score_type>  (11) 
oracle

>  <origin>  (11) 
adg

>  <m_score__min__energy>  (11) 
-7.1900000000000004

>  <m_primary>  (11) 
energy

$$$$
11:0
     RDKit          3D

 55 57  0  0  0  0  0  0  0  0999 V2000
   59.8820   29.4590   49.8920 C   0  0  0  0  0  0  0  0  0  0  0  0
   60.6680   30.4710   49.5150 C   0  0  0  0  0  0  0  0  0  0  0  0
   61.4540   30.4300   48.2350 C   0  0  0  0  0  0  0  0  0  0  0  0
   61.1130   31.5720   47.3770 N   0  0  0  0  0  0  0  0  0  0  0  0
   61.9160   32.6060   47.0420 C   0  0  0  0  0  0  0  0  0  0  0  0
   63.3770   32.7220   47.3750 C   0  0  0  0  0  0  0  0  0  0  0  0
   63.5520   33.1730   48.7930 C   0  0  0  0  0  0  0  0  0  0  0  0
   64.5810   32.8120   49.5800 N   0  0  0  0  0  0  0  0  0  0  0  0
   64.3400   33.4670   50.7370 C   0  0  0  0  0  0  0  0  0  0  0  0
   65.3200   33.3520   52.0380 S   0  0  0  0  0  0  0  0  0  0  0  0
   63.2250   34.2310   50.7260 N   0  0  0  0  0  0  0  0  0  0  0  0
   62.7420   34.0360   49.4890 C   0  0  0  0  0  0  0  0  0  0  0  0
   61.5850   34.6370   49.0080 O   0  0  0  0  0  0  0  0  0  0  0  0
   61.2180   33.5260   46.2890 C   0  0  0  0  0  0  0  0  0  0  0  0
   59.9170   33.0550   46.1570 C   0  0  0  0  0  0  0  0  0  0  0  0
   58.7450   33.8150   45.5170 C   0  0  0  0  0  0  0  0  0  0  0  0
   59.1630   35.2740   45.2480 C   0  0  0  0  0  0  0  0  0  0  0  0
   58.3430   33.1780   44.1660 C   0  0  0  0  0  0  0  0  0  0  0  0
   57.5070   33.7860   46.4350 C   0  0  0  0  0  0  0  0  0  0  0  0
   59.8980   31.8320   46.8380 C   0  0  0  0  0  0  0  0  0  0  0  0
   58.4770   30.7430   47.0430 S   0  0  0  0  0  0  0  0  0  0  0  0
   58.3700   30.3130   45.2740 C   0  0  0  0  0  0  0  0  0  0  0  0
   56.9410   30.0760   44.9170 C   0  0  0  0  0  0  0  0  0  0  0  0
   56.2190   31.0440   44.5560 O   0  0  0  0  0  0  0  0  0  0  0  0
   56.4110   28.7460   44.9830 N   0  0  0  0  0  0  0  0  0  0  0  0
   57.0050   27.6200   45.6470 C   0  0  0  0  0  0  0  0  0  0  0  0
   58.4010   27.4740   45.7570 C   0  0  0  0  0  0  0  0  0  0  0  0
   58.9450   26.3540   46.3940 C   0  0  0  0  0  0  0  0  0  0  0  0
   58.1040   25.3640   46.9080 C   0  0  0  0  0  0  0  0  0  0  0  0
   56.7180   25.4880   46.7810 C   0  0  0  0  0  0  0  0  0  0  0  0
   56.1690   26.6080   46.1460 C   0  0  0  0  0  0  0  0  0  0  0  0
   54.7870   26.7150   46.0190 O   0  0  0  0  0  0  0  0  0  0  0  0
   59.3199   29.5211   50.8355 H   0  0  0  0  0  0  0  0  0  0  0  0
   59.7968   28.5634   49.2590 H   0  0  0  0  0  0  0  0  0  0  0  0
   60.7420   31.3593   50.1596 H   0  0  0  0  0  0  0  0  0  0  0  0
   62.5281   30.4636   48.4701 H   0  0  0  0  0  0  0  0  0  0  0  0
   61.2081   29.5010   47.6998 H   0  0  0  0  0  0  0  0  0  0  0  0
   63.8582   31.7416   47.2439 H   0  0  0  0  0  0  0  0  0  0  0  0
   63.8397   33.4611   46.7044 H   0  0  0  0  0  0  0  0  0  0  0  0
   61.6174   34.4612   45.8696 H   0  0  0  0  0  0  0  0  0  0  0  0
   59.3123   35.7951   46.2052 H   0  0  0  0  0  0  0  0  0  0  0  0
   60.1009   35.2867   44.6734 H   0  0  0  0  0  0  0  0  0  0  0  0
   58.3741   35.7814   44.6734 H   0  0  0  0  0  0  0  0  0  0  0  0
   57.7643   32.2610   44.3508 H   0  0  0  0  0  0  0  0  0  0  0  0
   57.7299   33.8893   43.5932 H   0  0  0  0  0  0  0  0  0  0  0  0
   59.2490   32.9307   43.5932 H   0  0  0  0  0  0  0  0  0  0  0  0
   57.8300   33.7936   47.4865 H   0  0  0  0  0  0  0  0  0  0  0  0
   56.8828   34.6698   46.2368 H   0  0  0  0  0  0  0  0  0  0  0  0
   56.9248   32.8740   46.2368 H   0  0  0  0  0  0  0  0  0  0  0  0
   58.7690   31.1403   44.6686 H   0  0  0  0  0  0  0  0  0  0  0  0
   58.9579   29.4045   45.0763 H   0  0  0  0  0  0  0  0  0  0  0  0
   59.0667   28.2441   45.3402 H   0  0  0  0  0  0  0  0  0  0  0  0
   60.0361   26.2526   46.4904 H   0  0  0  0  0  0  0  0  0  0  0  0
   58.5332   24.4861   47.4131 H   0  0  0  0  0  0  0  0  0  0  0  0
   56.0575   24.7044   47.1806 H   0  0  0  0  0  0  0  0  0  0  0  0
  1  2  2  0
  2  3  1  0
  3  4  1  0
  4  5  1  0
  5  6  1  0
  6  7  1  0
  7  8  1  0
  8  9  1  0
  9 10  2  0
  9 11  1  0
 11 12  1  0
 12 13  1  0
  5 14  2  0
 14 15  1  0
 15 16  1  0
 16 17  1  0
 16 18  1  0
 16 19  1  0
 15 20  2  0
 20 21  1  0
 21 22  1  0
 22 23  1  0
 23 24  2  0
 23 25  1  0
 25 26  1  0
 26 27  2  0
 27 28  1  0
 28 29  2  0
 29 30  1  0
 30 31  2  0
 31 32  1  0
 20  4  1  0
 31 26  1  0
 12  7  2  0
  1 33  1  0
  1 34  1  0
  2 35  1  0
  3 36  1  0
  3 37  1  0
  6 38  1  0
  6 39  1  0
 14 40  1  0
 17 41  1  0
 17 42  1  0
 17 43  1  0
 18 44  1  0
 18 45  1  0
 18 46  1  0
 19 47  1  0
 19 48  1  0
 19 49  1  0
 22 50  1  0
 22 51  1  0
 27 52  1  0
 28 53  1  0
 29 54  1  0
 30 55  1  0
M  CHG  5   8  -1  11  -1  13  -1  25  -1  32  -1
M  END
>  <UniqueID>  (12) 
11

>  <SMILES>  (12) 
C=CCn1c(Cc2[n-]c(=S)[n-]c2[O-])cc(C(C)(C)C)c1SCC(=O)[N-]c1ccccc1[O-]

>  <Energy>  (12) 
104.03187049532896

>  <Genealogy>  (12) 
C=CCn1c(Cc2[n-]c(=S)[n-]c2[O-])cc(C(C)(C)C)c1SCC(=O)[N-]c1ccccc1[O-] (protonated)
C=CCn1c(Cc2[n-]c(=S)[n-]c2[O-])cc(C(C)(C)C)c1SCC(=O)[N-]c1ccccc1[O-] (3D coordinates assigned)
C=CCn1c(Cc2[n-]c(=S)[n-]c2[O-])cc(C(C)(C)C)c1SCC(=O)[N-]c1ccccc1[O-] (optimized conformer: 104.03187049532896 kcal/mol)

>  <smiles>  (12) 
C=CCn1c(Cc2[nH]c(=S)[nH]c2O)cc(C(C)(C)C)c1SCC(=O)Nc1ccccc1O

>  <score_type>  (12) 
oracle

>  <origin>  (12) 
adg

>  <m_score__min__energy>  (12) 
-17.260000000000002

>  <m_primary>  (12) 
energy

$$$$
12:0
     RDKit          3D

 34 36  0  0  0  0  0  0  0  0999 V2000
   55.0790   30.1430   44.1130 N   0  0  0  0  0  0  0  0  0  0  0  0
   55.9560   29.7550   44.7610 C   0  0  0  0  0  0  0  0  0  0  0  0
   57.0520   29.2710   45.5710 C   0  0  0  0  0  0  0  0  0  0  0  0
   57.0110   27.9620   46.0650 C   0  0  0  0  0  0  0  0  0  0  0  0
   55.9440   27.1220   45.7500 O   0  0  0  0  0  0  0  0  0  0  0  0
   58.0110   27.5020   46.8610 N   0  0  0  0  0  0  0  0  0  0  0  0
   59.0750   28.2700   47.2030 C   0  0  0  0  0  0  0  0  0  0  0  0
   59.9730   27.7780   47.9380 O   0  0  0  0  0  0  0  0  0  0  0  0
   59.1800   29.5910   46.7280 C   0  0  0  0  0  0  0  0  0  0  0  0
   60.3670   30.4070   47.0900 C   0  0  0  0  0  0  0  0  0  0  0  0
   61.4860   30.1020   46.5960 O   0  0  0  0  0  0  0  0  0  0  0  0
   60.2700   31.5650   48.0140 C   0  0  0  0  0  0  0  0  0  0  0  0
   61.0350   32.7260   47.7980 C   0  0  0  0  0  0  0  0  0  0  0  0
   60.9170   33.8190   48.6610 C   0  0  0  0  0  0  0  0  0  0  0  0
   60.0430   33.7630   49.7480 C   0  0  0  0  0  0  0  0  0  0  0  0
   59.2900   32.6100   49.9800 C   0  0  0  0  0  0  0  0  0  0  0  0
   59.4040   31.5130   49.1210 C   0  0  0  0  0  0  0  0  0  0  0  0
   58.1430   30.1050   45.9060 C   0  0  0  0  0  0  0  0  0  0  0  0
   58.1770   31.5140   45.4360 C   0  0  0  0  0  0  0  0  0  0  0  0
   57.9010   32.5690   46.3180 C   0  0  0  0  0  0  0  0  0  0  0  0
   57.8980   33.8850   45.8540 C   0  0  0  0  0  0  0  0  0  0  0  0
   58.1780   34.1360   44.5100 C   0  0  0  0  0  0  0  0  0  0  0  0
   58.4510   33.1050   43.6670 N   0  0  0  0  0  0  0  0  0  0  0  0
   58.4580   31.8140   44.0950 C   0  0  0  0  0  0  0  0  0  0  0  0
   55.1340   27.4750   45.2560 H   0  0  0  0  0  0  0  0  0  0  0  0
   61.7291   32.7736   46.9460 H   0  0  0  0  0  0  0  0  0  0  0  0
   61.5142   34.7255   48.4832 H   0  0  0  0  0  0  0  0  0  0  0  0
   59.9474   34.6271   50.4219 H   0  0  0  0  0  0  0  0  0  0  0  0
   58.6059   32.5649   50.8402 H   0  0  0  0  0  0  0  0  0  0  0  0
   58.8135   30.6047   49.3118 H   0  0  0  0  0  0  0  0  0  0  0  0
   57.6868   32.3589   47.3763 H   0  0  0  0  0  0  0  0  0  0  0  0
   57.6773   34.7158   46.5403 H   0  0  0  0  0  0  0  0  0  0  0  0
   58.1778   35.1692   44.1324 H   0  0  0  0  0  0  0  0  0  0  0  0
   58.6847   31.0029   43.3874 H   0  0  0  0  0  0  0  0  0  0  0  0
  1  2  3  0
  2  3  1  0
  3  4  2  0
  4  5  1  0
  4  6  1  0
  6  7  1  0
  7  8  2  0
  7  9  1  0
  9 10  1  0
 10 11  2  0
 10 12  1  0
 12 13  2  0
 13 14  1  0
 14 15  2  0
 15 16  1  0
 16 17  2  0
  9 18  2  0
 18 19  1  0
 19 20  2  0
 20 21  1  0
 21 22  2  0
 22 23  1  0
 23 24  2  0
 18  3  1  0
 24 19  1  0
 17 12  1  0
  5 25  1  0
 13 26  1  0
 14 27  1  0
 15 28  1  0
 16 29  1  0
 17 30  1  0
 20 31  1  0
 21 32  1  0
 22 33  1  0
 24 34  1  0
M  CHG  1   6  -1
M  END
>  <UniqueID>  (13) 
12

>  <SMILES>  (13) 
N#Cc1c(O)[n-]c(=O)c(C(=O)c2ccccc2)c1-c1cccnc1

>  <Energy>  (13) 
53.91559121193266

>  <Genealogy>  (13) 
N#Cc1c(O)[n-]c(=O)c(C(=O)c2ccccc2)c1-c1cccnc1 (protonated)
N#Cc1c(O)[n-]c(=O)c(C(=O)c2ccccc2)c1-c1cccnc1 (3D coordinates assigned)
N#Cc1c(O)[n-]c(=O)c(C(=O)c2ccccc2)c1-c1cccnc1 (optimized conformer: 53.91559121193266 kcal/mol)

>  <smiles>  (13) 
N#Cc1c(O)[nH]c(=O)c(C(=O)c2ccccc2)c1-c1cccnc1

>  <score_type>  (13) 
oracle

>  <origin>  (13) 
adg

>  <m_score__min__energy>  (13) 
-8.9199999999999999

>  <m_primary>  (13) 
energy

$$$$
13:0
     RDKit          3D

 47 49  0  0  0  0  0  0  0  0999 V2000
   55.1880   26.4290   46.0060 N   0  0  0  0  0  0  0  0  0  0  0  0
   56.8220   25.9060   46.2150 S   0  0  0  0  0  0  0  0  0  0  0  0
   57.0770   24.6960   45.3590 O   0  0  0  0  0  0  0  0  0  0  0  0
   57.0440   25.5350   47.6540 O   0  0  0  0  0  0  0  0  0  0  0  0
   57.9220   27.2000   45.7490 C   0  0  0  0  0  0  0  0  0  0  0  0
   58.5180   27.1880   44.4810 C   0  0  0  0  0  0  0  0  0  0  0  0
   59.3950   28.2110   44.1090 C   0  0  0  0  0  0  0  0  0  0  0  0
   59.6720   29.2550   44.9940 C   0  0  0  0  0  0  0  0  0  0  0  0
   59.0580   29.2950   46.2580 C   0  0  0  0  0  0  0  0  0  0  0  0
   59.3250   30.3600   47.1850 N   0  0  0  0  0  0  0  0  0  0  0  0
   60.3170   30.2820   48.2210 C   0  0  0  0  0  0  0  0  0  0  0  0
   61.0600   29.2670   48.3150 O   0  0  0  0  0  0  0  0  0  0  0  0
   60.5120   31.4120   49.1520 C   0  0  0  0  0  0  0  0  0  0  0  0
   60.8780   31.1550   50.4840 C   0  0  0  0  0  0  0  0  0  0  0  0
   61.0760   32.2090   51.3780 C   0  0  0  0  0  0  0  0  0  0  0  0
   60.8950   33.5260   50.9560 C   0  0  0  0  0  0  0  0  0  0  0  0
   60.5170   33.7970   49.6390 C   0  0  0  0  0  0  0  0  0  0  0  0
   60.3370   32.7450   48.7200 C   0  0  0  0  0  0  0  0  0  0  0  0
   59.8620   32.9890   47.3850 N   0  0  0  0  0  0  0  0  0  0  0  0
   58.8710   33.9280   46.9570 C   0  0  0  0  0  0  0  0  0  0  0  0
   59.1960   35.1040   46.6410 O   0  0  0  0  0  0  0  0  0  0  0  0
   57.4530   33.4800   46.7740 C   0  0  0  0  0  0  0  0  0  0  0  0
   57.3960   32.1770   46.1840 O   0  0  0  0  0  0  0  0  0  0  0  0
   57.3070   31.8980   44.8090 C   0  0  0  0  0  0  0  0  0  0  0  0
   56.5620   30.7790   44.4100 C   0  0  0  0  0  0  0  0  0  0  0  0
   56.4460   30.4480   43.0560 C   0  0  0  0  0  0  0  0  0  0  0  0
   57.0690   31.2380   42.0870 C   0  0  0  0  0  0  0  0  0  0  0  0
   57.8130   32.3550   42.4710 C   0  0  0  0  0  0  0  0  0  0  0  0
   57.9310   32.6920   43.8240 C   0  0  0  0  0  0  0  0  0  0  0  0
   58.1970   28.2510   46.6350 C   0  0  0  0  0  0  0  0  0  0  0  0
   55.1550   27.4400   46.2630 H   0  0  0  0  0  0  0  0  0  0  0  0
   58.2955   26.3724   43.7772 H   0  0  0  0  0  0  0  0  0  0  0  0
   59.8683   28.1936   43.1162 H   0  0  0  0  0  0  0  0  0  0  0  0
   60.3738   30.0497   44.7008 H   0  0  0  0  0  0  0  0  0  0  0  0
   58.8910   31.2930   46.9950 H   0  0  0  0  0  0  0  0  0  0  0  0
   61.0093   30.1173   50.8245 H   0  0  0  0  0  0  0  0  0  0  0  0
   61.3750   32.0006   52.4159 H   0  0  0  0  0  0  0  0  0  0  0  0
   61.0505   34.3543   51.6630 H   0  0  0  0  0  0  0  0  0  0  0  0
   60.3591   34.8372   49.3179 H   0  0  0  0  0  0  0  0  0  0  0  0
   56.9556   33.4523   47.7547 H   0  0  0  0  0  0  0  0  0  0  0  0
   56.9463   34.1896   46.1033 H   0  0  0  0  0  0  0  0  0  0  0  0
   56.0647   30.1563   45.1682 H   0  0  0  0  0  0  0  0  0  0  0  0
   55.8638   29.5649   42.7540 H   0  0  0  0  0  0  0  0  0  0  0  0
   56.9734   30.9801   41.0220 H   0  0  0  0  0  0  0  0  0  0  0  0
   58.3083   32.9725   41.7072 H   0  0  0  0  0  0  0  0  0  0  0  0
   58.5117   33.5781   44.1202 H   0  0  0  0  0  0  0  0  0  0  0  0
   57.7350   28.2582   47.6332 H   0  0  0  0  0  0  0  0  0  0  0  0
  1  2  1  0
  2  3  2  0
  2  4  2  0
  2  5  1  0
  5  6  2  0
  6  7  1  0
  7  8  2  0
  8  9  1  0
  9 10  1  0
 10 11  1  0
 11 12  2  0
 11 13  1  0
 13 14  2  0
 14 15  1  0
 15 16  2  0
 16 17  1  0
 17 18  2  0
 18 19  1  0
 19 20  1  0
 20 21  2  0
 20 22  1  0
 22 23  1  0
 23 24  1  0
 24 25  2  0
 25 26  1  0
 26 27  2  0
 27 28  1  0
 28 29  2  0
  9 30  2  0
 30  5  1  0
 18 13  1  0
 29 24  1  0
  1 31  1  0
  6 32  1  0
  7 33  1  0
  8 34  1  0
 10 35  1  0
 14 36  1  0
 15 37  1  0
 16 38  1  0
 17 39  1  0
 22 40  1  0
 22 41  1  0
 25 42  1  0
 26 43  1  0
 27 44  1  0
 28 45  1  0
 29 46  1  0
 30 47  1  0
M  CHG  2   1  -1  19  -1
M  END
>  <UniqueID>  (14) 
13

>  <SMILES>  (14) 
[NH-]S(=O)(=O)c1cccc(NC(=O)c2ccccc2[N-]C(=O)COc2ccccc2)c1

>  <Energy>  (14) 
56.997505148392065

>  <Genealogy>  (14) 
[NH-]S(=O)(=O)c1cccc(NC(=O)c2ccccc2[N-]C(=O)COc2ccccc2)c1 (protonated)
[NH-]S(=O)(=O)c1cccc(NC(=O)c2ccccc2[N-]C(=O)COc2ccccc2)c1 (3D coordinates assigned)
[NH-]S(=O)(=O)c1cccc(NC(=O)c2ccccc2[N-]C(=O)COc2ccccc2)c1 (optimized conformer: 56.997505148392065 kcal/mol)

>  <smiles>  (14) 
NS(=O)(=O)c1cccc(NC(=O)c2ccccc2NC(=O)COc2ccccc2)c1

>  <score_type>  (14) 
oracle

>  <origin>  (14) 
adg

>  <m_score__min__energy>  (14) 
-12.15

>  <m_primary>  (14) 
energy

$$$$
14:0
     RDKit          3D

 44 46  0  0  0  0  0  0  0  0999 V2000
   57.9260   32.6820   48.7680 O   0  0  0  0  0  0  0  0  0  0  0  0
   59.0220   32.3490   49.2940 C   0  0  0  0  0  0  0  0  0  0  0  0
   60.0640   33.3150   49.4690 N   0  0  0  0  0  0  0  0  0  0  0  0
   61.3340   33.3050   48.8000 C   0  0  0  0  0  0  0  0  0  0  0  0
   62.5420   33.2270   49.5190 C   0  0  0  0  0  0  0  0  0  0  0  0
   63.7660   33.1880   48.8410 C   0  0  0  0  0  0  0  0  0  0  0  0
   65.2670   33.0920   49.7450 Cl  0  0  0  0  0  0  0  0  0  0  0  0
   63.7910   33.2170   47.4440 C   0  0  0  0  0  0  0  0  0  0  0  0
   62.5960   33.2710   46.7230 C   0  0  0  0  0  0  0  0  0  0  0  0
   61.3660   33.3100   47.3970 C   0  0  0  0  0  0  0  0  0  0  0  0
   60.1730   33.3540   46.6760 O   0  0  0  0  0  0  0  0  0  0  0  0
   59.2670   30.9480   49.6580 C   0  0  0  0  0  0  0  0  0  0  0  0
   59.2130   30.3800   51.2390 S   0  0  0  0  0  0  0  0  0  0  0  0
   59.6500   28.7960   50.8940 C   0  0  0  0  0  0  0  0  0  0  0  0
   59.8400   28.6890   49.5250 C   0  0  0  0  0  0  0  0  0  0  0  0
   59.5970   29.8770   48.8180 C   0  0  0  0  0  0  0  0  0  0  0  0
   59.6430   29.9220   47.0480 S   0  0  0  0  0  0  0  0  0  0  0  0
   60.9780   30.3850   46.5400 O   0  0  0  0  0  0  0  0  0  0  0  0
   59.3780   28.5320   46.5390 O   0  0  0  0  0  0  0  0  0  0  0  0
   58.4250   30.9880   46.4240 N   0  0  0  0  0  0  0  0  0  0  0  0
   57.8080   30.8140   45.1450 C   0  0  0  0  0  0  0  0  0  0  0  0
   57.2590   29.5600   44.8390 C   0  0  0  0  0  0  0  0  0  0  0  0
   56.6650   29.3310   43.5970 C   0  0  0  0  0  0  0  0  0  0  0  0
   56.6430   30.3420   42.6360 C   0  0  0  0  0  0  0  0  0  0  0  0
   57.2270   31.5820   42.9110 C   0  0  0  0  0  0  0  0  0  0  0  0
   57.8290   31.8300   44.1580 C   0  0  0  0  0  0  0  0  0  0  0  0
   58.5130   33.1610   44.3870 C   0  0  0  0  0  0  0  0  0  0  0  0
   57.6010   34.1520   45.1200 C   0  0  0  0  0  0  0  0  0  0  0  0
   57.4970   33.8270   46.4780 O   0  0  0  0  0  0  0  0  0  0  0  0
   62.5238   33.1966   50.6184 H   0  0  0  0  0  0  0  0  0  0  0  0
   64.7533   33.1973   46.9114 H   0  0  0  0  0  0  0  0  0  0  0  0
   62.6192   33.2830   45.6233 H   0  0  0  0  0  0  0  0  0  0  0  0
   59.3290   32.9100   47.0190 H   0  0  0  0  0  0  0  0  0  0  0  0
   59.7655   27.9840   51.6271 H   0  0  0  0  0  0  0  0  0  0  0  0
   60.1537   27.7551   49.0357 H   0  0  0  0  0  0  0  0  0  0  0  0
   57.2969   28.7511   45.5835 H   0  0  0  0  0  0  0  0  0  0  0  0
   56.2138   28.3525   43.3757 H   0  0  0  0  0  0  0  0  0  0  0  0
   56.1658   30.1633   41.6611 H   0  0  0  0  0  0  0  0  0  0  0  0
   57.2157   32.3713   42.1450 H   0  0  0  0  0  0  0  0  0  0  0  0
   59.4180   32.9969   44.9903 H   0  0  0  0  0  0  0  0  0  0  0  0
   58.7640   33.5894   43.4055 H   0  0  0  0  0  0  0  0  0  0  0  0
   58.0189   35.1649   45.0234 H   0  0  0  0  0  0  0  0  0  0  0  0
   56.5983   34.1048   44.6702 H   0  0  0  0  0  0  0  0  0  0  0  0
   58.0550   33.0180   46.6200 H   0  0  0  0  0  0  0  0  0  0  0  0
  1  2  2  0
  2  3  1  0
  3  4  1  0
  4  5  2  0
  5  6  1  0
  6  7  1  0
  6  8  2  0
  8  9  1  0
  9 10  2  0
 10 11  1  0
  2 12  1  0
 12 13  1  0
 13 14  1  0
 14 15  2  0
 15 16  1  0
 16 17  1  0
 17 18  2  0
 17 19  2  0
 17 20  1  0
 20 21  1  0
 21 22  2  0
 22 23  1  0
 23 24  2  0
 24 25  1  0
 25 26  2  0
 26 27  1  0
 27 28  1  0
 28 29  1  0
 10  4  1  0
 16 12  2  0
 26 21  1  0
  5 30  1  0
  8 31  1  0
  9 32  1  0
 11 33  1  0
 14 34  1  0
 15 35  1  0
 22 36  1  0
 23 37  1  0
 24 38  1  0
 25 39  1  0
 27 40  1  0
 27 41  1  0
 28 42  1  0
 28 43  1  0
 29 44  1  0
M  CHG  2   3  -1  20  -1
M  END
>  <UniqueID>  (15) 
14

>  <SMILES>  (15) 
O=C([N-]c1cc(Cl)ccc1O)c1sccc1S(=O)(=O)[N-]c1ccccc1CCO

>  <Energy>  (15) 
86.6315535080466

>  <Genealogy>  (15) 
O=C([N-]c1cc(Cl)ccc1O)c1sccc1S(=O)(=O)[N-]c1ccccc1CCO (protonated)
O=C([N-]c1cc(Cl)ccc1O)c1sccc1S(=O)(=O)[N-]c1ccccc1CCO (3D coordinates assigned)
O=C([N-]c1cc(Cl)ccc1O)c1sccc1S(=O)(=O)[N-]c1ccccc1CCO (optimized conformer: 86.6315535080466 kcal/mol)

>  <smiles>  (15) 
O=C(Nc1cc(Cl)ccc1O)c1sccc1S(=O)(=O)Nc1ccccc1CCO

>  <score_type>  (15) 
oracle

>  <origin>  (15) 
adg

>  <m_score__min__energy>  (15) 
-11.26

>  <m_primary>  (15) 
energy

$$$$
15:0
     RDKit          3D

 53 57  0  0  1  0  0  0  0  0999 V2000
   60.4670   29.0990   50.9820 O   0  0  0  0  0  0  0  0  0  0  0  0
   59.7200   29.9920   50.5090 C   0  0  0  0  0  0  0  0  0  0  0  0
   59.8520   30.5450   49.2140 N   0  0  0  0  0  0  0  0  0  0  0  0
   60.8570   30.1570   48.2520 C   0  0  0  0  0  0  0  0  0  0  0  0
   61.8830   31.2450   48.2210 C   0  0  0  0  0  0  0  0  0  0  0  0
   62.6340   31.4570   49.3590 C   0  0  0  0  0  0  0  0  0  0  0  0
   63.5760   32.4420   49.3490 C   0  0  0  0  0  0  0  0  0  0  0  0
   63.8090   33.2340   48.2510 C   0  0  0  0  0  0  0  0  0  0  0  0
   63.0730   33.0430   47.0990 C   0  0  0  0  0  0  0  0  0  0  0  0
   62.1140   32.0330   47.1240 C   0  0  0  0  0  0  0  0  0  0  0  0
   58.6050   30.5430   51.3250 C   0  0  0  0  0  0  0  0  0  0  0  0
   57.7110   29.6680   51.9140 C   0  0  0  0  0  0  0  0  0  0  0  0
   56.6510   30.1470   52.6580 C   0  0  0  0  0  0  0  0  0  0  0  0
   56.5230   31.5130   52.7880 C   0  0  0  0  0  0  0  0  0  0  0  0
   57.4210   32.3750   52.1950 C   0  0  0  0  0  0  0  0  0  0  0  0
   58.5030   31.9140   51.4370 C   0  0  0  0  0  0  0  0  0  0  0  0
   59.4490   32.8410   50.8370 C   0  0  0  0  0  0  0  0  0  0  0  0
   60.5750   33.3720   51.2820 N   0  0  0  0  0  0  0  0  0  0  0  0
   61.1100   34.1770   50.3780 N   0  0  0  0  0  0  0  0  0  0  0  0
   60.2830   34.1430   49.3330 C   0  0  0  0  0  0  0  0  0  0  0  0
   60.3770   34.7620   48.2100 N   0  0  0  0  0  0  0  0  0  0  0  0
   59.6920   34.3580   47.0380 C   0  0  0  0  0  0  0  0  0  0  0  0
   59.6350   35.3020   46.0110 C   0  0  0  0  0  0  0  0  0  0  0  0
   59.0010   35.0340   44.8170 C   0  0  0  0  0  0  0  0  0  0  0  0
   58.4030   33.8140   44.6140 C   0  0  0  0  0  0  0  0  0  0  0  0
   58.4620   32.8720   45.6470 C   0  0  0  0  0  0  0  0  0  0  0  0
   57.8290   31.6220   45.3770 N   0  0  0  0  0  0  0  0  0  0  0  0
   58.1900   30.4670   45.9490 C   0  0  0  0  0  0  0  0  0  0  0  0
   57.3420   29.4920   45.4350 C   0  0  0  0  0  0  0  0  0  0  0  0
   56.4900   30.0520   44.5740 N   0  0  0  0  0  0  0  0  0  0  0  0
   56.7980   31.3640   44.5440 C   0  0  0  0  0  0  0  0  0  0  0  0
   59.1010   33.1480   46.8410 C   0  0  0  0  0  0  0  0  0  0  0  0
   59.2810   33.3360   49.6100 O   0  0  0  0  0  0  0  0  0  0  0  0
   59.1820   31.2980   48.8930 H   0  0  0  0  0  0  0  0  0  0  0  0
   61.3230   29.2080   48.5558 H   0  0  0  0  0  0  0  0  0  0  0  0
   60.4103   30.0131   47.2571 H   0  0  0  0  0  0  0  0  0  0  0  0
   62.4754   30.8425   50.2575 H   0  0  0  0  0  0  0  0  0  0  0  0
   64.1739   32.6096   50.2570 H   0  0  0  0  0  0  0  0  0  0  0  0
   64.5797   34.0179   48.2897 H   0  0  0  0  0  0  0  0  0  0  0  0
   63.2362   33.6597   46.2029 H   0  0  0  0  0  0  0  0  0  0  0  0
   61.5130   31.8596   46.2192 H   0  0  0  0  0  0  0  0  0  0  0  0
   57.8451   28.5834   51.7891 H   0  0  0  0  0  0  0  0  0  0  0  0
   55.9328   29.4612   53.1311 H   0  0  0  0  0  0  0  0  0  0  0  0
   55.6887   31.9233   53.3759 H   0  0  0  0  0  0  0  0  0  0  0  0
   57.2825   33.4589   52.3218 H   0  0  0  0  0  0  0  0  0  0  0  0
   61.9790   34.7480   50.4020 H   0  0  0  0  0  0  0  0  0  0  0  0
   60.1079   36.2841   46.1585 H   0  0  0  0  0  0  0  0  0  0  0  0
   58.9738   35.7977   44.0258 H   0  0  0  0  0  0  0  0  0  0  0  0
   57.8927   33.5843   43.6670 H   0  0  0  0  0  0  0  0  0  0  0  0
   58.9976   30.3184   46.6809 H   0  0  0  0  0  0  0  0  0  0  0  0
   57.3693   28.4241   45.6976 H   0  0  0  0  0  0  0  0  0  0  0  0
   56.2831   32.1167   43.9289 H   0  0  0  0  0  0  0  0  0  0  0  0
   59.1320   32.3871   47.6348 H   0  0  0  0  0  0  0  0  0  0  0  0
  1  2  2  0
  2  3  1  0
  3  4  1  0
  4  5  1  0
  5  6  2  0
  6  7  1  0
  7  8  2  0
  8  9  1  0
  9 10  2  0
  2 11  1  0
 11 12  2  0
 12 13  1  0
 13 14  2  0
 14 15  1  0
 15 16  2  0
 16 17  1  0
 17 18  2  0
 18 19  1  0
 19 20  1  0
 20 21  2  0
 21 22  1  0
 22 23  2  0
 23 24  1  0
 24 25  2  0
 25 26  1  0
 26 27  1  0
 27 28  1  0
 28 29  2  0
 29 30  1  0
 30 31  2  0
 26 32  2  0
 20 33  1  0
 10  5  1  0
 16 11  1  0
 33 17  1  0
 32 22  1  0
 31 27  1  0
  3 34  1  0
  4 35  1  0
  4 36  1  0
  6 37  1  0
  7 38  1  0
  8 39  1  0
  9 40  1  0
 10 41  1  0
 12 42  1  0
 13 43  1  0
 14 44  1  0
 15 45  1  0
 19 46  1  0
 23 47  1  0
 24 48  1  0
 25 49  1  0
 28 50  1  0
 29 51  1  0
 31 52  1  0
 32 53  1  0
M  END
>  <smiles>  (16) 
O=C(NCc1ccccc1)c1ccccc1-c1n[nH]c(=Nc2cccc(-n3ccnc3)c2)o1

>  <score_type>  (16) 
oracle

>  <origin>  (16) 
adg

>  <m_score__min__energy>  (16) 
-9.4299999999999997

>  <m_primary>  (16) 
energy

$$$$
16:0
     RDKit          3D

 43 45  0  0  0  0  0  0  0  0999 V2000
   54.6460   29.6380   44.3410 H   0  0  0  0  0  0  0  0  0  0  0  0
   55.4400   30.0910   44.8460 N   0  0  0  0  0  0  0  0  0  0  0  0
   56.4440   30.8160   44.1350 C   0  0  0  0  0  0  0  0  0  0  0  0
   56.5150   30.6800   42.8840 O   0  0  0  0  0  0  0  0  0  0  0  0
   57.3860   31.7120   44.8660 C   0  0  0  0  0  0  0  0  0  0  0  0
   57.0160   33.0500   45.0970 C   0  0  0  0  0  0  0  0  0  0  0  0
   56.0408   33.4130   44.7404 H   0  0  0  0  0  0  0  0  0  0  0  0
   57.8470   33.8980   45.7540 N   0  0  0  0  0  0  0  0  0  0  0  0
   59.0610   33.5090   46.2170 C   0  0  0  0  0  0  0  0  0  0  0  0
   59.8730   34.4540   46.9340 N   0  0  0  0  0  0  0  0  0  0  0  0
   59.5200   35.4340   47.0090 H   0  0  0  0  0  0  0  0  0  0  0  0
   61.1330   34.1390   47.5510 C   0  0  0  0  0  0  0  0  0  0  0  0
   62.2300   33.7970   46.7440 C   0  0  0  0  0  0  0  0  0  0  0  0
   62.1204   33.7823   45.6496 H   0  0  0  0  0  0  0  0  0  0  0  0
   63.4610   33.4750   47.3240 C   0  0  0  0  0  0  0  0  0  0  0  0
   64.3192   33.2204   46.6847 H   0  0  0  0  0  0  0  0  0  0  0  0
   63.6030   33.4760   48.7150 C   0  0  0  0  0  0  0  0  0  0  0  0
   64.8280   33.1600   49.2900 O   0  0  0  0  0  0  0  0  0  0  0  0
   62.5100   33.7920   49.5280 C   0  0  0  0  0  0  0  0  0  0  0  0
   62.6203   33.7896   50.6224 H   0  0  0  0  0  0  0  0  0  0  0  0
   61.2770   34.1110   48.9510 C   0  0  0  0  0  0  0  0  0  0  0  0
   60.4150   34.3413   49.5944 H   0  0  0  0  0  0  0  0  0  0  0  0
   59.4650   32.1790   46.0490 C   0  0  0  0  0  0  0  0  0  0  0  0
   60.4209   31.8393   46.4743 H   0  0  0  0  0  0  0  0  0  0  0  0
   58.6520   31.2730   45.3370 C   0  0  0  0  0  0  0  0  0  0  0  0
   59.0260   30.0370   45.1360 N   0  0  0  0  0  0  0  0  0  0  0  0
   58.8860   28.9190   46.0310 C   0  0  0  0  0  0  0  0  0  0  0  0
   59.8090   28.7360   47.0730 C   0  0  0  0  0  0  0  0  0  0  0  0
   60.6153   29.4688   47.2240 H   0  0  0  0  0  0  0  0  0  0  0  0
   59.7100   27.6330   47.9160 C   0  0  0  0  0  0  0  0  0  0  0  0
   60.4270   27.5064   48.7405 H   0  0  0  0  0  0  0  0  0  0  0  0
   58.7050   26.6890   47.7180 C   0  0  0  0  0  0  0  0  0  0  0  0
   58.6306   25.8234   48.3928 H   0  0  0  0  0  0  0  0  0  0  0  0
   57.7850   26.8310   46.6650 C   0  0  0  0  0  0  0  0  0  0  0  0
   56.5280   25.6000   46.4610 S   0  0  0  0  0  0  0  0  0  0  0  0
   56.3270   24.8720   47.7600 O   0  0  0  0  0  0  0  0  0  0  0  0
   56.9440   24.6260   45.3940 O   0  0  0  0  0  0  0  0  0  0  0  0
   55.0270   26.3200   45.9920 N   0  0  0  0  0  0  0  0  0  0  0  0
   55.1530   27.3550   46.0440 H   0  0  0  0  0  0  0  0  0  0  0  0
   57.8880   27.9490   45.7970 C   0  0  0  0  0  0  0  0  0  0  0  0
   56.9850   28.1160   44.6890 N   0  0  0  0  0  0  0  0  0  0  0  0
   56.1770   27.4730   44.5470 H   0  0  0  0  0  0  0  0  0  0  0  0
   57.0810   28.8920   44.0010 H   0  0  0  0  0  0  0  0  0  0  0  0
  1  2  1  0
  2  3  1  0
  3  4  2  0
  3  5  1  0
  5  6  2  0
  6  7  1  0
  6  8  1  0
  8  9  1  0
  9 10  1  0
 10 11  1  0
 10 12  1  0
 12 13  2  0
 13 14  1  0
 13 15  1  0
 15 16  1  0
 15 17  2  0
 17 18  1  0
 17 19  1  0
 19 20  1  0
 19 21  2  0
 21 22  1  0
  9 23  2  0
 23 24  1  0
 23 25  1  0
 25 26  2  0
 26 27  1  0
 27 28  2  0
 28 29  1  0
 28 30  1  0
 30 31  1  0
 30 32  2  0
 32 33  1  0
 32 34  1  0
 34 35  1  0
 35 36  2  0
 35 37  2  0
 35 38  1  0
 38 39  1  0
 34 40  2  0
 40 41  1  0
 41 42  1  0
 41 43  1  0
 25  5  1  0
 40 27  1  0
 21 12  1  0
M  CHG  4   2  -1   8  -1  18  -1  38  -1
M  END
>  <UniqueID>  (17) 
15

>  <SMILES>  (17) 
[NH-]C(=O)c1c[n-]c(Nc2ccc([O-])cc2)c/c1=N\c1cccc(S([NH-])(=O)=O)c1N

>  <Energy>  (17) 
65.92654172175729

>  <Genealogy>  (17) 
[NH-]C(=O)c1c[n-]c(Nc2ccc([O-])cc2)cc1=Nc1cccc(S([NH-])(=O)=O)c1N (protonated)
[NH-]C(=O)c1c[n-]c(Nc2ccc([O-])cc2)c/c1=N\c1cccc(S([NH-])(=O)=O)c1N (cis-trans isomerization)
[NH-]C(=O)c1c[n-]c(Nc2ccc([O-])cc2)c/c1=N\c1cccc(S([NH-])(=O)=O)c1N (3D coordinates assigned)
[NH-]C(=O)c1c[n-]c(Nc2ccc([O-])cc2)c/c1=N\c1cccc(S([NH-])(=O)=O)c1N (optimized conformer: 65.92654172175729 kcal/mol)

>  <smiles>  (17) 
NC(=O)c1c[nH]c(Nc2ccc(O)cc2)cc1=Nc1cccc(S(N)(=O)=O)c1N

>  <score_type>  (17) 
oracle

>  <origin>  (17) 
adg

>  <m_score__min__energy>  (17) 
-16.010000000000002

>  <m_primary>  (17) 
energy

$$$$
17:0
     RDKit          3D

 51 54  0  0  0  0  0  0  0  0999 V2000
   58.1320   27.0220   43.1120 C   0  0  0  0  0  0  0  0  0  0  0  0
   57.7600   26.9590   44.4830 O   0  0  0  0  0  0  0  0  0  0  0  0
   58.2720   27.7330   45.5470 C   0  0  0  0  0  0  0  0  0  0  0  0
   58.5570   27.0600   46.7620 C   0  0  0  0  0  0  0  0  0  0  0  0
   58.3420   25.5660   46.9100 C   0  0  0  0  0  0  0  0  0  0  0  0
   57.0940   25.1130   46.1930 C   0  0  0  0  0  0  0  0  0  0  0  0
   55.9070   25.6670   46.5610 N   0  0  0  0  0  0  0  0  0  0  0  0
   54.7530   25.3200   45.9930 N   0  0  0  0  0  0  0  0  0  0  0  0
   54.6990   24.3870   45.0110 C   0  0  0  0  0  0  0  0  0  0  0  0
   53.5870   24.0980   44.4930 O   0  0  0  0  0  0  0  0  0  0  0  0
   55.8800   23.7610   44.5880 C   0  0  0  0  0  0  0  0  0  0  0  0
   57.0980   24.1220   45.1850 C   0  0  0  0  0  0  0  0  0  0  0  0
   58.3540   23.4690   44.6560 C   0  0  0  0  0  0  0  0  0  0  0  0
   58.1510   21.9540   44.4790 C   0  0  0  0  0  0  0  0  0  0  0  0
   56.8080   21.5610   43.8140 C   0  0  0  0  0  0  0  0  0  0  0  0
   55.8970   22.7500   43.4660 C   0  0  0  0  0  0  0  0  0  0  0  0
   58.9940   27.7940   47.8770 C   0  0  0  0  0  0  0  0  0  0  0  0
   59.1830   29.1680   47.7940 C   0  0  0  0  0  0  0  0  0  0  0  0
   58.9440   29.8350   46.5970 C   0  0  0  0  0  0  0  0  0  0  0  0
   58.4970   29.1390   45.4610 C   0  0  0  0  0  0  0  0  0  0  0  0
   58.2800   29.8360   44.2250 N   0  0  0  0  0  0  0  0  0  0  0  0
   57.2280   31.1950   43.9840 S   0  0  0  0  0  0  0  0  0  0  0  0
   57.0850   31.4730   42.5130 O   0  0  0  0  0  0  0  0  0  0  0  0
   55.8730   30.8710   44.5420 O   0  0  0  0  0  0  0  0  0  0  0  0
   57.8750   32.5900   44.8400 C   0  0  0  0  0  0  0  0  0  0  0  0
   57.5710   32.7660   46.1970 C   0  0  0  0  0  0  0  0  0  0  0  0
   58.1070   33.8490   46.9040 C   0  0  0  0  0  0  0  0  0  0  0  0
   58.9490   34.7590   46.2590 C   0  0  0  0  0  0  0  0  0  0  0  0
   59.2540   34.5890   44.9040 C   0  0  0  0  0  0  0  0  0  0  0  0
   58.7180   33.5090   44.1950 C   0  0  0  0  0  0  0  0  0  0  0  0
   59.2138   27.2052   43.0337 H   0  0  0  0  0  0  0  0  0  0  0  0
   57.8850   26.0692   42.6209 H   0  0  0  0  0  0  0  0  0  0  0  0
   57.5850   27.8403   42.6209 H   0  0  0  0  0  0  0  0  0  0  0  0
   59.2089   25.0366   46.4878 H   0  0  0  0  0  0  0  0  0  0  0  0
   58.2271   25.3383   47.9800 H   0  0  0  0  0  0  0  0  0  0  0  0
   58.6095   23.9144   43.6832 H   0  0  0  0  0  0  0  0  0  0  0  0
   59.1671   23.6331   45.3784 H   0  0  0  0  0  0  0  0  0  0  0  0
   58.9700   21.5679   43.8544 H   0  0  0  0  0  0  0  0  0  0  0  0
   58.1400   21.5189   45.4892 H   0  0  0  0  0  0  0  0  0  0  0  0
   57.0311   21.0157   42.8851 H   0  0  0  0  0  0  0  0  0  0  0  0
   56.2611   20.9524   44.5491 H   0  0  0  0  0  0  0  0  0  0  0  0
   56.2694   23.2335   42.5508 H   0  0  0  0  0  0  0  0  0  0  0  0
   54.8737   22.3764   43.3133 H   0  0  0  0  0  0  0  0  0  0  0  0
   59.1889   27.2749   48.8270 H   0  0  0  0  0  0  0  0  0  0  0  0
   59.5224   29.7296   48.6769 H   0  0  0  0  0  0  0  0  0  0  0  0
   59.1070   30.9213   46.5389 H   0  0  0  0  0  0  0  0  0  0  0  0
   56.9093   32.0511   46.7079 H   0  0  0  0  0  0  0  0  0  0  0  0
   57.8651   33.9838   47.9686 H   0  0  0  0  0  0  0  0  0  0  0  0
   59.3716   35.6082   46.8160 H   0  0  0  0  0  0  0  0  0  0  0  0
   59.9161   35.3055   44.3958 H   0  0  0  0  0  0  0  0  0  0  0  0
   58.9576   33.3793   43.1293 H   0  0  0  0  0  0  0  0  0  0  0  0
  1  2  1  0
  2  3  1  0
  3  4  2  0
  4  5  1  0
  5  6  1  0
  6  7  2  0
  7  8  1  0
  8  9  1  0
  9 10  2  0
  9 11  1  0
 11 12  2  0
 12 13  1  0
 13 14  1  0
 14 15  1  0
 15 16  1  0
  4 17  1  0
 17 18  2  0
 18 19  1  0
 19 20  2  0
 20 21  1  0
 21 22  1  0
 22 23  2  0
 22 24  2  0
 22 25  1  0
 25 26  2  0
 26 27  1  0
 27 28  2  0
 28 29  1  0
 29 30  2  0
 20  3  1  0
 30 25  1  0
 12  6  1  0
 16 11  1  0
  1 31  1  0
  1 32  1  0
  1 33  1  0
  5 34  1  0
  5 35  1  0
 13 36  1  0
 13 37  1  0
 14 38  1  0
 14 39  1  0
 15 40  1  0
 15 41  1  0
 16 42  1  0
 16 43  1  0
 17 44  1  0
 18 45  1  0
 19 46  1  0
 26 47  1  0
 27 48  1  0
 28 49  1  0
 29 50  1  0
 30 51  1  0
M  CHG  2   8  -1  21  -1
M  END
>  <UniqueID>  (18) 
16

>  <SMILES>  (18) 
COc1c(Cc2n[n-]c(=O)c3c2CCCC3)cccc1[N-]S(=O)(=O)c1ccccc1

>  <Energy>  (18) 
70.16351822284719

>  <Genealogy>  (18) 
COc1c(Cc2n[n-]c(=O)c3c2CCCC3)cccc1[N-]S(=O)(=O)c1ccccc1 (protonated)
COc1c(Cc2n[n-]c(=O)c3c2CCCC3)cccc1[N-]S(=O)(=O)c1ccccc1 (3D coordinates assigned)
COc1c(Cc2n[n-]c(=O)c3c2CCCC3)cccc1[N-]S(=O)(=O)c1ccccc1 (nonaromatic ring conformer: 70.16351822284719 kcal/mol)

>  <smiles>  (18) 
COc1c(Cc2n[nH]c(=O)c3c2CCCC3)cccc1NS(=O)(=O)c1ccccc1

>  <score_type>  (18) 
oracle

>  <origin>  (18) 
adg

>  <m_score__min__energy>  (18) 
-13.470000000000001

>  <m_primary>  (18) 
energy

$$$$
18:0
     RDKit          3D

 43 45  0  0  0  0  0  0  0  0999 V2000
   59.6420   29.1740   49.8720 C   0  0  0  0  0  0  0  0  0  0  0  0
   60.2320   30.2520   49.0650 N   0  0  0  0  0  0  0  0  0  0  0  0
   59.4680   30.8720   48.1190 C   0  0  0  0  0  0  0  0  0  0  0  0
   59.9800   31.9170   47.3420 C   0  0  0  0  0  0  0  0  0  0  0  0
   59.0860   32.5710   46.3600 C   0  0  0  0  0  0  0  0  0  0  0  0
   58.9560   33.9680   46.3670 C   0  0  0  0  0  0  0  0  0  0  0  0
   58.1120   34.6020   45.4540 C   0  0  0  0  0  0  0  0  0  0  0  0
   57.3970   33.8480   44.5240 C   0  0  0  0  0  0  0  0  0  0  0  0
   57.5270   32.4560   44.4970 C   0  0  0  0  0  0  0  0  0  0  0  0
   58.3780   31.8040   45.4120 C   0  0  0  0  0  0  0  0  0  0  0  0
   58.5530   30.4080   45.4070 O   0  0  0  0  0  0  0  0  0  0  0  0
   58.0480   29.5130   44.4170 C   0  0  0  0  0  0  0  0  0  0  0  0
   56.5560   29.4320   44.5000 C   0  0  0  0  0  0  0  0  0  0  0  0
   55.8460   30.2900   43.9080 O   0  0  0  0  0  0  0  0  0  0  0  0
   55.9480   28.3750   45.2480 N   0  0  0  0  0  0  0  0  0  0  0  0
   56.6710   27.1950   45.7090 C   0  0  0  0  0  0  0  0  0  0  0  0
   55.7110   26.1480   46.1730 C   0  0  0  0  0  0  0  0  0  0  0  0
   56.1390   25.0960   46.7170 O   0  0  0  0  0  0  0  0  0  0  0  0
   54.3460   26.3170   45.9780 O   0  0  0  0  0  0  0  0  0  0  0  0
   61.3200   32.3220   47.5320 C   0  0  0  0  0  0  0  0  0  0  0  0
   61.9110   33.3350   46.7470 C   0  0  0  0  0  0  0  0  0  0  0  0
   63.2340   33.7210   46.9640 C   0  0  0  0  0  0  0  0  0  0  0  0
   63.9890   33.1060   47.9610 C   0  0  0  0  0  0  0  0  0  0  0  0
   63.4300   32.0920   48.7390 C   0  0  0  0  0  0  0  0  0  0  0  0
   62.0970   31.6840   48.5300 C   0  0  0  0  0  0  0  0  0  0  0  0
   61.5240   30.6480   49.2940 C   0  0  0  0  0  0  0  0  0  0  0  0
   62.2060   30.0780   50.1930 O   0  0  0  0  0  0  0  0  0  0  0  0
   59.7682   29.4045   50.9402 H   0  0  0  0  0  0  0  0  0  0  0  0
   58.5703   29.0867   49.6398 H   0  0  0  0  0  0  0  0  0  0  0  0
   60.1461   28.2243   49.6398 H   0  0  0  0  0  0  0  0  0  0  0  0
   58.4296   30.5438   47.9644 H   0  0  0  0  0  0  0  0  0  0  0  0
   59.5222   34.5666   47.0958 H   0  0  0  0  0  0  0  0  0  0  0  0
   58.0107   35.6972   45.4680 H   0  0  0  0  0  0  0  0  0  0  0  0
   56.7284   34.3500   43.8092 H   0  0  0  0  0  0  0  0  0  0  0  0
   56.9628   31.8674   43.7586 H   0  0  0  0  0  0  0  0  0  0  0  0
   58.3364   29.8758   43.4194 H   0  0  0  0  0  0  0  0  0  0  0  0
   58.4701   28.5124   44.5917 H   0  0  0  0  0  0  0  0  0  0  0  0
   57.2747   26.7931   44.8820 H   0  0  0  0  0  0  0  0  0  0  0  0
   57.3234   27.4796   46.5476 H   0  0  0  0  0  0  0  0  0  0  0  0
   61.3231   33.8248   45.9567 H   0  0  0  0  0  0  0  0  0  0  0  0
   63.6825   34.5131   46.3464 H   0  0  0  0  0  0  0  0  0  0  0  0
   65.0285   33.4210   48.1349 H   0  0  0  0  0  0  0  0  0  0  0  0
   64.0334   31.6076   49.5208 H   0  0  0  0  0  0  0  0  0  0  0  0
  1  2  1  0
  2  3  1  0
  3  4  2  0
  4  5  1  0
  5  6  2  0
  6  7  1  0
  7  8  2  0
  8  9  1  0
  9 10  2  0
 10 11  1  0
 11 12  1  0
 12 13  1  0
 13 14  2  0
 13 15  1  0
 15 16  1  0
 16 17  1  0
 17 18  2  0
 17 19  1  0
  4 20  1  0
 20 21  2  0
 21 22  1  0
 22 23  2  0
 23 24  1  0
 24 25  2  0
 25 26  1  0
 26 27  2  0
 26  2  1  0
 10  5  1  0
 25 20  1  0
  1 28  1  0
  1 29  1  0
  1 30  1  0
  3 31  1  0
  6 32  1  0
  7 33  1  0
  8 34  1  0
  9 35  1  0
 12 36  1  0
 12 37  1  0
 16 38  1  0
 16 39  1  0
 21 40  1  0
 22 41  1  0
 23 42  1  0
 24 43  1  0
M  CHG  2  15  -1  19  -1
M  END
>  <UniqueID>  (19) 
17

>  <SMILES>  (19) 
Cn1cc(-c2ccccc2OCC(=O)[N-]CC(=O)[O-])c2ccccc2c1=O

>  <Energy>  (19) 
55.53156575052651

>  <Genealogy>  (19) 
Cn1cc(-c2ccccc2OCC(=O)[N-]CC(=O)[O-])c2ccccc2c1=O (protonated)
Cn1cc(-c2ccccc2OCC(=O)[N-]CC(=O)[O-])c2ccccc2c1=O (3D coordinates assigned)
Cn1cc(-c2ccccc2OCC(=O)[N-]CC(=O)[O-])c2ccccc2c1=O (optimized conformer: 55.53156575052651 kcal/mol)

>  <smiles>  (19) 
Cn1cc(-c2ccccc2OCC(=O)NCC(=O)O)c2ccccc2c1=O

>  <score_type>  (19) 
oracle

>  <origin>  (19) 
adg

>  <m_score__min__energy>  (19) 
-13.880000000000001

>  <m_primary>  (19) 
energy

$$$$
19:0
     RDKit          3D

 45 47  0  0  0  0  0  0  0  0999 V2000
   54.4480   24.0390   45.2590 C   0  0  0  0  0  0  0  0  0  0  0  0
   55.1040   24.7010   46.3350 O   0  0  0  0  0  0  0  0  0  0  0  0
   56.3160   25.3990   46.2160 C   0  0  0  0  0  0  0  0  0  0  0  0
   57.5670   24.7610   46.3190 C   0  0  0  0  0  0  0  0  0  0  0  0
   58.7450   25.5060   46.2200 C   0  0  0  0  0  0  0  0  0  0  0  0
   58.6880   26.8850   46.0060 C   0  0  0  0  0  0  0  0  0  0  0  0
   57.4530   27.5300   45.8710 C   0  0  0  0  0  0  0  0  0  0  0  0
   57.4350   28.9510   45.6810 N   0  0  0  0  0  0  0  0  0  0  0  0
   56.4980   29.6850   44.8820 C   0  0  0  0  0  0  0  0  0  0  0  0
   55.2800   29.3590   44.8730 O   0  0  0  0  0  0  0  0  0  0  0  0
   56.9810   30.7430   43.9730 C   0  0  0  0  0  0  0  0  0  0  0  0
   56.6660   30.6710   42.6070 C   0  0  0  0  0  0  0  0  0  0  0  0
   57.2020   31.5960   41.7110 C   0  0  0  0  0  0  0  0  0  0  0  0
   58.0510   32.5930   42.1880 C   0  0  0  0  0  0  0  0  0  0  0  0
   58.3260   32.6760   43.5140 N   0  0  0  0  0  0  0  0  0  0  0  0
   57.8120   31.7980   44.4220 C   0  0  0  0  0  0  0  0  0  0  0  0
   58.0610   32.0210   45.8220 N   0  0  0  0  0  0  0  0  0  0  0  0
   59.2260   31.4080   46.4620 C   0  0  0  0  0  0  0  0  0  0  0  0
   60.3060   32.4740   46.7340 C   0  0  0  0  0  0  0  0  0  0  0  0
   59.7580   33.8220   47.0450 N   0  0  0  0  0  0  0  0  0  0  0  0
   59.9310   34.7600   45.9200 C   0  0  0  0  0  0  0  0  0  0  0  0
   58.3600   33.7950   47.5270 C   0  0  0  0  0  0  0  0  0  0  0  0
   57.4100   33.1480   46.5030 C   0  0  0  0  0  0  0  0  0  0  0  0
   56.2670   26.7820   45.9920 C   0  0  0  0  0  0  0  0  0  0  0  0
   53.7272   23.3116   45.6608 H   0  0  0  0  0  0  0  0  0  0  0  0
   53.9170   24.7791   44.6423 H   0  0  0  0  0  0  0  0  0  0  0  0
   55.1929   23.5147   44.6423 H   0  0  0  0  0  0  0  0  0  0  0  0
   57.6171   23.6737   46.4778 H   0  0  0  0  0  0  0  0  0  0  0  0
   59.7200   25.0050   46.3109 H   0  0  0  0  0  0  0  0  0  0  0  0
   59.6189   27.4676   45.9432 H   0  0  0  0  0  0  0  0  0  0  0  0
   55.9932   29.8813   42.2413 H   0  0  0  0  0  0  0  0  0  0  0  0
   56.9574   31.5392   40.6401 H   0  0  0  0  0  0  0  0  0  0  0  0
   58.4989   33.3139   41.4882 H   0  0  0  0  0  0  0  0  0  0  0  0
   58.9189   30.9506   47.4141 H   0  0  0  0  0  0  0  0  0  0  0  0
   59.6404   30.6396   45.7928 H   0  0  0  0  0  0  0  0  0  0  0  0
   60.9134   32.1414   47.5887 H   0  0  0  0  0  0  0  0  0  0  0  0
   60.8953   32.5742   45.8106 H   0  0  0  0  0  0  0  0  0  0  0  0
   60.1175   35.7711   46.3110 H   0  0  0  0  0  0  0  0  0  0  0  0
   60.7855   34.4413   45.3050 H   0  0  0  0  0  0  0  0  0  0  0  0
   59.0190   34.7671   45.3050 H   0  0  0  0  0  0  0  0  0  0  0  0
   58.3182   33.2195   48.4635 H   0  0  0  0  0  0  0  0  0  0  0  0
   58.0343   34.8339   47.6839 H   0  0  0  0  0  0  0  0  0  0  0  0
   56.5126   32.7837   47.0245 H   0  0  0  0  0  0  0  0  0  0  0  0
   57.1378   33.9030   45.7507 H   0  0  0  0  0  0  0  0  0  0  0  0
   55.2932   27.2869   45.9101 H   0  0  0  0  0  0  0  0  0  0  0  0
  1  2  1  0
  2  3  1  0
  3  4  2  0
  4  5  1  0
  5  6  2  0
  6  7  1  0
  7  8  1  0
  8  9  1  0
  9 10  2  0
  9 11  1  0
 11 12  2  0
 12 13  1  0
 13 14  2  0
 14 15  1  0
 15 16  2  0
 16 17  1  0
 17 18  1  0
 18 19  1  0
 19 20  1  0
 20 21  1  0
 20 22  1  0
 22 23  1  0
  7 24  2  0
 24  3  1  0
 16 11  1  0
 23 17  1  0
  1 25  1  0
  1 26  1  0
  1 27  1  0
  4 28  1  0
  5 29  1  0
  6 30  1  0
 12 31  1  0
 13 32  1  0
 14 33  1  0
 18 34  1  0
 18 35  1  0
 19 36  1  0
 19 37  1  0
 21 38  1  0
 21 39  1  0
 21 40  1  0
 22 41  1  0
 22 42  1  0
 23 43  1  0
 23 44  1  0
 24 45  1  0
M  CHG  1   8  -1
M  END
>  <UniqueID>  (20) 
18

>  <SMILES>  (20) 
COc1cccc([N-]C(=O)c2cccnc2N2CCN(C)CC2)c1

>  <Energy>  (20) 
65.68252065950524

>  <Genealogy>  (20) 
COc1cccc([N-]C(=O)c2cccnc2N2CCN(C)CC2)c1 (protonated)
COc1cccc([N-]C(=O)c2cccnc2N2CCN(C)CC2)c1 (3D coordinates assigned)
COc1cccc([N-]C(=O)c2cccnc2N2CCN(C)CC2)c1 (nonaromatic ring conformer: 65.68252065950524 kcal/mol)

>  <smiles>  (20) 
COc1cccc(NC(=O)c2cccnc2N2CCN(C)CC2)c1

>  <score_type>  (20) 
oracle

>  <origin>  (20) 
adg

>  <m_score__min__energy>  (20) 
-9.3100000000000005

>  <m_primary>  (20) 
energy

$$$$
20:0
     RDKit          3D

 35 38  0  0  0  0  0  0  0  0999 V2000
   57.7751   32.7753   42.0534 H   0  0  0  0  0  0  0  0  0  0  0  0
   57.4240   31.7750   42.3470 C   0  0  0  0  0  0  0  0  0  0  0  0
   57.0390   30.6780   42.6690 C   0  0  0  0  0  0  0  0  0  0  0  0
   56.5720   29.3450   43.0660 C   0  0  0  0  0  0  0  0  0  0  0  0
   55.6101   29.1370   42.5747 H   0  0  0  0  0  0  0  0  0  0  0  0
   57.3215   28.5996   42.7617 H   0  0  0  0  0  0  0  0  0  0  0  0
   56.3970   29.2760   44.5150 N   0  0  0  0  0  0  0  0  0  0  0  0
   57.1750   29.8690   45.3700 C   0  0  0  0  0  0  0  0  0  0  0  0
   57.3510   31.2150   45.4370 N   0  0  0  0  0  0  0  0  0  0  0  0
   58.3570   31.3210   46.3410 C   0  0  0  0  0  0  0  0  0  0  0  0
   58.9890   32.4220   46.6470 N   0  0  0  0  0  0  0  0  0  0  0  0
   58.7060   33.8320   46.3220 C   0  0  0  0  0  0  0  0  0  0  0  0
   59.1461   34.2092   47.2569 H   0  0  0  0  0  0  0  0  0  0  0  0
   58.7920   34.2280   44.8560 C   0  0  0  0  0  0  0  0  0  0  0  0
   59.1906   35.2138   44.5744 H   0  0  0  0  0  0  0  0  0  0  0  0
   59.2457   33.7883   43.9555 H   0  0  0  0  0  0  0  0  0  0  0  0
   57.4310   34.1210   45.5460 C   0  0  0  0  0  0  0  0  0  0  0  0
   56.8498   35.0299   45.7609 H   0  0  0  0  0  0  0  0  0  0  0  0
   56.4984   33.5723   45.3480 H   0  0  0  0  0  0  0  0  0  0  0  0
   58.7170   30.1170   46.8180 N   0  0  0  0  0  0  0  0  0  0  0  0
   57.9830   29.2160   46.2250 N   0  0  0  0  0  0  0  0  0  0  0  0
   58.7750   28.0460   46.0930 C   0  0  0  0  0  0  0  0  0  0  0  0
   58.3860   26.9110   45.4960 C   0  0  0  0  0  0  0  0  0  0  0  0
   58.6865   26.7560   44.4492 H   0  0  0  0  0  0  0  0  0  0  0  0
   57.5820   25.8520   46.1430 C   0  0  0  0  0  0  0  0  0  0  0  0
   58.0840   24.7780   46.7790 N   0  0  0  0  0  0  0  0  0  0  0  0
   56.9890   24.1140   47.2010 C   0  0  0  0  0  0  0  0  0  0  0  0
   57.0550   23.0360   47.8470 O   0  0  0  0  0  0  0  0  0  0  0  0
   55.8160   24.6950   46.8760 N   0  0  0  0  0  0  0  0  0  0  0  0
   56.2030   25.7950   46.2070 C   0  0  0  0  0  0  0  0  0  0  0  0
   55.3010   26.7130   45.6730 O   0  0  0  0  0  0  0  0  0  0  0  0
   55.5380   27.3040   44.8870 H   0  0  0  0  0  0  0  0  0  0  0  0
   60.0630   28.4160   46.7220 C   0  0  0  0  0  0  0  0  0  0  0  0
   60.9306   27.7499   46.8381 H   0  0  0  0  0  0  0  0  0  0  0  0
   60.0050   29.6560   47.1160 N   0  0  0  0  0  0  0  0  0  0  0  0
  1  2  1  0
  2  3  3  0
  3  4  1  0
  4  5  1  0
  4  6  1  0
  4  7  1  0
  7  8  2  3
  8  9  1  0
  9 10  1  0
 10 11  2  3
 11 12  1  0
 12 13  1  0
 12 14  1  0
 14 15  1  0
 14 16  1  0
 14 17  1  0
 17 18  1  0
 17 19  1  0
 10 20  1  0
 20 21  1  0
 21 22  1  0
 22 23  2  0
 23 24  1  0
 23 25  1  0
 25 26  1  0
 26 27  1  0
 27 28  2  0
 27 29  1  0
 29 30  1  0
 30 31  1  0
 31 32  1  0
 22 33  1  0
 33 34  1  0
 33 35  2  0
 21  8  1  0
 30 25  2  0
 17 12  1  0
 35 20  1  0
M  CHG  3   9  -1  26  -1  29  -1
M  END
>  <UniqueID>  (21) 
19

>  <SMILES>  (21) 
C#CCN=c1[n-]c(=NC2CC2)n2n1/C(=C/c1[n-]c(=O)[n-]c1O)C=N2

>  <Energy>  (21) 
432.9702803332627

>  <Genealogy>  (21) 
C#CCN=c1[n-]c(=NC2CC2)n2n1C(=Cc1[n-]c(=O)[n-]c1O)C=N2 (protonated)
C#CCN=c1[n-]c(=NC2CC2)n2n1/C(=C/c1[n-]c(=O)[n-]c1O)C=N2 (cis-trans isomerization)
C#CCN=c1[n-]c(=NC2CC2)n2n1/C(=C/c1[n-]c(=O)[n-]c1O)C=N2 (3D coordinates assigned)
C#CCN=c1[n-]c(=NC2CC2)n2n1/C(=C/c1[n-]c(=O)[n-]c1O)C=N2 (nonaromatic ring conformer: 432.9702803332627 kcal/mol)

>  <smiles>  (21) 
C#CCN=c1[nH]c(=NC2CC2)n2n1C(=Cc1[nH]c(=O)[nH]c1O)C=N2

>  <score_type>  (21) 
oracle

>  <origin>  (21) 
adg

>  <m_score__min__energy>  (21) 
-13.75

>  <m_primary>  (21) 
energy

$$$$
21:0
     RDKit          3D

 58 63  0  0  0  0  0  0  0  0999 V2000
   55.7490   29.5870   52.7500 C   0  0  0  0  0  0  0  0  0  0  0  0
   56.6670   30.2630   51.8220 N   0  0  0  0  0  0  0  0  0  0  0  0
   56.6170   31.7230   52.0030 C   0  0  0  0  0  0  0  0  0  0  0  0
   58.0480   29.7310   51.8890 C   0  0  0  0  0  0  0  0  0  0  0  0
   58.8870   30.0560   50.6780 C   0  0  0  0  0  0  0  0  0  0  0  0
   58.6320   29.6360   49.4470 C   0  0  0  0  0  0  0  0  0  0  0  0
   59.6450   30.1720   48.5530 C   0  0  0  0  0  0  0  0  0  0  0  0
   59.7280   29.8570   47.1100 C   0  0  0  0  0  0  0  0  0  0  0  0
   60.4320   28.6940   46.7550 C   0  0  0  0  0  0  0  0  0  0  0  0
   60.3360   28.1670   45.4690 C   0  0  0  0  0  0  0  0  0  0  0  0
   59.5260   28.7810   44.5160 C   0  0  0  0  0  0  0  0  0  0  0  0
   58.8590   29.9760   44.8200 C   0  0  0  0  0  0  0  0  0  0  0  0
   58.0430   30.5840   43.8440 C   0  0  0  0  0  0  0  0  0  0  0  0
   57.4190   31.8010   44.1230 C   0  0  0  0  0  0  0  0  0  0  0  0
   57.6520   32.3880   45.3220 N   0  0  0  0  0  0  0  0  0  0  0  0
   57.2490   33.6030   45.7310 C   0  0  0  0  0  0  0  0  0  0  0  0
   57.8000   33.8670   46.9690 C   0  0  0  0  0  0  0  0  0  0  0  0
   58.5650   32.7660   47.3190 C   0  0  0  0  0  0  0  0  0  0  0  0
   58.4270   31.8480   46.2840 C   0  0  0  0  0  0  0  0  0  0  0  0
   59.0130   30.5700   46.1070 C   0  0  0  0  0  0  0  0  0  0  0  0
   60.4570   30.9720   49.2500 C   0  0  0  0  0  0  0  0  0  0  0  0
   61.6440   31.6770   48.7280 C   0  0  0  0  0  0  0  0  0  0  0  0
   61.6970   32.3960   47.5350 C   0  0  0  0  0  0  0  0  0  0  0  0
   62.8960   33.0160   47.4150 N   0  0  0  0  0  0  0  0  0  0  0  0
   63.3220   33.8950   46.3350 C   0  0  0  0  0  0  0  0  0  0  0  0
   63.5990   32.6790   48.5110 C   0  0  0  0  0  0  0  0  0  0  0  0
   64.8620   33.0770   48.8100 N   0  0  0  0  0  0  0  0  0  0  0  0
   65.4400   32.6310   49.9660 C   0  0  0  0  0  0  0  0  0  0  0  0
   64.7410   31.7590   50.8290 C   0  0  0  0  0  0  0  0  0  0  0  0
   63.4360   31.3520   50.5040 C   0  0  0  0  0  0  0  0  0  0  0  0
   62.8780   31.8560   49.3310 C   0  0  0  0  0  0  0  0  0  0  0  0
   60.0760   30.9640   50.6950 C   0  0  0  0  0  0  0  0  0  0  0  0
   56.0472   29.8066   53.7858 H   0  0  0  0  0  0  0  0  0  0  0  0
   54.7239   29.9475   52.5793 H   0  0  0  0  0  0  0  0  0  0  0  0
   55.7890   28.5011   52.5793 H   0  0  0  0  0  0  0  0  0  0  0  0
   56.6089   31.9592   53.0773 H   0  0  0  0  0  0  0  0  0  0  0  0
   57.5000   32.1811   51.5335 H   0  0  0  0  0  0  0  0  0  0  0  0
   55.7047   32.1197   51.5335 H   0  0  0  0  0  0  0  0  0  0  0  0
   58.5405   30.1562   52.7759 H   0  0  0  0  0  0  0  0  0  0  0  0
   57.9663   28.6351   51.9365 H   0  0  0  0  0  0  0  0  0  0  0  0
   57.7930   28.9891   49.1510 H   0  0  0  0  0  0  0  0  0  0  0  0
   61.0665   28.1937   47.5014 H   0  0  0  0  0  0  0  0  0  0  0  0
   60.9024   27.2618   45.2047 H   0  0  0  0  0  0  0  0  0  0  0  0
   59.4094   28.3263   43.5212 H   0  0  0  0  0  0  0  0  0  0  0  0
   57.8987   30.1010   42.8663 H   0  0  0  0  0  0  0  0  0  0  0  0
   56.7528   32.2732   43.3859 H   0  0  0  0  0  0  0  0  0  0  0  0
   56.5867   34.2785   45.1697 H   0  0  0  0  0  0  0  0  0  0  0  0
   57.6583   34.7802   47.5657 H   0  0  0  0  0  0  0  0  0  0  0  0
   59.1628   32.6427   48.2341 H   0  0  0  0  0  0  0  0  0  0  0  0
   60.8829   32.4520   46.7973 H   0  0  0  0  0  0  0  0  0  0  0  0
   63.7647   34.8085   46.7587 H   0  0  0  0  0  0  0  0  0  0  0  0
   64.0698   33.3785   45.7152 H   0  0  0  0  0  0  0  0  0  0  0  0
   62.4533   34.1619   45.7152 H   0  0  0  0  0  0  0  0  0  0  0  0
   66.4587   32.9544   50.2261 H   0  0  0  0  0  0  0  0  0  0  0  0
   65.2168   31.3993   51.7532 H   0  0  0  0  0  0  0  0  0  0  0  0
   62.8758   30.6613   51.1514 H   0  0  0  0  0  0  0  0  0  0  0  0
   60.8835   30.5588   51.3224 H   0  0  0  0  0  0  0  0  0  0  0  0
   59.8762   31.9611   51.1144 H   0  0  0  0  0  0  0  0  0  0  0  0
  1  2  1  0
  2  3  1  0
  2  4  1  0
  4  5  1  0
  5  6  2  0
  6  7  1  0
  7  8  1  0
  8  9  2  0
  9 10  1  0
 10 11  2  0
 11 12  1  0
 12 13  1  0
 13 14  2  0
 14 15  1  0
 15 16  1  0
 16 17  2  0
 17 18  1  0
 18 19  2  0
 19 20  1  0
  7 21  2  0
 21 22  1  0
 22 23  2  0
 23 24  1  0
 24 25  1  0
 24 26  1  0
 26 27  2  0
 27 28  1  0
 28 29  2  0
 29 30  1  0
 30 31  2  0
 21 32  1  0
 32  5  1  0
 20  8  1  0
 31 22  1  0
 20 12  2  0
 31 26  1  0
 19 15  1  0
  1 33  1  0
  1 34  1  0
  1 35  1  0
  3 36  1  0
  3 37  1  0
  3 38  1  0
  4 39  1  0
  4 40  1  0
  6 41  1  0
  9 42  1  0
 10 43  1  0
 11 44  1  0
 13 45  1  0
 14 46  1  0
 16 47  1  0
 17 48  1  0
 18 49  1  0
 23 50  1  0
 25 51  1  0
 25 52  1  0
 25 53  1  0
 28 54  1  0
 29 55  1  0
 30 56  1  0
 32 57  1  0
 32 58  1  0
M  END
>  <UniqueID>  (22) 
20

>  <SMILES>  (22) 
CN(C)CC1=CC(c2cccc3ccn4cccc4c23)=C(c2cn(C)c3ncccc23)C1

>  <Energy>  (22) 
160.97906133185882

>  <Genealogy>  (22) 
CN(C)CC1=CC(c2cccc3ccn4cccc4c23)=C(c2cn(C)c3ncccc23)C1 (3D coordinates assigned)
CN(C)CC1=CC(c2cccc3ccn4cccc4c23)=C(c2cn(C)c3ncccc23)C1 (nonaromatic ring conformer: 160.97906133185882 kcal/mol)

>  <smiles>  (22) 
CN(C)CC1=CC(c2cccc3ccn4cccc4c23)=C(c2cn(C)c3ncccc23)C1

>  <score_type>  (22) 
oracle

>  <origin>  (22) 
adg

>  <m_score__min__energy>  (22) 
-9.4399999999999995

>  <m_primary>  (22) 
energy

$$$$
22:0
     RDKit          3D

 42 44  0  0  0  0  0  0  0  0999 V2000
   55.8860   31.4750   44.6300 O   0  0  0  0  0  0  0  0  0  0  0  0
   57.0990   31.1410   44.6960 C   0  0  0  0  0  0  0  0  0  0  0  0
   58.1220   32.1280   44.4970 N   0  0  0  0  0  0  0  0  0  0  0  0
   58.6150   33.0590   45.4720 C   0  0  0  0  0  0  0  0  0  0  0  0
   59.1100   34.2940   45.0330 C   0  0  0  0  0  0  0  0  0  0  0  0
   59.5800   35.2360   45.9520 C   0  0  0  0  0  0  0  0  0  0  0  0
   59.5440   34.9580   47.3200 C   0  0  0  0  0  0  0  0  0  0  0  0
   59.0280   33.7390   47.7720 C   0  0  0  0  0  0  0  0  0  0  0  0
   58.5580   32.7930   46.8540 C   0  0  0  0  0  0  0  0  0  0  0  0
   57.4760   29.7410   45.0300 C   0  0  0  0  0  0  0  0  0  0  0  0
   58.8270   29.4200   45.2620 C   0  0  0  0  0  0  0  0  0  0  0  0
   59.2100   28.1140   45.5780 C   0  0  0  0  0  0  0  0  0  0  0  0
   58.2510   27.0920   45.6700 C   0  0  0  0  0  0  0  0  0  0  0  0
   58.6140   25.7360   45.9920 N   0  0  0  0  0  0  0  0  0  0  0  0
   57.6690   24.7560   46.5320 C   0  0  0  0  0  0  0  0  0  0  0  0
   57.3100   23.7240   45.4870 C   0  0  0  0  0  0  0  0  0  0  0  0
   58.3410   22.9140   44.9770 C   0  0  0  0  0  0  0  0  0  0  0  0
   58.0810   21.9690   43.9850 C   0  0  0  0  0  0  0  0  0  0  0  0
   56.7880   21.8120   43.4920 C   0  0  0  0  0  0  0  0  0  0  0  0
   55.7470   22.5900   43.9990 C   0  0  0  0  0  0  0  0  0  0  0  0
   55.9800   23.5410   45.0120 C   0  0  0  0  0  0  0  0  0  0  0  0
   54.8200   24.3040   45.5380 C   0  0  0  0  0  0  0  0  0  0  0  0
   54.9850   25.4660   45.9960 O   0  0  0  0  0  0  0  0  0  0  0  0
   53.5340   23.7830   45.4900 O   0  0  0  0  0  0  0  0  0  0  0  0
   56.9040   27.4060   45.4400 C   0  0  0  0  0  0  0  0  0  0  0  0
   56.5130   28.7100   45.1230 C   0  0  0  0  0  0  0  0  0  0  0  0
   55.1640   28.9640   44.9020 O   0  0  0  0  0  0  0  0  0  0  0  0
   59.1288   34.5237   43.9574 H   0  0  0  0  0  0  0  0  0  0  0  0
   59.9789   36.1978   45.5973 H   0  0  0  0  0  0  0  0  0  0  0  0
   59.9213   35.6973   48.0418 H   0  0  0  0  0  0  0  0  0  0  0  0
   58.9916   33.5237   48.8501 H   0  0  0  0  0  0  0  0  0  0  0  0
   58.1431   31.8394   47.2126 H   0  0  0  0  0  0  0  0  0  0  0  0
   59.5914   30.2081   45.1936 H   0  0  0  0  0  0  0  0  0  0  0  0
   60.2709   27.8844   45.7561 H   0  0  0  0  0  0  0  0  0  0  0  0
   59.6070   25.4430   45.8370 H   0  0  0  0  0  0  0  0  0  0  0  0
   58.1271   24.2509   47.3952 H   0  0  0  0  0  0  0  0  0  0  0  0
   56.7524   25.2815   46.8380 H   0  0  0  0  0  0  0  0  0  0  0  0
   59.3640   23.0274   45.3652 H   0  0  0  0  0  0  0  0  0  0  0  0
   58.8983   21.3468   43.5914 H   0  0  0  0  0  0  0  0  0  0  0  0
   56.5873   21.0736   42.7018 H   0  0  0  0  0  0  0  0  0  0  0  0
   54.7295   22.4591   43.6021 H   0  0  0  0  0  0  0  0  0  0  0  0
   56.1435   26.6143   45.5101 H   0  0  0  0  0  0  0  0  0  0  0  0
  1  2  2  0
  2  3  1  0
  3  4  1  0
  4  5  2  0
  5  6  1  0
  6  7  2  0
  7  8  1  0
  8  9  2  0
  2 10  1  0
 10 11  2  0
 11 12  1  0
 12 13  2  0
 13 14  1  0
 14 15  1  0
 15 16  1  0
 16 17  2  0
 17 18  1  0
 18 19  2  0
 19 20  1  0
 20 21  2  0
 21 22  1  0
 22 23  2  0
 22 24  1  0
 13 25  1  0
 25 26  2  0
 26 27  1  0
  9  4  1  0
 26 10  1  0
 21 16  1  0
  5 28  1  0
  6 29  1  0
  7 30  1  0
  8 31  1  0
  9 32  1  0
 11 33  1  0
 12 34  1  0
 14 35  1  0
 15 36  1  0
 15 37  1  0
 17 38  1  0
 18 39  1  0
 19 40  1  0
 20 41  1  0
 25 42  1  0
M  CHG  3   3  -1  24  -1  27  -1
M  END
>  <UniqueID>  (23) 
21

>  <SMILES>  (23) 
O=C([N-]c1ccccc1)c1ccc(NCc2ccccc2C(=O)[O-])cc1[O-]

>  <Energy>  (23) 
56.16878150929936

>  <Genealogy>  (23) 
O=C([N-]c1ccccc1)c1ccc(NCc2ccccc2C(=O)[O-])cc1[O-] (protonated)
O=C([N-]c1ccccc1)c1ccc(NCc2ccccc2C(=O)[O-])cc1[O-] (3D coordinates assigned)
O=C([N-]c1ccccc1)c1ccc(NCc2ccccc2C(=O)[O-])cc1[O-] (optimized conformer: 56.16878150929936 kcal/mol)

>  <smiles>  (23) 
O=C(Nc1ccccc1)c1ccc(NCc2ccccc2C(=O)O)cc1O

>  <score_type>  (23) 
oracle

>  <origin>  (23) 
adg

>  <m_score__min__energy>  (23) 
-16.43

>  <m_primary>  (23) 
energy

$$$$
23:0
     RDKit          3D

 28 30  0  0  0  0  0  0  0  0999 V2000
   56.2502   24.4089   46.3282 H   0  0  0  0  0  0  0  0  0  0  0  0
   56.5080   25.3910   45.9050 C   0  0  0  0  0  0  0  0  0  0  0  0
   55.9730   26.5540   46.3680 N   0  0  0  0  0  0  0  0  0  0  0  0
   56.5590   27.4610   45.5780 C   0  0  0  0  0  0  0  0  0  0  0  0
   56.3750   28.8020   45.6080 N   0  0  0  0  0  0  0  0  0  0  0  0
   57.0670   29.5820   44.7220 C   0  0  0  0  0  0  0  0  0  0  0  0
   56.8780   30.8710   44.7550 N   0  0  0  0  0  0  0  0  0  0  0  0
   57.7080   31.8550   45.3910 C   0  0  0  0  0  0  0  0  0  0  0  0
   58.1190   31.7070   46.7250 C   0  0  0  0  0  0  0  0  0  0  0  0
   57.8427   30.8022   47.2862 H   0  0  0  0  0  0  0  0  0  0  0  0
   58.8780   32.7050   47.3430 C   0  0  0  0  0  0  0  0  0  0  0  0
   59.2122   32.5716   48.3825 H   0  0  0  0  0  0  0  0  0  0  0  0
   59.2160   33.8730   46.6490 C   0  0  0  0  0  0  0  0  0  0  0  0
   59.9820   34.8440   47.3110 O   0  0  0  0  0  0  0  0  0  0  0  0
   60.7410   34.6020   48.4910 C   0  0  0  0  0  0  0  0  0  0  0  0
   60.1175   34.8008   49.3752 H   0  0  0  0  0  0  0  0  0  0  0  0
   61.0731   33.5534   48.5047 H   0  0  0  0  0  0  0  0  0  0  0  0
   61.6188   35.2648   48.5047 H   0  0  0  0  0  0  0  0  0  0  0  0
   58.7730   34.0340   45.3210 C   0  0  0  0  0  0  0  0  0  0  0  0
   59.0257   34.9497   44.7664 H   0  0  0  0  0  0  0  0  0  0  0  0
   58.0140   33.0350   44.7060 C   0  0  0  0  0  0  0  0  0  0  0  0
   57.6548   33.1777   43.6761 H   0  0  0  0  0  0  0  0  0  0  0  0
   57.9110   28.9900   43.8000 N   0  0  0  0  0  0  0  0  0  0  0  0
   58.4030   29.5560   43.0750 H   0  0  0  0  0  0  0  0  0  0  0  0
   58.0900   27.6330   43.7790 C   0  0  0  0  0  0  0  0  0  0  0  0
   58.8610   27.0960   42.9390 O   0  0  0  0  0  0  0  0  0  0  0  0
   57.3920   26.8690   44.7000 C   0  0  0  0  0  0  0  0  0  0  0  0
   57.3870   25.5400   44.8770 N   0  0  0  0  0  0  0  0  0  0  0  0
  1  2  1  0
  2  3  2  0
  3  4  1  0
  4  5  1  0
  5  6  1  0
  6  7  2  0
  7  8  1  0
  8  9  2  0
  9 10  1  0
  9 11  1  0
 11 12  1  0
 11 13  2  0
 13 14  1  0
 14 15  1  0
 15 16  1  0
 15 17  1  0
 15 18  1  0
 13 19  1  0
 19 20  1  0
 19 21  2  0
 21 22  1  0
  6 23  1  0
 23 24  1  0
 23 25  1  0
 25 26  2  0
 25 27  1  0
 27 28  1  0
 28  2  1  0
 27  4  2  0
 21  8  1  0
M  CHG  2   5  -1  28  -1
M  END
>  <UniqueID>  (24) 
22

>  <SMILES>  (24) 
COc1ccc(/N=c2/[n-]c3nc[n-]c3c(=O)[nH]2)cc1

>  <Energy>  (24) 
77.21946018026782

>  <Genealogy>  (24) 
COc1ccc(N=c2[n-]c3nc[n-]c3c(=O)[nH]2)cc1 (protonated)
COc1ccc(/N=c2/[n-]c3nc[n-]c3c(=O)[nH]2)cc1 (cis-trans isomerization)
COc1ccc(/N=c2/[n-]c3nc[n-]c3c(=O)[nH]2)cc1 (3D coordinates assigned)
COc1ccc(/N=c2/[n-]c3nc[n-]c3c(=O)[nH]2)cc1 (optimized conformer: 77.21946018026782 kcal/mol)

>  <smiles>  (24) 
COc1ccc(N=c2[nH]c(=O)c3[nH]cnc3[nH]2)cc1

>  <score_type>  (24) 
oracle

>  <origin>  (24) 
adg

>  <m_score__min__energy>  (24) 
-8.9199999999999999

>  <m_primary>  (24) 
energy

$$$$
24:0
     RDKit          3D

 31 33  0  0  0  0  0  0  0  0999 V2000
   57.5380   32.6250   44.7750 C   0  0  0  0  0  0  0  0  0  0  0  0
   56.9470   31.3340   44.8850 O   0  0  0  0  0  0  0  0  0  0  0  0
   57.6250   30.1890   45.3280 C   0  0  0  0  0  0  0  0  0  0  0  0
   58.6920   30.2500   46.2450 C   0  0  0  0  0  0  0  0  0  0  0  0
   59.3390   29.0810   46.6580 C   0  0  0  0  0  0  0  0  0  0  0  0
   58.9280   27.8340   46.1590 C   0  0  0  0  0  0  0  0  0  0  0  0
   59.5400   26.6280   46.5390 C   0  0  0  0  0  0  0  0  0  0  0  0
   60.5000   26.6170   47.3560 O   0  0  0  0  0  0  0  0  0  0  0  0
   59.0950   25.4550   46.0190 N   0  0  0  0  0  0  0  0  0  0  0  0
   58.0620   25.4110   45.1330 C   0  0  0  0  0  0  0  0  0  0  0  0
   57.6000   24.1110   44.5850 C   0  0  0  0  0  0  0  0  0  0  0  0
   56.6450   24.0680   43.5500 C   0  0  0  0  0  0  0  0  0  0  0  0
   56.2110   22.8430   43.0360 C   0  0  0  0  0  0  0  0  0  0  0  0
   56.7210   21.6450   43.5440 C   0  0  0  0  0  0  0  0  0  0  0  0
   56.2780   20.4310   43.0200 O   0  0  0  0  0  0  0  0  0  0  0  0
   57.6700   21.6750   44.5710 C   0  0  0  0  0  0  0  0  0  0  0  0
   58.1080   22.8980   45.0890 C   0  0  0  0  0  0  0  0  0  0  0  0
   57.4570   26.5690   44.7540 N   0  0  0  0  0  0  0  0  0  0  0  0
   57.8600   27.7710   45.2410 C   0  0  0  0  0  0  0  0  0  0  0  0
   57.2170   28.9440   44.8310 C   0  0  0  0  0  0  0  0  0  0  0  0
   57.7235   33.0302   45.7807 H   0  0  0  0  0  0  0  0  0  0  0  0
   58.4901   32.5471   44.2297 H   0  0  0  0  0  0  0  0  0  0  0  0
   56.8569   33.2948   44.2297 H   0  0  0  0  0  0  0  0  0  0  0  0
   59.0187   31.2236   46.6391 H   0  0  0  0  0  0  0  0  0  0  0  0
   60.1713   29.1382   47.3749 H   0  0  0  0  0  0  0  0  0  0  0  0
   56.2380   25.0056   43.1435 H   0  0  0  0  0  0  0  0  0  0  0  0
   55.4648   22.8216   42.2281 H   0  0  0  0  0  0  0  0  0  0  0  0
   56.8200   19.5810   43.1230 H   0  0  0  0  0  0  0  0  0  0  0  0
   58.0732   20.7336   44.9726 H   0  0  0  0  0  0  0  0  0  0  0  0
   58.8550   22.9126   45.8963 H   0  0  0  0  0  0  0  0  0  0  0  0
   56.3852   28.8885   44.1133 H   0  0  0  0  0  0  0  0  0  0  0  0
  1  2  1  0
  2  3  1  0
  3  4  2  0
  4  5  1  0
  5  6  2  0
  6  7  1  0
  7  8  2  0
  7  9  1  0
  9 10  2  0
 10 11  1  0
 11 12  2  0
 12 13  1  0
 13 14  2  0
 14 15  1  0
 14 16  1  0
 16 17  2  0
 10 18  1  0
 18 19  1  0
 19 20  2  0
 20  3  1  0
 19  6  1  0
 17 11  1  0
  1 21  1  0
  1 22  1  0
  1 23  1  0
  4 24  1  0
  5 25  1  0
 12 26  1  0
 13 27  1  0
 15 28  1  0
 16 29  1  0
 17 30  1  0
 20 31  1  0
M  CHG  1  18  -1
M  END
>  <UniqueID>  (25) 
23

>  <SMILES>  (25) 
COc1ccc2c(=O)nc(-c3ccc(O)cc3)[n-]c2c1

>  <Energy>  (25) 
38.958896197293704

>  <Genealogy>  (25) 
COc1ccc2c(=O)nc(-c3ccc(O)cc3)[n-]c2c1 (protonated)
COc1ccc2c(=O)nc(-c3ccc(O)cc3)[n-]c2c1 (3D coordinates assigned)
COc1ccc2c(=O)nc(-c3ccc(O)cc3)[n-]c2c1 (optimized conformer: 38.958896197293704 kcal/mol)

>  <smiles>  (25) 
COc1ccc2c(=O)nc(-c3ccc(O)cc3)[nH]c2c1

>  <score_type>  (25) 
oracle

>  <origin>  (25) 
adg

>  <m_score__min__energy>  (25) 
-7.8799999999999999

>  <m_primary>  (25) 
energy

$$$$
25:0
     RDKit          3D

 21 21  0  0  0  0  0  0  0  0999 V2000
   55.3384   29.4356   42.8190 H   0  0  0  0  0  0  0  0  0  0  0  0
   55.8080   29.7610   43.7590 C   0  0  0  0  0  0  0  0  0  0  0  0
   55.5230   29.1090   44.8460 N   0  0  0  0  0  0  0  0  0  0  0  0
   56.2320   28.0060   45.2630 O   0  0  0  0  0  0  0  0  0  0  0  0
   57.5240   28.1530   45.8340 C   0  0  0  0  0  0  0  0  0  0  0  0
   57.6754   27.3773   46.5991 H   0  0  0  0  0  0  0  0  0  0  0  0
   57.6064   29.1488   46.2941 H   0  0  0  0  0  0  0  0  0  0  0  0
   58.5850   28.0100   44.7530 C   0  0  0  0  0  0  0  0  0  0  0  0
   59.5680   27.1360   45.1790 F   0  0  0  0  0  0  0  0  0  0  0  0
   59.1570   29.2420   44.4890 F   0  0  0  0  0  0  0  0  0  0  0  0
   58.0120   27.5170   43.5950 F   0  0  0  0  0  0  0  0  0  0  0  0
   56.7280   30.9150   43.7170 C   0  0  0  0  0  0  0  0  0  0  0  0
   56.9690   31.5950   44.8730 N   0  0  0  0  0  0  0  0  0  0  0  0
   57.7810   32.6850   44.9170 C   0  0  0  0  0  0  0  0  0  0  0  0
   58.0790   33.5750   46.5760 Br  0  0  0  0  0  0  0  0  0  0  0  0
   58.3890   33.1490   43.7490 C   0  0  0  0  0  0  0  0  0  0  0  0
   59.0554   34.0237   43.7786 H   0  0  0  0  0  0  0  0  0  0  0  0
   58.1420   32.4910   42.5440 C   0  0  0  0  0  0  0  0  0  0  0  0
   58.6077   32.8507   41.6146 H   0  0  0  0  0  0  0  0  0  0  0  0
   57.3020   31.3740   42.5190 C   0  0  0  0  0  0  0  0  0  0  0  0
   57.0921   30.8588   41.5701 H   0  0  0  0  0  0  0  0  0  0  0  0
  1  2  1  0
  2  3  2  0
  3  4  1  0
  4  5  1  0
  5  6  1  0
  5  7  1  0
  5  8  1  0
  8  9  1  0
  8 10  1  0
  8 11  1  0
  2 12  1  0
 12 13  2  0
 13 14  1  0
 14 15  1  0
 14 16  2  0
 16 17  1  0
 16 18  1  0
 18 19  1  0
 18 20  2  0
 20 21  1  0
 20 12  1  0
M  END
>  <UniqueID>  (26) 
24

>  <SMILES>  (26) 
FC(F)(F)CO/N=C\c1cccc(Br)n1

>  <Energy>  (26) 
17.537248409162807

>  <Genealogy>  (26) 
FC(F)(F)CO/N=C\c1cccc(Br)n1 (cis-trans isomerization)
FC(F)(F)CO/N=C\c1cccc(Br)n1 (3D coordinates assigned)
FC(F)(F)CO/N=C\c1cccc(Br)n1 (optimized conformer: 17.537248409162807 kcal/mol)

>  <smiles>  (26) 
FC(F)(F)CON=Cc1cccc(Br)n1

>  <score_type>  (26) 
oracle

>  <origin>  (26) 
adg

>  <m_score__min__energy>  (26) 
-5.4299999999999997

>  <m_primary>  (26) 
energy

$$$$
26:0
     RDKit          3D

 48 51  0  0  0  0  0  0  0  0999 V2000
   59.0630   34.0180   47.8800 C   0  0  0  0  0  0  0  0  0  0  0  0
   59.1660   33.0930   49.0920 C   0  0  0  0  0  0  0  0  0  0  0  0
   58.4810   31.7400   48.8530 C   0  0  0  0  0  0  0  0  0  0  0  0
   59.2980   30.6260   49.3580 N   0  0  0  0  0  0  0  0  0  0  0  0
   60.5790   30.2270   49.0570 C   0  0  0  0  0  0  0  0  0  0  0  0
   61.2900   30.6280   48.0390 N   0  0  0  0  0  0  0  0  0  0  0  0
   62.0660   31.8210   47.9140 C   0  0  0  0  0  0  0  0  0  0  0  0
   61.8170   32.7190   46.8630 C   0  0  0  0  0  0  0  0  0  0  0  0
   62.6270   33.8450   46.6950 C   0  0  0  0  0  0  0  0  0  0  0  0
   63.7090   34.0630   47.5550 C   0  0  0  0  0  0  0  0  0  0  0  0
   63.9880   33.1470   48.5740 C   0  0  0  0  0  0  0  0  0  0  0  0
   63.1790   32.0190   48.7420 C   0  0  0  0  0  0  0  0  0  0  0  0
   61.0970   29.3390   49.9490 N   0  0  0  0  0  0  0  0  0  0  0  0
   60.0920   29.1720   50.8220 C   0  0  0  0  0  0  0  0  0  0  0  0
   60.0560   28.4030   51.9730 C   0  0  0  0  0  0  0  0  0  0  0  0
   58.9220   28.4540   52.7320 N   0  0  0  0  0  0  0  0  0  0  0  0
   57.8560   29.2490   52.3820 C   0  0  0  0  0  0  0  0  0  0  0  0
   56.7730   29.2790   53.1040 N   0  0  0  0  0  0  0  0  0  0  0  0
   55.4750   29.7380   52.6910 C   0  0  0  0  0  0  0  0  0  0  0  0
   55.3190   31.0840   52.3370 C   0  0  0  0  0  0  0  0  0  0  0  0
   54.0660   31.5790   51.9620 C   0  0  0  0  0  0  0  0  0  0  0  0
   52.9490   30.7330   51.9540 C   0  0  0  0  0  0  0  0  0  0  0  0
   51.3680   31.3630   51.4980 S   0  0  0  0  0  0  0  0  0  0  0  0
   51.3850   33.0880   51.5900 N   0  0  0  0  0  0  0  0  0  0  0  0
   51.0350   30.9370   50.0970 O   0  0  0  0  0  0  0  0  0  0  0  0
   50.3170   30.8230   52.4290 O   0  0  0  0  0  0  0  0  0  0  0  0
   53.0910   29.3960   52.3460 C   0  0  0  0  0  0  0  0  0  0  0  0
   54.3440   28.9010   52.7200 C   0  0  0  0  0  0  0  0  0  0  0  0
   57.9110   29.9980   51.2390 N   0  0  0  0  0  0  0  0  0  0  0  0
   59.0310   29.9310   50.4770 C   0  0  0  0  0  0  0  0  0  0  0  0
   58.9473   35.0574   48.2208 H   0  0  0  0  0  0  0  0  0  0  0  0
   59.9764   33.9306   47.2734 H   0  0  0  0  0  0  0  0  0  0  0  0
   58.1912   33.7318   47.2734 H   0  0  0  0  0  0  0  0  0  0  0  0
   60.2291   32.9170   49.3132 H   0  0  0  0  0  0  0  0  0  0  0  0
   58.6561   33.5840   49.9340 H   0  0  0  0  0  0  0  0  0  0  0  0
   57.5102   31.7345   49.3702 H   0  0  0  0  0  0  0  0  0  0  0  0
   58.3479   31.6070   47.7692 H   0  0  0  0  0  0  0  0  0  0  0  0
   60.9823   32.5353   46.1705 H   0  0  0  0  0  0  0  0  0  0  0  0
   62.4141   34.5601   45.8867 H   0  0  0  0  0  0  0  0  0  0  0  0
   64.3402   34.9551   47.4295 H   0  0  0  0  0  0  0  0  0  0  0  0
   64.8444   33.3139   49.2438 H   0  0  0  0  0  0  0  0  0  0  0  0
   63.4169   31.2852   49.5262 H   0  0  0  0  0  0  0  0  0  0  0  0
   60.9098   27.7740   52.2653 H   0  0  0  0  0  0  0  0  0  0  0  0
   56.1889   31.7571   52.3541 H   0  0  0  0  0  0  0  0  0  0  0  0
   53.9571   32.6347   51.6727 H   0  0  0  0  0  0  0  0  0  0  0  0
   51.3970   33.4450   50.6090 H   0  0  0  0  0  0  0  0  0  0  0  0
   52.2135   28.7328   52.3597 H   0  0  0  0  0  0  0  0  0  0  0  0
   54.4462   27.8530   53.0382 H   0  0  0  0  0  0  0  0  0  0  0  0
  1  2  1  0
  2  3  1  0
  3  4  1  0
  4  5  1  0
  5  6  2  3
  6  7  1  0
  7  8  2  0
  8  9  1  0
  9 10  2  0
 10 11  1  0
 11 12  2  0
  5 13  1  0
 13 14  1  0
 14 15  2  0
 15 16  1  0
 16 17  1  0
 17 18  2  3
 18 19  1  0
 19 20  2  0
 20 21  1  0
 21 22  2  0
 22 23  1  0
 23 24  1  0
 23 25  2  0
 23 26  2  0
 22 27  1  0
 27 28  2  0
 17 29  1  0
 29 30  2  0
 30  4  1  0
 12  7  1  0
 30 14  1  0
 28 19  1  0
  1 31  1  0
  1 32  1  0
  1 33  1  0
  2 34  1  0
  2 35  1  0
  3 36  1  0
  3 37  1  0
  8 38  1  0
  9 39  1  0
 10 40  1  0
 11 41  1  0
 12 42  1  0
 15 43  1  0
 20 44  1  0
 21 45  1  0
 24 46  1  0
 27 47  1  0
 28 48  1  0
M  CHG  3  13  -1  16  -1  24  -1
M  END
>  <UniqueID>  (27) 
25

>  <SMILES>  (27) 
CCCn1c(=Nc2ccccc2)[n-]c2c[n-]c(=Nc3ccc(S([NH-])(=O)=O)cc3)nc21

>  <Energy>  (27) 
108.62732146343087

>  <Genealogy>  (27) 
CCCn1c(=Nc2ccccc2)[n-]c2c[n-]c(=Nc3ccc(S([NH-])(=O)=O)cc3)nc21 (protonated)
CCCn1c(=Nc2ccccc2)[n-]c2c[n-]c(=Nc3ccc(S([NH-])(=O)=O)cc3)nc21 (3D coordinates assigned)
CCCn1c(=Nc2ccccc2)[n-]c2c[n-]c(=Nc3ccc(S([NH-])(=O)=O)cc3)nc21 (optimized conformer: 108.62732146343087 kcal/mol)

>  <smiles>  (27) 
CCCn1c(=Nc2ccccc2)[nH]c2c[nH]c(=Nc3ccc(S(N)(=O)=O)cc3)nc21

>  <score_type>  (27) 
oracle

>  <origin>  (27) 
adg

>  <m_score__min__energy>  (27) 
-12.81

>  <m_primary>  (27) 
energy

$$$$
27:0
     RDKit          3D

 67 70  0  0  0  0  0  0  0  0999 V2000
   59.7730   35.5990   46.4270 C   0  0  0  0  0  0  0  0  0  0  0  0
   59.7280   34.8290   47.6230 O   0  0  0  0  0  0  0  0  0  0  0  0
   60.6680   33.8460   47.9740 C   0  0  0  0  0  0  0  0  0  0  0  0
   62.0120   34.1690   48.2550 C   0  0  0  0  0  0  0  0  0  0  0  0
   62.9240   33.1680   48.5930 C   0  0  0  0  0  0  0  0  0  0  0  0
   62.5130   31.8370   48.6550 C   0  0  0  0  0  0  0  0  0  0  0  0
   63.4030   30.8690   48.9820 F   0  0  0  0  0  0  0  0  0  0  0  0
   61.1860   31.5030   48.3790 C   0  0  0  0  0  0  0  0  0  0  0  0
   60.2530   32.4990   48.0440 C   0  0  0  0  0  0  0  0  0  0  0  0
   58.8350   32.1100   47.7030 C   0  0  0  0  0  0  0  0  0  0  0  0
   58.6680   31.9940   46.2090 C   0  0  0  0  0  0  0  0  0  0  0  0
   59.1610   32.9660   45.4880 N   0  0  0  0  0  0  0  0  0  0  0  0
   58.7200   33.4880   44.2840 O   0  0  0  0  0  0  0  0  0  0  0  0
   57.7470   32.8850   43.4540 C   0  0  0  0  0  0  0  0  0  0  0  0
   58.1060   31.4280   43.2180 C   0  0  0  0  0  0  0  0  0  0  0  0
   57.5520   30.6280   44.3050 N   0  0  0  0  0  0  0  0  0  0  0  0
   56.6830   29.5370   43.9600 C   0  0  0  0  0  0  0  0  0  0  0  0
   55.5920   29.3940   44.5720 O   0  0  0  0  0  0  0  0  0  0  0  0
   57.0130   28.6220   42.9080 N   0  0  0  0  0  0  0  0  0  0  0  0
   57.8540   27.4390   43.0630 C   0  0  0  0  0  0  0  0  0  0  0  0
   58.2850   27.3080   44.4970 C   0  0  0  0  0  0  0  0  0  0  0  0
   57.4140   26.7520   45.4470 C   0  0  0  0  0  0  0  0  0  0  0  0
   57.7990   26.6590   46.7880 C   0  0  0  0  0  0  0  0  0  0  0  0
   59.0520   27.1490   47.2010 C   0  0  0  0  0  0  0  0  0  0  0  0
   59.4630   27.1020   48.5740 N   0  0  0  0  0  0  0  0  0  0  0  0
   60.0600   28.1830   49.3040 C   0  0  0  0  0  0  0  0  0  0  0  0
   61.2650   28.0910   49.6590 O   0  0  0  0  0  0  0  0  0  0  0  0
   59.3290   29.3710   49.6270 N   0  0  0  0  0  0  0  0  0  0  0  0
   59.2270   29.9380   50.9690 C   0  0  0  0  0  0  0  0  0  0  0  0
   60.1750   31.1290   51.0950 C   0  0  0  0  0  0  0  0  0  0  0  0
   59.6700   32.0960   52.1330 C   0  0  0  0  0  0  0  0  0  0  0  0
   59.2010   33.3640   51.7460 C   0  0  0  0  0  0  0  0  0  0  0  0
   58.7720   34.2790   52.7120 C   0  0  0  0  0  0  0  0  0  0  0  0
   58.8190   33.9420   54.0670 C   0  0  0  0  0  0  0  0  0  0  0  0
   59.2980   32.6910   54.4590 C   0  0  0  0  0  0  0  0  0  0  0  0
   59.7290   31.7710   53.4970 C   0  0  0  0  0  0  0  0  0  0  0  0
   59.9170   27.7040   46.2530 C   0  0  0  0  0  0  0  0  0  0  0  0
   59.5340   27.7920   44.9120 C   0  0  0  0  0  0  0  0  0  0  0  0
   57.9800   30.7790   45.6770 C   0  0  0  0  0  0  0  0  0  0  0  0
   57.8510   29.7960   46.4580 O   0  0  0  0  0  0  0  0  0  0  0  0
   59.8354   36.6675   46.6809 H   0  0  0  0  0  0  0  0  0  0  0  0
   60.6558   35.3099   45.8378 H   0  0  0  0  0  0  0  0  0  0  0  0
   58.8626   35.4147   45.8378 H   0  0  0  0  0  0  0  0  0  0  0  0
   62.3435   35.2168   48.2074 H   0  0  0  0  0  0  0  0  0  0  0  0
   63.9699   33.4298   48.8111 H   0  0  0  0  0  0  0  0  0  0  0  0
   60.8679   30.4510   48.4241 H   0  0  0  0  0  0  0  0  0  0  0  0
   58.6022   31.1418   48.1702 H   0  0  0  0  0  0  0  0  0  0  0  0
   58.1513   32.8850   48.0799 H   0  0  0  0  0  0  0  0  0  0  0  0
   56.7629   32.9445   43.9418 H   0  0  0  0  0  0  0  0  0  0  0  0
   57.7141   33.4126   42.4893 H   0  0  0  0  0  0  0  0  0  0  0  0
   57.6832   31.0932   42.2593 H   0  0  0  0  0  0  0  0  0  0  0  0
   59.1994   31.3117   43.1865 H   0  0  0  0  0  0  0  0  0  0  0  0
   57.2848   26.5447   42.7691 H   0  0  0  0  0  0  0  0  0  0  0  0
   58.7432   27.5378   42.4230 H   0  0  0  0  0  0  0  0  0  0  0  0
   56.4240   26.3878   45.1351 H   0  0  0  0  0  0  0  0  0  0  0  0
   57.1202   26.2013   47.5227 H   0  0  0  0  0  0  0  0  0  0  0  0
   58.1942   30.2715   51.1481 H   0  0  0  0  0  0  0  0  0  0  0  0
   59.5005   29.1731   51.7107 H   0  0  0  0  0  0  0  0  0  0  0  0
   61.1717   30.7690   51.3899 H   0  0  0  0  0  0  0  0  0  0  0  0
   60.2303   31.6445   50.1248 H   0  0  0  0  0  0  0  0  0  0  0  0
   59.1716   33.6365   50.6807 H   0  0  0  0  0  0  0  0  0  0  0  0
   58.3967   35.2662   52.4046 H   0  0  0  0  0  0  0  0  0  0  0  0
   58.4785   34.6627   54.8250 H   0  0  0  0  0  0  0  0  0  0  0  0
   59.3367   32.4279   55.5264 H   0  0  0  0  0  0  0  0  0  0  0  0
   60.1153   30.7900   53.8107 H   0  0  0  0  0  0  0  0  0  0  0  0
   60.9050   28.0736   46.5647 H   0  0  0  0  0  0  0  0  0  0  0  0
   60.2166   28.2438   44.1772 H   0  0  0  0  0  0  0  0  0  0  0  0
  1  2  1  0
  2  3  1  0
  3  4  2  0
  4  5  1  0
  5  6  2  0
  6  7  1  0
  6  8  1  0
  8  9  2  0
  9 10  1  0
 10 11  1  0
 11 12  2  0
 12 13  1  0
 13 14  1  0
 14 15  1  0
 15 16  1  0
 16 17  1  0
 17 18  2  0
 17 19  1  0
 19 20  1  0
 20 21  1  0
 21 22  2  0
 22 23  1  0
 23 24  2  0
 24 25  1  0
 25 26  1  0
 26 27  2  0
 26 28  1  0
 28 29  1  0
 29 30  1  0
 30 31  1  0
 31 32  2  0
 32 33  1  0
 33 34  2  0
 34 35  1  0
 35 36  2  0
 24 37  1  0
 37 38  2  0
 16 39  1  0
 39 40  2  0
  9  3  1  0
 39 11  1  0
 38 21  1  0
 36 31  1  0
  1 41  1  0
  1 42  1  0
  1 43  1  0
  4 44  1  0
  5 45  1  0
  8 46  1  0
 10 47  1  0
 10 48  1  0
 14 49  1  0
 14 50  1  0
 15 51  1  0
 15 52  1  0
 20 53  1  0
 20 54  1  0
 22 55  1  0
 23 56  1  0
 29 57  1  0
 29 58  1  0
 30 59  1  0
 30 60  1  0
 32 61  1  0
 33 62  1  0
 34 63  1  0
 35 64  1  0
 36 65  1  0
 37 66  1  0
 38 67  1  0
M  CHG  3  19  -1  25  -1  28  -1
M  END
>  <UniqueID>  (28) 
26

>  <SMILES>  (28) 
COc1ccc(F)cc1CC1=NOCCN(C(=O)[N-]Cc2ccc([N-]C(=O)[N-]CCc3ccccc3)cc2)C1=O

>  <Energy>  (28) 
85.8623022350387

>  <Genealogy>  (28) 
COc1ccc(F)cc1CC1=NOCCN(C(=O)[N-]Cc2ccc([N-]C(=O)[N-]CCc3ccccc3)cc2)C1=O (protonated)
COc1ccc(F)cc1CC1=NOCCN(C(=O)[N-]Cc2ccc([N-]C(=O)[N-]CCc3ccccc3)cc2)C1=O (3D coordinates assigned)
COc1ccc(F)cc1CC1=NOCCN(C(=O)[N-]Cc2ccc([N-]C(=O)[N-]CCc3ccccc3)cc2)C1=O (nonaromatic ring conformer: 85.8623022350387 kcal/mol)

>  <smiles>  (28) 
COc1ccc(F)cc1CC1=NOCCN(C(=O)NCc2ccc(NC(=O)NCCc3ccccc3)cc2)C1=O

>  <score_type>  (28) 
oracle

>  <origin>  (28) 
adg

>  <m_score__min__energy>  (28) 
-10.5

>  <m_primary>  (28) 
energy

$$$$
28:0
     RDKit          3D

 50 53  0  0  0  0  0  0  0  0999 V2000
   54.7170   30.0030   51.4220 O   0  0  0  0  0  0  0  0  0  0  0  0
   53.9630   30.3010   52.3860 C   0  0  0  0  0  0  0  0  0  0  0  0
   54.4550   30.2470   53.7260 N   0  0  0  0  0  0  0  0  0  0  0  0
   56.1410   30.1030   54.0890 S   0  0  0  0  0  0  0  0  0  0  0  0
   56.4380   28.7040   54.5550 O   0  0  0  0  0  0  0  0  0  0  0  0
   56.4930   31.0580   55.1930 O   0  0  0  0  0  0  0  0  0  0  0  0
   57.0890   30.4930   52.6590 C   0  0  0  0  0  0  0  0  0  0  0  0
   57.0370   31.7810   52.1120 C   0  0  0  0  0  0  0  0  0  0  0  0
   57.7650   32.0880   50.9580 C   0  0  0  0  0  0  0  0  0  0  0  0
   58.5470   31.1100   50.3310 C   0  0  0  0  0  0  0  0  0  0  0  0
   59.2640   31.4620   49.1430 N   0  0  0  0  0  0  0  0  0  0  0  0
   59.3330   30.5050   47.6970 S   0  0  0  0  0  0  0  0  0  0  0  0
   60.7510   30.0560   47.4790 O   0  0  0  0  0  0  0  0  0  0  0  0
   58.4290   29.3150   47.8520 O   0  0  0  0  0  0  0  0  0  0  0  0
   58.8020   31.4570   46.2990 C   0  0  0  0  0  0  0  0  0  0  0  0
   58.0690   30.8110   45.2910 C   0  0  0  0  0  0  0  0  0  0  0  0
   57.6250   31.5120   44.1680 C   0  0  0  0  0  0  0  0  0  0  0  0
   57.9060   32.8680   44.0300 C   0  0  0  0  0  0  0  0  0  0  0  0
   58.6380   33.5410   45.0170 C   0  0  0  0  0  0  0  0  0  0  0  0
   58.9150   34.9100   44.8680 C   0  0  0  0  0  0  0  0  0  0  0  0
   59.6460   35.5890   45.8420 C   0  0  0  0  0  0  0  0  0  0  0  0
   60.1070   34.9110   46.9690 C   0  0  0  0  0  0  0  0  0  0  0  0
   59.8400   33.5480   47.1330 C   0  0  0  0  0  0  0  0  0  0  0  0
   59.0980   32.8400   46.1650 C   0  0  0  0  0  0  0  0  0  0  0  0
   58.5960   29.8160   50.8800 C   0  0  0  0  0  0  0  0  0  0  0  0
   57.8710   29.5120   52.0370 C   0  0  0  0  0  0  0  0  0  0  0  0
   52.6190   30.7420   52.1480 N   0  0  0  0  0  0  0  0  0  0  0  0
   52.0290   30.7790   50.8390 C   0  0  0  0  0  0  0  0  0  0  0  0
   52.2950   29.7350   49.9370 C   0  0  0  0  0  0  0  0  0  0  0  0
   51.7280   29.7410   48.6580 C   0  0  0  0  0  0  0  0  0  0  0  0
   50.8980   30.7960   48.2690 C   0  0  0  0  0  0  0  0  0  0  0  0
   50.6520   31.8540   49.1480 C   0  0  0  0  0  0  0  0  0  0  0  0
   51.2270   31.8600   50.4240 C   0  0  0  0  0  0  0  0  0  0  0  0
   51.0240   32.9560   51.2590 O   0  0  0  0  0  0  0  0  0  0  0  0
   56.4205   32.5551   52.5923 H   0  0  0  0  0  0  0  0  0  0  0  0
   57.7231   33.1046   50.5400 H   0  0  0  0  0  0  0  0  0  0  0  0
   57.8416   29.7391   45.3870 H   0  0  0  0  0  0  0  0  0  0  0  0
   57.0504   30.9900   43.3887 H   0  0  0  0  0  0  0  0  0  0  0  0
   57.5521   33.4134   43.1427 H   0  0  0  0  0  0  0  0  0  0  0  0
   58.5538   35.4485   43.9794 H   0  0  0  0  0  0  0  0  0  0  0  0
   59.8591   36.6613   45.7207 H   0  0  0  0  0  0  0  0  0  0  0  0
   60.6842   35.4510   47.7340 H   0  0  0  0  0  0  0  0  0  0  0  0
   60.2122   33.0233   48.0253 H   0  0  0  0  0  0  0  0  0  0  0  0
   59.2074   29.0394   50.3972 H   0  0  0  0  0  0  0  0  0  0  0  0
   57.9154   28.4976   52.4602 H   0  0  0  0  0  0  0  0  0  0  0  0
   52.1160   31.2120   52.9340 H   0  0  0  0  0  0  0  0  0  0  0  0
   52.9536   28.9072   50.2386 H   0  0  0  0  0  0  0  0  0  0  0  0
   51.9351   28.9167   47.9597 H   0  0  0  0  0  0  0  0  0  0  0  0
   50.4379   30.7935   47.2698 H   0  0  0  0  0  0  0  0  0  0  0  0
   50.0035   32.6859   48.8357 H   0  0  0  0  0  0  0  0  0  0  0  0
  1  2  2  0
  2  3  1  0
  3  4  1  0
  4  5  2  0
  4  6  2  0
  4  7  1  0
  7  8  2  0
  8  9  1  0
  9 10  2  0
 10 11  1  0
 11 12  1  0
 12 13  2  0
 12 14  2  0
 12 15  1  0
 15 16  2  0
 16 17  1  0
 17 18  2  0
 18 19  1  0
 19 20  2  0
 20 21  1  0
 21 22  2  0
 22 23  1  0
 23 24  2  0
 10 25  1  0
 25 26  2  0
  2 27  1  0
 27 28  1  0
 28 29  2  0
 29 30  1  0
 30 31  2  0
 31 32  1  0
 32 33  2  0
 33 34  1  0
 26  7  1  0
 33 28  1  0
 24 15  1  0
 24 19  1  0
  8 35  1  0
  9 36  1  0
 16 37  1  0
 17 38  1  0
 18 39  1  0
 20 40  1  0
 21 41  1  0
 22 42  1  0
 23 43  1  0
 25 44  1  0
 26 45  1  0
 27 46  1  0
 29 47  1  0
 30 48  1  0
 31 49  1  0
 32 50  1  0
M  CHG  3   3  -1  11  -1  34  -1
M  END
>  <UniqueID>  (29) 
27

>  <SMILES>  (29) 
O=C([N-]S(=O)(=O)c1ccc([N-]S(=O)(=O)c2cccc3ccccc23)cc1)Nc1ccccc1[O-]

>  <Energy>  (29) 
72.09065805315706

>  <Genealogy>  (29) 
O=C([N-]S(=O)(=O)c1ccc([N-]S(=O)(=O)c2cccc3ccccc23)cc1)Nc1ccccc1[O-] (protonated)
O=C([N-]S(=O)(=O)c1ccc([N-]S(=O)(=O)c2cccc3ccccc23)cc1)Nc1ccccc1[O-] (3D coordinates assigned)
O=C([N-]S(=O)(=O)c1ccc([N-]S(=O)(=O)c2cccc3ccccc23)cc1)Nc1ccccc1[O-] (optimized conformer: 72.09065805315706 kcal/mol)

>  <smiles>  (29) 
O=C(Nc1ccccc1O)NS(=O)(=O)c1ccc(NS(=O)(=O)c2cccc3ccccc23)cc1

>  <score_type>  (29) 
oracle

>  <origin>  (29) 
adg

>  <m_score__min__energy>  (29) 
-16.329999999999998

>  <m_primary>  (29) 
energy

$$$$
29:0
     RDKit          3D

 48 50  0  0  0  0  0  0  0  0999 V2000
   57.7500   28.6040   43.9800 C   0  0  0  0  0  0  0  0  0  0  0  0
   56.4540   29.8810   43.9970 S   0  0  0  0  0  0  0  0  0  0  0  0
   57.4340   31.0590   44.9350 C   0  0  0  0  0  0  0  0  0  0  0  0
   57.0650   32.4070   44.9680 C   0  0  0  0  0  0  0  0  0  0  0  0
   57.8550   33.3340   45.6560 C   0  0  0  0  0  0  0  0  0  0  0  0
   59.0290   32.9190   46.3090 C   0  0  0  0  0  0  0  0  0  0  0  0
   60.0490   34.0970   47.1410 S   0  0  0  0  0  0  0  0  0  0  0  0
   61.4820   33.8820   46.7410 O   0  0  0  0  0  0  0  0  0  0  0  0
   59.6650   35.4970   46.7440 O   0  0  0  0  0  0  0  0  0  0  0  0
   59.9520   33.8820   48.8650 N   0  0  0  0  0  0  0  0  0  0  0  0
   59.5810   32.6900   49.5780 C   0  0  0  0  0  0  0  0  0  0  0  0
   58.4730   32.7460   50.4360 C   0  0  0  0  0  0  0  0  0  0  0  0
   58.0890   31.6220   51.1700 C   0  0  0  0  0  0  0  0  0  0  0  0
   58.8070   30.4290   51.0550 C   0  0  0  0  0  0  0  0  0  0  0  0
   59.9120   30.3520   50.1950 C   0  0  0  0  0  0  0  0  0  0  0  0
   60.8490   28.8600   50.0640 S   0  0  0  0  0  0  0  0  0  0  0  0
   60.3010   27.8130   50.9910 O   0  0  0  0  0  0  0  0  0  0  0  0
   62.2720   29.1310   50.4610 O   0  0  0  0  0  0  0  0  0  0  0  0
   60.8530   28.3010   48.4190 N   0  0  0  0  0  0  0  0  0  0  0  0
   59.8000   27.5950   47.7480 C   0  0  0  0  0  0  0  0  0  0  0  0
   58.5110   28.1410   47.7720 C   0  0  0  0  0  0  0  0  0  0  0  0
   57.4430   27.4670   47.1720 C   0  0  0  0  0  0  0  0  0  0  0  0
   57.6520   26.2400   46.5300 C   0  0  0  0  0  0  0  0  0  0  0  0
   56.2920   25.3610   45.8370 S   0  0  0  0  0  0  0  0  0  0  0  0
   54.8580   26.3280   45.9110 N   0  0  0  0  0  0  0  0  0  0  0  0
   56.0830   24.0810   46.6000 O   0  0  0  0  0  0  0  0  0  0  0  0
   56.5730   25.0320   44.3960 O   0  0  0  0  0  0  0  0  0  0  0  0
   58.9470   25.7050   46.4730 C   0  0  0  0  0  0  0  0  0  0  0  0
   60.0160   26.3820   47.0680 C   0  0  0  0  0  0  0  0  0  0  0  0
   60.2850   31.4810   49.4510 C   0  0  0  0  0  0  0  0  0  0  0  0
   59.3880   31.5650   46.2780 C   0  0  0  0  0  0  0  0  0  0  0  0
   58.5930   30.6380   45.5940 C   0  0  0  0  0  0  0  0  0  0  0  0
   58.0181   28.3399   45.0136 H   0  0  0  0  0  0  0  0  0  0  0  0
   57.3773   27.7103   43.4581 H   0  0  0  0  0  0  0  0  0  0  0  0
   58.6381   28.9898   43.4581 H   0  0  0  0  0  0  0  0  0  0  0  0
   56.1520   32.7392   44.4522 H   0  0  0  0  0  0  0  0  0  0  0  0
   57.5564   34.3923   45.6863 H   0  0  0  0  0  0  0  0  0  0  0  0
   57.9026   33.6817   50.5313 H   0  0  0  0  0  0  0  0  0  0  0  0
   57.2188   31.6759   51.8407 H   0  0  0  0  0  0  0  0  0  0  0  0
   58.5048   29.5481   51.6404 H   0  0  0  0  0  0  0  0  0  0  0  0
   58.3371   29.1079   48.2668 H   0  0  0  0  0  0  0  0  0  0  0  0
   56.4335   27.9027   47.2044 H   0  0  0  0  0  0  0  0  0  0  0  0
   55.1590   27.3270   45.9940 H   0  0  0  0  0  0  0  0  0  0  0  0
   59.1225   24.7489   45.9581 H   0  0  0  0  0  0  0  0  0  0  0  0
   61.0315   25.9641   47.0042 H   0  0  0  0  0  0  0  0  0  0  0  0
   61.1387   31.4190   48.7601 H   0  0  0  0  0  0  0  0  0  0  0  0
   60.2994   31.2287   46.7939 H   0  0  0  0  0  0  0  0  0  0  0  0
   58.8806   29.5764   45.5749 H   0  0  0  0  0  0  0  0  0  0  0  0
  1  2  1  0
  2  3  1  0
  3  4  2  0
  4  5  1  0
  5  6  2  0
  6  7  1  0
  7  8  2  0
  7  9  2  0
  7 10  1  0
 10 11  1  0
 11 12  2  0
 12 13  1  0
 13 14  2  0
 14 15  1  0
 15 16  1  0
 16 17  2  0
 16 18  2  0
 16 19  1  0
 19 20  1  0
 20 21  2  0
 21 22  1  0
 22 23  2  0
 23 24  1  0
 24 25  1  0
 24 26  2  0
 24 27  2  0
 23 28  1  0
 28 29  2  0
 15 30  2  0
  6 31  1  0
 31 32  2  0
 32  3  1  0
 30 11  1  0
 29 20  1  0
  1 33  1  0
  1 34  1  0
  1 35  1  0
  4 36  1  0
  5 37  1  0
 12 38  1  0
 13 39  1  0
 14 40  1  0
 21 41  1  0
 22 42  1  0
 25 43  1  0
 28 44  1  0
 29 45  1  0
 30 46  1  0
 31 47  1  0
 32 48  1  0
M  CHG  3  10  -1  19  -1  25  -1
M  END
>  <UniqueID>  (30) 
28

>  <SMILES>  (30) 
CSc1ccc(S(=O)(=O)[N-]c2cccc(S(=O)(=O)[N-]c3ccc(S([NH-])(=O)=O)cc3)c2)cc1

>  <Energy>  (30) 
50.871316937964004

>  <Genealogy>  (30) 
CSc1ccc(S(=O)(=O)[N-]c2cccc(S(=O)(=O)[N-]c3ccc(S([NH-])(=O)=O)cc3)c2)cc1 (protonated)
CSc1ccc(S(=O)(=O)[N-]c2cccc(S(=O)(=O)[N-]c3ccc(S([NH-])(=O)=O)cc3)c2)cc1 (3D coordinates assigned)
CSc1ccc(S(=O)(=O)[N-]c2cccc(S(=O)(=O)[N-]c3ccc(S([NH-])(=O)=O)cc3)c2)cc1 (optimized conformer: 50.871316937964004 kcal/mol)

>  <smiles>  (30) 
CSc1ccc(S(=O)(=O)Nc2cccc(S(=O)(=O)Nc3ccc(S(N)(=O)=O)cc3)c2)cc1

>  <score_type>  (30) 
oracle

>  <origin>  (30) 
adg

>  <m_score__min__energy>  (30) 
-14.380000000000001

>  <m_primary>  (30) 
energy

$$$$
30:0
     RDKit          3D

 45 49  0  0  0  0  0  0  0  0999 V2000
   58.9643   27.0178   44.7381 H   0  0  0  0  0  0  0  0  0  0  0  0
   58.4430   27.1020   45.7030 C   0  0  0  0  0  0  0  0  0  0  0  0
   57.1080   26.4920   45.8220 C   0  0  0  0  0  0  0  0  0  0  0  0
   56.9020   25.2400   46.2660 N   0  0  0  0  0  0  0  0  0  0  0  0
   55.5550   25.1360   46.2890 C   0  0  0  0  0  0  0  0  0  0  0  0
   54.9620   24.0830   46.6420 O   0  0  0  0  0  0  0  0  0  0  0  0
   54.8930   26.2510   45.9130 N   0  0  0  0  0  0  0  0  0  0  0  0
   55.8910   27.1040   45.6330 C   0  0  0  0  0  0  0  0  0  0  0  0
   55.6900   28.4240   45.2490 O   0  0  0  0  0  0  0  0  0  0  0  0
   59.0630   27.7540   46.6980 C   0  0  0  0  0  0  0  0  0  0  0  0
   59.7790   27.1710   47.7400 C   0  0  0  0  0  0  0  0  0  0  0  0
   59.9025   26.0888   47.8934 H   0  0  0  0  0  0  0  0  0  0  0  0
   60.3010   28.1340   48.5370 N   0  0  0  0  0  0  0  0  0  0  0  0
   59.9410   29.3010   48.0270 N   0  0  0  0  0  0  0  0  0  0  0  0
   60.2580   30.5590   48.4530 C   0  0  0  0  0  0  0  0  0  0  0  0
   60.9650   30.7930   49.5210 N   0  0  0  0  0  0  0  0  0  0  0  0
   62.3190   31.3350   49.5660 C   0  0  0  0  0  0  0  0  0  0  0  0
   62.6601   30.8117   50.4714 H   0  0  0  0  0  0  0  0  0  0  0  0
   62.9220   31.6020   48.1990 C   0  0  0  0  0  0  0  0  0  0  0  0
   64.0049   31.4873   48.0434 H   0  0  0  0  0  0  0  0  0  0  0  0
   62.7366   31.2301   47.1805 H   0  0  0  0  0  0  0  0  0  0  0  0
   62.3920   32.7550   49.0360 C   0  0  0  0  0  0  0  0  0  0  0  0
   63.0913   33.4750   49.4862 H   0  0  0  0  0  0  0  0  0  0  0  0
   61.6639   33.5636   48.8743 H   0  0  0  0  0  0  0  0  0  0  0  0
   59.8100   31.6110   47.7140 N   0  0  0  0  0  0  0  0  0  0  0  0
   59.0740   31.4140   46.5790 C   0  0  0  0  0  0  0  0  0  0  0  0
   58.6130   32.5370   45.8120 N   0  0  0  0  0  0  0  0  0  0  0  0
   59.2340   33.8500   45.8760 C   0  0  0  0  0  0  0  0  0  0  0  0
   60.2960   33.7862   45.5967 H   0  0  0  0  0  0  0  0  0  0  0  0
   59.1925   34.2701   46.8918 H   0  0  0  0  0  0  0  0  0  0  0  0
   58.4730   34.7140   44.8780 C   0  0  0  0  0  0  0  0  0  0  0  0
   59.0595   34.8407   43.9561 H   0  0  0  0  0  0  0  0  0  0  0  0
   58.2782   35.7193   45.2797 H   0  0  0  0  0  0  0  0  0  0  0  0
   57.1740   33.9660   44.5830 C   0  0  0  0  0  0  0  0  0  0  0  0
   56.9147   34.0541   43.5176 H   0  0  0  0  0  0  0  0  0  0  0  0
   56.3305   34.3775   45.1567 H   0  0  0  0  0  0  0  0  0  0  0  0
   57.4430   32.5040   44.9470 C   0  0  1  0  0  0  0  0  0  0  0  0
   56.5721   32.0452   45.4380 H   0  0  0  0  0  0  0  0  0  0  0  0
   57.7210   31.6750   43.7190 C   0  0  0  0  0  0  0  0  0  0  0  0
   58.0590   32.2370   42.6420 O   0  0  0  0  0  0  0  0  0  0  0  0
   57.5810   30.2550   43.7590 N   0  0  0  0  0  0  0  0  0  0  0  0
   57.7690   29.6840   42.9050 H   0  0  0  0  0  0  0  0  0  0  0  0
   57.2910   29.7700   44.6370 H   0  0  0  0  0  0  0  0  0  0  0  0
   58.7750   30.1470   46.1740 N   0  0  0  0  0  0  0  0  0  0  0  0
   59.2070   29.1090   46.9260 C   0  0  0  0  0  0  0  0  0  0  0  0
  1  2  1  0
  2  3  1  0
  3  4  1  0
  4  5  1  0
  5  6  2  0
  5  7  1  0
  7  8  1  0
  8  9  1  0
  2 10  2  0
 10 11  1  0
 11 12  1  0
 11 13  2  0
 13 14  1  0
 14 15  1  0
 15 16  2  0
 16 17  1  0
 17 18  1  0
 17 19  1  0
 19 20  1  0
 19 21  1  0
 19 22  1  0
 22 23  1  0
 22 24  1  0
 15 25  1  0
 25 26  2  0
 26 27  1  0
 27 28  1  0
 28 29  1  0
 28 30  1  0
 28 31  1  0
 31 32  1  0
 31 33  1  0
 31 34  1  0
 34 35  1  0
 34 36  1  0
 34 37  1  0
 37 38  1  1
 37 39  1  0
 39 40  2  0
 39 41  1  0
 41 42  1  0
 41 43  1  0
 26 44  1  0
 44 45  2  0
  8  3  2  0
 45 10  1  0
 45 14  1  0
 22 17  1  0
 37 27  1  0
M  CHG  3   4  -1   7  -1   9  -1
M  END
>  <UniqueID>  (31) 
29

>  <SMILES>  (31) 
NC(=O)[C@@H]1CCCN1c1n/c(=N/C2CC2)n2nc/c(=C/c3[n-]c(=O)[n-]c3[O-])c2n1

>  <Energy>  (31) 
387.82542078190403

>  <Genealogy>  (31) 
NC(=O)C1CCCN1c1nc(=NC2CC2)n2ncc(=Cc3[n-]c(=O)[n-]c3[O-])c2n1 (protonated)
NC(=O)[C@@H]1CCCN1c1nc(=NC2CC2)n2ncc(=Cc3[n-]c(=O)[n-]c3[O-])c2n1 (chirality)
NC(=O)[C@@H]1CCCN1c1n/c(=N/C2CC2)n2nc/c(=C/c3[n-]c(=O)[n-]c3[O-])c2n1 (cis-trans isomerization)
NC(=O)[C@@H]1CCCN1c1n/c(=N/C2CC2)n2nc/c(=C/c3[n-]c(=O)[n-]c3[O-])c2n1 (3D coordinates assigned)
NC(=O)[C@@H]1CCCN1c1n/c(=N/C2CC2)n2nc/c(=C/c3[n-]c(=O)[n-]c3[O-])c2n1 (nonaromatic ring conformer: 387.82542078190403 kcal/mol)

>  <smiles>  (31) 
NC(=O)C1CCCN1c1nc(=NC2CC2)n2ncc(=Cc3[nH]c(=O)[nH]c3O)c2n1

>  <score_type>  (31) 
oracle

>  <origin>  (31) 
adg

>  <m_score__min__energy>  (31) 
-15.699999999999999

>  <m_primary>  (31) 
energy

$$$$
31:0
     RDKit          3D

 43 46  0  0  0  0  0  0  0  0999 V2000
   55.1540   30.0240   44.2270 O   0  0  0  0  0  0  0  0  0  0  0  0
   56.3190   30.3990   44.5260 C   0  0  0  0  0  0  0  0  0  0  0  0
   56.6320   31.7960   44.4460 N   0  0  0  0  0  0  0  0  0  0  0  0
   57.5670   32.5010   45.2760 C   0  0  0  0  0  0  0  0  0  0  0  0
   58.2530   33.5980   44.7440 C   0  0  0  0  0  0  0  0  0  0  0  0
   59.1710   34.3060   45.5260 C   0  0  0  0  0  0  0  0  0  0  0  0
   59.4160   33.9240   46.8520 C   0  0  0  0  0  0  0  0  0  0  0  0
   60.3540   34.6740   47.6430 N   0  0  0  0  0  0  0  0  0  0  0  0
   61.6430   34.1850   48.0510 C   0  0  0  0  0  0  0  0  0  0  0  0
   62.4900   33.5950   47.0990 C   0  0  0  0  0  0  0  0  0  0  0  0
   63.7370   33.0900   47.4800 C   0  0  0  0  0  0  0  0  0  0  0  0
   64.1430   33.1570   48.8160 C   0  0  0  0  0  0  0  0  0  0  0  0
   63.2970   33.7210   49.7740 C   0  0  0  0  0  0  0  0  0  0  0  0
   62.0490   34.2280   49.3970 C   0  0  0  0  0  0  0  0  0  0  0  0
   58.6880   32.8550   47.4020 C   0  0  0  0  0  0  0  0  0  0  0  0
   57.7700   32.1490   46.6210 C   0  0  0  0  0  0  0  0  0  0  0  0
   57.3350   29.3850   44.8980 C   0  0  0  0  0  0  0  0  0  0  0  0
   58.7060   29.6880   44.8390 C   0  0  0  0  0  0  0  0  0  0  0  0
   59.6620   28.7330   45.1970 C   0  0  0  0  0  0  0  0  0  0  0  0
   59.2630   27.4550   45.6080 C   0  0  0  0  0  0  0  0  0  0  0  0
   60.2150   26.4900   45.9710 C   0  0  0  0  0  0  0  0  0  0  0  0
   59.8040   25.2170   46.3770 C   0  0  0  0  0  0  0  0  0  0  0  0
   58.4440   24.8990   46.4230 C   0  0  0  0  0  0  0  0  0  0  0  0
   57.4860   25.8510   46.0630 C   0  0  0  0  0  0  0  0  0  0  0  0
   57.8850   27.1330   45.6540 C   0  0  0  0  0  0  0  0  0  0  0  0
   56.9330   28.0970   45.2930 C   0  0  0  0  0  0  0  0  0  0  0  0
   58.0691   33.9056   43.7040 H   0  0  0  0  0  0  0  0  0  0  0  0
   59.7039   35.1678   45.0979 H   0  0  0  0  0  0  0  0  0  0  0  0
   60.0820   35.6410   47.9350 H   0  0  0  0  0  0  0  0  0  0  0  0
   62.1709   33.5298   46.0483 H   0  0  0  0  0  0  0  0  0  0  0  0
   64.3999   32.6391   46.7269 H   0  0  0  0  0  0  0  0  0  0  0  0
   65.1275   32.7661   49.1126 H   0  0  0  0  0  0  0  0  0  0  0  0
   63.6128   33.7665   50.8267 H   0  0  0  0  0  0  0  0  0  0  0  0
   61.3822   34.6622   50.1565 H   0  0  0  0  0  0  0  0  0  0  0  0
   58.8421   32.5726   48.4539 H   0  0  0  0  0  0  0  0  0  0  0  0
   57.2040   31.3145   47.0605 H   0  0  0  0  0  0  0  0  0  0  0  0
   59.0298   30.6858   44.5081 H   0  0  0  0  0  0  0  0  0  0  0  0
   60.7317   28.9862   45.1557 H   0  0  0  0  0  0  0  0  0  0  0  0
   61.2866   26.7357   45.9360 H   0  0  0  0  0  0  0  0  0  0  0  0
   60.5533   24.4634   46.6611 H   0  0  0  0  0  0  0  0  0  0  0  0
   58.1263   23.8959   46.7437 H   0  0  0  0  0  0  0  0  0  0  0  0
   56.4169   25.5949   46.1003 H   0  0  0  0  0  0  0  0  0  0  0  0
   55.8629   27.8435   45.3190 H   0  0  0  0  0  0  0  0  0  0  0  0
  1  2  2  0
  2  3  1  0
  3  4  1  0
  4  5  2  0
  5  6  1  0
  6  7  2  0
  7  8  1  0
  8  9  1  0
  9 10  2  0
 10 11  1  0
 11 12  2  0
 12 13  1  0
 13 14  2  0
  7 15  1  0
 15 16  2  0
  2 17  1  0
 17 18  2  0
 18 19  1  0
 19 20  2  0
 20 21  1  0
 21 22  2  0
 22 23  1  0
 23 24  2  0
 24 25  1  0
 25 26  2  0
 16  4  1  0
 26 17  1  0
 14  9  1  0
 25 20  1  0
  5 27  1  0
  6 28  1  0
  8 29  1  0
 10 30  1  0
 11 31  1  0
 12 32  1  0
 13 33  1  0
 14 34  1  0
 15 35  1  0
 16 36  1  0
 18 37  1  0
 19 38  1  0
 21 39  1  0
 22 40  1  0
 23 41  1  0
 24 42  1  0
 26 43  1  0
M  CHG  1   3  -1
M  END
>  <UniqueID>  (32) 
30

>  <SMILES>  (32) 
O=C([N-]c1ccc(Nc2ccccc2)cc1)c1ccc2ccccc2c1

>  <Energy>  (32) 
62.93245684790613

>  <Genealogy>  (32) 
O=C([N-]c1ccc(Nc2ccccc2)cc1)c1ccc2ccccc2c1 (protonated)
O=C([N-]c1ccc(Nc2ccccc2)cc1)c1ccc2ccccc2c1 (3D coordinates assigned)
O=C([N-]c1ccc(Nc2ccccc2)cc1)c1ccc2ccccc2c1 (optimized conformer: 62.93245684790613 kcal/mol)

>  <smiles>  (32) 
O=C(Nc1ccc(Nc2ccccc2)cc1)c1ccc2ccccc2c1

>  <score_type>  (32) 
oracle

>  <origin>  (32) 
adg

>  <m_score__min__energy>  (32) 
-10.380000000000001

>  <m_primary>  (32) 
energy

$$$$
32:0
     RDKit          3D

 36 38  0  0  0  0  0  0  0  0999 V2000
   54.5134   28.5066   54.3259 H   0  0  0  0  0  0  0  0  0  0  0  0
   54.1930   29.3450   53.6900 C   0  0  0  0  0  0  0  0  0  0  0  0
   58.7450   31.5430   50.6850 C   0  0  0  0  0  0  0  0  0  0  0  0
   59.5179   32.2466   51.0278 H   0  0  0  0  0  0  0  0  0  0  0  0
   59.1830   30.2830   50.0360 C   0  0  0  0  0  0  0  0  0  0  0  0
   59.9680   29.3820   50.7750 C   0  0  0  0  0  0  0  0  0  0  0  0
   60.2357   29.6183   51.8154 H   0  0  0  0  0  0  0  0  0  0  0  0
   51.7870   30.6810   50.0120 C   0  0  0  0  0  0  0  0  0  0  0  0
   51.8051   30.3472   48.9640 H   0  0  0  0  0  0  0  0  0  0  0  0
   51.2170   31.9140   50.3410 C   0  0  0  0  0  0  0  0  0  0  0  0
   50.6730   32.7140   49.3430 O   0  0  0  0  0  0  0  0  0  0  0  0
   51.1980   32.3400   51.6740 C   0  0  0  0  0  0  0  0  0  0  0  0
   50.6400   33.5700   52.0070 O   0  0  0  0  0  0  0  0  0  0  0  0
   58.8730   29.9740   48.6950 C   0  0  0  0  0  0  0  0  0  0  0  0
   58.2775   30.6778   48.0950 H   0  0  0  0  0  0  0  0  0  0  0  0
   55.2420   30.2580   53.1970 C   0  0  0  0  0  0  0  0  0  0  0  0
   56.0680   30.9470   54.0090 N   0  0  0  0  0  0  0  0  0  0  0  0
   56.9230   31.5920   53.2280 N   0  0  0  0  0  0  0  0  0  0  0  0
   56.6800   31.3300   51.9540 N   0  0  0  0  0  0  0  0  0  0  0  0
   57.4590   31.8720   50.8770 C   0  0  0  0  0  0  0  0  0  0  0  0
   56.9843   32.5826   50.1844 H   0  0  0  0  0  0  0  0  0  0  0  0
   52.8800   29.4510   53.4280 C   0  0  0  0  0  0  0  0  0  0  0  0
   52.1893   28.8757   54.0620 H   0  0  0  0  0  0  0  0  0  0  0  0
   52.2900   30.2780   52.3570 C   0  0  0  0  0  0  0  0  0  0  0  0
   52.3340   29.8710   51.0110 C   0  0  0  0  0  0  0  0  0  0  0  0
   52.8008   28.9115   50.7438 H   0  0  0  0  0  0  0  0  0  0  0  0
   60.4120   28.1870   50.1990 C   0  0  0  0  0  0  0  0  0  0  0  0
   61.0190   27.4850   50.7896 H   0  0  0  0  0  0  0  0  0  0  0  0
   60.0860   27.8840   48.8760 C   0  0  0  0  0  0  0  0  0  0  0  0
   60.5280   26.6960   48.3060 O   0  0  0  0  0  0  0  0  0  0  0  0
   59.3190   28.7770   48.1240 C   0  0  0  0  0  0  0  0  0  0  0  0
   59.0651   28.5386   47.0806 H   0  0  0  0  0  0  0  0  0  0  0  0
   51.7430   31.5300   52.6770 C   0  0  0  0  0  0  0  0  0  0  0  0
   51.7425   31.8765   53.7210 H   0  0  0  0  0  0  0  0  0  0  0  0
   55.6390   30.4780   51.8930 C   0  0  0  0  0  0  0  0  0  0  0  0
   55.1938   30.0440   50.9856 H   0  0  0  0  0  0  0  0  0  0  0  0
  1  2  1  0
  2  3  2  0
  3  4  1  0
  3  5  1  0
  5  6  2  0
  6  7  1  0
  6  8  1  0
  8  9  1  0
  8 10  2  0
 10 11  1  0
 10 12  1  0
 12 13  1  0
 12 14  2  0
 14 15  1  0
  2 16  1  0
 16 17  1  0
 17 18  2  0
 18 19  1  0
 19 20  1  0
 20 21  1  0
 20 22  2  0
 22 23  1  0
 22 24  1  0
 24 25  2  0
 25 26  1  0
 25 27  1  0
 27 28  1  0
 27 29  2  0
 29 30  1  0
 29 31  1  0
 31 32  1  0
 31 33  2  0
 33 34  1  0
 19 35  1  0
 35 36  1  0
 14  5  1  0
 35 16  2  0
 33 24  1  0
M  CHG  3  11  -1  13  -1  30  -1
M  END
>  <UniqueID>  (33) 
31

>  <SMILES>  (33) 
[O-]c1ccc(/C=C/n2cc(/C=C\c3ccc([O-])c([O-])c3)nn2)cc1

>  <Energy>  (33) 
84.89915796961047

>  <Genealogy>  (33) 
[O-]c1ccc(C=Cn2cc(C=Cc3ccc([O-])c([O-])c3)nn2)cc1 (protonated)
[O-]c1ccc(/C=C/n2cc(/C=C\c3ccc([O-])c([O-])c3)nn2)cc1 (cis-trans isomerization)
[O-]c1ccc(/C=C/n2cc(/C=C\c3ccc([O-])c([O-])c3)nn2)cc1 (3D coordinates assigned)
[O-]c1ccc(/C=C/n2cc(/C=C\c3ccc([O-])c([O-])c3)nn2)cc1 (optimized conformer: 84.89915796961047 kcal/mol)

>  <smiles>  (33) 
Oc1ccc(C=Cn2cc(C=Cc3ccc(O)c(O)c3)nn2)cc1

>  <score_type>  (33) 
oracle

>  <origin>  (33) 
adg

>  <m_score__min__energy>  (33) 
-17.77

>  <m_primary>  (33) 
energy

$$$$
33:0
     RDKit          3D

 44 46  0  0  0  0  0  0  0  0999 V2000
   58.2330   21.0990   43.4220 N   0  0  0  0  0  0  0  0  0  0  0  0
   56.6580   21.7440   43.7230 S   0  0  0  0  0  0  0  0  0  0  0  0
   55.8430   20.7470   44.4980 O   0  0  0  0  0  0  0  0  0  0  0  0
   55.9750   22.0100   42.4100 O   0  0  0  0  0  0  0  0  0  0  0  0
   56.7950   23.2360   44.6500 C   0  0  0  0  0  0  0  0  0  0  0  0
   58.0240   23.6330   45.1910 C   0  0  0  0  0  0  0  0  0  0  0  0
   58.1170   24.8140   45.9340 C   0  0  0  0  0  0  0  0  0  0  0  0
   56.9850   25.6090   46.1470 C   0  0  0  0  0  0  0  0  0  0  0  0
   57.1230   26.8050   46.9290 N   0  0  0  0  0  0  0  0  0  0  0  0
   58.3010   28.0500   46.6590 S   0  0  0  0  0  0  0  0  0  0  0  0
   58.4710   28.8280   47.9330 O   0  0  0  0  0  0  0  0  0  0  0  0
   59.6080   27.3990   46.2990 O   0  0  0  0  0  0  0  0  0  0  0  0
   57.7750   29.1530   45.3730 C   0  0  0  0  0  0  0  0  0  0  0  0
   57.3650   28.5970   44.1470 C   0  0  0  0  0  0  0  0  0  0  0  0
   57.0150   29.4160   43.0740 C   0  0  0  0  0  0  0  0  0  0  0  0
   57.0760   30.8000   43.2040 C   0  0  0  0  0  0  0  0  0  0  0  0
   57.4560   31.3720   44.4170 C   0  0  0  0  0  0  0  0  0  0  0  0
   57.7680   30.5660   45.5330 C   0  0  0  0  0  0  0  0  0  0  0  0
   58.1630   31.2260   46.8450 C   0  0  0  0  0  0  0  0  0  0  0  0
   59.3000   32.2200   46.6890 C   0  0  0  0  0  0  0  0  0  0  0  0
   59.0350   33.5360   46.2400 C   0  0  0  0  0  0  0  0  0  0  0  0
   57.4040   34.0760   45.8530 Cl  0  0  0  0  0  0  0  0  0  0  0  0
   60.0820   34.4500   46.0830 C   0  0  0  0  0  0  0  0  0  0  0  0
   61.3950   34.0740   46.3590 C   0  0  0  0  0  0  0  0  0  0  0  0
   61.6740   32.7770   46.7890 C   0  0  0  0  0  0  0  0  0  0  0  0
   60.6420   31.8470   46.9520 C   0  0  0  0  0  0  0  0  0  0  0  0
   61.0860   30.2190   47.4630 Cl  0  0  0  0  0  0  0  0  0  0  0  0
   55.7500   25.2080   45.6060 C   0  0  0  0  0  0  0  0  0  0  0  0
   55.6580   24.0260   44.8640 C   0  0  0  0  0  0  0  0  0  0  0  0
   58.1120   20.2910   42.7700 H   0  0  0  0  0  0  0  0  0  0  0  0
   58.5820   20.7120   44.3260 H   0  0  0  0  0  0  0  0  0  0  0  0
   58.9191   23.0139   45.0310 H   0  0  0  0  0  0  0  0  0  0  0  0
   59.0865   25.1203   46.3539 H   0  0  0  0  0  0  0  0  0  0  0  0
   57.3201   27.5038   44.0338 H   0  0  0  0  0  0  0  0  0  0  0  0
   56.6903   28.9673   42.1236 H   0  0  0  0  0  0  0  0  0  0  0  0
   56.8240   31.4436   42.3483 H   0  0  0  0  0  0  0  0  0  0  0  0
   57.5135   32.4669   44.5058 H   0  0  0  0  0  0  0  0  0  0  0  0
   57.2874   31.7552   47.2490 H   0  0  0  0  0  0  0  0  0  0  0  0
   58.5103   30.4316   47.5220 H   0  0  0  0  0  0  0  0  0  0  0  0
   59.8674   35.4727   45.7393 H   0  0  0  0  0  0  0  0  0  0  0  0
   62.2119   34.8006   46.2377 H   0  0  0  0  0  0  0  0  0  0  0  0
   62.7126   32.4834   47.0014 H   0  0  0  0  0  0  0  0  0  0  0  0
   54.8542   25.8257   45.7670 H   0  0  0  0  0  0  0  0  0  0  0  0
   54.6888   23.7154   44.4467 H   0  0  0  0  0  0  0  0  0  0  0  0
  1  2  1  0
  2  3  2  0
  2  4  2  0
  2  5  1  0
  5  6  2  0
  6  7  1  0
  7  8  2  0
  8  9  1  0
  9 10  1  0
 10 11  2  0
 10 12  2  0
 10 13  1  0
 13 14  2  0
 14 15  1  0
 15 16  2  0
 16 17  1  0
 17 18  2  0
 18 19  1  0
 19 20  1  0
 20 21  2  0
 21 22  1  0
 21 23  1  0
 23 24  2  0
 24 25  1  0
 25 26  2  0
 26 27  1  0
  8 28  1  0
 28 29  2  0
 29  5  1  0
 18 13  1  0
 26 20  1  0
  1 30  1  0
  1 31  1  0
  6 32  1  0
  7 33  1  0
 14 34  1  0
 15 35  1  0
 16 36  1  0
 17 37  1  0
 19 38  1  0
 19 39  1  0
 23 40  1  0
 24 41  1  0
 25 42  1  0
 28 43  1  0
 29 44  1  0
M  CHG  1   9  -1
M  END
>  <UniqueID>  (34) 
32

>  <SMILES>  (34) 
NS(=O)(=O)c1ccc([N-]S(=O)(=O)c2ccccc2Cc2c(Cl)cccc2Cl)cc1

>  <Energy>  (34) 
54.84346443105783

>  <Genealogy>  (34) 
NS(=O)(=O)c1ccc([N-]S(=O)(=O)c2ccccc2Cc2c(Cl)cccc2Cl)cc1 (protonated)
NS(=O)(=O)c1ccc([N-]S(=O)(=O)c2ccccc2Cc2c(Cl)cccc2Cl)cc1 (3D coordinates assigned)
NS(=O)(=O)c1ccc([N-]S(=O)(=O)c2ccccc2Cc2c(Cl)cccc2Cl)cc1 (optimized conformer: 54.84346443105783 kcal/mol)

>  <smiles>  (34) 
NS(=O)(=O)c1ccc(NS(=O)(=O)c2ccccc2Cc2c(Cl)cccc2Cl)cc1

>  <score_type>  (34) 
oracle

>  <origin>  (34) 
adg

>  <m_score__min__energy>  (34) 
-11.68

>  <m_primary>  (34) 
energy

$$$$
34:0
     RDKit          3D

 51 54  0  0  0  0  0  0  0  0999 V2000
   62.5820   33.3220   52.3900 C   0  0  0  0  0  0  0  0  0  0  0  0
   62.4970   33.4830   50.9010 C   0  0  0  0  0  0  0  0  0  0  0  0
   63.6540   33.4440   50.1200 C   0  0  0  0  0  0  0  0  0  0  0  0
   63.5570   33.5570   48.7320 C   0  0  0  0  0  0  0  0  0  0  0  0
   62.3370   33.6940   48.1190 N   0  0  0  0  0  0  0  0  0  0  0  0
   62.2520   33.8030   46.7530 C   0  0  0  0  0  0  0  0  0  0  0  0
   63.2890   33.7780   46.0330 O   0  0  0  0  0  0  0  0  0  0  0  0
   61.0120   33.9450   46.1360 C   0  0  0  0  0  0  0  0  0  0  0  0
   59.8600   33.9840   46.9230 C   0  0  0  0  0  0  0  0  0  0  0  0
   58.5070   34.1540   46.2820 C   0  0  0  0  0  0  0  0  0  0  0  0
   58.5600   33.8840   44.8780 O   0  0  0  0  0  0  0  0  0  0  0  0
   57.9460   32.7940   44.2390 C   0  0  0  0  0  0  0  0  0  0  0  0
   58.0080   32.7180   42.8420 C   0  0  0  0  0  0  0  0  0  0  0  0
   57.4010   31.6580   42.1610 C   0  0  0  0  0  0  0  0  0  0  0  0
   56.7440   30.6520   42.8730 C   0  0  0  0  0  0  0  0  0  0  0  0
   56.7040   30.6920   44.2710 C   0  0  0  0  0  0  0  0  0  0  0  0
   56.0400   29.6480   44.9910 N   0  0  0  0  0  0  0  0  0  0  0  0
   56.6330   28.3710   45.2490 C   0  0  0  0  0  0  0  0  0  0  0  0
   55.9190   27.4010   45.6220 O   0  0  0  0  0  0  0  0  0  0  0  0
   58.0950   28.1660   45.0150 C   0  0  0  0  0  0  0  0  0  0  0  0
   58.8720   29.0200   45.9780 C   0  0  0  0  0  0  0  0  0  0  0  0
   60.0330   29.6880   45.5550 C   0  0  0  0  0  0  0  0  0  0  0  0
   60.7980   30.4200   46.4670 C   0  0  0  0  0  0  0  0  0  0  0  0
   60.4160   30.4820   47.8110 C   0  0  0  0  0  0  0  0  0  0  0  0
   59.2690   29.8090   48.2430 C   0  0  0  0  0  0  0  0  0  0  0  0
   58.5010   29.0780   47.3330 C   0  0  0  0  0  0  0  0  0  0  0  0
   57.2740   31.7810   44.9490 C   0  0  0  0  0  0  0  0  0  0  0  0
   59.9680   33.8510   48.2720 N   0  0  0  0  0  0  0  0  0  0  0  0
   61.1840   33.7170   48.8760 C   0  0  0  0  0  0  0  0  0  0  0  0
   61.2550   33.6040   50.2730 C   0  0  0  0  0  0  0  0  0  0  0  0
   62.1222   34.1930   52.8798 H   0  0  0  0  0  0  0  0  0  0  0  0
   62.0488   32.4082   52.6910 H   0  0  0  0  0  0  0  0  0  0  0  0
   63.6373   33.2468   52.6910 H   0  0  0  0  0  0  0  0  0  0  0  0
   64.6381   33.3247   50.5967 H   0  0  0  0  0  0  0  0  0  0  0  0
   64.4715   33.5359   48.1210 H   0  0  0  0  0  0  0  0  0  0  0  0
   60.9411   34.0255   45.0412 H   0  0  0  0  0  0  0  0  0  0  0  0
   57.7969   33.4591   46.7541 H   0  0  0  0  0  0  0  0  0  0  0  0
   58.1839   35.1959   46.4235 H   0  0  0  0  0  0  0  0  0  0  0  0
   58.5382   33.4981   42.2760 H   0  0  0  0  0  0  0  0  0  0  0  0
   57.4411   31.6165   41.0625 H   0  0  0  0  0  0  0  0  0  0  0  0
   56.2569   29.8264   42.3335 H   0  0  0  0  0  0  0  0  0  0  0  0
   58.3486   27.1075   45.1740 H   0  0  0  0  0  0  0  0  0  0  0  0
   58.3481   28.4480   43.9823 H   0  0  0  0  0  0  0  0  0  0  0  0
   60.3416   29.6346   44.5005 H   0  0  0  0  0  0  0  0  0  0  0  0
   61.7014   30.9479   46.1276 H   0  0  0  0  0  0  0  0  0  0  0  0
   61.0176   31.0600   48.5279 H   0  0  0  0  0  0  0  0  0  0  0  0
   58.9709   29.8551   49.3008 H   0  0  0  0  0  0  0  0  0  0  0  0
   57.6024   28.5457   47.6781 H   0  0  0  0  0  0  0  0  0  0  0  0
   57.1949   31.8434   46.0444 H   0  0  0  0  0  0  0  0  0  0  0  0
   59.0990   33.8640   48.8550 H   0  0  0  0  0  0  0  0  0  0  0  0
   60.3332   33.6107   50.8732 H   0  0  0  0  0  0  0  0  0  0  0  0
  1  2  1  0
  2  3  1  0
  3  4  2  0
  4  5  1  0
  5  6  1  0
  6  7  2  0
  6  8  1  0
  8  9  2  0
  9 10  1  0
 10 11  1  0
 11 12  1  0
 12 13  2  0
 13 14  1  0
 14 15  2  0
 15 16  1  0
 16 17  1  0
 17 18  1  0
 18 19  2  0
 18 20  1  0
 20 21  1  0
 21 22  2  0
 22 23  1  0
 23 24  2  0
 24 25  1  0
 25 26  2  0
 16 27  2  0
  9 28  1  0
 28 29  2  0
 29 30  1  0
 30  2  2  0
 29  5  1  0
 27 12  1  0
 26 21  1  0
  1 31  1  0
  1 32  1  0
  1 33  1  0
  3 34  1  0
  4 35  1  0
  8 36  1  0
 10 37  1  0
 10 38  1  0
 13 39  1  0
 14 40  1  0
 15 41  1  0
 20 42  1  0
 20 43  1  0
 22 44  1  0
 23 45  1  0
 24 46  1  0
 25 47  1  0
 26 48  1  0
 27 49  1  0
 28 50  1  0
 30 51  1  0
M  CHG  2  17  -1  28   1
M  END
>  <UniqueID>  (35) 
33

>  <SMILES>  (35) 
Cc1ccn2c(=O)cc(COc3cccc([N-]C(=O)Cc4ccccc4)c3)[nH+]c2c1

>  <Energy>  (35) 
59.70510125790473

>  <Genealogy>  (35) 
Cc1ccn2c(=O)cc(COc3cccc([N-]C(=O)Cc4ccccc4)c3)[nH+]c2c1 (protonated)
Cc1ccn2c(=O)cc(COc3cccc([N-]C(=O)Cc4ccccc4)c3)[nH+]c2c1 (3D coordinates assigned)
Cc1ccn2c(=O)cc(COc3cccc([N-]C(=O)Cc4ccccc4)c3)[nH+]c2c1 (optimized conformer: 59.70510125790473 kcal/mol)

>  <smiles>  (35) 
Cc1ccn2c(=O)cc(COc3cccc(NC(=O)Cc4ccccc4)c3)nc2c1

>  <score_type>  (35) 
oracle

>  <origin>  (35) 
adg

>  <m_score__min__energy>  (35) 
-9.3699999999999992

>  <m_primary>  (35) 
energy

$$$$
35:0
     RDKit          3D

 36 38  0  0  0  0  0  0  0  0999 V2000
   55.7130   29.6120   44.8640 O   0  0  0  0  0  0  0  0  0  0  0  0
   56.4950   29.6110   43.8900 C   0  0  0  0  0  0  0  0  0  0  0  0
   56.2690   30.3520   42.6280 C   0  0  0  0  0  0  0  0  0  0  0  0
   57.4850   31.6730   42.4930 S   0  0  0  0  0  0  0  0  0  0  0  0
   57.9310   32.3370   44.0800 C   0  0  0  0  0  0  0  0  0  0  0  0
   58.8980   33.2890   44.2130 N   0  0  0  0  0  0  0  0  0  0  0  0
   59.0240   33.5950   45.5170 C   0  0  0  0  0  0  0  0  0  0  0  0
   59.8500   34.4850   46.1700 C   0  0  0  0  0  0  0  0  0  0  0  0
   59.7590   34.5950   47.5460 C   0  0  0  0  0  0  0  0  0  0  0  0
   58.8670   33.8380   48.2750 C   0  0  0  0  0  0  0  0  0  0  0  0
   58.0470   32.9480   47.5870 C   0  0  0  0  0  0  0  0  0  0  0  0
   58.1190   32.8210   46.2090 C   0  0  0  0  0  0  0  0  0  0  0  0
   57.4680   32.0660   45.3050 N   0  0  0  0  0  0  0  0  0  0  0  0
   57.6810   28.8480   43.9970 N   0  0  0  0  0  0  0  0  0  0  0  0
   58.0710   28.0580   45.1390 C   0  0  0  0  0  0  0  0  0  0  0  0
   58.8770   28.9530   46.0410 C   0  0  0  0  0  0  0  0  0  0  0  0
   59.9980   29.6110   45.5280 C   0  0  0  0  0  0  0  0  0  0  0  0
   60.7650   30.4510   46.3230 C   0  0  0  0  0  0  0  0  0  0  0  0
   60.4030   30.6290   47.6400 C   0  0  0  0  0  0  0  0  0  0  0  0
   59.2880   29.9850   48.1760 C   0  0  0  0  0  0  0  0  0  0  0  0
   58.5150   29.1370   47.3750 C   0  0  0  0  0  0  0  0  0  0  0  0
   56.3742   29.6661   41.7745 H   0  0  0  0  0  0  0  0  0  0  0  0
   55.2557   30.7801   42.6265 H   0  0  0  0  0  0  0  0  0  0  0  0
   60.5693   35.0973   45.6064 H   0  0  0  0  0  0  0  0  0  0  0  0
   60.4150   35.3045   48.0717 H   0  0  0  0  0  0  0  0  0  0  0  0
   58.8049   33.9344   49.3690 H   0  0  0  0  0  0  0  0  0  0  0  0
   57.3277   32.3335   48.1483 H   0  0  0  0  0  0  0  0  0  0  0  0
   56.7320   31.4030   45.5460 H   0  0  0  0  0  0  0  0  0  0  0  0
   58.3560   28.8430   43.1770 H   0  0  0  0  0  0  0  0  0  0  0  0
   57.1783   27.6937   45.6685 H   0  0  0  0  0  0  0  0  0  0  0  0
   58.6602   27.1830   44.8272 H   0  0  0  0  0  0  0  0  0  0  0  0
   60.2776   29.4604   44.4748 H   0  0  0  0  0  0  0  0  0  0  0  0
   61.6452   30.9648   45.9093 H   0  0  0  0  0  0  0  0  0  0  0  0
   61.0041   31.2910   48.2806 H   0  0  0  0  0  0  0  0  0  0  0  0
   59.0159   30.1439   49.2299 H   0  0  0  0  0  0  0  0  0  0  0  0
   57.6356   28.6236   47.7911 H   0  0  0  0  0  0  0  0  0  0  0  0
  1  2  2  0
  2  3  1  0
  3  4  1  0
  4  5  1  0
  5  6  2  0
  6  7  1  0
  7  8  2  0
  8  9  1  0
  9 10  2  0
 10 11  1  0
 11 12  2  0
 12 13  1  0
  2 14  1  0
 14 15  1  0
 15 16  1  0
 16 17  2  0
 17 18  1  0
 18 19  2  0
 19 20  1  0
 20 21  2  0
 13  5  1  0
 21 16  1  0
 12  7  1  0
  3 22  1  0
  3 23  1  0
  8 24  1  0
  9 25  1  0
 10 26  1  0
 11 27  1  0
 13 28  1  0
 14 29  1  0
 15 30  1  0
 15 31  1  0
 17 32  1  0
 18 33  1  0
 19 34  1  0
 20 35  1  0
 21 36  1  0
M  END
>  <smiles>  (36) 
O=C(CSc1nc2ccccc2[nH]1)NCc1ccccc1

>  <score_type>  (36) 
oracle

>  <origin>  (36) 
adg

>  <m_score__min__energy>  (36) 
-7.46

>  <m_primary>  (36) 
energy

$$$$
36:0
     RDKit          3D

 29 30  0  0  0  0  0  0  0  0999 V2000
   56.0850   30.5190   44.8070 O   0  0  0  0  0  0  0  0  0  0  0  0
   56.6290   29.3820   44.8580 C   0  0  0  0  0  0  0  0  0  0  0  0
   58.0640   29.2330   44.4630 C   0  0  0  0  0  0  0  0  0  0  0  0
   58.6280   30.5020   44.1340 O   0  0  0  0  0  0  0  0  0  0  0  0
   58.4850   31.6780   44.8920 C   0  0  0  0  0  0  0  0  0  0  0  0
   57.8510   32.8300   44.3830 C   0  0  0  0  0  0  0  0  0  0  0  0
   57.7360   33.9780   45.1710 C   0  0  0  0  0  0  0  0  0  0  0  0
   58.2480   33.9910   46.4690 C   0  0  0  0  0  0  0  0  0  0  0  0
   58.8740   32.8540   46.9840 C   0  0  0  0  0  0  0  0  0  0  0  0
   58.9930   31.7000   46.2020 C   0  0  0  0  0  0  0  0  0  0  0  0
   59.7890   30.2860   46.8740 Cl  0  0  0  0  0  0  0  0  0  0  0  0
   55.8730   28.2250   45.2300 N   0  0  0  0  0  0  0  0  0  0  0  0
   56.3920   27.0420   45.8590 C   0  0  0  0  0  0  0  0  0  0  0  0
   57.7370   26.9380   46.2500 C   0  0  0  0  0  0  0  0  0  0  0  0
   58.2070   25.7590   46.8310 C   0  0  0  0  0  0  0  0  0  0  0  0
   57.3310   24.6830   47.0050 C   0  0  0  0  0  0  0  0  0  0  0  0
   57.7710   23.4950   47.5830 O   0  0  0  0  0  0  0  0  0  0  0  0
   56.0380   24.7920   46.6020 N   0  0  0  0  0  0  0  0  0  0  0  0
   55.5540   25.9290   46.0330 C   0  0  0  0  0  0  0  0  0  0  0  0
   54.3480   25.9760   45.6710 O   0  0  0  0  0  0  0  0  0  0  0  0
   58.6259   28.7937   45.3004 H   0  0  0  0  0  0  0  0  0  0  0  0
   58.1232   28.5787   43.5807 H   0  0  0  0  0  0  0  0  0  0  0  0
   57.4450   32.8249   43.3607 H   0  0  0  0  0  0  0  0  0  0  0  0
   57.2408   34.8735   44.7673 H   0  0  0  0  0  0  0  0  0  0  0  0
   58.1585   34.8969   47.0865 H   0  0  0  0  0  0  0  0  0  0  0  0
   59.2750   32.8657   48.0082 H   0  0  0  0  0  0  0  0  0  0  0  0
   58.4206   27.7863   46.0982 H   0  0  0  0  0  0  0  0  0  0  0  0
   59.2568   25.6771   47.1491 H   0  0  0  0  0  0  0  0  0  0  0  0
   58.5210   22.9510   47.1720 H   0  0  0  0  0  0  0  0  0  0  0  0
  1  2  2  0
  2  3  1  0
  3  4  1  0
  4  5  1  0
  5  6  2  0
  6  7  1  0
  7  8  2  0
  8  9  1  0
  9 10  2  0
 10 11  1  0
  2 12  1  0
 12 13  1  0
 13 14  2  0
 14 15  1  0
 15 16  2  0
 16 17  1  0
 16 18  1  0
 18 19  1  0
 19 20  2  0
 10  5  1  0
 19 13  1  0
  3 21  1  0
  3 22  1  0
  6 23  1  0
  7 24  1  0
  8 25  1  0
  9 26  1  0
 14 27  1  0
 15 28  1  0
 17 29  1  0
M  CHG  2  12  -1  18  -1
M  END
>  <UniqueID>  (37) 
34

>  <SMILES>  (37) 
O=C(COc1ccccc1Cl)[N-]c1ccc(O)[n-]c1=O

>  <Energy>  (37) 
33.1643071608071

>  <Genealogy>  (37) 
O=C(COc1ccccc1Cl)[N-]c1ccc(O)[n-]c1=O (protonated)
O=C(COc1ccccc1Cl)[N-]c1ccc(O)[n-]c1=O (3D coordinates assigned)
O=C(COc1ccccc1Cl)[N-]c1ccc(O)[n-]c1=O (optimized conformer: 33.1643071608071 kcal/mol)

>  <smiles>  (37) 
O=C(COc1ccccc1Cl)Nc1ccc(O)[nH]c1=O

>  <score_type>  (37) 
oracle

>  <origin>  (37) 
adg

>  <m_score__min__energy>  (37) 
-11.43

>  <m_primary>  (37) 
energy

$$$$
37:0
     RDKit          3D

 23 25  0  0  0  0  0  0  0  0999 V2000
   54.2820   26.7000   46.7520 H   0  0  0  0  0  0  0  0  0  0  0  0
   54.9040   26.3380   46.0390 O   0  0  0  0  0  0  0  0  0  0  0  0
   55.9550   25.4920   46.3780 C   0  0  0  0  0  0  0  0  0  0  0  0
   55.7960   24.3370   47.0450 N   0  0  0  0  0  0  0  0  0  0  0  0
   57.0500   23.8390   47.0780 C   0  0  0  0  0  0  0  0  0  0  0  0
   57.3290   22.7400   47.6230 O   0  0  0  0  0  0  0  0  0  0  0  0
   57.9820   24.6070   46.4720 N   0  0  0  0  0  0  0  0  0  0  0  0
   57.2800   25.6730   46.0480 C   0  0  0  0  0  0  0  0  0  0  0  0
   57.8700   26.7640   45.2560 C   0  0  0  0  0  0  0  0  0  0  0  0
   58.2330   26.5325   44.2437 H   0  0  0  0  0  0  0  0  0  0  0  0
   57.9900   28.0210   45.6970 C   0  0  0  0  0  0  0  0  0  0  0  0
   58.5310   28.5120   46.9820 C   0  0  0  0  0  0  0  0  0  0  0  0
   58.8687   27.8553   47.7973 H   0  0  0  0  0  0  0  0  0  0  0  0
   58.5610   29.8110   47.0360 N   0  0  0  0  0  0  0  0  0  0  0  0
   58.0440   30.2670   45.7910 C   0  0  0  0  0  0  0  0  0  0  0  0
   57.9050   31.5640   45.4180 N   0  0  0  0  0  0  0  0  0  0  0  0
   57.4020   31.8560   44.1810 C   0  0  0  0  0  0  0  0  0  0  0  0
   57.2821   32.9054   43.8739 H   0  0  0  0  0  0  0  0  0  0  0  0
   57.0350   30.8190   43.2940 C   0  0  0  0  0  0  0  0  0  0  0  0
   56.6322   31.0595   42.2990 H   0  0  0  0  0  0  0  0  0  0  0  0
   57.1870   29.4790   43.6890 C   0  0  0  0  0  0  0  0  0  0  0  0
   56.9093   28.6517   43.0194 H   0  0  0  0  0  0  0  0  0  0  0  0
   57.7020   29.2380   44.9590 C   0  0  0  0  0  0  0  0  0  0  0  0
  1  2  1  0
  2  3  1  0
  3  4  1  0
  4  5  1  0
  5  6  2  0
  5  7  1  0
  7  8  1  0
  8  9  1  0
  9 10  1  0
  9 11  2  0
 11 12  1  0
 12 13  1  0
 12 14  2  0
 14 15  1  0
 15 16  2  0
 16 17  1  0
 17 18  1  0
 17 19  2  0
 19 20  1  0
 19 21  1  0
 21 22  1  0
 21 23  2  0
  8  3  2  0
 23 11  1  0
 23 15  1  0
M  CHG  2   4  -1   7  -1
M  END
>  <UniqueID>  (38) 
35

>  <SMILES>  (38) 
O=c1[n-]c(O)c(/C=C2\C=Nc3ncccc32)[n-]1

>  <Energy>  (38) 
91.69160804374195

>  <Genealogy>  (38) 
O=c1[n-]c(O)c(C=C2C=Nc3ncccc32)[n-]1 (protonated)
O=c1[n-]c(O)c(/C=C2\C=Nc3ncccc32)[n-]1 (cis-trans isomerization)
O=c1[n-]c(O)c(/C=C2\C=Nc3ncccc32)[n-]1 (3D coordinates assigned)
O=c1[n-]c(O)c(/C=C2\C=Nc3ncccc32)[n-]1 (nonaromatic ring conformer: 91.69160804374195 kcal/mol)

>  <smiles>  (38) 
O=c1[nH]c(O)c(C=C2C=Nc3ncccc32)[nH]1

>  <score_type>  (38) 
oracle

>  <origin>  (38) 
adg

>  <m_score__min__energy>  (38) 
-11.25

>  <m_primary>  (38) 
energy

$$$$
38:0
     RDKit          3D

 45 46  0  0  1  0  0  0  0  0999 V2000
   59.3420   30.3900   48.5940 O   0  0  0  0  0  0  0  0  0  0  0  0
   60.1910   31.2010   48.1230 C   0  0  0  0  0  0  0  0  0  0  0  0
   60.7290   30.8720   46.8550 N   0  0  0  0  0  0  0  0  0  0  0  0
   60.3650   29.6820   46.1030 C   0  0  0  0  0  0  0  0  0  0  0  0
   58.9840   29.7220   45.5730 C   0  0  0  0  0  0  0  0  0  0  0  0
   58.4570   30.7610   44.8460 C   0  0  0  0  0  0  0  0  0  0  0  0
   57.1560   30.7760   44.3690 C   0  0  0  0  0  0  0  0  0  0  0  0
   56.3770   29.6750   44.6530 C   0  0  0  0  0  0  0  0  0  0  0  0
   55.0780   29.6470   44.1970 O   0  0  0  0  0  0  0  0  0  0  0  0
   56.8580   28.6150   45.3730 C   0  0  0  0  0  0  0  0  0  0  0  0
   56.1160   27.4850   45.6860 O   0  0  0  0  0  0  0  0  0  0  0  0
   58.1770   28.6330   45.8400 C   0  0  0  0  0  0  0  0  0  0  0  0
   60.5760   32.3910   48.8530 N   0  0  0  0  0  0  0  0  0  0  0  0
   61.8030   32.4000   49.6180 C   0  0  0  0  0  0  0  0  0  0  0  0
   62.9400   32.4870   48.6320 C   0  0  0  0  0  0  0  0  0  0  0  0
   64.2170   32.1580   48.9980 O   0  0  0  0  0  0  0  0  0  0  0  0
   62.7080   32.8760   47.4300 N   0  0  0  0  0  0  0  0  0  0  0  0
   63.5210   32.5690   46.3900 O   0  0  0  0  0  0  0  0  0  0  0  0
   59.6830   33.5130   48.7220 C   0  0  0  0  0  0  0  0  0  0  0  0
   59.1120   33.7550   47.3930 C   0  0  0  0  0  0  0  0  0  0  0  0
   57.7570   33.4560   47.2050 C   0  0  0  0  0  0  0  0  0  0  0  0
   57.1270   33.6610   45.9900 C   0  0  0  0  0  0  0  0  0  0  0  0
   57.8210   34.1760   44.9020 C   0  0  0  0  0  0  0  0  0  0  0  0
   59.1360   34.4660   45.0830 C   0  0  0  0  0  0  0  0  0  0  0  0
   59.7680   34.2600   46.3020 C   0  0  0  0  0  0  0  0  0  0  0  0
   61.1100   34.5920   46.3530 O   0  0  0  0  0  0  0  0  0  0  0  0
   61.4400   31.4920   46.3720 H   0  0  0  0  0  0  0  0  0  0  0  0
   61.0604   29.5777   45.2571 H   0  0  0  0  0  0  0  0  0  0  0  0
   60.4227   28.8295   46.7958 H   0  0  0  0  0  0  0  0  0  0  0  0
   59.1011   31.6264   44.6311 H   0  0  0  0  0  0  0  0  0  0  0  0
   56.7638   31.6260   43.7913 H   0  0  0  0  0  0  0  0  0  0  0  0
   54.3890   28.9640   44.5040 H   0  0  0  0  0  0  0  0  0  0  0  0
   55.1470   27.4950   45.3400 H   0  0  0  0  0  0  0  0  0  0  0  0
   58.5698   27.7832   46.4175 H   0  0  0  0  0  0  0  0  0  0  0  0
   61.8209   33.2691   50.2921 H   0  0  0  0  0  0  0  0  0  0  0  0
   61.8872   31.4921   50.2333 H   0  0  0  0  0  0  0  0  0  0  0  0
   64.9920   32.0640   48.3250 H   0  0  0  0  0  0  0  0  0  0  0  0
   64.4870   32.3170   46.4860 H   0  0  0  0  0  0  0  0  0  0  0  0
   58.8469   33.3554   49.4192 H   0  0  0  0  0  0  0  0  0  0  0  0
   60.3013   34.3978   48.9339 H   0  0  0  0  0  0  0  0  0  0  0  0
   57.1776   33.0471   48.0459 H   0  0  0  0  0  0  0  0  0  0  0  0
   56.0607   33.4125   45.8840 H   0  0  0  0  0  0  0  0  0  0  0  0
   57.3261   34.3421   43.9338 H   0  0  0  0  0  0  0  0  0  0  0  0
   59.7151   34.8747   44.2418 H   0  0  0  0  0  0  0  0  0  0  0  0
   61.7590   33.8070   46.3540 H   0  0  0  0  0  0  0  0  0  0  0  0
  1  2  2  0
  2  3  1  0
  3  4  1  0
  4  5  1  0
  5  6  2  0
  6  7  1  0
  7  8  2  0
  8  9  1  0
  8 10  1  0
 10 11  1  0
 10 12  2  0
  2 13  1  0
 13 14  1  0
 14 15  1  0
 15 16  1  0
 15 17  2  0
 17 18  1  0
 13 19  1  0
 19 20  1  0
 20 21  2  0
 21 22  1  0
 22 23  2  0
 23 24  1  0
 24 25  2  0
 25 26  1  0
 12  5  1  0
 25 20  1  0
  3 27  1  0
  4 28  1  0
  4 29  1  0
  6 30  1  0
  7 31  1  0
  9 32  1  0
 11 33  1  0
 12 34  1  0
 14 35  1  0
 14 36  1  0
 16 37  1  0
 18 38  1  0
 19 39  1  0
 19 40  1  0
 21 41  1  0
 22 42  1  0
 23 43  1  0
 24 44  1  0
 26 45  1  0
M  END
>  <smiles>  (39) 
O=C(NCc1ccc(O)c(O)c1)N(CC(O)=NO)Cc1ccccc1O

>  <score_type>  (39) 
oracle

>  <origin>  (39) 
adg

>  <m_score__min__energy>  (39) 
-9.6799999999999997

>  <m_primary>  (39) 
energy

$$$$
39:0
     RDKit          3D

 49 52  0  0  0  0  0  0  0  0999 V2000
   56.5730   26.9700   45.6120 O   0  0  0  0  0  0  0  0  0  0  0  0
   56.6960   28.2130   45.4380 C   0  0  0  0  0  0  0  0  0  0  0  0
   55.5830   28.9800   44.9700 N   0  0  0  0  0  0  0  0  0  0  0  0
   55.5730   29.6700   43.6880 C   0  0  0  0  0  0  0  0  0  0  0  0
   56.5080   30.8360   43.7500 C   0  0  0  0  0  0  0  0  0  0  0  0
   57.2530   31.2150   42.6230 C   0  0  0  0  0  0  0  0  0  0  0  0
   58.1510   32.2810   42.7220 C   0  0  0  0  0  0  0  0  0  0  0  0
   58.2990   32.9530   43.9380 C   0  0  0  0  0  0  0  0  0  0  0  0
   57.5460   32.5440   45.0410 C   0  0  0  0  0  0  0  0  0  0  0  0
   56.6790   31.5030   44.9270 N   0  0  0  0  0  0  0  0  0  0  0  0
   57.9790   28.8830   45.7450 C   0  0  0  0  0  0  0  0  0  0  0  0
   59.0840   28.7380   44.8870 C   0  0  0  0  0  0  0  0  0  0  0  0
   60.3190   29.3010   45.2210 C   0  0  0  0  0  0  0  0  0  0  0  0
   60.4690   30.0230   46.4150 C   0  0  0  0  0  0  0  0  0  0  0  0
   61.8220   30.5470   46.8240 C   0  0  0  0  0  0  0  0  0  0  0  0
   61.7820   31.9870   47.0940 N   0  0  0  0  0  0  0  0  0  0  0  0
   62.3130   32.3580   48.7130 S   0  0  0  0  0  0  0  0  0  0  0  0
   63.2790   31.3110   49.1980 O   0  0  0  0  0  0  0  0  0  0  0  0
   63.0110   33.6890   48.7100 O   0  0  0  0  0  0  0  0  0  0  0  0
   60.9160   32.4540   49.7850 C   0  0  0  0  0  0  0  0  0  0  0  0
   60.4880   33.7060   50.2470 C   0  0  0  0  0  0  0  0  0  0  0  0
   59.3300   33.8170   51.0220 C   0  0  0  0  0  0  0  0  0  0  0  0
   58.5860   32.6760   51.3360 C   0  0  0  0  0  0  0  0  0  0  0  0
   57.4430   32.7840   52.0660 N   0  0  0  0  0  0  0  0  0  0  0  0
   56.6870   31.6970   52.3750 C   0  0  0  0  0  0  0  0  0  0  0  0
   57.0740   30.4270   51.9400 C   0  0  0  0  0  0  0  0  0  0  0  0
   58.2440   30.2830   51.1930 C   0  0  0  0  0  0  0  0  0  0  0  0
   59.0170   31.4090   50.8840 C   0  0  0  0  0  0  0  0  0  0  0  0
   60.1870   31.3020   50.1180 C   0  0  0  0  0  0  0  0  0  0  0  0
   59.3550   30.2170   47.2450 C   0  0  0  0  0  0  0  0  0  0  0  0
   58.1240   29.6410   46.9200 C   0  0  0  0  0  0  0  0  0  0  0  0
   55.8980   28.9794   42.8959 H   0  0  0  0  0  0  0  0  0  0  0  0
   54.5552   30.0236   43.4664 H   0  0  0  0  0  0  0  0  0  0  0  0
   57.1313   30.6781   41.6707 H   0  0  0  0  0  0  0  0  0  0  0  0
   58.7394   32.5901   41.8455 H   0  0  0  0  0  0  0  0  0  0  0  0
   59.0011   33.7952   44.0258 H   0  0  0  0  0  0  0  0  0  0  0  0
   57.6547   33.0651   46.0036 H   0  0  0  0  0  0  0  0  0  0  0  0
   58.9756   28.1777   43.9466 H   0  0  0  0  0  0  0  0  0  0  0  0
   61.1776   29.1775   44.5446 H   0  0  0  0  0  0  0  0  0  0  0  0
   62.1485   30.0218   47.7337 H   0  0  0  0  0  0  0  0  0  0  0  0
   62.5246   30.3708   45.9962 H   0  0  0  0  0  0  0  0  0  0  0  0
   61.0672   34.6074   49.9981 H   0  0  0  0  0  0  0  0  0  0  0  0
   59.0040   34.8029   51.3850 H   0  0  0  0  0  0  0  0  0  0  0  0
   55.7689   31.8177   52.9687 H   0  0  0  0  0  0  0  0  0  0  0  0
   56.4610   29.5470   52.1845 H   0  0  0  0  0  0  0  0  0  0  0  0
   58.5583   29.2870   50.8477 H   0  0  0  0  0  0  0  0  0  0  0  0
   60.5333   30.3148   49.7781 H   0  0  0  0  0  0  0  0  0  0  0  0
   59.4509   30.8256   48.1563 H   0  0  0  0  0  0  0  0  0  0  0  0
   57.2620   29.7818   47.5886 H   0  0  0  0  0  0  0  0  0  0  0  0
  1  2  2  0
  2  3  1  0
  3  4  1  0
  4  5  1  0
  5  6  2  0
  6  7  1  0
  7  8  2  0
  8  9  1  0
  9 10  2  0
  2 11  1  0
 11 12  2  0
 12 13  1  0
 13 14  2  0
 14 15  1  0
 15 16  1  0
 16 17  1  0
 17 18  2  0
 17 19  2  0
 17 20  1  0
 20 21  2  0
 21 22  1  0
 22 23  2  0
 23 24  1  0
 24 25  2  0
 25 26  1  0
 26 27  2  0
 27 28  1  0
 28 29  2  0
 14 30  1  0
 30 31  2  0
 10  5  1  0
 31 11  1  0
 29 20  1  0
 28 23  1  0
  4 32  1  0
  4 33  1  0
  6 34  1  0
  7 35  1  0
  8 36  1  0
  9 37  1  0
 12 38  1  0
 13 39  1  0
 15 40  1  0
 15 41  1  0
 21 42  1  0
 22 43  1  0
 25 44  1  0
 26 45  1  0
 27 46  1  0
 29 47  1  0
 30 48  1  0
 31 49  1  0
M  CHG  2   3  -1  16  -1
M  END
>  <UniqueID>  (40) 
36

>  <SMILES>  (40) 
O=C([N-]Cc1ccccn1)c1ccc(C[N-]S(=O)(=O)c2ccc3ncccc3c2)cc1

>  <Energy>  (40) 
47.661229933616276

>  <Genealogy>  (40) 
O=C([N-]Cc1ccccn1)c1ccc(C[N-]S(=O)(=O)c2ccc3ncccc3c2)cc1 (protonated)
O=C([N-]Cc1ccccn1)c1ccc(C[N-]S(=O)(=O)c2ccc3ncccc3c2)cc1 (3D coordinates assigned)
O=C([N-]Cc1ccccn1)c1ccc(C[N-]S(=O)(=O)c2ccc3ncccc3c2)cc1 (optimized conformer: 47.661229933616276 kcal/mol)

>  <smiles>  (40) 
O=C(NCc1ccccn1)c1ccc(CNS(=O)(=O)c2ccc3ncccc3c2)cc1

>  <score_type>  (40) 
oracle

>  <origin>  (40) 
adg

>  <m_score__min__energy>  (40) 
-12.210000000000001

>  <m_primary>  (40) 
energy

$$$$
40:0
     RDKit          3D

 41 42  0  0  0  0  0  0  0  0999 V2000
   56.1532   28.5922   44.0524 H   0  0  0  0  0  0  0  0  0  0  0  0
   56.6210   28.7100   45.0410 C   0  0  0  0  0  0  0  0  0  0  0  0
   56.7110   29.9090   45.5400 N   0  0  0  0  0  0  0  0  0  0  0  0
   57.9220   30.7280   45.5970 C   0  0  0  0  0  0  0  0  0  0  0  0
   58.8006   30.0892   45.4238 H   0  0  0  0  0  0  0  0  0  0  0  0
   57.9888   31.1997   46.5885 H   0  0  0  0  0  0  0  0  0  0  0  0
   57.8740   31.8230   44.5260 C   0  0  0  0  0  0  0  0  0  0  0  0
   57.1896   31.5039   43.7262 H   0  0  0  0  0  0  0  0  0  0  0  0
   58.8977   31.9669   44.1501 H   0  0  0  0  0  0  0  0  0  0  0  0
   57.3890   33.1680   45.0800 C   0  0  0  0  0  0  0  0  0  0  0  0
   56.7793   32.9919   45.9784 H   0  0  0  0  0  0  0  0  0  0  0  0
   56.7887   33.6764   44.3111 H   0  0  0  0  0  0  0  0  0  0  0  0
   58.5290   34.0130   45.4290 N   0  0  0  0  0  0  0  0  0  0  0  0
   58.8900   34.3570   46.6320 C   0  0  0  0  0  0  0  0  0  0  0  0
   58.1430   34.8385   47.2801 H   0  0  0  0  0  0  0  0  0  0  0  0
   60.2470   34.1370   47.1760 C   0  0  0  0  0  0  0  0  0  0  0  0
   60.5150   34.2700   48.5470 C   0  0  0  0  0  0  0  0  0  0  0  0
   59.7012   34.5247   49.2419 H   0  0  0  0  0  0  0  0  0  0  0  0
   58.9360   26.1800   46.6540 C   0  0  0  0  0  0  0  0  0  0  0  0
   60.2940   26.0050   46.8880 O   0  0  0  0  0  0  0  0  0  0  0  0
   58.0210   25.2210   47.0980 C   0  0  0  0  0  0  0  0  0  0  0  0
   58.3776   24.3213   47.6208 H   0  0  0  0  0  0  0  0  0  0  0  0
   56.6540   25.4050   46.8780 C   0  0  0  0  0  0  0  0  0  0  0  0
   55.9350   24.6540   47.2371 H   0  0  0  0  0  0  0  0  0  0  0  0
   56.1960   26.5420   46.2020 C   0  0  0  0  0  0  0  0  0  0  0  0
   54.8310   26.7080   45.9950 O   0  0  0  0  0  0  0  0  0  0  0  0
   57.1130   27.4980   45.7300 C   0  0  0  0  0  0  0  0  0  0  0  0
   58.4850   27.3190   45.9790 C   0  0  0  0  0  0  0  0  0  0  0  0
   59.2066   28.0776   45.6417 H   0  0  0  0  0  0  0  0  0  0  0  0
   62.5960   33.6650   46.7790 C   0  0  0  0  0  0  0  0  0  0  0  0
   63.4123   33.4302   46.0800 H   0  0  0  0  0  0  0  0  0  0  0  0
   62.8620   33.7700   48.1590 C   0  0  0  0  0  0  0  0  0  0  0  0
   64.1470   33.5820   48.6890 O   0  0  0  0  0  0  0  0  0  0  0  0
   64.4940   32.5570   49.6160 C   0  0  0  0  0  0  0  0  0  0  0  0
   64.3669   32.9323   50.6422 H   0  0  0  0  0  0  0  0  0  0  0  0
   63.8408   31.6857   49.4607 H   0  0  0  0  0  0  0  0  0  0  0  0
   65.5422   32.2617   49.4607 H   0  0  0  0  0  0  0  0  0  0  0  0
   61.8130   34.0800   49.0340 C   0  0  0  0  0  0  0  0  0  0  0  0
   62.0590   34.2050   50.3970 O   0  0  0  0  0  0  0  0  0  0  0  0
   61.2990   33.8580   46.2950 C   0  0  0  0  0  0  0  0  0  0  0  0
   61.1034   33.7903   45.2147 H   0  0  0  0  0  0  0  0  0  0  0  0
  1  2  1  0
  2  3  2  0
  3  4  1  0
  4  5  1  0
  4  6  1  0
  4  7  1  0
  7  8  1  0
  7  9  1  0
  7 10  1  0
 10 11  1  0
 10 12  1  0
 10 13  1  0
 13 14  2  0
 14 15  1  0
 14 16  1  0
 16 17  2  0
 17 18  1  0
 17 19  1  0
 19 20  1  0
 19 21  2  0
 21 22  1  0
 21 23  1  0
 23 24  1  0
 23 25  2  0
 25 26  1  0
  2 27  1  0
 27 28  2  0
 28 29  1  0
 28 30  1  0
 30 31  1  0
 30 32  2  0
 32 33  1  0
 33 34  1  0
 34 35  1  0
 34 36  1  0
 34 37  1  0
 32 38  1  0
 38 39  1  0
 38 40  2  0
 40 41  1  0
 25 16  1  0
 40 27  1  0
M  CHG  3  20  -1  26  -1  39  -1
M  END
>  <UniqueID>  (41) 
37

>  <SMILES>  (41) 
COc1ccc(/C=N\CCC/N=C\c2cc([O-])ccc2[O-])cc1[O-]

>  <Energy>  (41) 
49.3872667116226

>  <Genealogy>  (41) 
COc1ccc(C=NCCCN=Cc2cc([O-])ccc2[O-])cc1[O-] (protonated)
COc1ccc(/C=N\CCC/N=C\c2cc([O-])ccc2[O-])cc1[O-] (cis-trans isomerization)
COc1ccc(/C=N\CCC/N=C\c2cc([O-])ccc2[O-])cc1[O-] (3D coordinates assigned)
COc1ccc(/C=N\CCC/N=C\c2cc([O-])ccc2[O-])cc1[O-] (optimized conformer: 49.3872667116226 kcal/mol)

>  <smiles>  (41) 
COc1ccc(C=NCCCN=Cc2cc(O)ccc2O)cc1O

>  <score_type>  (41) 
oracle

>  <origin>  (41) 
adg

>  <m_score__min__energy>  (41) 
-14.85

>  <m_primary>  (41) 
energy

$$$$
41:0
     RDKit          3D

 42 43  0  0  0  0  0  0  0  0999 V2000
   57.6330   29.6550   51.6100 O   0  0  0  0  0  0  0  0  0  0  0  0
   56.9180   30.6840   51.7370 C   0  0  0  0  0  0  0  0  0  0  0  0
   55.8490   30.6700   52.6900 N   0  0  0  0  0  0  0  0  0  0  0  0
   54.4610   30.4550   52.3940 C   0  0  0  0  0  0  0  0  0  0  0  0
   53.9050   29.1970   52.6450 C   0  0  0  0  0  0  0  0  0  0  0  0
   52.5520   28.9600   52.3890 C   0  0  0  0  0  0  0  0  0  0  0  0
   51.7410   29.9840   51.8960 C   0  0  0  0  0  0  0  0  0  0  0  0
   52.2740   31.2640   51.6630 C   0  0  0  0  0  0  0  0  0  0  0  0
   51.4070   32.3520   51.1580 C   0  0  0  0  0  0  0  0  0  0  0  0
   51.3820   32.6340   49.9290 O   0  0  0  0  0  0  0  0  0  0  0  0
   50.6050   33.0770   52.0310 O   0  0  0  0  0  0  0  0  0  0  0  0
   53.6370   31.4950   51.9250 C   0  0  0  0  0  0  0  0  0  0  0  0
   57.1100   31.8100   50.8650 N   0  0  0  0  0  0  0  0  0  0  0  0
   58.3310   32.0770   50.1550 C   0  0  0  0  0  0  0  0  0  0  0  0
   58.5720   31.4280   48.9340 C   0  0  0  0  0  0  0  0  0  0  0  0
   59.7410   31.6870   48.2120 C   0  0  0  0  0  0  0  0  0  0  0  0
   60.6760   32.6120   48.6930 C   0  0  0  0  0  0  0  0  0  0  0  0
   62.1570   32.9150   47.7860 S   0  0  0  0  0  0  0  0  0  0  0  0
   63.1340   33.6380   48.6710 O   0  0  0  0  0  0  0  0  0  0  0  0
   62.7770   31.6140   47.3560 O   0  0  0  0  0  0  0  0  0  0  0  0
   61.8190   33.8930   46.3910 N   0  0  0  0  0  0  0  0  0  0  0  0
   60.5380   34.5770   46.5630 C   0  0  0  0  0  0  0  0  0  0  0  0
   59.4970   33.9890   45.6060 C   0  0  0  0  0  0  0  0  0  0  0  0
   58.0950   33.9580   46.2160 C   0  0  0  0  0  0  0  0  0  0  0  0
   57.1640   33.5690   45.2690 F   0  0  0  0  0  0  0  0  0  0  0  0
   60.4340   33.2750   49.9030 C   0  0  0  0  0  0  0  0  0  0  0  0
   59.2650   33.0160   50.6260 C   0  0  0  0  0  0  0  0  0  0  0  0
   54.5358   28.3899   53.0460 H   0  0  0  0  0  0  0  0  0  0  0  0
   52.1246   27.9639   52.5764 H   0  0  0  0  0  0  0  0  0  0  0  0
   50.6786   29.7881   51.6886 H   0  0  0  0  0  0  0  0  0  0  0  0
   54.0619   32.4964   51.7619 H   0  0  0  0  0  0  0  0  0  0  0  0
   56.2850   32.4240   50.6770 H   0  0  0  0  0  0  0  0  0  0  0  0
   57.8359   30.7105   48.5423 H   0  0  0  0  0  0  0  0  0  0  0  0
   59.9269   31.1625   47.2631 H   0  0  0  0  0  0  0  0  0  0  0  0
   60.1931   34.4489   47.5996 H   0  0  0  0  0  0  0  0  0  0  0  0
   60.6676   35.6468   46.3421 H   0  0  0  0  0  0  0  0  0  0  0  0
   59.4712   34.6015   44.6926 H   0  0  0  0  0  0  0  0  0  0  0  0
   59.7905   32.9516   45.3879 H   0  0  0  0  0  0  0  0  0  0  0  0
   58.0799   33.2446   47.0531 H   0  0  0  0  0  0  0  0  0  0  0  0
   57.8396   34.9665   46.5733 H   0  0  0  0  0  0  0  0  0  0  0  0
   61.1657   34.0017   50.2858 H   0  0  0  0  0  0  0  0  0  0  0  0
   59.0754   33.5502   51.5687 H   0  0  0  0  0  0  0  0  0  0  0  0
  1  2  2  0
  2  3  1  0
  3  4  1  0
  4  5  2  0
  5  6  1  0
  6  7  2  0
  7  8  1  0
  8  9  1  0
  9 10  2  0
  9 11  1  0
  8 12  2  0
  2 13  1  0
 13 14  1  0
 14 15  2  0
 15 16  1  0
 16 17  2  0
 17 18  1  0
 18 19  2  0
 18 20  2  0
 18 21  1  0
 21 22  1  0
 22 23  1  0
 23 24  1  0
 24 25  1  0
 17 26  1  0
 26 27  2  0
 12  4  1  0
 27 14  1  0
  5 28  1  0
  6 29  1  0
  7 30  1  0
 12 31  1  0
 13 32  1  0
 15 33  1  0
 16 34  1  0
 22 35  1  0
 22 36  1  0
 23 37  1  0
 23 38  1  0
 24 39  1  0
 24 40  1  0
 26 41  1  0
 27 42  1  0
M  CHG  3   3  -1  11  -1  21  -1
M  END
>  <UniqueID>  (42) 
38

>  <SMILES>  (42) 
O=C([N-]c1cccc(C(=O)[O-])c1)Nc1ccc(S(=O)(=O)[N-]CCCF)cc1

>  <Energy>  (42) 
43.53076032816106

>  <Genealogy>  (42) 
O=C([N-]c1cccc(C(=O)[O-])c1)Nc1ccc(S(=O)(=O)[N-]CCCF)cc1 (protonated)
O=C([N-]c1cccc(C(=O)[O-])c1)Nc1ccc(S(=O)(=O)[N-]CCCF)cc1 (3D coordinates assigned)
O=C([N-]c1cccc(C(=O)[O-])c1)Nc1ccc(S(=O)(=O)[N-]CCCF)cc1 (optimized conformer: 43.53076032816106 kcal/mol)

>  <smiles>  (42) 
O=C(Nc1ccc(S(=O)(=O)NCCCF)cc1)Nc1cccc(C(=O)O)c1

>  <score_type>  (42) 
oracle

>  <origin>  (42) 
adg

>  <m_score__min__energy>  (42) 
-13.369999999999999

>  <m_primary>  (42) 
energy

$$$$
42:0
     RDKit          3D

 54 56  0  0  0  0  0  0  0  0999 V2000
   63.6670   33.8630   47.4690 C   0  0  0  0  0  0  0  0  0  0  0  0
   62.2550   33.2460   47.4650 C   0  0  0  0  0  0  0  0  0  0  0  0
   61.4490   33.8390   48.6330 C   0  0  0  0  0  0  0  0  0  0  0  0
   62.3270   31.7150   47.6350 C   0  0  0  0  0  0  0  0  0  0  0  0
   61.5590   33.5880   46.2570 O   0  0  0  0  0  0  0  0  0  0  0  0
   60.2400   34.0540   46.1590 C   0  0  0  0  0  0  0  0  0  0  0  0
   59.9980   35.2870   46.0910 O   0  0  0  0  0  0  0  0  0  0  0  0
   59.1590   33.1070   46.1250 N   0  0  0  0  0  0  0  0  0  0  0  0
   57.7810   33.5230   45.8430 C   0  0  0  0  0  0  0  0  0  0  0  0
   57.1690   32.5530   44.8240 C   0  0  0  0  0  0  0  0  0  0  0  0
   57.2930   31.1160   45.2060 N   0  0  0  0  0  0  0  0  0  0  0  0
   57.6950   30.2670   44.0640 C   0  0  0  0  0  0  0  0  0  0  0  0
   58.4500   29.0610   44.5380 C   0  0  0  0  0  0  0  0  0  0  0  0
   57.8890   27.8500   44.7150 N   0  0  0  0  0  0  0  0  0  0  0  0
   58.8850   27.0910   45.2040 C   0  0  0  0  0  0  0  0  0  0  0  0
   58.7540   25.6770   45.6000 C   0  0  0  0  0  0  0  0  0  0  0  0
   59.7510   25.0740   46.0670 O   0  0  0  0  0  0  0  0  0  0  0  0
   57.5280   24.9540   45.4200 N   0  0  0  0  0  0  0  0  0  0  0  0
   57.3570   23.7860   44.6090 C   0  0  0  0  0  0  0  0  0  0  0  0
   56.4290   23.7510   43.5510 C   0  0  0  0  0  0  0  0  0  0  0  0
   56.2890   22.5950   42.7760 C   0  0  0  0  0  0  0  0  0  0  0  0
   57.0620   21.4640   43.0590 C   0  0  0  0  0  0  0  0  0  0  0  0
   57.9630   21.4850   44.1270 C   0  0  0  0  0  0  0  0  0  0  0  0
   58.1050   22.6390   44.9040 C   0  0  0  0  0  0  0  0  0  0  0  0
   60.0280   27.8630   45.2850 C   0  0  0  0  0  0  0  0  0  0  0  0
   59.7220   29.0740   44.8750 O   0  0  0  0  0  0  0  0  0  0  0  0
   58.1440   30.8660   46.3920 C   0  0  0  0  0  0  0  0  0  0  0  0
   59.4410   31.6870   46.3620 C   0  0  0  0  0  0  0  0  0  0  0  0
   64.0005   34.0087   48.5070 H   0  0  0  0  0  0  0  0  0  0  0  0
   64.3639   33.1874   46.9514 H   0  0  0  0  0  0  0  0  0  0  0  0
   63.6446   34.8334   46.9514 H   0  0  0  0  0  0  0  0  0  0  0  0
   61.8912   33.5136   49.5862 H   0  0  0  0  0  0  0  0  0  0  0  0
   61.4719   34.9372   48.5741 H   0  0  0  0  0  0  0  0  0  0  0  0
   60.4074   33.4903   48.5741 H   0  0  0  0  0  0  0  0  0  0  0  0
   62.3387   31.4652   48.7062 H   0  0  0  0  0  0  0  0  0  0  0  0
   61.4497   31.2517   47.1600 H   0  0  0  0  0  0  0  0  0  0  0  0
   63.2440   31.3361   47.1600 H   0  0  0  0  0  0  0  0  0  0  0  0
   57.1918   33.5035   46.7717 H   0  0  0  0  0  0  0  0  0  0  0  0
   57.7756   34.5447   45.4355 H   0  0  0  0  0  0  0  0  0  0  0  0
   56.1006   32.7918   44.7171 H   0  0  0  0  0  0  0  0  0  0  0  0
   57.7272   32.6827   43.8851 H   0  0  0  0  0  0  0  0  0  0  0  0
   56.7947   29.9396   43.5233 H   0  0  0  0  0  0  0  0  0  0  0  0
   58.3474   30.8536   43.4005 H   0  0  0  0  0  0  0  0  0  0  0  0
   56.9040   27.5690   44.5120 H   0  0  0  0  0  0  0  0  0  0  0  0
   55.8122   24.6353   43.3331 H   0  0  0  0  0  0  0  0  0  0  0  0
   55.5705   22.5753   41.9433 H   0  0  0  0  0  0  0  0  0  0  0  0
   56.9608   20.5592   42.4416 H   0  0  0  0  0  0  0  0  0  0  0  0
   58.5620   20.5916   44.3571 H   0  0  0  0  0  0  0  0  0  0  0  0
   58.8072   22.6460   45.7506 H   0  0  0  0  0  0  0  0  0  0  0  0
   61.0162   27.5251   45.6304 H   0  0  0  0  0  0  0  0  0  0  0  0
   57.5775   31.1325   47.2964 H   0  0  0  0  0  0  0  0  0  0  0  0
   58.4197   29.8011   46.3899 H   0  0  0  0  0  0  0  0  0  0  0  0
   59.9575   31.5790   47.3272 H   0  0  0  0  0  0  0  0  0  0  0  0
   60.0731   31.3138   45.5428 H   0  0  0  0  0  0  0  0  0  0  0  0
  1  2  1  0
  2  3  1  0
  2  4  1  0
  2  5  1  0
  5  6  1  0
  6  7  2  0
  6  8  1  0
  8  9  1  0
  9 10  1  0
 10 11  1  0
 11 12  1  0
 12 13  1  0
 13 14  2  0
 14 15  1  0
 15 16  1  0
 16 17  2  0
 16 18  1  0
 18 19  1  0
 19 20  2  0
 20 21  1  0
 21 22  2  0
 22 23  1  0
 23 24  2  0
 15 25  2  0
 25 26  1  0
 11 27  1  0
 27 28  1  0
 28  8  1  0
 26 13  1  0
 24 19  1  0
  1 29  1  0
  1 30  1  0
  1 31  1  0
  3 32  1  0
  3 33  1  0
  3 34  1  0
  4 35  1  0
  4 36  1  0
  4 37  1  0
  9 38  1  0
  9 39  1  0
 10 40  1  0
 10 41  1  0
 12 42  1  0
 12 43  1  0
 14 44  1  0
 20 45  1  0
 21 46  1  0
 22 47  1  0
 23 48  1  0
 24 49  1  0
 25 50  1  0
 27 51  1  0
 27 52  1  0
 28 53  1  0
 28 54  1  0
M  CHG  2  14   1  18  -1
M  END
>  <UniqueID>  (43) 
39

>  <SMILES>  (43) 
CC(C)(C)OC(=O)N1CCN(Cc2[nH+]c(C(=O)[N-]c3ccccc3)co2)CC1

>  <Energy>  (43) 
90.3963712494016

>  <Genealogy>  (43) 
CC(C)(C)OC(=O)N1CCN(Cc2[nH+]c(C(=O)[N-]c3ccccc3)co2)CC1 (protonated)
CC(C)(C)OC(=O)N1CCN(Cc2[nH+]c(C(=O)[N-]c3ccccc3)co2)CC1 (3D coordinates assigned)
CC(C)(C)OC(=O)N1CCN(Cc2[nH+]c(C(=O)[N-]c3ccccc3)co2)CC1 (nonaromatic ring conformer: 90.3963712494016 kcal/mol)

>  <smiles>  (43) 
CC(C)(C)OC(=O)N1CCN(Cc2nc(C(=O)Nc3ccccc3)co2)CC1

>  <score_type>  (43) 
oracle

>  <origin>  (43) 
adg

>  <m_score__min__energy>  (43) 
-7.9699999999999998

>  <m_primary>  (43) 
energy

$$$$
43:0
     RDKit          3D

 56 60  0  0  1  0  0  0  0  0999 V2000
   56.8400   23.0840   44.0450 C   0  0  0  0  0  0  0  0  0  0  0  0
   57.2220   24.4690   43.8520 N   0  0  0  0  0  0  0  0  0  0  0  0
   57.4280   25.4310   44.7880 C   0  0  0  0  0  0  0  0  0  0  0  0
   57.7750   26.5880   44.1230 C   0  0  0  0  0  0  0  0  0  0  0  0
   58.0870   27.8810   44.7300 C   0  0  0  0  0  0  0  0  0  0  0  0
   57.2620   28.9580   44.4730 C   0  0  0  0  0  0  0  0  0  0  0  0
   59.4560   29.1800   46.0820 C   0  0  0  0  0  0  0  0  0  0  0  0
   60.4420   29.3610   46.8300 N   0  0  0  0  0  0  0  0  0  0  0  0
   60.6930   29.5980   48.1700 C   0  0  0  0  0  0  0  0  0  0  0  0
   58.1680   33.2760   45.1030 C   0  0  0  0  0  0  0  0  0  0  0  0
   59.0820   34.2180   44.6850 C   0  0  0  0  0  0  0  0  0  0  0  0
   59.6600   35.0270   45.6500 C   0  0  0  0  0  0  0  0  0  0  0  0
   59.3540   34.9190   46.9950 C   0  0  0  0  0  0  0  0  0  0  0  0
   58.4510   33.9880   47.4070 C   0  0  0  0  0  0  0  0  0  0  0  0
   57.8670   33.1750   46.4570 C   0  0  0  0  0  0  0  0  0  0  0  0
   58.6500   30.2280   45.8300 N   0  0  0  0  0  0  0  0  0  0  0  0
   57.5720   30.1690   45.0540 C   0  0  0  0  0  0  0  0  0  0  0  0
   56.8770   31.2420   44.8880 N   0  0  0  0  0  0  0  0  0  0  0  0
   57.4770   32.3470   44.1560 C   0  0  0  0  0  0  0  0  0  0  0  0
   60.6590   30.9160   48.7890 C   0  0  0  0  0  0  0  0  0  0  0  0
   59.7010   31.3230   49.7310 C   0  0  0  0  0  0  0  0  0  0  0  0
   59.6820   32.6000   50.2420 C   0  0  0  0  0  0  0  0  0  0  0  0
   60.5960   33.5260   49.8560 C   0  0  0  0  0  0  0  0  0  0  0  0
   61.5590   33.1670   48.9320 C   0  0  0  0  0  0  0  0  0  0  0  0
   62.4700   34.1390   48.5670 C   0  0  0  0  0  0  0  0  0  0  0  0
   63.4540   33.7980   47.6320 C   0  0  0  0  0  0  0  0  0  0  0  0
   63.4750   32.5260   47.1200 C   0  0  0  0  0  0  0  0  0  0  0  0
   62.5590   31.5500   47.4870 C   0  0  0  0  0  0  0  0  0  0  0  0
   61.5780   31.8840   48.4170 C   0  0  0  0  0  0  0  0  0  0  0  0
   59.1720   27.9770   45.5210 N   0  0  0  0  0  0  0  0  0  0  0  0
   57.7680   26.2840   42.7760 C   0  0  0  0  0  0  0  0  0  0  0  0
   57.4280   24.9830   42.6400 N   0  0  0  0  0  0  0  0  0  0  0  0
   56.7801   22.8668   45.1217 H   0  0  0  0  0  0  0  0  0  0  0  0
   55.8592   22.9059   43.5799 H   0  0  0  0  0  0  0  0  0  0  0  0
   57.5908   22.4283   43.5799 H   0  0  0  0  0  0  0  0  0  0  0  0
   57.3351   25.3095   45.8773 H   0  0  0  0  0  0  0  0  0  0  0  0
   56.3814   28.8525   43.8223 H   0  0  0  0  0  0  0  0  0  0  0  0
   59.9593   28.9917   48.7215 H   0  0  0  0  0  0  0  0  0  0  0  0
   61.7685   29.3729   48.2219 H   0  0  0  0  0  0  0  0  0  0  0  0
   59.3439   34.3243   43.6219 H   0  0  0  0  0  0  0  0  0  0  0  0
   60.3914   35.7855   45.3342 H   0  0  0  0  0  0  0  0  0  0  0  0
   59.8380   35.5820   47.7272 H   0  0  0  0  0  0  0  0  0  0  0  0
   58.1929   33.8860   48.4714 H   0  0  0  0  0  0  0  0  0  0  0  0
   57.1368   32.4195   46.7826 H   0  0  0  0  0  0  0  0  0  0  0  0
   58.8990   31.1140   46.2700 H   0  0  0  0  0  0  0  0  0  0  0  0
   58.2083   31.9517   43.4356 H   0  0  0  0  0  0  0  0  0  0  0  0
   56.6871   32.8974   43.6238 H   0  0  0  0  0  0  0  0  0  0  0  0
   58.9442   30.6003   50.0701 H   0  0  0  0  0  0  0  0  0  0  0  0
   58.9116   32.8758   50.9772 H   0  0  0  0  0  0  0  0  0  0  0  0
   60.5708   34.5443   50.2712 H   0  0  0  0  0  0  0  0  0  0  0  0
   62.4235   35.1500   48.9980 H   0  0  0  0  0  0  0  0  0  0  0  0
   64.2003   34.5401   47.3122 H   0  0  0  0  0  0  0  0  0  0  0  0
   64.2524   32.2677   46.3858 H   0  0  0  0  0  0  0  0  0  0  0  0
   62.6067   30.5396   47.0547 H   0  0  0  0  0  0  0  0  0  0  0  0
   59.8090   27.1780   45.7290 H   0  0  0  0  0  0  0  0  0  0  0  0
   57.9990   26.9799   41.9560 H   0  0  0  0  0  0  0  0  0  0  0  0
  1  2  1  0
  2  3  1  0
  3  4  2  0
  4  5  1  0
  5  6  2  0
  6  7  1  0
  7  8  2  0
  8  9  1  0
  9 10  1  0
 10 11  2  0
 11 12  1  0
 12 13  2  0
 13 14  1  0
 14 15  2  0
  7 16  1  0
 16 17  1  0
 17 18  2  0
 18 19  1  0
 19 20  1  0
 20 21  2  0
 21 22  1  0
 22 23  2  0
 23 24  1  0
 24 25  2  0
 25 26  1  0
 26 27  2  0
 27 28  1  0
 28 29  2  0
 17 30  1  0
  4 31  1  0
 31 32  2  0
 32  2  1  0
 30  5  1  0
 15 10  1  0
 29 20  1  0
 29 24  1  0
  1 33  1  0
  1 34  1  0
  1 35  1  0
  3 36  1  0
  6 37  1  0
  9 38  1  0
  9 39  1  0
 11 40  1  0
 12 41  1  0
 13 42  1  0
 14 43  1  0
 15 44  1  0
 16 45  1  0
 19 46  1  0
 19 47  1  0
 21 48  1  0
 22 49  1  0
 23 50  1  0
 25 51  1  0
 26 52  1  0
 27 53  1  0
 28 54  1  0
 30 55  1  0
 31 56  1  0
M  END
>  <smiles>  (44) 
Cn1cc(-c2cc(=NCc3ccccc3)[nH]c(=NCc3cccc4ccccc34)[nH]2)cn1

>  <score_type>  (44) 
oracle

>  <origin>  (44) 
adg

>  <m_score__min__energy>  (44) 
-9.1300000000000008

>  <m_primary>  (44) 
energy

$$$$
44:0
     RDKit          3D

 37 39  0  0  0  0  0  0  0  0999 V2000
   61.3080   28.6690   44.8730 C   0  0  0  0  0  0  0  0  0  0  0  0
   60.3850   28.6940   45.9580 O   0  0  0  0  0  0  0  0  0  0  0  0
   59.0680   28.2050   45.9120 C   0  0  0  0  0  0  0  0  0  0  0  0
   58.7650   26.9060   46.3610 C   0  0  0  0  0  0  0  0  0  0  0  0
   57.4550   26.4090   46.3290 C   0  0  0  0  0  0  0  0  0  0  0  0
   57.1920   25.0360   46.8300 C   0  0  0  0  0  0  0  0  0  0  0  0
   57.2150   24.8190   48.0720 O   0  0  0  0  0  0  0  0  0  0  0  0
   56.8250   23.9280   45.9160 C   0  0  0  0  0  0  0  0  0  0  0  0
   57.8530   23.2080   45.2810 C   0  0  0  0  0  0  0  0  0  0  0  0
   57.5530   22.1900   44.3680 C   0  0  0  0  0  0  0  0  0  0  0  0
   58.5760   21.4800   43.7400 O   0  0  0  0  0  0  0  0  0  0  0  0
   56.2200   21.8850   44.0800 C   0  0  0  0  0  0  0  0  0  0  0  0
   55.9150   20.8780   43.1720 O   0  0  0  0  0  0  0  0  0  0  0  0
   55.1900   22.5890   44.7070 C   0  0  0  0  0  0  0  0  0  0  0  0
   55.4760   23.6050   45.6320 C   0  0  0  0  0  0  0  0  0  0  0  0
   54.3870   24.2550   46.3030 N   0  0  0  0  0  0  0  0  0  0  0  0
   56.4260   27.2130   45.8070 C   0  0  0  0  0  0  0  0  0  0  0  0
   55.1310   26.7070   45.7120 O   0  0  0  0  0  0  0  0  0  0  0  0
   56.7030   28.5190   45.3590 C   0  0  0  0  0  0  0  0  0  0  0  0
   55.6670   29.3270   44.8530 C   0  0  0  0  0  0  0  0  0  0  0  0
   55.9310   30.6190   44.4060 C   0  0  0  0  0  0  0  0  0  0  0  0
   57.2270   31.1260   44.4550 C   0  0  0  0  0  0  0  0  0  0  0  0
   58.2750   30.3460   44.9490 C   0  0  0  0  0  0  0  0  0  0  0  0
   59.5490   30.9040   44.9730 O   0  0  0  0  0  0  0  0  0  0  0  0
   58.0300   29.0270   45.4100 C   0  0  0  0  0  0  0  0  0  0  0  0
   62.3351   28.6412   45.2659 H   0  0  0  0  0  0  0  0  0  0  0  0
   61.1265   27.7754   44.2577 H   0  0  0  0  0  0  0  0  0  0  0  0
   61.1751   29.5711   44.2577 H   0  0  0  0  0  0  0  0  0  0  0  0
   59.5738   26.2671   46.7453 H   0  0  0  0  0  0  0  0  0  0  0  0
   58.9033   23.4472   45.5040 H   0  0  0  0  0  0  0  0  0  0  0  0
   58.3950   20.6090   43.2540 H   0  0  0  0  0  0  0  0  0  0  0  0
   54.1432   22.3447   44.4735 H   0  0  0  0  0  0  0  0  0  0  0  0
   54.3220   25.2930   46.3770 H   0  0  0  0  0  0  0  0  0  0  0  0
   53.6710   23.6930   46.8160 H   0  0  0  0  0  0  0  0  0  0  0  0
   54.6404   28.9343   44.8104 H   0  0  0  0  0  0  0  0  0  0  0  0
   55.1133   31.2411   44.0130 H   0  0  0  0  0  0  0  0  0  0  0  0
   57.4269   32.1485   44.1020 H   0  0  0  0  0  0  0  0  0  0  0  0
  1  2  1  0
  2  3  1  0
  3  4  2  0
  4  5  1  0
  5  6  1  0
  6  7  2  0
  6  8  1  0
  8  9  2  0
  9 10  1  0
 10 11  1  0
 10 12  2  0
 12 13  1  0
 12 14  1  0
 14 15  2  0
 15 16  1  0
  5 17  2  0
 17 18  1  0
 17 19  1  0
 19 20  2  0
 20 21  1  0
 21 22  2  0
 22 23  1  0
 23 24  1  0
 23 25  2  0
 25  3  1  0
 15  8  1  0
 25 19  1  0
  1 26  1  0
  1 27  1  0
  1 28  1  0
  4 29  1  0
  9 30  1  0
 11 31  1  0
 14 32  1  0
 16 33  1  0
 16 34  1  0
 20 35  1  0
 21 36  1  0
 22 37  1  0
M  CHG  3  13  -1  18  -1  24  -1
M  END
>  <UniqueID>  (45) 
40

>  <SMILES>  (45) 
COc1cc(C(=O)c2cc(O)c([O-])cc2N)c([O-])c2cccc([O-])c12

>  <Energy>  (45) 
56.80731648679962

>  <Genealogy>  (45) 
COc1cc(C(=O)c2cc(O)c([O-])cc2N)c([O-])c2cccc([O-])c12 (protonated)
COc1cc(C(=O)c2cc(O)c([O-])cc2N)c([O-])c2cccc([O-])c12 (3D coordinates assigned)
COc1cc(C(=O)c2cc(O)c([O-])cc2N)c([O-])c2cccc([O-])c12 (optimized conformer: 56.80731648679962 kcal/mol)

>  <smiles>  (45) 
COc1cc(C(=O)c2cc(O)c(O)cc2N)c(O)c2cccc(O)c12

>  <score_type>  (45) 
oracle

>  <origin>  (45) 
adg

>  <m_score__min__energy>  (45) 
-11.99

>  <m_primary>  (45) 
energy

$$$$
45:0
     RDKit          3D

 42 44  0  0  0  0  0  0  0  0999 V2000
   56.8910   23.4720   45.9790 C   0  0  0  0  0  0  0  0  0  0  0  0
   56.6140   24.9350   45.9030 C   0  0  0  0  0  0  0  0  0  0  0  0
   57.4960   25.9100   45.4740 C   0  0  0  0  0  0  0  0  0  0  0  0
   56.7640   27.0810   45.6120 C   0  0  0  0  0  0  0  0  0  0  0  0
   57.1370   28.3000   45.3480 N   0  0  0  0  0  0  0  0  0  0  0  0
   56.3410   29.3900   44.8510 C   0  0  0  0  0  0  0  0  0  0  0  0
   55.0830   29.3190   44.8470 O   0  0  0  0  0  0  0  0  0  0  0  0
   57.0060   30.6200   44.3560 C   0  0  0  0  0  0  0  0  0  0  0  0
   57.0580   30.8990   42.9780 C   0  0  0  0  0  0  0  0  0  0  0  0
   57.6810   32.0600   42.5130 C   0  0  0  0  0  0  0  0  0  0  0  0
   58.2570   32.9570   43.4130 C   0  0  0  0  0  0  0  0  0  0  0  0
   58.2130   32.6970   44.7880 C   0  0  0  0  0  0  0  0  0  0  0  0
   58.9370   33.8270   45.9280 S   0  0  0  0  0  0  0  0  0  0  0  0
   59.6480   34.9150   45.1750 O   0  0  0  0  0  0  0  0  0  0  0  0
   57.8690   34.4470   46.7840 O   0  0  0  0  0  0  0  0  0  0  0  0
   60.0730   33.0000   46.9440 N   0  0  0  0  0  0  0  0  0  0  0  0
   59.9070   31.6350   47.3450 C   0  0  0  0  0  0  0  0  0  0  0  0
   60.4370   30.6320   46.5240 C   0  0  0  0  0  0  0  0  0  0  0  0
   60.3120   29.2870   46.8790 C   0  0  0  0  0  0  0  0  0  0  0  0
   59.6470   28.9340   48.0540 C   0  0  0  0  0  0  0  0  0  0  0  0
   59.0900   29.9230   48.8680 C   0  0  0  0  0  0  0  0  0  0  0  0
   59.1930   31.2790   48.5150 C   0  0  0  0  0  0  0  0  0  0  0  0
   58.5330   32.3150   49.3850 C   0  0  0  0  0  0  0  0  0  0  0  0
   57.5950   31.5290   45.2560 C   0  0  0  0  0  0  0  0  0  0  0  0
   55.5430   26.7850   46.0920 N   0  0  0  0  0  0  0  0  0  0  0  0
   55.4810   25.4980   46.2610 O   0  0  0  0  0  0  0  0  0  0  0  0
   56.9493   23.1641   47.0334 H   0  0  0  0  0  0  0  0  0  0  0  0
   56.0816   22.9191   45.4798 H   0  0  0  0  0  0  0  0  0  0  0  0
   57.8465   23.2533   45.4798 H   0  0  0  0  0  0  0  0  0  0  0  0
   58.5272   25.7872   45.1115 H   0  0  0  0  0  0  0  0  0  0  0  0
   56.6049   30.1980   42.2615 H   0  0  0  0  0  0  0  0  0  0  0  0
   57.7174   32.2675   41.4334 H   0  0  0  0  0  0  0  0  0  0  0  0
   58.7463   33.8696   43.0419 H   0  0  0  0  0  0  0  0  0  0  0  0
   60.9553   30.9053   45.5931 H   0  0  0  0  0  0  0  0  0  0  0  0
   60.7378   28.5057   46.2322 H   0  0  0  0  0  0  0  0  0  0  0  0
   59.5613   27.8752   48.3396 H   0  0  0  0  0  0  0  0  0  0  0  0
   58.5666   29.6380   49.7926 H   0  0  0  0  0  0  0  0  0  0  0  0
   58.6943   32.0618   50.4432 H   0  0  0  0  0  0  0  0  0  0  0  0
   58.9687   33.3027   49.1738 H   0  0  0  0  0  0  0  0  0  0  0  0
   57.4537   32.3376   49.1738 H   0  0  0  0  0  0  0  0  0  0  0  0
   57.5699   31.3207   46.3358 H   0  0  0  0  0  0  0  0  0  0  0  0
   54.7690   27.4550   46.3040 H   0  0  0  0  0  0  0  0  0  0  0  0
  1  2  1  0
  2  3  2  0
  3  4  1  0
  4  5  2  3
  5  6  1  0
  6  7  2  0
  6  8  1  0
  8  9  2  0
  9 10  1  0
 10 11  2  0
 11 12  1  0
 12 13  1  0
 13 14  2  0
 13 15  2  0
 13 16  1  0
 16 17  1  0
 17 18  2  0
 18 19  1  0
 19 20  2  0
 20 21  1  0
 21 22  2  0
 22 23  1  0
 12 24  2  0
  4 25  1  0
 25 26  1  0
 26  2  1  0
 24  8  1  0
 22 17  1  0
  1 27  1  0
  1 28  1  0
  1 29  1  0
  3 30  1  0
  9 31  1  0
 10 32  1  0
 11 33  1  0
 18 34  1  0
 19 35  1  0
 20 36  1  0
 21 37  1  0
 23 38  1  0
 23 39  1  0
 23 40  1  0
 24 41  1  0
 25 42  1  0
M  CHG  1  16  -1
M  END
>  <UniqueID>  (46) 
41

>  <SMILES>  (46) 
Cc1cc(=NC(=O)c2cccc(S(=O)(=O)[N-]c3ccccc3C)c2)[nH]o1

>  <Energy>  (46) 
88.82182923400218

>  <Genealogy>  (46) 
Cc1cc(=NC(=O)c2cccc(S(=O)(=O)[N-]c3ccccc3C)c2)[nH]o1 (protonated)
Cc1cc(=NC(=O)c2cccc(S(=O)(=O)[N-]c3ccccc3C)c2)[nH]o1 (3D coordinates assigned)
Cc1cc(=NC(=O)c2cccc(S(=O)(=O)[N-]c3ccccc3C)c2)[nH]o1 (optimized conformer: 88.82182923400218 kcal/mol)

>  <smiles>  (46) 
Cc1cc(=NC(=O)c2cccc(S(=O)(=O)Nc3ccccc3C)c2)[nH]o1

>  <score_type>  (46) 
oracle

>  <origin>  (46) 
adg

>  <m_score__min__energy>  (46) 
-11.039999999999999

>  <m_primary>  (46) 
energy

$$$$
46:0
     RDKit          3D

 63 67  0  0  0  0  0  0  0  0999 V2000
   60.3940   25.9700   46.3430 C   0  0  0  0  0  0  0  0  0  0  0  0
   59.3330   26.9410   45.9010 C   0  0  0  0  0  0  0  0  0  0  0  0
   59.7440   28.1750   45.3640 C   0  0  0  0  0  0  0  0  0  0  0  0
   58.8070   29.1340   44.9790 C   0  0  0  0  0  0  0  0  0  0  0  0
   57.4360   28.8880   45.1270 C   0  0  0  0  0  0  0  0  0  0  0  0
   56.4530   29.9500   44.7900 C   0  0  0  0  0  0  0  0  0  0  0  0
   55.2230   29.6920   44.8800 O   0  0  0  0  0  0  0  0  0  0  0  0
   56.8450   31.2770   44.4000 N   0  0  0  0  0  0  0  0  0  0  0  0
   57.5540   32.2480   45.1880 C   0  0  0  0  0  0  0  0  0  0  0  0
   57.4460   33.6010   44.8490 C   0  0  0  0  0  0  0  0  0  0  0  0
   58.1040   34.5720   45.6050 C   0  0  0  0  0  0  0  0  0  0  0  0
   58.8700   34.2010   46.7120 C   0  0  0  0  0  0  0  0  0  0  0  0
   59.0160   32.8490   47.0590 C   0  0  0  0  0  0  0  0  0  0  0  0
   59.8490   32.5070   48.2800 C   0  0  0  0  0  0  0  0  0  0  0  0
   59.1140   31.7210   49.3400 C   0  0  0  0  0  0  0  0  0  0  0  0
   58.8060   30.4220   49.0830 N   0  0  0  0  0  0  0  0  0  0  0  0
   58.1820   29.6530   49.9760 N   0  0  0  0  0  0  0  0  0  0  0  0
   57.8370   30.1210   51.2020 C   0  0  0  0  0  0  0  0  0  0  0  0
   57.2420   29.3580   52.0110 O   0  0  0  0  0  0  0  0  0  0  0  0
   58.1460   31.4450   51.5540 C   0  0  0  0  0  0  0  0  0  0  0  0
   58.7750   32.2700   50.5970 C   0  0  0  0  0  0  0  0  0  0  0  0
   59.1180   33.6270   50.9460 N   0  0  0  0  0  0  0  0  0  0  0  0
   58.6050   34.2450   52.1670 C   0  0  0  0  0  0  0  0  0  0  0  0
   58.5990   33.2210   53.3030 C   0  0  0  0  0  0  0  0  0  0  0  0
   57.7560   31.9990   52.9120 C   0  0  0  0  0  0  0  0  0  0  0  0
   58.3800   31.8730   46.2620 C   0  0  0  0  0  0  0  0  0  0  0  0
   57.0170   27.6380   45.6090 C   0  0  0  0  0  0  0  0  0  0  0  0
   57.9430   26.6600   46.0090 C   0  0  0  0  0  0  0  0  0  0  0  0
   57.3000   25.1760   46.7540 S   0  0  0  0  0  0  0  0  0  0  0  0
   55.8090   25.1440   46.5650 O   0  0  0  0  0  0  0  0  0  0  0  0
   57.5830   25.1400   48.2310 O   0  0  0  0  0  0  0  0  0  0  0  0
   58.0540   23.7620   46.0740 N   0  0  0  0  0  0  0  0  0  0  0  0
   57.5910   23.0060   44.9460 C   0  0  0  0  0  0  0  0  0  0  0  0
   57.6460   21.6060   45.0200 C   0  0  0  0  0  0  0  0  0  0  0  0
   57.2050   20.8190   43.9500 C   0  0  0  0  0  0  0  0  0  0  0  0
   56.6840   21.4240   42.8060 C   0  0  0  0  0  0  0  0  0  0  0  0
   56.5860   22.8150   42.7370 C   0  0  0  0  0  0  0  0  0  0  0  0
   57.0270   23.6140   43.8050 C   0  0  0  0  0  0  0  0  0  0  0  0
   56.8660   24.9960   43.7400 O   0  0  0  0  0  0  0  0  0  0  0  0
   60.4278   25.9391   47.4420 H   0  0  0  0  0  0  0  0  0  0  0  0
   60.1586   24.9680   45.9550 H   0  0  0  0  0  0  0  0  0  0  0  0
   61.3713   26.2931   45.9550 H   0  0  0  0  0  0  0  0  0  0  0  0
   60.8172   28.3860   45.2464 H   0  0  0  0  0  0  0  0  0  0  0  0
   59.1473   30.0907   44.5560 H   0  0  0  0  0  0  0  0  0  0  0  0
   56.8392   33.9010   43.9819 H   0  0  0  0  0  0  0  0  0  0  0  0
   58.0190   35.6331   45.3280 H   0  0  0  0  0  0  0  0  0  0  0  0
   59.3635   34.9755   47.3176 H   0  0  0  0  0  0  0  0  0  0  0  0
   60.7143   31.9132   47.9502 H   0  0  0  0  0  0  0  0  0  0  0  0
   60.1345   33.4637   48.7418 H   0  0  0  0  0  0  0  0  0  0  0  0
   59.8030   34.1740   50.3750 H   0  0  0  0  0  0  0  0  0  0  0  0
   59.2471   35.0941   52.4441 H   0  0  0  0  0  0  0  0  0  0  0  0
   57.5783   34.5985   51.9914 H   0  0  0  0  0  0  0  0  0  0  0  0
   59.6309   32.8998   53.5079 H   0  0  0  0  0  0  0  0  0  0  0  0
   58.1641   33.6842   54.2009 H   0  0  0  0  0  0  0  0  0  0  0  0
   57.8979   31.2137   53.6691 H   0  0  0  0  0  0  0  0  0  0  0  0
   56.7044   32.3172   52.8578 H   0  0  0  0  0  0  0  0  0  0  0  0
   58.5324   30.8064   46.4838 H   0  0  0  0  0  0  0  0  0  0  0  0
   55.9409   27.4195   45.6749 H   0  0  0  0  0  0  0  0  0  0  0  0
   58.0391   21.1228   45.9267 H   0  0  0  0  0  0  0  0  0  0  0  0
   57.2692   19.7226   44.0111 H   0  0  0  0  0  0  0  0  0  0  0  0
   56.3508   20.8058   41.9593 H   0  0  0  0  0  0  0  0  0  0  0  0
   56.1605   23.2887   41.8400 H   0  0  0  0  0  0  0  0  0  0  0  0
   56.3940   25.5110   44.4760 H   0  0  0  0  0  0  0  0  0  0  0  0
  1  2  1  0
  2  3  2  0
  3  4  1  0
  4  5  2  0
  5  6  1  0
  6  7  2  0
  6  8  1  0
  8  9  1  0
  9 10  2  0
 10 11  1  0
 11 12  2  0
 12 13  1  0
 13 14  1  0
 14 15  1  0
 15 16  2  0
 16 17  1  0
 17 18  1  0
 18 19  2  0
 18 20  1  0
 20 21  2  0
 21 22  1  0
 22 23  1  0
 23 24  1  0
 24 25  1  0
 13 26  2  0
  5 27  1  0
 27 28  2  0
 28 29  1  0
 29 30  2  0
 29 31  2  0
 29 32  1  0
 32 33  1  0
 33 34  2  0
 34 35  1  0
 35 36  2  0
 36 37  1  0
 37 38  2  0
 38 39  1  0
 28  2  1  0
 38 33  1  0
 26  9  1  0
 21 15  1  0
 25 20  1  0
  1 40  1  0
  1 41  1  0
  1 42  1  0
  3 43  1  0
  4 44  1  0
 10 45  1  0
 11 46  1  0
 12 47  1  0
 14 48  1  0
 14 49  1  0
 22 50  1  0
 23 51  1  0
 23 52  1  0
 24 53  1  0
 24 54  1  0
 25 55  1  0
 25 56  1  0
 26 57  1  0
 27 58  1  0
 34 59  1  0
 35 60  1  0
 36 61  1  0
 37 62  1  0
 39 63  1  0
M  CHG  3   8  -1  17  -1  32  -1
M  END
>  <UniqueID>  (47) 
42

>  <SMILES>  (47) 
Cc1ccc(C(=O)[N-]c2cccc(Cc3n[n-]c(=O)c4c3NCCC4)c2)cc1S(=O)(=O)[N-]c1ccccc1O

>  <Energy>  (47) 
85.24148430626666

>  <Genealogy>  (47) 
Cc1ccc(C(=O)[N-]c2cccc(Cc3n[n-]c(=O)c4c3NCCC4)c2)cc1S(=O)(=O)[N-]c1ccccc1O (protonated)
Cc1ccc(C(=O)[N-]c2cccc(Cc3n[n-]c(=O)c4c3NCCC4)c2)cc1S(=O)(=O)[N-]c1ccccc1O (3D coordinates assigned)
Cc1ccc(C(=O)[N-]c2cccc(Cc3n[n-]c(=O)c4c3NCCC4)c2)cc1S(=O)(=O)[N-]c1ccccc1O (nonaromatic ring conformer: 85.24148430626666 kcal/mol)

>  <smiles>  (47) 
Cc1ccc(C(=O)Nc2cccc(Cc3n[nH]c(=O)c4c3NCCC4)c2)cc1S(=O)(=O)Nc1ccccc1O

>  <score_type>  (47) 
oracle

>  <origin>  (47) 
adg

>  <m_score__min__energy>  (47) 
-15.779999999999999

>  <m_primary>  (47) 
energy

$$$$
47:0
     RDKit          3D

 50 53  0  0  1  0  0  0  0  0999 V2000
   56.6820   30.2830   44.4470 C   0  0  0  0  0  0  0  0  0  0  0  0
   57.5710   30.2780   45.5300 O   0  0  0  0  0  0  0  0  0  0  0  0
   58.3780   29.2230   45.7920 C   0  0  0  0  0  0  0  0  0  0  0  0
   57.8940   27.9410   45.5020 C   0  0  0  0  0  0  0  0  0  0  0  0
   58.6450   26.8130   45.7370 C   0  0  0  0  0  0  0  0  0  0  0  0
   59.8960   26.9870   46.2720 C   0  0  0  0  0  0  0  0  0  0  0  0
   60.3620   28.2330   46.5520 C   0  0  0  0  0  0  0  0  0  0  0  0
   59.6040   29.4050   46.3170 C   0  0  0  0  0  0  0  0  0  0  0  0
   60.2880   30.6540   46.7040 C   0  0  0  0  0  0  0  0  0  0  0  0
   59.9290   31.2060   48.0090 C   0  0  0  0  0  0  0  0  0  0  0  0
   59.0770   30.3990   48.7840 C   0  0  0  0  0  0  0  0  0  0  0  0
   58.5460   30.8000   49.9810 C   0  0  0  0  0  0  0  0  0  0  0  0
   57.7390   30.0390   50.7100 O   0  0  0  0  0  0  0  0  0  0  0  0
   57.2450   30.4590   51.8540 C   0  0  0  0  0  0  0  0  0  0  0  0
   56.4680   29.7150   52.5460 O   0  0  0  0  0  0  0  0  0  0  0  0
   57.5240   31.7070   52.3790 C   0  0  0  0  0  0  0  0  0  0  0  0
   58.3650   32.5290   51.6400 C   0  0  0  0  0  0  0  0  0  0  0  0
   58.8590   32.0500   50.4480 C   0  0  0  0  0  0  0  0  0  0  0  0
   59.6910   32.8300   49.6910 C   0  0  0  0  0  0  0  0  0  0  0  0
   60.2410   32.4540   48.4830 C   0  0  0  0  0  0  0  0  0  0  0  0
   61.3620   33.5160   47.7130 S   0  0  0  0  0  0  0  0  0  0  0  0
   61.9380   34.5260   48.7150 O   0  0  0  0  0  0  0  0  0  0  0  0
   62.4610   32.8230   46.9990 O   0  0  0  0  0  0  0  0  0  0  0  0
   60.4920   34.5360   46.5710 N   0  0  0  0  0  0  0  0  0  0  0  0
   59.4300   34.1280   45.9810 C   0  0  0  0  0  0  0  0  0  0  0  0
   58.2490   34.2110   46.7290 C   0  0  0  0  0  0  0  0  0  0  0  0
   57.0510   33.7870   46.1630 C   0  0  0  0  0  0  0  0  0  0  0  0
   57.1070   33.3090   44.9020 N   0  0  0  0  0  0  0  0  0  0  0  0
   58.2670   33.2380   44.2000 C   0  0  0  0  0  0  0  0  0  0  0  0
   58.1580   32.6840   42.8220 C   0  0  0  0  0  0  0  0  0  0  0  0
   59.4410   33.6420   44.7230 N   0  0  0  0  0  0  0  0  0  0  0  0
   55.6478   30.2888   44.8216 H   0  0  0  0  0  0  0  0  0  0  0  0
   56.8552   31.1802   43.8346 H   0  0  0  0  0  0  0  0  0  0  0  0
   56.8451   29.3839   43.8346 H   0  0  0  0  0  0  0  0  0  0  0  0
   56.8861   27.8335   45.0748 H   0  0  0  0  0  0  0  0  0  0  0  0
   58.2574   25.8101   45.5049 H   0  0  0  0  0  0  0  0  0  0  0  0
   60.5280   26.1102   46.4764 H   0  0  0  0  0  0  0  0  0  0  0  0
   61.3706   28.3347   46.9792 H   0  0  0  0  0  0  0  0  0  0  0  0
   61.3702   30.4570   46.7086 H   0  0  0  0  0  0  0  0  0  0  0  0
   59.9691   31.4060   45.9672 H   0  0  0  0  0  0  0  0  0  0  0  0
   58.8245   29.3958   48.4101 H   0  0  0  0  0  0  0  0  0  0  0  0
   57.0989   32.0345   53.3392 H   0  0  0  0  0  0  0  0  0  0  0  0
   58.6290   33.5352   51.9976 H   0  0  0  0  0  0  0  0  0  0  0  0
   59.9394   33.8307   50.0743 H   0  0  0  0  0  0  0  0  0  0  0  0
   58.2684   34.6078   47.7547 H   0  0  0  0  0  0  0  0  0  0  0  0
   56.1023   33.8389   46.7173 H   0  0  0  0  0  0  0  0  0  0  0  0
   56.1860   32.9950   44.5030 H   0  0  0  0  0  0  0  0  0  0  0  0
   57.9459   31.6060   42.8759 H   0  0  0  0  0  0  0  0  0  0  0  0
   57.3425   33.1918   42.2861 H   0  0  0  0  0  0  0  0  0  0  0  0
   59.1050   32.8450   42.2861 H   0  0  0  0  0  0  0  0  0  0  0  0
  1  2  1  0
  2  3  1  0
  3  4  2  0
  4  5  1  0
  5  6  2  0
  6  7  1  0
  7  8  2  0
  8  9  1  0
  9 10  1  0
 10 11  2  0
 11 12  1  0
 12 13  1  0
 13 14  1  0
 14 15  2  0
 14 16  1  0
 16 17  2  0
 17 18  1  0
 18 19  1  0
 19 20  2  0
 20 21  1  0
 21 22  2  0
 21 23  2  0
 21 24  1  0
 24 25  2  0
 25 26  1  0
 26 27  2  0
 27 28  1  0
 28 29  1  0
 29 30  1  0
 29 31  2  0
  8  3  1  0
 20 10  1  0
 31 25  1  0
 18 12  2  0
  1 32  1  0
  1 33  1  0
  1 34  1  0
  4 35  1  0
  5 36  1  0
  6 37  1  0
  7 38  1  0
  9 39  1  0
  9 40  1  0
 11 41  1  0
 16 42  1  0
 17 43  1  0
 19 44  1  0
 26 45  1  0
 27 46  1  0
 28 47  1  0
 30 48  1  0
 30 49  1  0
 30 50  1  0
M  END
>  <smiles>  (48) 
COc1ccccc1Cc1cc2oc(=O)ccc2cc1S(=O)(=O)N=c1cc[nH]c(C)n1

>  <score_type>  (48) 
oracle

>  <origin>  (48) 
adg

>  <m_score__min__energy>  (48) 
-8.8599999999999994

>  <m_primary>  (48) 
energy

$$$$
48:0
     RDKit          3D

 57 60  0  0  0  0  0  0  0  0999 V2000
   56.3740   31.3230   52.1790 C   0  0  0  0  0  0  0  0  0  0  0  0
   57.7470   31.2640   51.5620 C   0  0  0  0  0  0  0  0  0  0  0  0
   58.1480   30.1040   50.8750 C   0  0  0  0  0  0  0  0  0  0  0  0
   59.4090   30.0270   50.2820 C   0  0  0  0  0  0  0  0  0  0  0  0
   60.2960   31.1020   50.3650 C   0  0  0  0  0  0  0  0  0  0  0  0
   61.5630   30.9990   49.6990 N   0  0  0  0  0  0  0  0  0  0  0  0
   62.2470   32.2210   48.6710 S   0  0  0  0  0  0  0  0  0  0  0  0
   62.6980   33.3810   49.5130 O   0  0  0  0  0  0  0  0  0  0  0  0
   63.4330   31.6560   47.9450 O   0  0  0  0  0  0  0  0  0  0  0  0
   61.0430   32.7280   47.4900 C   0  0  0  0  0  0  0  0  0  0  0  0
   61.2530   33.8970   46.7470 C   0  0  0  0  0  0  0  0  0  0  0  0
   60.3740   34.2450   45.7180 C   0  0  0  0  0  0  0  0  0  0  0  0
   59.2910   33.4160   45.4100 C   0  0  0  0  0  0  0  0  0  0  0  0
   58.4800   33.7170   44.3680 N   0  0  0  0  0  0  0  0  0  0  0  0
   57.4520   32.9030   44.0160 C   0  0  0  0  0  0  0  0  0  0  0  0
   57.2080   31.7510   44.7100 N   0  0  0  0  0  0  0  0  0  0  0  0
   56.1480   30.8380   44.2460 C   0  0  0  0  0  0  0  0  0  0  0  0
   56.5990   29.4110   44.3800 C   0  0  0  0  0  0  0  0  0  0  0  0
   55.9800   28.6360   45.1550 O   0  0  0  0  0  0  0  0  0  0  0  0
   57.7420   28.9440   43.6480 N   0  0  0  0  0  0  0  0  0  0  0  0
   58.3180   27.6180   43.8530 C   0  0  0  0  0  0  0  0  0  0  0  0
   58.8770   27.5090   45.2420 C   0  0  0  0  0  0  0  0  0  0  0  0
   58.3200   26.5980   46.1530 C   0  0  0  0  0  0  0  0  0  0  0  0
   58.8150   26.5170   47.4580 C   0  0  0  0  0  0  0  0  0  0  0  0
   59.8590   27.3540   47.8680 C   0  0  0  0  0  0  0  0  0  0  0  0
   60.3320   27.2790   49.1370 F   0  0  0  0  0  0  0  0  0  0  0  0
   60.4110   28.2710   46.9690 C   0  0  0  0  0  0  0  0  0  0  0  0
   59.9210   28.3510   45.6610 C   0  0  0  0  0  0  0  0  0  0  0  0
   57.9850   31.4230   45.7920 C   0  0  0  0  0  0  0  0  0  0  0  0
   57.7480   30.3690   46.4470 O   0  0  0  0  0  0  0  0  0  0  0  0
   59.0600   32.2490   46.1610 C   0  0  0  0  0  0  0  0  0  0  0  0
   59.9310   31.9200   47.2150 C   0  0  0  0  0  0  0  0  0  0  0  0
   59.9190   32.2500   51.0850 C   0  0  0  0  0  0  0  0  0  0  0  0
   58.6470   32.3480   51.6740 C   0  0  0  0  0  0  0  0  0  0  0  0
   58.2610   33.6170   52.3930 C   0  0  0  0  0  0  0  0  0  0  0  0
   56.4642   31.3191   53.2753 H   0  0  0  0  0  0  0  0  0  0  0  0
   55.8662   32.2438   51.8561 H   0  0  0  0  0  0  0  0  0  0  0  0
   55.7891   30.4492   51.8561 H   0  0  0  0  0  0  0  0  0  0  0  0
   57.4603   29.2484   50.8044 H   0  0  0  0  0  0  0  0  0  0  0  0
   59.7059   29.1136   49.7458 H   0  0  0  0  0  0  0  0  0  0  0  0
   62.1133   34.5435   46.9746 H   0  0  0  0  0  0  0  0  0  0  0  0
   60.5344   35.1728   45.1493 H   0  0  0  0  0  0  0  0  0  0  0  0
   56.8098   33.1730   43.1647 H   0  0  0  0  0  0  0  0  0  0  0  0
   55.2438   30.9921   44.8532 H   0  0  0  0  0  0  0  0  0  0  0  0
   55.9297   31.0483   43.1886 H   0  0  0  0  0  0  0  0  0  0  0  0
   58.2230   29.5940   42.9880 H   0  0  0  0  0  0  0  0  0  0  0  0
   57.5367   26.8562   43.7142 H   0  0  0  0  0  0  0  0  0  0  0  0
   59.1274   27.4600   43.1251 H   0  0  0  0  0  0  0  0  0  0  0  0
   57.4916   25.9459   45.8393 H   0  0  0  0  0  0  0  0  0  0  0  0
   58.3826   25.7933   48.1646 H   0  0  0  0  0  0  0  0  0  0  0  0
   61.2311   28.9301   47.2901 H   0  0  0  0  0  0  0  0  0  0  0  0
   60.3551   29.0765   44.9573 H   0  0  0  0  0  0  0  0  0  0  0  0
   59.7390   31.0255   47.8257 H   0  0  0  0  0  0  0  0  0  0  0  0
   60.6300   33.0829   51.1885 H   0  0  0  0  0  0  0  0  0  0  0  0
   58.3110   33.4526   53.4795 H   0  0  0  0  0  0  0  0  0  0  0  0
   58.9546   34.4232   52.1119 H   0  0  0  0  0  0  0  0  0  0  0  0
   57.2360   33.9005   52.1119 H   0  0  0  0  0  0  0  0  0  0  0  0
  1  2  1  0
  2  3  2  0
  3  4  1  0
  4  5  2  0
  5  6  1  0
  6  7  1  0
  7  8  2  0
  7  9  2  0
  7 10  1  0
 10 11  2  0
 11 12  1  0
 12 13  2  0
 13 14  1  0
 14 15  2  0
 15 16  1  0
 16 17  1  0
 17 18  1  0
 18 19  2  0
 18 20  1  0
 20 21  1  0
 21 22  1  0
 22 23  2  0
 23 24  1  0
 24 25  2  0
 25 26  1  0
 25 27  1  0
 27 28  2  0
 16 29  1  0
 29 30  2  0
 29 31  1  0
 31 32  2  0
  5 33  1  0
 33 34  2  0
 34 35  1  0
 34  2  1  0
 32 10  1  0
 31 13  1  0
 28 22  1  0
  1 36  1  0
  1 37  1  0
  1 38  1  0
  3 39  1  0
  4 40  1  0
 11 41  1  0
 12 42  1  0
 15 43  1  0
 17 44  1  0
 17 45  1  0
 20 46  1  0
 21 47  1  0
 21 48  1  0
 23 49  1  0
 24 50  1  0
 27 51  1  0
 28 52  1  0
 32 53  1  0
 33 54  1  0
 35 55  1  0
 35 56  1  0
 35 57  1  0
M  CHG  1   6  -1
M  END
>  <UniqueID>  (49) 
43

>  <SMILES>  (49) 
Cc1ccc([N-]S(=O)(=O)c2ccc3ncn(CC(=O)NCc4ccc(F)cc4)c(=O)c3c2)cc1C

>  <Energy>  (49) 
66.8772425172873

>  <Genealogy>  (49) 
Cc1ccc([N-]S(=O)(=O)c2ccc3ncn(CC(=O)NCc4ccc(F)cc4)c(=O)c3c2)cc1C (protonated)
Cc1ccc([N-]S(=O)(=O)c2ccc3ncn(CC(=O)NCc4ccc(F)cc4)c(=O)c3c2)cc1C (3D coordinates assigned)
Cc1ccc([N-]S(=O)(=O)c2ccc3ncn(CC(=O)NCc4ccc(F)cc4)c(=O)c3c2)cc1C (optimized conformer: 66.8772425172873 kcal/mol)

>  <smiles>  (49) 
Cc1ccc(NS(=O)(=O)c2ccc3ncn(CC(=O)NCc4ccc(F)cc4)c(=O)c3c2)cc1C

>  <score_type>  (49) 
oracle

>  <origin>  (49) 
adg

>  <m_score__min__energy>  (49) 
-10.289999999999999

>  <m_primary>  (49) 
energy

$$$$
49:0
     RDKit          3D

 24 25  0  0  0  0  0  0  0  0999 V2000
   51.6729   29.5850   50.7459 H   0  0  0  0  0  0  0  0  0  0  0  0
   52.1440   30.0620   51.6180 C   0  0  0  0  0  0  0  0  0  0  0  0
   53.2760   29.5210   52.0900 C   0  0  0  0  0  0  0  0  0  0  0  0
   53.6937   28.6517   51.5610 H   0  0  0  0  0  0  0  0  0  0  0  0
   54.0090   30.0320   53.3000 C   0  0  0  0  0  0  0  0  0  0  0  0
   53.7743   29.3910   54.1625 H   0  0  0  0  0  0  0  0  0  0  0  0
   53.6907   31.0662   53.4975 H   0  0  0  0  0  0  0  0  0  0  0  0
   55.4870   30.0180   53.0640 C   0  0  0  0  0  0  0  0  0  0  0  0
   56.0550   29.7950   51.9020 O   0  0  0  0  0  0  0  0  0  0  0  0
   57.3490   29.8940   52.1090 C   0  0  0  0  0  0  0  0  0  0  0  0
   58.2140   29.7350   51.2090 O   0  0  0  0  0  0  0  0  0  0  0  0
   57.6410   30.1790   53.3580 O   0  0  0  0  0  0  0  0  0  0  0  0
   56.4900   30.2680   53.9830 C   0  0  0  0  0  0  0  0  0  0  0  0
   56.3320   30.5790   55.4350 C   0  0  0  0  0  0  0  0  0  0  0  0
   56.7499   29.7563   56.0338 H   0  0  0  0  0  0  0  0  0  0  0  0
   56.8656   31.5117   55.6704 H   0  0  0  0  0  0  0  0  0  0  0  0
   55.2641   30.6981   55.6704 H   0  0  0  0  0  0  0  0  0  0  0  0
   51.4880   31.2510   52.1870 C   0  0  0  0  0  0  0  0  0  0  0  0
   51.1840   31.3700   53.4920 N   0  0  0  0  0  0  0  0  0  0  0  0
   50.5430   32.5570   53.5570 C   0  0  0  0  0  0  0  0  0  0  0  0
   50.1060   33.0340   54.6370 O   0  0  0  0  0  0  0  0  0  0  0  0
   50.3990   33.1900   52.3730 N   0  0  0  0  0  0  0  0  0  0  0  0
   50.9910   32.3450   51.5130 C   0  0  0  0  0  0  0  0  0  0  0  0
   51.0250   32.5480   50.1410 O   0  0  0  0  0  0  0  0  0  0  0  0
  1  2  1  0
  2  3  2  0
  3  4  1  0
  3  5  1  0
  5  6  1  0
  5  7  1  0
  5  8  1  0
  8  9  1  0
  9 10  1  0
 10 11  2  0
 10 12  1  0
 12 13  1  0
 13 14  1  0
 14 15  1  0
 14 16  1  0
 14 17  1  0
  2 18  1  0
 18 19  1  0
 19 20  1  0
 20 21  2  0
 20 22  1  0
 22 23  1  0
 23 24  1  0
 13  8  2  0
 23 18  2  0
M  CHG  3  19  -1  22  -1  24  -1
M  END
>  <UniqueID>  (50) 
44

>  <SMILES>  (50) 
Cc1oc(=O)oc1C/C=C\c1[n-]c(=O)[n-]c1[O-]

>  <Energy>  (50) 
89.42848890149583

>  <Genealogy>  (50) 
Cc1oc(=O)oc1CC=Cc1[n-]c(=O)[n-]c1[O-] (protonated)
Cc1oc(=O)oc1C/C=C\c1[n-]c(=O)[n-]c1[O-] (cis-trans isomerization)
Cc1oc(=O)oc1C/C=C\c1[n-]c(=O)[n-]c1[O-] (3D coordinates assigned)
Cc1oc(=O)oc1C/C=C\c1[n-]c(=O)[n-]c1[O-] (optimized conformer: 89.42848890149583 kcal/mol)

>  <smiles>  (50) 
Cc1oc(=O)oc1CC=Cc1[nH]c(=O)[nH]c1O

>  <score_type>  (50) 
oracle

>  <origin>  (50) 
adg

>  <m_score__min__energy>  (50) 
-14.81

>  <m_primary>  (50) 
energy

$$$$
50:0
     RDKit          3D

 45 47  0  0  1  0  0  0  0  0999 V2000
   59.9920   26.7560   48.1120 C   0  0  0  0  0  0  0  0  0  0  0  0
   59.9990   26.3970   46.2630 S   0  0  0  0  0  0  0  0  0  0  0  0
   61.4820   26.3230   46.3070 O   0  0  0  0  0  0  0  0  0  0  0  0
   59.3040   25.1040   46.3850 O   0  0  0  0  0  0  0  0  0  0  0  0
   59.1420   27.7680   45.7740 C   0  0  0  0  0  0  0  0  0  0  0  0
   58.0540   27.5570   44.8850 C   0  0  0  0  0  0  0  0  0  0  0  0
   57.7640   26.2790   44.3470 N   0  0  0  0  0  0  0  0  0  0  0  0
   57.2650   28.5650   44.4890 N   0  0  0  0  0  0  0  0  0  0  0  0
   57.4370   29.8280   44.8930 C   0  0  0  0  0  0  0  0  0  0  0  0
   56.6580   30.7530   44.4940 N   0  0  0  0  0  0  0  0  0  0  0  0
   57.2160   31.9670   43.9380 C   0  0  0  0  0  0  0  0  0  0  0  0
   57.6710   32.9020   44.9950 C   0  0  0  0  0  0  0  0  0  0  0  0
   58.3580   34.0930   44.8640 C   0  0  0  0  0  0  0  0  0  0  0  0
   58.5380   34.5770   46.1490 C   0  0  0  0  0  0  0  0  0  0  0  0
   57.9530   33.6600   47.0010 C   0  0  0  0  0  0  0  0  0  0  0  0
   57.4470   32.6770   46.2770 O   0  0  0  0  0  0  0  0  0  0  0  0
   58.4560   30.0700   45.7270 N   0  0  0  0  0  0  0  0  0  0  0  0
   59.2960   29.0750   46.1600 C   0  0  0  0  0  0  0  0  0  0  0  0
   60.3400   29.5290   46.7370 N   0  0  0  0  0  0  0  0  0  0  0  0
   60.2650   30.7090   47.5210 C   0  0  0  0  0  0  0  0  0  0  0  0
   61.3180   31.7250   47.3990 C   0  0  0  0  0  0  0  0  0  0  0  0
   62.5580   31.4230   47.9500 C   0  0  0  0  0  0  0  0  0  0  0  0
   63.6410   32.2710   47.8680 C   0  0  0  0  0  0  0  0  0  0  0  0
   63.5560   33.4860   47.2230 C   0  0  0  0  0  0  0  0  0  0  0  0
   62.3350   33.8080   46.6660 C   0  0  0  0  0  0  0  0  0  0  0  0
   61.2380   32.9320   46.7590 C   0  0  0  0  0  0  0  0  0  0  0  0
   60.0105   25.8080   48.6696 H   0  0  0  0  0  0  0  0  0  0  0  0
   60.8787   27.3523   48.3731 H   0  0  0  0  0  0  0  0  0  0  0  0
   59.0827   27.3173   48.3731 H   0  0  0  0  0  0  0  0  0  0  0  0
   58.2280   25.3950   44.5970 H   0  0  0  0  0  0  0  0  0  0  0  0
   57.0050   26.2030   43.6100 H   0  0  0  0  0  0  0  0  0  0  0  0
   56.4640   28.3910   43.8320 H   0  0  0  0  0  0  0  0  0  0  0  0
   58.0742   31.7049   43.3018 H   0  0  0  0  0  0  0  0  0  0  0  0
   56.4287   32.4682   43.3558 H   0  0  0  0  0  0  0  0  0  0  0  0
   58.6944   34.5624   43.9278 H   0  0  0  0  0  0  0  0  0  0  0  0
   59.0471   35.5091   46.4353 H   0  0  0  0  0  0  0  0  0  0  0  0
   57.9148   33.7355   48.0977 H   0  0  0  0  0  0  0  0  0  0  0  0
   58.5760   31.0630   46.0330 H   0  0  0  0  0  0  0  0  0  0  0  0
   59.3143   31.2013   47.2684 H   0  0  0  0  0  0  0  0  0  0  0  0
   60.3773   30.3423   48.5520 H   0  0  0  0  0  0  0  0  0  0  0  0
   62.6801   30.4641   48.4750 H   0  0  0  0  0  0  0  0  0  0  0  0
   64.5945   31.9716   48.3275 H   0  0  0  0  0  0  0  0  0  0  0  0
   64.4185   34.1654   47.1555 H   0  0  0  0  0  0  0  0  0  0  0  0
   62.2174   34.7668   46.1399 H   0  0  0  0  0  0  0  0  0  0  0  0
   60.2825   33.2276   46.3012 H   0  0  0  0  0  0  0  0  0  0  0  0
  1  2  1  0
  2  3  2  0
  2  4  2  0
  2  5  1  0
  5  6  2  0
  6  7  1  0
  6  8  1  0
  8  9  1  0
  9 10  2  0
 10 11  1  0
 11 12  1  0
 12 13  2  0
 13 14  1  0
 14 15  2  0
 15 16  1  0
  9 17  1  0
 17 18  1  0
 18 19  2  0
 19 20  1  0
 20 21  1  0
 21 22  2  0
 22 23  1  0
 23 24  2  0
 24 25  1  0
 25 26  2  0
 18  5  1  0
 26 21  1  0
 16 12  1  0
  1 27  1  0
  1 28  1  0
  1 29  1  0
  7 30  1  0
  7 31  1  0
  8 32  1  0
 11 33  1  0
 11 34  1  0
 13 35  1  0
 14 36  1  0
 15 37  1  0
 17 38  1  0
 20 39  1  0
 20 40  1  0
 22 41  1  0
 23 42  1  0
 24 43  1  0
 25 44  1  0
 26 45  1  0
M  END
>  <smiles>  (51) 
CS(=O)(=O)c1c(N)[nH]c(=NCc2ccco2)[nH]c1=NCc1ccccc1

>  <score_type>  (51) 
oracle

>  <origin>  (51) 
adg

>  <m_score__min__energy>  (51) 
-7.8600000000000003

>  <m_primary>  (51) 
energy

$$$$
51:0
     RDKit          3D

 35 37  0  0  1  0  0  0  0  0999 V2000
   55.4370   26.2810   46.0910 O   0  0  0  0  0  0  0  0  0  0  0  0
   56.5530   25.7660   45.8540 C   0  0  0  0  0  0  0  0  0  0  0  0
   56.9500   24.3880   46.0810 C   0  0  0  0  0  0  0  0  0  0  0  0
   57.9210   23.7800   45.1440 C   0  0  0  0  0  0  0  0  0  0  0  0
   57.4020   22.8110   44.2200 N   0  0  0  0  0  0  0  0  0  0  0  0
   57.7710   21.5440   43.9670 C   0  0  0  0  0  0  0  0  0  0  0  0
   56.9690   20.9920   42.9910 C   0  0  0  0  0  0  0  0  0  0  0  0
   56.0940   21.9530   42.6460 N   0  0  0  0  0  0  0  0  0  0  0  0
   56.3610   23.0400   43.3880 C   0  0  0  0  0  0  0  0  0  0  0  0
   57.5390   26.6610   45.2930 N   0  0  0  0  0  0  0  0  0  0  0  0
   57.2600   27.9370   45.3200 C   0  0  0  0  0  0  0  0  0  0  0  0
   58.1070   28.9690   45.5140 N   0  0  0  0  0  0  0  0  0  0  0  0
   57.4090   30.1170   45.4670 C   0  0  0  0  0  0  0  0  0  0  0  0
   57.9490   31.4670   45.6290 C   0  0  0  0  0  0  0  0  0  0  0  0
   58.9800   31.7580   46.5030 C   0  0  0  0  0  0  0  0  0  0  0  0
   59.4630   33.0280   46.6330 C   0  0  0  0  0  0  0  0  0  0  0  0
   58.9250   34.0520   45.8870 C   0  0  0  0  0  0  0  0  0  0  0  0
   57.8940   33.8030   45.0030 C   0  0  0  0  0  0  0  0  0  0  0  0
   57.4130   32.4960   44.8830 C   0  0  0  0  0  0  0  0  0  0  0  0
   56.1240   29.7840   45.2420 N   0  0  0  0  0  0  0  0  0  0  0  0
   56.0450   28.4680   45.1560 N   0  0  0  0  0  0  0  0  0  0  0  0
   57.3908   24.3364   47.0875 H   0  0  0  0  0  0  0  0  0  0  0  0
   56.0266   23.8088   45.9330 H   0  0  0  0  0  0  0  0  0  0  0  0
   58.3721   24.5932   44.5565 H   0  0  0  0  0  0  0  0  0  0  0  0
   58.6287   23.2262   45.7784 H   0  0  0  0  0  0  0  0  0  0  0  0
   58.5979   21.0201   44.4688 H   0  0  0  0  0  0  0  0  0  0  0  0
   57.0319   19.9741   42.5789 H   0  0  0  0  0  0  0  0  0  0  0  0
   55.8075   23.9887   43.3272 H   0  0  0  0  0  0  0  0  0  0  0  0
   59.4199   30.9498   47.1057 H   0  0  0  0  0  0  0  0  0  0  0  0
   60.2841   33.2336   47.3355 H   0  0  0  0  0  0  0  0  0  0  0  0
   59.3183   35.0735   45.9956 H   0  0  0  0  0  0  0  0  0  0  0  0
   57.4595   34.6174   44.4047 H   0  0  0  0  0  0  0  0  0  0  0  0
   56.5927   32.2844   44.1814 H   0  0  0  0  0  0  0  0  0  0  0  0
   55.3260   30.4740   45.1540 H   0  0  0  0  0  0  0  0  0  0  0  0
   55.1450   27.9590   44.9840 H   0  0  0  0  0  0  0  0  0  0  0  0
  1  2  2  0
  2  3  1  0
  3  4  1  0
  4  5  1  0
  5  6  1  0
  6  7  2  0
  7  8  1  0
  8  9  2  0
  2 10  1  0
 10 11  2  0
 11 12  1  0
 12 13  2  0
 13 14  1  0
 14 15  2  0
 15 16  1  0
 16 17  2  0
 17 18  1  0
 18 19  2  0
 13 20  1  0
 20 21  1  0
  9  5  1  0
 21 11  1  0
 19 14  1  0
  3 22  1  0
  3 23  1  0
  4 24  1  0
  4 25  1  0
  6 26  1  0
  7 27  1  0
  9 28  1  0
 15 29  1  0
 16 30  1  0
 17 31  1  0
 18 32  1  0
 19 33  1  0
 20 34  1  0
 21 35  1  0
M  END
>  <smiles>  (52) 
O=C(CCn1ccnc1)N=c1nc(-c2ccccc2)[nH][nH]1

>  <score_type>  (52) 
oracle

>  <origin>  (52) 
adg

>  <m_score__min__energy>  (52) 
-7.6900000000000004

>  <m_primary>  (52) 
energy

$$$$
52:0
     RDKit          3D

 65 69  0  0  0  0  0  0  0  0999 V2000
   56.1760   30.1010   44.8820 O   0  0  0  0  0  0  0  0  0  0  0  0
   57.3130   30.1370   44.3760 C   0  0  0  0  0  0  0  0  0  0  0  0
   58.0440   29.0140   43.9870 N   0  0  0  0  0  0  0  0  0  0  0  0
   57.8390   27.6370   44.0150 C   0  0  0  0  0  0  0  0  0  0  0  0
   57.7810   26.7910   45.2060 C   0  0  0  0  0  0  0  0  0  0  0  0
   58.9240   26.8500   46.1050 C   0  0  0  0  0  0  0  0  0  0  0  0
   59.8670   25.9590   46.5110 C   0  0  0  0  0  0  0  0  0  0  0  0
   60.6950   26.4510   47.4280 N   0  0  0  0  0  0  0  0  0  0  0  0
   60.2960   27.7080   47.6480 C   0  0  0  0  0  0  0  0  0  0  0  0
   60.7770   28.6470   48.5170 C   0  0  0  0  0  0  0  0  0  0  0  0
   60.1780   29.8900   48.6100 C   0  0  0  0  0  0  0  0  0  0  0  0
   59.0820   30.2540   47.8460 C   0  0  0  0  0  0  0  0  0  0  0  0
   58.4190   31.4130   47.8560 O   0  0  0  0  0  0  0  0  0  0  0  0
   58.5260   32.5730   48.5560 C   0  0  0  0  0  0  0  0  0  0  0  0
   58.5880   32.5890   50.0110 C   0  0  0  0  0  0  0  0  0  0  0  0
   59.3390   33.5110   50.7600 C   0  0  0  0  0  0  0  0  0  0  0  0
   59.3390   33.4530   52.1290 C   0  0  0  0  0  0  0  0  0  0  0  0
   58.6290   32.5220   52.8630 C   0  0  0  0  0  0  0  0  0  0  0  0
   57.8880   31.6120   52.1250 C   0  0  0  0  0  0  0  0  0  0  0  0
   57.8610   31.6350   50.7350 C   0  0  0  0  0  0  0  0  0  0  0  0
   58.6320   29.2470   46.9670 C   0  0  0  0  0  0  0  0  0  0  0  0
   59.2120   28.0180   46.8660 C   0  0  0  0  0  0  0  0  0  0  0  0
   57.8580   31.5180   44.2090 C   0  0  0  0  0  0  0  0  0  0  0  0
   57.8360   32.2580   43.0630 C   0  0  0  0  0  0  0  0  0  0  0  0
   58.4150   33.4460   43.3480 N   0  0  0  0  0  0  0  0  0  0  0  0
   58.7980   33.4770   44.6300 C   0  0  0  0  0  0  0  0  0  0  0  0
   59.4390   34.5060   45.4240 C   0  0  0  0  0  0  0  0  0  0  0  0
   59.2960   35.7200   45.0280 O   0  0  0  0  0  0  0  0  0  0  0  0
   60.2350   34.3160   46.6270 C   0  0  0  0  0  0  0  0  0  0  0  0
   61.4300   33.4740   46.3810 C   0  0  0  0  0  0  0  0  0  0  0  0
   62.2510   33.3890   47.6420 C   0  0  0  0  0  0  0  0  0  0  0  0
   61.9060   34.2120   48.7160 C   0  0  0  0  0  0  0  0  0  0  0  0
   62.6260   34.1780   49.9030 C   0  0  0  0  0  0  0  0  0  0  0  0
   63.6930   33.2940   49.9680 C   0  0  0  0  0  0  0  0  0  0  0  0
   64.0380   32.4740   48.8990 C   0  0  0  0  0  0  0  0  0  0  0  0
   63.3060   32.5160   47.7070 C   0  0  0  0  0  0  0  0  0  0  0  0
   58.4520   32.2720   45.1720 N   0  0  0  0  0  0  0  0  0  0  0  0
   59.0240   29.3080   43.5530 H   0  0  0  0  0  0  0  0  0  0  0  0
   56.8764   27.4808   43.5061 H   0  0  0  0  0  0  0  0  0  0  0  0
   58.8004   27.3010   43.5993 H   0  0  0  0  0  0  0  0  0  0  0  0
   56.8897   27.0841   45.7801 H   0  0  0  0  0  0  0  0  0  0  0  0
   57.7638   25.7585   44.8270 H   0  0  0  0  0  0  0  0  0  0  0  0
   59.9381   24.9333   46.1200 H   0  0  0  0  0  0  0  0  0  0  0  0
   61.4740   25.9140   47.8480 H   0  0  0  0  0  0  0  0  0  0  0  0
   61.6474   28.4121   49.1473 H   0  0  0  0  0  0  0  0  0  0  0  0
   60.5899   30.6209   49.3214 H   0  0  0  0  0  0  0  0  0  0  0  0
   59.4450   33.0634   48.2024 H   0  0  0  0  0  0  0  0  0  0  0  0
   57.5567   33.0542   48.3589 H   0  0  0  0  0  0  0  0  0  0  0  0
   59.9296   34.2829   50.2448 H   0  0  0  0  0  0  0  0  0  0  0  0
   59.9409   34.1927   52.6772 H   0  0  0  0  0  0  0  0  0  0  0  0
   58.6504   32.5041   53.9626 H   0  0  0  0  0  0  0  0  0  0  0  0
   57.3025   30.8471   52.6562 H   0  0  0  0  0  0  0  0  0  0  0  0
   57.2580   30.8908   50.1941 H   0  0  0  0  0  0  0  0  0  0  0  0
   57.7644   29.4659   46.3272 H   0  0  0  0  0  0  0  0  0  0  0  0
   57.4250   31.9470   42.0912 H   0  0  0  0  0  0  0  0  0  0  0  0
   60.5641   35.2997   46.9929 H   0  0  0  0  0  0  0  0  0  0  0  0
   59.6070   33.8020   47.3696 H   0  0  0  0  0  0  0  0  0  0  0  0
   61.1122   32.4645   46.0813 H   0  0  0  0  0  0  0  0  0  0  0  0
   62.0350   33.9206   45.5782 H   0  0  0  0  0  0  0  0  0  0  0  0
   61.0511   34.8975   48.6204 H   0  0  0  0  0  0  0  0  0  0  0  0
   62.3619   34.8233   50.7538 H   0  0  0  0  0  0  0  0  0  0  0  0
   64.2846   33.2399   50.8938 H   0  0  0  0  0  0  0  0  0  0  0  0
   64.8925   31.7874   48.9911 H   0  0  0  0  0  0  0  0  0  0  0  0
   63.5674   31.8725   46.8540 H   0  0  0  0  0  0  0  0  0  0  0  0
   58.5860   31.9270   46.1360 H   0  0  0  0  0  0  0  0  0  0  0  0
  1  2  2  0
  2  3  1  0
  3  4  1  0
  4  5  1  0
  5  6  1  0
  6  7  2  0
  7  8  1  0
  8  9  1  0
  9 10  2  0
 10 11  1  0
 11 12  2  0
 12 13  1  0
 13 14  1  0
 14 15  1  0
 15 16  2  0
 16 17  1  0
 17 18  2  0
 18 19  1  0
 19 20  2  0
 12 21  1  0
 21 22  2  0
  2 23  1  0
 23 24  2  0
 24 25  1  0
 25 26  2  0
 26 27  1  0
 27 28  2  0
 27 29  1  0
 29 30  1  0
 30 31  1  0
 31 32  2  0
 32 33  1  0
 33 34  2  0
 34 35  1  0
 35 36  2  0
 26 37  1  0
 22  6  1  0
 37 23  1  0
 22  9  1  0
 36 31  1  0
 20 15  1  0
  3 38  1  0
  4 39  1  0
  4 40  1  0
  5 41  1  0
  5 42  1  0
  7 43  1  0
  8 44  1  0
 10 45  1  0
 11 46  1  0
 14 47  1  0
 14 48  1  0
 16 49  1  0
 17 50  1  0
 18 51  1  0
 19 52  1  0
 20 53  1  0
 21 54  1  0
 24 55  1  0
 29 56  1  0
 29 57  1  0
 30 58  1  0
 30 59  1  0
 32 60  1  0
 33 61  1  0
 34 62  1  0
 35 63  1  0
 36 64  1  0
 37 65  1  0
M  END
>  <smiles>  (53) 
O=C(NCCc1c[nH]c2ccc(OCc3ccccc3)cc12)c1cnc(C(=O)CCc2ccccc2)[nH]1

>  <score_type>  (53) 
oracle

>  <origin>  (53) 
adg

>  <m_score__min__energy>  (53) 
-10.66

>  <m_primary>  (53) 
energy

$$$$
53:0
     RDKit          3D

 70 73  0  0  0  0  0  0  0  0999 V2000
   58.1620   29.7250   52.4650 C   0  0  0  0  0  0  0  0  0  0  0  0
   57.8260   29.8810   51.0900 O   0  0  0  0  0  0  0  0  0  0  0  0
   58.7520   30.1620   50.0760 C   0  0  0  0  0  0  0  0  0  0  0  0
   59.9350   29.4180   50.0320 C   0  0  0  0  0  0  0  0  0  0  0  0
   60.8980   29.6740   49.0560 C   0  0  0  0  0  0  0  0  0  0  0  0
   60.7000   30.6900   48.1030 C   0  0  0  0  0  0  0  0  0  0  0  0
   61.6630   30.9930   47.1220 O   0  0  0  0  0  0  0  0  0  0  0  0
   63.0440   31.2660   47.3650 C   0  0  0  0  0  0  0  0  0  0  0  0
   63.3520   32.7440   47.0890 C   0  0  0  0  0  0  0  0  0  0  0  0
   63.9400   33.4690   48.3210 C   0  0  2  0  0  0  0  0  0  0  0  0
   64.3210   32.4680   49.4400 C   0  0  0  0  0  0  0  0  0  0  0  0
   64.2890   33.1430   50.8190 C   0  0  0  0  0  0  0  0  0  0  0  0
   62.9310   33.6450   51.1810 N   0  0  2  0  0  0  0  0  0  0  0  0
   62.2260   32.6620   52.0430 C   0  0  0  0  0  0  0  0  0  0  0  0
   60.8240   33.1120   52.3920 C   0  0  0  0  0  0  0  0  0  0  0  0
   60.5770   33.8080   53.5880 C   0  0  0  0  0  0  0  0  0  0  0  0
   59.2770   34.2010   53.9190 C   0  0  0  0  0  0  0  0  0  0  0  0
   58.2160   33.8990   53.0610 C   0  0  0  0  0  0  0  0  0  0  0  0
   58.4520   33.2010   51.8730 C   0  0  0  0  0  0  0  0  0  0  0  0
   59.7510   32.8060   51.5380 C   0  0  0  0  0  0  0  0  0  0  0  0
   62.1050   34.0140   49.9950 C   0  0  0  0  0  0  0  0  0  0  0  0
   62.9610   34.5530   48.8410 C   0  0  0  0  0  0  0  0  0  0  0  0
   59.5010   31.4340   48.1300 C   0  0  0  0  0  0  0  0  0  0  0  0
   59.2550   32.5120   47.1410 C   0  0  0  0  0  0  0  0  0  0  0  0
   59.8330   33.7740   47.3410 C   0  0  0  0  0  0  0  0  0  0  0  0
   59.6300   34.7960   46.4210 C   0  0  0  0  0  0  0  0  0  0  0  0
   58.8450   34.5780   45.2920 C   0  0  0  0  0  0  0  0  0  0  0  0
   58.2440   33.3240   45.0660 C   0  0  0  0  0  0  0  0  0  0  0  0
   57.4230   33.1110   43.9450 O   0  0  0  0  0  0  0  0  0  0  0  0
   57.7690   32.3080   42.8220 C   0  0  0  0  0  0  0  0  0  0  0  0
   58.4590   32.2740   45.9970 C   0  0  0  0  0  0  0  0  0  0  0  0
   57.8970   30.9900   45.8530 O   0  0  0  0  0  0  0  0  0  0  0  0
   58.5020   29.8640   45.2280 C   0  0  0  0  0  0  0  0  0  0  0  0
   58.5350   31.1640   49.1130 C   0  0  0  0  0  0  0  0  0  0  0  0
   57.3402   30.1065   53.0888 H   0  0  0  0  0  0  0  0  0  0  0  0
   58.3244   28.6594   52.6842 H   0  0  0  0  0  0  0  0  0  0  0  0
   59.0809   30.2886   52.6842 H   0  0  0  0  0  0  0  0  0  0  0  0
   60.1077   28.6240   50.7734 H   0  0  0  0  0  0  0  0  0  0  0  0
   61.8209   29.0760   49.0311 H   0  0  0  0  0  0  0  0  0  0  0  0
   63.2800   31.0361   48.4145 H   0  0  0  0  0  0  0  0  0  0  0  0
   63.6549   30.6424   46.6957 H   0  0  0  0  0  0  0  0  0  0  0  0
   64.0780   32.8046   46.2649 H   0  0  0  0  0  0  0  0  0  0  0  0
   62.4041   33.2394   46.8320 H   0  0  0  0  0  0  0  0  0  0  0  0
   64.8660   33.9721   48.0057 H   0  0  0  0  0  0  0  0  0  0  0  0
   63.6065   31.6316   49.4326 H   0  0  0  0  0  0  0  0  0  0  0  0
   65.3423   32.1053   49.2518 H   0  0  0  0  0  0  0  0  0  0  0  0
   64.6078   32.4119   51.5766 H   0  0  0  0  0  0  0  0  0  0  0  0
   64.9654   34.0096   50.7814 H   0  0  0  0  0  0  0  0  0  0  0  0
   63.0740   34.5140   51.7500 H   0  0  0  0  0  0  0  0  0  0  0  0
   62.1677   31.7012   51.5106 H   0  0  0  0  0  0  0  0  0  0  0  0
   62.7936   32.5656   52.9803 H   0  0  0  0  0  0  0  0  0  0  0  0
   61.4101   34.0444   54.2663 H   0  0  0  0  0  0  0  0  0  0  0  0
   59.0891   34.7479   54.8547 H   0  0  0  0  0  0  0  0  0  0  0  0
   57.1937   34.2110   53.3209 H   0  0  0  0  0  0  0  0  0  0  0  0
   57.6147   32.9621   51.2007 H   0  0  0  0  0  0  0  0  0  0  0  0
   59.9332   32.2545   50.6038 H   0  0  0  0  0  0  0  0  0  0  0  0
   61.5635   33.1215   49.6482 H   0  0  0  0  0  0  0  0  0  0  0  0
   61.4091   34.8091   50.3008 H   0  0  0  0  0  0  0  0  0  0  0  0
   62.3005   34.8652   48.0187 H   0  0  0  0  0  0  0  0  0  0  0  0
   63.5480   35.4071   49.2097 H   0  0  0  0  0  0  0  0  0  0  0  0
   60.4514   33.9564   48.2322 H   0  0  0  0  0  0  0  0  0  0  0  0
   60.0914   35.7809   46.5856 H   0  0  0  0  0  0  0  0  0  0  0  0
   58.6925   35.3931   44.5692 H   0  0  0  0  0  0  0  0  0  0  0  0
   58.1820   31.3496   43.1698 H   0  0  0  0  0  0  0  0  0  0  0  0
   56.8714   32.1215   42.2141 H   0  0  0  0  0  0  0  0  0  0  0  0
   58.5211   32.8323   42.2141 H   0  0  0  0  0  0  0  0  0  0  0  0
   58.8735   29.1725   45.9986 H   0  0  0  0  0  0  0  0  0  0  0  0
   57.7589   29.3494   44.6011 H   0  0  0  0  0  0  0  0  0  0  0  0
   59.3413   30.1996   44.6011 H   0  0  0  0  0  0  0  0  0  0  0  0
   57.5992   31.7420   49.1300 H   0  0  0  0  0  0  0  0  0  0  0  0
  1  2  1  0
  2  3  1  0
  3  4  2  0
  4  5  1  0
  5  6  2  0
  6  7  1  0
  7  8  1  0
  8  9  1  0
  9 10  1  0
 10 11  1  0
 11 12  1  0
 12 13  1  0
 13 14  1  0
 14 15  1  0
 15 16  2  0
 16 17  1  0
 17 18  2  0
 18 19  1  0
 19 20  2  0
 13 21  1  0
 21 22  1  0
  6 23  1  0
 23 24  1  0
 24 25  2  0
 25 26  1  0
 26 27  2  0
 27 28  1  0
 28 29  1  0
 29 30  1  0
 28 31  2  0
 31 32  1  0
 32 33  1  0
 23 34  2  0
 34  3  1  0
 22 10  1  0
 31 24  1  0
 20 15  1  0
  1 35  1  0
  1 36  1  0
  1 37  1  0
  4 38  1  0
  5 39  1  0
  8 40  1  0
  8 41  1  0
  9 42  1  0
  9 43  1  0
 10 44  1  6
 11 45  1  0
 11 46  1  0
 12 47  1  0
 12 48  1  0
 13 49  1  1
 14 50  1  0
 14 51  1  0
 16 52  1  0
 17 53  1  0
 18 54  1  0
 19 55  1  0
 20 56  1  0
 21 57  1  0
 21 58  1  0
 22 59  1  0
 22 60  1  0
 25 61  1  0
 26 62  1  0
 27 63  1  0
 30 64  1  0
 30 65  1  0
 30 66  1  0
 33 67  1  0
 33 68  1  0
 33 69  1  0
 34 70  1  0
M  CHG  1  13   1
M  END
>  <UniqueID>  (54) 
45

>  <SMILES>  (54) 
COc1ccc(OCCC2CC[NH+](Cc3ccccc3)CC2)c(-c2cccc(OC)c2OC)c1

>  <Energy>  (54) 
87.9121627478687

>  <Genealogy>  (54) 
COc1ccc(OCCC2CC[NH+](Cc3ccccc3)CC2)c(-c2cccc(OC)c2OC)c1 (protonated)
COc1ccc(OCCC2CC[NH+](Cc3ccccc3)CC2)c(-c2cccc(OC)c2OC)c1 (3D coordinates assigned)
COc1ccc(OCCC2CC[NH+](Cc3ccccc3)CC2)c(-c2cccc(OC)c2OC)c1 (nonaromatic ring conformer: 87.9121627478687 kcal/mol)

>  <smiles>  (54) 
COc1ccc(OCCC2CCN(Cc3ccccc3)CC2)c(-c2cccc(OC)c2OC)c1

>  <score_type>  (54) 
oracle

>  <origin>  (54) 
adg

>  <m_score__min__energy>  (54) 
-8.2300000000000004

>  <m_primary>  (54) 
energy

$$$$
54:0
     RDKit          3D

 56 59  0  0  0  0  0  0  0  0999 V2000
   54.9250   23.3440   44.8470 C   0  0  0  0  0  0  0  0  0  0  0  0
   55.3250   24.6980   45.3320 C   0  0  0  0  0  0  0  0  0  0  0  0
   54.4470   25.6750   45.6470 N   0  0  0  0  0  0  0  0  0  0  0  0
   55.1450   26.7150   46.0060 O   0  0  0  0  0  0  0  0  0  0  0  0
   56.4310   26.4580   45.9320 C   0  0  0  0  0  0  0  0  0  0  0  0
   57.3770   27.2920   46.2400 N   0  0  0  0  0  0  0  0  0  0  0  0
   58.4020   28.0390   45.0560 S   0  0  0  0  0  0  0  0  0  0  0  0
   59.7960   27.4890   45.1680 O   0  0  0  0  0  0  0  0  0  0  0  0
   57.8600   27.7160   43.6930 O   0  0  0  0  0  0  0  0  0  0  0  0
   58.4360   29.7880   45.2650 C   0  0  0  0  0  0  0  0  0  0  0  0
   58.9570   30.3670   46.4310 C   0  0  0  0  0  0  0  0  0  0  0  0
   58.9660   31.7560   46.5830 C   0  0  0  0  0  0  0  0  0  0  0  0
   58.4800   32.5860   45.5640 C   0  0  0  0  0  0  0  0  0  0  0  0
   58.4970   34.0070   45.7660 N   0  0  0  0  0  0  0  0  0  0  0  0
   59.6340   34.8080   46.1180 C   0  0  0  0  0  0  0  0  0  0  0  0
   59.7330   35.9890   45.6850 O   0  0  0  0  0  0  0  0  0  0  0  0
   60.7170   34.2340   46.9500 C   0  0  0  0  0  0  0  0  0  0  0  0
   61.9580   33.9010   46.3830 C   0  0  0  0  0  0  0  0  0  0  0  0
   62.9620   33.3530   47.1860 C   0  0  0  0  0  0  0  0  0  0  0  0
   62.7370   33.1380   48.5070 N   0  0  0  0  0  0  0  0  0  0  0  0
   61.5450   33.4360   49.0940 C   0  0  0  0  0  0  0  0  0  0  0  0
   61.3660   33.2140   50.5040 N   0  0  0  0  0  0  0  0  0  0  0  0
   60.1190   33.8450   50.9570 C   0  0  0  0  0  0  0  0  0  0  0  0
   59.0690   32.8000   51.2310 C   0  0  0  0  0  0  0  0  0  0  0  0
   59.0840   31.5750   50.5410 C   0  0  0  0  0  0  0  0  0  0  0  0
   58.0850   30.6240   50.7730 C   0  0  0  0  0  0  0  0  0  0  0  0
   57.0600   30.8940   51.6850 C   0  0  0  0  0  0  0  0  0  0  0  0
   57.0300   32.1160   52.3630 C   0  0  0  0  0  0  0  0  0  0  0  0
   58.0270   33.0700   52.1340 C   0  0  0  0  0  0  0  0  0  0  0  0
   60.5170   34.0030   48.3220 C   0  0  0  0  0  0  0  0  0  0  0  0
   57.9440   32.0040   44.4010 C   0  0  0  0  0  0  0  0  0  0  0  0
   57.9270   30.6130   44.2540 C   0  0  0  0  0  0  0  0  0  0  0  0
   56.6180   25.1730   45.4770 C   0  0  0  0  0  0  0  0  0  0  0  0
   57.9080   24.4370   45.2880 C   0  0  0  0  0  0  0  0  0  0  0  0
   54.7313   22.6883   45.7087 H   0  0  0  0  0  0  0  0  0  0  0  0
   54.0131   23.4275   44.2375 H   0  0  0  0  0  0  0  0  0  0  0  0
   55.7358   22.9185   44.2375 H   0  0  0  0  0  0  0  0  0  0  0  0
   59.3600   29.7256   47.2287 H   0  0  0  0  0  0  0  0  0  0  0  0
   59.3575   32.2012   47.5095 H   0  0  0  0  0  0  0  0  0  0  0  0
   62.1390   34.0708   45.3114 H   0  0  0  0  0  0  0  0  0  0  0  0
   63.9368   33.0953   46.7463 H   0  0  0  0  0  0  0  0  0  0  0  0
   61.3390   32.1840   50.6980 H   0  0  0  0  0  0  0  0  0  0  0  0
   62.1780   33.6280   51.0210 H   0  0  0  0  0  0  0  0  0  0  0  0
   60.3144   34.4125   51.8789 H   0  0  0  0  0  0  0  0  0  0  0  0
   59.7536   34.5185   50.1678 H   0  0  0  0  0  0  0  0  0  0  0  0
   59.8841   31.3639   49.8163 H   0  0  0  0  0  0  0  0  0  0  0  0
   58.1057   29.6632   50.2378 H   0  0  0  0  0  0  0  0  0  0  0  0
   56.2766   30.1441   51.8691 H   0  0  0  0  0  0  0  0  0  0  0  0
   56.2211   32.3277   53.0777 H   0  0  0  0  0  0  0  0  0  0  0  0
   57.9952   34.0343   52.6623 H   0  0  0  0  0  0  0  0  0  0  0  0
   59.5571   34.2657   48.7906 H   0  0  0  0  0  0  0  0  0  0  0  0
   57.5370   32.6446   43.6048 H   0  0  0  0  0  0  0  0  0  0  0  0
   57.5116   30.1646   43.3394 H   0  0  0  0  0  0  0  0  0  0  0  0
   58.3376   24.1919   46.2705 H   0  0  0  0  0  0  0  0  0  0  0  0
   57.7220   23.5091   44.7273 H   0  0  0  0  0  0  0  0  0  0  0  0
   58.6122   25.0693   44.7273 H   0  0  0  0  0  0  0  0  0  0  0  0
  1  2  1  0
  2  3  1  0
  3  4  1  0
  4  5  1  0
  5  6  2  3
  6  7  1  0
  7  8  2  0
  7  9  2  0
  7 10  1  0
 10 11  2  0
 11 12  1  0
 12 13  2  0
 13 14  1  0
 14 15  1  0
 15 16  2  0
 15 17  1  0
 17 18  2  0
 18 19  1  0
 19 20  2  0
 20 21  1  0
 21 22  1  0
 22 23  1  0
 23 24  1  0
 24 25  2  0
 25 26  1  0
 26 27  2  0
 27 28  1  0
 28 29  2  0
 21 30  2  0
 13 31  1  0
 31 32  2  0
  5 33  1  0
 33 34  1  0
 33  2  2  0
 32 10  1  0
 30 17  1  0
 29 24  1  0
  1 35  1  0
  1 36  1  0
  1 37  1  0
 11 38  1  0
 12 39  1  0
 18 40  1  0
 19 41  1  0
 22 42  1  0
 22 43  1  0
 23 44  1  0
 23 45  1  0
 25 46  1  0
 26 47  1  0
 27 48  1  0
 28 49  1  0
 29 50  1  0
 30 51  1  0
 31 52  1  0
 32 53  1  0
 34 54  1  0
 34 55  1  0
 34 56  1  0
M  CHG  3   3  -1  14  -1  22   1
M  END
>  <UniqueID>  (55) 
46

>  <SMILES>  (55) 
Cc1[n-]oc(=NS(=O)(=O)c2ccc([N-]C(=O)c3ccnc([NH2+]Cc4ccccc4)c3)cc2)c1C

>  <Energy>  (55) 
98.20661999113105

>  <Genealogy>  (55) 
Cc1[n-]oc(=NS(=O)(=O)c2ccc([N-]C(=O)c3ccnc([NH2+]Cc4ccccc4)c3)cc2)c1C (protonated)
Cc1[n-]oc(=NS(=O)(=O)c2ccc([N-]C(=O)c3ccnc([NH2+]Cc4ccccc4)c3)cc2)c1C (3D coordinates assigned)
Cc1[n-]oc(=NS(=O)(=O)c2ccc([N-]C(=O)c3ccnc([NH2+]Cc4ccccc4)c3)cc2)c1C (optimized conformer: 98.20661999113105 kcal/mol)

>  <smiles>  (55) 
Cc1[nH]oc(=NS(=O)(=O)c2ccc(NC(=O)c3ccnc(NCc4ccccc4)c3)cc2)c1C

>  <score_type>  (55) 
oracle

>  <origin>  (55) 
adg

>  <m_score__min__energy>  (55) 
-12.66

>  <m_primary>  (55) 
energy

$$$$
55:0
     RDKit          3D

 63 67  0  0  0  0  0  0  0  0999 V2000
   59.4630   35.4500   46.3400 O   0  0  0  0  0  0  0  0  0  0  0  0
   58.6920   34.6010   46.8640 C   0  0  0  0  0  0  0  0  0  0  0  0
   57.4500   34.1740   46.1280 C   0  0  0  0  0  0  0  0  0  0  0  0
   57.7720   33.4800   44.7960 C   0  0  0  0  0  0  0  0  0  0  0  0
   58.2660   32.0740   45.0050 C   0  0  0  0  0  0  0  0  0  0  0  0
   59.3150   31.6880   45.8350 C   0  0  0  0  0  0  0  0  0  0  0  0
   59.5370   30.3550   45.7250 N   0  0  0  0  0  0  0  0  0  0  0  0
   60.5210   29.5920   46.4910 C   0  0  0  0  0  0  0  0  0  0  0  0
   60.1860   29.6450   47.9550 C   0  0  0  0  0  0  0  0  0  0  0  0
   60.4520   28.5470   48.7870 C   0  0  0  0  0  0  0  0  0  0  0  0
   60.1220   28.5990   50.1420 C   0  0  0  0  0  0  0  0  0  0  0  0
   59.5070   29.7360   50.6750 C   0  0  0  0  0  0  0  0  0  0  0  0
   59.1940   30.8250   49.8440 C   0  0  0  0  0  0  0  0  0  0  0  0
   58.5780   31.9850   50.3360 O   0  0  0  0  0  0  0  0  0  0  0  0
   58.9890   32.7270   51.4550 C   0  0  0  0  0  0  0  0  0  0  0  0
   58.1880   33.7330   52.0240 C   0  0  0  0  0  0  0  0  0  0  0  0
   58.6430   34.4450   53.1370 C   0  0  0  0  0  0  0  0  0  0  0  0
   59.9050   34.1770   53.6770 C   0  0  0  0  0  0  0  0  0  0  0  0
   60.7170   33.2000   53.0950 C   0  0  0  0  0  0  0  0  0  0  0  0
   60.2620   32.4840   51.9860 C   0  0  0  0  0  0  0  0  0  0  0  0
   59.5480   30.7770   48.4910 C   0  0  0  0  0  0  0  0  0  0  0  0
   58.6270   29.8930   44.8390 C   0  0  0  0  0  0  0  0  0  0  0  0
   58.4490   28.5800   44.3890 C   0  0  0  0  0  0  0  0  0  0  0  0
   57.4380   28.3390   43.4390 C   0  0  0  0  0  0  0  0  0  0  0  0
   56.6360   29.3970   42.9610 C   0  0  0  0  0  0  0  0  0  0  0  0
   56.8350   30.7090   43.4260 C   0  0  0  0  0  0  0  0  0  0  0  0
   57.8400   30.9210   44.3740 C   0  0  0  0  0  0  0  0  0  0  0  0
   59.0250   34.0070   48.1320 N   0  0  0  0  0  0  0  0  0  0  0  0
   60.1940   34.4180   48.9080 C   0  0  0  0  0  0  0  0  0  0  0  0
   61.4160   33.6570   48.4640 C   0  0  0  0  0  0  0  0  0  0  0  0
   61.9230   33.8330   47.1650 C   0  0  0  0  0  0  0  0  0  0  0  0
   63.0720   33.1470   46.7580 C   0  0  0  0  0  0  0  0  0  0  0  0
   63.7220   32.2800   47.6440 C   0  0  0  0  0  0  0  0  0  0  0  0
   63.2220   32.0970   48.9380 C   0  0  0  0  0  0  0  0  0  0  0  0
   63.8500   31.2560   49.7980 F   0  0  0  0  0  0  0  0  0  0  0  0
   62.0740   32.7830   49.3490 C   0  0  0  0  0  0  0  0  0  0  0  0
   56.8847   33.4760   46.7631 H   0  0  0  0  0  0  0  0  0  0  0  0
   56.8639   35.0775   45.9039 H   0  0  0  0  0  0  0  0  0  0  0  0
   56.8607   33.4497   44.1806 H   0  0  0  0  0  0  0  0  0  0  0  0
   58.5674   34.0516   44.2955 H   0  0  0  0  0  0  0  0  0  0  0  0
   59.8829   32.3678   46.4872 H   0  0  0  0  0  0  0  0  0  0  0  0
   60.5134   28.5452   46.1532 H   0  0  0  0  0  0  0  0  0  0  0  0
   61.5185   30.0278   46.3328 H   0  0  0  0  0  0  0  0  0  0  0  0
   60.9215   27.6436   48.3705 H   0  0  0  0  0  0  0  0  0  0  0  0
   60.3467   27.7417   50.7936 H   0  0  0  0  0  0  0  0  0  0  0  0
   59.2675   29.7781   51.7478 H   0  0  0  0  0  0  0  0  0  0  0  0
   57.2019   33.9598   51.5924 H   0  0  0  0  0  0  0  0  0  0  0  0
   58.0062   35.2191   53.5901 H   0  0  0  0  0  0  0  0  0  0  0  0
   60.2575   34.7339   54.5577 H   0  0  0  0  0  0  0  0  0  0  0  0
   61.7146   32.9950   53.5105 H   0  0  0  0  0  0  0  0  0  0  0  0
   60.9088   31.7227   51.5255 H   0  0  0  0  0  0  0  0  0  0  0  0
   59.3245   31.6347   47.8396 H   0  0  0  0  0  0  0  0  0  0  0  0
   59.0796   27.7612   44.7659 H   0  0  0  0  0  0  0  0  0  0  0  0
   57.2720   27.3174   43.0664 H   0  0  0  0  0  0  0  0  0  0  0  0
   55.8495   29.1939   42.2193 H   0  0  0  0  0  0  0  0  0  0  0  0
   56.2194   31.5419   43.0555 H   0  0  0  0  0  0  0  0  0  0  0  0
   58.4120   33.2530   48.5220 H   0  0  0  0  0  0  0  0  0  0  0  0
   60.3652   35.4947   48.7619 H   0  0  0  0  0  0  0  0  0  0  0  0
   60.0085   34.2043   49.9710 H   0  0  0  0  0  0  0  0  0  0  0  0
   61.4142   34.5128   46.4657 H   0  0  0  0  0  0  0  0  0  0  0  0
   63.4652   33.2890   45.7405 H   0  0  0  0  0  0  0  0  0  0  0  0
   64.6263   31.7423   47.3229 H   0  0  0  0  0  0  0  0  0  0  0  0
   61.6844   32.6386   50.3675 H   0  0  0  0  0  0  0  0  0  0  0  0
  1  2  2  0
  2  3  1  0
  3  4  1  0
  4  5  1  0
  5  6  2  0
  6  7  1  0
  7  8  1  0
  8  9  1  0
  9 10  2  0
 10 11  1  0
 11 12  2  0
 12 13  1  0
 13 14  1  0
 14 15  1  0
 15 16  2  0
 16 17  1  0
 17 18  2  0
 18 19  1  0
 19 20  2  0
 13 21  2  0
  7 22  1  0
 22 23  2  0
 23 24  1  0
 24 25  2  0
 25 26  1  0
 26 27  2  0
  2 28  1  0
 28 29  1  0
 29 30  1  0
 30 31  2  0
 31 32  1  0
 32 33  2  0
 33 34  1  0
 34 35  1  0
 34 36  2  0
 27  5  1  0
 36 30  1  0
 21  9  1  0
 27 22  1  0
 20 15  1  0
  3 37  1  0
  3 38  1  0
  4 39  1  0
  4 40  1  0
  6 41  1  0
  8 42  1  0
  8 43  1  0
 10 44  1  0
 11 45  1  0
 12 46  1  0
 16 47  1  0
 17 48  1  0
 18 49  1  0
 19 50  1  0
 20 51  1  0
 21 52  1  0
 23 53  1  0
 24 54  1  0
 25 55  1  0
 26 56  1  0
 28 57  1  0
 29 58  1  0
 29 59  1  0
 31 60  1  0
 32 61  1  0
 33 62  1  0
 36 63  1  0
M  END
>  <UniqueID>  (56) 
47

>  <SMILES>  (56) 
O=C(CCc1cn(Cc2cccc(Oc3ccccc3)c2)c2ccccc12)NCc1cccc(F)c1

>  <Energy>  (56) 
102.129183657901

>  <Genealogy>  (56) 
O=C(CCc1cn(Cc2cccc(Oc3ccccc3)c2)c2ccccc12)NCc1cccc(F)c1 (3D coordinates assigned)
O=C(CCc1cn(Cc2cccc(Oc3ccccc3)c2)c2ccccc12)NCc1cccc(F)c1 (optimized conformer: 102.129183657901 kcal/mol)

>  <smiles>  (56) 
O=C(CCc1cn(Cc2cccc(Oc3ccccc3)c2)c2ccccc12)NCc1cccc(F)c1

>  <score_type>  (56) 
oracle

>  <origin>  (56) 
adg

>  <m_score__min__energy>  (56) 
-11.41

>  <m_primary>  (56) 
energy

$$$$
56:0
     RDKit          3D

 54 57  0  0  0  0  0  0  0  0999 V2000
   58.4370   32.4550   47.0900 N   0  0  0  0  0  0  0  0  0  0  0  0
   59.5980   33.6660   46.7320 S   0  0  0  0  0  0  0  0  0  0  0  0
   59.5960   33.9430   45.2500 O   0  0  0  0  0  0  0  0  0  0  0  0
   59.2610   34.9140   47.4630 O   0  0  0  0  0  0  0  0  0  0  0  0
   61.2240   33.1940   47.2440 C   0  0  0  0  0  0  0  0  0  0  0  0
   62.1460   34.1790   47.4330 C   0  0  0  0  0  0  0  0  0  0  0  0
   63.4160   33.8550   47.8370 C   0  0  0  0  0  0  0  0  0  0  0  0
   63.7660   32.5460   48.0490 C   0  0  0  0  0  0  0  0  0  0  0  0
   62.8090   31.5750   47.8470 C   0  0  0  0  0  0  0  0  0  0  0  0
   61.5180   31.8180   47.4460 C   0  0  0  0  0  0  0  0  0  0  0  0
   60.5230   30.9780   47.2240 O   0  0  0  0  0  0  0  0  0  0  0  0
   60.0920   30.0370   46.4030 C   0  0  0  0  0  0  0  0  0  0  0  0
   60.7790   29.0020   45.8130 C   0  0  0  0  0  0  0  0  0  0  0  0
   60.1680   28.0780   44.9600 C   0  0  0  0  0  0  0  0  0  0  0  0
   58.8370   28.2010   44.7010 C   0  0  0  0  0  0  0  0  0  0  0  0
   58.2050   27.2070   43.7970 C   0  0  0  0  0  0  0  0  0  0  0  0
   57.6480   26.1350   44.5060 N   0  0  0  0  0  0  0  0  0  0  0  0
   57.3510   24.9380   43.8160 C   0  0  0  0  0  0  0  0  0  0  0  0
   56.3890   24.0210   44.5120 C   0  0  0  0  0  0  0  0  0  0  0  0
   55.7340   24.6410   45.7160 C   0  0  0  0  0  0  0  0  0  0  0  0
   56.6650   25.3840   46.6210 C   0  0  0  0  0  0  0  0  0  0  0  0
   57.7690   26.0900   45.9090 C   0  0  0  0  0  0  0  0  0  0  0  0
   58.1440   29.2200   45.2770 C   0  0  0  0  0  0  0  0  0  0  0  0
   56.7190   29.4010   45.0190 C   0  0  0  0  0  0  0  0  0  0  0  0
   55.8420   28.5360   45.2430 O   0  0  0  0  0  0  0  0  0  0  0  0
   56.2440   30.6440   44.4680 N   0  0  0  0  0  0  0  0  0  0  0  0
   56.9910   31.4310   43.7660 C   0  0  0  0  0  0  0  0  0  0  0  0
   57.2410   31.3420   42.4570 N   0  0  0  0  0  0  0  0  0  0  0  0
   58.0440   32.3130   42.0790 N   0  0  0  0  0  0  0  0  0  0  0  0
   58.3330   33.0530   43.1330 N   0  0  0  0  0  0  0  0  0  0  0  0
   57.6920   32.5240   44.1840 N   0  0  0  0  0  0  0  0  0  0  0  0
   58.7500   30.0780   46.0790 N   0  0  0  0  0  0  0  0  0  0  0  0
   58.8700   31.6560   47.6040 H   0  0  0  0  0  0  0  0  0  0  0  0
   57.9550   32.0880   46.2330 H   0  0  0  0  0  0  0  0  0  0  0  0
   61.8728   35.2307   47.2621 H   0  0  0  0  0  0  0  0  0  0  0  0
   64.1593   34.6509   47.9921 H   0  0  0  0  0  0  0  0  0  0  0  0
   64.7830   32.2783   48.3715 H   0  0  0  0  0  0  0  0  0  0  0  0
   63.1005   30.5285   48.0196 H   0  0  0  0  0  0  0  0  0  0  0  0
   61.8540   28.8967   46.0209 H   0  0  0  0  0  0  0  0  0  0  0  0
   60.7531   27.2649   44.5055 H   0  0  0  0  0  0  0  0  0  0  0  0
   57.4099   27.7044   43.2221 H   0  0  0  0  0  0  0  0  0  0  0  0
   58.9848   26.8071   43.1322 H   0  0  0  0  0  0  0  0  0  0  0  0
   56.9202   25.2058   42.8400 H   0  0  0  0  0  0  0  0  0  0  0  0
   58.2993   24.3856   43.7412 H   0  0  0  0  0  0  0  0  0  0  0  0
   55.6035   23.7332   43.7978 H   0  0  0  0  0  0  0  0  0  0  0  0
   56.9668   23.1552   44.8677 H   0  0  0  0  0  0  0  0  0  0  0  0
   54.9649   25.3441   45.3636 H   0  0  0  0  0  0  0  0  0  0  0  0
   55.3224   23.8103   46.3080 H   0  0  0  0  0  0  0  0  0  0  0  0
   56.0815   26.1301   47.1804 H   0  0  0  0  0  0  0  0  0  0  0  0
   57.1360   24.6363   47.2761 H   0  0  0  0  0  0  0  0  0  0  0  0
   57.8060   27.1247   46.2804 H   0  0  0  0  0  0  0  0  0  0  0  0
   58.6829   25.5143   46.1174 H   0  0  0  0  0  0  0  0  0  0  0  0
   58.9450   33.8920   43.1450 H   0  0  0  0  0  0  0  0  0  0  0  0
   57.7320   32.8990   45.1580 H   0  0  0  0  0  0  0  0  0  0  0  0
  1  2  1  0
  2  3  2  0
  2  4  2  0
  2  5  1  0
  5  6  2  0
  6  7  1  0
  7  8  2  0
  8  9  1  0
  9 10  2  0
 10 11  1  0
 11 12  1  0
 12 13  2  0
 13 14  1  0
 14 15  2  0
 15 16  1  0
 16 17  1  0
 17 18  1  0
 18 19  1  0
 19 20  1  0
 20 21  1  0
 21 22  1  0
 15 23  1  0
 23 24  1  0
 24 25  2  0
 24 26  1  0
 26 27  2  3
 27 28  1  0
 28 29  2  0
 29 30  1  0
 30 31  1  0
 23 32  2  0
 10  5  1  0
 32 12  1  0
 22 17  1  0
 31 27  1  0
  1 33  1  0
  1 34  1  0
  6 35  1  0
  7 36  1  0
  8 37  1  0
  9 38  1  0
 13 39  1  0
 14 40  1  0
 16 41  1  0
 16 42  1  0
 18 43  1  0
 18 44  1  0
 19 45  1  0
 19 46  1  0
 20 47  1  0
 20 48  1  0
 21 49  1  0
 21 50  1  0
 22 51  1  0
 22 52  1  0
 30 53  1  0
 31 54  1  0
M  END
>  <smiles>  (57) 
NS(=O)(=O)c1ccccc1Oc1ccc(CN2CCCCC2)c(C(=O)N=c2nn[nH][nH]2)n1

>  <score_type>  (57) 
oracle

>  <origin>  (57) 
adg

>  <m_score__min__energy>  (57) 
-8.8300000000000001

>  <m_primary>  (57) 
energy

$$$$
57:0
     RDKit          3D

 41 44  0  0  0  0  0  0  0  0999 V2000
   57.4790   24.8630   45.7780 O   0  0  0  0  0  0  0  0  0  0  0  0
   57.8570   25.9380   46.3120 C   0  0  0  0  0  0  0  0  0  0  0  0
   58.6330   25.8730   47.5160 N   0  0  0  0  0  0  0  0  0  0  0  0
   59.1760   26.9900   48.2360 C   0  0  0  0  0  0  0  0  0  0  0  0
   58.5460   28.2470   48.2370 C   0  0  0  0  0  0  0  0  0  0  0  0
   59.1050   29.3130   48.9470 C   0  0  0  0  0  0  0  0  0  0  0  0
   60.2960   29.1430   49.6610 C   0  0  0  0  0  0  0  0  0  0  0  0
   60.8290   30.2400   50.3550 O   0  0  0  0  0  0  0  0  0  0  0  0
   60.0800   31.2760   50.9310 C   0  0  0  0  0  0  0  0  0  0  0  0
   59.0000   31.0230   51.7980 C   0  0  0  0  0  0  0  0  0  0  0  0
   58.2670   32.0840   52.3380 C   0  0  0  0  0  0  0  0  0  0  0  0
   58.5970   33.4020   52.0090 C   0  0  0  0  0  0  0  0  0  0  0  0
   59.6550   33.6590   51.1340 C   0  0  0  0  0  0  0  0  0  0  0  0
   60.3900   32.6000   50.5920 C   0  0  0  0  0  0  0  0  0  0  0  0
   60.9500   27.8990   49.6220 C   0  0  0  0  0  0  0  0  0  0  0  0
   60.3920   26.8330   48.9110 C   0  0  0  0  0  0  0  0  0  0  0  0
   57.4450   27.2320   45.7100 C   0  0  0  0  0  0  0  0  0  0  0  0
   56.0800   27.5600   45.6070 C   0  0  0  0  0  0  0  0  0  0  0  0
   55.1030   26.6840   46.0660 O   0  0  0  0  0  0  0  0  0  0  0  0
   55.6980   28.7350   45.0420 N   0  0  0  0  0  0  0  0  0  0  0  0
   56.5980   29.6300   44.5600 C   0  0  0  0  0  0  0  0  0  0  0  0
   56.1490   30.8230   43.9810 C   0  0  0  0  0  0  0  0  0  0  0  0
   57.0690   31.7510   43.4830 C   0  0  0  0  0  0  0  0  0  0  0  0
   58.4390   31.4910   43.5650 C   0  0  0  0  0  0  0  0  0  0  0  0
   58.8990   30.3030   44.1420 C   0  0  0  0  0  0  0  0  0  0  0  0
   57.9810   29.3600   44.6460 C   0  0  0  0  0  0  0  0  0  0  0  0
   58.4020   28.1540   45.2370 C   0  0  0  0  0  0  0  0  0  0  0  0
   59.6340   27.9080   45.3600 O   0  0  0  0  0  0  0  0  0  0  0  0
   57.6102   28.3918   47.6772 H   0  0  0  0  0  0  0  0  0  0  0  0
   58.6050   30.2928   48.9444 H   0  0  0  0  0  0  0  0  0  0  0  0
   58.7319   29.9867   52.0515 H   0  0  0  0  0  0  0  0  0  0  0  0
   57.4299   31.8815   53.0223 H   0  0  0  0  0  0  0  0  0  0  0  0
   58.0236   34.2364   52.4391 H   0  0  0  0  0  0  0  0  0  0  0  0
   59.9104   34.6961   50.8709 H   0  0  0  0  0  0  0  0  0  0  0  0
   61.2160   32.8073   49.8958 H   0  0  0  0  0  0  0  0  0  0  0  0
   61.9040   27.7643   50.1528 H   0  0  0  0  0  0  0  0  0  0  0  0
   60.9120   25.8641   48.8817 H   0  0  0  0  0  0  0  0  0  0  0  0
   55.0706   31.0307   43.9177 H   0  0  0  0  0  0  0  0  0  0  0  0
   56.7135   32.6865   43.0263 H   0  0  0  0  0  0  0  0  0  0  0  0
   59.1596   32.2243   43.1738 H   0  0  0  0  0  0  0  0  0  0  0  0
   59.9792   30.1043   44.2025 H   0  0  0  0  0  0  0  0  0  0  0  0
  1  2  2  0
  2  3  1  0
  3  4  1  0
  4  5  2  0
  5  6  1  0
  6  7  2  0
  7  8  1  0
  8  9  1  0
  9 10  2  0
 10 11  1  0
 11 12  2  0
 12 13  1  0
 13 14  2  0
  7 15  1  0
 15 16  2  0
  2 17  1  0
 17 18  2  0
 18 19  1  0
 18 20  1  0
 20 21  1  0
 21 22  2  0
 22 23  1  0
 23 24  2  0
 24 25  1  0
 25 26  2  0
 26 27  1  0
 27 28  2  0
 16  4  1  0
 27 17  1  0
 14  9  1  0
 26 21  1  0
  5 29  1  0
  6 30  1  0
 10 31  1  0
 11 32  1  0
 12 33  1  0
 13 34  1  0
 14 35  1  0
 15 36  1  0
 16 37  1  0
 22 38  1  0
 23 39  1  0
 24 40  1  0
 25 41  1  0
M  CHG  3   3  -1  19  -1  20  -1
M  END
>  <UniqueID>  (58) 
48

>  <SMILES>  (58) 
O=C([N-]c1ccc(Oc2ccccc2)cc1)c1c([O-])[n-]c2ccccc2c1=O

>  <Energy>  (58) 
66.80459037453915

>  <Genealogy>  (58) 
O=C([N-]c1ccc(Oc2ccccc2)cc1)c1c([O-])[n-]c2ccccc2c1=O (protonated)
O=C([N-]c1ccc(Oc2ccccc2)cc1)c1c([O-])[n-]c2ccccc2c1=O (3D coordinates assigned)
O=C([N-]c1ccc(Oc2ccccc2)cc1)c1c([O-])[n-]c2ccccc2c1=O (optimized conformer: 66.80459037453915 kcal/mol)

>  <smiles>  (58) 
O=C(Nc1ccc(Oc2ccccc2)cc1)c1c(O)[nH]c2ccccc2c1=O

>  <score_type>  (58) 
oracle

>  <origin>  (58) 
adg

>  <m_score__min__energy>  (58) 
-15.369999999999999

>  <m_primary>  (58) 
energy

$$$$
58:0
     RDKit          3D

 82 86  0  0  0  0  0  0  0  0999 V2000
   57.8140   31.9160   41.5300 C   0  0  0  0  0  0  0  0  0  0  0  0
   57.8770   32.2160   42.9980 C   0  0  0  0  0  0  0  0  0  0  0  0
   58.2670   33.4570   43.4030 N   0  0  0  0  0  0  0  0  0  0  0  0
   58.3790   33.7870   44.7170 C   0  0  0  0  0  0  0  0  0  0  0  0
   58.7360   34.9520   45.0360 O   0  0  0  0  0  0  0  0  0  0  0  0
   58.0880   32.8180   45.6940 C   0  0  0  0  0  0  0  0  0  0  0  0
   58.1770   33.0530   47.1460 C   0  0  0  0  0  0  0  0  0  0  0  0
   57.1480   33.0740   47.8750 O   0  0  0  0  0  0  0  0  0  0  0  0
   59.4730   33.2340   47.7170 N   0  0  0  0  0  0  0  0  0  0  0  0
   60.4440   34.2390   47.3100 C   0  0  0  0  0  0  0  0  0  0  0  0
   61.7940   33.8150   47.8130 C   0  0  0  0  0  0  0  0  0  0  0  0
   62.2840   34.2980   49.0390 C   0  0  0  0  0  0  0  0  0  0  0  0
   63.4870   33.8070   49.5600 C   0  0  0  0  0  0  0  0  0  0  0  0
   64.2060   32.8300   48.8640 C   0  0  0  0  0  0  0  0  0  0  0  0
   65.3600   32.3410   49.3800 F   0  0  0  0  0  0  0  0  0  0  0  0
   63.7310   32.3510   47.6390 C   0  0  0  0  0  0  0  0  0  0  0  0
   62.5290   32.8410   47.1140 C   0  0  0  0  0  0  0  0  0  0  0  0
   57.6980   31.5870   45.2830 N   0  0  0  0  0  0  0  0  0  0  0  0
   57.5910   31.2400   43.9740 C   0  0  0  0  0  0  0  0  0  0  0  0
   57.1520   29.8380   43.6170 C   0  0  0  0  0  0  0  0  0  0  0  0
   56.2430   29.2590   44.6720 C   0  0  0  0  0  0  0  0  0  0  0  0
   55.1270   29.8070   44.8690 O   0  0  0  0  0  0  0  0  0  0  0  0
   56.5270   28.0290   45.3600 N   0  0  0  0  0  0  0  0  0  0  0  0
   57.8140   27.4990   45.8260 C   0  0  2  0  0  0  0  0  0  0  0  0
   57.6760   26.0460   46.3220 C   0  0  0  0  0  0  0  0  0  0  0  0
   56.4240   25.3900   45.8150 C   0  0  0  0  0  0  0  0  0  0  0  0
   56.3440   24.3590   44.9090 C   0  0  0  0  0  0  0  0  0  0  0  0
   55.0560   24.0060   44.7670 N   0  0  0  0  0  0  0  0  0  0  0  0
   54.3910   24.8320   45.6020 C   0  0  0  0  0  0  0  0  0  0  0  0
   55.1930   25.6880   46.2680 N   0  0  0  0  0  0  0  0  0  0  0  0
   58.4770   28.3950   46.8410 C   0  0  0  0  0  0  0  0  0  0  0  0
   58.1170   29.5990   46.9680 O   0  0  0  0  0  0  0  0  0  0  0  0
   59.4850   27.8580   47.7110 N   0  0  0  0  0  0  0  0  0  0  0  0
   59.7800   28.4240   49.0270 C   0  0  2  0  0  0  0  0  0  0  0  0
   60.4840   29.7810   48.8560 C   0  0  0  0  0  0  0  0  0  0  0  0
   59.9000   30.8410   49.7570 C   0  0  0  0  0  0  0  0  0  0  0  0
   60.7180   31.8480   50.2960 C   0  0  0  0  0  0  0  0  0  0  0  0
   60.1760   32.8100   51.1530 C   0  0  0  0  0  0  0  0  0  0  0  0
   58.8170   32.7760   51.4770 C   0  0  0  0  0  0  0  0  0  0  0  0
   57.9960   31.7800   50.9440 C   0  0  0  0  0  0  0  0  0  0  0  0
   58.5350   30.8150   50.0870 C   0  0  0  0  0  0  0  0  0  0  0  0
   60.6240   27.4750   49.8470 C   0  0  0  0  0  0  0  0  0  0  0  0
   61.1490   26.4550   49.3220 O   0  0  0  0  0  0  0  0  0  0  0  0
   60.8170   27.7250   51.2390 N   0  0  0  0  0  0  0  0  0  0  0  0
   62.1420   27.7870   51.8330 C   0  0  0  0  0  0  0  0  0  0  0  0
   62.5140   29.2240   52.0610 C   0  0  0  0  0  0  0  0  0  0  0  0
   63.6110   29.7910   51.3900 C   0  0  0  0  0  0  0  0  0  0  0  0
   64.0180   31.0940   51.6840 C   0  0  0  0  0  0  0  0  0  0  0  0
   63.3360   31.8380   52.6500 C   0  0  0  0  0  0  0  0  0  0  0  0
   62.2510   31.2760   53.3320 C   0  0  0  0  0  0  0  0  0  0  0  0
   61.8410   29.9720   53.0390 C   0  0  0  0  0  0  0  0  0  0  0  0
   57.5900   30.8491   41.3831 H   0  0  0  0  0  0  0  0  0  0  0  0
   57.0239   32.5240   41.0651 H   0  0  0  0  0  0  0  0  0  0  0  0
   58.7819   32.1548   41.0651 H   0  0  0  0  0  0  0  0  0  0  0  0
   60.4625   34.3166   46.2129 H   0  0  0  0  0  0  0  0  0  0  0  0
   60.1735   35.2205   47.7264 H   0  0  0  0  0  0  0  0  0  0  0  0
   61.7201   35.0645   49.5909 H   0  0  0  0  0  0  0  0  0  0  0  0
   63.8674   34.1902   50.5184 H   0  0  0  0  0  0  0  0  0  0  0  0
   64.3018   31.5892   47.0878 H   0  0  0  0  0  0  0  0  0  0  0  0
   62.1579   32.4623   46.1502 H   0  0  0  0  0  0  0  0  0  0  0  0
   56.6146   29.8649   42.6576 H   0  0  0  0  0  0  0  0  0  0  0  0
   58.0474   29.2030   43.5461 H   0  0  0  0  0  0  0  0  0  0  0  0
   58.4889   27.4825   44.9575 H   0  0  0  0  0  0  0  0  0  0  0  0
   58.5448   25.4685   45.9730 H   0  0  0  0  0  0  0  0  0  0  0  0
   57.6248   26.0676   47.4206 H   0  0  0  0  0  0  0  0  0  0  0  0
   57.1953   23.8987   44.3862 H   0  0  0  0  0  0  0  0  0  0  0  0
   53.2984   24.8093   45.7275 H   0  0  0  0  0  0  0  0  0  0  0  0
   58.8359   28.5777   49.5702 H   0  0  0  0  0  0  0  0  0  0  0  0
   61.5507   29.6599   49.0959 H   0  0  0  0  0  0  0  0  0  0  0  0
   60.3435   30.1066   47.8147 H   0  0  0  0  0  0  0  0  0  0  0  0
   61.7880   31.8795   50.0429 H   0  0  0  0  0  0  0  0  0  0  0  0
   60.8208   33.5958   51.5735 H   0  0  0  0  0  0  0  0  0  0  0  0
   58.3938   33.5342   52.1523 H   0  0  0  0  0  0  0  0  0  0  0  0
   56.9260   31.7544   51.1980 H   0  0  0  0  0  0  0  0  0  0  0  0
   57.8862   30.0312   49.6690 H   0  0  0  0  0  0  0  0  0  0  0  0
   62.1402   27.2506   52.7933 H   0  0  0  0  0  0  0  0  0  0  0  0
   62.8725   27.3189   51.1568 H   0  0  0  0  0  0  0  0  0  0  0  0
   64.1509   29.2063   50.6306 H   0  0  0  0  0  0  0  0  0  0  0  0
   64.8758   31.5347   51.1549 H   0  0  0  0  0  0  0  0  0  0  0  0
   63.6524   32.8672   52.8749 H   0  0  0  0  0  0  0  0  0  0  0  0
   61.7208   31.8602   54.0985 H   0  0  0  0  0  0  0  0  0  0  0  0
   60.9885   29.5312   53.5766 H   0  0  0  0  0  0  0  0  0  0  0  0
  1  2  1  0
  2  3  1  0
  3  4  1  0
  4  5  2  0
  4  6  1  0
  6  7  1  0
  7  8  2  0
  7  9  1  0
  9 10  1  0
 10 11  1  0
 11 12  2  0
 12 13  1  0
 13 14  2  0
 14 15  1  0
 14 16  1  0
 16 17  2  0
  6 18  2  0
 18 19  1  0
 19 20  1  0
 20 21  1  0
 21 22  2  0
 21 23  1  0
 23 24  1  0
 24 25  1  0
 25 26  1  0
 26 27  2  0
 27 28  1  0
 28 29  1  0
 29 30  2  0
 24 31  1  0
 31 32  2  0
 31 33  1  0
 33 34  1  0
 34 35  1  0
 35 36  1  0
 36 37  2  0
 37 38  1  0
 38 39  2  0
 39 40  1  0
 40 41  2  0
 34 42  1  0
 42 43  2  0
 42 44  1  0
 44 45  1  0
 45 46  1  0
 46 47  2  0
 47 48  1  0
 48 49  2  0
 49 50  1  0
 50 51  2  0
 19  2  2  0
 30 26  1  0
 41 36  1  0
 51 46  1  0
 17 11  1  0
  1 52  1  0
  1 53  1  0
  1 54  1  0
 10 55  1  0
 10 56  1  0
 12 57  1  0
 13 58  1  0
 16 59  1  0
 17 60  1  0
 20 61  1  0
 20 62  1  0
 24 63  1  6
 25 64  1  0
 25 65  1  0
 27 66  1  0
 29 67  1  0
 34 68  1  1
 35 69  1  0
 35 70  1  0
 37 71  1  0
 38 72  1  0
 39 73  1  0
 40 74  1  0
 41 75  1  0
 45 76  1  0
 45 77  1  0
 47 78  1  0
 48 79  1  0
 49 80  1  0
 50 81  1  0
 51 82  1  0
M  CHG  6   3  -1   9  -1  23  -1  28  -1  33  -1  44  -1
M  END
>  <UniqueID>  (59) 
49

>  <SMILES>  (59) 
Cc1[n-]c(=O)c(C(=O)[N-]Cc2ccc(F)cc2)nc1CC(=O)[N-][C@H](Cc1c[n-]cn1)C(=O)[N-][C@H](Cc1ccccc1)C(=O)[N-]Cc1ccccc1

>  <Energy>  (59) 
105.48273460862444

>  <Genealogy>  (59) 
Cc1[n-]c(=O)c(C(=O)[N-]Cc2ccc(F)cc2)nc1CC(=O)[N-]C(Cc1c[n-]cn1)C(=O)[N-]C(Cc1ccccc1)C(=O)[N-]Cc1ccccc1 (protonated)
Cc1[n-]c(=O)c(C(=O)[N-]Cc2ccc(F)cc2)nc1CC(=O)[N-][C@H](Cc1c[n-]cn1)C(=O)[N-][C@H](Cc1ccccc1)C(=O)[N-]Cc1ccccc1 (chirality)
Cc1[n-]c(=O)c(C(=O)[N-]Cc2ccc(F)cc2)nc1CC(=O)[N-][C@H](Cc1c[n-]cn1)C(=O)[N-][C@H](Cc1ccccc1)C(=O)[N-]Cc1ccccc1 (3D coordinates assigned)
Cc1[n-]c(=O)c(C(=O)[N-]Cc2ccc(F)cc2)nc1CC(=O)[N-][C@H](Cc1c[n-]cn1)C(=O)[N-][C@H](Cc1ccccc1)C(=O)[N-]Cc1ccccc1 (optimized conformer: 105.48273460862444 kcal/mol)

>  <smiles>  (59) 
Cc1[nH]c(=O)c(C(=O)NCc2ccc(F)cc2)nc1CC(=O)NC(Cc1c[nH]cn1)C(=O)NC(Cc1ccccc1)C(=O)NCc1ccccc1

>  <score_type>  (59) 
oracle

>  <origin>  (59) 
adg

>  <m_score__min__energy>  (59) 
-18.079999999999998

>  <m_primary>  (59) 
energy

$$$$
59:0
     RDKit          3D

 57 59  0  0  0  0  0  0  0  0999 V2000
   59.5820   27.9450   52.3590 O   0  0  0  0  0  0  0  0  0  0  0  0
   59.3030   29.1730   52.4310 C   0  0  0  0  0  0  0  0  0  0  0  0
   58.0030   29.5990   53.0310 C   0  0  0  0  0  0  0  0  0  0  0  0
   57.0420   29.8720   51.9670 N   0  0  0  0  0  0  0  0  0  0  0  0
   56.0490   30.9030   52.0240 C   0  0  0  0  0  0  0  0  0  0  0  0
   56.4260   32.1050   52.0650 O   0  0  0  0  0  0  0  0  0  0  0  0
   54.6020   30.5970   52.0550 C   0  0  0  0  0  0  0  0  0  0  0  0
   54.1610   29.3610   52.5520 C   0  0  0  0  0  0  0  0  0  0  0  0
   52.7970   29.0610   52.5770 C   0  0  0  0  0  0  0  0  0  0  0  0
   51.8620   29.9920   52.1160 C   0  0  0  0  0  0  0  0  0  0  0  0
   52.2840   31.2460   51.6380 C   0  0  0  0  0  0  0  0  0  0  0  0
   51.2910   32.2360   51.1640 C   0  0  0  0  0  0  0  0  0  0  0  0
   50.6820   32.9760   51.9830 O   0  0  0  0  0  0  0  0  0  0  0  0
   51.0170   32.3640   49.8070 O   0  0  0  0  0  0  0  0  0  0  0  0
   53.6600   31.5450   51.6230 C   0  0  0  0  0  0  0  0  0  0  0  0
   60.2080   30.1570   51.9120 N   0  0  0  0  0  0  0  0  0  0  0  0
   59.8620   31.0630   50.8220 C   0  0  0  0  0  0  0  0  0  0  0  0
   59.6840   30.2740   49.5540 C   0  0  0  0  0  0  0  0  0  0  0  0
   59.0040   30.8310   48.4620 C   0  0  0  0  0  0  0  0  0  0  0  0
   58.6820   30.0430   47.3550 C   0  0  0  0  0  0  0  0  0  0  0  0
   59.0380   28.6830   47.3200 C   0  0  0  0  0  0  0  0  0  0  0  0
   58.5710   27.8160   46.2170 C   0  0  0  0  0  0  0  0  0  0  0  0
   59.3540   27.5060   45.2770 O   0  0  0  0  0  0  0  0  0  0  0  0
   57.2500   27.2680   46.2570 N   0  0  0  0  0  0  0  0  0  0  0  0
   56.8380   26.0880   45.5000 C   0  0  1  0  0  0  0  0  0  0  0  0
   57.8990   24.9680   45.6020 C   0  0  0  0  0  0  0  0  0  0  0  0
   57.6140   23.7950   44.6900 C   0  0  0  0  0  0  0  0  0  0  0  0
   56.6310   23.8940   43.6910 C   0  0  0  0  0  0  0  0  0  0  0  0
   56.3490   22.7990   42.8690 C   0  0  0  0  0  0  0  0  0  0  0  0
   57.0410   21.5970   43.0380 C   0  0  0  0  0  0  0  0  0  0  0  0
   58.0230   21.4900   44.0260 C   0  0  0  0  0  0  0  0  0  0  0  0
   58.3120   22.5850   44.8480 C   0  0  0  0  0  0  0  0  0  0  0  0
   55.4980   25.6110   45.9890 C   0  0  0  0  0  0  0  0  0  0  0  0
   54.4760   26.3410   45.8800 O   0  0  0  0  0  0  0  0  0  0  0  0
   55.3890   24.3730   46.6080 O   0  0  0  0  0  0  0  0  0  0  0  0
   59.7600   28.1400   48.3960 C   0  0  0  0  0  0  0  0  0  0  0  0
   60.0700   28.9260   49.5090 C   0  0  0  0  0  0  0  0  0  0  0  0
   57.6168   28.7966   53.6768 H   0  0  0  0  0  0  0  0  0  0  0  0
   58.1562   30.5094   53.6290 H   0  0  0  0  0  0  0  0  0  0  0  0
   54.8912   28.6266   52.9228 H   0  0  0  0  0  0  0  0  0  0  0  0
   52.4573   28.0879   52.9612 H   0  0  0  0  0  0  0  0  0  0  0  0
   50.7906   29.7429   52.1270 H   0  0  0  0  0  0  0  0  0  0  0  0
   54.0001   32.5297   51.2698 H   0  0  0  0  0  0  0  0  0  0  0  0
   58.9250   31.5863   51.0632 H   0  0  0  0  0  0  0  0  0  0  0  0
   60.6678   31.7994   50.6865 H   0  0  0  0  0  0  0  0  0  0  0  0
   58.7226   31.8943   48.4772 H   0  0  0  0  0  0  0  0  0  0  0  0
   58.1461   30.4893   46.5043 H   0  0  0  0  0  0  0  0  0  0  0  0
   56.7478   26.3612   44.4383 H   0  0  0  0  0  0  0  0  0  0  0  0
   58.8793   25.3892   45.3345 H   0  0  0  0  0  0  0  0  0  0  0  0
   57.8802   24.5918   46.6355 H   0  0  0  0  0  0  0  0  0  0  0  0
   56.0811   24.8369   43.5551 H   0  0  0  0  0  0  0  0  0  0  0  0
   55.5801   22.8839   42.0869 H   0  0  0  0  0  0  0  0  0  0  0  0
   56.8127   20.7353   42.3935 H   0  0  0  0  0  0  0  0  0  0  0  0
   58.5693   20.5444   44.1578 H   0  0  0  0  0  0  0  0  0  0  0  0
   59.0892   22.4985   45.6216 H   0  0  0  0  0  0  0  0  0  0  0  0
   60.0834   27.0892   48.3621 H   0  0  0  0  0  0  0  0  0  0  0  0
   60.6194   28.4856   50.3541 H   0  0  0  0  0  0  0  0  0  0  0  0
  1  2  2  0
  2  3  1  0
  3  4  1  0
  4  5  1  0
  5  6  2  0
  5  7  1  0
  7  8  2  0
  8  9  1  0
  9 10  2  0
 10 11  1  0
 11 12  1  0
 12 13  2  0
 12 14  1  0
 11 15  2  0
  2 16  1  0
 16 17  1  0
 17 18  1  0
 18 19  2  0
 19 20  1  0
 20 21  2  0
 21 22  1  0
 22 23  2  0
 22 24  1  0
 24 25  1  0
 25 26  1  0
 26 27  1  0
 27 28  2  0
 28 29  1  0
 29 30  2  0
 30 31  1  0
 31 32  2  0
 25 33  1  0
 33 34  2  0
 33 35  1  0
 21 36  1  0
 36 37  2  0
 15  7  1  0
 37 18  1  0
 32 27  1  0
  3 38  1  0
  3 39  1  0
  8 40  1  0
  9 41  1  0
 10 42  1  0
 15 43  1  0
 17 44  1  0
 17 45  1  0
 19 46  1  0
 20 47  1  0
 25 48  1  6
 26 49  1  0
 26 50  1  0
 28 51  1  0
 29 52  1  0
 30 53  1  0
 31 54  1  0
 32 55  1  0
 36 56  1  0
 37 57  1  0
M  CHG  5   4  -1  14  -1  16  -1  24  -1  35  -1
M  END
>  <UniqueID>  (60) 
50

>  <SMILES>  (60) 
O=C(C[N-]C(=O)c1cccc(C(=O)[O-])c1)[N-]Cc1ccc(C(=O)[N-][C@@H](Cc2ccccc2)C(=O)[O-])cc1

>  <Energy>  (60) 
57.26110515063837

>  <Genealogy>  (60) 
O=C(C[N-]C(=O)c1cccc(C(=O)[O-])c1)[N-]Cc1ccc(C(=O)[N-]C(Cc2ccccc2)C(=O)[O-])cc1 (protonated)
O=C(C[N-]C(=O)c1cccc(C(=O)[O-])c1)[N-]Cc1ccc(C(=O)[N-][C@@H](Cc2ccccc2)C(=O)[O-])cc1 (chirality)
O=C(C[N-]C(=O)c1cccc(C(=O)[O-])c1)[N-]Cc1ccc(C(=O)[N-][C@@H](Cc2ccccc2)C(=O)[O-])cc1 (3D coordinates assigned)
O=C(C[N-]C(=O)c1cccc(C(=O)[O-])c1)[N-]Cc1ccc(C(=O)[N-][C@@H](Cc2ccccc2)C(=O)[O-])cc1 (optimized conformer: 57.26110515063837 kcal/mol)

>  <smiles>  (60) 
O=C(CNC(=O)c1cccc(C(=O)O)c1)NCc1ccc(C(=O)NC(Cc2ccccc2)C(=O)O)cc1

>  <score_type>  (60) 
oracle

>  <origin>  (60) 
adg

>  <m_score__min__energy>  (60) 
-19.59

>  <m_primary>  (60) 
energy

$$$$
60:0
     RDKit          3D

 40 42  0  0  0  0  0  0  0  0999 V2000
   59.7669   27.7453   48.6780 H   0  0  0  0  0  0  0  0  0  0  0  0
   59.3200   28.2690   47.8200 C   0  0  0  0  0  0  0  0  0  0  0  0
   58.5280   29.7450   47.8760 S   0  0  0  0  0  0  0  0  0  0  0  0
   58.2270   29.7810   46.2280 C   0  0  0  0  0  0  0  0  0  0  0  0
   57.6630   30.8160   45.6660 N   0  0  0  0  0  0  0  0  0  0  0  0
   58.1510   32.1580   45.5750 C   0  0  0  0  0  0  0  0  0  0  0  0
   57.3880   33.1300   44.9160 C   0  0  0  0  0  0  0  0  0  0  0  0
   56.4356   32.8524   44.4407 H   0  0  0  0  0  0  0  0  0  0  0  0
   57.8370   34.4550   44.8620 C   0  0  0  0  0  0  0  0  0  0  0  0
   57.2478   35.2129   44.3249 H   0  0  0  0  0  0  0  0  0  0  0  0
   59.0340   34.8170   45.4900 C   0  0  0  0  0  0  0  0  0  0  0  0
   59.3888   35.8570   45.4402 H   0  0  0  0  0  0  0  0  0  0  0  0
   59.7790   33.8560   46.1810 C   0  0  0  0  0  0  0  0  0  0  0  0
   60.9310   34.2090   46.8040 F   0  0  0  0  0  0  0  0  0  0  0  0
   59.3320   32.5330   46.2370 C   0  0  0  0  0  0  0  0  0  0  0  0
   59.9064   31.7833   46.8009 H   0  0  0  0  0  0  0  0  0  0  0  0
   58.6640   28.6380   45.6110 N   0  0  0  0  0  0  0  0  0  0  0  0
   58.3870   28.2480   44.2210 C   0  0  0  0  0  0  0  0  0  0  0  0
   57.7501   27.3512   44.2118 H   0  0  0  0  0  0  0  0  0  0  0  0
   57.8696   29.0706   43.7055 H   0  0  0  0  0  0  0  0  0  0  0  0
   59.3341   28.0304   43.7055 H   0  0  0  0  0  0  0  0  0  0  0  0
   59.3160   27.8180   46.5010 C   0  0  0  0  0  0  0  0  0  0  0  0
   59.9500   26.5000   46.1370 C   0  0  0  0  0  0  0  0  0  0  0  0
   60.5261   26.6190   45.2075 H   0  0  0  0  0  0  0  0  0  0  0  0
   60.6146   26.1850   46.9550 H   0  0  0  0  0  0  0  0  0  0  0  0
   58.8970   25.4540   45.9350 C   0  0  0  0  0  0  0  0  0  0  0  0
   59.2330   24.2820   45.6170 O   0  0  0  0  0  0  0  0  0  0  0  0
   57.5140   25.7900   46.1080 N   0  0  0  0  0  0  0  0  0  0  0  0
   57.2800   26.6360   46.6690 H   0  0  0  0  0  0  0  0  0  0  0  0
   56.4420   24.9340   45.6880 C   0  0  0  0  0  0  0  0  0  0  0  0
   56.7170   23.5870   45.3880 C   0  0  0  0  0  0  0  0  0  0  0  0
   57.7479   23.2097   45.4586 H   0  0  0  0  0  0  0  0  0  0  0  0
   55.6870   22.7270   45.0010 C   0  0  0  0  0  0  0  0  0  0  0  0
   55.9100   21.6787   44.7535 H   0  0  0  0  0  0  0  0  0  0  0  0
   54.3720   23.1980   44.9280 C   0  0  0  0  0  0  0  0  0  0  0  0
   53.5623   22.5210   44.6182 H   0  0  0  0  0  0  0  0  0  0  0  0
   54.0860   24.5270   45.2480 C   0  0  0  0  0  0  0  0  0  0  0  0
   53.0500   24.8927   45.1931 H   0  0  0  0  0  0  0  0  0  0  0  0
   55.1110   25.3950   45.6380 C   0  0  0  0  0  0  0  0  0  0  0  0
   54.7960   26.7020   45.9960 O   0  0  0  0  0  0  0  0  0  0  0  0
  1  2  1  0
  2  3  1  0
  3  4  1  0
  4  5  2  0
  5  6  1  0
  6  7  2  0
  7  8  1  0
  7  9  1  0
  9 10  1  0
  9 11  2  0
 11 12  1  0
 11 13  1  0
 13 14  1  0
 13 15  2  0
 15 16  1  0
  4 17  1  0
 17 18  1  0
 18 19  1  0
 18 20  1  0
 18 21  1  0
 17 22  1  0
 22 23  1  0
 23 24  1  0
 23 25  1  0
 23 26  1  0
 26 27  2  0
 26 28  1  0
 28 29  1  0
 28 30  1  0
 30 31  2  0
 31 32  1  0
 31 33  1  0
 33 34  1  0
 33 35  2  0
 35 36  1  0
 35 37  1  0
 37 38  1  0
 37 39  2  0
 39 40  1  0
 22  2  2  0
 39 30  1  0
 15  6  1  0
M  CHG  1  40  -1
M  END
>  <UniqueID>  (61) 
51

>  <SMILES>  (61) 
Cn1c(CC(=O)Nc2ccccc2[O-])cs/c1=N/c1cccc(F)c1

>  <Energy>  (61) 
91.2727668508603

>  <Genealogy>  (61) 
Cn1c(CC(=O)Nc2ccccc2[O-])csc1=Nc1cccc(F)c1 (protonated)
Cn1c(CC(=O)Nc2ccccc2[O-])cs/c1=N/c1cccc(F)c1 (cis-trans isomerization)
Cn1c(CC(=O)Nc2ccccc2[O-])cs/c1=N/c1cccc(F)c1 (3D coordinates assigned)
Cn1c(CC(=O)Nc2ccccc2[O-])cs/c1=N/c1cccc(F)c1 (optimized conformer: 91.2727668508603 kcal/mol)

>  <smiles>  (61) 
Cn1c(CC(=O)Nc2ccccc2O)csc1=Nc1cccc(F)c1

>  <score_type>  (61) 
oracle

>  <origin>  (61) 
adg

>  <m_score__min__energy>  (61) 
-12.289999999999999

>  <m_primary>  (61) 
energy

$$$$
61:0
     RDKit          3D

 36 37  0  0  0  0  0  0  0  0999 V2000
   54.5322   24.5174   46.4439 H   0  0  0  0  0  0  0  0  0  0  0  0
   55.2200   24.3710   45.5980 C   0  0  0  0  0  0  0  0  0  0  0  0
   55.1530   23.1980   44.8460 C   0  0  0  0  0  0  0  0  0  0  0  0
   54.4207   22.4202   45.1082 H   0  0  0  0  0  0  0  0  0  0  0  0
   56.0180   23.0060   43.7540 C   0  0  0  0  0  0  0  0  0  0  0  0
   55.9920   21.8430   42.9710 O   0  0  0  0  0  0  0  0  0  0  0  0
   57.0240   20.8610   42.9540 C   0  0  0  0  0  0  0  0  0  0  0  0
   57.2986   20.5997   43.9866 H   0  0  0  0  0  0  0  0  0  0  0  0
   56.6660   19.9619   42.4311 H   0  0  0  0  0  0  0  0  0  0  0  0
   57.9043   21.2632   42.4311 H   0  0  0  0  0  0  0  0  0  0  0  0
   56.9400   24.0060   43.4280 C   0  0  0  0  0  0  0  0  0  0  0  0
   57.6149   23.8642   42.5710 H   0  0  0  0  0  0  0  0  0  0  0  0
   57.0150   25.1930   44.1840 C   0  0  0  0  0  0  0  0  0  0  0  0
   57.9360   26.2090   43.8860 O   0  0  0  0  0  0  0  0  0  0  0  0
   58.1430   26.7550   42.5860 C   0  0  0  0  0  0  0  0  0  0  0  0
   58.5316   27.7801   42.6765 H   0  0  0  0  0  0  0  0  0  0  0  0
   58.8684   26.1348   42.0391 H   0  0  0  0  0  0  0  0  0  0  0  0
   57.1888   26.7716   42.0391 H   0  0  0  0  0  0  0  0  0  0  0  0
   56.1590   25.3660   45.2830 C   0  0  0  0  0  0  0  0  0  0  0  0
   56.2500   26.5740   46.0540 N   0  0  0  0  0  0  0  0  0  0  0  0
   57.4170   27.0350   46.7490 C   0  0  0  0  0  0  0  0  0  0  0  0
   58.0570   26.2270   47.4700 O   0  0  0  0  0  0  0  0  0  0  0  0
   57.8970   28.3820   46.6170 N   0  0  0  0  0  0  0  0  0  0  0  0
   57.6050   29.2320   45.6720 C   0  0  0  0  0  0  0  0  0  0  0  0
   57.9660   30.5750   45.8460 C   0  0  0  0  0  0  0  0  0  0  0  0
   58.4609   30.8984   46.7736 H   0  0  0  0  0  0  0  0  0  0  0  0
   57.6950   31.4990   44.8380 C   0  0  0  0  0  0  0  0  0  0  0  0
   57.9844   32.5527   44.9644 H   0  0  0  0  0  0  0  0  0  0  0  0
   57.0570   31.0860   43.6700 C   0  0  0  0  0  0  0  0  0  0  0  0
   56.8530   31.8071   42.8648 H   0  0  0  0  0  0  0  0  0  0  0  0
   56.6780   29.7460   43.5300 C   0  0  0  0  0  0  0  0  0  0  0  0
   56.0100   29.3130   42.3430 N   0  0  0  0  0  0  0  0  0  0  0  0
   55.6260   28.3450   42.2670 H   0  0  0  0  0  0  0  0  0  0  0  0
   55.8850   29.9640   41.5350 H   0  0  0  0  0  0  0  0  0  0  0  0
   56.9430   28.8570   44.5310 N   0  0  0  0  0  0  0  0  0  0  0  0
   56.5970   27.8790   44.4130 H   0  0  0  0  0  0  0  0  0  0  0  0
  1  2  1  0
  2  3  2  0
  3  4  1  0
  3  5  1  0
  5  6  1  0
  6  7  1  0
  7  8  1  0
  7  9  1  0
  7 10  1  0
  5 11  2  0
 11 12  1  0
 11 13  1  0
 13 14  1  0
 14 15  1  0
 15 16  1  0
 15 17  1  0
 15 18  1  0
 13 19  2  0
 19 20  1  0
 20 21  1  0
 21 22  2  0
 21 23  1  0
 23 24  2  0
 24 25  1  0
 25 26  1  0
 25 27  2  0
 27 28  1  0
 27 29  1  0
 29 30  1  0
 29 31  2  0
 31 32  1  0
 32 33  1  0
 32 34  1  0
 31 35  1  0
 35 36  1  0
 19  2  1  0
 35 24  1  0
M  CHG  1  20  -1
M  END
>  <UniqueID>  (62) 
52

>  <SMILES>  (62) 
COc1ccc([N-]C(=O)/N=c2/cccc(N)[nH]2)c(OC)c1

>  <Energy>  (62) 
44.63314538335156

>  <Genealogy>  (62) 
COc1ccc([N-]C(=O)N=c2cccc(N)[nH]2)c(OC)c1 (protonated)
COc1ccc([N-]C(=O)/N=c2/cccc(N)[nH]2)c(OC)c1 (cis-trans isomerization)
COc1ccc([N-]C(=O)/N=c2/cccc(N)[nH]2)c(OC)c1 (3D coordinates assigned)
COc1ccc([N-]C(=O)/N=c2/cccc(N)[nH]2)c(OC)c1 (optimized conformer: 44.63314538335156 kcal/mol)

>  <smiles>  (62) 
COc1ccc(NC(=O)N=c2cccc(N)[nH]2)c(OC)c1

>  <score_type>  (62) 
oracle

>  <origin>  (62) 
adg

>  <m_score__min__energy>  (62) 
-7.6200000000000001

>  <m_primary>  (62) 
energy

$$$$
62:0
     RDKit          3D

 35 37  0  0  0  0  0  0  0  0999 V2000
   53.5440   24.3740   45.4300 C   0  0  0  0  0  0  0  0  0  0  0  0
   54.9800   24.7720   45.3620 C   0  0  0  0  0  0  0  0  0  0  0  0
   55.9620   24.1170   44.6460 C   0  0  0  0  0  0  0  0  0  0  0  0
   57.1280   24.8110   44.8910 C   0  0  0  0  0  0  0  0  0  0  0  0
   56.7790   25.8480   45.7400 C   0  0  0  0  0  0  0  0  0  0  0  0
   57.6780   26.8720   46.3040 C   0  0  0  0  0  0  0  0  0  0  0  0
   57.8140   26.9370   47.5540 O   0  0  0  0  0  0  0  0  0  0  0  0
   58.4270   27.7770   45.4820 N   0  0  0  0  0  0  0  0  0  0  0  0
   58.4280   29.2050   45.5880 C   0  0  0  0  0  0  0  0  0  0  0  0
   59.5870   30.0530   46.4590 S   0  0  0  0  0  0  0  0  0  0  0  0
   59.0260   31.5770   46.0330 C   0  0  0  0  0  0  0  0  0  0  0  0
   57.8860   31.4480   45.2420 C   0  0  0  0  0  0  0  0  0  0  0  0
   57.5430   30.1040   44.9720 C   0  0  0  0  0  0  0  0  0  0  0  0
   56.3510   29.7020   44.1980 C   0  0  0  0  0  0  0  0  0  0  0  0
   55.1490   29.3280   44.8690 N   0  0  0  0  0  0  0  0  0  0  0  0
   56.3810   29.7010   42.9380 O   0  0  0  0  0  0  0  0  0  0  0  0
   57.1540   32.6580   44.7130 C   0  0  0  0  0  0  0  0  0  0  0  0
   57.5150   33.9340   45.4940 C   0  0  0  0  0  0  0  0  0  0  0  0
   59.0320   34.0520   45.7060 C   0  0  0  0  0  0  0  0  0  0  0  0
   59.5640   32.8790   46.5420 C   0  0  0  0  0  0  0  0  0  0  0  0
   55.4950   25.7910   46.0090 O   0  0  0  0  0  0  0  0  0  0  0  0
   53.2366   24.2888   46.4827 H   0  0  0  0  0  0  0  0  0  0  0  0
   52.9284   25.1354   44.9287 H   0  0  0  0  0  0  0  0  0  0  0  0
   53.4081   23.4043   44.9287 H   0  0  0  0  0  0  0  0  0  0  0  0
   55.8397   23.2265   44.0119 H   0  0  0  0  0  0  0  0  0  0  0  0
   58.1291   24.5871   44.4939 H   0  0  0  0  0  0  0  0  0  0  0  0
   55.1610   28.6160   45.6330 H   0  0  0  0  0  0  0  0  0  0  0  0
   57.4209   32.8009   43.6555 H   0  0  0  0  0  0  0  0  0  0  0  0
   56.0745   32.4811   44.8292 H   0  0  0  0  0  0  0  0  0  0  0  0
   57.1634   34.8103   44.9297 H   0  0  0  0  0  0  0  0  0  0  0  0
   57.0307   33.8844   46.4804 H   0  0  0  0  0  0  0  0  0  0  0  0
   59.5331   34.0522   44.7268 H   0  0  0  0  0  0  0  0  0  0  0  0
   59.2386   34.9884   46.2449 H   0  0  0  0  0  0  0  0  0  0  0  0
   60.6623   32.8631   46.4835 H   0  0  0  0  0  0  0  0  0  0  0  0
   59.2384   33.0121   47.5842 H   0  0  0  0  0  0  0  0  0  0  0  0
  1  2  1  0
  2  3  2  0
  3  4  1  0
  4  5  2  0
  5  6  1  0
  6  7  2  0
  6  8  1  0
  8  9  1  0
  9 10  1  0
 10 11  1  0
 11 12  2  0
 12 13  1  0
 13 14  1  0
 14 15  1  0
 14 16  2  0
 12 17  1  0
 17 18  1  0
 18 19  1  0
 19 20  1  0
  5 21  1  0
 21  2  1  0
 13  9  2  0
 20 11  1  0
  1 22  1  0
  1 23  1  0
  1 24  1  0
  3 25  1  0
  4 26  1  0
 15 27  1  0
 17 28  1  0
 17 29  1  0
 18 30  1  0
 18 31  1  0
 19 32  1  0
 19 33  1  0
 20 34  1  0
 20 35  1  0
M  CHG  2   8  -1  15  -1
M  END
>  <UniqueID>  (63) 
53

>  <SMILES>  (63) 
Cc1ccc(C(=O)[N-]c2sc3c(c2C([NH-])=O)CCCC3)o1

>  <Energy>  (63) 
94.8578298844711

>  <Genealogy>  (63) 
Cc1ccc(C(=O)[N-]c2sc3c(c2C([NH-])=O)CCCC3)o1 (protonated)
Cc1ccc(C(=O)[N-]c2sc3c(c2C([NH-])=O)CCCC3)o1 (3D coordinates assigned)
Cc1ccc(C(=O)[N-]c2sc3c(c2C([NH-])=O)CCCC3)o1 (nonaromatic ring conformer: 94.8578298844711 kcal/mol)

>  <smiles>  (63) 
Cc1ccc(C(=O)Nc2sc3c(c2C(N)=O)CCCC3)o1

>  <score_type>  (63) 
oracle

>  <origin>  (63) 
adg

>  <m_score__min__energy>  (63) 
-12.470000000000001

>  <m_primary>  (63) 
energy

$$$$
63:0
     RDKit          3D

 52 54  0  0  0  0  0  0  0  0999 V2000
   65.2090   33.0950   49.4060 C   0  0  0  0  0  0  0  0  0  0  0  0
   63.8220   33.2290   48.8530 C   0  0  0  0  0  0  0  0  0  0  0  0
   63.5610   32.8990   47.5150 C   0  0  0  0  0  0  0  0  0  0  0  0
   62.2630   32.9950   47.0060 C   0  0  0  0  0  0  0  0  0  0  0  0
   61.2090   33.4370   47.8200 C   0  0  0  0  0  0  0  0  0  0  0  0
   59.5620   33.5340   47.1720 S   0  0  0  0  0  0  0  0  0  0  0  0
   59.0200   34.8860   47.5380 O   0  0  0  0  0  0  0  0  0  0  0  0
   59.6350   33.4780   45.6720 O   0  0  0  0  0  0  0  0  0  0  0  0
   58.4390   32.3260   47.8050 N   0  0  0  0  0  0  0  0  0  0  0  0
   58.2470   32.3670   49.2700 C   0  0  0  0  0  0  0  0  0  0  0  0
   58.9410   31.2090   50.0140 C   0  0  0  0  0  0  0  0  0  0  0  0
   60.1010   30.6170   49.2110 C   0  0  0  0  0  0  0  0  0  0  0  0
   59.6490   30.0660   47.8240 C   0  0  0  0  0  0  0  0  0  0  0  0
   59.1620   28.6070   48.0160 C   0  0  0  0  0  0  0  0  0  0  0  0
   60.8940   30.0170   46.9020 C   0  0  0  0  0  0  0  0  0  0  0  0
   58.4660   30.9480   47.2480 C   0  0  2  0  0  0  0  0  0  0  0  0
   58.2520   30.9300   45.7470 C   0  0  0  0  0  0  0  0  0  0  0  0
   59.2380   31.0670   44.9720 O   0  0  0  0  0  0  0  0  0  0  0  0
   56.9290   30.9160   45.2030 N   0  0  0  0  0  0  0  0  0  0  0  0
   56.4500   29.8880   44.2890 C   0  0  0  0  0  0  0  0  0  0  0  0
   56.7600   28.5340   44.8450 C   0  0  0  0  0  0  0  0  0  0  0  0
   57.9520   27.8530   44.7010 C   0  0  0  0  0  0  0  0  0  0  0  0
   57.7970   26.6830   45.4120 C   0  0  0  0  0  0  0  0  0  0  0  0
   56.5250   26.7250   45.9470 C   0  0  0  0  0  0  0  0  0  0  0  0
   55.9310   27.8410   45.5920 O   0  0  0  0  0  0  0  0  0  0  0  0
   61.4630   33.7060   49.1750 C   0  0  0  0  0  0  0  0  0  0  0  0
   62.7600   33.6090   49.6860 C   0  0  0  0  0  0  0  0  0  0  0  0
   65.1675   33.0990   50.5052 H   0  0  0  0  0  0  0  0  0  0  0  0
   65.6523   32.1499   49.0593 H   0  0  0  0  0  0  0  0  0  0  0  0
   65.8250   33.9378   49.0593 H   0  0  0  0  0  0  0  0  0  0  0  0
   64.3813   32.5632   46.8636 H   0  0  0  0  0  0  0  0  0  0  0  0
   62.0660   32.7219   45.9588 H   0  0  0  0  0  0  0  0  0  0  0  0
   58.6534   33.3168   49.6479 H   0  0  0  0  0  0  0  0  0  0  0  0
   57.1674   32.2710   49.4575 H   0  0  0  0  0  0  0  0  0  0  0  0
   59.3294   31.5859   50.9717 H   0  0  0  0  0  0  0  0  0  0  0  0
   58.1971   30.4135   50.1681 H   0  0  0  0  0  0  0  0  0  0  0  0
   60.8549   31.4017   49.0499 H   0  0  0  0  0  0  0  0  0  0  0  0
   60.5102   29.7743   49.7876 H   0  0  0  0  0  0  0  0  0  0  0  0
   59.0875   28.3837   49.0905 H   0  0  0  0  0  0  0  0  0  0  0  0
   58.1745   28.4853   47.5469 H   0  0  0  0  0  0  0  0  0  0  0  0
   59.8784   27.9166   47.5469 H   0  0  0  0  0  0  0  0  0  0  0  0
   61.8049   29.9811   47.5176 H   0  0  0  0  0  0  0  0  0  0  0  0
   60.8450   29.1201   46.2671 H   0  0  0  0  0  0  0  0  0  0  0  0
   60.9156   30.9150   46.2671 H   0  0  0  0  0  0  0  0  0  0  0  0
   57.5840   30.4101   47.6257 H   0  0  0  0  0  0  0  0  0  0  0  0
   55.3623   29.9905   44.1613 H   0  0  0  0  0  0  0  0  0  0  0  0
   56.9491   30.0049   43.3157 H   0  0  0  0  0  0  0  0  0  0  0  0
   58.8393   28.1765   44.1370 H   0  0  0  0  0  0  0  0  0  0  0  0
   58.5373   25.8780   45.5296 H   0  0  0  0  0  0  0  0  0  0  0  0
   56.0767   25.9417   46.5758 H   0  0  0  0  0  0  0  0  0  0  0  0
   60.6349   33.9951   49.8388 H   0  0  0  0  0  0  0  0  0  0  0  0
   62.9487   33.8318   50.7466 H   0  0  0  0  0  0  0  0  0  0  0  0
  1  2  1  0
  2  3  2  0
  3  4  1  0
  4  5  2  0
  5  6  1  0
  6  7  2  0
  6  8  2  0
  6  9  1  0
  9 10  1  0
 10 11  1  0
 11 12  1  0
 12 13  1  0
 13 14  1  0
 13 15  1  0
 13 16  1  0
 16 17  1  0
 17 18  2  0
 17 19  1  0
 19 20  1  0
 20 21  1  0
 21 22  2  0
 22 23  1  0
 23 24  2  0
 24 25  1  0
  5 26  1  0
 26 27  2  0
 27  2  1  0
 16  9  1  0
 25 21  1  0
  1 28  1  0
  1 29  1  0
  1 30  1  0
  3 31  1  0
  4 32  1  0
 10 33  1  0
 10 34  1  0
 11 35  1  0
 11 36  1  0
 12 37  1  0
 12 38  1  0
 14 39  1  0
 14 40  1  0
 14 41  1  0
 15 42  1  0
 15 43  1  0
 15 44  1  0
 16 45  1  1
 20 46  1  0
 20 47  1  0
 22 48  1  0
 23 49  1  0
 24 50  1  0
 26 51  1  0
 27 52  1  0
M  CHG  1  19  -1
M  END
>  <UniqueID>  (64) 
54

>  <SMILES>  (64) 
Cc1ccc(S(=O)(=O)N2CCCC(C)(C)[C@@H]2C(=O)[N-]Cc2ccco2)cc1

>  <Energy>  (64) 
96.89058566063919

>  <Genealogy>  (64) 
Cc1ccc(S(=O)(=O)N2CCCC(C)(C)C2C(=O)[N-]Cc2ccco2)cc1 (protonated)
Cc1ccc(S(=O)(=O)N2CCCC(C)(C)[C@@H]2C(=O)[N-]Cc2ccco2)cc1 (chirality)
Cc1ccc(S(=O)(=O)N2CCCC(C)(C)[C@@H]2C(=O)[N-]Cc2ccco2)cc1 (3D coordinates assigned)
Cc1ccc(S(=O)(=O)N2CCCC(C)(C)[C@@H]2C(=O)[N-]Cc2ccco2)cc1 (nonaromatic ring conformer: 96.89058566063919 kcal/mol)

>  <smiles>  (64) 
Cc1ccc(S(=O)(=O)N2CCCC(C)(C)C2C(=O)NCc2ccco2)cc1

>  <score_type>  (64) 
oracle

>  <origin>  (64) 
adg

>  <m_score__min__energy>  (64) 
-11.06

>  <m_primary>  (64) 
energy

$$$$
64:0
     RDKit          3D

 62 65  0  0  0  0  0  0  0  0999 V2000
   64.7470   32.3320   49.5440 C   0  0  0  0  0  0  0  0  0  0  0  0
   63.9640   31.9710   48.4130 O   0  0  0  0  0  0  0  0  0  0  0  0
   62.8360   32.6680   47.9620 C   0  0  0  0  0  0  0  0  0  0  0  0
   62.8780   33.4340   46.7900 C   0  0  0  0  0  0  0  0  0  0  0  0
   61.7840   34.1960   46.3980 C   0  0  0  0  0  0  0  0  0  0  0  0
   60.6170   34.2090   47.1740 C   0  0  0  0  0  0  0  0  0  0  0  0
   59.4310   35.0300   46.7250 C   0  0  0  0  0  0  0  0  0  0  0  0
   58.8220   34.3880   45.5610 N   0  0  0  0  0  0  0  0  0  0  0  0
   57.7820   33.4010   45.6220 C   0  0  0  0  0  0  0  0  0  0  0  0
   56.6340   33.7190   46.0190 O   0  0  0  0  0  0  0  0  0  0  0  0
   58.0880   31.9890   45.2890 C   0  0  0  0  0  0  0  0  0  0  0  0
   57.4120   31.3350   44.2400 C   0  0  0  0  0  0  0  0  0  0  0  0
   57.6580   29.9840   43.9670 C   0  0  0  0  0  0  0  0  0  0  0  0
   58.5690   29.2660   44.7430 C   0  0  0  0  0  0  0  0  0  0  0  0
   59.2420   29.8940   45.8050 C   0  0  0  0  0  0  0  0  0  0  0  0
   60.1820   29.1050   46.6820 C   0  0  0  0  0  0  0  0  0  0  0  0
   59.4670   28.0960   47.4070 O   0  0  0  0  0  0  0  0  0  0  0  0
   58.8460   26.9810   46.8180 C   0  0  0  0  0  0  0  0  0  0  0  0
   59.5800   25.9220   46.2420 C   0  0  0  0  0  0  0  0  0  0  0  0
   58.9260   24.8400   45.6390 C   0  0  0  0  0  0  0  0  0  0  0  0
   57.5170   24.7940   45.6010 C   0  0  0  0  0  0  0  0  0  0  0  0
   56.8000   23.7250   45.0040 C   0  0  0  0  0  0  0  0  0  0  0  0
   57.4980   22.5510   44.3660 C   0  0  0  0  0  0  0  0  0  0  0  0
   55.3970   23.7730   45.0040 C   0  0  0  0  0  0  0  0  0  0  0  0
   54.7470   24.8660   45.5870 C   0  0  0  0  0  0  0  0  0  0  0  0
   53.4870   24.9190   45.5910 O   0  0  0  0  0  0  0  0  0  0  0  0
   55.4480   25.8500   46.1490 O   0  0  0  0  0  0  0  0  0  0  0  0
   56.7790   25.8590   46.1820 C   0  0  0  0  0  0  0  0  0  0  0  0
   57.4470   26.9310   46.8000 C   0  0  0  0  0  0  0  0  0  0  0  0
   59.0060   31.2530   46.0620 C   0  0  0  0  0  0  0  0  0  0  0  0
   60.5370   33.4180   48.3400 C   0  0  0  0  0  0  0  0  0  0  0  0
   59.3270   33.4560   49.0590 O   0  0  0  0  0  0  0  0  0  0  0  0
   58.5110   32.3520   49.4330 C   0  0  0  0  0  0  0  0  0  0  0  0
   61.6490   32.6280   48.7250 C   0  0  0  0  0  0  0  0  0  0  0  0
   61.5630   31.8220   49.8700 O   0  0  0  0  0  0  0  0  0  0  0  0
   61.4490   30.4040   49.8350 C   0  0  0  0  0  0  0  0  0  0  0  0
   64.1999   32.0798   50.4643 H   0  0  0  0  0  0  0  0  0  0  0  0
   65.6994   31.7821   49.5212 H   0  0  0  0  0  0  0  0  0  0  0  0
   64.9473   33.4134   49.5212 H   0  0  0  0  0  0  0  0  0  0  0  0
   63.7882   33.4323   46.1723 H   0  0  0  0  0  0  0  0  0  0  0  0
   61.8342   34.7916   45.4746 H   0  0  0  0  0  0  0  0  0  0  0  0
   58.6948   35.0911   47.5400 H   0  0  0  0  0  0  0  0  0  0  0  0
   59.7605   36.0455   46.4599 H   0  0  0  0  0  0  0  0  0  0  0  0
   56.6845   31.8907   43.6301 H   0  0  0  0  0  0  0  0  0  0  0  0
   57.1318   29.4871   43.1386 H   0  0  0  0  0  0  0  0  0  0  0  0
   58.7609   28.2055   44.5228 H   0  0  0  0  0  0  0  0  0  0  0  0
   60.9464   28.6253   46.0531 H   0  0  0  0  0  0  0  0  0  0  0  0
   60.6560   29.7898   47.4006 H   0  0  0  0  0  0  0  0  0  0  0  0
   60.6794   25.9467   46.2669 H   0  0  0  0  0  0  0  0  0  0  0  0
   59.5134   24.0235   45.1936 H   0  0  0  0  0  0  0  0  0  0  0  0
   57.8921   21.8882   45.1505 H   0  0  0  0  0  0  0  0  0  0  0  0
   56.7836   21.9951   43.7410 H   0  0  0  0  0  0  0  0  0  0  0  0
   58.3276   22.9131   43.7410 H   0  0  0  0  0  0  0  0  0  0  0  0
   54.8139   22.9584   44.5496 H   0  0  0  0  0  0  0  0  0  0  0  0
   56.8659   27.7364   47.2729 H   0  0  0  0  0  0  0  0  0  0  0  0
   59.5467   31.7511   46.8802 H   0  0  0  0  0  0  0  0  0  0  0  0
   58.4628   32.2867   50.5300 H   0  0  0  0  0  0  0  0  0  0  0  0
   57.4974   32.4917   49.0291 H   0  0  0  0  0  0  0  0  0  0  0  0
   58.9420   31.4240   49.0291 H   0  0  0  0  0  0  0  0  0  0  0  0
   61.4176   30.0132   50.8628 H   0  0  0  0  0  0  0  0  0  0  0  0
   60.5254   30.1233   49.3076 H   0  0  0  0  0  0  0  0  0  0  0  0
   62.3159   29.9794   49.3076 H   0  0  0  0  0  0  0  0  0  0  0  0
  1  2  1  0
  2  3  1  0
  3  4  2  0
  4  5  1  0
  5  6  2  0
  6  7  1  0
  7  8  1  0
  8  9  1  0
  9 10  2  0
  9 11  1  0
 11 12  2  0
 12 13  1  0
 13 14  2  0
 14 15  1  0
 15 16  1  0
 16 17  1  0
 17 18  1  0
 18 19  2  0
 19 20  1  0
 20 21  2  0
 21 22  1  0
 22 23  1  0
 22 24  2  0
 24 25  1  0
 25 26  2  0
 25 27  1  0
 27 28  1  0
 28 29  2  0
 15 30  2  0
  6 31  1  0
 31 32  1  0
 32 33  1  0
 31 34  2  0
 34 35  1  0
 35 36  1  0
 34  3  1  0
 30 11  1  0
 29 18  1  0
 28 21  1  0
  1 37  1  0
  1 38  1  0
  1 39  1  0
  4 40  1  0
  5 41  1  0
  7 42  1  0
  7 43  1  0
 12 44  1  0
 13 45  1  0
 14 46  1  0
 16 47  1  0
 16 48  1  0
 19 49  1  0
 20 50  1  0
 23 51  1  0
 23 52  1  0
 23 53  1  0
 24 54  1  0
 29 55  1  0
 30 56  1  0
 33 57  1  0
 33 58  1  0
 33 59  1  0
 36 60  1  0
 36 61  1  0
 36 62  1  0
M  CHG  1   8  -1
M  END
>  <UniqueID>  (65) 
55

>  <SMILES>  (65) 
COc1ccc(C[N-]C(=O)c2cccc(COc3ccc4c(C)cc(=O)oc4c3)c2)c(OC)c1OC

>  <Energy>  (65) 
77.5563286717108

>  <Genealogy>  (65) 
COc1ccc(C[N-]C(=O)c2cccc(COc3ccc4c(C)cc(=O)oc4c3)c2)c(OC)c1OC (protonated)
COc1ccc(C[N-]C(=O)c2cccc(COc3ccc4c(C)cc(=O)oc4c3)c2)c(OC)c1OC (3D coordinates assigned)
COc1ccc(C[N-]C(=O)c2cccc(COc3ccc4c(C)cc(=O)oc4c3)c2)c(OC)c1OC (optimized conformer: 77.5563286717108 kcal/mol)

>  <smiles>  (65) 
COc1ccc(CNC(=O)c2cccc(COc3ccc4c(C)cc(=O)oc4c3)c2)c(OC)c1OC

>  <score_type>  (65) 
oracle

>  <origin>  (65) 
adg

>  <m_score__min__energy>  (65) 
-10.01

>  <m_primary>  (65) 
energy

$$$$
65:0
     RDKit          3D

 58 61  0  0  0  0  0  0  0  0999 V2000
   58.5220   29.7780   50.2140 C   0  0  0  0  0  0  0  0  0  0  0  0
   58.4240   29.5340   48.8150 O   0  0  0  0  0  0  0  0  0  0  0  0
   59.4670   29.7310   47.8980 C   0  0  0  0  0  0  0  0  0  0  0  0
   60.7460   30.1560   48.3100 C   0  0  0  0  0  0  0  0  0  0  0  0
   61.7680   30.3280   47.3740 C   0  0  0  0  0  0  0  0  0  0  0  0
   61.5280   30.0830   46.0220 C   0  0  0  0  0  0  0  0  0  0  0  0
   60.2660   29.6600   45.6030 C   0  0  0  0  0  0  0  0  0  0  0  0
   59.2310   29.4800   46.5320 C   0  0  0  0  0  0  0  0  0  0  0  0
   57.9030   29.0370   46.0510 C   0  0  0  0  0  0  0  0  0  0  0  0
   57.0060   29.8060   45.3080 C   0  0  0  0  0  0  0  0  0  0  0  0
   57.1680   31.2120   44.8710 C   0  0  0  0  0  0  0  0  0  0  0  0
   56.6390   31.5870   43.7890 O   0  0  0  0  0  0  0  0  0  0  0  0
   57.8920   32.2110   45.6900 C   0  0  0  0  0  0  0  0  0  0  0  0
   57.7680   32.1300   47.0870 C   0  0  0  0  0  0  0  0  0  0  0  0
   58.4510   33.0230   47.9130 C   0  0  0  0  0  0  0  0  0  0  0  0
   59.2570   34.0160   47.3580 C   0  0  0  0  0  0  0  0  0  0  0  0
   59.3740   34.1270   45.9740 C   0  0  0  0  0  0  0  0  0  0  0  0
   58.6830   33.2490   45.1230 C   0  0  0  0  0  0  0  0  0  0  0  0
   58.8310   33.4450   43.6360 C   0  0  0  0  0  0  0  0  0  0  0  0
   55.9390   28.9700   45.0300 C   0  0  0  0  0  0  0  0  0  0  0  0
   54.8120   29.2780   44.2770 O   0  0  0  0  0  0  0  0  0  0  0  0
   56.2020   27.7610   45.6250 C   0  0  0  0  0  0  0  0  0  0  0  0
   55.3530   26.6620   45.6120 O   0  0  0  0  0  0  0  0  0  0  0  0
   57.4000   27.7900   46.2420 N   0  0  0  0  0  0  0  0  0  0  0  0
   57.9230   26.7410   47.1250 C   0  0  0  0  0  0  0  0  0  0  0  0
   58.7160   25.7110   46.3180 C   0  0  0  0  0  0  0  0  0  0  0  0
   58.1900   24.3520   46.5810 N   0  0  0  0  0  0  0  0  0  0  0  0
   56.7320   24.2560   46.3760 C   0  0  0  0  0  0  0  0  0  0  0  0
   56.3640   24.3260   44.8760 C   0  0  0  0  0  0  0  0  0  0  0  0
   57.4870   24.1800   44.0260 O   0  0  0  0  0  0  0  0  0  0  0  0
   58.2550   23.0650   44.4270 C   0  0  0  0  0  0  0  0  0  0  0  0
   58.9010   23.3090   45.8060 C   0  0  0  0  0  0  0  0  0  0  0  0
   58.1674   28.8950   50.7659 H   0  0  0  0  0  0  0  0  0  0  0  0
   59.5706   29.9790   50.4786 H   0  0  0  0  0  0  0  0  0  0  0  0
   57.9037   30.6485   50.4786 H   0  0  0  0  0  0  0  0  0  0  0  0
   60.9403   30.3533   49.3746 H   0  0  0  0  0  0  0  0  0  0  0  0
   62.7644   30.6574   47.7036 H   0  0  0  0  0  0  0  0  0  0  0  0
   62.3335   30.2232   45.2861 H   0  0  0  0  0  0  0  0  0  0  0  0
   60.0816   29.4663   44.5360 H   0  0  0  0  0  0  0  0  0  0  0  0
   57.1268   31.3557   47.5335 H   0  0  0  0  0  0  0  0  0  0  0  0
   58.3533   32.9434   49.0058 H   0  0  0  0  0  0  0  0  0  0  0  0
   59.8009   34.7123   48.0132 H   0  0  0  0  0  0  0  0  0  0  0  0
   60.0145   34.9107   45.5433 H   0  0  0  0  0  0  0  0  0  0  0  0
   59.4836   34.3093   43.4432 H   0  0  0  0  0  0  0  0  0  0  0  0
   59.2755   32.5432   43.1897 H   0  0  0  0  0  0  0  0  0  0  0  0
   57.8420   33.6256   43.1897 H   0  0  0  0  0  0  0  0  0  0  0  0
   58.5823   27.1968   47.8784 H   0  0  0  0  0  0  0  0  0  0  0  0
   57.0792   26.2356   47.6174 H   0  0  0  0  0  0  0  0  0  0  0  0
   58.6224   25.9372   45.2456 H   0  0  0  0  0  0  0  0  0  0  0  0
   59.7740   25.7540   46.6159 H   0  0  0  0  0  0  0  0  0  0  0  0
   56.3756   23.3000   46.7871 H   0  0  0  0  0  0  0  0  0  0  0  0
   56.2552   25.1049   46.8879 H   0  0  0  0  0  0  0  0  0  0  0  0
   55.6476   23.5218   44.6524 H   0  0  0  0  0  0  0  0  0  0  0  0
   55.9343   25.3209   44.6875 H   0  0  0  0  0  0  0  0  0  0  0  0
   57.6030   22.1810   44.4861 H   0  0  0  0  0  0  0  0  0  0  0  0
   59.0539   22.9044   43.6881 H   0  0  0  0  0  0  0  0  0  0  0  0
   58.8824   22.3690   46.3771 H   0  0  0  0  0  0  0  0  0  0  0  0
   59.9314   23.6562   45.6392 H   0  0  0  0  0  0  0  0  0  0  0  0
  1  2  1  0
  2  3  1  0
  3  4  2  0
  4  5  1  0
  5  6  2  0
  6  7  1  0
  7  8  2  0
  8  9  1  0
  9 10  2  0
 10 11  1  0
 11 12  2  0
 11 13  1  0
 13 14  2  0
 14 15  1  0
 15 16  2  0
 16 17  1  0
 17 18  2  0
 18 19  1  0
 10 20  1  0
 20 21  1  0
 20 22  2  0
 22 23  1  0
 22 24  1  0
 24 25  1  0
 25 26  1  0
 26 27  1  0
 27 28  1  0
 28 29  1  0
 29 30  1  0
 30 31  1  0
 31 32  1  0
  8  3  1  0
 24  9  1  0
 32 27  1  0
 18 13  1  0
  1 33  1  0
  1 34  1  0
  1 35  1  0
  4 36  1  0
  5 37  1  0
  6 38  1  0
  7 39  1  0
 14 40  1  0
 15 41  1  0
 16 42  1  0
 17 43  1  0
 19 44  1  0
 19 45  1  0
 19 46  1  0
 25 47  1  0
 25 48  1  0
 26 49  1  0
 26 50  1  0
 28 51  1  0
 28 52  1  0
 29 53  1  0
 29 54  1  0
 31 55  1  0
 31 56  1  0
 32 57  1  0
 32 58  1  0
M  CHG  2  21  -1  23  -1
M  END
>  <UniqueID>  (66) 
56

>  <SMILES>  (66) 
COc1ccccc1-c1c(C(=O)c2ccccc2C)c([O-])c([O-])n1CCN1CCOCC1

>  <Energy>  (66) 
109.90097503054476

>  <Genealogy>  (66) 
COc1ccccc1-c1c(C(=O)c2ccccc2C)c([O-])c([O-])n1CCN1CCOCC1 (protonated)
COc1ccccc1-c1c(C(=O)c2ccccc2C)c([O-])c([O-])n1CCN1CCOCC1 (3D coordinates assigned)
COc1ccccc1-c1c(C(=O)c2ccccc2C)c([O-])c([O-])n1CCN1CCOCC1 (nonaromatic ring conformer: 109.90097503054476 kcal/mol)

>  <smiles>  (66) 
COc1ccccc1-c1c(C(=O)c2ccccc2C)c(O)c(O)n1CCN1CCOCC1

>  <score_type>  (66) 
oracle

>  <origin>  (66) 
adg

>  <m_score__min__energy>  (66) 
-12.18

>  <m_primary>  (66) 
energy

$$$$
66:0
     RDKit          3D

 49 52  0  0  0  0  0  0  0  0999 V2000
   60.0350   33.3660   51.9870 C   0  0  0  0  0  0  0  0  0  0  0  0
   60.5050   33.5880   50.5850 C   0  0  0  0  0  0  0  0  0  0  0  0
   59.6390   34.1170   49.6250 C   0  0  0  0  0  0  0  0  0  0  0  0
   60.0770   34.3060   48.3040 C   0  0  0  0  0  0  0  0  0  0  0  0
   59.0900   34.8560   47.2930 C   0  0  0  0  0  0  0  0  0  0  0  0
   58.6530   33.7910   46.3180 C   0  0  0  0  0  0  0  0  0  0  0  0
   58.2110   34.1400   45.0320 C   0  0  0  0  0  0  0  0  0  0  0  0
   57.8130   33.1490   44.1320 C   0  0  0  0  0  0  0  0  0  0  0  0
   57.8310   31.8060   44.5110 C   0  0  0  0  0  0  0  0  0  0  0  0
   58.2330   31.4390   45.8080 C   0  0  0  0  0  0  0  0  0  0  0  0
   58.2740   30.0620   46.2180 N   0  0  0  0  0  0  0  0  0  0  0  0
   57.3780   29.0520   45.7270 C   0  0  0  0  0  0  0  0  0  0  0  0
   56.2700   29.3880   45.2270 O   0  0  0  0  0  0  0  0  0  0  0  0
   57.7090   27.6150   45.8650 C   0  0  0  0  0  0  0  0  0  0  0  0
   59.0570   27.2120   45.9220 C   0  0  0  0  0  0  0  0  0  0  0  0
   59.3890   25.8590   46.0450 C   0  0  0  0  0  0  0  0  0  0  0  0
   58.3810   24.8960   46.1250 C   0  0  0  0  0  0  0  0  0  0  0  0
   57.0400   25.2820   46.0850 C   0  0  0  0  0  0  0  0  0  0  0  0
   56.6990   26.6330   45.9600 C   0  0  0  0  0  0  0  0  0  0  0  0
   55.3870   26.9780   45.9750 F   0  0  0  0  0  0  0  0  0  0  0  0
   58.6520   32.4380   46.7000 C   0  0  0  0  0  0  0  0  0  0  0  0
   61.4050   33.9360   47.9610 C   0  0  0  0  0  0  0  0  0  0  0  0
   61.9210   34.0850   46.6570 C   0  0  0  0  0  0  0  0  0  0  0  0
   63.2310   33.7020   46.3660 C   0  0  0  0  0  0  0  0  0  0  0  0
   64.0490   33.1690   47.3610 C   0  0  0  0  0  0  0  0  0  0  0  0
   63.5670   33.0110   48.6660 C   0  0  0  0  0  0  0  0  0  0  0  0
   64.4260   32.4590   49.6720 N   0  0  0  0  0  0  0  0  0  0  0  0
   62.2450   33.3940   48.9700 C   0  0  0  0  0  0  0  0  0  0  0  0
   61.7690   33.2380   50.2350 N   0  0  0  0  0  0  0  0  0  0  0  0
   60.7990   33.7269   52.6913 H   0  0  0  0  0  0  0  0  0  0  0  0
   59.0965   33.9160   52.1505 H   0  0  0  0  0  0  0  0  0  0  0  0
   59.8637   32.2918   52.1505 H   0  0  0  0  0  0  0  0  0  0  0  0
   58.6099   34.3866   49.9048 H   0  0  0  0  0  0  0  0  0  0  0  0
   58.2068   35.2381   47.8258 H   0  0  0  0  0  0  0  0  0  0  0  0
   59.5832   35.6615   46.7292 H   0  0  0  0  0  0  0  0  0  0  0  0
   58.1780   35.1978   44.7322 H   0  0  0  0  0  0  0  0  0  0  0  0
   57.4840   33.4282   43.1202 H   0  0  0  0  0  0  0  0  0  0  0  0
   57.5292   31.0304   43.7917 H   0  0  0  0  0  0  0  0  0  0  0  0
   58.9210   29.8030   46.9970 H   0  0  0  0  0  0  0  0  0  0  0  0
   59.8551   27.9672   45.8694 H   0  0  0  0  0  0  0  0  0  0  0  0
   60.4451   25.5532   46.0787 H   0  0  0  0  0  0  0  0  0  0  0  0
   58.6439   23.8321   46.2196 H   0  0  0  0  0  0  0  0  0  0  0  0
   56.2485   24.5210   46.1520 H   0  0  0  0  0  0  0  0  0  0  0  0
   58.9839   32.1589   47.7109 H   0  0  0  0  0  0  0  0  0  0  0  0
   61.2862   34.5062   45.8635 H   0  0  0  0  0  0  0  0  0  0  0  0
   63.6208   33.8215   45.3444 H   0  0  0  0  0  0  0  0  0  0  0  0
   65.0798   32.8706   47.1193 H   0  0  0  0  0  0  0  0  0  0  0  0
   64.0850   32.3350   50.6520 H   0  0  0  0  0  0  0  0  0  0  0  0
   65.4030   32.1650   49.4570 H   0  0  0  0  0  0  0  0  0  0  0  0
  1  2  1  0
  2  3  2  0
  3  4  1  0
  4  5  1  0
  5  6  1  0
  6  7  2  0
  7  8  1  0
  8  9  2  0
  9 10  1  0
 10 11  1  0
 11 12  1  0
 12 13  2  0
 12 14  1  0
 14 15  2  0
 15 16  1  0
 16 17  2  0
 17 18  1  0
 18 19  2  0
 19 20  1  0
 10 21  2  0
  4 22  2  0
 22 23  1  0
 23 24  2  0
 24 25  1  0
 25 26  2  0
 26 27  1  0
 26 28  1  0
 28 29  2  0
 29  2  1  0
 21  6  1  0
 28 22  1  0
 19 14  1  0
  1 30  1  0
  1 31  1  0
  1 32  1  0
  3 33  1  0
  5 34  1  0
  5 35  1  0
  7 36  1  0
  8 37  1  0
  9 38  1  0
 11 39  1  0
 15 40  1  0
 16 41  1  0
 17 42  1  0
 18 43  1  0
 21 44  1  0
 23 45  1  0
 24 46  1  0
 25 47  1  0
 27 48  1  0
 27 49  1  0
M  END
>  <UniqueID>  (67) 
57

>  <SMILES>  (67) 
Cc1cc(Cc2cccc(NC(=O)c3ccccc3F)c2)c2cccc(N)c2n1

>  <Energy>  (67) 
63.917410994360004

>  <Genealogy>  (67) 
Cc1cc(Cc2cccc(NC(=O)c3ccccc3F)c2)c2cccc(N)c2n1 (3D coordinates assigned)
Cc1cc(Cc2cccc(NC(=O)c3ccccc3F)c2)c2cccc(N)c2n1 (optimized conformer: 63.917410994360004 kcal/mol)

>  <smiles>  (67) 
Cc1cc(Cc2cccc(NC(=O)c3ccccc3F)c2)c2cccc(N)c2n1

>  <score_type>  (67) 
oracle

>  <origin>  (67) 
adg

>  <m_score__min__energy>  (67) 
-9.5500000000000007

>  <m_primary>  (67) 
energy

$$$$
67:0
     RDKit          3D

 48 51  0  0  0  0  0  0  0  0999 V2000
   52.1330   20.4640   44.8990 H   0  0  0  0  0  0  0  0  0  0  0  0
   51.7110   20.9210   45.7380 N   0  0  0  0  0  0  0  0  0  0  0  0
   51.8540   22.6280   45.5070 S   0  0  0  0  0  0  0  0  0  0  0  0
   50.9660   23.3430   46.4870 O   0  0  0  0  0  0  0  0  0  0  0  0
   51.4170   22.9830   44.1130 O   0  0  0  0  0  0  0  0  0  0  0  0
   53.5280   23.1170   45.7500 C   0  0  0  0  0  0  0  0  0  0  0  0
   53.9680   24.3720   45.3110 C   0  0  0  0  0  0  0  0  0  0  0  0
   53.2666   25.0532   44.8070 H   0  0  0  0  0  0  0  0  0  0  0  0
   55.2950   24.7620   45.5110 C   0  0  0  0  0  0  0  0  0  0  0  0
   55.6379   25.7402   45.1430 H   0  0  0  0  0  0  0  0  0  0  0  0
   56.1920   23.9160   46.1770 C   0  0  0  0  0  0  0  0  0  0  0  0
   57.5570   24.3420   46.3320 N   0  0  0  0  0  0  0  0  0  0  0  0
   57.9740   25.5530   46.5580 C   0  0  0  0  0  0  0  0  0  0  0  0
   58.5260   25.9040   47.7530 N   0  0  0  0  0  0  0  0  0  0  0  0
   58.9270   27.1540   47.9850 N   0  0  0  0  0  0  0  0  0  0  0  0
   58.7940   28.1190   47.0410 C   0  0  0  0  0  0  0  0  0  0  0  0
   59.2150   29.4260   47.2910 C   0  0  0  0  0  0  0  0  0  0  0  0
   59.6660   29.6799   48.2616 H   0  0  0  0  0  0  0  0  0  0  0  0
   59.0650   30.4200   46.3070 C   0  0  0  0  0  0  0  0  0  0  0  0
   59.5110   31.8120   46.5710 C   0  0  0  0  0  0  0  0  0  0  0  0
   58.5740   32.8580   46.6600 C   0  0  0  0  0  0  0  0  0  0  0  0
   57.5021   32.6433   46.5374 H   0  0  0  0  0  0  0  0  0  0  0  0
   58.9960   34.1670   46.9030 C   0  0  0  0  0  0  0  0  0  0  0  0
   58.2564   34.9786   46.9693 H   0  0  0  0  0  0  0  0  0  0  0  0
   60.3550   34.4480   47.0620 C   0  0  0  0  0  0  0  0  0  0  0  0
   60.6832   35.4812   47.2483 H   0  0  0  0  0  0  0  0  0  0  0  0
   61.3000   33.4190   46.9850 C   0  0  0  0  0  0  0  0  0  0  0  0
   63.0150   33.7750   47.1630 S   0  0  0  0  0  0  0  0  0  0  0  0
   63.2440   34.5500   48.4300 O   0  0  0  0  0  0  0  0  0  0  0  0
   63.4880   34.6030   46.0020 O   0  0  0  0  0  0  0  0  0  0  0  0
   63.9120   32.2980   47.2210 N   0  0  0  0  0  0  0  0  0  0  0  0
   64.5380   32.3540   48.0560 H   0  0  0  0  0  0  0  0  0  0  0  0
   64.5310   32.2850   46.3800 H   0  0  0  0  0  0  0  0  0  0  0  0
   60.8780   32.1060   46.7330 C   0  0  0  0  0  0  0  0  0  0  0  0
   61.6216   31.2986   46.6613 H   0  0  0  0  0  0  0  0  0  0  0  0
   58.4870   30.0770   45.0700 C   0  0  0  0  0  0  0  0  0  0  0  0
   58.3661   30.8488   44.2956 H   0  0  0  0  0  0  0  0  0  0  0  0
   58.0620   28.7620   44.8100 C   0  0  0  0  0  0  0  0  0  0  0  0
   57.4480   28.4160   43.4810 C   0  0  0  0  0  0  0  0  0  0  0  0
   56.5001   27.8819   43.6429 H   0  0  0  0  0  0  0  0  0  0  0  0
   57.2565   29.3390   42.9141 H   0  0  0  0  0  0  0  0  0  0  0  0
   58.1384   27.7741   42.9141 H   0  0  0  0  0  0  0  0  0  0  0  0
   58.2170   27.7810   45.8050 C   0  0  0  0  0  0  0  0  0  0  0  0
   57.8160   26.4990   45.5960 N   0  0  0  0  0  0  0  0  0  0  0  0
   55.7540   22.6470   46.5980 C   0  0  0  0  0  0  0  0  0  0  0  0
   56.4583   21.9590   47.0885 H   0  0  0  0  0  0  0  0  0  0  0  0
   54.4260   22.2570   46.3950 C   0  0  0  0  0  0  0  0  0  0  0  0
   54.0855   21.2708   46.7434 H   0  0  0  0  0  0  0  0  0  0  0  0
  1  2  1  0
  2  3  1  0
  3  4  2  0
  3  5  2  0
  3  6  1  0
  6  7  2  0
  7  8  1  0
  7  9  1  0
  9 10  1  0
  9 11  2  0
 11 12  1  0
 12 13  2  0
 13 14  1  0
 14 15  2  0
 15 16  1  0
 16 17  2  0
 17 18  1  0
 17 19  1  0
 19 20  1  0
 20 21  2  0
 21 22  1  0
 21 23  1  0
 23 24  1  0
 23 25  2  0
 25 26  1  0
 25 27  1  0
 27 28  1  0
 28 29  2  0
 28 30  2  0
 28 31  1  0
 31 32  1  0
 31 33  1  0
 27 34  2  0
 34 35  1  0
 19 36  2  0
 36 37  1  0
 36 38  1  0
 38 39  1  0
 39 40  1  0
 39 41  1  0
 39 42  1  0
 38 43  2  0
 43 44  1  0
 11 45  1  0
 45 46  1  0
 45 47  2  0
 47 48  1  0
 47  6  1  0
 44 13  1  0
 43 16  1  0
 34 20  1  0
M  CHG  2   2  -1  44  -1
M  END
>  <UniqueID>  (68) 
58

>  <SMILES>  (68) 
Cc1cc(-c2cccc(S(N)(=O)=O)c2)cc2nn/c(=N\c3ccc(S([NH-])(=O)=O)cc3)[n-]c12

>  <Energy>  (68) 
66.7645342677191

>  <Genealogy>  (68) 
Cc1cc(-c2cccc(S(N)(=O)=O)c2)cc2nnc(=Nc3ccc(S([NH-])(=O)=O)cc3)[n-]c12 (protonated)
Cc1cc(-c2cccc(S(N)(=O)=O)c2)cc2nn/c(=N\c3ccc(S([NH-])(=O)=O)cc3)[n-]c12 (cis-trans isomerization)
Cc1cc(-c2cccc(S(N)(=O)=O)c2)cc2nn/c(=N\c3ccc(S([NH-])(=O)=O)cc3)[n-]c12 (3D coordinates assigned)
Cc1cc(-c2cccc(S(N)(=O)=O)c2)cc2nn/c(=N\c3ccc(S([NH-])(=O)=O)cc3)[n-]c12 (optimized conformer: 66.7645342677191 kcal/mol)

>  <smiles>  (68) 
Cc1cc(-c2cccc(S(N)(=O)=O)c2)cc2nnc(=Nc3ccc(S(N)(=O)=O)cc3)[nH]c12

>  <score_type>  (68) 
oracle

>  <origin>  (68) 
adg

>  <m_score__min__energy>  (68) 
-11.99

>  <m_primary>  (68) 
energy

$$$$
68:0
     RDKit          3D

 46 48  0  0  0  0  0  0  0  0999 V2000
   56.0130   24.4970   44.5090 N   0  0  0  0  0  0  0  0  0  0  0  0
   56.0430   25.4690   45.9370 S   0  0  0  0  0  0  0  0  0  0  0  0
   56.0940   24.5860   47.1520 O   0  0  0  0  0  0  0  0  0  0  0  0
   54.7950   26.3040   45.9990 O   0  0  0  0  0  0  0  0  0  0  0  0
   57.4620   26.5130   45.9050 C   0  0  0  0  0  0  0  0  0  0  0  0
   58.6700   26.0810   46.4670 C   0  0  0  0  0  0  0  0  0  0  0  0
   59.7850   26.9220   46.4660 C   0  0  0  0  0  0  0  0  0  0  0  0
   59.7000   28.1980   45.9020 C   0  0  0  0  0  0  0  0  0  0  0  0
   58.5020   28.6400   45.3220 C   0  0  0  0  0  0  0  0  0  0  0  0
   58.4310   29.9660   44.7720 N   0  0  0  0  0  0  0  0  0  0  0  0
   57.2170   30.7330   44.6860 C   0  0  0  0  0  0  0  0  0  0  0  0
   56.1020   30.1760   44.8700 O   0  0  0  0  0  0  0  0  0  0  0  0
   57.2400   32.1240   44.3520 N   0  0  0  0  0  0  0  0  0  0  0  0
   57.6810   33.3910   45.4500 S   0  0  0  0  0  0  0  0  0  0  0  0
   57.6850   34.7000   44.7120 O   0  0  0  0  0  0  0  0  0  0  0  0
   56.6650   33.4530   46.5560 O   0  0  0  0  0  0  0  0  0  0  0  0
   59.2880   33.0970   46.1060 C   0  0  0  0  0  0  0  0  0  0  0  0
   60.2850   34.0760   45.9930 C   0  0  0  0  0  0  0  0  0  0  0  0
   61.5530   33.8520   46.5350 C   0  0  0  0  0  0  0  0  0  0  0  0
   61.8380   32.6550   47.2040 C   0  0  0  0  0  0  0  0  0  0  0  0
   63.1230   32.4650   47.7310 O   0  0  0  0  0  0  0  0  0  0  0  0
   63.5920   33.0030   48.9380 C   0  0  0  0  0  0  0  0  0  0  0  0
   62.8500   33.9490   49.6700 C   0  0  0  0  0  0  0  0  0  0  0  0
   63.3600   34.4750   50.8620 C   0  0  0  0  0  0  0  0  0  0  0  0
   64.6160   34.0700   51.3260 C   0  0  0  0  0  0  0  0  0  0  0  0
   65.2550   34.7320   52.8190 Cl  0  0  0  0  0  0  0  0  0  0  0  0
   65.3650   33.1450   50.5920 C   0  0  0  0  0  0  0  0  0  0  0  0
   64.8560   32.6180   49.4000 C   0  0  0  0  0  0  0  0  0  0  0  0
   60.8450   31.6620   47.2890 C   0  0  0  0  0  0  0  0  0  0  0  0
   59.5770   31.8850   46.7450 C   0  0  0  0  0  0  0  0  0  0  0  0
   57.3750   27.7960   45.3460 C   0  0  0  0  0  0  0  0  0  0  0  0
   56.8500   23.8720   44.5470 H   0  0  0  0  0  0  0  0  0  0  0  0
   56.1560   25.1410   43.6980 H   0  0  0  0  0  0  0  0  0  0  0  0
   58.7407   25.0768   46.9103 H   0  0  0  0  0  0  0  0  0  0  0  0
   60.7315   26.5796   46.9098 H   0  0  0  0  0  0  0  0  0  0  0  0
   60.5785   28.8599   45.9131 H   0  0  0  0  0  0  0  0  0  0  0  0
   59.2910   30.3360   44.3120 H   0  0  0  0  0  0  0  0  0  0  0  0
   60.0684   35.0227   45.4764 H   0  0  0  0  0  0  0  0  0  0  0  0
   62.3331   34.6212   46.4356 H   0  0  0  0  0  0  0  0  0  0  0  0
   61.8657   34.2759   49.3036 H   0  0  0  0  0  0  0  0  0  0  0  0
   62.7727   35.2077   51.4349 H   0  0  0  0  0  0  0  0  0  0  0  0
   66.3558   32.8312   50.9523 H   0  0  0  0  0  0  0  0  0  0  0  0
   65.4528   31.8967   48.8224 H   0  0  0  0  0  0  0  0  0  0  0  0
   61.0675   30.7061   47.7857 H   0  0  0  0  0  0  0  0  0  0  0  0
   58.8038   31.1061   46.8190 H   0  0  0  0  0  0  0  0  0  0  0  0
   56.4211   28.1452   44.9239 H   0  0  0  0  0  0  0  0  0  0  0  0
  1  2  1  0
  2  3  2  0
  2  4  2  0
  2  5  1  0
  5  6  2  0
  6  7  1  0
  7  8  2  0
  8  9  1  0
  9 10  1  0
 10 11  1  0
 11 12  2  0
 11 13  1  0
 13 14  1  0
 14 15  2  0
 14 16  2  0
 14 17  1  0
 17 18  2  0
 18 19  1  0
 19 20  2  0
 20 21  1  0
 21 22  1  0
 22 23  2  0
 23 24  1  0
 24 25  2  0
 25 26  1  0
 25 27  1  0
 27 28  2  0
 20 29  1  0
 29 30  2  0
  9 31  2  0
 31  5  1  0
 30 17  1  0
 28 22  1  0
  1 32  1  0
  1 33  1  0
  6 34  1  0
  7 35  1  0
  8 36  1  0
 10 37  1  0
 18 38  1  0
 19 39  1  0
 23 40  1  0
 24 41  1  0
 27 42  1  0
 28 43  1  0
 29 44  1  0
 30 45  1  0
 31 46  1  0
M  CHG  1  13  -1
M  END
>  <UniqueID>  (69) 
59

>  <SMILES>  (69) 
NS(=O)(=O)c1cccc(NC(=O)[N-]S(=O)(=O)c2ccc(Oc3ccc(Cl)cc3)cc2)c1

>  <Energy>  (69) 
58.98596079245236

>  <Genealogy>  (69) 
NS(=O)(=O)c1cccc(NC(=O)[N-]S(=O)(=O)c2ccc(Oc3ccc(Cl)cc3)cc2)c1 (protonated)
NS(=O)(=O)c1cccc(NC(=O)[N-]S(=O)(=O)c2ccc(Oc3ccc(Cl)cc3)cc2)c1 (3D coordinates assigned)
NS(=O)(=O)c1cccc(NC(=O)[N-]S(=O)(=O)c2ccc(Oc3ccc(Cl)cc3)cc2)c1 (optimized conformer: 58.98596079245236 kcal/mol)

>  <smiles>  (69) 
NS(=O)(=O)c1cccc(NC(=O)NS(=O)(=O)c2ccc(Oc3ccc(Cl)cc3)cc2)c1

>  <score_type>  (69) 
oracle

>  <origin>  (69) 
adg

>  <m_score__min__energy>  (69) 
-11.960000000000001

>  <m_primary>  (69) 
energy

$$$$
69:0
     RDKit          3D

 38 40  0  0  0  0  0  0  0  0999 V2000
   59.1000   34.5950   44.8440 C   0  0  0  0  0  0  0  0  0  0  0  0
   60.0000   34.5220   45.9430 O   0  0  0  0  0  0  0  0  0  0  0  0
   59.6320   34.0080   47.1890 C   0  0  0  0  0  0  0  0  0  0  0  0
   60.3870   34.3220   48.3170 C   0  0  0  0  0  0  0  0  0  0  0  0
   60.0100   33.8090   49.5560 C   0  0  0  0  0  0  0  0  0  0  0  0
   58.8820   32.9760   49.6450 C   0  0  0  0  0  0  0  0  0  0  0  0
   58.4170   32.4100   50.9400 C   0  0  0  0  0  0  0  0  0  0  0  0
   58.6830   33.0520   52.1640 C   0  0  0  0  0  0  0  0  0  0  0  0
   58.2290   32.5020   53.3650 C   0  0  0  0  0  0  0  0  0  0  0  0
   57.5080   31.3080   53.3640 C   0  0  0  0  0  0  0  0  0  0  0  0
   57.2410   30.6440   52.1620 C   0  0  0  0  0  0  0  0  0  0  0  0
   56.4900   29.4220   52.2060 N   0  0  0  0  0  0  0  0  0  0  0  0
   55.1120   29.1330   53.2190 S   0  0  0  0  0  0  0  0  0  0  0  0
   55.4710   29.4510   54.6440 O   0  0  0  0  0  0  0  0  0  0  0  0
   54.7270   27.6830   53.1250 O   0  0  0  0  0  0  0  0  0  0  0  0
   53.7790   30.1720   52.7220 C   0  0  0  0  0  0  0  0  0  0  0  0
   53.7810   30.7850   51.4590 C   0  0  0  0  0  0  0  0  0  0  0  0
   52.7340   31.6340   51.0890 C   0  0  0  0  0  0  0  0  0  0  0  0
   51.6790   31.8710   51.9740 C   0  0  0  0  0  0  0  0  0  0  0  0
   50.6380   32.7130   51.6050 O   0  0  0  0  0  0  0  0  0  0  0  0
   51.6710   31.2600   53.2330 C   0  0  0  0  0  0  0  0  0  0  0  0
   52.7200   30.4130   53.6070 C   0  0  0  0  0  0  0  0  0  0  0  0
   57.7070   31.1940   50.9540 C   0  0  0  0  0  0  0  0  0  0  0  0
   58.1820   32.7100   48.5070 N   0  0  0  0  0  0  0  0  0  0  0  0
   58.5420   33.2050   47.3220 N   0  0  0  0  0  0  0  0  0  0  0  0
   58.0693   34.6786   45.2191 H   0  0  0  0  0  0  0  0  0  0  0  0
   59.3399   35.4766   44.2315 H   0  0  0  0  0  0  0  0  0  0  0  0
   59.1947   33.6862   44.2315 H   0  0  0  0  0  0  0  0  0  0  0  0
   61.2724   34.9689   48.2300 H   0  0  0  0  0  0  0  0  0  0  0  0
   60.5907   34.0541   50.4575 H   0  0  0  0  0  0  0  0  0  0  0  0
   59.2522   33.9932   52.1748 H   0  0  0  0  0  0  0  0  0  0  0  0
   58.4410   33.0128   54.3159 H   0  0  0  0  0  0  0  0  0  0  0  0
   57.1473   30.8861   54.3137 H   0  0  0  0  0  0  0  0  0  0  0  0
   54.6084   30.5968   50.7590 H   0  0  0  0  0  0  0  0  0  0  0  0
   52.7406   32.1160   50.1002 H   0  0  0  0  0  0  0  0  0  0  0  0
   50.8396   31.4457   53.9289 H   0  0  0  0  0  0  0  0  0  0  0  0
   52.7132   29.9354   54.5979 H   0  0  0  0  0  0  0  0  0  0  0  0
   57.5142   30.6672   50.0078 H   0  0  0  0  0  0  0  0  0  0  0  0
  1  2  1  0
  2  3  1  0
  3  4  2  0
  4  5  1  0
  5  6  2  0
  6  7  1  0
  7  8  2  0
  8  9  1  0
  9 10  2  0
 10 11  1  0
 11 12  1  0
 12 13  1  0
 13 14  2  0
 13 15  2  0
 13 16  1  0
 16 17  2  0
 17 18  1  0
 18 19  2  0
 19 20  1  0
 19 21  1  0
 21 22  2  0
 11 23  2  0
  6 24  1  0
 24 25  2  0
 25  3  1  0
 23  7  1  0
 22 16  1  0
  1 26  1  0
  1 27  1  0
  1 28  1  0
  4 29  1  0
  5 30  1  0
  8 31  1  0
  9 32  1  0
 10 33  1  0
 17 34  1  0
 18 35  1  0
 21 36  1  0
 22 37  1  0
 23 38  1  0
M  CHG  2  12  -1  20  -1
M  END
>  <UniqueID>  (70) 
60

>  <SMILES>  (70) 
COc1ccc(-c2cccc([N-]S(=O)(=O)c3ccc([O-])cc3)c2)nn1

>  <Energy>  (70) 
46.59347172528328

>  <Genealogy>  (70) 
COc1ccc(-c2cccc([N-]S(=O)(=O)c3ccc([O-])cc3)c2)nn1 (protonated)
COc1ccc(-c2cccc([N-]S(=O)(=O)c3ccc([O-])cc3)c2)nn1 (3D coordinates assigned)
COc1ccc(-c2cccc([N-]S(=O)(=O)c3ccc([O-])cc3)c2)nn1 (optimized conformer: 46.59347172528328 kcal/mol)

>  <smiles>  (70) 
COc1ccc(-c2cccc(NS(=O)(=O)c3ccc(O)cc3)c2)nn1

>  <score_type>  (70) 
oracle

>  <origin>  (70) 
adg

>  <m_score__min__energy>  (70) 
-12.56

>  <m_primary>  (70) 
energy

$$$$
70:0
     RDKit          3D

 45 47  0  0  0  0  0  0  0  0999 V2000
   54.7720   26.3360   46.0010 N   0  0  0  0  0  0  0  0  0  0  0  0
   56.4340   25.8900   46.1470 S   0  0  0  0  0  0  0  0  0  0  0  0
   56.6480   25.1820   47.4550 O   0  0  0  0  0  0  0  0  0  0  0  0
   56.8060   24.9570   45.0280 O   0  0  0  0  0  0  0  0  0  0  0  0
   57.4390   27.3350   46.0760 C   0  0  0  0  0  0  0  0  0  0  0  0
   58.7740   27.2880   46.4980 C   0  0  0  0  0  0  0  0  0  0  0  0
   59.5600   28.4430   46.4610 C   0  0  0  0  0  0  0  0  0  0  0  0
   59.0220   29.6460   46.0000 C   0  0  0  0  0  0  0  0  0  0  0  0
   57.6870   29.7000   45.5580 C   0  0  0  0  0  0  0  0  0  0  0  0
   57.0840   30.9200   45.1040 N   0  0  0  0  0  0  0  0  0  0  0  0
   57.7550   32.0390   44.5080 C   0  0  0  0  0  0  0  0  0  0  0  0
   57.7170   32.2070   43.2580 O   0  0  0  0  0  0  0  0  0  0  0  0
   58.4460   33.0310   45.3650 C   0  0  0  0  0  0  0  0  0  0  0  0
   58.7880   34.2990   44.8570 C   0  0  0  0  0  0  0  0  0  0  0  0
   59.4300   35.2370   45.6700 C   0  0  0  0  0  0  0  0  0  0  0  0
   59.7410   34.9220   46.9940 C   0  0  0  0  0  0  0  0  0  0  0  0
   59.4180   33.6640   47.5120 C   0  0  0  0  0  0  0  0  0  0  0  0
   59.7920   33.2850   49.1940 S   0  0  0  0  0  0  0  0  0  0  0  0
   58.9780   32.0880   49.6010 O   0  0  0  0  0  0  0  0  0  0  0  0
   59.3980   34.4420   50.0710 O   0  0  0  0  0  0  0  0  0  0  0  0
   61.4940   32.9140   49.3820 N   0  0  0  0  0  0  0  0  0  0  0  0
   61.7930   31.5080   49.0590 C   0  0  0  0  0  0  0  0  0  0  0  0
   61.7450   31.2310   47.5380 C   0  0  0  0  0  0  0  0  0  0  0  0
   61.8340   32.4020   46.7440 O   0  0  0  0  0  0  0  0  0  0  0  0
   62.8110   33.2730   47.2690 C   0  0  0  0  0  0  0  0  0  0  0  0
   62.3440   33.8530   48.6170 C   0  0  0  0  0  0  0  0  0  0  0  0
   58.7700   32.7230   46.6990 C   0  0  0  0  0  0  0  0  0  0  0  0
   56.8970   28.5440   45.6210 C   0  0  0  0  0  0  0  0  0  0  0  0
   54.2160   25.4510   46.0130 H   0  0  0  0  0  0  0  0  0  0  0  0
   59.2037   26.3418   46.8586 H   0  0  0  0  0  0  0  0  0  0  0  0
   60.6069   28.4041   46.7965 H   0  0  0  0  0  0  0  0  0  0  0  0
   59.6430   30.5537   45.9822 H   0  0  0  0  0  0  0  0  0  0  0  0
   58.5484   34.5528   43.8138 H   0  0  0  0  0  0  0  0  0  0  0  0
   59.6910   36.2261   45.2656 H   0  0  0  0  0  0  0  0  0  0  0  0
   60.2416   35.6656   47.6316 H   0  0  0  0  0  0  0  0  0  0  0  0
   62.7996   31.2662   49.4308 H   0  0  0  0  0  0  0  0  0  0  0  0
   61.0259   30.8825   49.5389 H   0  0  0  0  0  0  0  0  0  0  0  0
   62.5852   30.5703   47.2783 H   0  0  0  0  0  0  0  0  0  0  0  0
   60.7689   30.7707   47.3250 H   0  0  0  0  0  0  0  0  0  0  0  0
   63.7488   32.7178   47.4186 H   0  0  0  0  0  0  0  0  0  0  0  0
   62.9701   34.0995   46.5607 H   0  0  0  0  0  0  0  0  0  0  0  0
   63.2306   34.0962   49.2210 H   0  0  0  0  0  0  0  0  0  0  0  0
   61.7394   34.7463   48.4014 H   0  0  0  0  0  0  0  0  0  0  0  0
   58.5126   31.7349   47.1080 H   0  0  0  0  0  0  0  0  0  0  0  0
   55.8426   28.5864   45.3106 H   0  0  0  0  0  0  0  0  0  0  0  0
  1  2  1  0
  2  3  2  0
  2  4  2  0
  2  5  1  0
  5  6  2  0
  6  7  1  0
  7  8  2  0
  8  9  1  0
  9 10  1  0
 10 11  1  0
 11 12  2  0
 11 13  1  0
 13 14  2  0
 14 15  1  0
 15 16  2  0
 16 17  1  0
 17 18  1  0
 18 19  2  0
 18 20  2  0
 18 21  1  0
 21 22  1  0
 22 23  1  0
 23 24  1  0
 24 25  1  0
 25 26  1  0
 17 27  2  0
  9 28  2  0
 28  5  1  0
 27 13  1  0
 26 21  1  0
  1 29  1  0
  6 30  1  0
  7 31  1  0
  8 32  1  0
 14 33  1  0
 15 34  1  0
 16 35  1  0
 22 36  1  0
 22 37  1  0
 23 38  1  0
 23 39  1  0
 25 40  1  0
 25 41  1  0
 26 42  1  0
 26 43  1  0
 27 44  1  0
 28 45  1  0
M  CHG  2   1  -1  10  -1
M  END
>  <UniqueID>  (71) 
61

>  <SMILES>  (71) 
[NH-]S(=O)(=O)c1cccc([N-]C(=O)c2cccc(S(=O)(=O)N3CCOCC3)c2)c1

>  <Energy>  (71) 
61.11610298987246

>  <Genealogy>  (71) 
[NH-]S(=O)(=O)c1cccc([N-]C(=O)c2cccc(S(=O)(=O)N3CCOCC3)c2)c1 (protonated)
[NH-]S(=O)(=O)c1cccc([N-]C(=O)c2cccc(S(=O)(=O)N3CCOCC3)c2)c1 (3D coordinates assigned)
[NH-]S(=O)(=O)c1cccc([N-]C(=O)c2cccc(S(=O)(=O)N3CCOCC3)c2)c1 (nonaromatic ring conformer: 61.11610298987246 kcal/mol)

>  <smiles>  (71) 
NS(=O)(=O)c1cccc(NC(=O)c2cccc(S(=O)(=O)N3CCOCC3)c2)c1

>  <score_type>  (71) 
oracle

>  <origin>  (71) 
adg

>  <m_score__min__energy>  (71) 
-14.039999999999999

>  <m_primary>  (71) 
energy

$$$$
71:0
     RDKit          3D

 42 44  0  0  0  0  0  0  0  0999 V2000
   60.8690   30.4110   50.7290 C   0  0  0  0  0  0  0  0  0  0  0  0
   60.4550   29.4060   49.7280 N   0  0  0  0  0  0  0  0  0  0  0  0
   60.8220   28.0890   49.8970 C   0  0  0  0  0  0  0  0  0  0  0  0
   61.5160   27.7290   50.8870 O   0  0  0  0  0  0  0  0  0  0  0  0
   60.4350   27.1150   48.9760 C   0  0  0  0  0  0  0  0  0  0  0  0
   59.6710   27.4700   47.8740 C   0  0  0  0  0  0  0  0  0  0  0  0
   59.2960   28.8000   47.6860 C   0  0  0  0  0  0  0  0  0  0  0  0
   58.5240   29.1590   46.5720 C   0  0  0  0  0  0  0  0  0  0  0  0
   58.1370   30.4920   46.3710 C   0  0  0  0  0  0  0  0  0  0  0  0
   57.3410   30.8870   45.2420 N   0  0  0  0  0  0  0  0  0  0  0  0
   56.5000   29.8240   44.1600 S   0  0  0  0  0  0  0  0  0  0  0  0
   57.5300   28.4330   43.7430 C   0  0  0  0  0  0  0  0  0  0  0  0
   55.2170   29.3580   44.7870 O   0  0  0  0  0  0  0  0  0  0  0  0
   56.1760   30.5770   42.9010 O   0  0  0  0  0  0  0  0  0  0  0  0
   58.5230   31.4740   47.2910 C   0  0  0  0  0  0  0  0  0  0  0  0
   58.1050   32.7980   47.0630 O   0  0  0  0  0  0  0  0  0  0  0  0
   58.9140   33.8480   46.5300 C   0  0  0  0  0  0  0  0  0  0  0  0
   60.2840   33.8390   47.1550 C   0  0  0  0  0  0  0  0  0  0  0  0
   61.4140   33.4860   46.3990 C   0  0  0  0  0  0  0  0  0  0  0  0
   62.6820   33.4780   46.9870 C   0  0  0  0  0  0  0  0  0  0  0  0
   62.8320   33.8320   48.3310 C   0  0  0  0  0  0  0  0  0  0  0  0
   61.7150   34.1970   49.0870 C   0  0  0  0  0  0  0  0  0  0  0  0
   60.4450   34.2040   48.5020 C   0  0  0  0  0  0  0  0  0  0  0  0
   59.3080   31.1180   48.4050 C   0  0  0  0  0  0  0  0  0  0  0  0
   59.7000   29.7790   48.6290 C   0  0  0  0  0  0  0  0  0  0  0  0
   60.7041   30.0108   51.7403 H   0  0  0  0  0  0  0  0  0  0  0  0
   61.9360   30.6431   50.5960 H   0  0  0  0  0  0  0  0  0  0  0  0
   60.2751   31.3273   50.5960 H   0  0  0  0  0  0  0  0  0  0  0  0
   60.7353   26.0671   49.1236 H   0  0  0  0  0  0  0  0  0  0  0  0
   59.3612   26.7030   47.1489 H   0  0  0  0  0  0  0  0  0  0  0  0
   58.2191   28.3881   45.8490 H   0  0  0  0  0  0  0  0  0  0  0  0
   57.8867   27.9513   44.6654 H   0  0  0  0  0  0  0  0  0  0  0  0
   56.9481   27.7097   43.1530 H   0  0  0  0  0  0  0  0  0  0  0  0
   58.3917   28.7786   43.1530 H   0  0  0  0  0  0  0  0  0  0  0  0
   59.0128   33.7105   45.4431 H   0  0  0  0  0  0  0  0  0  0  0  0
   58.4319   34.8114   46.7525 H   0  0  0  0  0  0  0  0  0  0  0  0
   61.3005   33.2145   45.3391 H   0  0  0  0  0  0  0  0  0  0  0  0
   63.5622   33.1930   46.3920 H   0  0  0  0  0  0  0  0  0  0  0  0
   63.8299   33.8232   48.7937 H   0  0  0  0  0  0  0  0  0  0  0  0
   61.8349   34.4791   50.1434 H   0  0  0  0  0  0  0  0  0  0  0  0
   59.5685   34.4965   49.0989 H   0  0  0  0  0  0  0  0  0  0  0  0
   59.6221   31.8977   49.1146 H   0  0  0  0  0  0  0  0  0  0  0  0
  1  2  1  0
  2  3  1  0
  3  4  2  0
  3  5  1  0
  5  6  2  0
  6  7  1  0
  7  8  2  0
  8  9  1  0
  9 10  1  0
 10 11  1  0
 11 12  1  0
 11 13  2  0
 11 14  2  0
  9 15  2  0
 15 16  1  0
 16 17  1  0
 17 18  1  0
 18 19  2  0
 19 20  1  0
 20 21  2  0
 21 22  1  0
 22 23  2  0
 15 24  1  0
 24 25  2  0
 25  2  1  0
 25  7  1  0
 23 18  1  0
  1 26  1  0
  1 27  1  0
  1 28  1  0
  5 29  1  0
  6 30  1  0
  8 31  1  0
 12 32  1  0
 12 33  1  0
 12 34  1  0
 17 35  1  0
 17 36  1  0
 19 37  1  0
 20 38  1  0
 21 39  1  0
 22 40  1  0
 23 41  1  0
 24 42  1  0
M  CHG  1  10  -1
M  END
>  <UniqueID>  (72) 
62

>  <SMILES>  (72) 
Cn1c(=O)ccc2cc([N-]S(C)(=O)=O)c(OCc3ccccc3)cc21

>  <Energy>  (72) 
52.75656347137835

>  <Genealogy>  (72) 
Cn1c(=O)ccc2cc([N-]S(C)(=O)=O)c(OCc3ccccc3)cc21 (protonated)
Cn1c(=O)ccc2cc([N-]S(C)(=O)=O)c(OCc3ccccc3)cc21 (3D coordinates assigned)
Cn1c(=O)ccc2cc([N-]S(C)(=O)=O)c(OCc3ccccc3)cc21 (optimized conformer: 52.75656347137835 kcal/mol)

>  <smiles>  (72) 
Cn1c(=O)ccc2cc(NS(C)(=O)=O)c(OCc3ccccc3)cc21

>  <score_type>  (72) 
oracle

>  <origin>  (72) 
adg

>  <m_score__min__energy>  (72) 
-9.4900000000000002

>  <m_primary>  (72) 
energy

$$$$
72:0
     RDKit          3D

 68 71  0  0  0  0  0  0  0  0999 V2000
   56.1020   29.4710   52.8350 C   0  0  0  0  0  0  0  0  0  0  0  0
   56.6070   30.1350   51.6800 O   0  0  0  0  0  0  0  0  0  0  0  0
   57.4330   31.2680   51.7120 C   0  0  0  0  0  0  0  0  0  0  0  0
   57.0470   32.4560   52.3660 C   0  0  0  0  0  0  0  0  0  0  0  0
   57.8970   33.5640   52.3740 C   0  0  0  0  0  0  0  0  0  0  0  0
   59.1340   33.5020   51.7320 C   0  0  0  0  0  0  0  0  0  0  0  0
   59.5280   32.3310   51.0820 C   0  0  0  0  0  0  0  0  0  0  0  0
   58.6800   31.2040   51.0680 C   0  0  0  0  0  0  0  0  0  0  0  0
   59.0390   30.0030   50.4330 O   0  0  0  0  0  0  0  0  0  0  0  0
   59.6530   28.8840   51.0720 C   0  0  0  0  0  0  0  0  0  0  0  0
   60.7810   28.3520   50.2310 C   0  0  0  0  0  0  0  0  0  0  0  0
   61.9620   28.6820   50.5120 O   0  0  0  0  0  0  0  0  0  0  0  0
   60.5580   27.4380   49.1480 N   0  0  0  0  0  0  0  0  0  0  0  0
   59.7590   27.6700   47.9800 C   0  0  0  0  0  0  0  0  0  0  0  0
   59.8400   28.9120   47.3440 C   0  0  0  0  0  0  0  0  0  0  0  0
   59.0560   29.1820   46.2220 C   0  0  0  0  0  0  0  0  0  0  0  0
   58.1590   28.2260   45.7320 C   0  0  0  0  0  0  0  0  0  0  0  0
   57.3430   28.5750   44.6060 N   0  0  0  0  0  0  0  0  0  0  0  0
   56.3700   29.6250   44.6020 C   0  0  0  0  0  0  0  0  0  0  0  0
   55.1540   29.3740   44.8200 O   0  0  0  0  0  0  0  0  0  0  0  0
   56.8040   31.0310   44.3280 C   0  0  0  0  0  0  0  0  0  0  0  0
   57.0330   31.7430   45.5460 O   0  0  0  0  0  0  0  0  0  0  0  0
   57.8860   32.8520   45.6990 C   0  0  0  0  0  0  0  0  0  0  0  0
   58.0130   33.8300   44.6940 C   0  0  0  0  0  0  0  0  0  0  0  0
   58.8790   34.9090   44.8600 C   0  0  0  0  0  0  0  0  0  0  0  0
   59.6390   35.0270   46.0200 C   0  0  0  0  0  0  0  0  0  0  0  0
   59.5400   34.0650   47.0380 C   0  0  0  0  0  0  0  0  0  0  0  0
   60.3800   34.2310   48.2790 C   0  0  0  0  0  0  0  0  0  0  0  0
   58.6340   32.9820   46.8940 C   0  0  0  0  0  0  0  0  0  0  0  0
   58.5040   31.9420   47.9830 C   0  0  0  0  0  0  0  0  0  0  0  0
   58.0810   26.9590   46.3550 C   0  0  0  0  0  0  0  0  0  0  0  0
   57.2840   25.9010   45.7960 N   0  0  0  0  0  0  0  0  0  0  0  0
   57.5130   25.3590   44.4660 C   0  0  0  0  0  0  0  0  0  0  0  0
   56.6990   24.0740   44.4010 C   0  0  0  0  0  0  0  0  0  0  0  0
   55.7220   24.1410   45.5740 C   0  0  0  0  0  0  0  0  0  0  0  0
   56.3490   25.1050   46.5720 C   0  0  0  0  0  0  0  0  0  0  0  0
   58.8600   26.7050   47.4970 C   0  0  0  0  0  0  0  0  0  0  0  0
   56.4810   29.9693   53.7395 H   0  0  0  0  0  0  0  0  0  0  0  0
   55.0027   29.5092   52.8286 H   0  0  0  0  0  0  0  0  0  0  0  0
   56.4325   28.4218   52.8286 H   0  0  0  0  0  0  0  0  0  0  0  0
   56.0719   32.5103   52.8722 H   0  0  0  0  0  0  0  0  0  0  0  0
   57.5906   34.4873   52.8874 H   0  0  0  0  0  0  0  0  0  0  0  0
   59.8001   34.3774   51.7379 H   0  0  0  0  0  0  0  0  0  0  0  0
   60.5048   32.2870   50.5782 H   0  0  0  0  0  0  0  0  0  0  0  0
   60.0469   29.1968   52.0503 H   0  0  0  0  0  0  0  0  0  0  0  0
   58.9013   28.0915   51.2022 H   0  0  0  0  0  0  0  0  0  0  0  0
   60.5256   29.6807   47.7302 H   0  0  0  0  0  0  0  0  0  0  0  0
   59.1437   30.1556   45.7177 H   0  0  0  0  0  0  0  0  0  0  0  0
   57.7346   31.0124   43.7418 H   0  0  0  0  0  0  0  0  0  0  0  0
   56.0062   31.5413   43.7685 H   0  0  0  0  0  0  0  0  0  0  0  0
   57.4234   33.7415   43.7696 H   0  0  0  0  0  0  0  0  0  0  0  0
   58.9623   35.6708   44.0709 H   0  0  0  0  0  0  0  0  0  0  0  0
   60.3225   35.8805   46.1402 H   0  0  0  0  0  0  0  0  0  0  0  0
   59.7469   34.1059   49.1698 H   0  0  0  0  0  0  0  0  0  0  0  0
   61.1771   33.4730   48.2863 H   0  0  0  0  0  0  0  0  0  0  0  0
   60.8289   35.2352   48.2863 H   0  0  0  0  0  0  0  0  0  0  0  0
   58.5651   32.4312   48.9664 H   0  0  0  0  0  0  0  0  0  0  0  0
   57.5349   31.4304   47.8876 H   0  0  0  0  0  0  0  0  0  0  0  0
   59.3173   31.2076   47.8876 H   0  0  0  0  0  0  0  0  0  0  0  0
   57.1716   26.0689   43.6982 H   0  0  0  0  0  0  0  0  0  0  0  0
   58.5813   25.1735   44.2808 H   0  0  0  0  0  0  0  0  0  0  0  0
   56.1512   24.0152   43.4489 H   0  0  0  0  0  0  0  0  0  0  0  0
   57.3422   23.1836   44.4599 H   0  0  0  0  0  0  0  0  0  0  0  0
   54.7442   24.5171   45.2387 H   0  0  0  0  0  0  0  0  0  0  0  0
   55.5493   23.1495   46.0180 H   0  0  0  0  0  0  0  0  0  0  0  0
   55.5788   25.7468   47.0246 H   0  0  0  0  0  0  0  0  0  0  0  0
   56.8462   24.5759   47.3983 H   0  0  0  0  0  0  0  0  0  0  0  0
   58.7646   25.7408   48.0177 H   0  0  0  0  0  0  0  0  0  0  0  0
  1  2  1  0
  2  3  1  0
  3  4  2  0
  4  5  1  0
  5  6  2  0
  6  7  1  0
  7  8  2  0
  8  9  1  0
  9 10  1  0
 10 11  1  0
 11 12  2  0
 11 13  1  0
 13 14  1  0
 14 15  2  0
 15 16  1  0
 16 17  2  0
 17 18  1  0
 18 19  1  0
 19 20  2  0
 19 21  1  0
 21 22  1  0
 22 23  1  0
 23 24  2  0
 24 25  1  0
 25 26  2  0
 26 27  1  0
 27 28  1  0
 27 29  2  0
 29 30  1  0
 17 31  1  0
 31 32  1  0
 32 33  1  0
 33 34  1  0
 34 35  1  0
 35 36  1  0
 31 37  2  0
  8  3  1  0
 37 14  1  0
 29 23  1  0
 36 32  1  0
  1 38  1  0
  1 39  1  0
  1 40  1  0
  4 41  1  0
  5 42  1  0
  6 43  1  0
  7 44  1  0
 10 45  1  0
 10 46  1  0
 15 47  1  0
 16 48  1  0
 21 49  1  0
 21 50  1  0
 24 51  1  0
 25 52  1  0
 26 53  1  0
 28 54  1  0
 28 55  1  0
 28 56  1  0
 30 57  1  0
 30 58  1  0
 30 59  1  0
 33 60  1  0
 33 61  1  0
 34 62  1  0
 34 63  1  0
 35 64  1  0
 35 65  1  0
 36 66  1  0
 36 67  1  0
 37 68  1  0
M  CHG  2  13  -1  18  -1
M  END
>  <UniqueID>  (73) 
63

>  <SMILES>  (73) 
COc1ccccc1OCC(=O)[N-]c1ccc([N-]C(=O)COc2cccc(C)c2C)c(N2CCCC2)c1

>  <Energy>  (73) 
84.86811738130078

>  <Genealogy>  (73) 
COc1ccccc1OCC(=O)[N-]c1ccc([N-]C(=O)COc2cccc(C)c2C)c(N2CCCC2)c1 (protonated)
COc1ccccc1OCC(=O)[N-]c1ccc([N-]C(=O)COc2cccc(C)c2C)c(N2CCCC2)c1 (3D coordinates assigned)
COc1ccccc1OCC(=O)[N-]c1ccc([N-]C(=O)COc2cccc(C)c2C)c(N2CCCC2)c1 (nonaromatic ring conformer: 84.86811738130078 kcal/mol)

>  <smiles>  (73) 
COc1ccccc1OCC(=O)Nc1ccc(NC(=O)COc2cccc(C)c2C)c(N2CCCC2)c1

>  <score_type>  (73) 
oracle

>  <origin>  (73) 
adg

>  <m_score__min__energy>  (73) 
-12.029999999999999

>  <m_primary>  (73) 
energy

$$$$
73:0
     RDKit          3D

 39 41  0  0  1  0  0  0  0  0999 V2000
   61.6630   33.4670   51.7830 C   0  0  0  0  0  0  0  0  0  0  0  0
   61.2540   33.8180   50.4760 O   0  0  0  0  0  0  0  0  0  0  0  0
   61.9540   33.3610   49.3680 C   0  0  0  0  0  0  0  0  0  0  0  0
   63.0820   33.9640   48.8710 C   0  0  0  0  0  0  0  0  0  0  0  0
   63.7550   33.4870   47.7680 C   0  0  0  0  0  0  0  0  0  0  0  0
   63.2580   32.3500   47.1450 C   0  0  0  0  0  0  0  0  0  0  0  0
   62.1230   31.7380   47.6400 C   0  0  0  0  0  0  0  0  0  0  0  0
   61.4570   32.2240   48.7450 C   0  0  0  0  0  0  0  0  0  0  0  0
   60.2170   31.5570   49.2850 C   0  0  0  0  0  0  0  0  0  0  0  0
   59.1100   32.4000   48.9240 N   0  0  0  0  0  0  0  0  0  0  0  0
   58.8430   32.8320   47.7630 C   0  0  0  0  0  0  0  0  0  0  0  0
   58.3040   32.0680   46.7960 N   0  0  0  0  0  0  0  0  0  0  0  0
   58.0380   32.5700   45.5770 C   0  0  0  0  0  0  0  0  0  0  0  0
   57.4530   31.7300   44.5370 C   0  0  0  0  0  0  0  0  0  0  0  0
   57.6030   32.0090   43.1980 C   0  0  0  0  0  0  0  0  0  0  0  0
   57.0230   31.1740   42.2440 C   0  0  0  0  0  0  0  0  0  0  0  0
   56.2940   30.0590   42.6500 C   0  0  0  0  0  0  0  0  0  0  0  0
   56.1690   29.8140   44.0120 C   0  0  0  0  0  0  0  0  0  0  0  0
   56.7450   30.6470   44.9150 N   0  0  0  0  0  0  0  0  0  0  0  0
   58.2950   33.8570   45.2580 N   0  0  0  0  0  0  0  0  0  0  0  0
   58.8390   34.6420   46.2200 C   0  0  0  0  0  0  0  0  0  0  0  0
   59.1170   34.1470   47.4730 C   0  0  0  0  0  0  0  0  0  0  0  0
   59.6660   34.9680   48.4180 O   0  0  0  0  0  0  0  0  0  0  0  0
   61.0415   34.0004   52.5173 H   0  0  0  0  0  0  0  0  0  0  0  0
   61.5479   32.3822   51.9243 H   0  0  0  0  0  0  0  0  0  0  0  0
   62.7178   33.7453   51.9243 H   0  0  0  0  0  0  0  0  0  0  0  0
   63.4642   34.8647   49.3738 H   0  0  0  0  0  0  0  0  0  0  0  0
   64.6578   33.9909   47.3925 H   0  0  0  0  0  0  0  0  0  0  0  0
   63.7662   31.9382   46.2606 H   0  0  0  0  0  0  0  0  0  0  0  0
   61.7396   30.8373   47.1383 H   0  0  0  0  0  0  0  0  0  0  0  0
   60.0966   30.5593   48.8376 H   0  0  0  0  0  0  0  0  0  0  0  0
   60.2784   31.4263   50.3755 H   0  0  0  0  0  0  0  0  0  0  0  0
   58.1800   32.8901   42.8805 H   0  0  0  0  0  0  0  0  0  0  0  0
   57.1409   31.3954   41.1730 H   0  0  0  0  0  0  0  0  0  0  0  0
   55.8291   29.3894   41.9114 H   0  0  0  0  0  0  0  0  0  0  0  0
   55.5997   28.9396   44.3602 H   0  0  0  0  0  0  0  0  0  0  0  0
   58.0980   34.2670   44.3250 H   0  0  0  0  0  0  0  0  0  0  0  0
   59.0625   35.6952   45.9943 H   0  0  0  0  0  0  0  0  0  0  0  0
   59.9300   34.6570   49.3470 H   0  0  0  0  0  0  0  0  0  0  0  0
  1  2  1  0
  2  3  1  0
  3  4  2  0
  4  5  1  0
  5  6  2  0
  6  7  1  0
  7  8  2  0
  8  9  1  0
  9 10  1  0
 10 11  2  0
 11 12  1  0
 12 13  2  0
 13 14  1  0
 14 15  2  0
 15 16  1  0
 16 17  2  0
 17 18  1  0
 18 19  2  0
 13 20  1  0
 20 21  1  0
 21 22  2  0
 22 23  1  0
  8  3  1  0
 22 11  1  0
 19 14  1  0
  1 24  1  0
  1 25  1  0
  1 26  1  0
  4 27  1  0
  5 28  1  0
  6 29  1  0
  7 30  1  0
  9 31  1  0
  9 32  1  0
 15 33  1  0
 16 34  1  0
 17 35  1  0
 18 36  1  0
 20 37  1  0
 21 38  1  0
 23 39  1  0
M  END
>  <smiles>  (74) 
COc1ccccc1CN=c1nc(-c2ccccn2)[nH]cc1O

>  <score_type>  (74) 
oracle

>  <origin>  (74) 
adg

>  <m_score__min__energy>  (74) 
-7

>  <m_primary>  (74) 
energy

$$$$
74:0
     RDKit          3D

 49 52  0  0  0  0  0  0  0  0999 V2000
   61.8950   34.3660   50.3370 O   0  0  0  0  0  0  0  0  0  0  0  0
   62.0620   33.4040   49.5350 C   0  0  0  0  0  0  0  0  0  0  0  0
   60.9780   32.9500   48.7520 C   0  0  0  0  0  0  0  0  0  0  0  0
   59.6270   33.6340   48.8210 C   0  0  0  0  0  0  0  0  0  0  0  0
   59.1210   33.9650   47.4400 C   0  0  0  0  0  0  0  0  0  0  0  0
   59.8450   34.8330   46.6050 C   0  0  0  0  0  0  0  0  0  0  0  0
   59.3680   35.1430   45.3280 C   0  0  0  0  0  0  0  0  0  0  0  0
   58.1650   34.5940   44.8760 C   0  0  0  0  0  0  0  0  0  0  0  0
   57.4410   33.7260   45.6970 C   0  0  0  0  0  0  0  0  0  0  0  0
   56.2760   33.1920   45.2570 F   0  0  0  0  0  0  0  0  0  0  0  0
   57.9170   33.4090   46.9740 C   0  0  0  0  0  0  0  0  0  0  0  0
   61.1750   31.8740   47.8670 C   0  0  0  0  0  0  0  0  0  0  0  0
   60.1030   31.4450   47.0640 O   0  0  0  0  0  0  0  0  0  0  0  0
   60.0400   30.2080   46.3530 C   0  0  0  0  0  0  0  0  0  0  0  0
   58.7630   30.1140   45.5610 C   0  0  0  0  0  0  0  0  0  0  0  0
   57.7990   29.1510   45.8980 C   0  0  0  0  0  0  0  0  0  0  0  0
   56.6050   29.0640   45.1750 C   0  0  0  0  0  0  0  0  0  0  0  0
   56.3700   29.9300   44.1040 C   0  0  0  0  0  0  0  0  0  0  0  0
   57.3320   30.8820   43.7520 C   0  0  0  0  0  0  0  0  0  0  0  0
   58.5260   30.9730   44.4740 C   0  0  0  0  0  0  0  0  0  0  0  0
   62.4350   31.2600   47.8110 C   0  0  0  0  0  0  0  0  0  0  0  0
   63.4760   31.7360   48.6040 C   0  0  0  0  0  0  0  0  0  0  0  0
   63.2900   32.7970   49.4410 N   0  0  0  0  0  0  0  0  0  0  0  0
   64.4080   33.2670   50.2210 C   0  0  0  0  0  0  0  0  0  0  0  0
   64.1950   33.9690   51.4200 C   0  0  0  0  0  0  0  0  0  0  0  0
   65.2810   34.4310   52.1690 C   0  0  0  0  0  0  0  0  0  0  0  0
   66.5860   34.2010   51.7260 C   0  0  0  0  0  0  0  0  0  0  0  0
   66.8080   33.5090   50.5310 C   0  0  0  0  0  0  0  0  0  0  0  0
   68.0750   33.2870   50.1020 F   0  0  0  0  0  0  0  0  0  0  0  0
   65.7240   33.0450   49.7800 C   0  0  0  0  0  0  0  0  0  0  0  0
   58.9090   32.9642   49.3168 H   0  0  0  0  0  0  0  0  0  0  0  0
   59.7351   34.5695   49.3895 H   0  0  0  0  0  0  0  0  0  0  0  0
   60.7908   35.2702   46.9576 H   0  0  0  0  0  0  0  0  0  0  0  0
   59.9408   35.8205   44.6776 H   0  0  0  0  0  0  0  0  0  0  0  0
   57.7881   34.8454   43.8736 H   0  0  0  0  0  0  0  0  0  0  0  0
   57.3465   32.7217   47.6160 H   0  0  0  0  0  0  0  0  0  0  0  0
   60.8966   30.1423   45.6661 H   0  0  0  0  0  0  0  0  0  0  0  0
   60.0681   29.3814   47.0782 H   0  0  0  0  0  0  0  0  0  0  0  0
   57.9836   28.4614   46.7349 H   0  0  0  0  0  0  0  0  0  0  0  0
   55.8499   28.3128   45.4499 H   0  0  0  0  0  0  0  0  0  0  0  0
   55.4291   29.8630   43.5382 H   0  0  0  0  0  0  0  0  0  0  0  0
   57.1491   31.5604   42.9057 H   0  0  0  0  0  0  0  0  0  0  0  0
   59.2825   31.7195   44.1903 H   0  0  0  0  0  0  0  0  0  0  0  0
   62.6006   30.4033   47.1412 H   0  0  0  0  0  0  0  0  0  0  0  0
   64.4616   31.2499   48.5548 H   0  0  0  0  0  0  0  0  0  0  0  0
   63.1691   34.1556   51.7704 H   0  0  0  0  0  0  0  0  0  0  0  0
   65.1080   34.9764   53.1085 H   0  0  0  0  0  0  0  0  0  0  0  0
   67.4393   34.5644   52.3174 H   0  0  0  0  0  0  0  0  0  0  0  0
   65.9019   32.5034   48.8392 H   0  0  0  0  0  0  0  0  0  0  0  0
  1  2  2  0
  2  3  1  0
  3  4  1  0
  4  5  1  0
  5  6  2  0
  6  7  1  0
  7  8  2  0
  8  9  1  0
  9 10  1  0
  9 11  2  0
  3 12  2  0
 12 13  1  0
 13 14  1  0
 14 15  1  0
 15 16  2  0
 16 17  1  0
 17 18  2  0
 18 19  1  0
 19 20  2  0
 12 21  1  0
 21 22  2  0
 22 23  1  0
 23 24  1  0
 24 25  2  0
 25 26  1  0
 26 27  2  0
 27 28  1  0
 28 29  1  0
 28 30  2  0
 23  2  1  0
 30 24  1  0
 11  5  1  0
 20 15  1  0
  4 31  1  0
  4 32  1  0
  6 33  1  0
  7 34  1  0
  8 35  1  0
 11 36  1  0
 14 37  1  0
 14 38  1  0
 16 39  1  0
 17 40  1  0
 18 41  1  0
 19 42  1  0
 20 43  1  0
 21 44  1  0
 22 45  1  0
 25 46  1  0
 26 47  1  0
 27 48  1  0
 30 49  1  0
M  END
>  <UniqueID>  (75) 
64

>  <SMILES>  (75) 
O=c1c(Cc2cccc(F)c2)c(OCc2ccccc2)ccn1-c1cccc(F)c1

>  <Energy>  (75) 
61.405504261641426

>  <Genealogy>  (75) 
O=c1c(Cc2cccc(F)c2)c(OCc2ccccc2)ccn1-c1cccc(F)c1 (3D coordinates assigned)
O=c1c(Cc2cccc(F)c2)c(OCc2ccccc2)ccn1-c1cccc(F)c1 (optimized conformer: 61.405504261641426 kcal/mol)

>  <smiles>  (75) 
O=c1c(Cc2cccc(F)c2)c(OCc2ccccc2)ccn1-c1cccc(F)c1

>  <score_type>  (75) 
oracle

>  <origin>  (75) 
adg

>  <m_score__min__energy>  (75) 
-7.9100000000000001

>  <m_primary>  (75) 
energy

$$$$
75:0
     RDKit          3D

 42 44  0  0  0  0  0  0  0  0999 V2000
   53.8460   28.5510   44.1260 H   0  0  0  0  0  0  0  0  0  0  0  0
   54.4230   29.2820   43.7270 O   0  0  0  0  0  0  0  0  0  0  0  0
   55.6480   29.6310   44.2920 C   0  0  0  0  0  0  0  0  0  0  0  0
   56.2870   30.8220   43.9210 C   0  0  0  0  0  0  0  0  0  0  0  0
   55.8065   31.4990   43.1994 H   0  0  0  0  0  0  0  0  0  0  0  0
   57.5400   31.1560   44.4670 C   0  0  0  0  0  0  0  0  0  0  0  0
   58.2610   32.3790   44.0540 C   0  0  0  0  0  0  0  0  0  0  0  0
   59.0602   32.2678   43.3064 H   0  0  0  0  0  0  0  0  0  0  0  0
   58.0170   33.6160   44.5200 C   0  0  0  0  0  0  0  0  0  0  0  0
   57.0889   34.1034   44.1868 H   0  0  0  0  0  0  0  0  0  0  0  0
   58.8880   34.3810   45.4430 C   0  0  0  0  0  0  0  0  0  0  0  0
   59.2680   35.5270   45.0830 O   0  0  0  0  0  0  0  0  0  0  0  0
   59.2920   33.8770   46.7780 C   0  0  0  0  0  0  0  0  0  0  0  0
   60.6310   33.9760   47.1890 C   0  0  0  0  0  0  0  0  0  0  0  0
   61.3661   34.4763   46.5415 H   0  0  0  0  0  0  0  0  0  0  0  0
   61.0350   33.4430   48.4150 C   0  0  0  0  0  0  0  0  0  0  0  0
   62.0847   33.5306   48.7319 H   0  0  0  0  0  0  0  0  0  0  0  0
   60.1100   32.7990   49.2400 C   0  0  0  0  0  0  0  0  0  0  0  0
   60.4343   32.3741   50.2014 H   0  0  0  0  0  0  0  0  0  0  0  0
   58.7660   32.6930   48.8440 C   0  0  0  0  0  0  0  0  0  0  0  0
   57.7860   32.0360   49.6590 N   0  0  0  0  0  0  0  0  0  0  0  0
   57.9970   31.5240   50.9810 C   0  0  0  0  0  0  0  0  0  0  0  0
   57.5480   30.3920   51.3040 O   0  0  0  0  0  0  0  0  0  0  0  0
   58.6950   32.3610   51.9750 C   0  0  0  0  0  0  0  0  0  0  0  0
   58.0730   33.7920   52.6050 S   0  0  0  0  0  0  0  0  0  0  0  0
   59.3660   34.1470   53.6160 C   0  0  0  0  0  0  0  0  0  0  0  0
   59.4482   35.0236   54.2754 H   0  0  0  0  0  0  0  0  0  0  0  0
   60.3130   33.1420   53.4750 C   0  0  0  0  0  0  0  0  0  0  0  0
   61.2635   33.1312   54.0286 H   0  0  0  0  0  0  0  0  0  0  0  0
   59.9470   32.1400   52.5610 C   0  0  0  0  0  0  0  0  0  0  0  0
   60.8300   30.9650   52.2650 C   0  0  0  0  0  0  0  0  0  0  0  0
   61.1689   30.5140   53.2093 H   0  0  0  0  0  0  0  0  0  0  0  0
   60.2664   30.2199   51.6843 H   0  0  0  0  0  0  0  0  0  0  0  0
   61.7024   31.2991   51.6843 H   0  0  0  0  0  0  0  0  0  0  0  0
   58.3580   33.2700   47.6370 C   0  0  0  0  0  0  0  0  0  0  0  0
   57.2946   33.2489   47.3563 H   0  0  0  0  0  0  0  0  0  0  0  0
   58.1120   30.3180   45.4350 C   0  0  0  0  0  0  0  0  0  0  0  0
   59.0681   30.5952   45.9030 H   0  0  0  0  0  0  0  0  0  0  0  0
   57.4730   29.1320   45.8080 C   0  0  0  0  0  0  0  0  0  0  0  0
   57.9358   28.4710   46.5556 H   0  0  0  0  0  0  0  0  0  0  0  0
   56.2470   28.7840   45.2330 C   0  0  0  0  0  0  0  0  0  0  0  0
   55.6240   27.5980   45.6010 O   0  0  0  0  0  0  0  0  0  0  0  0
  1  2  1  0
  2  3  1  0
  3  4  2  0
  4  5  1  0
  4  6  1  0
  6  7  1  0
  7  8  1  0
  7  9  2  0
  9 10  1  0
  9 11  1  0
 11 12  2  0
 11 13  1  0
 13 14  2  0
 14 15  1  0
 14 16  1  0
 16 17  1  0
 16 18  2  0
 18 19  1  0
 18 20  1  0
 20 21  1  0
 21 22  1  0
 22 23  2  0
 22 24  1  0
 24 25  1  0
 25 26  1  0
 26 27  1  0
 26 28  2  0
 28 29  1  0
 28 30  1  0
 30 31  1  0
 31 32  1  0
 31 33  1  0
 31 34  1  0
 20 35  2  0
 35 36  1  0
  6 37  2  0
 37 38  1  0
 37 39  1  0
 39 40  1  0
 39 41  2  0
 41 42  1  0
 41  3  1  0
 35 13  1  0
 30 24  2  0
M  CHG  2  21  -1  42  -1
M  END
>  <UniqueID>  (76) 
65

>  <SMILES>  (76) 
Cc1ccsc1C(=O)[N-]c1cccc(C(=O)/C=C\c2ccc([O-])c(O)c2)c1

>  <Energy>  (76) 
82.44599196111454

>  <Genealogy>  (76) 
Cc1ccsc1C(=O)[N-]c1cccc(C(=O)C=Cc2ccc([O-])c(O)c2)c1 (protonated)
Cc1ccsc1C(=O)[N-]c1cccc(C(=O)/C=C\c2ccc([O-])c(O)c2)c1 (cis-trans isomerization)
Cc1ccsc1C(=O)[N-]c1cccc(C(=O)/C=C\c2ccc([O-])c(O)c2)c1 (3D coordinates assigned)
Cc1ccsc1C(=O)[N-]c1cccc(C(=O)/C=C\c2ccc([O-])c(O)c2)c1 (optimized conformer: 82.44599196111454 kcal/mol)

>  <smiles>  (76) 
Cc1ccsc1C(=O)Nc1cccc(C(=O)C=Cc2ccc(O)c(O)c2)c1

>  <score_type>  (76) 
oracle

>  <origin>  (76) 
adg

>  <m_score__min__energy>  (76) 
-13.81

>  <m_primary>  (76) 
energy

$$$$
76:0
     RDKit          3D

 58 62  0  0  0  0  0  0  0  0999 V2000
   57.3380   32.1680   45.8360 O   0  0  0  0  0  0  0  0  0  0  0  0
   58.1300   32.9600   45.2590 C   0  0  0  0  0  0  0  0  0  0  0  0
   58.7230   34.0210   46.0180 N   0  0  0  0  0  0  0  0  0  0  0  0
   59.2230   33.9140   47.3590 C   0  0  0  0  0  0  0  0  0  0  0  0
   60.3780   34.6000   47.7710 C   0  0  0  0  0  0  0  0  0  0  0  0
   60.8260   34.4930   49.0900 C   0  0  0  0  0  0  0  0  0  0  0  0
   60.1160   33.7210   50.0140 C   0  0  0  0  0  0  0  0  0  0  0  0
   58.9380   33.0580   49.6240 C   0  0  0  0  0  0  0  0  0  0  0  0
   58.5020   33.1600   48.2930 C   0  0  0  0  0  0  0  0  0  0  0  0
   58.1850   32.1630   50.5820 C   0  0  0  0  0  0  0  0  0  0  0  0
   58.5540   32.3580   51.9950 N   0  0  0  0  0  0  0  0  0  0  0  0
   57.7290   31.7230   53.0290 C   0  0  0  0  0  0  0  0  0  0  0  0
   57.3690   30.2920   52.6260 C   0  0  0  0  0  0  0  0  0  0  0  0
   55.8760   30.1160   52.5660 C   0  0  0  0  0  0  0  0  0  0  0  0
   55.0680   31.1070   51.9840 C   0  0  0  0  0  0  0  0  0  0  0  0
   53.6820   30.9280   51.9050 C   0  0  0  0  0  0  0  0  0  0  0  0
   53.0990   29.7560   52.3910 C   0  0  0  0  0  0  0  0  0  0  0  0
   53.8980   28.7590   52.9580 C   0  0  0  0  0  0  0  0  0  0  0  0
   55.2830   28.9360   53.0430 C   0  0  0  0  0  0  0  0  0  0  0  0
   59.8110   32.9650   52.3490 C   0  0  0  0  0  0  0  0  0  0  0  0
   60.2310   32.9310   53.5370 O   0  0  0  0  0  0  0  0  0  0  0  0
   60.5830   33.6330   51.3570 N   0  0  0  0  0  0  0  0  0  0  0  0
   58.4760   32.7570   43.8810 N   0  0  0  0  0  0  0  0  0  0  0  0
   57.7650   31.8110   43.0240 C   0  0  0  0  0  0  0  0  0  0  0  0
   57.4720   30.5380   43.7730 C   0  0  0  0  0  0  0  0  0  0  0  0
   58.5160   29.6710   44.1200 C   0  0  0  0  0  0  0  0  0  0  0  0
   58.2500   28.4850   44.8100 C   0  0  0  0  0  0  0  0  0  0  0  0
   56.9330   28.1440   45.1660 C   0  0  0  0  0  0  0  0  0  0  0  0
   56.6630   26.8740   45.8840 C   0  0  0  0  0  0  0  0  0  0  0  0
   57.5870   26.0570   46.5110 C   0  0  0  0  0  0  0  0  0  0  0  0
   56.8360   25.0230   47.0230 C   0  0  0  0  0  0  0  0  0  0  0  0
   55.5400   25.2160   46.7170 N   0  0  0  0  0  0  0  0  0  0  0  0
   55.4340   26.3400   46.0250 N   0  0  0  0  0  0  0  0  0  0  0  0
   55.8890   29.0250   44.8270 C   0  0  0  0  0  0  0  0  0  0  0  0
   56.1570   30.2110   44.1360 C   0  0  0  0  0  0  0  0  0  0  0  0
   60.9311   35.2232   47.0529 H   0  0  0  0  0  0  0  0  0  0  0  0
   61.7407   35.0181   49.4025 H   0  0  0  0  0  0  0  0  0  0  0  0
   57.5835   32.6416   47.9805 H   0  0  0  0  0  0  0  0  0  0  0  0
   57.1094   32.3664   50.4735 H   0  0  0  0  0  0  0  0  0  0  0  0
   58.4464   31.1263   50.3235 H   0  0  0  0  0  0  0  0  0  0  0  0
   58.2886   31.7021   53.9758 H   0  0  0  0  0  0  0  0  0  0  0  0
   56.8014   32.3021   53.1482 H   0  0  0  0  0  0  0  0  0  0  0  0
   57.7980   30.0768   51.6362 H   0  0  0  0  0  0  0  0  0  0  0  0
   57.7768   29.5998   53.3774 H   0  0  0  0  0  0  0  0  0  0  0  0
   55.5258   32.0261   51.5893 H   0  0  0  0  0  0  0  0  0  0  0  0
   53.0514   31.7115   51.4595 H   0  0  0  0  0  0  0  0  0  0  0  0
   52.0096   29.6171   52.3276 H   0  0  0  0  0  0  0  0  0  0  0  0
   53.4375   27.8349   53.3375 H   0  0  0  0  0  0  0  0  0  0  0  0
   55.9100   28.1477   53.4852 H   0  0  0  0  0  0  0  0  0  0  0  0
   59.2650   33.3000   43.4650 H   0  0  0  0  0  0  0  0  0  0  0  0
   56.8180   32.2628   42.6938 H   0  0  0  0  0  0  0  0  0  0  0  0
   58.3961   31.5749   42.1545 H   0  0  0  0  0  0  0  0  0  0  0  0
   59.5511   29.9250   43.8479 H   0  0  0  0  0  0  0  0  0  0  0  0
   59.0783   27.8123   45.0770 H   0  0  0  0  0  0  0  0  0  0  0  0
   58.6751   26.2010   46.5839 H   0  0  0  0  0  0  0  0  0  0  0  0
   57.2338   24.1710   47.5938 H   0  0  0  0  0  0  0  0  0  0  0  0
   54.8543   28.7788   45.1077 H   0  0  0  0  0  0  0  0  0  0  0  0
   55.3324   30.8909   43.8758 H   0  0  0  0  0  0  0  0  0  0  0  0
  1  2  2  0
  2  3  1  0
  3  4  1  0
  4  5  2  0
  5  6  1  0
  6  7  2  0
  7  8  1  0
  8  9  2  0
  8 10  1  0
 10 11  1  0
 11 12  1  0
 12 13  1  0
 13 14  1  0
 14 15  2  0
 15 16  1  0
 16 17  2  0
 17 18  1  0
 18 19  2  0
 11 20  1  0
 20 21  2  0
 20 22  1  0
  2 23  1  0
 23 24  1  0
 24 25  1  0
 25 26  2  0
 26 27  1  0
 27 28  2  0
 28 29  1  0
 29 30  1  0
 30 31  2  0
 31 32  1  0
 32 33  1  0
 28 34  1  0
 34 35  2  0
  9  4  1  0
 19 14  1  0
 35 25  1  0
 22  7  1  0
 33 29  2  0
  5 36  1  0
  6 37  1  0
  9 38  1  0
 10 39  1  0
 10 40  1  0
 12 41  1  0
 12 42  1  0
 13 43  1  0
 13 44  1  0
 15 45  1  0
 16 46  1  0
 17 47  1  0
 18 48  1  0
 19 49  1  0
 23 50  1  0
 24 51  1  0
 24 52  1  0
 26 53  1  0
 27 54  1  0
 30 55  1  0
 31 56  1  0
 34 57  1  0
 35 58  1  0
M  CHG  3   3  -1  22  -1  32  -1
M  END
>  <UniqueID>  (77) 
66

>  <SMILES>  (77) 
O=C([N-]c1ccc2c(c1)CN(CCc1ccccc1)C(=O)[N-]2)NCc1ccc(-c2cc[n-]n2)cc1

>  <Energy>  (77) 
94.48951342536358

>  <Genealogy>  (77) 
O=C([N-]c1ccc2c(c1)CN(CCc1ccccc1)C(=O)[N-]2)NCc1ccc(-c2cc[n-]n2)cc1 (protonated)
O=C([N-]c1ccc2c(c1)CN(CCc1ccccc1)C(=O)[N-]2)NCc1ccc(-c2cc[n-]n2)cc1 (3D coordinates assigned)
O=C([N-]c1ccc2c(c1)CN(CCc1ccccc1)C(=O)[N-]2)NCc1ccc(-c2cc[n-]n2)cc1 (nonaromatic ring conformer: 94.48951342536358 kcal/mol)

>  <smiles>  (77) 
O=C(NCc1ccc(-c2cc[nH]n2)cc1)Nc1ccc2c(c1)CN(CCc1ccccc1)C(=O)N2

>  <score_type>  (77) 
oracle

>  <origin>  (77) 
adg

>  <m_score__min__energy>  (77) 
-14.609999999999999

>  <m_primary>  (77) 
energy

$$$$
77:0
     RDKit          3D

 42 44  0  0  0  0  0  0  0  0999 V2000
   60.1840   22.5590   45.0240 N   0  0  0  0  0  0  0  0  0  0  0  0
   58.7760   22.6690   44.7550 C   0  0  0  0  0  0  0  0  0  0  0  0
   58.1730   21.6650   43.9890 C   0  0  0  0  0  0  0  0  0  0  0  0
   56.8140   21.7430   43.7210 C   0  0  0  0  0  0  0  0  0  0  0  0
   56.2490   20.8500   43.0350 O   0  0  0  0  0  0  0  0  0  0  0  0
   56.0950   22.7830   44.2000 N   0  0  0  0  0  0  0  0  0  0  0  0
   56.6710   23.7610   44.9440 C   0  0  0  0  0  0  0  0  0  0  0  0
   55.9450   24.7010   45.3680 O   0  0  0  0  0  0  0  0  0  0  0  0
   58.0180   23.7200   45.2310 N   0  0  0  0  0  0  0  0  0  0  0  0
   58.6220   24.7800   46.0690 C   0  0  0  0  0  0  0  0  0  0  0  0
   58.1900   26.1490   45.6060 C   0  0  0  0  0  0  0  0  0  0  0  0
   58.1660   26.4630   44.2370 C   0  0  0  0  0  0  0  0  0  0  0  0
   57.7850   27.7390   43.8120 C   0  0  0  0  0  0  0  0  0  0  0  0
   57.4110   28.7130   44.7490 C   0  0  0  0  0  0  0  0  0  0  0  0
   57.0630   30.0760   44.3140 C   0  0  0  0  0  0  0  0  0  0  0  0
   55.8940   30.5020   44.5070 O   0  0  0  0  0  0  0  0  0  0  0  0
   58.0340   30.9510   43.7220 N   0  0  0  0  0  0  0  0  0  0  0  0
   57.8950   32.4010   43.5870 C   0  0  0  0  0  0  0  0  0  0  0  0
   58.2730   33.1000   44.8690 C   0  0  0  0  0  0  0  0  0  0  0  0
   59.1400   34.2070   44.8500 C   0  0  0  0  0  0  0  0  0  0  0  0
   59.5080   34.8330   46.0460 C   0  0  0  0  0  0  0  0  0  0  0  0
   59.0110   34.3640   47.2650 C   0  0  0  0  0  0  0  0  0  0  0  0
   59.3720   34.9700   48.4220 F   0  0  0  0  0  0  0  0  0  0  0  0
   58.1390   33.2720   47.2890 C   0  0  0  0  0  0  0  0  0  0  0  0
   57.7670   32.6440   46.0970 C   0  0  0  0  0  0  0  0  0  0  0  0
   57.3830   28.3870   46.1110 C   0  0  0  0  0  0  0  0  0  0  0  0
   57.7730   27.1140   46.5380 C   0  0  0  0  0  0  0  0  0  0  0  0
   60.5880   22.5780   45.9820 H   0  0  0  0  0  0  0  0  0  0  0  0
   60.8610   22.4520   44.2370 H   0  0  0  0  0  0  0  0  0  0  0  0
   58.7691   20.8244   43.6042 H   0  0  0  0  0  0  0  0  0  0  0  0
   58.3055   24.6371   47.1127 H   0  0  0  0  0  0  0  0  0  0  0  0
   59.7166   24.7114   45.9846 H   0  0  0  0  0  0  0  0  0  0  0  0
   58.4484   25.7009   43.4957 H   0  0  0  0  0  0  0  0  0  0  0  0
   57.7785   27.9800   42.7387 H   0  0  0  0  0  0  0  0  0  0  0  0
   58.5526   32.7520   42.7781 H   0  0  0  0  0  0  0  0  0  0  0  0
   56.8448   32.6333   43.3567 H   0  0  0  0  0  0  0  0  0  0  0  0
   59.5300   34.5818   43.8922 H   0  0  0  0  0  0  0  0  0  0  0  0
   60.1898   35.6960   46.0267 H   0  0  0  0  0  0  0  0  0  0  0  0
   57.7445   32.9059   48.2483 H   0  0  0  0  0  0  0  0  0  0  0  0
   57.0751   31.7892   46.1209 H   0  0  0  0  0  0  0  0  0  0  0  0
   57.0531   29.1349   46.8470 H   0  0  0  0  0  0  0  0  0  0  0  0
   57.7532   26.8667   47.6097 H   0  0  0  0  0  0  0  0  0  0  0  0
  1  2  1  0
  2  3  2  0
  3  4  1  0
  4  5  2  0
  4  6  1  0
  6  7  1  0
  7  8  2  0
  7  9  1  0
  9 10  1  0
 10 11  1  0
 11 12  2  0
 12 13  1  0
 13 14  2  0
 14 15  1  0
 15 16  2  0
 15 17  1  0
 17 18  1  0
 18 19  1  0
 19 20  2  0
 20 21  1  0
 21 22  2  0
 22 23  1  0
 22 24  1  0
 24 25  2  0
 14 26  1  0
 26 27  2  0
  9  2  1  0
 27 11  1  0
 25 19  1  0
  1 28  1  0
  1 29  1  0
  3 30  1  0
 10 31  1  0
 10 32  1  0
 12 33  1  0
 13 34  1  0
 18 35  1  0
 18 36  1  0
 20 37  1  0
 21 38  1  0
 24 39  1  0
 25 40  1  0
 26 41  1  0
 27 42  1  0
M  CHG  2   6  -1  17  -1
M  END
>  <UniqueID>  (78) 
67

>  <SMILES>  (78) 
Nc1cc(=O)[n-]c(=O)n1Cc1ccc(C(=O)[N-]Cc2ccc(F)cc2)cc1

>  <Energy>  (78) 
50.22909203333584

>  <Genealogy>  (78) 
Nc1cc(=O)[n-]c(=O)n1Cc1ccc(C(=O)[N-]Cc2ccc(F)cc2)cc1 (protonated)
Nc1cc(=O)[n-]c(=O)n1Cc1ccc(C(=O)[N-]Cc2ccc(F)cc2)cc1 (3D coordinates assigned)
Nc1cc(=O)[n-]c(=O)n1Cc1ccc(C(=O)[N-]Cc2ccc(F)cc2)cc1 (optimized conformer: 50.22909203333584 kcal/mol)

>  <smiles>  (78) 
Nc1cc(=O)[nH]c(=O)n1Cc1ccc(C(=O)NCc2ccc(F)cc2)cc1

>  <score_type>  (78) 
oracle

>  <origin>  (78) 
adg

>  <m_score__min__energy>  (78) 
-11.300000000000001

>  <m_primary>  (78) 
energy

$$$$
78:0
     RDKit          3D

 48 50  0  0  0  0  0  0  0  0999 V2000
   59.6250   34.7740   45.2360 C   0  0  0  0  0  0  0  0  0  0  0  0
   59.7250   33.7570   46.2940 N   0  0  0  0  0  0  0  0  0  0  0  0
   60.8140   34.0760   47.2560 C   0  0  0  0  0  0  0  0  0  0  0  0
   60.3240   34.3920   48.6780 C   0  0  0  0  0  0  0  0  0  0  0  0
   59.3900   33.3620   49.1640 N   0  0  0  0  0  0  0  0  0  0  0  0
   59.1780   33.1870   50.5900 C   0  0  0  0  0  0  0  0  0  0  0  0
   60.0060   33.8400   51.5280 C   0  0  0  0  0  0  0  0  0  0  0  0
   59.7980   33.6730   52.9000 C   0  0  0  0  0  0  0  0  0  0  0  0
   58.7630   32.8560   53.3590 C   0  0  0  0  0  0  0  0  0  0  0  0
   57.9320   32.2060   52.4450 C   0  0  0  0  0  0  0  0  0  0  0  0
   56.9260   31.4140   52.8910 F   0  0  0  0  0  0  0  0  0  0  0  0
   58.1340   32.3700   51.0720 C   0  0  0  0  0  0  0  0  0  0  0  0
   58.5090   32.6890   48.1920 C   0  0  2  0  0  0  0  0  0  0  0  0
   59.0030   31.2990   47.8690 C   0  0  0  0  0  0  0  0  0  0  0  0
   58.7450   30.3360   48.6420 O   0  0  0  0  0  0  0  0  0  0  0  0
   59.7890   31.0800   46.6900 N   0  0  0  0  0  0  0  0  0  0  0  0
   60.2900   29.7520   46.3430 C   0  0  0  0  0  0  0  0  0  0  0  0
   59.1660   28.7520   46.3230 C   0  0  0  0  0  0  0  0  0  0  0  0
   59.2280   27.6020   47.1230 C   0  0  0  0  0  0  0  0  0  0  0  0
   58.1680   26.6910   47.1370 C   0  0  0  0  0  0  0  0  0  0  0  0
   57.0200   26.9220   46.3570 C   0  0  0  0  0  0  0  0  0  0  0  0
   55.8990   25.9580   46.3740 C   0  0  0  0  0  0  0  0  0  0  0  0
   56.0750   24.7780   46.7780 O   0  0  0  0  0  0  0  0  0  0  0  0
   54.6330   26.3400   45.9450 O   0  0  0  0  0  0  0  0  0  0  0  0
   56.9550   28.0850   45.5700 C   0  0  0  0  0  0  0  0  0  0  0  0
   58.0170   28.9950   45.5580 C   0  0  0  0  0  0  0  0  0  0  0  0
   58.4000   33.5300   46.9110 C   0  0  0  0  0  0  0  0  0  0  0  0
   59.5271   35.7699   45.6928 H   0  0  0  0  0  0  0  0  0  0  0  0
   60.5304   34.7442   44.6120 H   0  0  0  0  0  0  0  0  0  0  0  0
   58.7427   34.5684   44.6120 H   0  0  0  0  0  0  0  0  0  0  0  0
   61.4923   33.2116   47.3087 H   0  0  0  0  0  0  0  0  0  0  0  0
   61.3102   34.9841   46.8829 H   0  0  0  0  0  0  0  0  0  0  0  0
   61.1908   34.4372   49.3538 H   0  0  0  0  0  0  0  0  0  0  0  0
   59.7961   35.3568   48.6567 H   0  0  0  0  0  0  0  0  0  0  0  0
   60.8231   34.4868   51.1758 H   0  0  0  0  0  0  0  0  0  0  0  0
   60.4516   34.1868   53.6203 H   0  0  0  0  0  0  0  0  0  0  0  0
   58.6027   32.7247   54.4393 H   0  0  0  0  0  0  0  0  0  0  0  0
   57.4718   31.8565   50.3595 H   0  0  0  0  0  0  0  0  0  0  0  0
   57.5117   32.5915   48.6458 H   0  0  0  0  0  0  0  0  0  0  0  0
   60.0020   31.8970   46.0720 H   0  0  0  0  0  0  0  0  0  0  0  0
   60.7578   29.7904   45.3482 H   0  0  0  0  0  0  0  0  0  0  0  0
   61.0277   29.4422   47.0979 H   0  0  0  0  0  0  0  0  0  0  0  0
   60.1168   27.4156   47.7437 H   0  0  0  0  0  0  0  0  0  0  0  0
   58.2317   25.7879   47.7617 H   0  0  0  0  0  0  0  0  0  0  0  0
   56.0617   28.2809   44.9587 H   0  0  0  0  0  0  0  0  0  0  0  0
   57.9502   29.9060   44.9451 H   0  0  0  0  0  0  0  0  0  0  0  0
   57.7568   33.0024   46.1913 H   0  0  0  0  0  0  0  0  0  0  0  0
   57.9723   34.5079   47.1769 H   0  0  0  0  0  0  0  0  0  0  0  0
  1  2  1  0
  2  3  1  0
  3  4  1  0
  4  5  1  0
  5  6  1  0
  6  7  2  0
  7  8  1  0
  8  9  2  0
  9 10  1  0
 10 11  1  0
 10 12  2  0
  5 13  1  0
 13 14  1  0
 14 15  2  0
 14 16  1  0
 16 17  1  0
 17 18  1  0
 18 19  2  0
 19 20  1  0
 20 21  2  0
 21 22  1  0
 22 23  2  0
 22 24  1  0
 21 25  1  0
 25 26  2  0
 13 27  1  0
 27  2  1  0
 12  6  1  0
 26 18  1  0
  1 28  1  0
  1 29  1  0
  1 30  1  0
  3 31  1  0
  3 32  1  0
  4 33  1  0
  4 34  1  0
  7 35  1  0
  8 36  1  0
  9 37  1  0
 12 38  1  0
 13 39  1  1
 16 40  1  0
 17 41  1  0
 17 42  1  0
 19 43  1  0
 20 44  1  0
 25 45  1  0
 26 46  1  0
 27 47  1  0
 27 48  1  0
M  CHG  1  24  -1
M  END
>  <UniqueID>  (79) 
68

>  <SMILES>  (79) 
CN1CCN(c2cccc(F)c2)[C@H](C(=O)NCc2ccc(C(=O)[O-])cc2)C1

>  <Energy>  (79) 
58.096019765884066

>  <Genealogy>  (79) 
CN1CCN(c2cccc(F)c2)C(C(=O)NCc2ccc(C(=O)[O-])cc2)C1 (protonated)
CN1CCN(c2cccc(F)c2)[C@H](C(=O)NCc2ccc(C(=O)[O-])cc2)C1 (chirality)
CN1CCN(c2cccc(F)c2)[C@H](C(=O)NCc2ccc(C(=O)[O-])cc2)C1 (3D coordinates assigned)
CN1CCN(c2cccc(F)c2)[C@H](C(=O)NCc2ccc(C(=O)[O-])cc2)C1 (nonaromatic ring conformer: 58.096019765884066 kcal/mol)

>  <smiles>  (79) 
CN1CCN(c2cccc(F)c2)C(C(=O)NCc2ccc(C(=O)O)cc2)C1

>  <score_type>  (79) 
oracle

>  <origin>  (79) 
adg

>  <m_score__min__energy>  (79) 
-11.130000000000001

>  <m_primary>  (79) 
energy

$$$$
79:0
     RDKit          3D

 47 50  0  0  0  0  0  0  0  0999 V2000
   56.1410   28.1060   44.6440 H   0  0  0  0  0  0  0  0  0  0  0  0
   55.8670   29.0850   44.8830 N   0  0  0  0  0  0  0  0  0  0  0  0
   56.5470   30.1000   44.4560 C   0  0  0  0  0  0  0  0  0  0  0  0
   57.2760   30.8400   45.3300 N   0  0  0  0  0  0  0  0  0  0  0  0
   57.9580   31.9310   44.8950 C   0  0  0  0  0  0  0  0  0  0  0  0
   58.7300   32.7430   45.8500 C   0  0  0  0  0  0  0  0  0  0  0  0
   58.2710   34.0450   46.0920 C   0  0  0  0  0  0  0  0  0  0  0  0
   57.4396   34.4509   45.4970 H   0  0  0  0  0  0  0  0  0  0  0  0
   58.8610   34.8280   47.0810 C   0  0  0  0  0  0  0  0  0  0  0  0
   58.4970   35.8484   47.2714 H   0  0  0  0  0  0  0  0  0  0  0  0
   59.9160   34.3080   47.8270 C   0  0  0  0  0  0  0  0  0  0  0  0
   60.3793   34.9117   48.6213 H   0  0  0  0  0  0  0  0  0  0  0  0
   60.3700   33.0590   47.5730 N   0  0  0  0  0  0  0  0  0  0  0  0
   59.8400   32.2550   46.6100 C   0  0  0  0  0  0  0  0  0  0  0  0
   60.3950   31.0850   46.4420 N   0  0  0  0  0  0  0  0  0  0  0  0
   60.0480   29.8290   47.0390 C   0  0  0  0  0  0  0  0  0  0  0  0
   59.0980   28.9930   46.4320 C   0  0  0  0  0  0  0  0  0  0  0  0
   58.6394   29.2933   45.4783 H   0  0  0  0  0  0  0  0  0  0  0  0
   58.7270   27.7790   47.0280 C   0  0  0  0  0  0  0  0  0  0  0  0
   57.6810   26.9950   46.4270 N   0  0  0  0  0  0  0  0  0  0  0  0
   56.7730   27.4770   46.2390 H   0  0  0  0  0  0  0  0  0  0  0  0
   57.8030   25.6110   46.0520 C   0  0  0  0  0  0  0  0  0  0  0  0
   58.9220   25.0300   46.0900 O   0  0  0  0  0  0  0  0  0  0  0  0
   56.6170   24.8530   45.6100 C   0  0  0  0  0  0  0  0  0  0  0  0
   56.7760   23.5350   45.1520 C   0  0  0  0  0  0  0  0  0  0  0  0
   57.7781   23.0824   45.1224 H   0  0  0  0  0  0  0  0  0  0  0  0
   55.6640   22.7950   44.7330 C   0  0  0  0  0  0  0  0  0  0  0  0
   55.7958   21.7626   44.3769 H   0  0  0  0  0  0  0  0  0  0  0  0
   54.3920   23.3600   44.7650 C   0  0  0  0  0  0  0  0  0  0  0  0
   53.5209   22.7746   44.4355 H   0  0  0  0  0  0  0  0  0  0  0  0
   54.2230   24.6740   45.2170 C   0  0  0  0  0  0  0  0  0  0  0  0
   53.2176   25.1196   45.2430 H   0  0  0  0  0  0  0  0  0  0  0  0
   55.3290   25.4230   45.6360 C   0  0  0  0  0  0  0  0  0  0  0  0
   55.1430   26.7360   46.0510 O   0  0  0  0  0  0  0  0  0  0  0  0
   59.3300   27.4050   48.2430 C   0  0  0  0  0  0  0  0  0  0  0  0
   59.0176   26.4779   48.7458 H   0  0  0  0  0  0  0  0  0  0  0  0
   60.3240   28.2050   48.8150 C   0  0  0  0  0  0  0  0  0  0  0  0
   60.8171   27.8856   49.7450 H   0  0  0  0  0  0  0  0  0  0  0  0
   60.6930   29.4090   48.2090 C   0  0  0  0  0  0  0  0  0  0  0  0
   61.6360   30.1940   48.7890 F   0  0  0  0  0  0  0  0  0  0  0  0
   57.9230   32.2710   43.5830 N   0  0  0  0  0  0  0  0  0  0  0  0
   57.2230   31.5140   42.6990 C   0  0  0  0  0  0  0  0  0  0  0  0
   57.1250   31.9330   41.2740 C   0  0  0  0  0  0  0  0  0  0  0  0
   56.8748   33.0029   41.2228 H   0  0  0  0  0  0  0  0  0  0  0  0
   58.0885   31.7574   40.7731 H   0  0  0  0  0  0  0  0  0  0  0  0
   56.3394   31.3483   40.7731 H   0  0  0  0  0  0  0  0  0  0  0  0
   56.5250   30.4360   43.1400 N   0  0  0  0  0  0  0  0  0  0  0  0
  1  2  1  0
  2  3  2  0
  3  4  1  0
  4  5  2  0
  5  6  1  0
  6  7  2  0
  7  8  1  0
  7  9  1  0
  9 10  1  0
  9 11  2  0
 11 12  1  0
 11 13  1  0
 13 14  1  0
 14 15  2  0
 15 16  1  0
 16 17  2  0
 17 18  1  0
 17 19  1  0
 19 20  1  0
 20 21  1  0
 20 22  1  0
 22 23  2  0
 22 24  1  0
 24 25  2  0
 25 26  1  0
 25 27  1  0
 27 28  1  0
 27 29  2  0
 29 30  1  0
 29 31  1  0
 31 32  1  0
 31 33  2  0
 33 34  1  0
 19 35  2  0
 35 36  1  0
 35 37  1  0
 37 38  1  0
 37 39  2  0
 39 40  1  0
  5 41  1  0
 41 42  1  0
 42 43  1  0
 43 44  1  0
 43 45  1  0
 43 46  1  0
 42 47  2  0
 47  3  1  0
 14  6  1  0
 39 16  1  0
 33 24  1  0
M  CHG  3  13  -1  34  -1  41  -1
M  END
>  <UniqueID>  (80) 
69

>  <SMILES>  (80) 
[H]/N=c1\nc(C)[n-]c(-c2ccc[n-]/c2=N/c2cc(NC(=O)c3ccccc3[O-])ccc2F)n1

>  <Energy>  (80) 
80.0496266048475

>  <Genealogy>  (80) 
Cc1nc(=N)nc(-c2ccc[n-]c2=Nc2cc(NC(=O)c3ccccc3[O-])ccc2F)[n-]1 (protonated)
[H]/N=c1\nc(C)[n-]c(-c2ccc[n-]/c2=N/c2cc(NC(=O)c3ccccc3[O-])ccc2F)n1 (cis-trans isomerization)
[H]/N=c1\nc(C)[n-]c(-c2ccc[n-]/c2=N/c2cc(NC(=O)c3ccccc3[O-])ccc2F)n1 (3D coordinates assigned)
[H]/N=c1\nc(C)[n-]c(-c2ccc[n-]/c2=N/c2cc(NC(=O)c3ccccc3[O-])ccc2F)n1 (optimized conformer: 80.0496266048475 kcal/mol)

>  <smiles>  (80) 
Cc1nc(=N)nc(-c2ccc[nH]c2=Nc2cc(NC(=O)c3ccccc3O)ccc2F)[nH]1

>  <score_type>  (80) 
oracle

>  <origin>  (80) 
adg

>  <m_score__min__energy>  (80) 
-16.170000000000002

>  <m_primary>  (80) 
energy

$$$$
80:0
     RDKit          3D

 44 46  0  0  0  0  0  0  0  0999 V2000
   58.9320   34.5890   44.8380 C   0  0  0  0  0  0  0  0  0  0  0  0
   58.6900   34.5380   46.6400 S   0  0  0  0  0  0  0  0  0  0  0  0
   60.0260   33.3650   46.9080 C   0  0  0  0  0  0  0  0  0  0  0  0
   61.3010   33.8430   47.2370 C   0  0  0  0  0  0  0  0  0  0  0  0
   62.3450   32.9470   47.4830 C   0  0  0  0  0  0  0  0  0  0  0  0
   62.1120   31.5710   47.4240 C   0  0  0  0  0  0  0  0  0  0  0  0
   60.8440   31.0890   47.0920 C   0  0  0  0  0  0  0  0  0  0  0  0
   59.8070   31.9810   46.7710 C   0  0  0  0  0  0  0  0  0  0  0  0
   58.4840   31.4910   46.5230 N   0  0  0  0  0  0  0  0  0  0  0  0
   57.9710   30.8910   45.4830 C   0  0  0  0  0  0  0  0  0  0  0  0
   57.7140   31.6770   44.4020 N   0  0  0  0  0  0  0  0  0  0  0  0
   57.0710   31.2320   43.2940 C   0  0  0  0  0  0  0  0  0  0  0  0
   56.6250   29.9190   43.2350 C   0  0  0  0  0  0  0  0  0  0  0  0
   56.9160   29.0560   44.2870 C   0  0  0  0  0  0  0  0  0  0  0  0
   57.6380   29.4990   45.4090 C   0  0  0  0  0  0  0  0  0  0  0  0
   58.2990   28.2200   46.4550 S   0  0  0  0  0  0  0  0  0  0  0  0
   58.8360   28.8390   47.7160 O   0  0  0  0  0  0  0  0  0  0  0  0
   59.4260   27.5170   45.7520 O   0  0  0  0  0  0  0  0  0  0  0  0
   57.0660   27.0950   46.9200 N   0  0  0  0  0  0  0  0  0  0  0  0
   56.6920   25.9760   46.1150 C   0  0  0  0  0  0  0  0  0  0  0  0
   55.4820   25.6310   46.0360 O   0  0  0  0  0  0  0  0  0  0  0  0
   57.7130   25.2240   45.4450 N   0  0  0  0  0  0  0  0  0  0  0  0
   57.4710   24.0070   44.7220 C   0  0  0  0  0  0  0  0  0  0  0  0
   56.4990   23.9890   43.7110 C   0  0  0  0  0  0  0  0  0  0  0  0
   56.2370   22.8130   43.0020 C   0  0  0  0  0  0  0  0  0  0  0  0
   56.9330   21.6410   43.3070 C   0  0  0  0  0  0  0  0  0  0  0  0
   56.6770   20.5010   42.6200 F   0  0  0  0  0  0  0  0  0  0  0  0
   57.8870   21.6420   44.3290 C   0  0  0  0  0  0  0  0  0  0  0  0
   58.1520   22.8170   45.0400 C   0  0  0  0  0  0  0  0  0  0  0  0
   59.9862   34.8112   44.6158 H   0  0  0  0  0  0  0  0  0  0  0  0
   58.6633   33.6145   44.4042 H   0  0  0  0  0  0  0  0  0  0  0  0
   58.2929   35.3722   44.4042 H   0  0  0  0  0  0  0  0  0  0  0  0
   61.4809   34.9262   47.3019 H   0  0  0  0  0  0  0  0  0  0  0  0
   63.3497   33.3252   47.7230 H   0  0  0  0  0  0  0  0  0  0  0  0
   62.9285   30.8660   47.6394 H   0  0  0  0  0  0  0  0  0  0  0  0
   60.6561   30.0052   47.0818 H   0  0  0  0  0  0  0  0  0  0  0  0
   56.9033   31.9100   42.4442 H   0  0  0  0  0  0  0  0  0  0  0  0
   56.0487   29.5651   42.3675 H   0  0  0  0  0  0  0  0  0  0  0  0
   56.5759   28.0110   44.2400 H   0  0  0  0  0  0  0  0  0  0  0  0
   58.7050   25.4900   45.6360 H   0  0  0  0  0  0  0  0  0  0  0  0
   55.9393   24.9060   43.4745 H   0  0  0  0  0  0  0  0  0  0  0  0
   55.4814   22.8106   42.2026 H   0  0  0  0  0  0  0  0  0  0  0  0
   58.4300   20.7174   44.5743 H   0  0  0  0  0  0  0  0  0  0  0  0
   58.8954   22.8110   45.8507 H   0  0  0  0  0  0  0  0  0  0  0  0
  1  2  1  0
  2  3  1  0
  3  4  2  0
  4  5  1  0
  5  6  2  0
  6  7  1  0
  7  8  2  0
  8  9  1  0
  9 10  2  3
 10 11  1  0
 11 12  1  0
 12 13  2  0
 13 14  1  0
 14 15  2  0
 15 16  1  0
 16 17  2  0
 16 18  2  0
 16 19  1  0
 19 20  1  0
 20 21  2  0
 20 22  1  0
 22 23  1  0
 23 24  2  0
 24 25  1  0
 25 26  2  0
 26 27  1  0
 26 28  1  0
 28 29  2  0
  8  3  1  0
 15 10  1  0
 29 23  1  0
  1 30  1  0
  1 31  1  0
  1 32  1  0
  4 33  1  0
  5 34  1  0
  6 35  1  0
  7 36  1  0
 12 37  1  0
 13 38  1  0
 14 39  1  0
 22 40  1  0
 24 41  1  0
 25 42  1  0
 28 43  1  0
 29 44  1  0
M  CHG  2  11  -1  19  -1
M  END
>  <UniqueID>  (81) 
70

>  <SMILES>  (81) 
CSc1ccccc1N=c1[n-]cccc1S(=O)(=O)[N-]C(=O)Nc1ccc(F)cc1

>  <Energy>  (81) 
68.40422977046273

>  <Genealogy>  (81) 
CSc1ccccc1N=c1[n-]cccc1S(=O)(=O)[N-]C(=O)Nc1ccc(F)cc1 (protonated)
CSc1ccccc1N=c1[n-]cccc1S(=O)(=O)[N-]C(=O)Nc1ccc(F)cc1 (3D coordinates assigned)
CSc1ccccc1N=c1[n-]cccc1S(=O)(=O)[N-]C(=O)Nc1ccc(F)cc1 (optimized conformer: 68.40422977046273 kcal/mol)

>  <smiles>  (81) 
CSc1ccccc1N=c1[nH]cccc1S(=O)(=O)NC(=O)Nc1ccc(F)cc1

>  <score_type>  (81) 
oracle

>  <origin>  (81) 
adg

>  <m_score__min__energy>  (81) 
-11.4

>  <m_primary>  (81) 
energy

$$$$
81:0
     RDKit          3D

 53 56  0  0  0  0  0  0  0  0999 V2000
   53.1200   26.3230   45.3740 H   0  0  0  0  0  0  0  0  0  0  0  0
   53.6480   25.4610   45.6230 N   0  0  0  0  0  0  0  0  0  0  0  0
   54.8890   25.5130   45.9780 C   0  0  0  0  0  0  0  0  0  0  0  0
   55.5750   26.6850   45.9110 N   0  0  0  0  0  0  0  0  0  0  0  0
   56.8850   26.7710   46.2730 C   0  0  0  0  0  0  0  0  0  0  0  0
   57.5880   28.0770   46.1630 C   0  0  0  0  0  0  0  0  0  0  0  0
   58.4140   28.5600   47.1980 C   0  0  0  0  0  0  0  0  0  0  0  0
   58.5301   27.9738   48.1215 H   0  0  0  0  0  0  0  0  0  0  0  0
   59.0860   29.7760   47.0610 C   0  0  0  0  0  0  0  0  0  0  0  0
   59.7301   30.1375   47.8762 H   0  0  0  0  0  0  0  0  0  0  0  0
   58.9480   30.5380   45.8980 C   0  0  0  0  0  0  0  0  0  0  0  0
   59.6880   31.7220   45.7840 O   0  0  0  0  0  0  0  0  0  0  0  0
   60.5060   32.2510   46.7880 C   0  0  0  0  0  0  0  0  0  0  0  0
   61.6410   31.5570   47.2080 C   0  0  0  0  0  0  0  0  0  0  0  0
   61.9120   30.6097   46.7190 H   0  0  0  0  0  0  0  0  0  0  0  0
   62.4350   32.0520   48.2410 C   0  0  0  0  0  0  0  0  0  0  0  0
   63.3295   31.4962   48.5587 H   0  0  0  0  0  0  0  0  0  0  0  0
   62.1010   33.2460   48.8720 C   0  0  0  0  0  0  0  0  0  0  0  0
   63.0830   33.8440   50.2070 S   0  0  0  0  0  0  0  0  0  0  0  0
   64.5200   33.4460   50.0030 O   0  0  0  0  0  0  0  0  0  0  0  0
   63.0090   35.3450   50.2420 O   0  0  0  0  0  0  0  0  0  0  0  0
   62.4910   33.2120   51.7140 N   0  0  0  0  0  0  0  0  0  0  0  0
   61.0790   33.5380   51.8730 C   0  0  0  0  0  0  0  0  0  0  0  0
   60.9391   34.1104   52.8019 H   0  0  0  0  0  0  0  0  0  0  0  0
   60.7467   34.1380   51.0130 H   0  0  0  0  0  0  0  0  0  0  0  0
   60.2520   32.2520   51.9400 C   0  0  2  0  0  0  0  0  0  0  0  0
   60.3636   31.8283   52.9490 H   0  0  0  0  0  0  0  0  0  0  0  0
   60.7270   31.3590   50.9540 O   0  0  0  0  0  0  0  0  0  0  0  0
   59.6580   31.0670   50.0860 C   0  0  0  0  0  0  0  0  0  0  0  0
   59.2781   30.0565   50.2972 H   0  0  0  0  0  0  0  0  0  0  0  0
   60.0052   31.1141   49.0433 H   0  0  0  0  0  0  0  0  0  0  0  0
   58.5530   32.0780   50.3000 C   0  0  0  0  0  0  0  0  0  0  0  0
   57.5632   31.6165   50.1680 H   0  0  0  0  0  0  0  0  0  0  0  0
   58.5835   32.9132   49.5848 H   0  0  0  0  0  0  0  0  0  0  0  0
   58.7620   32.5050   51.7140 C   0  0  0  0  0  0  0  0  0  0  0  0
   58.1510   31.9024   52.4022 H   0  0  0  0  0  0  0  0  0  0  0  0
   58.4699   33.5497   51.8962 H   0  0  0  0  0  0  0  0  0  0  0  0
   60.9890   33.9680   48.4320 C   0  0  0  0  0  0  0  0  0  0  0  0
   60.7299   34.9189   48.9205 H   0  0  0  0  0  0  0  0  0  0  0  0
   60.1960   33.4920   47.3700 C   0  0  0  0  0  0  0  0  0  0  0  0
   58.9810   34.2560   46.9070 C   0  0  0  0  0  0  0  0  0  0  0  0
   58.9130   35.4630   47.5680 F   0  0  0  0  0  0  0  0  0  0  0  0
   59.0780   34.4840   45.5530 F   0  0  0  0  0  0  0  0  0  0  0  0
   57.8060   33.5600   47.1500 F   0  0  0  0  0  0  0  0  0  0  0  0
   58.1110   30.0720   44.8700 C   0  0  0  0  0  0  0  0  0  0  0  0
   57.9876   30.6678   43.9536 H   0  0  0  0  0  0  0  0  0  0  0  0
   57.4350   28.8580   45.0040 C   0  0  0  0  0  0  0  0  0  0  0  0
   56.7763   28.5091   44.1951 H   0  0  0  0  0  0  0  0  0  0  0  0
   57.5410   25.6110   46.7070 C   0  0  0  0  0  0  0  0  0  0  0  0
   58.6037   25.6405   46.9894 H   0  0  0  0  0  0  0  0  0  0  0  0
   56.8210   24.4190   46.7740 C   0  0  0  0  0  0  0  0  0  0  0  0
   57.3850   23.3640   47.1610 O   0  0  0  0  0  0  0  0  0  0  0  0
   55.5120   24.3930   46.4140 N   0  0  0  0  0  0  0  0  0  0  0  0
  1  2  1  0
  2  3  2  0
  3  4  1  0
  4  5  1  0
  5  6  1  0
  6  7  2  0
  7  8  1  0
  7  9  1  0
  9 10  1  0
  9 11  2  0
 11 12  1  0
 12 13  1  0
 13 14  2  0
 14 15  1  0
 14 16  1  0
 16 17  1  0
 16 18  2  0
 18 19  1  0
 19 20  2  0
 19 21  2  0
 19 22  1  0
 22 23  1  0
 23 24  1  0
 23 25  1  0
 23 26  1  0
 26 27  1  1
 26 28  1  0
 28 29  1  0
 29 30  1  0
 29 31  1  0
 29 32  1  0
 32 33  1  0
 32 34  1  0
 32 35  1  0
 35 36  1  0
 35 37  1  0
 18 38  1  0
 38 39  1  0
 38 40  2  0
 40 41  1  0
 41 42  1  0
 41 43  1  0
 41 44  1  0
 11 45  1  0
 45 46  1  0
 45 47  2  0
 47 48  1  0
  5 49  2  0
 49 50  1  0
 49 51  1  0
 51 52  2  0
 51 53  1  0
 53  3  1  0
 47  6  1  0
 40 13  1  0
 35 26  1  0
M  CHG  3   4  -1  22  -1  53  -1
M  END
>  <UniqueID>  (82) 
71

>  <SMILES>  (82) 
[H]/N=c1\[n-]c(-c2ccc(Oc3ccc(S(=O)(=O)[N-]C[C@H]4CCCO4)cc3C(F)(F)F)cc2)cc(=O)[n-]1

>  <Energy>  (82) 
66.87713973648717

>  <Genealogy>  (82) 
N=c1[n-]c(-c2ccc(Oc3ccc(S(=O)(=O)[N-]CC4CCCO4)cc3C(F)(F)F)cc2)cc(=O)[n-]1 (protonated)
N=c1[n-]c(-c2ccc(Oc3ccc(S(=O)(=O)[N-]C[C@H]4CCCO4)cc3C(F)(F)F)cc2)cc(=O)[n-]1 (chirality)
[H]/N=c1\[n-]c(-c2ccc(Oc3ccc(S(=O)(=O)[N-]C[C@H]4CCCO4)cc3C(F)(F)F)cc2)cc(=O)[n-]1 (cis-trans isomerization)
[H]/N=c1\[n-]c(-c2ccc(Oc3ccc(S(=O)(=O)[N-]C[C@H]4CCCO4)cc3C(F)(F)F)cc2)cc(=O)[n-]1 (3D coordinates assigned)
[H]/N=c1\[n-]c(-c2ccc(Oc3ccc(S(=O)(=O)[N-]C[C@H]4CCCO4)cc3C(F)(F)F)cc2)cc(=O)[n-]1 (nonaromatic ring conformer: 66.87713973648717 kcal/mol)

>  <smiles>  (82) 
N=c1[nH]c(-c2ccc(Oc3ccc(S(=O)(=O)NCC4CCCO4)cc3C(F)(F)F)cc2)cc(=O)[nH]1

>  <score_type>  (82) 
oracle

>  <origin>  (82) 
adg

>  <m_score__min__energy>  (82) 
-12.74

>  <m_primary>  (82) 
energy

$$$$
82:0
     RDKit          3D

 33 35  0  0  0  0  0  0  0  0999 V2000
   59.1920   26.1970   45.9320 C   0  0  0  0  0  0  0  0  0  0  0  0
   57.8810   26.3810   47.1800 S   0  0  0  0  0  0  0  0  0  0  0  0
   57.0400   27.6790   46.2690 C   0  0  0  0  0  0  0  0  0  0  0  0
   55.8920   27.4770   45.5890 N   0  0  0  0  0  0  0  0  0  0  0  0
   55.5980   28.5970   44.9930 O   0  0  0  0  0  0  0  0  0  0  0  0
   56.5040   29.5080   45.2520 C   0  0  0  0  0  0  0  0  0  0  0  0
   56.4640   30.6860   44.8090 O   0  0  0  0  0  0  0  0  0  0  0  0
   57.4730   28.9820   46.0810 C   0  0  0  0  0  0  0  0  0  0  0  0
   58.6910   29.6430   46.5990 C   0  0  0  0  0  0  0  0  0  0  0  0
   59.3770   29.1010   47.6970 C   0  0  0  0  0  0  0  0  0  0  0  0
   60.5260   29.7230   48.1930 C   0  0  0  0  0  0  0  0  0  0  0  0
   61.0160   30.8970   47.5970 C   0  0  0  0  0  0  0  0  0  0  0  0
   62.2370   31.5600   48.1240 C   0  0  0  0  0  0  0  0  0  0  0  0
   62.7040   31.2710   49.4200 C   0  0  0  0  0  0  0  0  0  0  0  0
   63.8530   31.8950   49.9150 C   0  0  0  0  0  0  0  0  0  0  0  0
   64.5510   32.8140   49.1260 C   0  0  0  0  0  0  0  0  0  0  0  0
   65.6940   33.4280   49.6330 O   0  0  0  0  0  0  0  0  0  0  0  0
   64.0940   33.1090   47.8360 C   0  0  0  0  0  0  0  0  0  0  0  0
   62.9450   32.4860   47.3370 C   0  0  0  0  0  0  0  0  0  0  0  0
   60.3330   31.4330   46.4910 C   0  0  0  0  0  0  0  0  0  0  0  0
   59.1840   30.8110   45.9960 C   0  0  0  0  0  0  0  0  0  0  0  0
   60.1607   26.0610   46.4351 H   0  0  0  0  0  0  0  0  0  0  0  0
   58.9791   25.3199   45.3032 H   0  0  0  0  0  0  0  0  0  0  0  0
   59.2288   27.0988   45.3032 H   0  0  0  0  0  0  0  0  0  0  0  0
   59.0074   28.1796   48.1707 H   0  0  0  0  0  0  0  0  0  0  0  0
   61.0510   29.2898   49.0571 H   0  0  0  0  0  0  0  0  0  0  0  0
   62.1611   30.5491   50.0478 H   0  0  0  0  0  0  0  0  0  0  0  0
   64.2092   31.6619   50.9293 H   0  0  0  0  0  0  0  0  0  0  0  0
   66.6170   33.2070   49.2750 H   0  0  0  0  0  0  0  0  0  0  0  0
   64.6399   33.8327   47.2129 H   0  0  0  0  0  0  0  0  0  0  0  0
   62.5928   32.7221   46.3220 H   0  0  0  0  0  0  0  0  0  0  0  0
   60.7064   32.3498   46.0114 H   0  0  0  0  0  0  0  0  0  0  0  0
   58.6620   31.2395   45.1277 H   0  0  0  0  0  0  0  0  0  0  0  0
  1  2  1  0
  2  3  1  0
  3  4  1  0
  4  5  1  0
  5  6  1  0
  6  7  2  0
  6  8  1  0
  8  9  1  0
  9 10  2  0
 10 11  1  0
 11 12  2  0
 12 13  1  0
 13 14  2  0
 14 15  1  0
 15 16  2  0
 16 17  1  0
 16 18  1  0
 18 19  2  0
 12 20  1  0
 20 21  2  0
  8  3  2  0
 21  9  1  0
 19 13  1  0
  1 22  1  0
  1 23  1  0
  1 24  1  0
 10 25  1  0
 11 26  1  0
 14 27  1  0
 15 28  1  0
 17 29  1  0
 18 30  1  0
 19 31  1  0
 20 32  1  0
 21 33  1  0
M  CHG  1   4  -1
M  END
>  <UniqueID>  (83) 
72

>  <SMILES>  (83) 
CSc1[n-]oc(=O)c1-c1ccc(-c2ccc(O)cc2)cc1

>  <Energy>  (83) 
74.08936696684133

>  <Genealogy>  (83) 
CSc1[n-]oc(=O)c1-c1ccc(-c2ccc(O)cc2)cc1 (protonated)
CSc1[n-]oc(=O)c1-c1ccc(-c2ccc(O)cc2)cc1 (3D coordinates assigned)
CSc1[n-]oc(=O)c1-c1ccc(-c2ccc(O)cc2)cc1 (optimized conformer: 74.08936696684133 kcal/mol)

>  <smiles>  (83) 
CSc1[nH]oc(=O)c1-c1ccc(-c2ccc(O)cc2)cc1

>  <score_type>  (83) 
oracle

>  <origin>  (83) 
adg

>  <m_score__min__energy>  (83) 
-8.6300000000000008

>  <m_primary>  (83) 
energy

$$$$
83:0
     RDKit          3D

 38 40  0  0  0  0  0  0  0  0999 V2000
   55.1360   26.3340   46.7540 H   0  0  0  0  0  0  0  0  0  0  0  0
   54.8600   25.8040   45.9360 O   0  0  0  0  0  0  0  0  0  0  0  0
   55.6690   24.7870   45.4340 C   0  0  0  0  0  0  0  0  0  0  0  0
   55.2540   24.0830   44.3540 N   0  0  0  0  0  0  0  0  0  0  0  0
   55.9950   23.0790   43.8280 C   0  0  0  0  0  0  0  0  0  0  0  0
   55.5630   22.4720   42.8100 O   0  0  0  0  0  0  0  0  0  0  0  0
   57.1960   22.7350   44.3940 N   0  0  0  0  0  0  0  0  0  0  0  0
   58.0110   21.6630   43.7990 C   0  0  0  0  0  0  0  0  0  0  0  0
   58.4677   21.0624   44.5994 H   0  0  0  0  0  0  0  0  0  0  0  0
   57.3722   21.0193   43.1765 H   0  0  0  0  0  0  0  0  0  0  0  0
   58.8021   22.1064   43.1765 H   0  0  0  0  0  0  0  0  0  0  0  0
   57.6710   23.4460   45.4700 C   0  0  0  0  0  0  0  0  0  0  0  0
   58.8020   23.1640   45.9550 O   0  0  0  0  0  0  0  0  0  0  0  0
   56.9040   24.4930   46.0310 C   0  0  0  0  0  0  0  0  0  0  0  0
   57.3560   25.2860   47.2060 C   0  0  0  0  0  0  0  0  0  0  0  0
   57.7525   24.7628   48.0887 H   0  0  0  0  0  0  0  0  0  0  0  0
   57.2920   26.5840   47.2110 N   0  0  0  0  0  0  0  0  0  0  0  0
   57.9480   27.4940   46.3110 C   0  0  0  0  0  0  0  0  0  0  0  0
   59.3440   27.5030   46.1050 C   0  0  0  0  0  0  0  0  0  0  0  0
   59.9835   26.7910   46.6474 H   0  0  0  0  0  0  0  0  0  0  0  0
   59.9160   28.4150   45.2130 C   0  0  0  0  0  0  0  0  0  0  0  0
   61.0055   28.4228   45.0619 H   0  0  0  0  0  0  0  0  0  0  0  0
   59.1110   29.3160   44.5130 C   0  0  0  0  0  0  0  0  0  0  0  0
   59.5675   30.0328   43.8146 H   0  0  0  0  0  0  0  0  0  0  0  0
   57.7250   29.3080   44.6990 C   0  0  0  0  0  0  0  0  0  0  0  0
   56.7010   30.4320   43.8110 S   0  0  0  0  0  0  0  0  0  0  0  0
   55.3420   30.5260   44.4480 O   0  0  0  0  0  0  0  0  0  0  0  0
   56.5480   29.9380   42.3990 O   0  0  0  0  0  0  0  0  0  0  0  0
   57.4230   32.0100   43.7840 N   0  0  0  0  0  0  0  0  0  0  0  0
   57.8000   32.6600   44.8430 C   0  0  0  0  0  0  0  0  0  0  0  0
   57.6870   32.1410   46.0830 N   0  0  0  0  0  0  0  0  0  0  0  0
   58.1390   33.0050   47.0300 C   0  0  0  0  0  0  0  0  0  0  0  0
   58.1281   32.7615   48.1027 H   0  0  0  0  0  0  0  0  0  0  0  0
   58.6160   34.2180   46.5470 C   0  0  0  0  0  0  0  0  0  0  0  0
   59.0204   35.0410   47.1545 H   0  0  0  0  0  0  0  0  0  0  0  0
   58.4670   34.2080   44.8720 S   0  0  0  0  0  0  0  0  0  0  0  0
   57.1510   28.4000   45.6000 C   0  0  0  0  0  0  0  0  0  0  0  0
   56.0613   28.3992   45.7503 H   0  0  0  0  0  0  0  0  0  0  0  0
  1  2  1  0
  2  3  1  0
  3  4  1  0
  4  5  1  0
  5  6  2  0
  5  7  1  0
  7  8  1  0
  8  9  1  0
  8 10  1  0
  8 11  1  0
  7 12  1  0
 12 13  2  0
 12 14  1  0
 14 15  1  0
 15 16  1  0
 15 17  2  3
 17 18  1  0
 18 19  2  0
 19 20  1  0
 19 21  1  0
 21 22  1  0
 21 23  2  0
 23 24  1  0
 23 25  1  0
 25 26  1  0
 26 27  2  0
 26 28  2  0
 26 29  1  0
 29 30  2  0
 30 31  1  0
 31 32  1  0
 32 33  1  0
 32 34  2  0
 34 35  1  0
 34 36  1  0
 25 37  2  0
 37 38  1  0
 14  3  2  0
 37 18  1  0
 36 30  1  0
M  CHG  2   4  -1  31  -1
M  END
>  <UniqueID>  (84) 
73

>  <SMILES>  (84) 
Cn1c(=O)[n-]c(O)c(C=Nc2cccc(S(=O)(=O)/N=c3/[n-]ccs3)c2)c1=O

>  <Energy>  (84) 
83.27176051702202

>  <Genealogy>  (84) 
Cn1c(=O)[n-]c(O)c(C=Nc2cccc(S(=O)(=O)N=c3[n-]ccs3)c2)c1=O (protonated)
Cn1c(=O)[n-]c(O)c(C=Nc2cccc(S(=O)(=O)/N=c3/[n-]ccs3)c2)c1=O (cis-trans isomerization)
Cn1c(=O)[n-]c(O)c(C=Nc2cccc(S(=O)(=O)/N=c3/[n-]ccs3)c2)c1=O (3D coordinates assigned)
Cn1c(=O)[n-]c(O)c(C=Nc2cccc(S(=O)(=O)/N=c3/[n-]ccs3)c2)c1=O (optimized conformer: 83.27176051702202 kcal/mol)

>  <smiles>  (84) 
Cn1c(=O)[nH]c(O)c(C=Nc2cccc(S(=O)(=O)N=c3[nH]ccs3)c2)c1=O

>  <score_type>  (84) 
oracle

>  <origin>  (84) 
adg

>  <m_score__min__energy>  (84) 
-12.699999999999999

>  <m_primary>  (84) 
energy

$$$$
84:0
     RDKit          3D

 41 43  0  0  0  0  0  0  0  0999 V2000
   55.1350   29.3420   44.9010 N   0  0  0  0  0  0  0  0  0  0  0  0
   56.6300   29.6000   44.0760 S   0  0  0  0  0  0  0  0  0  0  0  0
   56.3500   29.9510   42.6410 O   0  0  0  0  0  0  0  0  0  0  0  0
   57.4530   28.3420   44.1170 O   0  0  0  0  0  0  0  0  0  0  0  0
   57.5110   30.9050   44.8630 C   0  0  0  0  0  0  0  0  0  0  0  0
   57.0790   32.2290   44.7020 C   0  0  0  0  0  0  0  0  0  0  0  0
   57.8000   33.2800   45.2740 C   0  0  0  0  0  0  0  0  0  0  0  0
   58.9590   33.0170   46.0160 C   0  0  0  0  0  0  0  0  0  0  0  0
   59.9170   34.3500   46.6520 S   0  0  0  0  0  0  0  0  0  0  0  0
   59.5650   35.6340   45.9540 O   0  0  0  0  0  0  0  0  0  0  0  0
   61.3710   34.0530   46.4180 O   0  0  0  0  0  0  0  0  0  0  0  0
   59.6490   34.5340   48.3570 N   0  0  0  0  0  0  0  0  0  0  0  0
   59.9450   33.5230   49.3390 C   0  0  0  0  0  0  0  0  0  0  0  0
   60.8310   33.8270   50.3840 C   0  0  0  0  0  0  0  0  0  0  0  0
   61.1300   32.8750   51.3610 C   0  0  0  0  0  0  0  0  0  0  0  0
   60.5470   31.6080   51.3070 C   0  0  0  0  0  0  0  0  0  0  0  0
   59.6690   31.2850   50.2660 C   0  0  0  0  0  0  0  0  0  0  0  0
   58.9190   29.6930   50.1980 S   0  0  0  0  0  0  0  0  0  0  0  0
   59.9020   28.6310   50.6090 O   0  0  0  0  0  0  0  0  0  0  0  0
   57.7460   29.6650   51.1360 O   0  0  0  0  0  0  0  0  0  0  0  0
   58.3700   29.3570   48.5880 N   0  0  0  0  0  0  0  0  0  0  0  0
   58.7490   28.3160   47.9140 C   0  0  0  0  0  0  0  0  0  0  0  0
   57.9040   27.3730   47.4450 N   0  0  0  0  0  0  0  0  0  0  0  0
   58.5740   26.4070   46.7610 C   0  0  0  0  0  0  0  0  0  0  0  0
   59.9500   26.5870   46.6820 C   0  0  0  0  0  0  0  0  0  0  0  0
   60.3450   28.0000   47.5080 S   0  0  0  0  0  0  0  0  0  0  0  0
   59.3710   32.2390   49.2830 C   0  0  0  0  0  0  0  0  0  0  0  0
   59.3840   31.6920   46.1920 C   0  0  0  0  0  0  0  0  0  0  0  0
   58.6620   30.6410   45.6180 C   0  0  0  0  0  0  0  0  0  0  0  0
   55.3070   28.6080   45.6240 H   0  0  0  0  0  0  0  0  0  0  0  0
   56.1683   32.4412   44.1227 H   0  0  0  0  0  0  0  0  0  0  0  0
   57.4569   34.3167   45.1415 H   0  0  0  0  0  0  0  0  0  0  0  0
   59.2430   35.4430   48.6740 H   0  0  0  0  0  0  0  0  0  0  0  0
   61.2939   34.8236   50.4340 H   0  0  0  0  0  0  0  0  0  0  0  0
   61.8266   33.1242   52.1750 H   0  0  0  0  0  0  0  0  0  0  0  0
   60.7777   30.8631   52.0828 H   0  0  0  0  0  0  0  0  0  0  0  0
   58.0642   25.5462   46.3037 H   0  0  0  0  0  0  0  0  0  0  0  0
   60.6589   25.9210   46.1683 H   0  0  0  0  0  0  0  0  0  0  0  0
   58.6843   31.9826   48.4628 H   0  0  0  0  0  0  0  0  0  0  0  0
   60.2871   31.4792   46.7828 H   0  0  0  0  0  0  0  0  0  0  0  0
   58.9986   29.6034   45.7595 H   0  0  0  0  0  0  0  0  0  0  0  0
  1  2  1  0
  2  3  2  0
  2  4  2  0
  2  5  1  0
  5  6  2  0
  6  7  1  0
  7  8  2  0
  8  9  1  0
  9 10  2  0
  9 11  2  0
  9 12  1  0
 12 13  1  0
 13 14  2  0
 14 15  1  0
 15 16  2  0
 16 17  1  0
 17 18  1  0
 18 19  2  0
 18 20  2  0
 18 21  1  0
 21 22  2  3
 22 23  1  0
 23 24  1  0
 24 25  2  0
 25 26  1  0
 17 27  2  0
  8 28  1  0
 28 29  2  0
 29  5  1  0
 27 13  1  0
 26 22  1  0
  1 30  1  0
  6 31  1  0
  7 32  1  0
 12 33  1  0
 14 34  1  0
 15 35  1  0
 16 36  1  0
 24 37  1  0
 25 38  1  0
 27 39  1  0
 28 40  1  0
 29 41  1  0
M  CHG  2   1  -1  23  -1
M  END
>  <UniqueID>  (85) 
74

>  <SMILES>  (85) 
[NH-]S(=O)(=O)c1ccc(S(=O)(=O)Nc2cccc(S(=O)(=O)N=c3[n-]ccs3)c2)cc1

>  <Energy>  (85) 
74.41346811967304

>  <Genealogy>  (85) 
[NH-]S(=O)(=O)c1ccc(S(=O)(=O)Nc2cccc(S(=O)(=O)N=c3[n-]ccs3)c2)cc1 (protonated)
[NH-]S(=O)(=O)c1ccc(S(=O)(=O)Nc2cccc(S(=O)(=O)N=c3[n-]ccs3)c2)cc1 (3D coordinates assigned)
[NH-]S(=O)(=O)c1ccc(S(=O)(=O)Nc2cccc(S(=O)(=O)N=c3[n-]ccs3)c2)cc1 (optimized conformer: 74.41346811967304 kcal/mol)

>  <smiles>  (85) 
NS(=O)(=O)c1ccc(S(=O)(=O)Nc2cccc(S(=O)(=O)N=c3[nH]ccs3)c2)cc1

>  <score_type>  (85) 
oracle

>  <origin>  (85) 
adg

>  <m_score__min__energy>  (85) 
-12.77

>  <m_primary>  (85) 
energy

$$$$
85:0
     RDKit          3D

 54 55  0  0  0  0  0  0  0  0999 V2000
   58.0398   31.1732   42.6651 H   0  0  0  0  0  0  0  0  0  0  0  0
   57.6150   31.4210   43.6490 C   0  0  0  0  0  0  0  0  0  0  0  0
   57.0810   30.3250   44.4850 C   0  0  0  0  0  0  0  0  0  0  0  0
   55.8630   30.3650   44.8060 O   0  0  0  0  0  0  0  0  0  0  0  0
   57.9100   29.1940   44.9670 C   0  0  0  0  0  0  0  0  0  0  0  0
   59.3140   29.2740   44.9680 C   0  0  0  0  0  0  0  0  0  0  0  0
   59.8106   30.1839   44.5999 H   0  0  0  0  0  0  0  0  0  0  0  0
   60.0810   28.2040   45.4340 C   0  0  0  0  0  0  0  0  0  0  0  0
   61.1790   28.2692   45.4204 H   0  0  0  0  0  0  0  0  0  0  0  0
   59.4580   27.0520   45.9170 C   0  0  0  0  0  0  0  0  0  0  0  0
   60.0687   26.2114   46.2781 H   0  0  0  0  0  0  0  0  0  0  0  0
   58.0630   26.9590   45.9450 C   0  0  0  0  0  0  0  0  0  0  0  0
   57.4660   25.7620   46.4620 N   0  0  0  0  0  0  0  0  0  0  0  0
   55.8760   25.1880   46.0730 S   0  0  0  0  0  0  0  0  0  0  0  0
   54.9190   26.3440   46.0010 O   0  0  0  0  0  0  0  0  0  0  0  0
   55.4190   24.2130   47.1210 O   0  0  0  0  0  0  0  0  0  0  0  0
   55.9220   24.3600   44.4930 C   0  0  0  0  0  0  0  0  0  0  0  0
   55.6263   25.0692   43.7059 H   0  0  0  0  0  0  0  0  0  0  0  0
   55.2275   23.5075   44.5224 H   0  0  0  0  0  0  0  0  0  0  0  0
   57.3210   23.8380   44.1940 C   0  0  0  0  0  0  0  0  0  0  0  0
   57.8486   23.6411   45.1389 H   0  0  0  0  0  0  0  0  0  0  0  0
   57.2485   22.9064   43.6136 H   0  0  0  0  0  0  0  0  0  0  0  0
   57.8764   24.5894   43.6136 H   0  0  0  0  0  0  0  0  0  0  0  0
   57.2900   28.0380   45.4740 C   0  0  0  0  0  0  0  0  0  0  0  0
   56.1921   27.9760   45.5029 H   0  0  0  0  0  0  0  0  0  0  0  0
   57.6040   32.7040   44.0380 C   0  0  0  0  0  0  0  0  0  0  0  0
   57.1119   33.4396   43.3848 H   0  0  0  0  0  0  0  0  0  0  0  0
   58.2180   33.1890   45.3000 C   0  0  0  0  0  0  0  0  0  0  0  0
   59.1820   34.2100   45.3260 C   0  0  0  0  0  0  0  0  0  0  0  0
   59.5031   34.6818   44.3856 H   0  0  0  0  0  0  0  0  0  0  0  0
   59.7350   34.6300   46.5350 C   0  0  0  0  0  0  0  0  0  0  0  0
   60.5004   35.4201   46.5378 H   0  0  0  0  0  0  0  0  0  0  0  0
   59.3260   34.0560   47.7480 C   0  0  0  0  0  0  0  0  0  0  0  0
   59.9380   34.5430   49.0350 C   0  0  0  0  0  0  0  0  0  0  0  0
   59.3935   34.1097   49.8869 H   0  0  0  0  0  0  0  0  0  0  0  0
   60.9930   34.2347   49.0790 H   0  0  0  0  0  0  0  0  0  0  0  0
   59.8745   35.6403   49.0790 H   0  0  0  0  0  0  0  0  0  0  0  0
   58.3410   33.0400   47.7420 C   0  0  0  0  0  0  0  0  0  0  0  0
   57.9060   32.4310   48.9740 N   0  0  0  0  0  0  0  0  0  0  0  0
   57.0040   32.7170   49.4090 H   0  0  0  0  0  0  0  0  0  0  0  0
   58.7440   31.1070   49.7200 S   0  0  0  0  0  0  0  0  0  0  0  0
   59.8470   31.6460   50.5860 O   0  0  0  0  0  0  0  0  0  0  0  0
   57.7770   30.3420   50.5800 O   0  0  0  0  0  0  0  0  0  0  0  0
   59.4050   30.0550   48.4940 N   0  0  0  0  0  0  0  0  0  0  0  0
   59.5850   28.7090   49.0520 C   0  0  0  0  0  0  0  0  0  0  0  0
   59.5777   28.7635   50.1506 H   0  0  0  0  0  0  0  0  0  0  0  0
   58.7659   28.0584   48.7117 H   0  0  0  0  0  0  0  0  0  0  0  0
   60.5463   28.2965   48.7117 H   0  0  0  0  0  0  0  0  0  0  0  0
   60.6930   30.5880   48.0380 C   0  0  0  0  0  0  0  0  0  0  0  0
   61.3130   30.8445   48.9097 H   0  0  0  0  0  0  0  0  0  0  0  0
   61.2095   29.8297   47.4311 H   0  0  0  0  0  0  0  0  0  0  0  0
   60.5226   31.4895   47.4311 H   0  0  0  0  0  0  0  0  0  0  0  0
   57.7970   32.6220   46.5120 C   0  0  0  0  0  0  0  0  0  0  0  0
   57.0275   31.8361   46.5016 H   0  0  0  0  0  0  0  0  0  0  0  0
  1  2  1  0
  2  3  1  0
  3  4  2  0
  3  5  1  0
  5  6  2  0
  6  7  1  0
  6  8  1  0
  8  9  1  0
  8 10  2  0
 10 11  1  0
 10 12  1  0
 12 13  1  0
 13 14  1  0
 14 15  2  0
 14 16  2  0
 14 17  1  0
 17 18  1  0
 17 19  1  0
 17 20  1  0
 20 21  1  0
 20 22  1  0
 20 23  1  0
 12 24  2  0
 24 25  1  0
  2 26  2  0
 26 27  1  0
 26 28  1  0
 28 29  2  0
 29 30  1  0
 29 31  1  0
 31 32  1  0
 31 33  2  0
 33 34  1  0
 34 35  1  0
 34 36  1  0
 34 37  1  0
 33 38  1  0
 38 39  1  0
 39 40  1  0
 39 41  1  0
 41 42  2  0
 41 43  2  0
 41 44  1  0
 44 45  1  0
 45 46  1  0
 45 47  1  0
 45 48  1  0
 44 49  1  0
 49 50  1  0
 49 51  1  0
 49 52  1  0
 38 53  2  0
 53 54  1  0
 24  5  1  0
 53 28  1  0
M  CHG  1  13  -1
M  END
>  <UniqueID>  (86) 
75

>  <SMILES>  (86) 
CCS(=O)(=O)[N-]c1cccc(C(=O)/C=C/c2ccc(C)c(NS(=O)(=O)N(C)C)c2)c1

>  <Energy>  (86) 
56.24946742763003

>  <Genealogy>  (86) 
CCS(=O)(=O)[N-]c1cccc(C(=O)C=Cc2ccc(C)c(NS(=O)(=O)N(C)C)c2)c1 (protonated)
CCS(=O)(=O)[N-]c1cccc(C(=O)/C=C/c2ccc(C)c(NS(=O)(=O)N(C)C)c2)c1 (cis-trans isomerization)
CCS(=O)(=O)[N-]c1cccc(C(=O)/C=C/c2ccc(C)c(NS(=O)(=O)N(C)C)c2)c1 (3D coordinates assigned)
CCS(=O)(=O)[N-]c1cccc(C(=O)/C=C/c2ccc(C)c(NS(=O)(=O)N(C)C)c2)c1 (optimized conformer: 56.24946742763003 kcal/mol)

>  <smiles>  (86) 
CCS(=O)(=O)Nc1cccc(C(=O)C=Cc2ccc(C)c(NS(=O)(=O)N(C)C)c2)c1

>  <score_type>  (86) 
oracle

>  <origin>  (86) 
adg

>  <m_score__min__energy>  (86) 
-11.94

>  <m_primary>  (86) 
energy

$$$$
86:0
     RDKit          3D

 78 83  0  0  0  0  0  0  0  0999 V2000
   63.2455   29.6224   50.2738 H   0  0  0  0  0  0  0  0  0  0  0  0
   62.5100   30.4380   50.2120 C   0  0  0  0  0  0  0  0  0  0  0  0
   63.0230   31.8200   50.3220 C   0  0  0  0  0  0  0  0  0  0  0  0
   63.5370   32.5240   49.2880 N   0  0  0  0  0  0  0  0  0  0  0  0
   63.6310   32.1330   47.8790 C   0  0  0  0  0  0  0  0  0  0  0  0
   64.4694   32.6712   47.4128 H   0  0  0  0  0  0  0  0  0  0  0  0
   63.7915   31.0459   47.8300 H   0  0  0  0  0  0  0  0  0  0  0  0
   62.3390   32.4670   47.1210 C   0  0  0  0  0  0  0  0  0  0  0  0
   62.5641   32.5089   46.0451 H   0  0  0  0  0  0  0  0  0  0  0  0
   61.6060   31.6810   47.3555 H   0  0  0  0  0  0  0  0  0  0  0  0
   61.7260   33.8120   47.5470 C   0  0  0  0  0  0  0  0  0  0  0  0
   62.1987   34.1325   48.4871 H   0  0  0  0  0  0  0  0  0  0  0  0
   61.9069   34.5322   46.7355 H   0  0  0  0  0  0  0  0  0  0  0  0
   60.2690   33.7310   47.7550 N   0  0  0  0  0  0  0  0  0  0  0  0
   59.7750   33.4370   49.0730 C   0  0  0  0  0  0  0  0  0  0  0  0
   58.6140   32.6640   49.2300 C   0  0  0  0  0  0  0  0  0  0  0  0
   58.0733   32.3004   48.3438 H   0  0  0  0  0  0  0  0  0  0  0  0
   58.1430   32.3550   50.5090 C   0  0  0  0  0  0  0  0  0  0  0  0
   57.2295   31.7539   50.6284 H   0  0  0  0  0  0  0  0  0  0  0  0
   58.8330   32.8100   51.6370 C   0  0  0  0  0  0  0  0  0  0  0  0
   58.4680   32.5578   52.6436 H   0  0  0  0  0  0  0  0  0  0  0  0
   59.9860   33.5850   51.4860 C   0  0  0  0  0  0  0  0  0  0  0  0
   60.5231   33.9486   52.3744 H   0  0  0  0  0  0  0  0  0  0  0  0
   60.4580   33.8990   50.2090 C   0  0  0  0  0  0  0  0  0  0  0  0
   61.3660   34.5091   50.0937 H   0  0  0  0  0  0  0  0  0  0  0  0
   59.3940   33.4510   46.6430 C   0  0  0  0  0  0  0  0  0  0  0  0
   58.6810   34.4860   46.0050 C   0  0  0  0  0  0  0  0  0  0  0  0
   58.7400   35.5127   46.3955 H   0  0  0  0  0  0  0  0  0  0  0  0
   57.8990   34.2140   44.8780 C   0  0  0  0  0  0  0  0  0  0  0  0
   57.3499   35.0280   44.3822 H   0  0  0  0  0  0  0  0  0  0  0  0
   57.8130   32.9120   44.3800 C   0  0  0  0  0  0  0  0  0  0  0  0
   57.1930   32.7008   43.4963 H   0  0  0  0  0  0  0  0  0  0  0  0
   58.5140   31.8790   45.0040 C   0  0  0  0  0  0  0  0  0  0  0  0
   58.4502   30.8547   44.6082 H   0  0  0  0  0  0  0  0  0  0  0  0
   59.2970   32.1440   46.1310 C   0  0  0  0  0  0  0  0  0  0  0  0
   59.8419   31.3241   46.6217 H   0  0  0  0  0  0  0  0  0  0  0  0
   63.9870   33.6790   49.8200 C   0  0  0  0  0  0  0  0  0  0  0  0
   64.4622   34.4999   49.2630 H   0  0  0  0  0  0  0  0  0  0  0  0
   63.7520   33.6590   51.1780 C   0  0  0  0  0  0  0  0  0  0  0  0
   63.9998   34.4637   51.8859 H   0  0  0  0  0  0  0  0  0  0  0  0
   63.1670   32.4860   51.4910 N   0  0  0  0  0  0  0  0  0  0  0  0
   62.8070   32.0410   52.8350 C   0  0  0  0  0  0  0  0  0  0  0  0
   63.3168   32.6711   53.5787 H   0  0  0  0  0  0  0  0  0  0  0  0
   61.7183   32.1233   52.9692 H   0  0  0  0  0  0  0  0  0  0  0  0
   63.1148   30.9935   52.9692 H   0  0  0  0  0  0  0  0  0  0  0  0
   61.2070   30.0880   50.0410 C   0  0  0  0  0  0  0  0  0  0  0  0
   60.6200   29.8930   48.7650 C   0  0  0  0  0  0  0  0  0  0  0  0
   61.3390   29.9270   47.7290 O   0  0  0  0  0  0  0  0  0  0  0  0
   59.2420   29.5840   48.6640 C   0  0  0  0  0  0  0  0  0  0  0  0
   58.5940   29.4130   47.4840 C   0  0  0  0  0  0  0  0  0  0  0  0
   58.0988   30.2975   47.0569 H   0  0  0  0  0  0  0  0  0  0  0  0
   58.4890   28.1560   46.7180 C   0  0  0  0  0  0  0  0  0  0  0  0
   58.1890   28.1740   45.3450 C   0  0  0  0  0  0  0  0  0  0  0  0
   58.0514   29.1341   44.8261 H   0  0  0  0  0  0  0  0  0  0  0  0
   58.0650   26.9750   44.6370 C   0  0  0  0  0  0  0  0  0  0  0  0
   57.8532   26.9932   43.5577 H   0  0  0  0  0  0  0  0  0  0  0  0
   58.2100   25.7530   45.3000 C   0  0  0  0  0  0  0  0  0  0  0  0
   58.0850   24.5910   44.6130 F   0  0  0  0  0  0  0  0  0  0  0  0
   58.4710   25.7280   46.6730 C   0  0  0  0  0  0  0  0  0  0  0  0
   58.5749   24.7658   47.1958 H   0  0  0  0  0  0  0  0  0  0  0  0
   58.6000   26.9270   47.3820 C   0  0  0  0  0  0  0  0  0  0  0  0
   58.7894   26.9050   48.4654 H   0  0  0  0  0  0  0  0  0  0  0  0
   58.5330   29.3980   49.8170 N   0  0  0  0  0  0  0  0  0  0  0  0
   57.5240   29.1250   49.7500 H   0  0  0  0  0  0  0  0  0  0  0  0
   59.0770   29.5340   51.0330 N   0  0  0  0  0  0  0  0  0  0  0  0
   58.2350   29.3430   52.1910 C   0  0  0  0  0  0  0  0  0  0  0  0
   58.6040   28.4470   53.2110 C   0  0  0  0  0  0  0  0  0  0  0  0
   59.5535   27.8963   53.1387 H   0  0  0  0  0  0  0  0  0  0  0  0
   57.7690   28.2530   54.3170 C   0  0  0  0  0  0  0  0  0  0  0  0
   58.0637   27.5513   55.1112 H   0  0  0  0  0  0  0  0  0  0  0  0
   56.5620   28.9490   54.4140 C   0  0  0  0  0  0  0  0  0  0  0  0
   55.9068   28.7954   55.2842 H   0  0  0  0  0  0  0  0  0  0  0  0
   56.1870   29.8400   53.4060 C   0  0  0  0  0  0  0  0  0  0  0  0
   55.2366   30.3884   53.4836 H   0  0  0  0  0  0  0  0  0  0  0  0
   57.0170   30.0360   52.2990 C   0  0  0  0  0  0  0  0  0  0  0  0
   56.7151   30.7372   51.5070 H   0  0  0  0  0  0  0  0  0  0  0  0
   60.3920   29.8860   51.1770 C   0  0  0  0  0  0  0  0  0  0  0  0
   60.8680   30.0640   52.3360 O   0  0  0  0  0  0  0  0  0  0  0  0
  1  2  1  0
  2  3  1  0
  3  4  1  0
  4  5  1  0
  5  6  1  0
  5  7  1  0
  5  8  1  0
  8  9  1  0
  8 10  1  0
  8 11  1  0
 11 12  1  0
 11 13  1  0
 11 14  1  0
 14 15  1  0
 15 16  2  0
 16 17  1  0
 16 18  1  0
 18 19  1  0
 18 20  2  0
 20 21  1  0
 20 22  1  0
 22 23  1  0
 22 24  2  0
 24 25  1  0
 14 26  1  0
 26 27  2  0
 27 28  1  0
 27 29  1  0
 29 30  1  0
 29 31  2  0
 31 32  1  0
 31 33  1  0
 33 34  1  0
 33 35  2  0
 35 36  1  0
  4 37  1  0
 37 38  1  0
 37 39  2  0
 39 40  1  0
 39 41  1  0
 41 42  1  0
 42 43  1  0
 42 44  1  0
 42 45  1  0
  2 46  2  0
 46 47  1  0
 47 48  2  0
 47 49  1  0
 49 50  2  0
 50 51  1  0
 50 52  1  0
 52 53  2  0
 53 54  1  0
 53 55  1  0
 55 56  1  0
 55 57  2  0
 57 58  1  0
 57 59  1  0
 59 60  1  0
 59 61  2  0
 61 62  1  0
 49 63  1  0
 63 64  1  0
 63 65  1  0
 65 66  1  0
 66 67  2  0
 67 68  1  0
 67 69  1  0
 69 70  1  0
 69 71  2  0
 71 72  1  0
 71 73  1  0
 73 74  1  0
 73 75  2  0
 75 76  1  0
 65 77  1  0
 77 78  2  0
 41  3  2  0
 77 46  1  0
 24 15  1  0
 35 26  1  0
 61 52  1  0
 75 66  1  0
M  CHG  1  41   1
M  END
>  <UniqueID>  (87) 
76

>  <SMILES>  (87) 
C[n+]1ccn(CCCN(c2ccccc2)c2ccccc2)c1/C=c1\c(=O)/c(=C\c2ccc(F)cc2)[nH]n(-c2ccccc2)c1=O

>  <Energy>  (87) 
152.20647226318016

>  <Genealogy>  (87) 
C[n+]1ccn(CCCN(c2ccccc2)c2ccccc2)c1/C=c1\c(=O)/c(=C\c2ccc(F)cc2)[nH]n(-c2ccccc2)c1=O (cis-trans isomerization)
C[n+]1ccn(CCCN(c2ccccc2)c2ccccc2)c1/C=c1\c(=O)/c(=C\c2ccc(F)cc2)[nH]n(-c2ccccc2)c1=O (3D coordinates assigned)
C[n+]1ccn(CCCN(c2ccccc2)c2ccccc2)c1/C=c1\c(=O)/c(=C\c2ccc(F)cc2)[nH]n(-c2ccccc2)c1=O (optimized conformer: 152.20647226318016 kcal/mol)

>  <smiles>  (87) 
C[n+]1ccn(CCCN(c2ccccc2)c2ccccc2)c1C=c1c(=O)c(=Cc2ccc(F)cc2)[nH]n(-c2ccccc2)c1=O

>  <score_type>  (87) 
oracle

>  <origin>  (87) 
adg

>  <m_score__min__energy>  (87) 
-9.4299999999999997

>  <m_primary>  (87) 
energy

$$$$
87:0
     RDKit          3D

 33 33  0  0  0  0  0  0  0  0999 V2000
   55.1440   27.9110   45.3660 H   0  0  0  0  0  0  0  0  0  0  0  0
   55.5490   27.0350   45.6780 O   0  0  0  0  0  0  0  0  0  0  0  0
   56.8700   26.9560   46.1150 C   0  0  0  0  0  0  0  0  0  0  0  0
   57.4310   25.7140   46.4460 C   0  0  0  0  0  0  0  0  0  0  0  0
   56.8245   24.7998   46.3661 H   0  0  0  0  0  0  0  0  0  0  0  0
   58.7580   25.6340   46.8770 C   0  0  0  0  0  0  0  0  0  0  0  0
   59.1919   24.6590   47.1437 H   0  0  0  0  0  0  0  0  0  0  0  0
   59.5330   26.7920   46.9690 C   0  0  0  0  0  0  0  0  0  0  0  0
   60.5799   26.7271   47.3003 H   0  0  0  0  0  0  0  0  0  0  0  0
   58.9810   28.0330   46.6410 C   0  0  0  0  0  0  0  0  0  0  0  0
   59.5985   28.9410   46.7059 H   0  0  0  0  0  0  0  0  0  0  0  0
   57.6390   28.1270   46.2280 C   0  0  0  0  0  0  0  0  0  0  0  0
   57.0470   29.3820   45.8630 N   0  0  0  0  0  0  0  0  0  0  0  0
   56.3400   29.6670   44.6500 C   0  0  0  0  0  0  0  0  0  0  0  0
   55.1250   29.3560   44.5230 O   0  0  0  0  0  0  0  0  0  0  0  0
   57.0800   30.2480   43.4870 C   0  0  0  0  0  0  0  0  0  0  0  0
   58.1128   29.8694   43.4902 H   0  0  0  0  0  0  0  0  0  0  0  0
   56.5689   29.9529   42.5588 H   0  0  0  0  0  0  0  0  0  0  0  0
   57.1040   31.7460   43.5700 C   0  0  0  0  0  0  0  0  0  0  0  0
   56.1538   32.2954   43.6432 H   0  0  0  0  0  0  0  0  0  0  0  0
   58.2580   32.4310   43.5570 C   0  0  0  0  0  0  0  0  0  0  0  0
   59.0863   32.0753   42.9267 H   0  0  0  0  0  0  0  0  0  0  0  0
   58.4460   33.6740   44.3840 C   0  0  0  0  0  0  0  0  0  0  0  0
   59.3802   33.5779   44.9568 H   0  0  0  0  0  0  0  0  0  0  0  0
   58.4786   34.5306   43.6947 H   0  0  0  0  0  0  0  0  0  0  0  0
   57.2870   33.9120   45.3680 C   0  0  0  0  0  0  0  0  0  0  0  0
   57.1411   34.9963   45.4816 H   0  0  0  0  0  0  0  0  0  0  0  0
   56.3964   33.4183   44.9519 H   0  0  0  0  0  0  0  0  0  0  0  0
   57.5410   33.3060   46.7530 C   0  0  0  0  0  0  0  0  0  0  0  0
   58.3629   33.8514   47.2398 H   0  0  0  0  0  0  0  0  0  0  0  0
   56.6198   33.3896   47.3482 H   0  0  0  0  0  0  0  0  0  0  0  0
   57.8870   31.9500   46.6490 O   0  0  0  0  0  0  0  0  0  0  0  0
   57.0620   31.4590   46.3950 H   0  0  0  0  0  0  0  0  0  0  0  0
  1  2  1  0
  2  3  1  0
  3  4  2  0
  4  5  1  0
  4  6  1  0
  6  7  1  0
  6  8  2  0
  8  9  1  0
  8 10  1  0
 10 11  1  0
 10 12  2  0
 12 13  1  0
 13 14  1  0
 14 15  2  0
 14 16  1  0
 16 17  1  0
 16 18  1  0
 16 19  1  0
 19 20  1  0
 19 21  2  0
 21 22  1  0
 21 23  1  0
 23 24  1  0
 23 25  1  0
 23 26  1  0
 26 27  1  0
 26 28  1  0
 26 29  1  0
 29 30  1  0
 29 31  1  0
 29 32  1  0
 32 33  1  0
 12  3  1  0
M  CHG  1  13  -1
M  END
>  <UniqueID>  (88) 
77

>  <SMILES>  (88) 
O=C(C/C=C/CCCO)[N-]c1ccccc1O

>  <Energy>  (88) 
25.4946703899419

>  <Genealogy>  (88) 
O=C(CC=CCCCO)[N-]c1ccccc1O (protonated)
O=C(C/C=C/CCCO)[N-]c1ccccc1O (cis-trans isomerization)
O=C(C/C=C/CCCO)[N-]c1ccccc1O (3D coordinates assigned)
O=C(C/C=C/CCCO)[N-]c1ccccc1O (optimized conformer: 25.4946703899419 kcal/mol)

>  <smiles>  (88) 
O=C(CC=CCCCO)Nc1ccccc1O

>  <score_type>  (88) 
oracle

>  <origin>  (88) 
adg

>  <m_score__min__energy>  (88) 
-8.6099999999999994

>  <m_primary>  (88) 
energy

$$$$
88:0
     RDKit          3D

 37 39  0  0  0  0  0  0  0  0999 V2000
   58.5170   35.2510   53.1950 N   0  0  0  0  0  0  0  0  0  0  0  0
   59.4740   33.8120   53.1960 S   0  0  0  0  0  0  0  0  0  0  0  0
   60.8540   34.1230   53.7030 O   0  0  0  0  0  0  0  0  0  0  0  0
   58.8440   32.7920   54.1040 O   0  0  0  0  0  0  0  0  0  0  0  0
   59.5710   33.1730   51.5590 C   0  0  0  0  0  0  0  0  0  0  0  0
   58.5320   32.3890   51.0430 C   0  0  0  0  0  0  0  0  0  0  0  0
   58.6050   31.8940   49.7370 C   0  0  0  0  0  0  0  0  0  0  0  0
   59.7220   32.1700   48.9330 C   0  0  0  0  0  0  0  0  0  0  0  0
   59.7620   31.6710   47.5860 N   0  0  0  0  0  0  0  0  0  0  0  0
   59.0140   32.2320   46.4940 C   0  0  0  0  0  0  0  0  0  0  0  0
   58.9450   33.8580   46.3140 S   0  0  0  0  0  0  0  0  0  0  0  0
   58.7100   31.4230   45.3490 N   0  0  0  0  0  0  0  0  0  0  0  0
   57.7040   30.6020   45.1940 C   0  0  0  0  0  0  0  0  0  0  0  0
   56.5380   30.9740   44.4890 C   0  0  0  0  0  0  0  0  0  0  0  0
   55.4930   30.0630   44.3410 C   0  0  0  0  0  0  0  0  0  0  0  0
   55.5930   28.8140   44.8600 N   0  0  0  0  0  0  0  0  0  0  0  0
   56.7000   28.4040   45.5310 C   0  0  0  0  0  0  0  0  0  0  0  0
   56.7570   27.1010   46.0400 C   0  0  0  0  0  0  0  0  0  0  0  0
   57.8920   26.6670   46.7300 C   0  0  0  0  0  0  0  0  0  0  0  0
   58.9750   27.5290   46.9120 C   0  0  0  0  0  0  0  0  0  0  0  0
   58.9300   28.8330   46.4090 C   0  0  0  0  0  0  0  0  0  0  0  0
   57.7920   29.2890   45.7100 C   0  0  0  0  0  0  0  0  0  0  0  0
   60.7500   32.9820   49.4460 C   0  0  0  0  0  0  0  0  0  0  0  0
   60.6750   33.4760   50.7510 C   0  0  0  0  0  0  0  0  0  0  0  0
   58.1530   35.3760   52.2250 H   0  0  0  0  0  0  0  0  0  0  0  0
   59.1640   36.0490   53.3790 H   0  0  0  0  0  0  0  0  0  0  0  0
   57.6552   32.1616   51.6671 H   0  0  0  0  0  0  0  0  0  0  0  0
   57.7814   31.2842   49.3371 H   0  0  0  0  0  0  0  0  0  0  0  0
   60.3700   30.8460   47.3810 H   0  0  0  0  0  0  0  0  0  0  0  0
   56.4544   31.9821   44.0569 H   0  0  0  0  0  0  0  0  0  0  0  0
   54.5821   30.3590   43.8001 H   0  0  0  0  0  0  0  0  0  0  0  0
   55.9069   26.4178   45.8965 H   0  0  0  0  0  0  0  0  0  0  0  0
   57.9322   25.6434   47.1308 H   0  0  0  0  0  0  0  0  0  0  0  0
   59.8672   27.1811   47.4532 H   0  0  0  0  0  0  0  0  0  0  0  0
   59.7863   29.5070   46.5590 H   0  0  0  0  0  0  0  0  0  0  0  0
   61.6175   33.2293   48.8164 H   0  0  0  0  0  0  0  0  0  0  0  0
   61.4862   34.1055   51.1457 H   0  0  0  0  0  0  0  0  0  0  0  0
  1  2  1  0
  2  3  2  0
  2  4  2  0
  2  5  1  0
  5  6  2  0
  6  7  1  0
  7  8  2  0
  8  9  1  0
  9 10  1  0
 10 11  2  0
 10 12  1  0
 12 13  2  3
 13 14  1  0
 14 15  2  0
 15 16  1  0
 16 17  1  0
 17 18  2  0
 18 19  1  0
 19 20  2  0
 20 21  1  0
 21 22  2  0
  8 23  1  0
 23 24  2  0
 24  5  1  0
 22 13  1  0
 22 17  1  0
  1 25  1  0
  1 26  1  0
  6 27  1  0
  7 28  1  0
  9 29  1  0
 14 30  1  0
 15 31  1  0
 18 32  1  0
 19 33  1  0
 20 34  1  0
 21 35  1  0
 23 36  1  0
 24 37  1  0
M  CHG  1  16  -1
M  END
>  <UniqueID>  (89) 
78

>  <SMILES>  (89) 
NS(=O)(=O)c1ccc(NC(=S)N=c2cc[n-]c3ccccc23)cc1

>  <Energy>  (89) 
54.87777652460741

>  <Genealogy>  (89) 
NS(=O)(=O)c1ccc(NC(=S)N=c2cc[n-]c3ccccc23)cc1 (protonated)
NS(=O)(=O)c1ccc(NC(=S)N=c2cc[n-]c3ccccc23)cc1 (3D coordinates assigned)
NS(=O)(=O)c1ccc(NC(=S)N=c2cc[n-]c3ccccc23)cc1 (optimized conformer: 54.87777652460741 kcal/mol)

>  <smiles>  (89) 
NS(=O)(=O)c1ccc(NC(=S)N=c2cc[nH]c3ccccc23)cc1

>  <score_type>  (89) 
oracle

>  <origin>  (89) 
adg

>  <m_score__min__energy>  (89) 
-9.3399999999999999

>  <m_primary>  (89) 
energy

$$$$
89:0
     RDKit          3D

 39 41  0  0  0  0  0  0  0  0999 V2000
   56.1131   29.3834   43.4982 H   0  0  0  0  0  0  0  0  0  0  0  0
   56.9540   29.3390   44.2060 C   0  0  0  0  0  0  0  0  0  0  0  0
   57.3110   28.1180   44.7840 C   0  0  0  0  0  0  0  0  0  0  0  0
   56.7444   27.2081   44.5371 H   0  0  0  0  0  0  0  0  0  0  0  0
   58.3870   28.0490   45.6760 C   0  0  0  0  0  0  0  0  0  0  0  0
   58.8220   26.5080   46.4100 S   0  0  0  0  0  0  0  0  0  0  0  0
   59.9040   26.6980   47.4370 O   0  0  0  0  0  0  0  0  0  0  0  0
   59.3230   25.5820   45.3390 O   0  0  0  0  0  0  0  0  0  0  0  0
   57.4350   25.7980   47.1730 N   0  0  0  0  0  0  0  0  0  0  0  0
   56.3060   25.5670   46.5720 C   0  0  0  0  0  0  0  0  0  0  0  0
   55.3930   26.5290   46.3440 N   0  0  0  0  0  0  0  0  0  0  0  0
   54.3950   25.9520   45.7380 O   0  0  0  0  0  0  0  0  0  0  0  0
   54.6250   24.6700   45.5620 C   0  0  0  0  0  0  0  0  0  0  0  0
   53.6730   23.7210   44.9190 C   0  0  0  0  0  0  0  0  0  0  0  0
   53.1218   23.1715   45.6963 H   0  0  0  0  0  0  0  0  0  0  0  0
   52.9631   24.2815   44.2930 H   0  0  0  0  0  0  0  0  0  0  0  0
   54.2313   23.0094   44.2930 H   0  0  0  0  0  0  0  0  0  0  0  0
   55.8590   24.3520   46.0880 C   0  0  0  0  0  0  0  0  0  0  0  0
   56.3626   23.3744   46.1156 H   0  0  0  0  0  0  0  0  0  0  0  0
   59.1170   29.2070   45.9720 C   0  0  0  0  0  0  0  0  0  0  0  0
   59.9735   29.1545   46.6602 H   0  0  0  0  0  0  0  0  0  0  0  0
   58.7600   30.4300   45.3950 C   0  0  0  0  0  0  0  0  0  0  0  0
   59.3416   31.3349   45.6248 H   0  0  0  0  0  0  0  0  0  0  0  0
   57.6600   30.5070   44.5220 C   0  0  0  0  0  0  0  0  0  0  0  0
   57.2710   31.7360   43.8910 N   0  0  0  0  0  0  0  0  0  0  0  0
   58.1420   32.7320   43.3360 C   0  0  0  0  0  0  0  0  0  0  0  0
   58.4790   32.6810   42.1240 O   0  0  0  0  0  0  0  0  0  0  0  0
   58.6010   33.8330   44.1340 N   0  0  0  0  0  0  0  0  0  0  0  0
   58.8560   33.8630   45.4160 C   0  0  0  0  0  0  0  0  0  0  0  0
   59.9200   34.6110   45.9650 C   0  0  0  0  0  0  0  0  0  0  0  0
   60.5810   35.1974   45.3098 H   0  0  0  0  0  0  0  0  0  0  0  0
   60.1270   34.6010   47.3450 C   0  0  0  0  0  0  0  0  0  0  0  0
   60.9590   35.1741   47.7800 H   0  0  0  0  0  0  0  0  0  0  0  0
   59.2810   33.8660   48.1720 C   0  0  0  0  0  0  0  0  0  0  0  0
   59.4451   33.8468   49.2595 H   0  0  0  0  0  0  0  0  0  0  0  0
   58.2240   33.1550   47.6060 C   0  0  0  0  0  0  0  0  0  0  0  0
   57.5447   32.5770   48.2498 H   0  0  0  0  0  0  0  0  0  0  0  0
   58.0300   33.1740   46.2580 N   0  0  0  0  0  0  0  0  0  0  0  0
   57.2270   32.6310   45.8660 H   0  0  0  0  0  0  0  0  0  0  0  0
  1  2  1  0
  2  3  2  0
  3  4  1  0
  3  5  1  0
  5  6  1  0
  6  7  2  0
  6  8  2  0
  6  9  1  0
  9 10  2  0
 10 11  1  0
 11 12  1  0
 12 13  1  0
 13 14  1  0
 14 15  1  0
 14 16  1  0
 14 17  1  0
 13 18  2  0
 18 19  1  0
  5 20  2  0
 20 21  1  0
 20 22  1  0
 22 23  1  0
 22 24  2  0
 24 25  1  0
 25 26  1  0
 26 27  2  0
 26 28  1  0
 28 29  2  0
 29 30  1  0
 30 31  1  0
 30 32  2  0
 32 33  1  0
 32 34  1  0
 34 35  1  0
 34 36  2  0
 36 37  1  0
 36 38  1  0
 38 39  1  0
 24  2  1  0
 38 29  1  0
 18 10  1  0
M  CHG  2  11  -1  25  -1
M  END
>  <UniqueID>  (90) 
79

>  <SMILES>  (90) 
Cc1c/c(=N\S(=O)(=O)c2ccc([N-]C(=O)/N=c3\cccc[nH]3)cc2)[n-]o1

>  <Energy>  (90) 
86.24507591157123

>  <Genealogy>  (90) 
Cc1cc(=NS(=O)(=O)c2ccc([N-]C(=O)N=c3cccc[nH]3)cc2)[n-]o1 (protonated)
Cc1c/c(=N\S(=O)(=O)c2ccc([N-]C(=O)/N=c3\cccc[nH]3)cc2)[n-]o1 (cis-trans isomerization)
Cc1c/c(=N\S(=O)(=O)c2ccc([N-]C(=O)/N=c3\cccc[nH]3)cc2)[n-]o1 (3D coordinates assigned)
Cc1c/c(=N\S(=O)(=O)c2ccc([N-]C(=O)/N=c3\cccc[nH]3)cc2)[n-]o1 (optimized conformer: 86.24507591157123 kcal/mol)

>  <smiles>  (90) 
Cc1cc(=NS(=O)(=O)c2ccc(NC(=O)N=c3cccc[nH]3)cc2)[nH]o1

>  <score_type>  (90) 
oracle

>  <origin>  (90) 
adg

>  <m_score__min__energy>  (90) 
-11.550000000000001

>  <m_primary>  (90) 
energy

$$$$
90:0
     RDKit          3D

 71 75  0  0  0  0  0  0  0  0999 V2000
   56.8430   29.7100   43.7810 C   0  0  0  0  0  0  0  0  0  0  0  0
   56.6690   30.6020   44.8770 O   0  0  0  0  0  0  0  0  0  0  0  0
   57.6960   31.3720   45.4460 C   0  0  0  0  0  0  0  0  0  0  0  0
   57.6000   32.7670   45.3770 C   0  0  0  0  0  0  0  0  0  0  0  0
   58.6110   33.5780   45.9010 C   0  0  0  0  0  0  0  0  0  0  0  0
   59.7350   33.0040   46.5170 C   0  0  0  0  0  0  0  0  0  0  0  0
   60.8620   33.8470   46.9760 C   0  0  0  0  0  0  0  0  0  0  0  0
   61.8690   33.9900   46.2310 O   0  0  0  0  0  0  0  0  0  0  0  0
   60.8270   34.5590   48.2180 N   0  0  0  0  0  0  0  0  0  0  0  0
   61.9090   34.5700   49.2000 C   0  0  0  0  0  0  0  0  0  0  0  0
   62.2440   33.1740   49.6410 C   0  0  0  0  0  0  0  0  0  0  0  0
   63.3750   32.5410   49.2760 N   0  0  0  0  0  0  0  0  0  0  0  0
   63.3520   31.3400   49.8420 N   0  0  0  0  0  0  0  0  0  0  0  0
   62.2070   31.2630   50.5430 C   0  0  0  0  0  0  0  0  0  0  0  0
   61.7260   29.8200   51.4950 S   0  0  0  0  0  0  0  0  0  0  0  0
   61.1660   28.8530   50.0490 C   0  0  0  0  0  0  0  0  0  0  0  0
   59.6950   28.9880   49.8270 C   0  0  0  0  0  0  0  0  0  0  0  0
   58.9300   29.2650   50.7940 O   0  0  0  0  0  0  0  0  0  0  0  0
   59.1790   28.9280   48.4940 N   0  0  0  0  0  0  0  0  0  0  0  0
   59.1430   27.7500   47.6750 C   0  0  0  0  0  0  0  0  0  0  0  0
   60.3190   27.0740   47.3110 C   0  0  0  0  0  0  0  0  0  0  0  0
   60.2500   25.9210   46.5250 C   0  0  0  0  0  0  0  0  0  0  0  0
   59.0130   25.4380   46.0920 C   0  0  0  0  0  0  0  0  0  0  0  0
   58.9670   24.2780   45.3260 O   0  0  0  0  0  0  0  0  0  0  0  0
   57.8310   26.1230   46.4300 C   0  0  0  0  0  0  0  0  0  0  0  0
   56.2600   25.4820   45.9430 S   0  0  0  0  0  0  0  0  0  0  0  0
   55.8800   24.3840   46.8980 O   0  0  0  0  0  0  0  0  0  0  0  0
   55.2200   26.5670   45.9950 O   0  0  0  0  0  0  0  0  0  0  0  0
   56.3610   24.8590   44.3240 N   0  0  0  0  0  0  0  0  0  0  0  0
   56.5580   23.5990   44.0540 C   0  0  0  0  0  0  0  0  0  0  0  0
   56.2290   22.9300   42.7690 C   0  0  0  0  0  0  0  0  0  0  0  0
   56.7330   21.4940   42.9740 C   0  0  0  0  0  0  0  0  0  0  0  0
   57.1420   21.3620   44.4520 C   0  0  0  0  0  0  0  0  0  0  0  0
   57.0940   22.7000   45.0020 N   0  0  0  0  0  0  0  0  0  0  0  0
   57.9070   27.2870   47.2080 C   0  0  0  0  0  0  0  0  0  0  0  0
   61.4750   32.3870   50.4270 N   0  0  0  0  0  0  0  0  0  0  0  0
   60.1710   32.6470   50.9670 C   0  0  0  0  0  0  0  0  0  0  0  0
   59.0310   32.0920   50.3600 C   0  0  0  0  0  0  0  0  0  0  0  0
   57.7610   32.3420   50.8880 C   0  0  0  0  0  0  0  0  0  0  0  0
   57.6220   33.1400   52.0280 C   0  0  0  0  0  0  0  0  0  0  0  0
   58.7500   33.6930   52.6380 C   0  0  0  0  0  0  0  0  0  0  0  0
   60.0230   33.4500   52.1080 C   0  0  0  0  0  0  0  0  0  0  0  0
   59.8280   31.6030   46.5940 C   0  0  0  0  0  0  0  0  0  0  0  0
   58.8180   30.7910   46.0660 C   0  0  0  0  0  0  0  0  0  0  0  0
   57.0407   28.6967   44.1607 H   0  0  0  0  0  0  0  0  0  0  0  0
   55.9299   29.7001   43.1678 H   0  0  0  0  0  0  0  0  0  0  0  0
   57.6929   30.0440   43.1678 H   0  0  0  0  0  0  0  0  0  0  0  0
   56.7203   33.2296   44.9058 H   0  0  0  0  0  0  0  0  0  0  0  0
   58.5256   34.6724   45.8304 H   0  0  0  0  0  0  0  0  0  0  0  0
   62.8008   35.0293   48.7487 H   0  0  0  0  0  0  0  0  0  0  0  0
   61.5827   35.1479   50.0773 H   0  0  0  0  0  0  0  0  0  0  0  0
   61.6955   29.2118   49.1541 H   0  0  0  0  0  0  0  0  0  0  0  0
   61.3868   27.7926   50.2407 H   0  0  0  0  0  0  0  0  0  0  0  0
   61.2960   27.4530   47.6453 H   0  0  0  0  0  0  0  0  0  0  0  0
   61.1731   25.3917   46.2462 H   0  0  0  0  0  0  0  0  0  0  0  0
   56.2680   25.5420   43.5370 H   0  0  0  0  0  0  0  0  0  0  0  0
   55.1446   22.9437   42.5848 H   0  0  0  0  0  0  0  0  0  0  0  0
   56.6856   23.4245   41.8990 H   0  0  0  0  0  0  0  0  0  0  0  0
   55.9330   20.7766   42.7388 H   0  0  0  0  0  0  0  0  0  0  0  0
   57.5856   21.2811   42.3123 H   0  0  0  0  0  0  0  0  0  0  0  0
   56.4397   20.7044   44.9853 H   0  0  0  0  0  0  0  0  0  0  0  0
   58.1445   20.9209   44.5540 H   0  0  0  0  0  0  0  0  0  0  0  0
   57.3400   22.9400   45.9860 H   0  0  0  0  0  0  0  0  0  0  0  0
   56.9886   27.8406   47.4533 H   0  0  0  0  0  0  0  0  0  0  0  0
   59.1386   31.4590   49.4668 H   0  0  0  0  0  0  0  0  0  0  0  0
   56.8708   31.9109   50.4067 H   0  0  0  0  0  0  0  0  0  0  0  0
   56.6224   33.3324   52.4449 H   0  0  0  0  0  0  0  0  0  0  0  0
   58.6384   34.3197   53.5351 H   0  0  0  0  0  0  0  0  0  0  0  0
   60.9098   33.8900   52.5876 H   0  0  0  0  0  0  0  0  0  0  0  0
   60.7032   31.1408   47.0740 H   0  0  0  0  0  0  0  0  0  0  0  0
   58.9012   29.6964   46.1357 H   0  0  0  0  0  0  0  0  0  0  0  0
  1  2  1  0
  2  3  1  0
  3  4  2  0
  4  5  1  0
  5  6  2  0
  6  7  1  0
  7  8  2  0
  7  9  1  0
  9 10  1  0
 10 11  1  0
 11 12  2  0
 12 13  1  0
 13 14  2  0
 14 15  1  0
 15 16  1  0
 16 17  1  0
 17 18  2  0
 17 19  1  0
 19 20  1  0
 20 21  2  0
 21 22  1  0
 22 23  2  0
 23 24  1  0
 23 25  1  0
 25 26  1  0
 26 27  2  0
 26 28  2  0
 26 29  1  0
 29 30  2  3
 30 31  1  0
 31 32  1  0
 32 33  1  0
 33 34  1  0
 25 35  2  0
 14 36  1  0
 36 37  1  0
 37 38  2  0
 38 39  1  0
 39 40  2  0
 40 41  1  0
 41 42  2  0
  6 43  1  0
 43 44  2  0
 44  3  1  0
 36 11  1  0
 42 37  1  0
 35 20  1  0
 34 30  1  0
  1 45  1  0
  1 46  1  0
  1 47  1  0
  4 48  1  0
  5 49  1  0
 10 50  1  0
 10 51  1  0
 16 52  1  0
 16 53  1  0
 21 54  1  0
 22 55  1  0
 29 56  1  0
 31 57  1  0
 31 58  1  0
 32 59  1  0
 32 60  1  0
 33 61  1  0
 33 62  1  0
 34 63  1  0
 35 64  1  0
 38 65  1  0
 39 66  1  0
 40 67  1  0
 41 68  1  0
 42 69  1  0
 43 70  1  0
 44 71  1  0
M  CHG  4   9  -1  19  -1  24  -1  29   1
M  END
>  <UniqueID>  (91) 
80

>  <SMILES>  (91) 
COc1ccc(C(=O)[N-]Cc2nnc(SCC(=O)[N-]c3ccc([O-])c(S(=O)(=O)[NH+]=C4CCCN4)c3)n2-c2ccccc2)cc1

>  <Energy>  (91) 
129.5044041379422

>  <Genealogy>  (91) 
COc1ccc(C(=O)[N-]Cc2nnc(SCC(=O)[N-]c3ccc([O-])c(S(=O)(=O)[NH+]=C4CCCN4)c3)n2-c2ccccc2)cc1 (protonated)
COc1ccc(C(=O)[N-]Cc2nnc(SCC(=O)[N-]c3ccc([O-])c(S(=O)(=O)[NH+]=C4CCCN4)c3)n2-c2ccccc2)cc1 (3D coordinates assigned)
COc1ccc(C(=O)[N-]Cc2nnc(SCC(=O)[N-]c3ccc([O-])c(S(=O)(=O)[NH+]=C4CCCN4)c3)n2-c2ccccc2)cc1 (nonaromatic ring conformer: 129.5044041379422 kcal/mol)

>  <smiles>  (91) 
COc1ccc(C(=O)NCc2nnc(SCC(=O)Nc3ccc(O)c(S(=O)(=O)N=C4CCCN4)c3)n2-c2ccccc2)cc1

>  <score_type>  (91) 
oracle

>  <origin>  (91) 
adg

>  <m_score__min__energy>  (91) 
-11.880000000000001

>  <m_primary>  (91) 
energy

$$$$
91:0
     RDKit          3D

 49 52  0  0  0  0  0  0  0  0999 V2000
   56.5570   30.9770   42.6000 O   0  0  0  0  0  0  0  0  0  0  0  0
   57.3310   30.8910   43.5890 C   0  0  0  0  0  0  0  0  0  0  0  0
   57.9660   32.0800   44.0780 N   0  0  0  0  0  0  0  0  0  0  0  0
   58.3880   32.3140   45.4300 C   0  0  0  0  0  0  0  0  0  0  0  0
   58.0280   33.5150   46.0530 C   0  0  0  0  0  0  0  0  0  0  0  0
   58.4550   33.7930   47.3550 C   0  0  0  0  0  0  0  0  0  0  0  0
   59.2570   32.8760   48.0450 C   0  0  0  0  0  0  0  0  0  0  0  0
   59.8300   33.2660   49.6650 S   0  0  0  0  0  0  0  0  0  0  0  0
   59.2890   34.6100   50.0630 O   0  0  0  0  0  0  0  0  0  0  0  0
   59.3610   32.2390   50.6590 O   0  0  0  0  0  0  0  0  0  0  0  0
   61.5620   33.3210   49.6750 N   0  0  0  0  0  0  0  0  0  0  0  0
   62.2810   33.2620   48.5970 C   0  0  0  0  0  0  0  0  0  0  0  0
   62.2260   34.1740   47.6030 N   0  0  0  0  0  0  0  0  0  0  0  0
   63.0930   33.8670   46.6010 C   0  0  0  0  0  0  0  0  0  0  0  0
   63.8360   32.7070   46.7990 C   0  0  0  0  0  0  0  0  0  0  0  0
   63.3920   32.0460   48.2830 S   0  0  0  0  0  0  0  0  0  0  0  0
   59.6310   31.6780   47.4220 C   0  0  0  0  0  0  0  0  0  0  0  0
   59.2090   31.4030   46.1180 C   0  0  0  0  0  0  0  0  0  0  0  0
   57.5410   29.5770   44.2330 C   0  0  0  0  0  0  0  0  0  0  0  0
   58.6450   28.7800   43.8860 C   0  0  0  0  0  0  0  0  0  0  0  0
   58.8090   27.5150   44.4550 C   0  0  0  0  0  0  0  0  0  0  0  0
   57.8630   27.0240   45.3660 C   0  0  0  0  0  0  0  0  0  0  0  0
   57.9700   25.3750   45.9740 S   0  0  0  0  0  0  0  0  0  0  0  0
   59.1990   25.2500   46.8290 O   0  0  0  0  0  0  0  0  0  0  0  0
   58.0650   24.3850   44.8470 O   0  0  0  0  0  0  0  0  0  0  0  0
   56.5660   25.0390   46.9370 N   0  0  0  0  0  0  0  0  0  0  0  0
   55.4310   24.2840   46.4910 C   0  0  0  0  0  0  0  0  0  0  0  0
   55.3540   22.8890   46.6640 C   0  0  0  0  0  0  0  0  0  0  0  0
   54.2450   22.1770   46.2000 C   0  0  0  0  0  0  0  0  0  0  0  0
   54.1660   20.4400   46.4240 Cl  0  0  0  0  0  0  0  0  0  0  0  0
   53.1990   22.8510   45.5630 C   0  0  0  0  0  0  0  0  0  0  0  0
   53.2560   24.2380   45.4050 C   0  0  0  0  0  0  0  0  0  0  0  0
   54.3650   24.9550   45.8710 C   0  0  0  0  0  0  0  0  0  0  0  0
   54.4070   26.3340   45.7090 O   0  0  0  0  0  0  0  0  0  0  0  0
   56.7780   27.8280   45.7360 C   0  0  0  0  0  0  0  0  0  0  0  0
   56.6240   29.1030   45.1850 C   0  0  0  0  0  0  0  0  0  0  0  0
   57.4052   34.2446   45.5147 H   0  0  0  0  0  0  0  0  0  0  0  0
   58.1598   34.7356   47.8390 H   0  0  0  0  0  0  0  0  0  0  0  0
   63.1991   34.4897   45.7005 H   0  0  0  0  0  0  0  0  0  0  0  0
   64.5837   32.2935   46.1062 H   0  0  0  0  0  0  0  0  0  0  0  0
   60.2582   30.9521   47.9603 H   0  0  0  0  0  0  0  0  0  0  0  0
   59.5208   30.4691   45.6275 H   0  0  0  0  0  0  0  0  0  0  0  0
   59.3841   29.1543   43.1624 H   0  0  0  0  0  0  0  0  0  0  0  0
   59.6826   26.9023   44.1877 H   0  0  0  0  0  0  0  0  0  0  0  0
   56.1732   22.3555   47.1683 H   0  0  0  0  0  0  0  0  0  0  0  0
   52.3313   22.2895   45.1863 H   0  0  0  0  0  0  0  0  0  0  0  0
   52.4273   24.7684   44.9131 H   0  0  0  0  0  0  0  0  0  0  0  0
   56.0431   27.4541   46.4641 H   0  0  0  0  0  0  0  0  0  0  0  0
   55.7817   29.7374   45.4981 H   0  0  0  0  0  0  0  0  0  0  0  0
  1  2  2  0
  2  3  1  0
  3  4  1  0
  4  5  2  0
  5  6  1  0
  6  7  2  0
  7  8  1  0
  8  9  2  0
  8 10  2  0
  8 11  1  0
 11 12  2  3
 12 13  1  0
 13 14  1  0
 14 15  2  0
 15 16  1  0
  7 17  1  0
 17 18  2  0
  2 19  1  0
 19 20  2  0
 20 21  1  0
 21 22  2  0
 22 23  1  0
 23 24  2  0
 23 25  2  0
 23 26  1  0
 26 27  1  0
 27 28  2  0
 28 29  1  0
 29 30  1  0
 29 31  2  0
 31 32  1  0
 32 33  2  0
 33 34  1  0
 22 35  1  0
 35 36  2  0
 18  4  1  0
 36 19  1  0
 16 12  1  0
 33 27  1  0
  5 37  1  0
  6 38  1  0
 14 39  1  0
 15 40  1  0
 17 41  1  0
 18 42  1  0
 20 43  1  0
 21 44  1  0
 28 45  1  0
 31 46  1  0
 32 47  1  0
 35 48  1  0
 36 49  1  0
M  CHG  4   3  -1  13  -1  26  -1  34  -1
M  END
>  <UniqueID>  (92) 
81

>  <SMILES>  (92) 
O=C([N-]c1ccc(S(=O)(=O)N=c2[n-]ccs2)cc1)c1ccc(S(=O)(=O)[N-]c2cc(Cl)ccc2[O-])cc1

>  <Energy>  (92) 
94.54145267916576

>  <Genealogy>  (92) 
O=C([N-]c1ccc(S(=O)(=O)N=c2[n-]ccs2)cc1)c1ccc(S(=O)(=O)[N-]c2cc(Cl)ccc2[O-])cc1 (protonated)
O=C([N-]c1ccc(S(=O)(=O)N=c2[n-]ccs2)cc1)c1ccc(S(=O)(=O)[N-]c2cc(Cl)ccc2[O-])cc1 (3D coordinates assigned)
O=C([N-]c1ccc(S(=O)(=O)N=c2[n-]ccs2)cc1)c1ccc(S(=O)(=O)[N-]c2cc(Cl)ccc2[O-])cc1 (optimized conformer: 94.54145267916576 kcal/mol)

>  <smiles>  (92) 
O=C(Nc1ccc(S(=O)(=O)N=c2[nH]ccs2)cc1)c1ccc(S(=O)(=O)Nc2cc(Cl)ccc2O)cc1

>  <score_type>  (92) 
oracle

>  <origin>  (92) 
adg

>  <m_score__min__energy>  (92) 
-17.469999999999999

>  <m_primary>  (92) 
energy

$$$$
92:0
     RDKit          3D

 47 50  0  0  0  0  0  0  0  0999 V2000
   55.5170   25.9160   46.0000 O   0  0  0  0  0  0  0  0  0  0  0  0
   56.7710   26.0470   45.9670 C   0  0  0  0  0  0  0  0  0  0  0  0
   57.6030   24.9830   46.4510 N   0  0  0  0  0  0  0  0  0  0  0  0
   57.0640   23.6430   46.6810 C   0  0  0  0  0  0  0  0  0  0  0  0
   57.7890   22.6060   45.8200 C   0  0  0  0  0  0  0  0  0  0  0  0
   57.1500   22.4980   44.5100 N   0  0  0  0  0  0  0  0  0  0  0  0
   56.5920   23.4940   43.7990 C   0  0  0  0  0  0  0  0  0  0  0  0
   56.0620   22.9440   42.6520 C   0  0  0  0  0  0  0  0  0  0  0  0
   56.2790   21.6110   42.6450 N   0  0  0  0  0  0  0  0  0  0  0  0
   56.9410   21.3740   43.7980 C   0  0  0  0  0  0  0  0  0  0  0  0
   57.3590   27.3040   45.4390 C   0  0  0  0  0  0  0  0  0  0  0  0
   58.7120   27.3210   44.9920 C   0  0  0  0  0  0  0  0  0  0  0  0
   59.2970   28.5060   44.5050 C   0  0  0  0  0  0  0  0  0  0  0  0
   58.5080   29.6530   44.4810 C   0  0  0  0  0  0  0  0  0  0  0  0
   58.8550   30.8850   44.0730 N   0  0  0  0  0  0  0  0  0  0  0  0
   57.7080   31.5840   44.2890 C   0  0  0  0  0  0  0  0  0  0  0  0
   57.5720   33.0470   43.9930 C   0  0  0  0  0  0  0  0  0  0  0  0
   57.1640   33.8440   45.2390 C   0  0  0  0  0  0  0  0  0  0  0  0
   58.2390   33.8190   46.2990 C   0  0  0  0  0  0  0  0  0  0  0  0
   58.0670   33.0500   47.4630 C   0  0  0  0  0  0  0  0  0  0  0  0
   59.0460   33.0530   48.4620 C   0  0  0  0  0  0  0  0  0  0  0  0
   60.2000   33.8310   48.3100 C   0  0  0  0  0  0  0  0  0  0  0  0
   60.3740   34.6040   47.1590 C   0  0  0  0  0  0  0  0  0  0  0  0
   59.3980   34.6030   46.1580 C   0  0  0  0  0  0  0  0  0  0  0  0
   56.7260   30.8470   44.7830 O   0  0  0  0  0  0  0  0  0  0  0  0
   57.2180   29.6450   44.9110 C   0  0  0  0  0  0  0  0  0  0  0  0
   56.6010   28.5010   45.4020 C   0  0  0  0  0  0  0  0  0  0  0  0
   58.6150   25.1670   46.6430 H   0  0  0  0  0  0  0  0  0  0  0  0
   57.1903   23.3815   47.7420 H   0  0  0  0  0  0  0  0  0  0  0  0
   55.9983   23.6420   46.4085 H   0  0  0  0  0  0  0  0  0  0  0  0
   58.8371   22.9127   45.6883 H   0  0  0  0  0  0  0  0  0  0  0  0
   57.7426   21.6285   46.3223 H   0  0  0  0  0  0  0  0  0  0  0  0
   56.5638   24.5566   44.0822 H   0  0  0  0  0  0  0  0  0  0  0  0
   55.5413   23.5053   41.8622 H   0  0  0  0  0  0  0  0  0  0  0  0
   57.2722   20.3755   44.1194 H   0  0  0  0  0  0  0  0  0  0  0  0
   59.3072   26.3966   45.0278 H   0  0  0  0  0  0  0  0  0  0  0  0
   60.3400   28.5247   44.1561 H   0  0  0  0  0  0  0  0  0  0  0  0
   58.5369   33.4276   43.6269 H   0  0  0  0  0  0  0  0  0  0  0  0
   56.7851   33.1711   43.2345 H   0  0  0  0  0  0  0  0  0  0  0  0
   56.9757   34.8879   44.9478 H   0  0  0  0  0  0  0  0  0  0  0  0
   56.2592   33.3808   45.6594 H   0  0  0  0  0  0  0  0  0  0  0  0
   57.1583   32.4430   47.5888 H   0  0  0  0  0  0  0  0  0  0  0  0
   58.9091   32.4437   49.3676 H   0  0  0  0  0  0  0  0  0  0  0  0
   60.9693   33.8338   49.0962 H   0  0  0  0  0  0  0  0  0  0  0  0
   61.2811   35.2148   47.0402 H   0  0  0  0  0  0  0  0  0  0  0  0
   59.5372   35.2179   45.2566 H   0  0  0  0  0  0  0  0  0  0  0  0
   55.5580   28.5236   45.7507 H   0  0  0  0  0  0  0  0  0  0  0  0
  1  2  2  0
  2  3  1  0
  3  4  1  0
  4  5  1  0
  5  6  1  0
  6  7  1  0
  7  8  2  0
  8  9  1  0
  9 10  2  0
  2 11  1  0
 11 12  2  0
 12 13  1  0
 13 14  2  0
 14 15  1  0
 15 16  2  0
 16 17  1  0
 17 18  1  0
 18 19  1  0
 19 20  2  0
 20 21  1  0
 21 22  2  0
 22 23  1  0
 23 24  2  0
 16 25  1  0
 25 26  1  0
 26 27  2  0
 10  6  1  0
 27 11  1  0
 26 14  1  0
 24 19  1  0
  3 28  1  0
  4 29  1  0
  4 30  1  0
  5 31  1  0
  5 32  1  0
  7 33  1  0
  8 34  1  0
 10 35  1  0
 12 36  1  0
 13 37  1  0
 17 38  1  0
 17 39  1  0
 18 40  1  0
 18 41  1  0
 20 42  1  0
 21 43  1  0
 22 44  1  0
 23 45  1  0
 24 46  1  0
 27 47  1  0
M  END
>  <UniqueID>  (93) 
82

>  <SMILES>  (93) 
O=C(NCCn1ccnc1)c1ccc2nc(CCc3ccccc3)oc2c1

>  <Energy>  (93) 
110.99454196342333

>  <Genealogy>  (93) 
O=C(NCCn1ccnc1)c1ccc2nc(CCc3ccccc3)oc2c1 (3D coordinates assigned)
O=C(NCCn1ccnc1)c1ccc2nc(CCc3ccccc3)oc2c1 (optimized conformer: 110.99454196342333 kcal/mol)

>  <smiles>  (93) 
O=C(NCCn1ccnc1)c1ccc2nc(CCc3ccccc3)oc2c1

>  <score_type>  (93) 
oracle

>  <origin>  (93) 
adg

>  <m_score__min__energy>  (93) 
-8.8000000000000007

>  <m_primary>  (93) 
energy

$$$$
93:0
     RDKit          3D

 44 46  0  0  1  0  0  0  0  0999 V2000
   64.6730   33.0770   49.2580 C   0  0  0  0  0  0  0  0  0  0  0  0
   63.3960   32.8270   48.5070 C   0  0  0  0  0  0  0  0  0  0  0  0
   63.1760   31.6570   47.8120 C   0  0  0  0  0  0  0  0  0  0  0  0
   61.9780   31.4720   47.1340 C   0  0  0  0  0  0  0  0  0  0  0  0
   61.8200   30.2680   46.4520 O   0  0  0  0  0  0  0  0  0  0  0  0
   60.6270   29.5540   46.6210 C   0  0  0  0  0  0  0  0  0  0  0  0
   60.2880   28.9970   47.8470 C   0  0  0  0  0  0  0  0  0  0  0  0
   59.1160   28.2930   48.0190 C   0  0  0  0  0  0  0  0  0  0  0  0
   58.2860   28.1580   46.9270 C   0  0  0  0  0  0  0  0  0  0  0  0
   58.6250   28.7160   45.6900 C   0  0  0  0  0  0  0  0  0  0  0  0
   57.6860   28.5060   44.6440 N   0  0  0  0  0  0  0  0  0  0  0  0
   56.4970   29.7410   44.3330 S   0  0  0  0  0  0  0  0  0  0  0  0
   56.3440   29.9000   42.5710 C   0  0  0  0  0  0  0  0  0  0  0  0
   55.1490   29.3650   44.8850 O   0  0  0  0  0  0  0  0  0  0  0  0
   56.9250   31.0380   44.9240 O   0  0  0  0  0  0  0  0  0  0  0  0
   59.7950   29.4160   45.5320 C   0  0  0  0  0  0  0  0  0  0  0  0
   61.0400   32.4330   47.1560 N   0  0  0  0  0  0  0  0  0  0  0  0
   61.2560   33.5740   47.8330 C   0  0  0  0  0  0  0  0  0  0  0  0
   60.3990   34.5380   47.8970 N   0  0  0  0  0  0  0  0  0  0  0  0
   58.9910   34.2170   47.8410 C   0  0  0  0  0  0  0  0  0  0  0  0
   58.6710   34.0480   46.3860 C   0  0  0  0  0  0  0  0  0  0  0  0
   57.3810   34.0040   45.8770 C   0  0  0  0  0  0  0  0  0  0  0  0
   57.4770   33.8390   44.5040 C   0  0  0  0  0  0  0  0  0  0  0  0
   58.8480   33.7900   44.2480 C   0  0  0  0  0  0  0  0  0  0  0  0
   59.4790   33.9150   45.3750 O   0  0  0  0  0  0  0  0  0  0  0  0
   62.4180   33.7490   48.4900 N   0  0  0  0  0  0  0  0  0  0  0  0
   64.4759   33.0384   50.3395 H   0  0  0  0  0  0  0  0  0  0  0  0
   65.4116   32.3064   48.9922 H   0  0  0  0  0  0  0  0  0  0  0  0
   65.0665   34.0692   48.9922 H   0  0  0  0  0  0  0  0  0  0  0  0
   63.9468   30.8724   47.7944 H   0  0  0  0  0  0  0  0  0  0  0  0
   60.9708   29.1206   48.7005 H   0  0  0  0  0  0  0  0  0  0  0  0
   58.8523   27.8545   48.9928 H   0  0  0  0  0  0  0  0  0  0  0  0
   57.3421   27.6027   47.0299 H   0  0  0  0  0  0  0  0  0  0  0  0
   57.7340   27.6240   44.0930 H   0  0  0  0  0  0  0  0  0  0  0  0
   55.5989   30.6743   42.3360 H   0  0  0  0  0  0  0  0  0  0  0  0
   57.3164   30.1848   42.1427 H   0  0  0  0  0  0  0  0  0  0  0  0
   56.0220   28.9393   42.1427 H   0  0  0  0  0  0  0  0  0  0  0  0
   60.0616   29.8559   44.5597 H   0  0  0  0  0  0  0  0  0  0  0  0
   60.1460   32.2970   46.6490 H   0  0  0  0  0  0  0  0  0  0  0  0
   58.7880   33.2851   48.3891 H   0  0  0  0  0  0  0  0  0  0  0  0
   58.3765   35.0037   48.3031 H   0  0  0  0  0  0  0  0  0  0  0  0
   56.4504   34.0853   46.4579 H   0  0  0  0  0  0  0  0  0  0  0  0
   56.6547   33.7634   43.7773 H   0  0  0  0  0  0  0  0  0  0  0  0
   59.3143   33.6665   43.2594 H   0  0  0  0  0  0  0  0  0  0  0  0
  1  2  1  0
  2  3  1  0
  3  4  2  0
  4  5  1  0
  5  6  1  0
  6  7  2  0
  7  8  1  0
  8  9  2  0
  9 10  1  0
 10 11  1  0
 11 12  1  0
 12 13  1  0
 12 14  2  0
 12 15  2  0
 10 16  2  0
  4 17  1  0
 17 18  1  0
 18 19  2  0
 19 20  1  0
 20 21  1  0
 21 22  2  0
 22 23  1  0
 23 24  2  0
 24 25  1  0
 18 26  1  0
 26  2  2  0
 16  6  1  0
 25 21  1  0
  1 27  1  0
  1 28  1  0
  1 29  1  0
  3 30  1  0
  7 31  1  0
  8 32  1  0
  9 33  1  0
 11 34  1  0
 13 35  1  0
 13 36  1  0
 13 37  1  0
 16 38  1  0
 17 39  1  0
 20 40  1  0
 20 41  1  0
 22 42  1  0
 23 43  1  0
 24 44  1  0
M  END
>  <smiles>  (94) 
Cc1cc(Oc2cccc(NS(C)(=O)=O)c2)[nH]c(=NCc2ccco2)n1

>  <score_type>  (94) 
oracle

>  <origin>  (94) 
adg

>  <m_score__min__energy>  (94) 
-8.3800000000000008

>  <m_primary>  (94) 
energy

$$$$
94:0
     RDKit          3D

 29 30  0  0  0  0  0  0  0  0999 V2000
   58.3120   34.4780   44.4880 O   0  0  0  0  0  0  0  0  0  0  0  0
   58.2080   33.3830   45.5130 S   0  0  0  0  0  0  0  0  0  0  0  0
   56.8670   33.4600   46.1890 O   0  0  0  0  0  0  0  0  0  0  0  0
   58.4010   31.8340   44.7490 N   0  0  0  0  0  0  0  0  0  0  0  0
   57.5640   30.8370   44.7970 C   0  0  0  0  0  0  0  0  0  0  0  0
   57.9150   29.7040   45.5400 C   0  0  0  0  0  0  0  0  0  0  0  0
   57.0380   28.6190   45.6110 C   0  0  0  0  0  0  0  0  0  0  0  0
   55.8470   28.6630   44.9600 N   0  0  0  0  0  0  0  0  0  0  0  0
   55.4740   29.7470   44.2300 C   0  0  0  0  0  0  0  0  0  0  0  0
   56.3210   30.8540   44.1330 C   0  0  0  0  0  0  0  0  0  0  0  0
   59.4790   33.5810   46.7140 C   0  0  0  0  0  0  0  0  0  0  0  0
   59.1520   33.7640   48.0640 C   0  0  0  0  0  0  0  0  0  0  0  0
   60.1620   33.9270   49.0160 C   0  0  0  0  0  0  0  0  0  0  0  0
   59.8420   34.0930   50.3230 F   0  0  0  0  0  0  0  0  0  0  0  0
   61.5040   33.9150   48.6230 C   0  0  0  0  0  0  0  0  0  0  0  0
   61.8430   33.7570   47.2710 C   0  0  0  0  0  0  0  0  0  0  0  0
   63.2860   33.7140   46.8520 C   0  0  0  0  0  0  0  0  0  0  0  0
   63.8210   32.4430   47.0990 O   0  0  0  0  0  0  0  0  0  0  0  0
   60.8240   33.5790   46.3200 C   0  0  0  0  0  0  0  0  0  0  0  0
   58.8798   29.6680   46.0671 H   0  0  0  0  0  0  0  0  0  0  0  0
   57.3124   27.7280   46.1948 H   0  0  0  0  0  0  0  0  0  0  0  0
   54.5025   29.7529   43.7141 H   0  0  0  0  0  0  0  0  0  0  0  0
   56.0199   31.7321   43.5429 H   0  0  0  0  0  0  0  0  0  0  0  0
   58.0971   33.7794   48.3755 H   0  0  0  0  0  0  0  0  0  0  0  0
   62.2968   34.0299   49.3769 H   0  0  0  0  0  0  0  0  0  0  0  0
   63.3597   33.9373   45.7774 H   0  0  0  0  0  0  0  0  0  0  0  0
   63.8510   34.4610   47.4289 H   0  0  0  0  0  0  0  0  0  0  0  0
   64.7500   32.4530   46.7480 H   0  0  0  0  0  0  0  0  0  0  0  0
   61.0834   33.4373   45.2604 H   0  0  0  0  0  0  0  0  0  0  0  0
  1  2  2  0
  2  3  2  0
  2  4  1  0
  4  5  2  3
  5  6  1  0
  6  7  2  0
  7  8  1  0
  8  9  1  0
  9 10  2  0
  2 11  1  0
 11 12  2  0
 12 13  1  0
 13 14  1  0
 13 15  2  0
 15 16  1  0
 16 17  1  0
 17 18  1  0
 16 19  2  0
 10  5  1  0
 19 11  1  0
  6 20  1  0
  7 21  1  0
  9 22  1  0
 10 23  1  0
 12 24  1  0
 15 25  1  0
 17 26  1  0
 17 27  1  0
 18 28  1  0
 19 29  1  0
M  CHG  1   8  -1
M  END
>  <UniqueID>  (95) 
83

>  <SMILES>  (95) 
O=S(=O)(N=c1cc[n-]cc1)c1cc(F)cc(CO)c1

>  <Energy>  (95) 
36.175556432002615

>  <Genealogy>  (95) 
O=S(=O)(N=c1cc[n-]cc1)c1cc(F)cc(CO)c1 (protonated)
O=S(=O)(N=c1cc[n-]cc1)c1cc(F)cc(CO)c1 (3D coordinates assigned)
O=S(=O)(N=c1cc[n-]cc1)c1cc(F)cc(CO)c1 (optimized conformer: 36.175556432002615 kcal/mol)

>  <smiles>  (95) 
O=S(=O)(N=c1cc[nH]cc1)c1cc(F)cc(CO)c1

>  <score_type>  (95) 
oracle

>  <origin>  (95) 
adg

>  <m_score__min__energy>  (95) 
-8.9100000000000001

>  <m_primary>  (95) 
energy

$$$$
95:0
     RDKit          3D

 46 49  0  0  1  0  0  0  0  0999 V2000
   59.0800   31.6460   49.0450 N   0  0  0  0  0  0  0  0  0  0  0  0
   58.8160   31.8540   47.9570 C   0  0  0  0  0  0  0  0  0  0  0  0
   58.5020   32.1350   46.6030 C   0  0  0  0  0  0  0  0  0  0  0  0
   57.8190   31.1540   45.8830 C   0  0  0  0  0  0  0  0  0  0  0  0
   57.4760   31.3410   44.5480 C   0  0  0  0  0  0  0  0  0  0  0  0
   56.6220   30.0740   43.7390 S   0  0  0  0  0  0  0  0  0  0  0  0
   56.2850   30.4620   42.3260 O   0  0  0  0  0  0  0  0  0  0  0  0
   55.2790   29.9140   44.4480 O   0  0  0  0  0  0  0  0  0  0  0  0
   57.3890   28.5480   43.8040 N   0  0  0  0  0  0  0  0  0  0  0  0
   58.1610   28.1380   44.7340 C   0  0  0  0  0  0  0  0  0  0  0  0
   59.5040   28.3490   44.6590 C   0  0  0  0  0  0  0  0  0  0  0  0
   60.3960   27.9370   45.6220 C   0  0  0  0  0  0  0  0  0  0  0  0
   59.8910   27.2840   46.7040 N   0  0  0  0  0  0  0  0  0  0  0  0
   58.5640   27.0760   46.7780 C   0  0  0  0  0  0  0  0  0  0  0  0
   57.7000   27.4820   45.8320 N   0  0  0  0  0  0  0  0  0  0  0  0
   57.8440   32.5370   43.9840 C   0  0  0  0  0  0  0  0  0  0  0  0
   58.5150   33.5000   44.6950 C   0  0  0  0  0  0  0  0  0  0  0  0
   58.8650   33.3190   46.0440 C   0  0  0  0  0  0  0  0  0  0  0  0
   59.5320   34.3550   46.6380 O   0  0  0  0  0  0  0  0  0  0  0  0
   60.7190   34.2060   47.2700 C   0  0  0  0  0  0  0  0  0  0  0  0
   60.9810   34.4040   48.6040 C   0  0  0  0  0  0  0  0  0  0  0  0
   62.2150   34.2310   49.1470 N   0  0  0  0  0  0  0  0  0  0  0  0
   63.2590   33.8420   48.3610 C   0  0  0  0  0  0  0  0  0  0  0  0
   64.5000   33.6780   48.9630 O   0  0  0  0  0  0  0  0  0  0  0  0
   64.8470   32.3620   49.3670 C   0  0  0  0  0  0  0  0  0  0  0  0
   66.0720   32.2230   50.2090 C   0  0  0  0  0  0  0  0  0  0  0  0
   65.2610   31.3400   51.1600 C   0  0  0  0  0  0  0  0  0  0  0  0
   64.0210   32.0350   50.6150 C   0  0  0  0  0  0  0  0  0  0  0  0
   63.0400   33.6380   47.0500 N   0  0  0  0  0  0  0  0  0  0  0  0
   61.8160   33.8080   46.4930 C   0  0  0  0  0  0  0  0  0  0  0  0
   57.5459   30.2125   46.3819 H   0  0  0  0  0  0  0  0  0  0  0  0
   59.8979   28.8786   43.7790 H   0  0  0  0  0  0  0  0  0  0  0  0
   61.4746   28.1278   45.5214 H   0  0  0  0  0  0  0  0  0  0  0  0
   60.5560   26.9540   47.4650 H   0  0  0  0  0  0  0  0  0  0  0  0
   58.1662   26.5472   47.6567 H   0  0  0  0  0  0  0  0  0  0  0  0
   57.5935   32.7294   42.9303 H   0  0  0  0  0  0  0  0  0  0  0  0
   58.7868   34.4410   44.1945 H   0  0  0  0  0  0  0  0  0  0  0  0
   60.1561   34.7162   49.2614 H   0  0  0  0  0  0  0  0  0  0  0  0
   64.8147   31.8196   48.4105 H   0  0  0  0  0  0  0  0  0  0  0  0
   66.9098   31.7103   49.7138 H   0  0  0  0  0  0  0  0  0  0  0  0
   66.6187   33.1051   50.5736 H   0  0  0  0  0  0  0  0  0  0  0  0
   65.3161   30.2620   50.9480 H   0  0  0  0  0  0  0  0  0  0  0  0
   65.4766   31.2908   52.2375 H   0  0  0  0  0  0  0  0  0  0  0  0
   63.1620   31.3712   50.4374 H   0  0  0  0  0  0  0  0  0  0  0  0
   63.4935   32.8146   51.1842 H   0  0  0  0  0  0  0  0  0  0  0  0
   61.6815   33.6311   45.4157 H   0  0  0  0  0  0  0  0  0  0  0  0
  1  2  3  0
  2  3  1  0
  3  4  2  0
  4  5  1  0
  5  6  1  0
  6  7  2  0
  6  8  2  0
  6  9  1  0
  9 10  2  0
 10 11  1  0
 11 12  2  0
 12 13  1  0
 13 14  1  0
 14 15  2  0
  5 16  2  0
 16 17  1  0
 17 18  2  0
 18 19  1  0
 19 20  1  0
 20 21  2  0
 21 22  1  0
 22 23  2  0
 23 24  1  0
 24 25  1  0
 25 26  1  0
 26 27  1  0
 27 28  1  0
 23 29  1  0
 29 30  2  0
 18  3  1  0
 30 20  1  0
 15 10  1  0
 28 25  1  0
  4 31  1  0
 11 32  1  0
 12 33  1  0
 13 34  1  0
 14 35  1  0
 16 36  1  0
 17 37  1  0
 21 38  1  0
 25 39  1  0
 26 40  1  0
 26 41  1  0
 27 42  1  0
 27 43  1  0
 28 44  1  0
 28 45  1  0
 30 46  1  0
M  END
>  <smiles>  (96) 
N#Cc1cc(S(=O)(=O)N=c2cc[nH]cn2)ccc1Oc1cnc(OC2CCC2)nc1

>  <score_type>  (96) 
oracle

>  <origin>  (96) 
adg

>  <m_score__min__energy>  (96) 
-8.3000000000000007

>  <m_primary>  (96) 
energy

$$$$
96:0
     RDKit          3D

 26 27  0  0  0  0  0  0  0  0999 V2000
   54.3560   26.7140   46.7470 H   0  0  0  0  0  0  0  0  0  0  0  0
   55.2280   26.5820   46.2530 O   0  0  0  0  0  0  0  0  0  0  0  0
   56.1600   25.6240   46.6460 C   0  0  0  0  0  0  0  0  0  0  0  0
   55.8180   24.3870   47.0420 N   0  0  0  0  0  0  0  0  0  0  0  0
   57.0100   23.8190   47.3200 C   0  0  0  0  0  0  0  0  0  0  0  0
   57.1180   22.6340   47.7300 O   0  0  0  0  0  0  0  0  0  0  0  0
   58.0780   24.6210   47.1230 N   0  0  0  0  0  0  0  0  0  0  0  0
   57.5310   25.7730   46.6930 C   0  0  0  0  0  0  0  0  0  0  0  0
   58.3010   26.9800   46.3370 C   0  0  0  0  0  0  0  0  0  0  0  0
   58.5158   27.7263   47.1160 H   0  0  0  0  0  0  0  0  0  0  0  0
   58.7450   27.1920   45.0940 C   0  0  0  0  0  0  0  0  0  0  0  0
   59.7995   26.9874   44.8571 H   0  0  0  0  0  0  0  0  0  0  0  0
   57.8360   27.7030   44.0150 C   0  0  0  0  0  0  0  0  0  0  0  0
   58.1930   27.3396   43.0401 H   0  0  0  0  0  0  0  0  0  0  0  0
   56.8168   27.3374   44.2090 H   0  0  0  0  0  0  0  0  0  0  0  0
   57.8160   29.2080   44.0040 C   0  0  0  0  0  0  0  0  0  0  0  0
   58.5580   29.9380   44.9470 C   0  0  0  0  0  0  0  0  0  0  0  0
   59.1781   29.4079   45.6849 H   0  0  0  0  0  0  0  0  0  0  0  0
   58.5120   31.3350   44.9520 C   0  0  0  0  0  0  0  0  0  0  0  0
   59.0993   31.9013   45.6898 H   0  0  0  0  0  0  0  0  0  0  0  0
   57.7210   32.0130   44.0210 C   0  0  0  0  0  0  0  0  0  0  0  0
   57.6876   33.1125   44.0253 H   0  0  0  0  0  0  0  0  0  0  0  0
   56.9720   31.2950   43.0840 C   0  0  0  0  0  0  0  0  0  0  0  0
   56.3487   31.8296   42.3521 H   0  0  0  0  0  0  0  0  0  0  0  0
   57.0150   29.8960   43.0770 C   0  0  0  0  0  0  0  0  0  0  0  0
   56.4196   29.3331   42.3431 H   0  0  0  0  0  0  0  0  0  0  0  0
  1  2  1  0
  2  3  1  0
  3  4  1  0
  4  5  1  0
  5  6  2  0
  5  7  1  0
  7  8  1  0
  8  9  1  0
  9 10  1  0
  9 11  2  0
 11 12  1  0
 11 13  1  0
 13 14  1  0
 13 15  1  0
 13 16  1  0
 16 17  2  0
 17 18  1  0
 17 19  1  0
 19 20  1  0
 19 21  2  0
 21 22  1  0
 21 23  1  0
 23 24  1  0
 23 25  2  0
 25 26  1  0
  8  3  2  0
 25 16  1  0
M  CHG  2   4  -1   7  -1
M  END
>  <UniqueID>  (97) 
84

>  <SMILES>  (97) 
O=c1[n-]c(O)c(/C=C/Cc2ccccc2)[n-]1

>  <Energy>  (97) 
52.05012294295165

>  <Genealogy>  (97) 
O=c1[n-]c(O)c(C=CCc2ccccc2)[n-]1 (protonated)
O=c1[n-]c(O)c(/C=C/Cc2ccccc2)[n-]1 (cis-trans isomerization)
O=c1[n-]c(O)c(/C=C/Cc2ccccc2)[n-]1 (3D coordinates assigned)
O=c1[n-]c(O)c(/C=C/Cc2ccccc2)[n-]1 (optimized conformer: 52.05012294295165 kcal/mol)

>  <smiles>  (97) 
O=c1[nH]c(O)c(C=CCc2ccccc2)[nH]1

>  <score_type>  (97) 
oracle

>  <origin>  (97) 
adg

>  <m_score__min__energy>  (97) 
-10.619999999999999

>  <m_primary>  (97) 
energy

$$$$
97:0
     RDKit          3D

 52 55  0  0  0  0  0  0  0  0999 V2000
   56.8080   33.9010   45.8290 N   0  0  0  0  0  0  0  0  0  0  0  0
   58.0940   32.7560   45.9770 S   0  0  0  0  0  0  0  0  0  0  0  0
   58.8730   32.7020   44.6950 O   0  0  0  0  0  0  0  0  0  0  0  0
   57.4940   31.4010   46.2360 O   0  0  0  0  0  0  0  0  0  0  0  0
   59.1670   33.2080   47.3130 C   0  0  0  0  0  0  0  0  0  0  0  0
   59.1930   34.5480   47.7320 C   0  0  0  0  0  0  0  0  0  0  0  0
   60.0640   34.9590   48.7440 C   0  0  0  0  0  0  0  0  0  0  0  0
   60.9200   34.0370   49.3470 C   0  0  0  0  0  0  0  0  0  0  0  0
   60.9010   32.7000   48.9480 C   0  0  0  0  0  0  0  0  0  0  0  0
   60.0220   32.2680   47.9440 C   0  0  0  0  0  0  0  0  0  0  0  0
   60.0170   30.8340   47.5870 C   0  0  0  0  0  0  0  0  0  0  0  0
   60.7130   30.3870   46.4530 C   0  0  0  0  0  0  0  0  0  0  0  0
   60.7240   29.0290   46.1240 C   0  0  0  0  0  0  0  0  0  0  0  0
   60.0420   28.0940   46.9270 C   0  0  0  0  0  0  0  0  0  0  0  0
   60.0320   26.6590   46.5670 C   0  0  0  0  0  0  0  0  0  0  0  0
   60.5640   25.8070   47.3340 O   0  0  0  0  0  0  0  0  0  0  0  0
   59.4230   26.2300   45.3440 N   0  0  0  0  0  0  0  0  0  0  0  0
   58.1220   25.6370   45.2770 C   0  0  0  0  0  0  0  0  0  0  0  0
   58.0210   24.3060   44.8540 C   0  0  0  0  0  0  0  0  0  0  0  0
   56.7790   23.6780   44.7850 C   0  0  0  0  0  0  0  0  0  0  0  0
   55.6260   24.3680   45.1540 C   0  0  0  0  0  0  0  0  0  0  0  0
   55.7090   25.6900   45.6040 C   0  0  0  0  0  0  0  0  0  0  0  0
   54.5400   26.3400   45.9850 O   0  0  0  0  0  0  0  0  0  0  0  0
   56.9590   26.3440   45.6730 C   0  0  0  0  0  0  0  0  0  0  0  0
   57.0510   27.7440   46.2490 C   0  0  0  0  0  0  0  0  0  0  0  0
   56.9250   28.7790   45.1630 C   0  0  0  0  0  0  0  0  0  0  0  0
   55.6650   29.3000   44.8250 C   0  0  0  0  0  0  0  0  0  0  0  0
   55.5510   30.2860   43.8390 C   0  0  0  0  0  0  0  0  0  0  0  0
   56.6920   30.7600   43.1850 C   0  0  0  0  0  0  0  0  0  0  0  0
   57.9480   30.2450   43.5160 C   0  0  0  0  0  0  0  0  0  0  0  0
   58.0670   29.2550   44.4940 C   0  0  0  0  0  0  0  0  0  0  0  0
   59.3560   28.5490   48.0670 C   0  0  0  0  0  0  0  0  0  0  0  0
   59.3530   29.9060   48.4000 C   0  0  0  0  0  0  0  0  0  0  0  0
   56.2580   33.8590   46.7160 H   0  0  0  0  0  0  0  0  0  0  0  0
   58.5219   35.2803   47.2594 H   0  0  0  0  0  0  0  0  0  0  0  0
   60.0749   36.0108   49.0658 H   0  0  0  0  0  0  0  0  0  0  0  0
   61.6108   34.3644   50.1380 H   0  0  0  0  0  0  0  0  0  0  0  0
   61.5811   31.9788   49.4248 H   0  0  0  0  0  0  0  0  0  0  0  0
   61.2517   31.1083   45.8210 H   0  0  0  0  0  0  0  0  0  0  0  0
   61.2691   28.6877   45.2316 H   0  0  0  0  0  0  0  0  0  0  0  0
   58.9291   23.7519   44.5740 H   0  0  0  0  0  0  0  0  0  0  0  0
   56.7087   22.6363   44.4388 H   0  0  0  0  0  0  0  0  0  0  0  0
   54.6466   23.8712   45.0912 H   0  0  0  0  0  0  0  0  0  0  0  0
   56.2410   27.8873   46.9793 H   0  0  0  0  0  0  0  0  0  0  0  0
   58.0307   27.8612   46.7353 H   0  0  0  0  0  0  0  0  0  0  0  0
   54.7643   28.9313   45.3376 H   0  0  0  0  0  0  0  0  0  0  0  0
   54.5614   30.6891   43.5778 H   0  0  0  0  0  0  0  0  0  0  0  0
   56.6012   31.5368   42.4114 H   0  0  0  0  0  0  0  0  0  0  0  0
   58.8464   30.6207   43.0044 H   0  0  0  0  0  0  0  0  0  0  0  0
   59.0576   28.8460   44.7420 H   0  0  0  0  0  0  0  0  0  0  0  0
   58.8171   27.8305   48.7021 H   0  0  0  0  0  0  0  0  0  0  0  0
   58.8273   30.2471   49.3040 H   0  0  0  0  0  0  0  0  0  0  0  0
  1  2  1  0
  2  3  2  0
  2  4  2  0
  2  5  1  0
  5  6  2  0
  6  7  1  0
  7  8  2  0
  8  9  1  0
  9 10  2  0
 10 11  1  0
 11 12  2  0
 12 13  1  0
 13 14  2  0
 14 15  1  0
 15 16  2  0
 15 17  1  0
 17 18  1  0
 18 19  2  0
 19 20  1  0
 20 21  2  0
 21 22  1  0
 22 23  1  0
 22 24  2  0
 24 25  1  0
 25 26  1  0
 26 27  2  0
 27 28  1  0
 28 29  2  0
 29 30  1  0
 30 31  2  0
 14 32  1  0
 32 33  2  0
 10  5  1  0
 33 11  1  0
 24 18  1  0
 31 26  1  0
  1 34  1  0
  6 35  1  0
  7 36  1  0
  8 37  1  0
  9 38  1  0
 12 39  1  0
 13 40  1  0
 19 41  1  0
 20 42  1  0
 21 43  1  0
 25 44  1  0
 25 45  1  0
 27 46  1  0
 28 47  1  0
 29 48  1  0
 30 49  1  0
 31 50  1  0
 32 51  1  0
 33 52  1  0
M  CHG  3   1  -1  17  -1  23  -1
M  END
>  <UniqueID>  (98) 
85

>  <SMILES>  (98) 
[NH-]S(=O)(=O)c1ccccc1-c1ccc(C(=O)[N-]c2cccc([O-])c2Cc2ccccc2)cc1

>  <Energy>  (98) 
72.48211505767487

>  <Genealogy>  (98) 
[NH-]S(=O)(=O)c1ccccc1-c1ccc(C(=O)[N-]c2cccc([O-])c2Cc2ccccc2)cc1 (protonated)
[NH-]S(=O)(=O)c1ccccc1-c1ccc(C(=O)[N-]c2cccc([O-])c2Cc2ccccc2)cc1 (3D coordinates assigned)
[NH-]S(=O)(=O)c1ccccc1-c1ccc(C(=O)[N-]c2cccc([O-])c2Cc2ccccc2)cc1 (optimized conformer: 72.48211505767487 kcal/mol)

>  <smiles>  (98) 
NS(=O)(=O)c1ccccc1-c1ccc(C(=O)Nc2cccc(O)c2Cc2ccccc2)cc1

>  <score_type>  (98) 
oracle

>  <origin>  (98) 
adg

>  <m_score__min__energy>  (98) 
-14.880000000000001

>  <m_primary>  (98) 
energy

$$$$
98:0
     RDKit          3D

 36 38  0  0  0  0  0  0  0  0999 V2000
   55.9638   31.3888   42.5544 H   0  0  0  0  0  0  0  0  0  0  0  0
   56.4100   30.7600   43.3390 C   0  0  0  0  0  0  0  0  0  0  0  0
   55.5740   29.7240   43.9810 C   0  0  0  0  0  0  0  0  0  0  0  0
   54.5140   29.3650   43.4070 O   0  0  0  0  0  0  0  0  0  0  0  0
   55.9050   29.1390   45.2480 N   0  0  0  0  0  0  0  0  0  0  0  0
   56.7420   27.9910   45.4600 C   0  0  0  0  0  0  0  0  0  0  0  0
   58.1310   28.0440   45.2380 C   0  0  0  0  0  0  0  0  0  0  0  0
   58.5974   28.9828   44.9045 H   0  0  0  0  0  0  0  0  0  0  0  0
   58.9200   26.9070   45.4400 C   0  0  0  0  0  0  0  0  0  0  0  0
   60.0066   26.9562   45.2758 H   0  0  0  0  0  0  0  0  0  0  0  0
   58.3300   25.7090   45.8500 C   0  0  0  0  0  0  0  0  0  0  0  0
   58.9525   24.8172   46.0145 H   0  0  0  0  0  0  0  0  0  0  0  0
   56.9490   25.6440   46.0510 C   0  0  0  0  0  0  0  0  0  0  0  0
   56.4845   24.6981   46.3665 H   0  0  0  0  0  0  0  0  0  0  0  0
   56.1550   26.7790   45.8520 C   0  0  0  0  0  0  0  0  0  0  0  0
   54.7810   26.6990   46.0520 O   0  0  0  0  0  0  0  0  0  0  0  0
   57.6890   30.9620   43.6760 C   0  0  0  0  0  0  0  0  0  0  0  0
   58.4718   30.6509   42.9685 H   0  0  0  0  0  0  0  0  0  0  0  0
   58.1010   31.5820   44.9510 C   0  0  0  0  0  0  0  0  0  0  0  0
   58.8510   32.7400   45.0390 C   0  0  0  0  0  0  0  0  0  0  0  0
   59.2494   33.3350   44.2040 H   0  0  0  0  0  0  0  0  0  0  0  0
   58.9990   32.9990   46.3900 C   0  0  0  0  0  0  0  0  0  0  0  0
   59.6670   34.1590   47.0140 C   0  0  0  0  0  0  0  0  0  0  0  0
   59.0400   35.2490   47.0990 O   0  0  0  0  0  0  0  0  0  0  0  0
   61.0420   34.0970   47.5430 C   0  0  0  0  0  0  0  0  0  0  0  0
   61.3410   34.3430   48.7980 O   0  0  0  0  0  0  0  0  0  0  0  0
   62.6340   34.1830   48.9640 C   0  0  0  0  0  0  0  0  0  0  0  0
   63.1738   34.3254   49.9118 H   0  0  0  0  0  0  0  0  0  0  0  0
   63.2120   33.8090   47.7680 C   0  0  0  0  0  0  0  0  0  0  0  0
   64.2766   33.6014   47.5850 H   0  0  0  0  0  0  0  0  0  0  0  0
   62.1880   33.7480   46.8500 C   0  0  0  0  0  0  0  0  0  0  0  0
   62.2647   33.4779   45.7864 H   0  0  0  0  0  0  0  0  0  0  0  0
   58.3170   32.0040   47.0630 C   0  0  0  0  0  0  0  0  0  0  0  0
   58.2271   31.9300   48.1568 H   0  0  0  0  0  0  0  0  0  0  0  0
   57.7790   31.1390   46.1850 N   0  0  0  0  0  0  0  0  0  0  0  0
   57.2060   30.3040   46.4350 H   0  0  0  0  0  0  0  0  0  0  0  0
  1  2  1  0
  2  3  1  0
  3  4  2  0
  3  5  1  0
  5  6  1  0
  6  7  2  0
  7  8  1  0
  7  9  1  0
  9 10  1  0
  9 11  2  0
 11 12  1  0
 11 13  1  0
 13 14  1  0
 13 15  2  0
 15 16  1  0
  2 17  2  0
 17 18  1  0
 17 19  1  0
 19 20  2  0
 20 21  1  0
 20 22  1  0
 22 23  1  0
 23 24  2  0
 23 25  1  0
 25 26  1  0
 26 27  1  0
 27 28  1  0
 27 29  2  0
 29 30  1  0
 29 31  1  0
 31 32  1  0
 22 33  2  0
 33 34  1  0
 33 35  1  0
 35 36  1  0
 15  6  1  0
 35 19  1  0
 31 25  2  0
M  CHG  2   5  -1  16  -1
M  END
>  <UniqueID>  (99) 
86

>  <SMILES>  (99) 
O=C(/C=C/c1cc(C(=O)c2ccco2)c[nH]1)[N-]c1ccccc1[O-]

>  <Energy>  (99) 
97.59758563963456

>  <Genealogy>  (99) 
O=C(C=Cc1cc(C(=O)c2ccco2)c[nH]1)[N-]c1ccccc1[O-] (protonated)
O=C(/C=C/c1cc(C(=O)c2ccco2)c[nH]1)[N-]c1ccccc1[O-] (cis-trans isomerization)
O=C(/C=C/c1cc(C(=O)c2ccco2)c[nH]1)[N-]c1ccccc1[O-] (3D coordinates assigned)
O=C(/C=C/c1cc(C(=O)c2ccco2)c[nH]1)[N-]c1ccccc1[O-] (optimized conformer: 97.59758563963456 kcal/mol)

>  <smiles>  (99) 
O=C(C=Cc1cc(C(=O)c2ccco2)c[nH]1)Nc1ccccc1O

>  <score_type>  (99) 
oracle

>  <origin>  (99) 
adg

>  <m_score__min__energy>  (99) 
-14.16

>  <m_primary>  (99) 
energy

$$$$
