0:0
     RDKit          3D

 60 63  0  0  0  0  0  0  0  0999 V2000
   56.4920   19.9140   45.1380 C   0  0  0  0  0  0  0  0  0  0  0  0
   55.7890   20.7940   44.2710 O   0  0  0  0  0  0  0  0  0  0  0  0
   56.4290   21.8080   43.5480 C   0  0  0  0  0  0  0  0  0  0  0  0
   56.2860   21.8760   42.2960 O   0  0  0  0  0  0  0  0  0  0  0  0
   57.2770   22.7950   44.2520 C   0  0  0  0  0  0  0  0  0  0  0  0
   58.4180   22.3790   44.9590 C   0  0  0  0  0  0  0  0  0  0  0  0
   59.2270   23.3160   45.6080 C   0  0  0  0  0  0  0  0  0  0  0  0
   58.9040   24.6750   45.5650 C   0  0  0  0  0  0  0  0  0  0  0  0
   57.7600   25.1100   44.8820 C   0  0  0  0  0  0  0  0  0  0  0  0
   57.4620   26.5160   44.8190 N   0  0  0  0  0  0  0  0  0  0  0  0
   56.4870   27.1540   45.6540 C   0  0  0  0  0  0  0  0  0  0  0  0
   56.1850   26.6540   46.7720 O   0  0  0  0  0  0  0  0  0  0  0  0
   55.9030   28.3930   45.2350 N   0  0  0  0  0  0  0  0  0  0  0  0
   56.6340   29.5220   44.7340 C   0  0  0  0  0  0  0  0  0  0  0  0
   56.5340   29.8450   43.3760 C   0  0  0  0  0  0  0  0  0  0  0  0
   57.2140   30.9510   42.8610 C   0  0  0  0  0  0  0  0  0  0  0  0
   57.9880   31.7540   43.7040 C   0  0  0  0  0  0  0  0  0  0  0  0
   58.0830   31.4610   45.0770 C   0  0  0  0  0  0  0  0  0  0  0  0
   58.8700   32.2970   45.9540 N   0  0  0  0  0  0  0  0  0  0  0  0
   58.6110   33.7410   46.0440 C   0  0  0  0  0  0  0  0  0  0  0  0
   58.9800   34.2450   47.4410 C   0  0  0  0  0  0  0  0  0  0  0  0
   60.3980   33.9720   47.7660 N   0  0  0  0  0  0  0  0  0  0  0  0
   60.7220   34.1410   49.2010 C   0  0  0  0  0  0  0  0  0  0  0  0
   59.7360   33.4700   50.1380 C   0  0  0  0  0  0  0  0  0  0  0  0
   59.2970   34.1280   51.3020 C   0  0  0  0  0  0  0  0  0  0  0  0
   58.3970   33.5040   52.1710 C   0  0  0  0  0  0  0  0  0  0  0  0
   57.9430   32.2110   51.9010 C   0  0  0  0  0  0  0  0  0  0  0  0
   58.3940   31.5360   50.7640 C   0  0  0  0  0  0  0  0  0  0  0  0
   57.9760   30.2690   50.5170 F   0  0  0  0  0  0  0  0  0  0  0  0
   59.2890   32.1600   49.8880 C   0  0  0  0  0  0  0  0  0  0  0  0
   60.9840   32.7630   47.1380 C   0  0  0  0  0  0  0  0  0  0  0  0
   59.9260   31.7060   46.7900 C   0  0  0  0  0  0  0  0  0  0  0  0
   57.3920   30.3470   45.5840 C   0  0  0  0  0  0  0  0  0  0  0  0
   56.9600   24.1640   44.2130 C   0  0  0  0  0  0  0  0  0  0  0  0
   56.2785   20.1812   46.1835 H   0  0  0  0  0  0  0  0  0  0  0  0
   56.1690   18.8793   44.9508 H   0  0  0  0  0  0  0  0  0  0  0  0
   57.5725   20.0004   44.9508 H   0  0  0  0  0  0  0  0  0  0  0  0
   58.6758   21.3105   45.0019 H   0  0  0  0  0  0  0  0  0  0  0  0
   60.1213   22.9824   46.1547 H   0  0  0  0  0  0  0  0  0  0  0  0
   59.5511   25.4073   46.0699 H   0  0  0  0  0  0  0  0  0  0  0  0
   57.9700   27.1050   44.1210 H   0  0  0  0  0  0  0  0  0  0  0  0
   55.9163   29.2243   42.7103 H   0  0  0  0  0  0  0  0  0  0  0  0
   57.1404   31.1907   41.7900 H   0  0  0  0  0  0  0  0  0  0  0  0
   58.5260   32.6202   43.2914 H   0  0  0  0  0  0  0  0  0  0  0  0
   59.2172   34.2687   45.2929 H   0  0  0  0  0  0  0  0  0  0  0  0
   57.5438   33.9320   45.8579 H   0  0  0  0  0  0  0  0  0  0  0  0
   58.8069   35.3304   47.4854 H   0  0  0  0  0  0  0  0  0  0  0  0
   58.3528   33.7149   48.1729 H   0  0  0  0  0  0  0  0  0  0  0  0
   61.7189   33.7133   49.3835 H   0  0  0  0  0  0  0  0  0  0  0  0
   60.6794   35.2196   49.4126 H   0  0  0  0  0  0  0  0  0  0  0  0
   59.6643   35.1396   51.5295 H   0  0  0  0  0  0  0  0  0  0  0  0
   58.0456   34.0325   53.0694 H   0  0  0  0  0  0  0  0  0  0  0  0
   57.2306   31.7243   52.5834 H   0  0  0  0  0  0  0  0  0  0  0  0
   59.6457   31.6221   48.9972 H   0  0  0  0  0  0  0  0  0  0  0  0
   61.5009   33.0614   46.2140 H   0  0  0  0  0  0  0  0  0  0  0  0
   61.6774   32.3135   47.8641 H   0  0  0  0  0  0  0  0  0  0  0  0
   60.4040   30.8810   46.2415 H   0  0  0  0  0  0  0  0  0  0  0  0
   59.4768   31.3293   47.7208 H   0  0  0  0  0  0  0  0  0  0  0  0
   57.4447   30.1177   46.6585 H   0  0  0  0  0  0  0  0  0  0  0  0
   56.0754   24.5006   43.6525 H   0  0  0  0  0  0  0  0  0  0  0  0
  1  2  1  0
  2  3  1  0
  3  4  2  0
  3  5  1  0
  5  6  2  0
  6  7  1  0
  7  8  2  0
  8  9  1  0
  9 10  1  0
 10 11  1  0
 11 12  2  0
 11 13  1  0
 13 14  1  0
 14 15  2  0
 15 16  1  0
 16 17  2  0
 17 18  1  0
 18 19  1  0
 19 20  1  0
 20 21  1  0
 21 22  1  0
 22 23  1  0
 23 24  1  0
 24 25  2  0
 25 26  1  0
 26 27  2  0
 27 28  1  0
 28 29  1  0
 28 30  2  0
 22 31  1  0
 31 32  1  0
 18 33  2  0
  9 34  2  0
 34  5  1  0
 33 14  1  0
 32 19  1  0
 30 24  1  0
  1 35  1  0
  1 36  1  0
  1 37  1  0
  6 38  1  0
  7 39  1  0
  8 40  1  0
 10 41  1  0
 15 42  1  0
 16 43  1  0
 17 44  1  0
 20 45  1  0
 20 46  1  0
 21 47  1  0
 21 48  1  0
 23 49  1  0
 23 50  1  0
 25 51  1  0
 26 52  1  0
 27 53  1  0
 30 54  1  0
 31 55  1  0
 31 56  1  0
 32 57  1  0
 32 58  1  0
 33 59  1  0
 34 60  1  0
M  CHG  1  13  -1
M  END
>  <UniqueID>  (1) 
1

>  <SMILES>  (1) 
COC(=O)c1cccc(NC(=O)[N-]c2cccc(N3CCN(Cc4cccc(F)c4)CC3)c2)c1

>  <Energy>  (1) 
79.7444036680386

>  <Genealogy>  (1) 
COC(=O)c1cccc(NC(=O)[N-]c2cccc(N3CCN(Cc4cccc(F)c4)CC3)c2)c1 (protonated)
COC(=O)c1cccc(NC(=O)[N-]c2cccc(N3CCN(Cc4cccc(F)c4)CC3)c2)c1 (3D coordinates assigned)
COC(=O)c1cccc(NC(=O)[N-]c2cccc(N3CCN(Cc4cccc(F)c4)CC3)c2)c1 (nonaromatic ring conformer: 79.7444036680386 kcal/mol)

>  <smiles>  (1) 
COC(=O)c1cccc(NC(=O)Nc2cccc(N3CCN(Cc4cccc(F)c4)CC3)c2)c1

>  <score_type>  (1) 
oracle

>  <origin>  (1) 
adg

>  <m_score__min__energy>  (1) 
-11.81

>  <m_primary>  (1) 
energy

$$$$
1:0
     RDKit          3D

 44 47  0  0  0  0  0  0  0  0999 V2000
   57.8480   24.1830   44.8370 O   0  0  0  0  0  0  0  0  0  0  0  0
   57.4750   24.9690   45.7480 C   0  0  0  0  0  0  0  0  0  0  0  0
   56.6160   24.4450   46.8610 C   0  0  0  0  0  0  0  0  0  0  0  0
   55.2740   24.0310   46.3200 C   0  0  0  0  0  0  0  0  0  0  0  0
   54.9220   22.6700   46.2850 C   0  0  0  0  0  0  0  0  0  0  0  0
   53.6900   22.2730   45.7590 C   0  0  0  0  0  0  0  0  0  0  0  0
   52.8040   23.2280   45.2540 C   0  0  0  0  0  0  0  0  0  0  0  0
   53.1490   24.5810   45.2710 C   0  0  0  0  0  0  0  0  0  0  0  0
   54.3800   24.9870   45.7970 C   0  0  0  0  0  0  0  0  0  0  0  0
   54.7080   26.3380   45.7960 O   0  0  0  0  0  0  0  0  0  0  0  0
   57.7980   26.3670   45.6610 N   0  0  0  0  0  0  0  0  0  0  0  0
   57.7660   27.0450   44.3630 C   0  0  0  0  0  0  0  0  0  0  0  0
   57.2100   28.4620   44.5280 C   0  0  0  0  0  0  0  0  0  0  0  0
   57.8560   29.1480   45.6580 N   0  0  0  0  0  0  0  0  0  0  0  0
   58.0880   30.5690   45.5990 C   0  0  0  0  0  0  0  0  0  0  0  0
   59.0310   31.1950   46.3550 N   0  0  0  0  0  0  0  0  0  0  0  0
   58.8920   32.4780   45.9920 C   0  0  0  0  0  0  0  0  0  0  0  0
   59.6130   33.5770   46.4510 C   0  0  0  0  0  0  0  0  0  0  0  0
   59.2940   34.8410   45.9180 C   0  0  0  0  0  0  0  0  0  0  0  0
   59.9970   35.9630   46.3490 O   0  0  0  0  0  0  0  0  0  0  0  0
   58.2650   34.9650   44.9500 C   0  0  0  0  0  0  0  0  0  0  0  0
   57.5580   33.8290   44.5120 C   0  0  0  0  0  0  0  0  0  0  0  0
   57.9070   32.5990   45.0620 C   0  0  0  0  0  0  0  0  0  0  0  0
   57.3750   31.3990   44.7900 N   0  0  0  0  0  0  0  0  0  0  0  0
   57.9240   28.4460   46.9460 C   0  0  0  0  0  0  0  0  0  0  0  0
   58.4970   27.0430   46.7570 C   0  0  0  0  0  0  0  0  0  0  0  0
   57.1072   23.5758   47.3227 H   0  0  0  0  0  0  0  0  0  0  0  0
   56.4754   25.2353   47.6132 H   0  0  0  0  0  0  0  0  0  0  0  0
   55.6202   21.9141   46.6737 H   0  0  0  0  0  0  0  0  0  0  0  0
   53.4173   21.2075   45.7425 H   0  0  0  0  0  0  0  0  0  0  0  0
   51.8335   22.9137   44.8425 H   0  0  0  0  0  0  0  0  0  0  0  0
   52.4505   25.3300   44.8695 H   0  0  0  0  0  0  0  0  0  0  0  0
   58.7859   27.0988   43.9545 H   0  0  0  0  0  0  0  0  0  0  0  0
   57.1191   26.4802   43.6756 H   0  0  0  0  0  0  0  0  0  0  0  0
   57.3960   29.0321   43.6059 H   0  0  0  0  0  0  0  0  0  0  0  0
   56.1300   28.3963   44.7260 H   0  0  0  0  0  0  0  0  0  0  0  0
   60.4056   33.4619   47.2050 H   0  0  0  0  0  0  0  0  0  0  0  0
   59.6240   36.5780   47.0640 H   0  0  0  0  0  0  0  0  0  0  0  0
   58.0177   35.9549   44.5389 H   0  0  0  0  0  0  0  0  0  0  0  0
   56.7579   33.9107   43.7615 H   0  0  0  0  0  0  0  0  0  0  0  0
   58.5697   29.0118   47.6337 H   0  0  0  0  0  0  0  0  0  0  0  0
   56.9091   28.3643   47.3623 H   0  0  0  0  0  0  0  0  0  0  0  0
   59.5683   27.1148   46.5181 H   0  0  0  0  0  0  0  0  0  0  0  0
   58.3629   26.4670   47.6845 H   0  0  0  0  0  0  0  0  0  0  0  0
  1  2  2  0
  2  3  1  0
  3  4  1  0
  4  5  2  0
  5  6  1  0
  6  7  2  0
  7  8  1  0
  8  9  2  0
  9 10  1  0
  2 11  1  0
 11 12  1  0
 12 13  1  0
 13 14  1  0
 14 15  1  0
 15 16  2  0
 16 17  1  0
 17 18  2  0
 18 19  1  0
 19 20  1  0
 19 21  2  0
 21 22  1  0
 22 23  2  0
 23 24  1  0
 14 25  1  0
 25 26  1  0
  9  4  1  0
 26 11  1  0
 24 15  1  0
 23 17  1  0
  3 27  1  0
  3 28  1  0
  5 29  1  0
  6 30  1  0
  7 31  1  0
  8 32  1  0
 12 33  1  0
 12 34  1  0
 13 35  1  0
 13 36  1  0
 18 37  1  0
 20 38  1  0
 21 39  1  0
 22 40  1  0
 25 41  1  0
 25 42  1  0
 26 43  1  0
 26 44  1  0
M  CHG  2  10  -1  24  -1
M  END
>  <UniqueID>  (2) 
2

>  <SMILES>  (2) 
O=C(Cc1ccccc1[O-])N1CCN(c2nc3cc(O)ccc3[n-]2)CC1

>  <Energy>  (2) 
83.19993508458131

>  <Genealogy>  (2) 
O=C(Cc1ccccc1[O-])N1CCN(c2nc3cc(O)ccc3[n-]2)CC1 (protonated)
O=C(Cc1ccccc1[O-])N1CCN(c2nc3cc(O)ccc3[n-]2)CC1 (3D coordinates assigned)
O=C(Cc1ccccc1[O-])N1CCN(c2nc3cc(O)ccc3[n-]2)CC1 (nonaromatic ring conformer: 83.19993508458131 kcal/mol)

>  <smiles>  (2) 
O=C(Cc1ccccc1O)N1CCN(c2nc3cc(O)ccc3[nH]2)CC1

>  <score_type>  (2) 
oracle

>  <origin>  (2) 
adg

>  <m_score__min__energy>  (2) 
-11.210000000000001

>  <m_primary>  (2) 
energy

$$$$
2:0
     RDKit          3D

 48 50  0  0  0  0  0  0  0  0999 V2000
   58.1227   30.8442   49.9789 H   0  0  0  0  0  0  0  0  0  0  0  0
   58.6650   31.7980   49.9000 C   0  0  0  0  0  0  0  0  0  0  0  0
   58.7250   32.4490   48.7080 N   0  0  0  0  0  0  0  0  0  0  0  0
   59.3830   33.6340   48.5670 C   0  0  0  0  0  0  0  0  0  0  0  0
   59.4500   34.2930   47.2220 C   0  0  0  0  0  0  0  0  0  0  0  0
   60.4906   34.5785   47.0081 H   0  0  0  0  0  0  0  0  0  0  0  0
   58.8101   35.1877   47.2271 H   0  0  0  0  0  0  0  0  0  0  0  0
   58.9790   33.3740   46.1890 N   0  0  0  0  0  0  0  0  0  0  0  0
   58.8650   32.3640   46.4320 H   0  0  0  0  0  0  0  0  0  0  0  0
   58.5980   33.8070   44.8750 C   0  0  0  0  0  0  0  0  0  0  0  0
   58.8540   34.9840   44.5040 O   0  0  0  0  0  0  0  0  0  0  0  0
   57.9990   32.8530   43.9800 N   0  0  0  0  0  0  0  0  0  0  0  0
   57.5150   31.6630   44.2150 C   0  0  0  0  0  0  0  0  0  0  0  0
   57.8310   31.0700   45.3970 N   0  0  0  0  0  0  0  0  0  0  0  0
   57.3990   29.8290   45.7590 C   0  0  0  0  0  0  0  0  0  0  0  0
   57.7870   29.3450   47.0180 O   0  0  0  0  0  0  0  0  0  0  0  0
   59.1260   29.0680   47.4320 C   0  0  0  0  0  0  0  0  0  0  0  0
   59.3364   29.6196   48.3601 H   0  0  0  0  0  0  0  0  0  0  0  0
   59.2241   27.9846   47.5953 H   0  0  0  0  0  0  0  0  0  0  0  0
   60.1330   29.4910   46.3600 C   0  0  0  0  0  0  0  0  0  0  0  0
   61.0591   28.9107   46.4848 H   0  0  0  0  0  0  0  0  0  0  0  0
   59.6961   29.3016   45.3684 H   0  0  0  0  0  0  0  0  0  0  0  0
   60.4320   30.8810   46.4730 O   0  0  0  0  0  0  0  0  0  0  0  0
   61.4670   31.3870   47.2670 C   0  0  0  0  0  0  0  0  0  0  0  0
   62.2520   32.4090   46.8300 N   0  0  0  0  0  0  0  0  0  0  0  0
   63.2480   32.9100   47.6050 C   0  0  0  0  0  0  0  0  0  0  0  0
   63.8740   33.7350   47.2342 H   0  0  0  0  0  0  0  0  0  0  0  0
   63.4750   32.3740   48.8750 C   0  0  0  0  0  0  0  0  0  0  0  0
   64.8680   33.0570   49.9880 Br  0  0  0  0  0  0  0  0  0  0  0  0
   62.6640   31.3240   49.3080 C   0  0  0  0  0  0  0  0  0  0  0  0
   62.8227   30.8798   50.3017 H   0  0  0  0  0  0  0  0  0  0  0  0
   61.6790   30.8510   48.5020 N   0  0  0  0  0  0  0  0  0  0  0  0
   56.5590   29.1100   44.8820 C   0  0  0  0  0  0  0  0  0  0  0  0
   56.0870   27.8400   45.2500 O   0  0  0  0  0  0  0  0  0  0  0  0
   56.9130   26.7410   45.6170 C   0  0  0  0  0  0  0  0  0  0  0  0
   56.9651   26.6716   46.7136 H   0  0  0  0  0  0  0  0  0  0  0  0
   56.4882   25.8113   45.2106 H   0  0  0  0  0  0  0  0  0  0  0  0
   57.9242   26.8905   45.2106 H   0  0  0  0  0  0  0  0  0  0  0  0
   56.1940   29.7100   43.6630 C   0  0  0  0  0  0  0  0  0  0  0  0
   55.5372   29.1698   42.9653 H   0  0  0  0  0  0  0  0  0  0  0  0
   56.6570   30.9840   43.3300 C   0  0  0  0  0  0  0  0  0  0  0  0
   56.3535   31.4538   42.3828 H   0  0  0  0  0  0  0  0  0  0  0  0
   60.0310   34.2040   49.6750 C   0  0  0  0  0  0  0  0  0  0  0  0
   60.5714   35.1567   49.5734 H   0  0  0  0  0  0  0  0  0  0  0  0
   59.9820   33.5480   50.9080 C   0  0  0  0  0  0  0  0  0  0  0  0
   60.4858   33.9823   51.7841 H   0  0  0  0  0  0  0  0  0  0  0  0
   59.2920   32.3400   51.0250 C   0  0  0  0  0  0  0  0  0  0  0  0
   59.2424   31.8201   51.9931 H   0  0  0  0  0  0  0  0  0  0  0  0
  1  2  1  0
  2  3  2  0
  3  4  1  0
  4  5  1  0
  5  6  1  0
  5  7  1  0
  5  8  1  0
  8  9  1  0
  8 10  1  0
 10 11  2  0
 10 12  1  0
 12 13  2  0
 13 14  1  0
 14 15  1  0
 15 16  1  0
 16 17  1  0
 17 18  1  0
 17 19  1  0
 17 20  1  0
 20 21  1  0
 20 22  1  0
 20 23  1  0
 23 24  1  0
 24 25  2  0
 25 26  1  0
 26 27  1  0
 26 28  2  0
 28 29  1  0
 28 30  1  0
 30 31  1  0
 30 32  2  0
 15 33  2  0
 33 34  1  0
 34 35  1  0
 35 36  1  0
 35 37  1  0
 35 38  1  0
 33 39  1  0
 39 40  1  0
 39 41  2  0
 41 42  1  0
  4 43  2  0
 43 44  1  0
 43 45  1  0
 45 46  1  0
 45 47  2  0
 47 48  1  0
 47  2  1  0
 41 13  1  0
 32 24  1  0
M  CHG  1  14  -1
M  END
>  <UniqueID>  (3) 
3

>  <SMILES>  (3) 
COc1cc/c(=N\C(=O)NCc2ccccn2)[n-]c1OCCOc1ncc(Br)cn1

>  <Energy>  (3) 
57.66139375087626

>  <Genealogy>  (3) 
COc1ccc(=NC(=O)NCc2ccccn2)[n-]c1OCCOc1ncc(Br)cn1 (protonated)
COc1cc/c(=N\C(=O)NCc2ccccn2)[n-]c1OCCOc1ncc(Br)cn1 (cis-trans isomerization)
COc1cc/c(=N\C(=O)NCc2ccccn2)[n-]c1OCCOc1ncc(Br)cn1 (3D coordinates assigned)
COc1cc/c(=N\C(=O)NCc2ccccn2)[n-]c1OCCOc1ncc(Br)cn1 (optimized conformer: 57.66139375087626 kcal/mol)

>  <smiles>  (3) 
COc1ccc(=NC(=O)NCc2ccccn2)[nH]c1OCCOc1ncc(Br)cn1

>  <score_type>  (3) 
oracle

>  <origin>  (3) 
adg

>  <m_score__min__energy>  (3) 
-9.1899999999999995

>  <m_primary>  (3) 
energy

$$$$
3:0
     RDKit          3D

 64 68  0  0  0  0  0  0  0  0999 V2000
   61.2329   27.9722   47.2509 H   0  0  0  0  0  0  0  0  0  0  0  0
   60.3640   27.6820   46.6420 C   0  0  0  0  0  0  0  0  0  0  0  0
   60.3120   26.6749   46.2027 H   0  0  0  0  0  0  0  0  0  0  0  0
   59.3670   28.5570   46.4350 C   0  0  0  0  0  0  0  0  0  0  0  0
   58.1950   28.3530   45.6900 C   0  0  0  0  0  0  0  0  0  0  0  0
   57.6610   27.2290   45.1740 C   0  0  0  0  0  0  0  0  0  0  0  0
   57.5939   27.1609   44.0782 H   0  0  0  0  0  0  0  0  0  0  0  0
   57.1600   26.0850   45.9510 C   0  0  0  0  0  0  0  0  0  0  0  0
   57.9380   25.1390   46.5090 N   0  0  0  0  0  0  0  0  0  0  0  0
   57.0620   24.3950   47.2200 C   0  0  0  0  0  0  0  0  0  0  0  0
   57.4120   23.3830   47.8810 O   0  0  0  0  0  0  0  0  0  0  0  0
   55.7820   24.8240   47.1700 N   0  0  0  0  0  0  0  0  0  0  0  0
   55.8670   25.9030   46.3740 C   0  0  0  0  0  0  0  0  0  0  0  0
   54.7820   26.7080   46.0480 O   0  0  0  0  0  0  0  0  0  0  0  0
   57.5980   29.5970   45.5620 C   0  0  0  0  0  0  0  0  0  0  0  0
   56.6866   29.8305   44.9920 H   0  0  0  0  0  0  0  0  0  0  0  0
   58.3650   30.4870   46.2860 C   0  0  0  0  0  0  0  0  0  0  0  0
   58.1220   31.9640   46.3550 C   0  0  0  0  0  0  0  0  0  0  0  0
   58.0703   32.2783   47.4079 H   0  0  0  0  0  0  0  0  0  0  0  0
   58.9449   32.4948   45.8539 H   0  0  0  0  0  0  0  0  0  0  0  0
   57.1724   32.2032   45.8539 H   0  0  0  0  0  0  0  0  0  0  0  0
   59.4330   29.8560   46.8190 N   0  0  0  0  0  0  0  0  0  0  0  0
   60.5080   30.4950   47.5260 C   0  0  0  0  0  0  0  0  0  0  0  0
   61.4770   31.1960   46.7990 C   0  0  0  0  0  0  0  0  0  0  0  0
   61.4153   31.2333   45.7014 H   0  0  0  0  0  0  0  0  0  0  0  0
   62.5210   31.8480   47.4570 C   0  0  0  0  0  0  0  0  0  0  0  0
   63.2830   32.3858   46.8739 H   0  0  0  0  0  0  0  0  0  0  0  0
   62.6050   31.8220   48.8570 C   0  0  0  0  0  0  0  0  0  0  0  0
   63.7150   32.5190   49.5400 C   0  0  0  0  0  0  0  0  0  0  0  0
   64.8200   32.6550   48.9490 O   0  0  0  0  0  0  0  0  0  0  0  0
   63.5550   33.0850   50.8440 N   0  0  0  0  0  0  0  0  0  0  0  0
   64.3980   33.8670   51.7680 C   0  0  0  0  0  0  0  0  0  0  0  0
   65.2124   33.2714   52.2062 H   0  0  0  0  0  0  0  0  0  0  0  0
   64.9459   34.7211   51.3433 H   0  0  0  0  0  0  0  0  0  0  0  0
   63.3180   34.1750   52.7500 C   0  0  0  0  0  0  0  0  0  0  0  0
   63.4521   33.7451   53.7536 H   0  0  0  0  0  0  0  0  0  0  0  0
   63.0638   35.1914   53.0851 H   0  0  0  0  0  0  0  0  0  0  0  0
   62.4800   33.3730   51.8130 C   0  0  0  0  0  0  0  0  0  0  0  0
   62.0746   32.4631   52.2795 H   0  0  0  0  0  0  0  0  0  0  0  0
   61.5698   33.8514   51.4222 H   0  0  0  0  0  0  0  0  0  0  0  0
   61.6430   31.1030   49.5840 C   0  0  0  0  0  0  0  0  0  0  0  0
   61.7092   31.0658   50.6814 H   0  0  0  0  0  0  0  0  0  0  0  0
   60.5980   30.4310   48.9310 C   0  0  0  0  0  0  0  0  0  0  0  0
   59.4120   29.5390   49.8990 S   0  0  0  0  0  0  0  0  0  0  0  0
   58.7680   28.4980   49.0280 O   0  0  0  0  0  0  0  0  0  0  0  0
   60.0850   28.8670   51.0630 O   0  0  0  0  0  0  0  0  0  0  0  0
   58.1930   30.6340   50.5080 N   0  0  0  0  0  0  0  0  0  0  0  0
   58.3300   31.9790   49.8960 C   0  0  0  0  0  0  0  0  0  0  0  0
   58.9946   31.9024   49.0228 H   0  0  0  0  0  0  0  0  0  0  0  0
   57.3232   32.3192   49.6119 H   0  0  0  0  0  0  0  0  0  0  0  0
   58.9130   33.0150   50.8680 C   0  0  0  0  0  0  0  0  0  0  0  0
   59.9212   32.6961   51.1711 H   0  0  0  0  0  0  0  0  0  0  0  0
   58.9531   33.9891   50.3585 H   0  0  0  0  0  0  0  0  0  0  0  0
   58.0650   33.1490   52.0740 N   0  0  0  0  0  0  0  0  0  0  0  0
   58.8130   33.8200   53.1490 C   0  0  0  0  0  0  0  0  0  0  0  0
   58.4354   33.4813   54.1251 H   0  0  0  0  0  0  0  0  0  0  0  0
   59.8811   33.5716   53.0628 H   0  0  0  0  0  0  0  0  0  0  0  0
   58.6816   34.9087   53.0628 H   0  0  0  0  0  0  0  0  0  0  0  0
   57.4790   31.8660   52.5390 C   0  0  0  0  0  0  0  0  0  0  0  0
   57.5220   31.8362   53.6378 H   0  0  0  0  0  0  0  0  0  0  0  0
   56.4425   31.8199   52.1736 H   0  0  0  0  0  0  0  0  0  0  0  0
   58.2240   30.6450   51.9840 C   0  0  0  0  0  0  0  0  0  0  0  0
   59.2703   30.6775   52.3219 H   0  0  0  0  0  0  0  0  0  0  0  0
   57.7290   29.7344   52.3524 H   0  0  0  0  0  0  0  0  0  0  0  0
  1  2  1  0
  2  3  1  0
  2  4  2  0
  4  5  1  0
  5  6  2  0
  6  7  1  0
  6  8  1  0
  8  9  1  0
  9 10  1  0
 10 11  2  0
 10 12  1  0
 12 13  1  0
 13 14  1  0
  5 15  1  0
 15 16  1  0
 15 17  2  0
 17 18  1  0
 18 19  1  0
 18 20  1  0
 18 21  1  0
 17 22  1  0
 22 23  1  0
 23 24  2  0
 24 25  1  0
 24 26  1  0
 26 27  1  0
 26 28  2  0
 28 29  1  0
 29 30  2  0
 29 31  1  0
 31 32  1  0
 32 33  1  0
 32 34  1  0
 32 35  1  0
 35 36  1  0
 35 37  1  0
 35 38  1  0
 38 39  1  0
 38 40  1  0
 28 41  1  0
 41 42  1  0
 41 43  2  0
 43 44  1  0
 44 45  2  0
 44 46  2  0
 44 47  1  0
 47 48  1  0
 48 49  1  0
 48 50  1  0
 48 51  1  0
 51 52  1  0
 51 53  1  0
 51 54  1  0
 54 55  1  0
 55 56  1  0
 55 57  1  0
 55 58  1  0
 54 59  1  0
 59 60  1  0
 59 61  1  0
 59 62  1  0
 62 63  1  0
 62 64  1  0
 22  4  1  0
 43 23  1  0
 62 47  1  0
 13  8  2  0
 38 31  1  0
M  CHG  3   9  -1  12  -1  14  -1
M  END
>  <UniqueID>  (4) 
4

>  <SMILES>  (4) 
C=c1/c(=C\c2[n-]c(=O)[n-]c2[O-])cc(C)n1-c1ccc(C(=O)N2CCC2)cc1S(=O)(=O)N1CCN(C)CC1

>  <Energy>  (4) 
198.36700836576415

>  <Genealogy>  (4) 
C=c1c(=Cc2[n-]c(=O)[n-]c2[O-])cc(C)n1-c1ccc(C(=O)N2CCC2)cc1S(=O)(=O)N1CCN(C)CC1 (protonated)
C=c1/c(=C\c2[n-]c(=O)[n-]c2[O-])cc(C)n1-c1ccc(C(=O)N2CCC2)cc1S(=O)(=O)N1CCN(C)CC1 (cis-trans isomerization)
C=c1/c(=C\c2[n-]c(=O)[n-]c2[O-])cc(C)n1-c1ccc(C(=O)N2CCC2)cc1S(=O)(=O)N1CCN(C)CC1 (3D coordinates assigned)
C=c1/c(=C\c2[n-]c(=O)[n-]c2[O-])cc(C)n1-c1ccc(C(=O)N2CCC2)cc1S(=O)(=O)N1CCN(C)CC1 (nonaromatic ring conformer: 198.36700836576415 kcal/mol)

>  <smiles>  (4) 
C=c1c(=Cc2[nH]c(=O)[nH]c2O)cc(C)n1-c1ccc(C(=O)N2CCC2)cc1S(=O)(=O)N1CCN(C)CC1

>  <score_type>  (4) 
oracle

>  <origin>  (4) 
adg

>  <m_score__min__energy>  (4) 
-16.5

>  <m_primary>  (4) 
energy

$$$$
4:0
     RDKit          3D

 41 44  0  0  0  0  0  0  0  0999 V2000
   57.2590   30.5070   43.9150 O   0  0  0  0  0  0  0  0  0  0  0  0
   58.0020   30.6380   44.9230 C   0  0  0  0  0  0  0  0  0  0  0  0
   58.4360   31.9970   45.3250 C   0  0  0  0  0  0  0  0  0  0  0  0
   58.5260   33.0400   44.3830 C   0  0  0  0  0  0  0  0  0  0  0  0
   58.9230   34.3190   44.7800 C   0  0  0  0  0  0  0  0  0  0  0  0
   59.2260   34.5760   46.1190 C   0  0  0  0  0  0  0  0  0  0  0  0
   59.6110   35.8190   46.5020 F   0  0  0  0  0  0  0  0  0  0  0  0
   59.1230   33.5530   47.0660 C   0  0  0  0  0  0  0  0  0  0  0  0
   58.7260   32.2720   46.6740 C   0  0  0  0  0  0  0  0  0  0  0  0
   58.3960   29.4350   45.6870 C   0  0  0  0  0  0  0  0  0  0  0  0
   59.6200   29.2130   46.3130 C   0  0  0  0  0  0  0  0  0  0  0  0
   59.6230   28.0130   46.9380 N   0  0  0  0  0  0  0  0  0  0  0  0
   60.7710   27.4080   47.6120 C   0  0  0  0  0  0  0  0  0  0  0  0
   60.7010   27.6810   49.0900 C   0  0  0  0  0  0  0  0  0  0  0  0
   60.1550   28.8820   49.5720 C   0  0  0  0  0  0  0  0  0  0  0  0
   60.0630   29.1120   50.9480 C   0  0  0  0  0  0  0  0  0  0  0  0
   60.5070   28.1430   51.8520 C   0  0  0  0  0  0  0  0  0  0  0  0
   61.0450   26.9430   51.3810 C   0  0  0  0  0  0  0  0  0  0  0  0
   61.1400   26.7100   50.0060 C   0  0  0  0  0  0  0  0  0  0  0  0
   58.4100   27.4650   46.7110 C   0  0  0  0  0  0  0  0  0  0  0  0
   57.9350   26.2190   47.1310 C   0  0  0  0  0  0  0  0  0  0  0  0
   56.6300   25.8490   46.7610 C   0  0  0  0  0  0  0  0  0  0  0  0
   55.8330   26.7170   45.9840 C   0  0  0  0  0  0  0  0  0  0  0  0
   54.5470   26.3350   45.6210 O   0  0  0  0  0  0  0  0  0  0  0  0
   56.3340   27.9650   45.5710 C   0  0  0  0  0  0  0  0  0  0  0  0
   57.6300   28.3120   45.9590 C   0  0  0  0  0  0  0  0  0  0  0  0
   58.2821   32.8462   43.3280 H   0  0  0  0  0  0  0  0  0  0  0  0
   58.9972   35.1259   44.0361 H   0  0  0  0  0  0  0  0  0  0  0  0
   59.3549   33.7568   48.1218 H   0  0  0  0  0  0  0  0  0  0  0  0
   58.6396   31.4731   47.4252 H   0  0  0  0  0  0  0  0  0  0  0  0
   60.4665   29.9154   46.3010 H   0  0  0  0  0  0  0  0  0  0  0  0
   60.7629   26.3214   47.4413 H   0  0  0  0  0  0  0  0  0  0  0  0
   61.6975   27.8416   47.2077 H   0  0  0  0  0  0  0  0  0  0  0  0
   59.7984   29.6446   48.8641 H   0  0  0  0  0  0  0  0  0  0  0  0
   59.6405   30.0572   51.3197 H   0  0  0  0  0  0  0  0  0  0  0  0
   60.4328   28.3253   52.9343 H   0  0  0  0  0  0  0  0  0  0  0  0
   61.3943   26.1806   52.0929 H   0  0  0  0  0  0  0  0  0  0  0  0
   61.5604   25.7620   49.6393 H   0  0  0  0  0  0  0  0  0  0  0  0
   58.5642   25.5474   47.7336 H   0  0  0  0  0  0  0  0  0  0  0  0
   56.2272   24.8761   47.0793 H   0  0  0  0  0  0  0  0  0  0  0  0
   55.7234   28.6469   44.9609 H   0  0  0  0  0  0  0  0  0  0  0  0
  1  2  2  0
  2  3  1  0
  3  4  2  0
  4  5  1  0
  5  6  2  0
  6  7  1  0
  6  8  1  0
  8  9  2  0
  2 10  1  0
 10 11  2  0
 11 12  1  0
 12 13  1  0
 13 14  1  0
 14 15  2  0
 15 16  1  0
 16 17  2  0
 17 18  1  0
 18 19  2  0
 12 20  1  0
 20 21  2  0
 21 22  1  0
 22 23  2  0
 23 24  1  0
 23 25  1  0
 25 26  2  0
  9  3  1  0
 26 10  1  0
 19 14  1  0
 26 20  1  0
  4 27  1  0
  5 28  1  0
  8 29  1  0
  9 30  1  0
 11 31  1  0
 13 32  1  0
 13 33  1  0
 15 34  1  0
 16 35  1  0
 17 36  1  0
 18 37  1  0
 19 38  1  0
 21 39  1  0
 22 40  1  0
 25 41  1  0
M  CHG  1  24  -1
M  END
>  <UniqueID>  (5) 
5

>  <SMILES>  (5) 
O=C(c1ccc(F)cc1)c1cn(Cc2ccccc2)c2ccc([O-])cc12

>  <Energy>  (5) 
83.02433407677441

>  <Genealogy>  (5) 
O=C(c1ccc(F)cc1)c1cn(Cc2ccccc2)c2ccc([O-])cc12 (protonated)
O=C(c1ccc(F)cc1)c1cn(Cc2ccccc2)c2ccc([O-])cc12 (3D coordinates assigned)
O=C(c1ccc(F)cc1)c1cn(Cc2ccccc2)c2ccc([O-])cc12 (optimized conformer: 83.02433407677441 kcal/mol)

>  <smiles>  (5) 
O=C(c1ccc(F)cc1)c1cn(Cc2ccccc2)c2ccc(O)cc12

>  <score_type>  (5) 
oracle

>  <origin>  (5) 
adg

>  <m_score__min__energy>  (5) 
-10.720000000000001

>  <m_primary>  (5) 
energy

$$$$
5:0
     RDKit          3D

 46 49  0  0  0  0  0  0  0  0999 V2000
   64.6800   32.1660   49.3700 C   0  0  0  0  0  0  0  0  0  0  0  0
   63.4250   32.6980   48.7440 C   0  0  0  0  0  0  0  0  0  0  0  0
   62.4440   33.3110   49.5360 C   0  0  0  0  0  0  0  0  0  0  0  0
   61.2940   33.8430   48.9460 C   0  0  0  0  0  0  0  0  0  0  0  0
   61.1210   33.7830   47.5580 C   0  0  0  0  0  0  0  0  0  0  0  0
   59.6820   34.4930   46.8290 S   0  0  0  0  0  0  0  0  0  0  0  0
   58.8790   35.2440   47.8540 O   0  0  0  0  0  0  0  0  0  0  0  0
   60.1410   35.4540   45.7680 O   0  0  0  0  0  0  0  0  0  0  0  0
   58.6840   33.2370   46.1310 N   0  0  0  0  0  0  0  0  0  0  0  0
   58.7480   31.8990   46.6810 C   0  0  0  0  0  0  0  0  0  0  0  0
   59.0490   31.6650   48.0350 C   0  0  0  0  0  0  0  0  0  0  0  0
   59.2530   30.3640   48.4960 C   0  0  0  0  0  0  0  0  0  0  0  0
   59.1440   29.2830   47.6200 C   0  0  0  0  0  0  0  0  0  0  0  0
   58.7910   29.4870   46.2770 C   0  0  0  0  0  0  0  0  0  0  0  0
   58.6430   28.3580   45.3980 N   0  0  0  0  0  0  0  0  0  0  0  0
   58.5690   27.0590   45.7580 C   0  0  0  0  0  0  0  0  0  0  0  0
   58.4700   26.2900   44.6140 C   0  0  0  0  0  0  0  0  0  0  0  0
   58.4940   27.1960   43.5710 C   0  0  0  0  0  0  0  0  0  0  0  0
   58.6050   28.4370   44.0770 N   0  0  0  0  0  0  0  0  0  0  0  0
   58.5750   30.8040   45.8210 C   0  0  0  0  0  0  0  0  0  0  0  0
   58.1950   31.0540   44.5060 O   0  0  0  0  0  0  0  0  0  0  0  0
   57.4380   32.2170   44.1980 C   0  0  0  0  0  0  0  0  0  0  0  0
   58.0910   33.4820   44.7970 C   0  0  1  0  0  0  0  0  0  0  0  0
   57.0460   34.6040   44.8700 C   0  0  0  0  0  0  0  0  0  0  0  0
   62.1050   33.1810   46.7630 C   0  0  0  0  0  0  0  0  0  0  0  0
   63.2540   32.6470   47.3510 C   0  0  0  0  0  0  0  0  0  0  0  0
   64.5883   32.2049   50.4655 H   0  0  0  0  0  0  0  0  0  0  0  0
   64.8355   31.1246   49.0518 H   0  0  0  0  0  0  0  0  0  0  0  0
   65.5366   32.7784   49.0518 H   0  0  0  0  0  0  0  0  0  0  0  0
   62.5798   33.3735   50.6258 H   0  0  0  0  0  0  0  0  0  0  0  0
   60.5219   34.3106   49.5746 H   0  0  0  0  0  0  0  0  0  0  0  0
   59.1239   32.5115   48.7335 H   0  0  0  0  0  0  0  0  0  0  0  0
   59.5006   30.1897   49.5535 H   0  0  0  0  0  0  0  0  0  0  0  0
   59.3362   28.2633   47.9849 H   0  0  0  0  0  0  0  0  0  0  0  0
   58.5848   26.6766   46.7893 H   0  0  0  0  0  0  0  0  0  0  0  0
   58.3896   25.1949   44.5481 H   0  0  0  0  0  0  0  0  0  0  0  0
   58.4324   26.9436   42.5021 H   0  0  0  0  0  0  0  0  0  0  0  0
   58.6410   29.3230   43.5240 H   0  0  0  0  0  0  0  0  0  0  0  0
   57.3778   32.3272   43.1052 H   0  0  0  0  0  0  0  0  0  0  0  0
   56.4335   32.1043   44.6318 H   0  0  0  0  0  0  0  0  0  0  0  0
   58.9186   33.7806   44.1367 H   0  0  0  0  0  0  0  0  0  0  0  0
   56.8300   34.8359   45.9234 H   0  0  0  0  0  0  0  0  0  0  0  0
   57.4368   35.5022   44.3695 H   0  0  0  0  0  0  0  0  0  0  0  0
   56.1223   34.2779   44.3695 H   0  0  0  0  0  0  0  0  0  0  0  0
   61.9724   33.1287   45.6723 H   0  0  0  0  0  0  0  0  0  0  0  0
   64.0279   32.1848   46.7206 H   0  0  0  0  0  0  0  0  0  0  0  0
  1  2  1  0
  2  3  2  0
  3  4  1  0
  4  5  2  0
  5  6  1  0
  6  7  2  0
  6  8  2  0
  6  9  1  0
  9 10  1  0
 10 11  2  0
 11 12  1  0
 12 13  2  0
 13 14  1  0
 14 15  1  0
 15 16  1  0
 16 17  2  0
 17 18  1  0
 18 19  2  0
 14 20  2  0
 20 21  1  0
 21 22  1  0
 22 23  1  0
 23 24  1  0
  5 25  1  0
 25 26  2  0
 26  2  1  0
 23  9  1  0
 20 10  1  0
 19 15  1  0
  1 27  1  0
  1 28  1  0
  1 29  1  0
  3 30  1  0
  4 31  1  0
 11 32  1  0
 12 33  1  0
 13 34  1  0
 16 35  1  0
 17 36  1  0
 18 37  1  0
 19 38  1  0
 22 39  1  0
 22 40  1  0
 23 41  1  6
 24 42  1  0
 24 43  1  0
 24 44  1  0
 25 45  1  0
 26 46  1  0
M  CHG  1  19   1
M  END
>  <UniqueID>  (6) 
6

>  <SMILES>  (6) 
Cc1ccc(S(=O)(=O)N2c3cccc(-n4ccc[nH+]4)c3OC[C@H]2C)cc1

>  <Energy>  (6) 
89.85444293146736

>  <Genealogy>  (6) 
Cc1ccc(S(=O)(=O)N2c3cccc(-n4ccc[nH+]4)c3OCC2C)cc1 (protonated)
Cc1ccc(S(=O)(=O)N2c3cccc(-n4ccc[nH+]4)c3OC[C@H]2C)cc1 (chirality)
Cc1ccc(S(=O)(=O)N2c3cccc(-n4ccc[nH+]4)c3OC[C@H]2C)cc1 (3D coordinates assigned)
Cc1ccc(S(=O)(=O)N2c3cccc(-n4ccc[nH+]4)c3OC[C@H]2C)cc1 (nonaromatic ring conformer: 89.85444293146736 kcal/mol)

>  <smiles>  (6) 
Cc1ccc(S(=O)(=O)N2c3cccc(-n4cccn4)c3OCC2C)cc1

>  <score_type>  (6) 
oracle

>  <origin>  (6) 
adg

>  <m_score__min__energy>  (6) 
-6.8799999999999999

>  <m_primary>  (6) 
energy

$$$$
6:0
     RDKit          3D

 38 40  0  0  0  0  0  0  0  0999 V2000
   54.9040   26.7010   45.2250 H   0  0  0  0  0  0  0  0  0  0  0  0
   54.3940   26.1030   45.9130 N   0  0  0  0  0  0  0  0  0  0  0  0
   54.0370   24.7600   45.5930 C   0  0  0  0  0  0  0  0  0  0  0  0
   53.0780   24.5330   44.8060 O   0  0  0  0  0  0  0  0  0  0  0  0
   54.7720   23.6220   46.2240 C   0  0  0  0  0  0  0  0  0  0  0  0
   54.5839   23.6234   47.3078 H   0  0  0  0  0  0  0  0  0  0  0  0
   54.4194   22.6772   45.7848 H   0  0  0  0  0  0  0  0  0  0  0  0
   56.2420   23.7600   45.9760 C   0  0  0  0  0  0  0  0  0  0  0  0
   57.0220   24.5740   46.7400 N   0  0  0  0  0  0  0  0  0  0  0  0
   58.3050   24.5700   46.3230 C   0  0  0  0  0  0  0  0  0  0  0  0
   59.2180   25.3000   46.8910 N   0  0  0  0  0  0  0  0  0  0  0  0
   59.9120   26.4010   46.2850 C   0  0  0  0  0  0  0  0  0  0  0  0
   61.1700   26.3670   46.2380 O   0  0  0  0  0  0  0  0  0  0  0  0
   59.1900   27.5320   45.6530 C   0  0  0  0  0  0  0  0  0  0  0  0
   59.9070   28.5620   45.0240 C   0  0  0  0  0  0  0  0  0  0  0  0
   61.0061   28.5268   44.9985 H   0  0  0  0  0  0  0  0  0  0  0  0
   59.2320   29.6320   44.4300 C   0  0  0  0  0  0  0  0  0  0  0  0
   59.8045   30.4427   43.9557 H   0  0  0  0  0  0  0  0  0  0  0  0
   57.8300   29.6800   44.4340 C   0  0  0  0  0  0  0  0  0  0  0  0
   57.1220   30.8640   43.8270 C   0  0  0  0  0  0  0  0  0  0  0  0
   57.4505   30.9903   42.7848 H   0  0  0  0  0  0  0  0  0  0  0  0
   56.0362   30.6906   43.8564 H   0  0  0  0  0  0  0  0  0  0  0  0
   57.4360   32.0720   44.5830 N   0  0  0  0  0  0  0  0  0  0  0  0
   56.5740   32.6850   45.3820 N   0  0  0  0  0  0  0  0  0  0  0  0
   57.1800   33.7910   45.8580 C   0  0  0  0  0  0  0  0  0  0  0  0
   56.7316   34.5142   46.5551 H   0  0  0  0  0  0  0  0  0  0  0  0
   58.4530   33.8710   45.3310 C   0  0  0  0  0  0  0  0  0  0  0  0
   59.6430   35.1250   45.6170 Cl  0  0  0  0  0  0  0  0  0  0  0  0
   58.5860   32.7690   44.5210 C   0  0  0  0  0  0  0  0  0  0  0  0
   59.4736   32.5038   43.9279 H   0  0  0  0  0  0  0  0  0  0  0  0
   57.1060   28.6480   45.0610 C   0  0  0  0  0  0  0  0  0  0  0  0
   55.7110   28.6870   45.0910 O   0  0  0  0  0  0  0  0  0  0  0  0
   55.1500   27.8640   44.9020 H   0  0  0  0  0  0  0  0  0  0  0  0
   57.7880   27.5780   45.6580 C   0  0  0  0  0  0  0  0  0  0  0  0
   57.2181   26.7669   46.1348 H   0  0  0  0  0  0  0  0  0  0  0  0
   58.5170   23.5820   44.9700 S   0  0  0  0  0  0  0  0  0  0  0  0
   56.9000   23.1200   44.9270 C   0  0  0  0  0  0  0  0  0  0  0  0
   56.4425   22.4337   44.1992 H   0  0  0  0  0  0  0  0  0  0  0  0
  1  2  1  0
  2  3  1  0
  3  4  2  0
  3  5  1  0
  5  6  1  0
  5  7  1  0
  5  8  1  0
  8  9  1  0
  9 10  1  0
 10 11  2  0
 11 12  1  0
 12 13  2  0
 12 14  1  0
 14 15  2  0
 15 16  1  0
 15 17  1  0
 17 18  1  0
 17 19  2  0
 19 20  1  0
 20 21  1  0
 20 22  1  0
 20 23  1  0
 23 24  1  0
 24 25  2  0
 25 26  1  0
 25 27  1  0
 27 28  1  0
 27 29  2  0
 29 30  1  0
 19 31  1  0
 31 32  1  0
 32 33  1  0
 31 34  2  0
 34 35  1  0
 10 36  1  0
 36 37  1  0
 37 38  1  0
 37  8  2  0
 34 14  1  0
 29 23  1  0
M  CHG  2   2  -1   9  -1
M  END
>  <UniqueID>  (7) 
7

>  <SMILES>  (7) 
[NH-]C(=O)Cc1cs/c(=N\C(=O)c2ccc(Cn3cc(Cl)cn3)c(O)c2)[n-]1

>  <Energy>  (7) 
104.17390146587528

>  <Genealogy>  (7) 
[NH-]C(=O)Cc1csc(=NC(=O)c2ccc(Cn3cc(Cl)cn3)c(O)c2)[n-]1 (protonated)
[NH-]C(=O)Cc1cs/c(=N\C(=O)c2ccc(Cn3cc(Cl)cn3)c(O)c2)[n-]1 (cis-trans isomerization)
[NH-]C(=O)Cc1cs/c(=N\C(=O)c2ccc(Cn3cc(Cl)cn3)c(O)c2)[n-]1 (3D coordinates assigned)
[NH-]C(=O)Cc1cs/c(=N\C(=O)c2ccc(Cn3cc(Cl)cn3)c(O)c2)[n-]1 (optimized conformer: 104.17390146587528 kcal/mol)

>  <smiles>  (7) 
NC(=O)Cc1csc(=NC(=O)c2ccc(Cn3cc(Cl)cn3)c(O)c2)[nH]1

>  <score_type>  (7) 
oracle

>  <origin>  (7) 
adg

>  <m_score__min__energy>  (7) 
-13.26

>  <m_primary>  (7) 
energy

$$$$
7:0
     RDKit          3D

 57 60  0  0  0  0  0  0  0  0999 V2000
   56.5570   30.4670   54.6250 O   0  0  0  0  0  0  0  0  0  0  0  0
   56.3860   30.0170   53.4620 C   0  0  0  0  0  0  0  0  0  0  0  0
   55.0820   29.5460   53.0940 N   0  0  0  0  0  0  0  0  0  0  0  0
   53.9520   30.3600   52.7500 C   0  0  0  0  0  0  0  0  0  0  0  0
   52.8930   30.5740   53.6500 C   0  0  0  0  0  0  0  0  0  0  0  0
   51.8000   31.3620   53.2750 C   0  0  0  0  0  0  0  0  0  0  0  0
   51.7480   31.9260   51.9970 C   0  0  0  0  0  0  0  0  0  0  0  0
   50.6620   32.7090   51.6260 O   0  0  0  0  0  0  0  0  0  0  0  0
   52.7880   31.6970   51.0900 C   0  0  0  0  0  0  0  0  0  0  0  0
   53.8830   30.9110   51.4640 C   0  0  0  0  0  0  0  0  0  0  0  0
   57.5410   29.9360   52.5370 C   0  0  0  0  0  0  0  0  0  0  0  0
   58.6920   29.2120   52.8870 C   0  0  0  0  0  0  0  0  0  0  0  0
   59.7800   29.1500   52.0130 C   0  0  0  0  0  0  0  0  0  0  0  0
   60.8840   28.4430   52.3590 F   0  0  0  0  0  0  0  0  0  0  0  0
   59.7340   29.8150   50.7870 C   0  0  0  0  0  0  0  0  0  0  0  0
   58.5980   30.5570   50.4180 C   0  0  0  0  0  0  0  0  0  0  0  0
   58.5550   31.2530   49.1530 N   0  0  0  0  0  0  0  0  0  0  0  0
   58.3450   32.7060   49.1140 C   0  0  0  0  0  0  0  0  0  0  0  0
   57.6040   33.1170   47.8390 C   0  0  0  0  0  0  0  0  0  0  0  0
   58.2320   32.5470   46.6380 N   0  0  0  0  0  0  0  0  0  0  0  0
   57.8990   33.1050   45.3490 C   0  0  0  0  0  0  0  0  0  0  0  0
   56.8130   33.7340   45.2090 O   0  0  0  0  0  0  0  0  0  0  0  0
   58.7980   32.9070   44.1530 C   0  0  0  0  0  0  0  0  0  0  0  0
   58.1570   32.0110   43.0840 C   0  0  0  0  0  0  0  0  0  0  0  0
   57.4750   30.8320   43.7240 C   0  0  0  0  0  0  0  0  0  0  0  0
   58.2330   29.7780   44.2590 C   0  0  0  0  0  0  0  0  0  0  0  0
   57.5990   28.7010   44.8860 C   0  0  0  0  0  0  0  0  0  0  0  0
   56.2050   28.6730   44.9930 C   0  0  0  0  0  0  0  0  0  0  0  0
   55.5770   27.6040   45.6190 O   0  0  0  0  0  0  0  0  0  0  0  0
   55.4440   29.7240   44.4730 C   0  0  0  0  0  0  0  0  0  0  0  0
   56.0750   30.8030   43.8450 C   0  0  0  0  0  0  0  0  0  0  0  0
   59.2150   31.4610   46.7650 C   0  0  0  0  0  0  0  0  0  0  0  0
   58.8340   30.5160   47.9100 C   0  0  0  0  0  0  0  0  0  0  0  0
   57.5070   30.6170   51.3070 C   0  0  0  0  0  0  0  0  0  0  0  0
   52.9243   30.1205   54.6517 H   0  0  0  0  0  0  0  0  0  0  0  0
   50.9801   31.5382   53.9868 H   0  0  0  0  0  0  0  0  0  0  0  0
   52.7447   32.1353   50.0820 H   0  0  0  0  0  0  0  0  0  0  0  0
   54.6940   30.7247   50.7446 H   0  0  0  0  0  0  0  0  0  0  0  0
   58.7372   28.6908   53.8546 H   0  0  0  0  0  0  0  0  0  0  0  0
   60.5939   29.7582   50.1033 H   0  0  0  0  0  0  0  0  0  0  0  0
   57.7506   33.0076   49.9891 H   0  0  0  0  0  0  0  0  0  0  0  0
   59.3261   33.2033   49.1260 H   0  0  0  0  0  0  0  0  0  0  0  0
   56.5646   32.7621   47.9005 H   0  0  0  0  0  0  0  0  0  0  0  0
   57.6418   34.2134   47.7585 H   0  0  0  0  0  0  0  0  0  0  0  0
   59.0154   33.8890   43.7075 H   0  0  0  0  0  0  0  0  0  0  0  0
   59.7163   32.4114   44.5008 H   0  0  0  0  0  0  0  0  0  0  0  0
   57.4157   32.5952   42.5191 H   0  0  0  0  0  0  0  0  0  0  0  0
   58.9442   31.6434   42.4093 H   0  0  0  0  0  0  0  0  0  0  0  0
   59.3303   29.7997   44.1845 H   0  0  0  0  0  0  0  0  0  0  0  0
   58.1978   27.8743   45.2958 H   0  0  0  0  0  0  0  0  0  0  0  0
   54.3475   29.7025   44.5578 H   0  0  0  0  0  0  0  0  0  0  0  0
   55.4732   31.6320   43.4443 H   0  0  0  0  0  0  0  0  0  0  0  0
   59.2486   30.8926   45.8238 H   0  0  0  0  0  0  0  0  0  0  0  0
   60.2002   31.8996   46.9816 H   0  0  0  0  0  0  0  0  0  0  0  0
   57.9358   29.9502   47.6216 H   0  0  0  0  0  0  0  0  0  0  0  0
   59.6825   29.8406   48.0944 H   0  0  0  0  0  0  0  0  0  0  0  0
   56.6171   31.2040   51.0357 H   0  0  0  0  0  0  0  0  0  0  0  0
  1  2  2  0
  2  3  1  0
  3  4  1  0
  4  5  2  0
  5  6  1  0
  6  7  2  0
  7  8  1  0
  7  9  1  0
  9 10  2  0
  2 11  1  0
 11 12  2  0
 12 13  1  0
 13 14  1  0
 13 15  2  0
 15 16  1  0
 16 17  1  0
 17 18  1  0
 18 19  1  0
 19 20  1  0
 20 21  1  0
 21 22  2  0
 21 23  1  0
 23 24  1  0
 24 25  1  0
 25 26  2  0
 26 27  1  0
 27 28  2  0
 28 29  1  0
 28 30  1  0
 30 31  2  0
 20 32  1  0
 32 33  1  0
 16 34  2  0
 10  4  1  0
 34 11  1  0
 33 17  1  0
 31 25  1  0
  5 35  1  0
  6 36  1  0
  9 37  1  0
 10 38  1  0
 12 39  1  0
 15 40  1  0
 18 41  1  0
 18 42  1  0
 19 43  1  0
 19 44  1  0
 23 45  1  0
 23 46  1  0
 24 47  1  0
 24 48  1  0
 26 49  1  0
 27 50  1  0
 30 51  1  0
 31 52  1  0
 32 53  1  0
 32 54  1  0
 33 55  1  0
 33 56  1  0
 34 57  1  0
M  CHG  3   3  -1   8  -1  29  -1
M  END
>  <UniqueID>  (8) 
8

>  <SMILES>  (8) 
O=C([N-]c1ccc([O-])cc1)c1cc(F)cc(N2CCN(C(=O)CCc3ccc([O-])cc3)CC2)c1

>  <Energy>  (8) 
69.52731992282544

>  <Genealogy>  (8) 
O=C([N-]c1ccc([O-])cc1)c1cc(F)cc(N2CCN(C(=O)CCc3ccc([O-])cc3)CC2)c1 (protonated)
O=C([N-]c1ccc([O-])cc1)c1cc(F)cc(N2CCN(C(=O)CCc3ccc([O-])cc3)CC2)c1 (3D coordinates assigned)
O=C([N-]c1ccc([O-])cc1)c1cc(F)cc(N2CCN(C(=O)CCc3ccc([O-])cc3)CC2)c1 (nonaromatic ring conformer: 69.52731992282544 kcal/mol)

>  <smiles>  (8) 
O=C(Nc1ccc(O)cc1)c1cc(F)cc(N2CCN(C(=O)CCc3ccc(O)cc3)CC2)c1

>  <score_type>  (8) 
oracle

>  <origin>  (8) 
adg

>  <m_score__min__energy>  (8) 
-17.359999999999999

>  <m_primary>  (8) 
energy

$$$$
8:0
     RDKit          3D

 46 48  0  0  0  0  0  0  0  0999 V2000
   58.6050   34.1860   45.1190 C   0  0  0  0  0  0  0  0  0  0  0  0
   58.7880   32.7010   45.2360 C   0  0  0  0  0  0  0  0  0  0  0  0
   59.7110   32.2660   45.9770 O   0  0  0  0  0  0  0  0  0  0  0  0
   57.9210   31.7410   44.5000 C   0  0  0  0  0  0  0  0  0  0  0  0
   57.7660   31.8590   43.1060 C   0  0  0  0  0  0  0  0  0  0  0  0
   56.9570   30.9630   42.4040 C   0  0  0  0  0  0  0  0  0  0  0  0
   56.2930   29.9370   43.0770 C   0  0  0  0  0  0  0  0  0  0  0  0
   56.4430   29.7930   44.4670 C   0  0  0  0  0  0  0  0  0  0  0  0
   55.7480   28.7760   45.2060 N   0  0  0  0  0  0  0  0  0  0  0  0
   56.2770   27.5100   45.6210 C   0  0  0  0  0  0  0  0  0  0  0  0
   55.5170   26.6030   46.0590 O   0  0  0  0  0  0  0  0  0  0  0  0
   57.7320   27.2310   45.4380 C   0  0  0  0  0  0  0  0  0  0  0  0
   58.3230   26.1800   46.8050 S   0  0  0  0  0  0  0  0  0  0  0  0
   59.0120   27.5580   47.7140 C   0  0  0  0  0  0  0  0  0  0  0  0
   60.0090   27.3480   48.6100 N   0  0  0  0  0  0  0  0  0  0  0  0
   60.5490   28.3760   49.3140 C   0  0  0  0  0  0  0  0  0  0  0  0
   61.4720   28.1390   50.1370 O   0  0  0  0  0  0  0  0  0  0  0  0
   60.0800   29.6890   49.1170 C   0  0  0  0  0  0  0  0  0  0  0  0
   60.6390   30.8490   49.9090 C   0  0  0  0  0  0  0  0  0  0  0  0
   61.3170   31.8380   48.9960 C   0  0  0  0  0  0  0  0  0  0  0  0
   62.4730   31.4710   48.2860 C   0  0  0  0  0  0  0  0  0  0  0  0
   63.0840   32.3810   47.4170 C   0  0  0  0  0  0  0  0  0  0  0  0
   62.5470   33.6600   47.2480 C   0  0  0  0  0  0  0  0  0  0  0  0
   61.3940   34.0290   47.9460 C   0  0  0  0  0  0  0  0  0  0  0  0
   60.7770   33.1230   48.8140 C   0  0  0  0  0  0  0  0  0  0  0  0
   59.0420   29.8770   48.1860 C   0  0  0  0  0  0  0  0  0  0  0  0
   58.5230   31.1470   47.9490 O   0  0  0  0  0  0  0  0  0  0  0  0
   58.5380   28.8130   47.5070 N   0  0  0  0  0  0  0  0  0  0  0  0
   57.2410   30.7050   45.1710 C   0  0  0  0  0  0  0  0  0  0  0  0
   58.5504   34.6290   46.1243 H   0  0  0  0  0  0  0  0  0  0  0  0
   59.4566   34.6185   44.5734 H   0  0  0  0  0  0  0  0  0  0  0  0
   57.6738   34.3988   44.5734 H   0  0  0  0  0  0  0  0  0  0  0  0
   58.2862   32.6634   42.5653 H   0  0  0  0  0  0  0  0  0  0  0  0
   56.8427   31.0667   41.3149 H   0  0  0  0  0  0  0  0  0  0  0  0
   55.6510   29.2396   42.5188 H   0  0  0  0  0  0  0  0  0  0  0  0
   57.8886   26.7113   44.4812 H   0  0  0  0  0  0  0  0  0  0  0  0
   58.2905   28.1787   45.4350 H   0  0  0  0  0  0  0  0  0  0  0  0
   59.8182   31.3522   50.4411 H   0  0  0  0  0  0  0  0  0  0  0  0
   61.3788   30.4643   50.6265 H   0  0  0  0  0  0  0  0  0  0  0  0
   62.8987   30.4648   48.4141 H   0  0  0  0  0  0  0  0  0  0  0  0
   63.9897   32.0890   46.8651 H   0  0  0  0  0  0  0  0  0  0  0  0
   63.0311   34.3751   46.5667 H   0  0  0  0  0  0  0  0  0  0  0  0
   60.9705   35.0353   47.8121 H   0  0  0  0  0  0  0  0  0  0  0  0
   59.8661   33.4167   49.3562 H   0  0  0  0  0  0  0  0  0  0  0  0
   59.0420   31.8270   47.4050 H   0  0  0  0  0  0  0  0  0  0  0  0
   57.3379   30.6108   46.2627 H   0  0  0  0  0  0  0  0  0  0  0  0
  1  2  1  0
  2  3  2  0
  2  4  1  0
  4  5  2  0
  5  6  1  0
  6  7  2  0
  7  8  1  0
  8  9  1  0
  9 10  1  0
 10 11  2  0
 10 12  1  0
 12 13  1  0
 13 14  1  0
 14 15  2  0
 15 16  1  0
 16 17  2  0
 16 18  1  0
 18 19  1  0
 19 20  1  0
 20 21  2  0
 21 22  1  0
 22 23  2  0
 23 24  1  0
 24 25  2  0
 18 26  2  0
 26 27  1  0
 26 28  1  0
  8 29  2  0
 29  4  1  0
 28 14  1  0
 25 20  1  0
  1 30  1  0
  1 31  1  0
  1 32  1  0
  5 33  1  0
  6 34  1  0
  7 35  1  0
 12 36  1  0
 12 37  1  0
 19 38  1  0
 19 39  1  0
 21 40  1  0
 22 41  1  0
 23 42  1  0
 24 43  1  0
 25 44  1  0
 27 45  1  0
 29 46  1  0
M  CHG  2   9  -1  28  -1
M  END
>  <UniqueID>  (9) 
9

>  <SMILES>  (9) 
CC(=O)c1cccc([N-]C(=O)CSc2nc(=O)c(Cc3ccccc3)c(O)[n-]2)c1

>  <Energy>  (9) 
47.89689326216323

>  <Genealogy>  (9) 
CC(=O)c1cccc([N-]C(=O)CSc2nc(=O)c(Cc3ccccc3)c(O)[n-]2)c1 (protonated)
CC(=O)c1cccc([N-]C(=O)CSc2nc(=O)c(Cc3ccccc3)c(O)[n-]2)c1 (3D coordinates assigned)
CC(=O)c1cccc([N-]C(=O)CSc2nc(=O)c(Cc3ccccc3)c(O)[n-]2)c1 (optimized conformer: 47.89689326216323 kcal/mol)

>  <smiles>  (9) 
CC(=O)c1cccc(NC(=O)CSc2nc(=O)c(Cc3ccccc3)c(O)[nH]2)c1

>  <score_type>  (9) 
oracle

>  <origin>  (9) 
adg

>  <m_score__min__energy>  (9) 
-11.75

>  <m_primary>  (9) 
energy

$$$$
9:0
     RDKit          3D

 44 46  0  0  0  0  0  0  0  0999 V2000
   60.2620   29.1770   44.9200 C   0  0  0  0  0  0  0  0  0  0  0  0
   59.8250   29.0720   46.1850 C   0  0  0  0  0  0  0  0  0  0  0  0
   58.6640   28.4110   46.6250 C   0  0  0  0  0  0  0  0  0  0  0  0
   57.7900   27.6170   45.9750 C   0  0  0  0  0  0  0  0  0  0  0  0
   57.2300   26.3570   46.4790 C   0  0  0  0  0  0  0  0  0  0  0  0
   57.9790   25.3340   46.9220 N   0  0  0  0  0  0  0  0  0  0  0  0
   57.0710   24.3620   47.1610 C   0  0  0  0  0  0  0  0  0  0  0  0
   57.3900   23.2310   47.6100 O   0  0  0  0  0  0  0  0  0  0  0  0
   55.7940   24.6950   46.8690 N   0  0  0  0  0  0  0  0  0  0  0  0
   55.9140   25.9560   46.4240 C   0  0  0  0  0  0  0  0  0  0  0  0
   54.8480   26.7150   45.9580 O   0  0  0  0  0  0  0  0  0  0  0  0
   58.5290   28.7220   47.9670 C   0  0  0  0  0  0  0  0  0  0  0  0
   59.6110   29.5010   48.3120 C   0  0  0  0  0  0  0  0  0  0  0  0
   59.8760   30.0090   49.6970 C   0  0  0  0  0  0  0  0  0  0  0  0
   60.4080   29.7090   47.2370 N   0  0  0  0  0  0  0  0  0  0  0  0
   61.6130   30.5570   47.2120 C   0  0  0  0  0  0  0  0  0  0  0  0
   61.2800   31.9760   46.7480 C   0  0  0  0  0  0  0  0  0  0  0  0
   60.9250   32.8100   47.8970 N   0  0  0  0  0  0  0  0  0  0  0  0
   59.4560   33.6900   47.5990 S   0  0  0  0  0  0  0  0  0  0  0  0
   58.4860   33.4270   48.7150 O   0  0  0  0  0  0  0  0  0  0  0  0
   59.7430   35.1650   47.5500 O   0  0  0  0  0  0  0  0  0  0  0  0
   58.7490   33.1510   46.0780 C   0  0  0  0  0  0  0  0  0  0  0  0
   59.0770   33.7880   44.8720 C   0  0  0  0  0  0  0  0  0  0  0  0
   58.5310   33.3350   43.6670 C   0  0  0  0  0  0  0  0  0  0  0  0
   57.6530   32.2480   43.6610 C   0  0  0  0  0  0  0  0  0  0  0  0
   57.3250   31.6030   44.8610 C   0  0  0  0  0  0  0  0  0  0  0  0
   56.4650   30.5070   44.8670 O   0  0  0  0  0  0  0  0  0  0  0  0
   57.8750   32.0560   46.0670 C   0  0  0  0  0  0  0  0  0  0  0  0
   61.1914   29.7238   44.7028 H   0  0  0  0  0  0  0  0  0  0  0  0
   59.6907   28.7162   44.1007 H   0  0  0  0  0  0  0  0  0  0  0  0
   57.4667   27.9430   44.9754 H   0  0  0  0  0  0  0  0  0  0  0  0
   57.7118   28.4065   48.6323 H   0  0  0  0  0  0  0  0  0  0  0  0
   59.4976   29.2836   50.4323 H   0  0  0  0  0  0  0  0  0  0  0  0
   60.9588   30.1427   49.8376 H   0  0  0  0  0  0  0  0  0  0  0  0
   59.3661   30.9735   49.8376 H   0  0  0  0  0  0  0  0  0  0  0  0
   62.0417   30.6016   48.2241 H   0  0  0  0  0  0  0  0  0  0  0  0
   62.3331   30.1189   46.5052 H   0  0  0  0  0  0  0  0  0  0  0  0
   62.1556   32.4081   46.2414 H   0  0  0  0  0  0  0  0  0  0  0  0
   60.4275   31.9373   46.0539 H   0  0  0  0  0  0  0  0  0  0  0  0
   59.7654   34.6460   44.8742 H   0  0  0  0  0  0  0  0  0  0  0  0
   58.7929   33.8349   42.7228 H   0  0  0  0  0  0  0  0  0  0  0  0
   57.2187   31.8981   42.7129 H   0  0  0  0  0  0  0  0  0  0  0  0
   56.1930   30.0530   45.7320 H   0  0  0  0  0  0  0  0  0  0  0  0
   57.6196   31.5498   47.0096 H   0  0  0  0  0  0  0  0  0  0  0  0
  1  2  2  0
  2  3  1  0
  3  4  2  3
  4  5  1  0
  5  6  1  0
  6  7  1  0
  7  8  2  0
  7  9  1  0
  9 10  1  0
 10 11  1  0
  3 12  1  0
 12 13  2  0
 13 14  1  0
 13 15  1  0
 15 16  1  0
 16 17  1  0
 17 18  1  0
 18 19  1  0
 19 20  2  0
 19 21  2  0
 19 22  1  0
 22 23  2  0
 23 24  1  0
 24 25  2  0
 25 26  1  0
 26 27  1  0
 26 28  2  0
 15  2  1  0
 28 22  1  0
 10  5  2  0
  1 29  1  0
  1 30  1  0
  4 31  1  0
 12 32  1  0
 14 33  1  0
 14 34  1  0
 14 35  1  0
 16 36  1  0
 16 37  1  0
 17 38  1  0
 17 39  1  0
 23 40  1  0
 24 41  1  0
 25 42  1  0
 27 43  1  0
 28 44  1  0
M  CHG  4   6  -1   9  -1  11  -1  18  -1
M  END
>  <UniqueID>  (10) 
10

>  <SMILES>  (10) 
C=c1c(=Cc2[n-]c(=O)[n-]c2[O-])cc(C)n1CC[N-]S(=O)(=O)c1cccc(O)c1

>  <Energy>  (10) 
106.2149096444938

>  <Genealogy>  (10) 
C=c1c(=Cc2[n-]c(=O)[n-]c2[O-])cc(C)n1CC[N-]S(=O)(=O)c1cccc(O)c1 (protonated)
C=c1c(=Cc2[n-]c(=O)[n-]c2[O-])cc(C)n1CC[N-]S(=O)(=O)c1cccc(O)c1 (3D coordinates assigned)
C=c1c(=Cc2[n-]c(=O)[n-]c2[O-])cc(C)n1CC[N-]S(=O)(=O)c1cccc(O)c1 (optimized conformer: 106.2149096444938 kcal/mol)

>  <smiles>  (10) 
C=c1c(=Cc2[nH]c(=O)[nH]c2O)cc(C)n1CCNS(=O)(=O)c1cccc(O)c1

>  <score_type>  (10) 
oracle

>  <origin>  (10) 
adg

>  <m_score__min__energy>  (10) 
-16.969999999999999

>  <m_primary>  (10) 
energy

$$$$
10:0
     RDKit          3D

 38 40  0  0  0  0  0  0  0  0999 V2000
   60.1859   35.8641   46.0442 H   0  0  0  0  0  0  0  0  0  0  0  0
   59.6720   34.8920   46.0120 C   0  0  0  0  0  0  0  0  0  0  0  0
   58.2120   34.5740   45.2410 S   0  0  0  0  0  0  0  0  0  0  0  0
   58.2050   32.9500   45.6890 C   0  0  0  0  0  0  0  0  0  0  0  0
   57.2990   32.0650   45.3930 N   0  0  0  0  0  0  0  0  0  0  0  0
   57.1820   31.3030   44.1800 C   0  0  0  0  0  0  0  0  0  0  0  0
   57.8710   31.5780   43.1610 O   0  0  0  0  0  0  0  0  0  0  0  0
   56.2110   30.1670   44.1250 C   0  0  0  0  0  0  0  0  0  0  0  0
   55.8698   29.9340   45.1445 H   0  0  0  0  0  0  0  0  0  0  0  0
   55.3586   30.4607   43.4949 H   0  0  0  0  0  0  0  0  0  0  0  0
   56.8370   28.9790   43.5450 N   0  0  0  0  0  0  0  0  0  0  0  0
   57.3880   27.8910   44.7890 S   0  0  0  0  0  0  0  0  0  0  0  0
   57.9840   26.6710   44.1460 O   0  0  0  0  0  0  0  0  0  0  0  0
   56.2230   27.4690   45.6410 O   0  0  0  0  0  0  0  0  0  0  0  0
   58.6200   28.6700   45.7780 C   0  0  0  0  0  0  0  0  0  0  0  0
   58.4090   28.8220   47.1560 C   0  0  0  0  0  0  0  0  0  0  0  0
   57.4755   28.4596   47.6112 H   0  0  0  0  0  0  0  0  0  0  0  0
   59.3820   29.4330   47.9530 C   0  0  0  0  0  0  0  0  0  0  0  0
   59.2135   29.5495   49.0338 H   0  0  0  0  0  0  0  0  0  0  0  0
   60.5690   29.8960   47.3770 C   0  0  0  0  0  0  0  0  0  0  0  0
   61.3338   30.3767   48.0046 H   0  0  0  0  0  0  0  0  0  0  0  0
   60.7840   29.7480   46.0030 C   0  0  0  0  0  0  0  0  0  0  0  0
   61.7184   30.1117   45.5506 H   0  0  0  0  0  0  0  0  0  0  0  0
   59.8120   29.1380   45.2040 C   0  0  0  0  0  0  0  0  0  0  0  0
   59.9821   29.0247   44.1231 H   0  0  0  0  0  0  0  0  0  0  0  0
   59.2980   32.6360   46.4150 N   0  0  0  0  0  0  0  0  0  0  0  0
   60.1210   33.7060   46.6060 C   0  0  0  0  0  0  0  0  0  0  0  0
   61.3870   33.5790   47.3760 C   0  0  0  0  0  0  0  0  0  0  0  0
   61.4250   33.9390   48.7340 C   0  0  0  0  0  0  0  0  0  0  0  0
   60.5153   34.3136   49.2261 H   0  0  0  0  0  0  0  0  0  0  0  0
   62.6090   33.8240   49.4610 C   0  0  0  0  0  0  0  0  0  0  0  0
   62.6368   34.1050   50.5242 H   0  0  0  0  0  0  0  0  0  0  0  0
   63.7570   33.3500   48.8290 C   0  0  0  0  0  0  0  0  0  0  0  0
   64.6955   33.2542   49.3948 H   0  0  0  0  0  0  0  0  0  0  0  0
   63.7190   33.0060   47.5150 N   0  0  0  0  0  0  0  0  0  0  0  0
   64.5900   32.6570   47.0550 H   0  0  0  0  0  0  0  0  0  0  0  0
   62.5760   33.1100   46.7820 C   0  0  0  0  0  0  0  0  0  0  0  0
   62.5807   32.8261   45.7193 H   0  0  0  0  0  0  0  0  0  0  0  0
  1  2  1  0
  2  3  1  0
  3  4  1  0
  4  5  2  0
  5  6  1  0
  6  7  2  0
  6  8  1  0
  8  9  1  0
  8 10  1  0
  8 11  1  0
 11 12  1  0
 12 13  2  0
 12 14  2  0
 12 15  1  0
 15 16  2  0
 16 17  1  0
 16 18  1  0
 18 19  1  0
 18 20  2  0
 20 21  1  0
 20 22  1  0
 22 23  1  0
 22 24  2  0
 24 25  1  0
  4 26  1  0
 26 27  1  0
 27 28  1  0
 28 29  2  0
 29 30  1  0
 29 31  1  0
 31 32  1  0
 31 33  2  0
 33 34  1  0
 33 35  1  0
 35 36  1  0
 35 37  2  0
 37 38  1  0
 27  2  2  0
 37 28  1  0
 24 15  1  0
M  CHG  3  11  -1  26  -1  35   1
M  END
>  <UniqueID>  (11) 
11

>  <SMILES>  (11) 
O=C(C[N-]S(=O)(=O)c1ccccc1)/N=c1/[n-]c(-c2ccc[nH+]c2)cs1

>  <Energy>  (11) 
74.56452876673025

>  <Genealogy>  (11) 
O=C(C[N-]S(=O)(=O)c1ccccc1)N=c1[n-]c(-c2ccc[nH+]c2)cs1 (protonated)
O=C(C[N-]S(=O)(=O)c1ccccc1)/N=c1/[n-]c(-c2ccc[nH+]c2)cs1 (cis-trans isomerization)
O=C(C[N-]S(=O)(=O)c1ccccc1)/N=c1/[n-]c(-c2ccc[nH+]c2)cs1 (3D coordinates assigned)
O=C(C[N-]S(=O)(=O)c1ccccc1)/N=c1/[n-]c(-c2ccc[nH+]c2)cs1 (optimized conformer: 74.56452876673025 kcal/mol)

>  <smiles>  (11) 
O=C(CNS(=O)(=O)c1ccccc1)N=c1[nH]c(-c2cccnc2)cs1

>  <score_type>  (11) 
oracle

>  <origin>  (11) 
adg

>  <m_score__min__energy>  (11) 
-10.9

>  <m_primary>  (11) 
energy

$$$$
11:0
     RDKit          3D

 37 39  0  0  0  0  0  0  0  0999 V2000
   58.6970   27.8120   47.2320 C   0  0  0  0  0  0  0  0  0  0  0  0
   58.3960   27.3610   46.0040 C   0  0  0  0  0  0  0  0  0  0  0  0
   58.6780   27.9900   44.7790 C   0  0  0  0  0  0  0  0  0  0  0  0
   59.1450   29.2240   44.5020 C   0  0  0  0  0  0  0  0  0  0  0  0
   58.5330   30.4930   44.9440 C   0  0  0  0  0  0  0  0  0  0  0  0
   57.2240   30.8390   44.5590 C   0  0  0  0  0  0  0  0  0  0  0  0
   56.4720   30.0350   43.7020 O   0  0  0  0  0  0  0  0  0  0  0  0
   56.6720   31.9930   45.0210 N   0  0  0  0  0  0  0  0  0  0  0  0
   57.3530   32.8160   45.8570 C   0  0  0  0  0  0  0  0  0  0  0  0
   56.8180   33.8800   46.2650 O   0  0  0  0  0  0  0  0  0  0  0  0
   58.6080   32.4920   46.2580 N   0  0  0  0  0  0  0  0  0  0  0  0
   59.2090   31.3520   45.8310 C   0  0  0  0  0  0  0  0  0  0  0  0
   60.3670   31.0740   46.2410 O   0  0  0  0  0  0  0  0  0  0  0  0
   58.3620   27.0740   43.7930 C   0  0  0  0  0  0  0  0  0  0  0  0
   57.8550   25.9590   44.4250 C   0  0  0  0  0  0  0  0  0  0  0  0
   57.4050   24.7170   43.7140 C   0  0  0  0  0  0  0  0  0  0  0  0
   57.8570   26.1330   45.7690 N   0  0  0  0  0  0  0  0  0  0  0  0
   57.4050   25.1510   46.7700 C   0  0  0  0  0  0  0  0  0  0  0  0
   56.0820   24.5270   46.3720 C   0  0  0  0  0  0  0  0  0  0  0  0
   54.9910   25.3240   45.9770 C   0  0  0  0  0  0  0  0  0  0  0  0
   55.0960   26.7090   45.9280 O   0  0  0  0  0  0  0  0  0  0  0  0
   53.8110   24.7420   45.6370 N   0  0  0  0  0  0  0  0  0  0  0  0
   53.6540   23.3960   45.6820 C   0  0  0  0  0  0  0  0  0  0  0  0
   52.5520   22.8810   45.3580 O   0  0  0  0  0  0  0  0  0  0  0  0
   54.6810   22.6050   46.0780 N   0  0  0  0  0  0  0  0  0  0  0  0
   55.8810   23.1330   46.4300 C   0  0  0  0  0  0  0  0  0  0  0  0
   56.8030   22.3630   46.8070 O   0  0  0  0  0  0  0  0  0  0  0  0
   58.4200   27.2217   48.1179 H   0  0  0  0  0  0  0  0  0  0  0  0
   59.2207   28.7718   47.3524 H   0  0  0  0  0  0  0  0  0  0  0  0
   60.0599   29.2912   43.8950 H   0  0  0  0  0  0  0  0  0  0  0  0
   56.4780   29.0240   43.7550 H   0  0  0  0  0  0  0  0  0  0  0  0
   58.4908   27.2094   42.7090 H   0  0  0  0  0  0  0  0  0  0  0  0
   57.1276   23.9513   44.4534 H   0  0  0  0  0  0  0  0  0  0  0  0
   56.5343   24.9504   43.0836 H   0  0  0  0  0  0  0  0  0  0  0  0
   58.2232   24.3385   43.0836 H   0  0  0  0  0  0  0  0  0  0  0  0
   58.1620   24.3581   46.8612 H   0  0  0  0  0  0  0  0  0  0  0  0
   57.2685   25.6714   47.7295 H   0  0  0  0  0  0  0  0  0  0  0  0
  1  2  2  0
  2  3  1  0
  3  4  2  3
  4  5  1  0
  5  6  2  0
  6  7  1  0
  6  8  1  0
  8  9  1  0
  9 10  2  0
  9 11  1  0
 11 12  1  0
 12 13  2  0
  3 14  1  0
 14 15  2  0
 15 16  1  0
 15 17  1  0
 17 18  1  0
 18 19  1  0
 19 20  2  0
 20 21  1  0
 20 22  1  0
 22 23  1  0
 23 24  2  0
 23 25  1  0
 25 26  1  0
 26 27  2  0
 17  2  1  0
 26 19  1  0
 12  5  1  0
  1 28  1  0
  1 29  1  0
  4 30  1  0
  7 31  1  0
 14 32  1  0
 16 33  1  0
 16 34  1  0
 16 35  1  0
 18 36  1  0
 18 37  1  0
M  CHG  5   8  -1  11  -1  21  -1  22  -1  25  -1
M  END
>  <UniqueID>  (12) 
12

>  <SMILES>  (12) 
C=c1c(=Cc2c(O)[n-]c(=O)[n-]c2=O)cc(C)n1Cc1c([O-])[n-]c(=O)[n-]c1=O

>  <Energy>  (12) 
85.91183342647808

>  <Genealogy>  (12) 
C=c1c(=Cc2c(O)[n-]c(=O)[n-]c2=O)cc(C)n1Cc1c([O-])[n-]c(=O)[n-]c1=O (protonated)
C=c1c(=Cc2c(O)[n-]c(=O)[n-]c2=O)cc(C)n1Cc1c([O-])[n-]c(=O)[n-]c1=O (3D coordinates assigned)
C=c1c(=Cc2c(O)[n-]c(=O)[n-]c2=O)cc(C)n1Cc1c([O-])[n-]c(=O)[n-]c1=O (optimized conformer: 85.91183342647808 kcal/mol)

>  <smiles>  (12) 
C=c1c(=Cc2c(O)[nH]c(=O)[nH]c2=O)cc(C)n1Cc1c(O)[nH]c(=O)[nH]c1=O

>  <score_type>  (12) 
oracle

>  <origin>  (12) 
adg

>  <m_score__min__energy>  (12) 
-16.899999999999999

>  <m_primary>  (12) 
energy

$$$$
12:0
     RDKit          3D

 54 57  0  0  0  0  0  0  0  0999 V2000
   58.6220   28.9780   47.1570 C   0  0  0  0  0  0  0  0  0  0  0  0
   58.3790   29.1260   45.8450 C   0  0  0  0  0  0  0  0  0  0  0  0
   58.0270   28.1200   44.9310 C   0  0  0  0  0  0  0  0  0  0  0  0
   58.0610   26.7790   45.0370 C   0  0  0  0  0  0  0  0  0  0  0  0
   57.4940   25.9940   46.1470 C   0  0  0  0  0  0  0  0  0  0  0  0
   58.1790   25.0990   46.8830 N   0  0  0  0  0  0  0  0  0  0  0  0
   57.2270   24.5460   47.6660 C   0  0  0  0  0  0  0  0  0  0  0  0
   57.4820   23.6580   48.5200 O   0  0  0  0  0  0  0  0  0  0  0  0
   55.9780   25.0130   47.4540 N   0  0  0  0  0  0  0  0  0  0  0  0
   56.1640   25.9200   46.4800 C   0  0  0  0  0  0  0  0  0  0  0  0
   55.1390   26.6600   45.9000 O   0  0  0  0  0  0  0  0  0  0  0  0
   57.6100   28.7710   43.7800 C   0  0  0  0  0  0  0  0  0  0  0  0
   57.7920   30.1210   43.9960 C   0  0  0  0  0  0  0  0  0  0  0  0
   57.4780   31.1930   42.9960 C   0  0  0  0  0  0  0  0  0  0  0  0
   58.2610   30.3400   45.2450 N   0  0  0  0  0  0  0  0  0  0  0  0
   58.5140   31.6280   45.8330 C   0  0  0  0  0  0  0  0  0  0  0  0
   59.7470   31.8900   46.4480 C   0  0  0  0  0  0  0  0  0  0  0  0
   60.0050   33.1440   47.0290 C   0  0  0  0  0  0  0  0  0  0  0  0
   61.2640   33.4010   47.6820 N   0  0  0  0  0  0  0  0  0  0  0  0
   62.5240   33.2000   46.9560 C   0  0  0  0  0  0  0  0  0  0  0  0
   63.7030   33.1090   47.9320 C   0  0  0  0  0  0  0  0  0  0  0  0
   63.2960   32.3300   49.1170 N   0  0  0  0  0  0  0  0  0  0  0  0
   64.4760   31.9840   49.9370 C   0  0  0  0  0  0  0  0  0  0  0  0
   65.5780   33.0330   49.7950 C   0  0  0  0  0  0  0  0  0  0  0  0
   62.2660   33.0460   49.9160 C   0  0  0  0  0  0  0  0  0  0  0  0
   61.3150   33.9060   49.0570 C   0  0  0  0  0  0  0  0  0  0  0  0
   59.0060   34.1320   46.9940 C   0  0  0  0  0  0  0  0  0  0  0  0
   57.7780   33.8740   46.3810 C   0  0  0  0  0  0  0  0  0  0  0  0
   57.5290   32.6270   45.8010 C   0  0  0  0  0  0  0  0  0  0  0  0
   56.3250   32.3850   45.2260 F   0  0  0  0  0  0  0  0  0  0  0  0
   58.8906   29.8519   47.7686 H   0  0  0  0  0  0  0  0  0  0  0  0
   58.5525   27.9828   47.6204 H   0  0  0  0  0  0  0  0  0  0  0  0
   58.5537   26.2220   44.2264 H   0  0  0  0  0  0  0  0  0  0  0  0
   54.7670   27.4790   46.3660 H   0  0  0  0  0  0  0  0  0  0  0  0
   57.2106   28.3009   42.8692 H   0  0  0  0  0  0  0  0  0  0  0  0
   57.2068   32.1190   43.5241 H   0  0  0  0  0  0  0  0  0  0  0  0
   58.3604   31.3757   42.3651 H   0  0  0  0  0  0  0  0  0  0  0  0
   56.6365   30.8708   42.3651 H   0  0  0  0  0  0  0  0  0  0  0  0
   60.5193   31.1072   46.4760 H   0  0  0  0  0  0  0  0  0  0  0  0
   62.4620   32.2671   46.3765 H   0  0  0  0  0  0  0  0  0  0  0  0
   62.6859   34.0561   46.2846 H   0  0  0  0  0  0  0  0  0  0  0  0
   64.5509   32.6114   47.4386 H   0  0  0  0  0  0  0  0  0  0  0  0
   64.0040   34.1207   48.2417 H   0  0  0  0  0  0  0  0  0  0  0  0
   64.1732   31.9231   50.9928 H   0  0  0  0  0  0  0  0  0  0  0  0
   64.8696   31.0177   49.5885 H   0  0  0  0  0  0  0  0  0  0  0  0
   65.9122   33.3512   50.7935 H   0  0  0  0  0  0  0  0  0  0  0  0
   66.4268   32.6010   49.2446 H   0  0  0  0  0  0  0  0  0  0  0  0
   65.1883   33.9020   49.2446 H   0  0  0  0  0  0  0  0  0  0  0  0
   61.6670   32.3014   50.4607 H   0  0  0  0  0  0  0  0  0  0  0  0
   62.7975   33.7284   50.5956 H   0  0  0  0  0  0  0  0  0  0  0  0
   60.3052   33.8729   49.4921 H   0  0  0  0  0  0  0  0  0  0  0  0
   61.6886   34.9405   49.0415 H   0  0  0  0  0  0  0  0  0  0  0  0
   59.1925   35.1145   47.4522 H   0  0  0  0  0  0  0  0  0  0  0  0
   57.0039   34.6551   46.3546 H   0  0  0  0  0  0  0  0  0  0  0  0
  1  2  2  0
  2  3  1  0
  3  4  2  3
  4  5  1  0
  5  6  1  0
  6  7  1  0
  7  8  2  0
  7  9  1  0
  9 10  1  0
 10 11  1  0
  3 12  1  0
 12 13  2  0
 13 14  1  0
 13 15  1  0
 15 16  1  0
 16 17  2  0
 17 18  1  0
 18 19  1  0
 19 20  1  0
 20 21  1  0
 21 22  1  0
 22 23  1  0
 23 24  1  0
 22 25  1  0
 25 26  1  0
 18 27  2  0
 27 28  1  0
 28 29  2  0
 29 30  1  0
 15  2  1  0
 29 16  1  0
 10  5  2  0
 26 19  1  0
  1 31  1  0
  1 32  1  0
  4 33  1  0
 11 34  1  0
 12 35  1  0
 14 36  1  0
 14 37  1  0
 14 38  1  0
 17 39  1  0
 20 40  1  0
 20 41  1  0
 21 42  1  0
 21 43  1  0
 23 44  1  0
 23 45  1  0
 24 46  1  0
 24 47  1  0
 24 48  1  0
 25 49  1  0
 25 50  1  0
 26 51  1  0
 26 52  1  0
 27 53  1  0
 28 54  1  0
M  CHG  2   6  -1   9  -1
M  END
>  <UniqueID>  (13) 
13

>  <SMILES>  (13) 
C=c1c(=Cc2[n-]c(=O)[n-]c2O)cc(C)n1-c1cc(N2CCN(CC)CC2)ccc1F

>  <Energy>  (13) 
138.57901188669018

>  <Genealogy>  (13) 
C=c1c(=Cc2[n-]c(=O)[n-]c2O)cc(C)n1-c1cc(N2CCN(CC)CC2)ccc1F (protonated)
C=c1c(=Cc2[n-]c(=O)[n-]c2O)cc(C)n1-c1cc(N2CCN(CC)CC2)ccc1F (3D coordinates assigned)
C=c1c(=Cc2[n-]c(=O)[n-]c2O)cc(C)n1-c1cc(N2CCN(CC)CC2)ccc1F (nonaromatic ring conformer: 138.57901188669018 kcal/mol)

>  <smiles>  (13) 
C=c1c(=Cc2[nH]c(=O)[nH]c2O)cc(C)n1-c1cc(N2CCN(CC)CC2)ccc1F

>  <score_type>  (13) 
oracle

>  <origin>  (13) 
adg

>  <m_score__min__energy>  (13) 
-14.1

>  <m_primary>  (13) 
energy

$$$$
13:0
     RDKit          3D

 45 48  0  0  0  0  0  0  0  0999 V2000
   54.2500   26.7120   46.7640 H   0  0  0  0  0  0  0  0  0  0  0  0
   54.8490   26.3460   46.0330 O   0  0  0  0  0  0  0  0  0  0  0  0
   55.8860   25.4620   46.3170 C   0  0  0  0  0  0  0  0  0  0  0  0
   55.7500   24.4060   47.1350 N   0  0  0  0  0  0  0  0  0  0  0  0
   56.9940   23.8810   47.1540 C   0  0  0  0  0  0  0  0  0  0  0  0
   57.2880   22.8600   47.8290 O   0  0  0  0  0  0  0  0  0  0  0  0
   57.9010   24.5410   46.4030 N   0  0  0  0  0  0  0  0  0  0  0  0
   57.1830   25.5320   45.8490 C   0  0  0  0  0  0  0  0  0  0  0  0
   57.7710   26.5860   45.0090 C   0  0  0  0  0  0  0  0  0  0  0  0
   57.8783   26.3695   43.9359 H   0  0  0  0  0  0  0  0  0  0  0  0
   58.1900   27.7930   45.4360 C   0  0  0  0  0  0  0  0  0  0  0  0
   57.6500   28.9800   44.9700 C   0  0  0  0  0  0  0  0  0  0  0  0
   56.8125   29.0865   44.2649 H   0  0  0  0  0  0  0  0  0  0  0  0
   58.3630   30.0030   45.5590 C   0  0  0  0  0  0  0  0  0  0  0  0
   58.1170   31.4610   45.3120 C   0  0  0  0  0  0  0  0  0  0  0  0
   58.0284   31.9861   46.2745 H   0  0  0  0  0  0  0  0  0  0  0  0
   58.9567   31.8828   44.7401 H   0  0  0  0  0  0  0  0  0  0  0  0
   57.1854   31.5839   44.7401 H   0  0  0  0  0  0  0  0  0  0  0  0
   59.2950   29.5040   46.4020 N   0  0  0  0  0  0  0  0  0  0  0  0
   60.2080   30.2800   47.1990 C   0  0  0  0  0  0  0  0  0  0  0  0
   59.8130   30.8210   48.4260 C   0  0  0  0  0  0  0  0  0  0  0  0
   58.7920   30.6523   48.7990 H   0  0  0  0  0  0  0  0  0  0  0  0
   60.6910   31.5550   49.1570 N   0  0  0  0  0  0  0  0  0  0  0  0
   61.9610   31.7850   48.7190 C   0  0  0  0  0  0  0  0  0  0  0  0
   62.8760   32.5710   49.5130 N   0  0  0  0  0  0  0  0  0  0  0  0
   62.3530   33.5870   50.4360 C   0  0  0  0  0  0  0  0  0  0  0  0
   62.1394   34.5092   49.8757 H   0  0  0  0  0  0  0  0  0  0  0  0
   61.4330   33.2040   50.9018 H   0  0  0  0  0  0  0  0  0  0  0  0
   63.3750   33.8910   51.5360 C   0  0  0  0  0  0  0  0  0  0  0  0
   63.0315   34.7593   52.1174 H   0  0  0  0  0  0  0  0  0  0  0  0
   63.4674   33.0079   52.1852 H   0  0  0  0  0  0  0  0  0  0  0  0
   64.6410   34.1780   50.9790 O   0  0  0  0  0  0  0  0  0  0  0  0
   65.1520   33.0200   50.3500 C   0  0  0  0  0  0  0  0  0  0  0  0
   66.1813   33.2159   50.0152 H   0  0  0  0  0  0  0  0  0  0  0  0
   65.1356   32.1903   51.0720 H   0  0  0  0  0  0  0  0  0  0  0  0
   64.2950   32.6350   49.1400 C   0  0  0  0  0  0  0  0  0  0  0  0
   64.4275   33.3875   48.3487 H   0  0  0  0  0  0  0  0  0  0  0  0
   64.6127   31.6453   48.7800 H   0  0  0  0  0  0  0  0  0  0  0  0
   62.3560   31.2650   47.5250 N   0  0  0  0  0  0  0  0  0  0  0  0
   61.5130   30.5230   46.7620 C   0  0  0  0  0  0  0  0  0  0  0  0
   61.8569   30.1135   45.8007 H   0  0  0  0  0  0  0  0  0  0  0  0
   59.1880   28.1500   46.3600 C   0  0  0  0  0  0  0  0  0  0  0  0
   59.8540   27.3350   47.1920 C   0  0  0  0  0  0  0  0  0  0  0  0
   60.6168   27.7452   47.8701 H   0  0  0  0  0  0  0  0  0  0  0  0
   59.6373   26.2566   47.1960 H   0  0  0  0  0  0  0  0  0  0  0  0
  1  2  1  0
  2  3  1  0
  3  4  1  0
  4  5  1  0
  5  6  2  0
  5  7  1  0
  7  8  1  0
  8  9  1  0
  9 10  1  0
  9 11  2  0
 11 12  1  0
 12 13  1  0
 12 14  2  0
 14 15  1  0
 15 16  1  0
 15 17  1  0
 15 18  1  0
 14 19  1  0
 19 20  1  0
 20 21  2  0
 21 22  1  0
 21 23  1  0
 23 24  2  0
 24 25  1  0
 25 26  1  0
 26 27  1  0
 26 28  1  0
 26 29  1  0
 29 30  1  0
 29 31  1  0
 29 32  1  0
 32 33  1  0
 33 34  1  0
 33 35  1  0
 33 36  1  0
 36 37  1  0
 36 38  1  0
 24 39  1  0
 39 40  2  0
 40 41  1  0
 19 42  1  0
 42 43  2  0
 43 44  1  0
 43 45  1  0
  8  3  2  0
 42 11  1  0
 40 20  1  0
 36 25  1  0
M  CHG  2   4  -1   7  -1
M  END
>  <UniqueID>  (14) 
14

>  <SMILES>  (14) 
C=c1/c(=C\c2[n-]c(=O)[n-]c2O)cc(C)n1-c1cnc(N2CCOCC2)nc1

>  <Energy>  (14) 
126.16321608916883

>  <Genealogy>  (14) 
C=c1c(=Cc2[n-]c(=O)[n-]c2O)cc(C)n1-c1cnc(N2CCOCC2)nc1 (protonated)
C=c1/c(=C\c2[n-]c(=O)[n-]c2O)cc(C)n1-c1cnc(N2CCOCC2)nc1 (cis-trans isomerization)
C=c1/c(=C\c2[n-]c(=O)[n-]c2O)cc(C)n1-c1cnc(N2CCOCC2)nc1 (3D coordinates assigned)
C=c1/c(=C\c2[n-]c(=O)[n-]c2O)cc(C)n1-c1cnc(N2CCOCC2)nc1 (nonaromatic ring conformer: 126.16321608916883 kcal/mol)

>  <smiles>  (14) 
C=c1c(=Cc2[nH]c(=O)[nH]c2O)cc(C)n1-c1cnc(N2CCOCC2)nc1

>  <score_type>  (14) 
oracle

>  <origin>  (14) 
adg

>  <m_score__min__energy>  (14) 
-11.73

>  <m_primary>  (14) 
energy

$$$$
14:0
     RDKit          3D

 41 43  0  0  0  0  0  0  0  0999 V2000
   58.8040   28.8100   48.8450 C   0  0  0  0  0  0  0  0  0  0  0  0
   59.4840   28.4400   47.5540 C   0  0  0  0  0  0  0  0  0  0  0  0
   59.5400   27.1290   47.0620 C   0  0  0  0  0  0  0  0  0  0  0  0
   58.8820   25.9800   47.6080 N   0  0  0  0  0  0  0  0  0  0  0  0
   57.7080   25.3820   47.0290 C   0  0  0  0  0  0  0  0  0  0  0  0
   56.6150   26.1660   46.6080 C   0  0  0  0  0  0  0  0  0  0  0  0
   55.4880   25.5610   46.0440 C   0  0  0  0  0  0  0  0  0  0  0  0
   54.4120   26.3400   45.6380 O   0  0  0  0  0  0  0  0  0  0  0  0
   55.4450   24.1730   45.8840 C   0  0  0  0  0  0  0  0  0  0  0  0
   56.5340   23.3860   46.2820 C   0  0  0  0  0  0  0  0  0  0  0  0
   56.5050   22.0020   46.1210 O   0  0  0  0  0  0  0  0  0  0  0  0
   57.6610   23.9920   46.8480 C   0  0  0  0  0  0  0  0  0  0  0  0
   60.5150   27.0820   45.6930 S   0  0  0  0  0  0  0  0  0  0  0  0
   60.7890   28.7370   45.7350 C   0  0  0  0  0  0  0  0  0  0  0  0
   61.4890   29.3510   44.8850 O   0  0  0  0  0  0  0  0  0  0  0  0
   60.1680   29.3430   46.7790 N   0  0  0  0  0  0  0  0  0  0  0  0
   60.1850   30.8000   46.9780 C   0  0  0  0  0  0  0  0  0  0  0  0
   59.1200   31.4550   46.1340 C   0  0  0  0  0  0  0  0  0  0  0  0
   59.1360   32.8390   45.9150 C   0  0  0  0  0  0  0  0  0  0  0  0
   58.1580   33.4360   45.1170 C   0  0  0  0  0  0  0  0  0  0  0  0
   57.1580   32.6580   44.5290 C   0  0  0  0  0  0  0  0  0  0  0  0
   57.1260   31.2660   44.7330 C   0  0  0  0  0  0  0  0  0  0  0  0
   56.0740   30.4350   44.1020 C   0  0  0  0  0  0  0  0  0  0  0  0
   55.1920   29.6500   44.9010 N   0  0  0  0  0  0  0  0  0  0  0  0
   55.9470   30.4130   42.8470 O   0  0  0  0  0  0  0  0  0  0  0  0
   58.1130   30.6740   45.5410 C   0  0  0  0  0  0  0  0  0  0  0  0
   59.4196   28.4750   49.6928 H   0  0  0  0  0  0  0  0  0  0  0  0
   58.6770   29.9016   48.8928 H   0  0  0  0  0  0  0  0  0  0  0  0
   57.8185   28.3238   48.8928 H   0  0  0  0  0  0  0  0  0  0  0  0
   59.3610   25.4770   48.3890 H   0  0  0  0  0  0  0  0  0  0  0  0
   56.6489   27.2594   46.7238 H   0  0  0  0  0  0  0  0  0  0  0  0
   54.5552   23.6979   45.4451 H   0  0  0  0  0  0  0  0  0  0  0  0
   57.3140   21.4280   46.3280 H   0  0  0  0  0  0  0  0  0  0  0  0
   58.5174   23.3730   47.1536 H   0  0  0  0  0  0  0  0  0  0  0  0
   59.9966   31.0238   48.0384 H   0  0  0  0  0  0  0  0  0  0  0  0
   61.1691   31.1909   46.6800 H   0  0  0  0  0  0  0  0  0  0  0  0
   59.9218   33.4573   46.3734 H   0  0  0  0  0  0  0  0  0  0  0  0
   58.1751   34.5232   44.9508 H   0  0  0  0  0  0  0  0  0  0  0  0
   56.3907   33.1364   43.9026 H   0  0  0  0  0  0  0  0  0  0  0  0
   55.1640   28.6110   44.8090 H   0  0  0  0  0  0  0  0  0  0  0  0
   58.0968   29.5873   45.7109 H   0  0  0  0  0  0  0  0  0  0  0  0
  1  2  1  0
  2  3  2  0
  3  4  1  0
  4  5  1  0
  5  6  2  0
  6  7  1  0
  7  8  1  0
  7  9  2  0
  9 10  1  0
 10 11  1  0
 10 12  2  0
  3 13  1  0
 13 14  1  0
 14 15  2  0
 14 16  1  0
 16 17  1  0
 17 18  1  0
 18 19  2  0
 19 20  1  0
 20 21  2  0
 21 22  1  0
 22 23  1  0
 23 24  1  0
 23 25  2  0
 22 26  2  0
 16  2  1  0
 26 18  1  0
 12  5  1  0
  1 27  1  0
  1 28  1  0
  1 29  1  0
  4 30  1  0
  6 31  1  0
  9 32  1  0
 11 33  1  0
 12 34  1  0
 17 35  1  0
 17 36  1  0
 19 37  1  0
 20 38  1  0
 21 39  1  0
 24 40  1  0
 26 41  1  0
M  CHG  2   8  -1  24  -1
M  END
>  <UniqueID>  (15) 
15

>  <SMILES>  (15) 
Cc1c(Nc2cc([O-])cc(O)c2)sc(=O)n1Cc1cccc(C([NH-])=O)c1

>  <Energy>  (15) 
80.59740131431658

>  <Genealogy>  (15) 
Cc1c(Nc2cc([O-])cc(O)c2)sc(=O)n1Cc1cccc(C([NH-])=O)c1 (protonated)
Cc1c(Nc2cc([O-])cc(O)c2)sc(=O)n1Cc1cccc(C([NH-])=O)c1 (3D coordinates assigned)
Cc1c(Nc2cc([O-])cc(O)c2)sc(=O)n1Cc1cccc(C([NH-])=O)c1 (optimized conformer: 80.59740131431658 kcal/mol)

>  <smiles>  (15) 
Cc1c(Nc2cc(O)cc(O)c2)sc(=O)n1Cc1cccc(C(N)=O)c1

>  <score_type>  (15) 
oracle

>  <origin>  (15) 
adg

>  <m_score__min__energy>  (15) 
-12.81

>  <m_primary>  (15) 
energy

$$$$
15:0
     RDKit          3D

 71 74  0  0  0  0  0  0  0  0999 V2000
   55.2970   25.3780   45.7420 C   0  0  0  0  0  0  0  0  0  0  0  0
   55.5270   26.7980   45.9780 N   0  0  0  0  0  0  0  0  0  0  0  0
   56.8180   27.4210   45.9930 C   0  0  0  0  0  0  0  0  0  0  0  0
   57.7590   26.8520   46.6050 O   0  0  0  0  0  0  0  0  0  0  0  0
   57.0730   28.7170   45.3330 C   0  0  0  0  0  0  0  0  0  0  0  0
   56.0820   29.2960   44.5290 C   0  0  0  0  0  0  0  0  0  0  0  0
   56.3070   30.5300   43.9110 C   0  0  0  0  0  0  0  0  0  0  0  0
   57.5200   31.2110   44.1040 C   0  0  0  0  0  0  0  0  0  0  0  0
   57.7730   32.5200   43.3980 C   0  0  0  0  0  0  0  0  0  0  0  0
   57.8710   33.6990   44.3930 C   0  0  0  0  0  0  0  0  0  0  0  0
   57.0030   33.4400   45.6570 C   0  0  0  0  0  0  0  0  0  0  0  0
   57.8530   33.2350   46.9130 C   0  0  0  0  0  0  0  0  0  0  0  0
   58.7090   34.4150   47.1560 N   0  0  0  0  0  0  0  0  0  0  0  0
   59.5300   34.3110   48.3820 C   0  0  0  0  0  0  0  0  0  0  0  0
   60.6890   33.3420   48.2610 C   0  0  0  0  0  0  0  0  0  0  0  0
   62.0070   33.8050   48.3860 C   0  0  0  0  0  0  0  0  0  0  0  0
   63.0810   32.9230   48.2590 C   0  0  0  0  0  0  0  0  0  0  0  0
   62.8540   31.5710   47.9910 C   0  0  0  0  0  0  0  0  0  0  0  0
   61.5380   31.0900   47.8430 C   0  0  0  0  0  0  0  0  0  0  0  0
   61.2330   29.7500   47.5370 O   0  0  0  0  0  0  0  0  0  0  0  0
   60.6440   28.7630   48.3950 C   0  0  2  0  0  0  0  0  0  0  0  0
   60.4820   27.4300   47.6490 C   0  0  0  0  0  0  0  0  0  0  0  0
   59.3680   29.2620   49.0400 C   0  0  0  0  0  0  0  0  0  0  0  0
   58.2520   28.8680   48.6000 O   0  0  0  0  0  0  0  0  0  0  0  0
   59.3970   30.1790   50.1530 N   0  0  0  0  0  0  0  0  0  0  0  0
   58.2790   31.1090   50.3450 C   0  0  0  0  0  0  0  0  0  0  0  0
   58.6450   32.1700   51.3830 C   0  0  0  0  0  0  0  0  0  0  0  0
   59.9840   32.5740   51.1740 O   0  0  0  0  0  0  0  0  0  0  0  0
   60.8800   31.5550   51.5920 C   0  0  0  0  0  0  0  0  0  0  0  0
   60.4530   30.1270   51.1740 C   0  0  0  0  0  0  0  0  0  0  0  0
   60.4670   31.9830   47.9810 C   0  0  0  0  0  0  0  0  0  0  0  0
   59.4400   34.9300   45.9710 C   0  0  0  0  0  0  0  0  0  0  0  0
   59.3450   34.0050   44.7510 C   0  0  0  0  0  0  0  0  0  0  0  0
   58.5050   30.6390   44.9250 C   0  0  0  0  0  0  0  0  0  0  0  0
   58.2800   29.4040   45.5400 C   0  0  0  0  0  0  0  0  0  0  0  0
   55.2123   24.8551   46.7060 H   0  0  0  0  0  0  0  0  0  0  0  0
   54.3660   25.2473   45.1709 H   0  0  0  0  0  0  0  0  0  0  0  0
   56.1392   24.9601   45.1709 H   0  0  0  0  0  0  0  0  0  0  0  0
   55.1229   28.7775   44.3834 H   0  0  0  0  0  0  0  0  0  0  0  0
   55.5291   30.9701   43.2697 H   0  0  0  0  0  0  0  0  0  0  0  0
   58.7175   32.4464   42.8390 H   0  0  0  0  0  0  0  0  0  0  0  0
   56.9273   32.7128   42.7215 H   0  0  0  0  0  0  0  0  0  0  0  0
   57.4652   34.5958   43.9020 H   0  0  0  0  0  0  0  0  0  0  0  0
   56.3412   34.3043   45.8149 H   0  0  0  0  0  0  0  0  0  0  0  0
   56.4267   32.5187   45.4865 H   0  0  0  0  0  0  0  0  0  0  0  0
   57.1904   33.0839   47.7780 H   0  0  0  0  0  0  0  0  0  0  0  0
   58.4946   32.3532   46.7688 H   0  0  0  0  0  0  0  0  0  0  0  0
   59.9337   35.3074   48.6147 H   0  0  0  0  0  0  0  0  0  0  0  0
   58.8729   33.9273   49.1763 H   0  0  0  0  0  0  0  0  0  0  0  0
   62.1954   34.8702   48.5854 H   0  0  0  0  0  0  0  0  0  0  0  0
   64.1105   33.2940   48.3704 H   0  0  0  0  0  0  0  0  0  0  0  0
   63.7047   30.8802   47.8953 H   0  0  0  0  0  0  0  0  0  0  0  0
   61.3293   28.5719   49.2339 H   0  0  0  0  0  0  0  0  0  0  0  0
   60.3826   26.6118   48.3775 H   0  0  0  0  0  0  0  0  0  0  0  0
   59.5821   27.4702   47.0176 H   0  0  0  0  0  0  0  0  0  0  0  0
   61.3653   27.2534   47.0176 H   0  0  0  0  0  0  0  0  0  0  0  0
   58.0478   31.6011   49.3888 H   0  0  0  0  0  0  0  0  0  0  0  0
   57.4027   30.5472   50.7007 H   0  0  0  0  0  0  0  0  0  0  0  0
   57.9768   33.0372   51.2757 H   0  0  0  0  0  0  0  0  0  0  0  0
   58.5355   31.7538   52.3953 H   0  0  0  0  0  0  0  0  0  0  0  0
   61.8675   31.7624   51.1539 H   0  0  0  0  0  0  0  0  0  0  0  0
   60.8905   31.5736   52.6918 H   0  0  0  0  0  0  0  0  0  0  0  0
   61.3245   29.5945   50.7655 H   0  0  0  0  0  0  0  0  0  0  0  0
   60.0646   29.6007   52.0584 H   0  0  0  0  0  0  0  0  0  0  0  0
   59.4367   31.6145   47.8684 H   0  0  0  0  0  0  0  0  0  0  0  0
   59.0197   35.9098   45.7000 H   0  0  0  0  0  0  0  0  0  0  0  0
   60.5026   34.9972   46.2473 H   0  0  0  0  0  0  0  0  0  0  0  0
   59.8287   34.4933   43.8922 H   0  0  0  0  0  0  0  0  0  0  0  0
   59.8482   33.0573   44.9929 H   0  0  0  0  0  0  0  0  0  0  0  0
   59.4578   31.1649   45.0849 H   0  0  0  0  0  0  0  0  0  0  0  0
   59.0529   28.9678   46.1899 H   0  0  0  0  0  0  0  0  0  0  0  0
  1  2  1  0
  2  3  1  0
  3  4  2  0
  3  5  1  0
  5  6  2  0
  6  7  1  0
  7  8  2  0
  8  9  1  0
  9 10  1  0
 10 11  1  0
 11 12  1  0
 12 13  1  0
 13 14  1  0
 14 15  1  0
 15 16  2  0
 16 17  1  0
 17 18  2  0
 18 19  1  0
 19 20  1  0
 20 21  1  0
 21 22  1  0
 21 23  1  0
 23 24  2  0
 23 25  1  0
 25 26  1  0
 26 27  1  0
 27 28  1  0
 28 29  1  0
 29 30  1  0
 19 31  2  0
 13 32  1  0
 32 33  1  0
  8 34  1  0
 34 35  2  0
 35  5  1  0
 33 10  1  0
 31 15  1  0
 30 25  1  0
  1 36  1  0
  1 37  1  0
  1 38  1  0
  6 39  1  0
  7 40  1  0
  9 41  1  0
  9 42  1  0
 10 43  1  0
 11 44  1  0
 11 45  1  0
 12 46  1  0
 12 47  1  0
 14 48  1  0
 14 49  1  0
 16 50  1  0
 17 51  1  0
 18 52  1  0
 21 53  1  1
 22 54  1  0
 22 55  1  0
 22 56  1  0
 26 57  1  0
 26 58  1  0
 27 59  1  0
 27 60  1  0
 29 61  1  0
 29 62  1  0
 30 63  1  0
 30 64  1  0
 31 65  1  0
 32 66  1  0
 32 67  1  0
 33 68  1  0
 33 69  1  0
 34 70  1  0
 35 71  1  0
M  CHG  1   2  -1
M  END
>  <UniqueID>  (16) 
16

>  <SMILES>  (16) 
C[N-]C(=O)c1ccc(CC2CCN(Cc3cccc(O[C@H](C)C(=O)N4CCOCC4)c3)CC2)cc1

>  <Energy>  (16) 
93.15039776289801

>  <Genealogy>  (16) 
C[N-]C(=O)c1ccc(CC2CCN(Cc3cccc(OC(C)C(=O)N4CCOCC4)c3)CC2)cc1 (protonated)
C[N-]C(=O)c1ccc(CC2CCN(Cc3cccc(O[C@H](C)C(=O)N4CCOCC4)c3)CC2)cc1 (chirality)
C[N-]C(=O)c1ccc(CC2CCN(Cc3cccc(O[C@H](C)C(=O)N4CCOCC4)c3)CC2)cc1 (3D coordinates assigned)
C[N-]C(=O)c1ccc(CC2CCN(Cc3cccc(O[C@H](C)C(=O)N4CCOCC4)c3)CC2)cc1 (nonaromatic ring conformer: 93.15039776289801 kcal/mol)

>  <smiles>  (16) 
CNC(=O)c1ccc(CC2CCN(Cc3cccc(OC(C)C(=O)N4CCOCC4)c3)CC2)cc1

>  <score_type>  (16) 
oracle

>  <origin>  (16) 
adg

>  <m_score__min__energy>  (16) 
-12.42

>  <m_primary>  (16) 
energy

$$$$
16:0
     RDKit          3D

 67 71  0  0  0  0  0  0  0  0999 V2000
   56.9240   23.2274   43.3685 H   0  0  0  0  0  0  0  0  0  0  0  0
   56.6170   23.7940   44.2600 C   0  0  0  0  0  0  0  0  0  0  0  0
   57.5470   24.2960   45.1140 N   0  0  0  0  0  0  0  0  0  0  0  0
   57.2100   25.0510   46.2000 C   0  0  0  0  0  0  0  0  0  0  0  0
   58.1820   25.3120   47.0580 N   0  0  0  0  0  0  0  0  0  0  0  0
   59.7250   26.0790   46.9170 S   0  0  0  0  0  0  0  0  0  0  0  0
   60.3540   26.3570   48.2690 O   0  0  0  0  0  0  0  0  0  0  0  0
   60.6250   25.2140   46.0490 O   0  0  0  0  0  0  0  0  0  0  0  0
   59.2420   27.5830   46.1570 C   0  0  0  0  0  0  0  0  0  0  0  0
   58.5610   28.5240   46.9550 C   0  0  0  0  0  0  0  0  0  0  0  0
   58.6338   28.4790   48.0517 H   0  0  0  0  0  0  0  0  0  0  0  0
   57.7930   29.5140   46.3390 C   0  0  0  0  0  0  0  0  0  0  0  0
   57.2869   30.2770   46.9487 H   0  0  0  0  0  0  0  0  0  0  0  0
   57.6670   29.5350   44.9400 C   0  0  0  0  0  0  0  0  0  0  0  0
   56.6820   30.4170   44.2940 C   0  0  0  0  0  0  0  0  0  0  0  0
   55.4610   30.1680   44.5130 O   0  0  0  0  0  0  0  0  0  0  0  0
   57.0820   31.7500   43.9320 N   0  0  0  0  0  0  0  0  0  0  0  0
   57.8750   32.5540   44.6100 C   0  0  0  0  0  0  0  0  0  0  0  0
   58.7960   32.0490   45.4660 N   0  0  0  0  0  0  0  0  0  0  0  0
   59.6530   32.8810   46.1610 C   0  0  0  0  0  0  0  0  0  0  0  0
   60.7930   32.2770   46.9520 C   0  0  0  0  0  0  0  0  0  0  0  0
   61.4902   31.8480   46.2173 H   0  0  0  0  0  0  0  0  0  0  0  0
   61.5120   33.3620   47.7670 C   0  0  0  0  0  0  0  0  0  0  0  0
   60.8172   33.7813   48.5096 H   0  0  0  0  0  0  0  0  0  0  0  0
   61.8550   34.1575   47.0891 H   0  0  0  0  0  0  0  0  0  0  0  0
   62.7220   32.7550   48.4880 C   0  0  0  0  0  0  0  0  0  0  0  0
   63.1734   33.5295   49.1255 H   0  0  0  0  0  0  0  0  0  0  0  0
   63.4177   32.3984   47.7141 H   0  0  0  0  0  0  0  0  0  0  0  0
   62.3750   31.5930   49.3350 N   0  0  0  0  0  0  0  0  0  0  0  0
   61.9370   31.9330   50.7130 C   0  0  0  0  0  0  0  0  0  0  0  0
   61.9204   33.0257   50.8382 H   0  0  0  0  0  0  0  0  0  0  0  0
   62.6337   31.5024   51.4473 H   0  0  0  0  0  0  0  0  0  0  0  0
   60.5610   31.3790   50.9240 C   0  0  0  0  0  0  0  0  0  0  0  0
   59.4310   32.1330   50.5490 C   0  0  0  0  0  0  0  0  0  0  0  0
   59.5643   33.0776   50.0014 H   0  0  0  0  0  0  0  0  0  0  0  0
   58.1450   31.6940   50.8650 C   0  0  0  0  0  0  0  0  0  0  0  0
   57.2720   32.2860   50.5527 H   0  0  0  0  0  0  0  0  0  0  0  0
   57.9600   30.4980   51.5810 C   0  0  0  0  0  0  0  0  0  0  0  0
   56.6820   30.0550   51.8910 O   0  0  0  0  0  0  0  0  0  0  0  0
   59.0890   29.7570   51.9840 C   0  0  0  0  0  0  0  0  0  0  0  0
   58.9220   28.4970   52.7860 C   0  0  0  0  0  0  0  0  0  0  0  0
   58.9540   28.7382   53.8587 H   0  0  0  0  0  0  0  0  0  0  0  0
   57.9545   28.0333   52.5431 H   0  0  0  0  0  0  0  0  0  0  0  0
   59.7353   27.7973   52.5431 H   0  0  0  0  0  0  0  0  0  0  0  0
   60.3810   30.2130   51.6810 C   0  0  0  0  0  0  0  0  0  0  0  0
   61.2571   29.6526   52.0393 H   0  0  0  0  0  0  0  0  0  0  0  0
   61.5650   30.5460   48.6470 C   0  0  0  0  0  0  0  0  0  0  0  0
   61.1896   29.8434   49.4055 H   0  0  0  0  0  0  0  0  0  0  0  0
   62.2251   30.0595   47.9138 H   0  0  0  0  0  0  0  0  0  0  0  0
   60.3570   31.1090   47.8630 C   0  0  0  0  0  0  0  0  0  0  0  0
   59.6007   31.4699   48.5756 H   0  0  0  0  0  0  0  0  0  0  0  0
   59.9390   30.3083   47.2352 H   0  0  0  0  0  0  0  0  0  0  0  0
   59.4810   34.2720   46.0690 C   0  0  0  0  0  0  0  0  0  0  0  0
   60.0759   34.9456   46.7033 H   0  0  0  0  0  0  0  0  0  0  0  0
   58.5590   34.7910   45.1760 C   0  0  0  0  0  0  0  0  0  0  0  0
   58.4908   35.8776   45.0192 H   0  0  0  0  0  0  0  0  0  0  0  0
   57.7140   33.9230   44.4740 C   0  0  0  0  0  0  0  0  0  0  0  0
   56.9275   34.3256   43.8188 H   0  0  0  0  0  0  0  0  0  0  0  0
   58.4260   28.6440   44.1470 C   0  0  0  0  0  0  0  0  0  0  0  0
   58.3977   28.7188   43.0499 H   0  0  0  0  0  0  0  0  0  0  0  0
   59.2090   27.6720   44.7620 C   0  0  0  0  0  0  0  0  0  0  0  0
   59.8013   26.9745   44.1515 H   0  0  0  0  0  0  0  0  0  0  0  0
   55.9010   25.2960   46.4610 N   0  0  0  0  0  0  0  0  0  0  0  0
   54.9270   24.8170   45.6110 C   0  0  0  0  0  0  0  0  0  0  0  0
   53.8712   25.0725   45.7840 H   0  0  0  0  0  0  0  0  0  0  0  0
   55.2820   24.0070   44.5300 C   0  0  0  0  0  0  0  0  0  0  0  0
   54.5061   23.5448   43.9020 H   0  0  0  0  0  0  0  0  0  0  0  0
  1  2  1  0
  2  3  2  0
  3  4  1  0
  4  5  2  3
  5  6  1  0
  6  7  2  0
  6  8  2  0
  6  9  1  0
  9 10  2  0
 10 11  1  0
 10 12  1  0
 12 13  1  0
 12 14  2  0
 14 15  1  0
 15 16  2  0
 15 17  1  0
 17 18  2  0
 18 19  1  0
 19 20  1  0
 20 21  1  0
 21 22  1  0
 21 23  1  0
 23 24  1  0
 23 25  1  0
 23 26  1  0
 26 27  1  0
 26 28  1  0
 26 29  1  0
 29 30  1  0
 30 31  1  0
 30 32  1  0
 30 33  1  0
 33 34  2  0
 34 35  1  0
 34 36  1  0
 36 37  1  0
 36 38  2  0
 38 39  1  0
 38 40  1  0
 40 41  1  0
 41 42  1  0
 41 43  1  0
 41 44  1  0
 40 45  2  0
 45 46  1  0
 29 47  1  0
 47 48  1  0
 47 49  1  0
 47 50  1  0
 50 51  1  0
 50 52  1  0
 20 53  2  0
 53 54  1  0
 53 55  1  0
 55 56  1  0
 55 57  2  0
 57 58  1  0
 14 59  1  0
 59 60  1  0
 59 61  2  0
 61 62  1  0
  4 63  1  0
 63 64  1  0
 64 65  1  0
 64 66  2  0
 66 67  1  0
 66  2  1  0
 61  9  1  0
 57 18  1  0
 50 21  1  0
 45 33  1  0
M  CHG  3  19  -1  39  -1  63  -1
M  END
>  <UniqueID>  (17) 
17

>  <SMILES>  (17) 
Cc1cc(CN2CCC(c3ccc/c(=N/C(=O)c4ccc(S(=O)(=O)N=c5nccc[n-]5)cc4)[n-]3)CC2)ccc1[O-]

>  <Energy>  (17) 
120.06285153242263

>  <Genealogy>  (17) 
Cc1cc(CN2CCC(c3cccc(=NC(=O)c4ccc(S(=O)(=O)N=c5nccc[n-]5)cc4)[n-]3)CC2)ccc1[O-] (protonated)
Cc1cc(CN2CCC(c3ccc/c(=N/C(=O)c4ccc(S(=O)(=O)N=c5nccc[n-]5)cc4)[n-]3)CC2)ccc1[O-] (cis-trans isomerization)
Cc1cc(CN2CCC(c3ccc/c(=N/C(=O)c4ccc(S(=O)(=O)N=c5nccc[n-]5)cc4)[n-]3)CC2)ccc1[O-] (3D coordinates assigned)
Cc1cc(CN2CCC(c3ccc/c(=N/C(=O)c4ccc(S(=O)(=O)N=c5nccc[n-]5)cc4)[n-]3)CC2)ccc1[O-] (nonaromatic ring conformer: 120.06285153242263 kcal/mol)

>  <smiles>  (17) 
Cc1cc(CN2CCC(c3cccc(=NC(=O)c4ccc(S(=O)(=O)N=c5nccc[nH]5)cc4)[nH]3)CC2)ccc1O

>  <score_type>  (17) 
oracle

>  <origin>  (17) 
adg

>  <m_score__min__energy>  (17) 
-17.710000000000001

>  <m_primary>  (17) 
energy

$$$$
17:0
     RDKit          3D

 20 21  0  0  0  0  0  0  0  0999 V2000
   58.0741   27.1158   44.5184 H   0  0  0  0  0  0  0  0  0  0  0  0
   57.6390   28.1180   44.6460 C   0  0  0  0  0  0  0  0  0  0  0  0
   58.3640   29.5780   44.2210 S   0  0  0  0  0  0  0  0  0  0  0  0
   57.0620   30.5110   44.7600 C   0  0  0  0  0  0  0  0  0  0  0  0
   56.9500   31.8050   44.6780 N   0  0  0  0  0  0  0  0  0  0  0  0
   57.7870   32.7770   45.3220 C   0  0  0  0  0  0  0  0  0  0  0  0
   57.7440   32.9820   46.7140 C   0  0  0  0  0  0  0  0  0  0  0  0
   57.0814   32.3655   47.3393 H   0  0  0  0  0  0  0  0  0  0  0  0
   58.5420   33.9680   47.3040 C   0  0  0  0  0  0  0  0  0  0  0  0
   58.5189   34.1128   48.3942 H   0  0  0  0  0  0  0  0  0  0  0  0
   59.3680   34.7690   46.5120 C   0  0  0  0  0  0  0  0  0  0  0  0
   60.0011   35.5381   46.9787 H   0  0  0  0  0  0  0  0  0  0  0  0
   59.3890   34.5920   45.1260 C   0  0  0  0  0  0  0  0  0  0  0  0
   60.0335   35.2277   44.5010 H   0  0  0  0  0  0  0  0  0  0  0  0
   58.5920   33.6080   44.5320 C   0  0  0  0  0  0  0  0  0  0  0  0
   58.5973   33.4860   43.4388 H   0  0  0  0  0  0  0  0  0  0  0  0
   56.0730   29.7290   45.2440 N   0  0  0  0  0  0  0  0  0  0  0  0
   55.1690   30.0920   45.6170 H   0  0  0  0  0  0  0  0  0  0  0  0
   56.3920   28.4080   45.1870 C   0  0  0  0  0  0  0  0  0  0  0  0
   55.5230   27.4220   45.6370 O   0  0  0  0  0  0  0  0  0  0  0  0
  1  2  1  0
  2  3  1  0
  3  4  1  0
  4  5  2  0
  5  6  1  0
  6  7  2  0
  7  8  1  0
  7  9  1  0
  9 10  1  0
  9 11  2  0
 11 12  1  0
 11 13  1  0
 13 14  1  0
 13 15  2  0
 15 16  1  0
  4 17  1  0
 17 18  1  0
 17 19  1  0
 19 20  1  0
 19  2  2  0
 15  6  1  0
M  CHG  1  20  -1
M  END
>  <UniqueID>  (18) 
18

>  <SMILES>  (18) 
[O-]c1cs/c(=N\c2ccccc2)[nH]1

>  <Energy>  (18) 
57.99222732938707

>  <Genealogy>  (18) 
[O-]c1csc(=Nc2ccccc2)[nH]1 (protonated)
[O-]c1cs/c(=N\c2ccccc2)[nH]1 (cis-trans isomerization)
[O-]c1cs/c(=N\c2ccccc2)[nH]1 (3D coordinates assigned)
[O-]c1cs/c(=N\c2ccccc2)[nH]1 (optimized conformer: 57.99222732938707 kcal/mol)

>  <smiles>  (18) 
Oc1csc(=Nc2ccccc2)[nH]1

>  <score_type>  (18) 
oracle

>  <origin>  (18) 
adg

>  <m_score__min__energy>  (18) 
-9.6099999999999994

>  <m_primary>  (18) 
energy

$$$$
18:0
     RDKit          3D

 56 58  0  0  0  0  0  0  0  0999 V2000
   62.3590   29.9940   51.0670 C   0  0  0  0  0  0  0  0  0  0  0  0
   63.4430   30.9380   50.5580 C   0  0  0  0  0  0  0  0  0  0  0  0
   62.9960   31.6340   49.2960 C   0  0  0  0  0  0  0  0  0  0  0  0
   62.0090   31.0630   48.4820 C   0  0  0  0  0  0  0  0  0  0  0  0
   61.5810   31.6970   47.3500 N   0  0  0  0  0  0  0  0  0  0  0  0
   60.5310   31.0710   46.5300 C   0  0  0  0  0  0  0  0  0  0  0  0
   59.8000   29.9910   47.3320 C   0  0  0  0  0  0  0  0  0  0  0  0
   60.0990   28.6520   46.7670 N   0  0  0  0  0  0  0  0  0  0  0  0
   59.1140   27.6190   47.1510 C   0  0  0  0  0  0  0  0  0  0  0  0
   57.7290   27.8720   46.5270 C   0  0  0  0  0  0  0  0  0  0  0  0
   57.8410   28.6750   45.3050 N   0  0  0  0  0  0  0  0  0  0  0  0
   56.6890   29.3940   44.8280 C   0  0  0  0  0  0  0  0  0  0  0  0
   55.5330   28.9540   45.0750 O   0  0  0  0  0  0  0  0  0  0  0  0
   56.8470   30.6640   44.0350 C   0  0  0  0  0  0  0  0  0  0  0  0
   56.7730   31.8350   44.9010 N   0  0  0  0  0  0  0  0  0  0  0  0
   57.6630   32.9500   44.7990 C   0  0  0  0  0  0  0  0  0  0  0  0
   58.3870   33.0930   43.7750 O   0  0  0  0  0  0  0  0  0  0  0  0
   57.6760   33.9000   45.8250 O   0  0  0  0  0  0  0  0  0  0  0  0
   58.3210   33.7390   47.0590 C   0  0  0  0  0  0  0  0  0  0  0  0
   59.2550   34.7030   47.4560 C   0  0  0  0  0  0  0  0  0  0  0  0
   59.9210   34.5830   48.6780 C   0  0  0  0  0  0  0  0  0  0  0  0
   59.6540   33.4970   49.5180 C   0  0  0  0  0  0  0  0  0  0  0  0
   60.5200   33.3290   51.0400 Cl  0  0  0  0  0  0  0  0  0  0  0  0
   58.7010   32.5450   49.1440 C   0  0  0  0  0  0  0  0  0  0  0  0
   58.0290   32.6670   47.9230 C   0  0  0  0  0  0  0  0  0  0  0  0
   59.0380   28.5220   44.4710 C   0  0  0  0  0  0  0  0  0  0  0  0
   60.3280   28.6650   45.3050 C   0  0  0  0  0  0  0  0  0  0  0  0
   62.0960   32.9250   47.0230 C   0  0  0  0  0  0  0  0  0  0  0  0
   61.6970   33.5400   45.9980 O   0  0  0  0  0  0  0  0  0  0  0  0
   63.0430   33.5000   47.8080 N   0  0  0  0  0  0  0  0  0  0  0  0
   63.5020   32.8900   48.9300 C   0  0  0  0  0  0  0  0  0  0  0  0
   64.3760   33.4650   49.6330 O   0  0  0  0  0  0  0  0  0  0  0  0
   62.3594   29.9944   52.1670 H   0  0  0  0  0  0  0  0  0  0  0  0
   61.3780   30.3306   50.7006 H   0  0  0  0  0  0  0  0  0  0  0  0
   62.5577   28.9760   50.7006 H   0  0  0  0  0  0  0  0  0  0  0  0
   63.6564   31.6921   51.3298 H   0  0  0  0  0  0  0  0  0  0  0  0
   64.3468   30.3514   50.3367 H   0  0  0  0  0  0  0  0  0  0  0  0
   61.5730   30.0915   48.7579 H   0  0  0  0  0  0  0  0  0  0  0  0
   59.8097   31.8399   46.2161 H   0  0  0  0  0  0  0  0  0  0  0  0
   60.9965   30.6067   45.6481 H   0  0  0  0  0  0  0  0  0  0  0  0
   60.1327   30.0271   48.3799 H   0  0  0  0  0  0  0  0  0  0  0  0
   58.7163   30.1723   47.2790 H   0  0  0  0  0  0  0  0  0  0  0  0
   59.4802   26.6381   46.8137 H   0  0  0  0  0  0  0  0  0  0  0  0
   59.0015   27.6511   48.2448 H   0  0  0  0  0  0  0  0  0  0  0  0
   57.2635   26.9061   46.2812 H   0  0  0  0  0  0  0  0  0  0  0  0
   57.1133   28.4233   47.2530 H   0  0  0  0  0  0  0  0  0  0  0  0
   57.8235   30.6525   43.5287 H   0  0  0  0  0  0  0  0  0  0  0  0
   56.0313   30.7208   43.2992 H   0  0  0  0  0  0  0  0  0  0  0  0
   59.4660   35.5612   46.8010 H   0  0  0  0  0  0  0  0  0  0  0  0
   60.6562   35.3434   48.9800 H   0  0  0  0  0  0  0  0  0  0  0  0
   58.4792   31.6987   49.8108 H   0  0  0  0  0  0  0  0  0  0  0  0
   57.2705   31.9232   47.6375 H   0  0  0  0  0  0  0  0  0  0  0  0
   59.0231   27.5267   44.0029 H   0  0  0  0  0  0  0  0  0  0  0  0
   59.0306   29.3132   43.7069 H   0  0  0  0  0  0  0  0  0  0  0  0
   60.9989   27.8309   45.0517 H   0  0  0  0  0  0  0  0  0  0  0  0
   60.7622   29.6449   45.0576 H   0  0  0  0  0  0  0  0  0  0  0  0
  1  2  1  0
  2  3  1  0
  3  4  2  0
  4  5  1  0
  5  6  1  0
  6  7  1  0
  7  8  1  0
  8  9  1  0
  9 10  1  0
 10 11  1  0
 11 12  1  0
 12 13  2  0
 12 14  1  0
 14 15  1  0
 15 16  1  0
 16 17  2  0
 16 18  1  0
 18 19  1  0
 19 20  2  0
 20 21  1  0
 21 22  2  0
 22 23  1  0
 22 24  1  0
 24 25  2  0
 11 26  1  0
 26 27  1  0
  5 28  1  0
 28 29  2  0
 28 30  1  0
 30 31  1  0
 31 32  2  0
 31  3  1  0
 27  8  1  0
 25 19  1  0
  1 33  1  0
  1 34  1  0
  1 35  1  0
  2 36  1  0
  2 37  1  0
  4 38  1  0
  6 39  1  0
  6 40  1  0
  7 41  1  0
  7 42  1  0
  9 43  1  0
  9 44  1  0
 10 45  1  0
 10 46  1  0
 14 47  1  0
 14 48  1  0
 20 49  1  0
 21 50  1  0
 24 51  1  0
 25 52  1  0
 26 53  1  0
 26 54  1  0
 27 55  1  0
 27 56  1  0
M  CHG  2  15  -1  30  -1
M  END
>  <UniqueID>  (19) 
19

>  <SMILES>  (19) 
CCc1cn(CCN2CCN(C(=O)C[N-]C(=O)Oc3ccc(Cl)cc3)CC2)c(=O)[n-]c1=O

>  <Energy>  (19) 
66.40987076159267

>  <Genealogy>  (19) 
CCc1cn(CCN2CCN(C(=O)C[N-]C(=O)Oc3ccc(Cl)cc3)CC2)c(=O)[n-]c1=O (protonated)
CCc1cn(CCN2CCN(C(=O)C[N-]C(=O)Oc3ccc(Cl)cc3)CC2)c(=O)[n-]c1=O (3D coordinates assigned)
CCc1cn(CCN2CCN(C(=O)C[N-]C(=O)Oc3ccc(Cl)cc3)CC2)c(=O)[n-]c1=O (nonaromatic ring conformer: 66.40987076159267 kcal/mol)

>  <smiles>  (19) 
CCc1cn(CCN2CCN(C(=O)CNC(=O)Oc3ccc(Cl)cc3)CC2)c(=O)[nH]c1=O

>  <score_type>  (19) 
oracle

>  <origin>  (19) 
adg

>  <m_score__min__energy>  (19) 
-12.43

>  <m_primary>  (19) 
energy

$$$$
19:0
     RDKit          3D

 31 33  0  0  0  0  0  0  0  0999 V2000
   56.6270   25.8400   46.8260 C   0  0  0  0  0  0  0  0  0  0  0  0
   56.8650   26.8860   46.0340 C   0  0  0  0  0  0  0  0  0  0  0  0
   55.8920   27.7240   45.6110 N   0  0  0  0  0  0  0  0  0  0  0  0
   56.4570   28.6440   44.8440 N   0  0  0  0  0  0  0  0  0  0  0  0
   55.7300   29.7670   44.2560 C   0  0  0  0  0  0  0  0  0  0  0  0
   56.6810   30.8950   43.9680 C   0  0  0  0  0  0  0  0  0  0  0  0
   57.0780   31.1630   42.6500 C   0  0  0  0  0  0  0  0  0  0  0  0
   57.9280   32.2360   42.3760 C   0  0  0  0  0  0  0  0  0  0  0  0
   58.3800   33.0570   43.4120 C   0  0  0  0  0  0  0  0  0  0  0  0
   57.9800   32.8140   44.7370 C   0  0  0  0  0  0  0  0  0  0  0  0
   58.4480   33.6890   45.8320 C   0  0  0  0  0  0  0  0  0  0  0  0
   58.4340   33.3510   47.1380 N   0  0  0  0  0  0  0  0  0  0  0  0
   58.9310   34.4030   47.7690 N   0  0  0  0  0  0  0  0  0  0  0  0
   59.2310   35.3360   46.8830 N   0  0  0  0  0  0  0  0  0  0  0  0
   58.9440   34.9290   45.6580 N   0  0  0  0  0  0  0  0  0  0  0  0
   57.1240   31.7310   45.0070 C   0  0  0  0  0  0  0  0  0  0  0  0
   57.7840   28.4200   44.7820 C   0  0  0  0  0  0  0  0  0  0  0  0
   58.6000   29.1400   44.1450 O   0  0  0  0  0  0  0  0  0  0  0  0
   58.0950   27.3000   45.5230 C   0  0  0  0  0  0  0  0  0  0  0  0
   59.3050   26.7620   45.7000 C   0  0  0  0  0  0  0  0  0  0  0  0
   57.4558   25.1891   47.1413 H   0  0  0  0  0  0  0  0  0  0  0  0
   55.6019   25.6281   47.1640 H   0  0  0  0  0  0  0  0  0  0  0  0
   55.2535   29.4430   43.3190 H   0  0  0  0  0  0  0  0  0  0  0  0
   54.9612   30.1119   44.9631 H   0  0  0  0  0  0  0  0  0  0  0  0
   56.7183   30.5254   41.8290 H   0  0  0  0  0  0  0  0  0  0  0  0
   58.2428   32.4356   41.3411 H   0  0  0  0  0  0  0  0  0  0  0  0
   59.0527   33.8983   43.1893 H   0  0  0  0  0  0  0  0  0  0  0  0
   59.6400   36.2680   47.1170 H   0  0  0  0  0  0  0  0  0  0  0  0
   56.7988   31.5369   46.0397 H   0  0  0  0  0  0  0  0  0  0  0  0
   59.4208   25.8603   46.3193 H   0  0  0  0  0  0  0  0  0  0  0  0
   60.1855   27.2207   45.2264 H   0  0  0  0  0  0  0  0  0  0  0  0
  1  2  2  0
  2  3  1  0
  3  4  1  0
  4  5  1  0
  5  6  1  0
  6  7  2  0
  7  8  1  0
  8  9  2  0
  9 10  1  0
 10 11  1  0
 11 12  2  0
 12 13  1  0
 13 14  1  0
 14 15  2  0
 10 16  2  0
  4 17  1  0
 17 18  2  0
 17 19  1  0
 19 20  2  0
 19  2  1  0
 16  6  1  0
 15 11  1  0
  1 21  1  0
  1 22  1  0
  5 23  1  0
  5 24  1  0
  7 25  1  0
  8 26  1  0
  9 27  1  0
 14 28  1  0
 16 29  1  0
 20 30  1  0
 20 31  1  0
M  CHG  3   3  -1  13  -1  14   1
M  END
>  <UniqueID>  (20) 
20

>  <SMILES>  (20) 
C=c1[n-]n(Cc2cccc(-c3n[n-][nH+]n3)c2)c(=O)c1=C

>  <Energy>  (20) 
104.55825413239344

>  <Genealogy>  (20) 
C=c1[n-]n(Cc2cccc(-c3n[n-][nH+]n3)c2)c(=O)c1=C (protonated)
C=c1[n-]n(Cc2cccc(-c3n[n-][nH+]n3)c2)c(=O)c1=C (3D coordinates assigned)
C=c1[n-]n(Cc2cccc(-c3n[n-][nH+]n3)c2)c(=O)c1=C (optimized conformer: 104.55825413239344 kcal/mol)

>  <smiles>  (20) 
C=c1[nH]n(Cc2cccc(-c3nn[nH]n3)c2)c(=O)c1=C

>  <score_type>  (20) 
oracle

>  <origin>  (20) 
adg

>  <m_score__min__energy>  (20) 
-9.2699999999999996

>  <m_primary>  (20) 
energy

$$$$
20:0
     RDKit          3D

 59 63  0  0  0  0  0  0  0  0999 V2000
   59.6810   35.4870   45.9810 O   0  0  0  0  0  0  0  0  0  0  0  0
   59.7130   34.6070   46.8840 C   0  0  0  0  0  0  0  0  0  0  0  0
   60.0350   34.9760   48.2320 N   0  0  0  0  0  0  0  0  0  0  0  0
   60.4620   34.0800   49.2670 C   0  0  0  0  0  0  0  0  0  0  0  0
   61.7520   34.2190   49.7910 C   0  0  0  0  0  0  0  0  0  0  0  0
   62.2090   33.3490   50.7840 C   0  0  0  0  0  0  0  0  0  0  0  0
   61.3870   32.3200   51.2470 C   0  0  0  0  0  0  0  0  0  0  0  0
   60.0990   32.1550   50.7180 C   0  0  0  0  0  0  0  0  0  0  0  0
   59.0620   30.8480   51.2960 S   0  0  0  0  0  0  0  0  0  0  0  0
   58.2130   30.3520   50.1580 O   0  0  0  0  0  0  0  0  0  0  0  0
   59.9300   29.7070   51.7490 O   0  0  0  0  0  0  0  0  0  0  0  0
   58.0260   31.3430   52.6200 N   0  0  0  0  0  0  0  0  0  0  0  0
   57.7620   30.2490   53.5720 C   0  0  0  0  0  0  0  0  0  0  0  0
   56.6210   29.3110   53.1170 C   0  0  0  0  0  0  0  0  0  0  0  0
   55.9140   29.7930   51.9900 O   0  0  0  0  0  0  0  0  0  0  0  0
   55.5550   31.1380   52.1980 C   0  0  0  0  0  0  0  0  0  0  0  0
   56.8020   32.0360   52.1610 C   0  0  0  0  0  0  0  0  0  0  0  0
   59.6440   33.0300   49.7200 C   0  0  0  0  0  0  0  0  0  0  0  0
   59.4670   33.1880   46.5400 C   0  0  0  0  0  0  0  0  0  0  0  0
   58.2090   32.7800   46.0610 C   0  0  0  0  0  0  0  0  0  0  0  0
   57.9740   31.4400   45.7390 C   0  0  0  0  0  0  0  0  0  0  0  0
   58.9950   30.4870   45.8800 C   0  0  0  0  0  0  0  0  0  0  0  0
   58.7770   29.1040   45.5640 N   0  0  0  0  0  0  0  0  0  0  0  0
   59.0290   27.9990   46.4410 C   0  0  0  0  0  0  0  0  0  0  0  0
   59.8020   28.1680   47.4200 O   0  0  0  0  0  0  0  0  0  0  0  0
   58.4590   26.6570   46.1800 C   0  0  0  0  0  0  0  0  0  0  0  0
   59.2890   25.5380   46.0010 C   0  0  0  0  0  0  0  0  0  0  0  0
   58.7230   24.2820   45.7530 C   0  0  0  0  0  0  0  0  0  0  0  0
   59.4770   23.2840   45.5970 O   0  0  0  0  0  0  0  0  0  0  0  0
   57.3230   24.1500   45.6810 C   0  0  0  0  0  0  0  0  0  0  0  0
   56.7030   22.9090   45.4420 C   0  0  0  0  0  0  0  0  0  0  0  0
   55.3090   22.8210   45.3820 C   0  0  0  0  0  0  0  0  0  0  0  0
   54.5230   23.9640   45.5560 C   0  0  0  0  0  0  0  0  0  0  0  0
   55.1260   25.2050   45.7920 C   0  0  0  0  0  0  0  0  0  0  0  0
   54.3330   26.3360   45.9610 O   0  0  0  0  0  0  0  0  0  0  0  0
   56.5230   25.3020   45.8580 C   0  0  0  0  0  0  0  0  0  0  0  0
   57.1100   26.5070   46.0940 N   0  0  0  0  0  0  0  0  0  0  0  0
   60.2380   30.8840   46.3840 C   0  0  0  0  0  0  0  0  0  0  0  0
   60.4770   32.2250   46.7020 C   0  0  0  0  0  0  0  0  0  0  0  0
   62.4101   35.0180   49.4189 H   0  0  0  0  0  0  0  0  0  0  0  0
   63.2187   33.4751   51.2019 H   0  0  0  0  0  0  0  0  0  0  0  0
   61.7507   31.6369   52.0288 H   0  0  0  0  0  0  0  0  0  0  0  0
   58.6803   29.6540   53.6848 H   0  0  0  0  0  0  0  0  0  0  0  0
   57.4496   30.7087   54.5213 H   0  0  0  0  0  0  0  0  0  0  0  0
   57.0541   28.3319   52.8645 H   0  0  0  0  0  0  0  0  0  0  0  0
   55.9029   29.2458   53.9478 H   0  0  0  0  0  0  0  0  0  0  0  0
   54.8573   31.4535   51.4082 H   0  0  0  0  0  0  0  0  0  0  0  0
   55.0763   31.2317   53.1839 H   0  0  0  0  0  0  0  0  0  0  0  0
   56.9586   32.3763   51.1268 H   0  0  0  0  0  0  0  0  0  0  0  0
   56.6228   32.8772   52.8468 H   0  0  0  0  0  0  0  0  0  0  0  0
   58.6411   32.8937   49.2893 H   0  0  0  0  0  0  0  0  0  0  0  0
   57.4046   33.5203   45.9389 H   0  0  0  0  0  0  0  0  0  0  0  0
   56.9838   31.1308   45.3732 H   0  0  0  0  0  0  0  0  0  0  0  0
   60.3821   25.6485   46.0556 H   0  0  0  0  0  0  0  0  0  0  0  0
   57.3165   22.0067   45.3022 H   0  0  0  0  0  0  0  0  0  0  0  0
   54.8288   21.8488   45.1972 H   0  0  0  0  0  0  0  0  0  0  0  0
   53.4267   23.8878   45.5073 H   0  0  0  0  0  0  0  0  0  0  0  0
   61.0322   30.1372   46.5311 H   0  0  0  0  0  0  0  0  0  0  0  0
   61.4638   32.5280   47.0820 H   0  0  0  0  0  0  0  0  0  0  0  0
  1  2  2  0
  2  3  1  0
  3  4  1  0
  4  5  2  0
  5  6  1  0
  6  7  2  0
  7  8  1  0
  8  9  1  0
  9 10  2  0
  9 11  2  0
  9 12  1  0
 12 13  1  0
 13 14  1  0
 14 15  1  0
 15 16  1  0
 16 17  1  0
  8 18  2  0
  2 19  1  0
 19 20  2  0
 20 21  1  0
 21 22  2  0
 22 23  1  0
 23 24  1  0
 24 25  2  0
 24 26  1  0
 26 27  2  0
 27 28  1  0
 28 29  2  0
 28 30  1  0
 30 31  2  0
 31 32  1  0
 32 33  2  0
 33 34  1  0
 34 35  1  0
 34 36  2  0
 36 37  1  0
 22 38  1  0
 38 39  2  0
 18  4  1  0
 39 19  1  0
 17 12  1  0
 37 26  1  0
 36 30  1  0
  5 40  1  0
  6 41  1  0
  7 42  1  0
 13 43  1  0
 13 44  1  0
 14 45  1  0
 14 46  1  0
 16 47  1  0
 16 48  1  0
 17 49  1  0
 17 50  1  0
 18 51  1  0
 20 52  1  0
 21 53  1  0
 27 54  1  0
 31 55  1  0
 32 56  1  0
 33 57  1  0
 38 58  1  0
 39 59  1  0
M  CHG  4   3  -1  23  -1  35  -1  37  -1
M  END
>  <UniqueID>  (21) 
21

>  <SMILES>  (21) 
O=C([N-]c1cccc(S(=O)(=O)N2CCOCC2)c1)c1ccc([N-]C(=O)c2cc(=O)c3cccc([O-])c3[n-]2)cc1

>  <Energy>  (21) 
89.66556582975926

>  <Genealogy>  (21) 
O=C([N-]c1cccc(S(=O)(=O)N2CCOCC2)c1)c1ccc([N-]C(=O)c2cc(=O)c3cccc([O-])c3[n-]2)cc1 (protonated)
O=C([N-]c1cccc(S(=O)(=O)N2CCOCC2)c1)c1ccc([N-]C(=O)c2cc(=O)c3cccc([O-])c3[n-]2)cc1 (3D coordinates assigned)
O=C([N-]c1cccc(S(=O)(=O)N2CCOCC2)c1)c1ccc([N-]C(=O)c2cc(=O)c3cccc([O-])c3[n-]2)cc1 (nonaromatic ring conformer: 89.66556582975926 kcal/mol)

>  <smiles>  (21) 
O=C(Nc1cccc(S(=O)(=O)N2CCOCC2)c1)c1ccc(NC(=O)c2cc(=O)c3cccc(O)c3[nH]2)cc1

>  <score_type>  (21) 
oracle

>  <origin>  (21) 
adg

>  <m_score__min__energy>  (21) 
-17.949999999999999

>  <m_primary>  (21) 
energy

$$$$
21:0
     RDKit          3D

 46 49  0  0  0  0  0  0  0  0999 V2000
   57.1060   22.5890   47.8970 O   0  0  0  0  0  0  0  0  0  0  0  0
   56.7280   23.2680   46.9110 C   0  0  0  0  0  0  0  0  0  0  0  0
   56.2230   24.5900   47.1430 N   0  0  0  0  0  0  0  0  0  0  0  0
   56.9180   25.7760   46.7420 C   0  0  0  0  0  0  0  0  0  0  0  0
   56.2580   26.7220   45.9590 C   0  0  0  0  0  0  0  0  0  0  0  0
   56.9460   27.8350   45.4730 C   0  0  0  0  0  0  0  0  0  0  0  0
   58.2960   28.0310   45.7960 C   0  0  0  0  0  0  0  0  0  0  0  0
   59.0490   29.1550   45.2090 C   0  0  0  0  0  0  0  0  0  0  0  0
   60.2670   29.0070   44.9290 O   0  0  0  0  0  0  0  0  0  0  0  0
   58.4120   30.4190   44.9460 N   0  0  0  0  0  0  0  0  0  0  0  0
   57.6010   30.5680   43.7350 C   0  0  0  0  0  0  0  0  0  0  0  0
   57.9780   31.8670   43.0320 C   0  0  0  0  0  0  0  0  0  0  0  0
   57.7470   33.0670   43.9530 C   0  0  0  0  0  0  0  0  0  0  0  0
   58.3050   32.8540   45.3380 C   0  0  0  0  0  0  0  0  0  0  0  0
   58.4640   33.9580   46.1890 C   0  0  0  0  0  0  0  0  0  0  0  0
   58.8690   33.7840   47.5110 C   0  0  0  0  0  0  0  0  0  0  0  0
   59.1010   32.5020   48.0070 C   0  0  0  0  0  0  0  0  0  0  0  0
   58.9470   31.3940   47.1720 C   0  0  0  0  0  0  0  0  0  0  0  0
   58.5620   31.5540   45.8270 C   0  0  0  0  0  0  0  0  0  0  0  0
   58.9400   27.1140   46.6360 C   0  0  0  0  0  0  0  0  0  0  0  0
   58.2600   25.9840   47.0940 C   0  0  0  0  0  0  0  0  0  0  0  0
   56.7980   22.6930   45.5450 C   0  0  0  0  0  0  0  0  0  0  0  0
   56.3600   23.4390   44.4370 C   0  0  0  0  0  0  0  0  0  0  0  0
   56.4610   22.9120   43.1510 C   0  0  0  0  0  0  0  0  0  0  0  0
   56.9980   21.6380   42.9710 C   0  0  0  0  0  0  0  0  0  0  0  0
   57.4150   20.9220   44.0500 N   0  0  0  0  0  0  0  0  0  0  0  0
   57.3450   21.4190   45.3130 C   0  0  0  0  0  0  0  0  0  0  0  0
   55.1916   26.5909   45.7234 H   0  0  0  0  0  0  0  0  0  0  0  0
   56.4258   28.5626   44.8327 H   0  0  0  0  0  0  0  0  0  0  0  0
   57.7871   29.7184   43.0615 H   0  0  0  0  0  0  0  0  0  0  0  0
   56.5352   30.5920   44.0063 H   0  0  0  0  0  0  0  0  0  0  0  0
   59.0400   31.8289   42.7480 H   0  0  0  0  0  0  0  0  0  0  0  0
   57.3478   31.9810   42.1377 H   0  0  0  0  0  0  0  0  0  0  0  0
   58.2323   33.9492   43.5100 H   0  0  0  0  0  0  0  0  0  0  0  0
   56.6602   33.2065   44.0506 H   0  0  0  0  0  0  0  0  0  0  0  0
   58.2670   34.9712   45.8088 H   0  0  0  0  0  0  0  0  0  0  0  0
   59.0057   34.6589   48.1636 H   0  0  0  0  0  0  0  0  0  0  0  0
   59.4050   32.3637   49.0551 H   0  0  0  0  0  0  0  0  0  0  0  0
   59.1285   30.3844   47.5692 H   0  0  0  0  0  0  0  0  0  0  0  0
   59.9845   27.2845   46.9358 H   0  0  0  0  0  0  0  0  0  0  0  0
   58.7783   25.2541   47.7332 H   0  0  0  0  0  0  0  0  0  0  0  0
   55.9358   24.4429   44.5858 H   0  0  0  0  0  0  0  0  0  0  0  0
   56.1195   23.4969   42.2842 H   0  0  0  0  0  0  0  0  0  0  0  0
   57.0842   21.2132   41.9600 H   0  0  0  0  0  0  0  0  0  0  0  0
   57.8180   19.9680   43.9020 H   0  0  0  0  0  0  0  0  0  0  0  0
   57.7182   20.8215   46.1578 H   0  0  0  0  0  0  0  0  0  0  0  0
  1  2  2  0
  2  3  1  0
  3  4  1  0
  4  5  2  0
  5  6  1  0
  6  7  2  0
  7  8  1  0
  8  9  2  0
  8 10  1  0
 10 11  1  0
 11 12  1  0
 12 13  1  0
 13 14  1  0
 14 15  2  0
 15 16  1  0
 16 17  2  0
 17 18  1  0
 18 19  2  0
  7 20  1  0
 20 21  2  0
  2 22  1  0
 22 23  2  0
 23 24  1  0
 24 25  2  0
 25 26  1  0
 26 27  2  0
 21  4  1  0
 27 22  1  0
 19 10  1  0
 19 14  1  0
  5 28  1  0
  6 29  1  0
 11 30  1  0
 11 31  1  0
 12 32  1  0
 12 33  1  0
 13 34  1  0
 13 35  1  0
 15 36  1  0
 16 37  1  0
 17 38  1  0
 18 39  1  0
 20 40  1  0
 21 41  1  0
 23 42  1  0
 24 43  1  0
 25 44  1  0
 26 45  1  0
 27 46  1  0
M  CHG  2   3  -1  26   1
M  END
>  <UniqueID>  (22) 
22

>  <SMILES>  (22) 
O=C([N-]c1ccc(C(=O)N2CCCc3ccccc32)cc1)c1ccc[nH+]c1

>  <Energy>  (22) 
65.98318712135008

>  <Genealogy>  (22) 
O=C([N-]c1ccc(C(=O)N2CCCc3ccccc32)cc1)c1ccc[nH+]c1 (protonated)
O=C([N-]c1ccc(C(=O)N2CCCc3ccccc32)cc1)c1ccc[nH+]c1 (3D coordinates assigned)
O=C([N-]c1ccc(C(=O)N2CCCc3ccccc32)cc1)c1ccc[nH+]c1 (nonaromatic ring conformer: 65.98318712135008 kcal/mol)

>  <smiles>  (22) 
O=C(Nc1ccc(C(=O)N2CCCc3ccccc32)cc1)c1cccnc1

>  <score_type>  (22) 
oracle

>  <origin>  (22) 
adg

>  <m_score__min__energy>  (22) 
-9.7300000000000004

>  <m_primary>  (22) 
energy

$$$$
22:0
     RDKit          3D

 57 60  0  0  0  0  0  0  0  0999 V2000
   60.0150   30.8050   46.0620 C   0  0  0  0  0  0  0  0  0  0  0  0
   59.6170   32.2630   46.1470 C   0  0  0  0  0  0  0  0  0  0  0  0
   58.5120   32.7570   45.3980 C   0  0  0  0  0  0  0  0  0  0  0  0
   57.7730   31.9330   44.3660 C   0  0  0  0  0  0  0  0  0  0  0  0
   56.6730   31.2220   45.0090 N   0  0  0  0  0  0  0  0  0  0  0  0
   56.3730   29.8370   44.8080 C   0  0  0  0  0  0  0  0  0  0  0  0
   55.1830   29.4280   44.8630 O   0  0  0  0  0  0  0  0  0  0  0  0
   57.4200   28.9060   44.5300 N   0  0  0  0  0  0  0  0  0  0  0  0
   58.0660   28.0920   45.5530 C   0  0  0  0  0  0  0  0  0  0  0  0
   57.2920   26.8340   45.7840 C   0  0  0  0  0  0  0  0  0  0  0  0
   57.8100   25.5620   45.8860 C   0  0  0  0  0  0  0  0  0  0  0  0
   56.6960   24.7850   46.1260 C   0  0  0  0  0  0  0  0  0  0  0  0
   56.6830   23.3010   46.3260 C   0  0  0  0  0  0  0  0  0  0  0  0
   56.3740   22.6050   45.0610 N   0  0  0  0  0  0  0  0  0  0  0  0
   57.4780   21.6950   44.6980 C   0  0  0  0  0  0  0  0  0  0  0  0
   57.2490   21.0870   43.2990 C   0  0  0  0  0  0  0  0  0  0  0  0
   55.9690   21.4140   42.7970 O   0  0  0  0  0  0  0  0  0  0  0  0
   55.8630   22.8160   42.6440 C   0  0  0  0  0  0  0  0  0  0  0  0
   56.1380   23.5660   43.9650 C   0  0  0  0  0  0  0  0  0  0  0  0
   55.5940   25.5610   46.1600 N   0  0  0  0  0  0  0  0  0  0  0  0
   55.9900   26.7830   45.9530 O   0  0  0  0  0  0  0  0  0  0  0  0
   58.1310   34.1020   45.5370 C   0  0  0  0  0  0  0  0  0  0  0  0
   58.8140   34.9540   46.3980 C   0  0  0  0  0  0  0  0  0  0  0  0
   59.9170   34.4910   47.1070 C   0  0  0  0  0  0  0  0  0  0  0  0
   60.3470   33.1630   46.9730 C   0  0  0  0  0  0  0  0  0  0  0  0
   61.5890   32.7660   47.6780 C   0  0  0  0  0  0  0  0  0  0  0  0
   62.8260   33.3150   47.2970 C   0  0  0  0  0  0  0  0  0  0  0  0
   63.9930   32.9560   47.9770 C   0  0  0  0  0  0  0  0  0  0  0  0
   63.9330   32.0600   49.0480 C   0  0  0  0  0  0  0  0  0  0  0  0
   62.7060   31.5220   49.4410 C   0  0  0  0  0  0  0  0  0  0  0  0
   61.5350   31.8760   48.7630 C   0  0  0  0  0  0  0  0  0  0  0  0
   60.1267   30.3957   47.0769 H   0  0  0  0  0  0  0  0  0  0  0  0
   59.2373   30.2434   45.5237 H   0  0  0  0  0  0  0  0  0  0  0  0
   60.9702   30.7164   45.5237 H   0  0  0  0  0  0  0  0  0  0  0  0
   57.3739   32.5962   43.5844 H   0  0  0  0  0  0  0  0  0  0  0  0
   58.4640   31.2070   43.9128 H   0  0  0  0  0  0  0  0  0  0  0  0
   59.0837   27.8360   45.2232 H   0  0  0  0  0  0  0  0  0  0  0  0
   58.1054   28.6640   46.4917 H   0  0  0  0  0  0  0  0  0  0  0  0
   58.8589   25.2428   45.7974 H   0  0  0  0  0  0  0  0  0  0  0  0
   57.6711   22.9766   46.6843 H   0  0  0  0  0  0  0  0  0  0  0  0
   55.9073   23.0512   47.0649 H   0  0  0  0  0  0  0  0  0  0  0  0
   58.4233   22.2575   44.6965 H   0  0  0  0  0  0  0  0  0  0  0  0
   57.5192   20.8791   45.4346 H   0  0  0  0  0  0  0  0  0  0  0  0
   58.0135   21.4761   42.6104 H   0  0  0  0  0  0  0  0  0  0  0  0
   57.3186   19.9924   43.3820 H   0  0  0  0  0  0  0  0  0  0  0  0
   56.5922   23.1468   41.8897 H   0  0  0  0  0  0  0  0  0  0  0  0
   54.8338   23.0461   42.3314 H   0  0  0  0  0  0  0  0  0  0  0  0
   57.0270   24.2022   43.8427 H   0  0  0  0  0  0  0  0  0  0  0  0
   55.2630   24.1844   44.2139 H   0  0  0  0  0  0  0  0  0  0  0  0
   57.2798   34.4869   44.9562 H   0  0  0  0  0  0  0  0  0  0  0  0
   58.4813   35.9956   46.5184 H   0  0  0  0  0  0  0  0  0  0  0  0
   60.4576   35.1732   47.7796 H   0  0  0  0  0  0  0  0  0  0  0  0
   62.8754   34.0289   46.4616 H   0  0  0  0  0  0  0  0  0  0  0  0
   64.9604   33.3793   47.6688 H   0  0  0  0  0  0  0  0  0  0  0  0
   64.8529   31.7786   49.5815 H   0  0  0  0  0  0  0  0  0  0  0  0
   62.6602   30.8185   50.2854 H   0  0  0  0  0  0  0  0  0  0  0  0
   60.5691   31.4562   49.0805 H   0  0  0  0  0  0  0  0  0  0  0  0
  1  2  1  0
  2  3  2  0
  3  4  1  0
  4  5  1  0
  5  6  1  0
  6  7  2  0
  6  8  1  0
  8  9  1  0
  9 10  1  0
 10 11  2  0
 11 12  1  0
 12 13  1  0
 13 14  1  0
 14 15  1  0
 15 16  1  0
 16 17  1  0
 17 18  1  0
 18 19  1  0
 12 20  2  0
 20 21  1  0
  3 22  1  0
 22 23  2  0
 23 24  1  0
 24 25  2  0
 25 26  1  0
 26 27  2  0
 27 28  1  0
 28 29  2  0
 29 30  1  0
 30 31  2  0
 25  2  1  0
 31 26  1  0
 21 10  1  0
 19 14  1  0
  1 32  1  0
  1 33  1  0
  1 34  1  0
  4 35  1  0
  4 36  1  0
  9 37  1  0
  9 38  1  0
 11 39  1  0
 13 40  1  0
 13 41  1  0
 15 42  1  0
 15 43  1  0
 16 44  1  0
 16 45  1  0
 18 46  1  0
 18 47  1  0
 19 48  1  0
 19 49  1  0
 22 50  1  0
 23 51  1  0
 24 52  1  0
 27 53  1  0
 28 54  1  0
 29 55  1  0
 30 56  1  0
 31 57  1  0
M  CHG  2   5  -1   8  -1
M  END
>  <UniqueID>  (23) 
23

>  <SMILES>  (23) 
Cc1c(C[N-]C(=O)[N-]Cc2cc(CN3CCOCC3)no2)cccc1-c1ccccc1

>  <Energy>  (23) 
105.85686371471691

>  <Genealogy>  (23) 
Cc1c(C[N-]C(=O)[N-]Cc2cc(CN3CCOCC3)no2)cccc1-c1ccccc1 (protonated)
Cc1c(C[N-]C(=O)[N-]Cc2cc(CN3CCOCC3)no2)cccc1-c1ccccc1 (3D coordinates assigned)
Cc1c(C[N-]C(=O)[N-]Cc2cc(CN3CCOCC3)no2)cccc1-c1ccccc1 (nonaromatic ring conformer: 105.85686371471691 kcal/mol)

>  <smiles>  (23) 
Cc1c(CNC(=O)NCc2cc(CN3CCOCC3)no2)cccc1-c1ccccc1

>  <score_type>  (23) 
oracle

>  <origin>  (23) 
adg

>  <m_score__min__energy>  (23) 
-15.17

>  <m_primary>  (23) 
energy

$$$$
23:0
     RDKit          3D

 48 50  0  0  0  0  0  0  0  0999 V2000
   56.9660   30.9340   52.0330 C   0  0  0  0  0  0  0  0  0  0  0  0
   57.6450   29.7770   51.5490 O   0  0  0  0  0  0  0  0  0  0  0  0
   58.7100   29.8100   50.6360 C   0  0  0  0  0  0  0  0  0  0  0  0
   59.9800   30.1540   51.1090 C   0  0  0  0  0  0  0  0  0  0  0  0
   61.0710   30.1920   50.2380 C   0  0  0  0  0  0  0  0  0  0  0  0
   60.9040   29.8900   48.8840 C   0  0  0  0  0  0  0  0  0  0  0  0
   59.6330   29.5470   48.3810 C   0  0  0  0  0  0  0  0  0  0  0  0
   59.4180   29.2200   46.9460 C   0  0  0  0  0  0  0  0  0  0  0  0
   60.4200   28.8330   46.0500 C   0  0  0  0  0  0  0  0  0  0  0  0
   59.7070   28.5830   44.5460 S   0  0  0  0  0  0  0  0  0  0  0  0
   58.1640   28.9650   45.0830 C   0  0  0  0  0  0  0  0  0  0  0  0
   56.9330   28.9810   44.2200 C   0  0  0  0  0  0  0  0  0  0  0  0
   56.5740   30.3900   43.7390 C   0  0  0  0  0  0  0  0  0  0  0  0
   56.7080   31.3420   44.8390 N   0  0  0  0  0  0  0  0  0  0  0  0
   57.3890   32.6040   44.7880 C   0  0  0  0  0  0  0  0  0  0  0  0
   57.4080   33.2250   43.6920 O   0  0  0  0  0  0  0  0  0  0  0  0
   58.0800   33.1910   45.9560 C   0  0  0  0  0  0  0  0  0  0  0  0
   58.3760   34.4160   45.9690 O   0  0  0  0  0  0  0  0  0  0  0  0
   58.4370   32.3620   47.0730 N   0  0  0  0  0  0  0  0  0  0  0  0
   58.9000   32.9140   48.3440 C   0  0  0  0  0  0  0  0  0  0  0  0
   60.3640   33.2420   48.2490 C   0  0  0  0  0  0  0  0  0  0  0  0
   61.1110   32.8340   47.1300 C   0  0  0  0  0  0  0  0  0  0  0  0
   62.4860   33.0830   47.0740 C   0  0  0  0  0  0  0  0  0  0  0  0
   63.1240   33.7360   48.1330 C   0  0  0  0  0  0  0  0  0  0  0  0
   62.3890   34.1390   49.2510 C   0  0  0  0  0  0  0  0  0  0  0  0
   61.0140   33.8900   49.3140 C   0  0  0  0  0  0  0  0  0  0  0  0
   58.1770   29.2910   46.3930 N   0  0  0  0  0  0  0  0  0  0  0  0
   58.5410   29.5100   49.2710 C   0  0  0  0  0  0  0  0  0  0  0  0
   56.9696   30.9279   53.1330 H   0  0  0  0  0  0  0  0  0  0  0  0
   57.4770   31.8378   51.6697 H   0  0  0  0  0  0  0  0  0  0  0  0
   55.9278   30.9287   51.6697 H   0  0  0  0  0  0  0  0  0  0  0  0
   60.1206   30.3960   52.1728 H   0  0  0  0  0  0  0  0  0  0  0  0
   62.0669   30.4611   50.6198 H   0  0  0  0  0  0  0  0  0  0  0  0
   61.7700   29.9202   48.2064 H   0  0  0  0  0  0  0  0  0  0  0  0
   61.4875   28.7130   46.2869 H   0  0  0  0  0  0  0  0  0  0  0  0
   57.1092   28.3424   43.3419 H   0  0  0  0  0  0  0  0  0  0  0  0
   56.0938   28.6104   44.8269 H   0  0  0  0  0  0  0  0  0  0  0  0
   57.2511   30.6796   42.9219 H   0  0  0  0  0  0  0  0  0  0  0  0
   55.5339   30.3956   43.3809 H   0  0  0  0  0  0  0  0  0  0  0  0
   58.2040   31.3440   47.0490 H   0  0  0  0  0  0  0  0  0  0  0  0
   58.3342   33.8290   48.5734 H   0  0  0  0  0  0  0  0  0  0  0  0
   58.7430   32.1736   49.1422 H   0  0  0  0  0  0  0  0  0  0  0  0
   60.6126   32.3176   46.2964 H   0  0  0  0  0  0  0  0  0  0  0  0
   63.0664   32.7647   46.1955 H   0  0  0  0  0  0  0  0  0  0  0  0
   64.2053   33.9326   48.0860 H   0  0  0  0  0  0  0  0  0  0  0  0
   62.8926   34.6530   50.0830 H   0  0  0  0  0  0  0  0  0  0  0  0
   60.4399   34.2019   50.1989 H   0  0  0  0  0  0  0  0  0  0  0  0
   57.5427   29.2430   48.8939 H   0  0  0  0  0  0  0  0  0  0  0  0
  1  2  1  0
  2  3  1  0
  3  4  2  0
  4  5  1  0
  5  6  2  0
  6  7  1  0
  7  8  1  0
  8  9  2  0
  9 10  1  0
 10 11  1  0
 11 12  1  0
 12 13  1  0
 13 14  1  0
 14 15  1  0
 15 16  2  0
 15 17  1  0
 17 18  2  0
 17 19  1  0
 19 20  1  0
 20 21  1  0
 21 22  2  0
 22 23  1  0
 23 24  2  0
 24 25  1  0
 25 26  2  0
 11 27  2  0
  7 28  2  0
 28  3  1  0
 27  8  1  0
 26 21  1  0
  1 29  1  0
  1 30  1  0
  1 31  1  0
  4 32  1  0
  5 33  1  0
  6 34  1  0
  9 35  1  0
 12 36  1  0
 12 37  1  0
 13 38  1  0
 13 39  1  0
 19 40  1  0
 20 41  1  0
 20 42  1  0
 22 43  1  0
 23 44  1  0
 24 45  1  0
 25 46  1  0
 26 47  1  0
 28 48  1  0
M  CHG  1  14  -1
M  END
>  <UniqueID>  (24) 
24

>  <SMILES>  (24) 
COc1cccc(-c2csc(CC[N-]C(=O)C(=O)NCc3ccccc3)n2)c1

>  <Energy>  (24) 
73.57049228186354

>  <Genealogy>  (24) 
COc1cccc(-c2csc(CC[N-]C(=O)C(=O)NCc3ccccc3)n2)c1 (protonated)
COc1cccc(-c2csc(CC[N-]C(=O)C(=O)NCc3ccccc3)n2)c1 (3D coordinates assigned)
COc1cccc(-c2csc(CC[N-]C(=O)C(=O)NCc3ccccc3)n2)c1 (optimized conformer: 73.57049228186354 kcal/mol)

>  <smiles>  (24) 
COc1cccc(-c2csc(CCNC(=O)C(=O)NCc3ccccc3)n2)c1

>  <score_type>  (24) 
oracle

>  <origin>  (24) 
adg

>  <m_score__min__energy>  (24) 
-9.8699999999999992

>  <m_primary>  (24) 
energy

$$$$
24:0
     RDKit          3D

 49 51  0  0  0  0  0  0  0  0999 V2000
   55.8680   29.7750   43.4610 C   0  0  0  0  0  0  0  0  0  0  0  0
   55.6900   29.3760   44.8150 O   0  0  0  0  0  0  0  0  0  0  0  0
   56.4080   28.3540   45.4520 C   0  0  0  0  0  0  0  0  0  0  0  0
   55.7680   27.1650   45.6360 N   0  0  0  0  0  0  0  0  0  0  0  0
   56.3700   26.0890   46.2060 C   0  0  0  0  0  0  0  0  0  0  0  0
   55.7060   24.9870   46.3600 N   0  0  0  0  0  0  0  0  0  0  0  0
   57.7020   26.1800   46.6110 C   0  0  0  0  0  0  0  0  0  0  0  0
   58.3950   27.3700   46.4230 C   0  0  0  0  0  0  0  0  0  0  0  0
   57.7640   28.4850   45.8510 C   0  0  0  0  0  0  0  0  0  0  0  0
   58.7220   29.9460   45.5340 S   0  0  0  0  0  0  0  0  0  0  0  0
   59.8630   29.9780   46.5100 O   0  0  0  0  0  0  0  0  0  0  0  0
   59.2640   29.9100   44.1320 O   0  0  0  0  0  0  0  0  0  0  0  0
   57.7530   31.3960   45.7330 N   0  0  0  0  0  0  0  0  0  0  0  0
   57.7040   32.1890   44.4780 C   0  0  0  0  0  0  0  0  0  0  0  0
   58.6420   33.4030   44.4930 C   0  0  0  0  0  0  0  0  0  0  0  0
   58.2800   34.3710   45.6460 C   0  0  0  0  0  0  0  0  0  0  0  0
   59.4840   35.2680   46.0210 C   0  0  0  0  0  0  0  0  0  0  0  0
   60.4960   34.5280   46.8610 C   0  0  0  0  0  0  0  0  0  0  0  0
   60.4100   34.5580   48.2640 C   0  0  0  0  0  0  0  0  0  0  0  0
   61.3710   33.9040   49.0410 C   0  0  0  0  0  0  0  0  0  0  0  0
   62.4180   33.2090   48.4260 C   0  0  0  0  0  0  0  0  0  0  0  0
   63.4020   32.5300   49.2270 C   0  0  0  0  0  0  0  0  0  0  0  0
   64.1930   31.9840   49.8700 N   0  0  0  0  0  0  0  0  0  0  0  0
   62.5160   33.1850   47.0310 C   0  0  0  0  0  0  0  0  0  0  0  0
   61.5640   33.8470   46.2500 C   0  0  0  0  0  0  0  0  0  0  0  0
   57.7440   33.6080   46.8860 C   0  0  0  0  0  0  0  0  0  0  0  0
   58.2260   32.1540   46.9130 C   0  0  0  0  0  0  0  0  0  0  0  0
   56.3160   30.7792   43.4305 H   0  0  0  0  0  0  0  0  0  0  0  0
   56.5330   29.0612   42.9528 H   0  0  0  0  0  0  0  0  0  0  0  0
   54.8926   29.7931   42.9528 H   0  0  0  0  0  0  0  0  0  0  0  0
   54.7750   27.0880   45.3220 H   0  0  0  0  0  0  0  0  0  0  0  0
   56.0770   24.1820   46.9130 H   0  0  0  0  0  0  0  0  0  0  0  0
   58.2000   25.3163   47.0757 H   0  0  0  0  0  0  0  0  0  0  0  0
   59.4502   27.4384   46.7261 H   0  0  0  0  0  0  0  0  0  0  0  0
   57.9907   31.5360   43.6405 H   0  0  0  0  0  0  0  0  0  0  0  0
   56.6776   32.5703   44.3722 H   0  0  0  0  0  0  0  0  0  0  0  0
   59.6772   33.0559   44.6266 H   0  0  0  0  0  0  0  0  0  0  0  0
   58.5351   33.9397   43.5388 H   0  0  0  0  0  0  0  0  0  0  0  0
   57.4710   35.0234   45.2855 H   0  0  0  0  0  0  0  0  0  0  0  0
   59.9721   35.6127   45.0975 H   0  0  0  0  0  0  0  0  0  0  0  0
   59.1067   36.1168   46.6102 H   0  0  0  0  0  0  0  0  0  0  0  0
   59.5846   35.0974   48.7516 H   0  0  0  0  0  0  0  0  0  0  0  0
   61.3037   33.9360   50.1385 H   0  0  0  0  0  0  0  0  0  0  0  0
   63.3432   32.6445   46.5477 H   0  0  0  0  0  0  0  0  0  0  0  0
   61.6507   33.8352   45.1535 H   0  0  0  0  0  0  0  0  0  0  0  0
   58.0955   34.1164   47.7960 H   0  0  0  0  0  0  0  0  0  0  0  0
   56.6452   33.6025   46.8348 H   0  0  0  0  0  0  0  0  0  0  0  0
   59.3259   32.1437   46.9253 H   0  0  0  0  0  0  0  0  0  0  0  0
   57.8160   31.6746   47.8141 H   0  0  0  0  0  0  0  0  0  0  0  0
  1  2  1  0
  2  3  1  0
  3  4  1  0
  4  5  1  0
  5  6  2  3
  5  7  1  0
  7  8  2  0
  8  9  1  0
  9 10  1  0
 10 11  2  0
 10 12  2  0
 10 13  1  0
 13 14  1  0
 14 15  1  0
 15 16  1  0
 16 17  1  0
 17 18  1  0
 18 19  2  0
 19 20  1  0
 20 21  2  0
 21 22  1  0
 22 23  3  0
 21 24  1  0
 24 25  2  0
 16 26  1  0
 26 27  1  0
  9  3  2  0
 27 13  1  0
 25 18  1  0
  1 28  1  0
  1 29  1  0
  1 30  1  0
  4 31  1  0
  6 32  1  0
  7 33  1  0
  8 34  1  0
 14 35  1  0
 14 36  1  0
 15 37  1  0
 15 38  1  0
 16 39  1  0
 17 40  1  0
 17 41  1  0
 19 42  1  0
 20 43  1  0
 24 44  1  0
 25 45  1  0
 26 46  1  0
 26 47  1  0
 27 48  1  0
 27 49  1  0
M  END
>  <UniqueID>  (25) 
25

>  <SMILES>  (25) 
COc1[nH]c(=N)ccc1S(=O)(=O)N1CCC(Cc2ccc(C#N)cc2)CC1

>  <Energy>  (25) 
65.64784638660677

>  <Genealogy>  (25) 
COc1[nH]c(=N)ccc1S(=O)(=O)N1CCC(Cc2ccc(C#N)cc2)CC1 (3D coordinates assigned)
COc1[nH]c(=N)ccc1S(=O)(=O)N1CCC(Cc2ccc(C#N)cc2)CC1 (nonaromatic ring conformer: 65.64784638660677 kcal/mol)

>  <smiles>  (25) 
COc1[nH]c(=N)ccc1S(=O)(=O)N1CCC(Cc2ccc(C#N)cc2)CC1

>  <score_type>  (25) 
oracle

>  <origin>  (25) 
adg

>  <m_score__min__energy>  (25) 
-9.5600000000000005

>  <m_primary>  (25) 
energy

$$$$
25:0
     RDKit          3D

 24 25  0  0  0  0  0  0  0  0999 V2000
   55.5190   26.7450   45.7480 N   0  0  0  0  0  0  0  0  0  0  0  0
   56.7800   26.7360   46.0090 C   0  0  0  0  0  0  0  0  0  0  0  0
   57.2960   25.7460   46.7600 N   0  0  0  0  0  0  0  0  0  0  0  0
   58.6060   25.6890   47.0610 C   0  0  0  0  0  0  0  0  0  0  0  0
   59.4390   26.6590   46.5930 N   0  0  0  0  0  0  0  0  0  0  0  0
   58.9410   27.6730   45.8300 C   0  0  0  0  0  0  0  0  0  0  0  0
   57.5910   27.7250   45.5230 C   0  0  0  0  0  0  0  0  0  0  0  0
   57.3470   28.8360   44.7480 C   0  0  0  0  0  0  0  0  0  0  0  0
   56.1130   29.3340   44.1740 C   0  0  0  0  0  0  0  0  0  0  0  0
   55.9950   29.3980   42.7380 N   0  0  0  0  0  0  0  0  0  0  0  0
   55.1140   29.7240   44.8120 O   0  0  0  0  0  0  0  0  0  0  0  0
   58.5910   29.4380   44.6030 C   0  0  0  0  0  0  0  0  0  0  0  0
   59.5120   28.7360   45.2480 N   0  0  0  0  0  0  0  0  0  0  0  0
   60.8920   29.0520   45.3190 C   0  0  0  0  0  0  0  0  0  0  0  0
   61.8490   28.6130   44.3740 N   0  0  0  0  0  0  0  0  0  0  0  0
   61.3370   29.7690   46.2740 O   0  0  0  0  0  0  0  0  0  0  0  0
   55.1460   27.6410   45.3220 H   0  0  0  0  0  0  0  0  0  0  0  0
   56.6990   24.9610   47.1530 H   0  0  0  0  0  0  0  0  0  0  0  0
   58.9997   24.8680   47.6782 H   0  0  0  0  0  0  0  0  0  0  0  0
   56.3040   30.2270   42.1920 H   0  0  0  0  0  0  0  0  0  0  0  0
   55.5770   28.5570   42.2730 H   0  0  0  0  0  0  0  0  0  0  0  0
   58.7831   30.3611   44.0364 H   0  0  0  0  0  0  0  0  0  0  0  0
   62.6770   28.0180   44.6220 H   0  0  0  0  0  0  0  0  0  0  0  0
   61.7010   28.9120   43.3750 H   0  0  0  0  0  0  0  0  0  0  0  0
  1  2  2  3
  2  3  1  0
  3  4  1  0
  4  5  2  0
  5  6  1  0
  6  7  2  0
  7  8  1  0
  8  9  1  0
  9 10  1  0
  9 11  2  0
  8 12  2  0
 12 13  1  0
 13 14  1  0
 14 15  1  0
 14 16  2  0
  7  2  1  0
 13  6  1  0
  1 17  1  0
  3 18  1  0
  4 19  1  0
 10 20  1  0
 10 21  1  0
 12 22  1  0
 15 23  1  0
 15 24  1  0
M  END
>  <smiles>  (26) 
N=c1[nH]cnc2c1c(C(N)=O)cn2C(N)=O

>  <score_type>  (26) 
oracle

>  <origin>  (26) 
adg

>  <m_score__min__energy>  (26) 
-5.8899999999999997

>  <m_primary>  (26) 
energy

$$$$
26:0
     RDKit          3D

 71 76  0  0  0  0  0  0  0  0999 V2000
   59.3268   35.7893   45.4364 H   0  0  0  0  0  0  0  0  0  0  0  0
   58.8330   34.8220   45.2620 C   0  0  0  0  0  0  0  0  0  0  0  0
   59.1110   34.1090   44.1390 N   0  0  0  0  0  0  0  0  0  0  0  0
   58.5260   32.9080   43.8890 C   0  0  0  0  0  0  0  0  0  0  0  0
   58.7780   32.3577   42.9705 H   0  0  0  0  0  0  0  0  0  0  0  0
   57.5990   32.3640   44.7990 C   0  0  0  0  0  0  0  0  0  0  0  0
   56.9540   31.0470   44.5540 C   0  0  0  0  0  0  0  0  0  0  0  0
   56.8710   30.0700   45.4780 N   0  0  0  0  0  0  0  0  0  0  0  0
   56.2330   29.0730   44.8360 C   0  0  0  0  0  0  0  0  0  0  0  0
   55.9220   27.9560   45.4260 N   0  0  0  0  0  0  0  0  0  0  0  0
   56.8180   26.8800   45.7600 C   0  0  0  0  0  0  0  0  0  0  0  0
   56.4840   25.5300   45.5340 C   0  0  0  0  0  0  0  0  0  0  0  0
   55.4896   25.2711   45.1413 H   0  0  0  0  0  0  0  0  0  0  0  0
   57.4060   24.5210   45.8050 C   0  0  0  0  0  0  0  0  0  0  0  0
   57.1304   23.4686   45.6419 H   0  0  0  0  0  0  0  0  0  0  0  0
   58.6790   24.8410   46.2830 C   0  0  0  0  0  0  0  0  0  0  0  0
   59.4011   24.0390   46.4962 H   0  0  0  0  0  0  0  0  0  0  0  0
   59.0420   26.1830   46.4930 C   0  0  0  0  0  0  0  0  0  0  0  0
   60.3950   26.5310   46.9860 C   0  0  0  0  0  0  0  0  0  0  0  0
   61.4210   26.0840   46.4060 O   0  0  0  0  0  0  0  0  0  0  0  0
   60.5550   27.3300   48.1610 N   0  0  0  0  0  0  0  0  0  0  0  0
   60.0850   28.6770   48.3040 C   0  0  0  0  0  0  0  0  0  0  0  0
   59.6170   29.0950   49.5550 C   0  0  0  0  0  0  0  0  0  0  0  0
   59.6435   28.4012   50.4082 H   0  0  0  0  0  0  0  0  0  0  0  0
   59.1160   30.3890   49.7270 C   0  0  0  0  0  0  0  0  0  0  0  0
   58.7407   30.7022   50.7124 H   0  0  0  0  0  0  0  0  0  0  0  0
   59.0880   31.2920   48.6520 C   0  0  0  0  0  0  0  0  0  0  0  0
   58.5610   32.6900   48.8630 C   0  0  0  0  0  0  0  0  0  0  0  0
   57.7574   32.8880   48.1384 H   0  0  0  0  0  0  0  0  0  0  0  0
   58.1731   32.7748   49.8888 H   0  0  0  0  0  0  0  0  0  0  0  0
   59.6920   33.7260   48.6660 C   0  0  0  0  0  0  0  0  0  0  0  0
   59.7687   33.9490   47.5916 H   0  0  0  0  0  0  0  0  0  0  0  0
   59.4188   34.6023   49.2722 H   0  0  0  0  0  0  0  0  0  0  0  0
   61.0240   33.2880   49.1420 N   0  0  0  0  0  0  0  0  0  0  0  0
   62.1130   33.5450   48.1930 C   0  0  0  0  0  0  0  0  0  0  0  0
   61.7646   33.3649   47.1653 H   0  0  0  0  0  0  0  0  0  0  0  0
   62.4490   34.5899   48.2660 H   0  0  0  0  0  0  0  0  0  0  0  0
   63.2530   32.5940   48.5280 C   0  0  0  0  0  0  0  0  0  0  0  0
   62.9733   31.5790   48.2092 H   0  0  0  0  0  0  0  0  0  0  0  0
   64.1523   32.9448   48.0006 H   0  0  0  0  0  0  0  0  0  0  0  0
   63.5530   32.5730   49.9720 N   0  0  0  0  0  0  0  0  0  0  0  0
   64.7130   31.8370   50.4260 C   0  0  0  0  0  0  0  0  0  0  0  0
   64.5650   30.6540   51.1820 C   0  0  0  0  0  0  0  0  0  0  0  0
   63.5578   30.2850   51.4256 H   0  0  0  0  0  0  0  0  0  0  0  0
   65.6880   29.9470   51.6240 C   0  0  0  0  0  0  0  0  0  0  0  0
   65.5619   29.0246   52.2099 H   0  0  0  0  0  0  0  0  0  0  0  0
   66.9710   30.4130   51.3210 C   0  0  0  0  0  0  0  0  0  0  0  0
   67.8542   29.8560   51.6671 H   0  0  0  0  0  0  0  0  0  0  0  0
   67.1320   31.5870   50.5780 C   0  0  0  0  0  0  0  0  0  0  0  0
   68.1425   31.9523   50.3427 H   0  0  0  0  0  0  0  0  0  0  0  0
   66.0100   32.3000   50.1320 C   0  0  0  0  0  0  0  0  0  0  0  0
   66.1434   33.2241   49.5505 H   0  0  0  0  0  0  0  0  0  0  0  0
   62.6980   33.2130   50.9980 C   0  0  0  0  0  0  0  0  0  0  0  0
   62.4400   32.4527   51.7500 H   0  0  0  0  0  0  0  0  0  0  0  0
   63.2824   34.0505   51.4068 H   0  0  0  0  0  0  0  0  0  0  0  0
   61.3830   33.8240   50.4630 C   0  0  0  0  0  0  0  0  0  0  0  0
   60.5721   33.5968   51.1707 H   0  0  0  0  0  0  0  0  0  0  0  0
   61.5296   34.9094   50.3608 H   0  0  0  0  0  0  0  0  0  0  0  0
   59.5640   30.8760   47.3990 C   0  0  0  0  0  0  0  0  0  0  0  0
   59.5521   31.5753   46.5500 H   0  0  0  0  0  0  0  0  0  0  0  0
   60.0540   29.5760   47.2230 C   0  0  0  0  0  0  0  0  0  0  0  0
   60.4163   29.2566   46.2347 H   0  0  0  0  0  0  0  0  0  0  0  0
   58.1010   27.1960   46.2250 C   0  0  0  0  0  0  0  0  0  0  0  0
   58.3771   28.2490   46.3829 H   0  0  0  0  0  0  0  0  0  0  0  0
   55.8960   29.3680   43.5630 N   0  0  0  0  0  0  0  0  0  0  0  0
   56.3600   30.6140   43.3850 C   0  0  0  0  0  0  0  0  0  0  0  0
   56.2801   31.1977   42.4561 H   0  0  0  0  0  0  0  0  0  0  0  0
   57.3040   33.0920   45.9620 C   0  0  0  0  0  0  0  0  0  0  0  0
   56.5864   32.6915   46.6932 H   0  0  0  0  0  0  0  0  0  0  0  0
   57.9210   34.3260   46.1930 C   0  0  0  0  0  0  0  0  0  0  0  0
   57.6886   34.9005   47.1018 H   0  0  0  0  0  0  0  0  0  0  0  0
  1  2  1  0
  2  3  2  0
  3  4  1  0
  4  5  1  0
  4  6  2  0
  6  7  1  0
  7  8  1  0
  8  9  1  0
  9 10  2  0
 10 11  1  0
 11 12  2  0
 12 13  1  0
 12 14  1  0
 14 15  1  0
 14 16  2  0
 16 17  1  0
 16 18  1  0
 18 19  1  0
 19 20  2  0
 19 21  1  0
 21 22  1  0
 22 23  2  0
 23 24  1  0
 23 25  1  0
 25 26  1  0
 25 27  2  0
 27 28  1  0
 28 29  1  0
 28 30  1  0
 28 31  1  0
 31 32  1  0
 31 33  1  0
 31 34  1  0
 34 35  1  0
 35 36  1  0
 35 37  1  0
 35 38  1  0
 38 39  1  0
 38 40  1  0
 38 41  1  0
 41 42  1  0
 42 43  2  0
 43 44  1  0
 43 45  1  0
 45 46  1  0
 45 47  2  0
 47 48  1  0
 47 49  1  0
 49 50  1  0
 49 51  2  0
 51 52  1  0
 41 53  1  0
 53 54  1  0
 53 55  1  0
 53 56  1  0
 56 57  1  0
 56 58  1  0
 27 59  1  0
 59 60  1  0
 59 61  2  0
 61 62  1  0
 18 63  2  0
 63 64  1  0
  9 65  1  0
 65 66  1  0
 66 67  1  0
  6 68  1  0
 68 69  1  0
 68 70  2  0
 70 71  1  0
 70  2  1  0
 66  7  2  0
 63 11  1  0
 61 22  1  0
 56 34  1  0
 51 42  1  0
M  CHG  3   8  -1  21  -1  65  -1
M  END
>  <UniqueID>  (27) 
26

>  <SMILES>  (27) 
O=C([N-]c1ccc(CCN2CCN(c3ccccc3)CC2)cc1)c1cccc(/N=c2\[n-]cc(-c3cccnc3)[n-]2)c1

>  <Energy>  (27) 
136.03704750716645

>  <Genealogy>  (27) 
O=C([N-]c1ccc(CCN2CCN(c3ccccc3)CC2)cc1)c1cccc(N=c2[n-]cc(-c3cccnc3)[n-]2)c1 (protonated)
O=C([N-]c1ccc(CCN2CCN(c3ccccc3)CC2)cc1)c1cccc(/N=c2\[n-]cc(-c3cccnc3)[n-]2)c1 (cis-trans isomerization)
O=C([N-]c1ccc(CCN2CCN(c3ccccc3)CC2)cc1)c1cccc(/N=c2\[n-]cc(-c3cccnc3)[n-]2)c1 (3D coordinates assigned)
O=C([N-]c1ccc(CCN2CCN(c3ccccc3)CC2)cc1)c1cccc(/N=c2\[n-]cc(-c3cccnc3)[n-]2)c1 (nonaromatic ring conformer: 136.03704750716645 kcal/mol)

>  <smiles>  (27) 
O=C(Nc1ccc(CCN2CCN(c3ccccc3)CC2)cc1)c1cccc(N=c2[nH]cc(-c3cccnc3)[nH]2)c1

>  <score_type>  (27) 
oracle

>  <origin>  (27) 
adg

>  <m_score__min__energy>  (27) 
-16.120000000000001

>  <m_primary>  (27) 
energy

$$$$
27:0
     RDKit          3D

 44 46  0  0  0  0  0  0  0  0999 V2000
   57.3560   27.2120   47.2180 O   0  0  0  0  0  0  0  0  0  0  0  0
   56.9480   26.9350   46.0580 C   0  0  0  0  0  0  0  0  0  0  0  0
   57.7170   27.4320   44.8590 C   0  0  0  0  0  0  0  0  0  0  0  0
   57.6680   28.9430   44.7560 C   0  0  0  0  0  0  0  0  0  0  0  0
   56.4450   29.6490   44.8010 C   0  0  0  0  0  0  0  0  0  0  0  0
   55.2150   29.0010   44.9360 O   0  0  0  0  0  0  0  0  0  0  0  0
   56.4470   31.0030   44.7050 N   0  0  0  0  0  0  0  0  0  0  0  0
   57.6010   31.7010   44.5580 C   0  0  0  0  0  0  0  0  0  0  0  0
   57.5600   33.4880   44.4710 S   0  0  0  0  0  0  0  0  0  0  0  0
   57.5120   33.7260   46.2810 C   0  0  0  0  0  0  0  0  0  0  0  0
   58.8940   33.6470   46.8680 C   0  0  0  0  0  0  0  0  0  0  0  0
   59.9970   34.1290   46.1410 C   0  0  0  0  0  0  0  0  0  0  0  0
   61.2790   34.0860   46.6960 C   0  0  0  0  0  0  0  0  0  0  0  0
   61.4710   33.5680   47.9800 C   0  0  0  0  0  0  0  0  0  0  0  0
   62.7160   33.5270   48.5170 F   0  0  0  0  0  0  0  0  0  0  0  0
   60.3790   33.0910   48.7120 C   0  0  0  0  0  0  0  0  0  0  0  0
   59.0950   33.1290   48.1600 C   0  0  0  0  0  0  0  0  0  0  0  0
   58.7850   31.0450   44.4870 N   0  0  0  0  0  0  0  0  0  0  0  0
   58.8480   29.6940   44.5770 C   0  0  0  0  0  0  0  0  0  0  0  0
   59.9700   29.1260   44.4960 O   0  0  0  0  0  0  0  0  0  0  0  0
   55.7170   26.2180   45.9190 N   0  0  0  0  0  0  0  0  0  0  0  0
   55.5120   24.8350   46.3350 C   0  0  0  0  0  0  0  0  0  0  0  0
   56.0760   23.9150   45.2910 C   0  0  0  0  0  0  0  0  0  0  0  0
   57.1790   23.0970   45.5840 C   0  0  0  0  0  0  0  0  0  0  0  0
   57.6760   22.2120   44.6210 C   0  0  0  0  0  0  0  0  0  0  0  0
   57.0660   22.1280   43.3660 C   0  0  0  0  0  0  0  0  0  0  0  0
   55.9580   22.9280   43.0730 C   0  0  0  0  0  0  0  0  0  0  0  0
   55.4600   23.8160   44.0320 C   0  0  0  0  0  0  0  0  0  0  0  0
   58.7660   27.1136   44.9499 H   0  0  0  0  0  0  0  0  0  0  0  0
   57.2568   27.0090   43.9539 H   0  0  0  0  0  0  0  0  0  0  0  0
   55.1090   27.9960   44.8980 H   0  0  0  0  0  0  0  0  0  0  0  0
   57.0819   34.7137   46.5033 H   0  0  0  0  0  0  0  0  0  0  0  0
   56.8952   32.9305   46.7244 H   0  0  0  0  0  0  0  0  0  0  0  0
   59.8503   34.5414   45.1318 H   0  0  0  0  0  0  0  0  0  0  0  0
   62.1388   34.4606   46.1211 H   0  0  0  0  0  0  0  0  0  0  0  0
   60.5305   32.6854   49.7232 H   0  0  0  0  0  0  0  0  0  0  0  0
   58.2386   32.7523   48.7385 H   0  0  0  0  0  0  0  0  0  0  0  0
   56.0223   24.6600   47.2936 H   0  0  0  0  0  0  0  0  0  0  0  0
   54.4358   24.6414   46.4547 H   0  0  0  0  0  0  0  0  0  0  0  0
   57.6542   23.1522   46.5745 H   0  0  0  0  0  0  0  0  0  0  0  0
   58.5475   21.5817   44.8516 H   0  0  0  0  0  0  0  0  0  0  0  0
   57.4579   21.4325   42.6093 H   0  0  0  0  0  0  0  0  0  0  0  0
   55.4767   22.8591   42.0863 H   0  0  0  0  0  0  0  0  0  0  0  0
   54.5835   24.4388   43.7999 H   0  0  0  0  0  0  0  0  0  0  0  0
  1  2  2  0
  2  3  1  0
  3  4  1  0
  4  5  2  0
  5  6  1  0
  5  7  1  0
  7  8  1  0
  8  9  1  0
  9 10  1  0
 10 11  1  0
 11 12  2  0
 12 13  1  0
 13 14  2  0
 14 15  1  0
 14 16  1  0
 16 17  2  0
  8 18  2  0
 18 19  1  0
 19 20  2  0
  2 21  1  0
 21 22  1  0
 22 23  1  0
 23 24  2  0
 24 25  1  0
 25 26  2  0
 26 27  1  0
 27 28  2  0
 19  4  1  0
 28 23  1  0
 17 11  1  0
  3 29  1  0
  3 30  1  0
  6 31  1  0
 10 32  1  0
 10 33  1  0
 12 34  1  0
 13 35  1  0
 16 36  1  0
 17 37  1  0
 22 38  1  0
 22 39  1  0
 24 40  1  0
 25 41  1  0
 26 42  1  0
 27 43  1  0
 28 44  1  0
M  CHG  2   7  -1  21  -1
M  END
>  <UniqueID>  (28) 
27

>  <SMILES>  (28) 
O=C(Cc1c(O)[n-]c(SCc2ccc(F)cc2)nc1=O)[N-]Cc1ccccc1

>  <Energy>  (28) 
42.45898047548529

>  <Genealogy>  (28) 
O=C(Cc1c(O)[n-]c(SCc2ccc(F)cc2)nc1=O)[N-]Cc1ccccc1 (protonated)
O=C(Cc1c(O)[n-]c(SCc2ccc(F)cc2)nc1=O)[N-]Cc1ccccc1 (3D coordinates assigned)
O=C(Cc1c(O)[n-]c(SCc2ccc(F)cc2)nc1=O)[N-]Cc1ccccc1 (optimized conformer: 42.45898047548529 kcal/mol)

>  <smiles>  (28) 
O=C(Cc1c(O)[nH]c(SCc2ccc(F)cc2)nc1=O)NCc1ccccc1

>  <score_type>  (28) 
oracle

>  <origin>  (28) 
adg

>  <m_score__min__energy>  (28) 
-13.51

>  <m_primary>  (28) 
energy

$$$$
28:0
     RDKit          3D

 54 58  0  0  0  0  0  0  0  0999 V2000
   56.0010   28.4710   53.6260 O   0  0  0  0  0  0  0  0  0  0  0  0
   56.2710   29.3670   52.7860 C   0  0  0  0  0  0  0  0  0  0  0  0
   55.3300   30.4340   52.5850 N   0  0  0  0  0  0  0  0  0  0  0  0
   54.1100   30.3090   52.1550 C   0  0  0  0  0  0  0  0  0  0  0  0
   53.5270   31.1400   51.2630 N   0  0  0  0  0  0  0  0  0  0  0  0
   52.2370   30.7850   51.0230 C   0  0  0  0  0  0  0  0  0  0  0  0
   51.7860   29.6820   51.7380 C   0  0  0  0  0  0  0  0  0  0  0  0
   53.0510   29.1300   52.7030 S   0  0  0  0  0  0  0  0  0  0  0  0
   57.5120   29.2960   52.0730 N   0  0  0  0  0  0  0  0  0  0  0  0
   57.9250   30.1480   50.9930 C   0  0  0  0  0  0  0  0  0  0  0  0
   58.5090   29.5610   49.8670 C   0  0  0  0  0  0  0  0  0  0  0  0
   58.9110   30.3460   48.7840 C   0  0  0  0  0  0  0  0  0  0  0  0
   58.7190   31.7370   48.7990 C   0  0  0  0  0  0  0  0  0  0  0  0
   59.1220   32.5420   47.6670 N   0  0  0  0  0  0  0  0  0  0  0  0
   60.1830   32.2310   46.7230 C   0  0  2  0  0  0  0  0  0  0  0  0
   60.5940   33.6110   46.1970 C   0  0  0  0  0  0  0  0  0  0  0  0
   59.3350   34.4690   46.3440 C   0  0  0  0  0  0  0  0  0  0  0  0
   58.3010   33.5370   46.9950 C   0  0  1  0  0  0  0  0  0  0  0  0
   57.4440   32.8170   45.9170 C   0  0  0  0  0  0  0  0  0  0  0  0
   58.0370   31.4480   45.4590 C   0  0  2  0  0  0  0  0  0  0  0  0
   57.4140   30.3820   46.2480 N   0  0  0  0  0  0  0  0  0  0  0  0
   56.7850   29.2070   45.7190 C   0  0  0  0  0  0  0  0  0  0  0  0
   55.6930   29.3300   45.1040 O   0  0  0  0  0  0  0  0  0  0  0  0
   57.3640   27.8610   45.8890 C   0  0  0  0  0  0  0  0  0  0  0  0
   58.7580   27.6890   45.8910 C   0  0  0  0  0  0  0  0  0  0  0  0
   59.3110   26.4140   46.0360 C   0  0  0  0  0  0  0  0  0  0  0  0
   58.4780   25.3000   46.1680 C   0  0  0  0  0  0  0  0  0  0  0  0
   57.0900   25.4590   46.1500 C   0  0  0  0  0  0  0  0  0  0  0  0
   56.5300   26.7330   46.0080 C   0  0  0  0  0  0  0  0  0  0  0  0
   55.1460   26.8710   45.9980 O   0  0  0  0  0  0  0  0  0  0  0  0
   59.5930   31.3610   45.5770 C   0  0  0  0  0  0  0  0  0  0  0  0
   58.0980   32.3210   49.9180 C   0  0  0  0  0  0  0  0  0  0  0  0
   57.7080   31.5380   51.0100 C   0  0  0  0  0  0  0  0  0  0  0  0
   57.0800   32.1350   52.0530 F   0  0  0  0  0  0  0  0  0  0  0  0
   51.5968   31.3310   50.3145 H   0  0  0  0  0  0  0  0  0  0  0  0
   50.7779   29.2453   51.6832 H   0  0  0  0  0  0  0  0  0  0  0  0
   58.6533   28.4710   49.8335 H   0  0  0  0  0  0  0  0  0  0  0  0
   59.3823   29.8703   47.9113 H   0  0  0  0  0  0  0  0  0  0  0  0
   61.0274   31.6742   47.1554 H   0  0  0  0  0  0  0  0  0  0  0  0
   61.4187   34.0252   46.7956 H   0  0  0  0  0  0  0  0  0  0  0  0
   60.9541   33.5720   45.1583 H   0  0  0  0  0  0  0  0  0  0  0  0
   59.5318   35.3394   46.9872 H   0  0  0  0  0  0  0  0  0  0  0  0
   58.9874   34.8665   45.3790 H   0  0  0  0  0  0  0  0  0  0  0  0
   57.6101   34.0819   47.6551 H   0  0  0  0  0  0  0  0  0  0  0  0
   56.4406   32.6401   46.3316 H   0  0  0  0  0  0  0  0  0  0  0  0
   57.4221   33.4710   45.0328 H   0  0  0  0  0  0  0  0  0  0  0  0
   57.8122   31.3370   44.3879 H   0  0  0  0  0  0  0  0  0  0  0  0
   59.4175   28.5621   45.7779 H   0  0  0  0  0  0  0  0  0  0  0  0
   60.4036   26.2871   46.0462 H   0  0  0  0  0  0  0  0  0  0  0  0
   58.9151   24.2975   46.2861 H   0  0  0  0  0  0  0  0  0  0  0  0
   56.4359   24.5800   46.2478 H   0  0  0  0  0  0  0  0  0  0  0  0
   59.8692   30.3121   45.7599 H   0  0  0  0  0  0  0  0  0  0  0  0
   60.0088   31.7464   44.6344 H   0  0  0  0  0  0  0  0  0  0  0  0
   57.9169   33.4059   49.9347 H   0  0  0  0  0  0  0  0  0  0  0  0
  1  2  2  0
  2  3  1  0
  3  4  2  3
  4  5  1  0
  5  6  1  0
  6  7  2  0
  7  8  1  0
  2  9  1  0
  9 10  1  0
 10 11  2  0
 11 12  1  0
 12 13  2  0
 13 14  1  0
 14 15  1  0
 15 16  1  0
 16 17  1  0
 17 18  1  0
 18 19  1  0
 19 20  1  0
 20 21  1  0
 21 22  1  0
 22 23  2  0
 22 24  1  0
 24 25  2  0
 25 26  1  0
 26 27  2  0
 27 28  1  0
 28 29  2  0
 29 30  1  0
 20 31  1  0
 13 32  1  0
 32 33  2  0
 33 34  1  0
  8  4  1  0
 33 10  1  0
 18 14  1  0
 29 24  1  0
 31 15  1  0
  6 35  1  0
  7 36  1  0
 11 37  1  0
 12 38  1  0
 15 39  1  1
 16 40  1  0
 16 41  1  0
 17 42  1  0
 17 43  1  0
 18 44  1  1
 19 45  1  0
 19 46  1  0
 20 47  1  6
 25 48  1  0
 26 49  1  0
 27 50  1  0
 28 51  1  0
 31 52  1  0
 31 53  1  0
 32 54  1  0
M  CHG  4   5  -1   9  -1  21  -1  30  -1
M  END
>  <UniqueID>  (29) 
28

>  <SMILES>  (29) 
O=C(N=c1[n-]ccs1)[N-]c1ccc(N2[C@@H]3CC[C@H]2CC([N-]C(=O)c2ccccc2[O-])C3)cc1F

>  <Energy>  (29) 
126.3186589879574

>  <Genealogy>  (29) 
O=C(N=c1[n-]ccs1)[N-]c1ccc(N2C3CCC2CC([N-]C(=O)c2ccccc2[O-])C3)cc1F (protonated)
O=C(N=c1[n-]ccs1)[N-]c1ccc(N2[C@@H]3CC[C@H]2CC([N-]C(=O)c2ccccc2[O-])C3)cc1F (chirality)
O=C(N=c1[n-]ccs1)[N-]c1ccc(N2[C@@H]3CC[C@H]2CC([N-]C(=O)c2ccccc2[O-])C3)cc1F (3D coordinates assigned)
O=C(N=c1[n-]ccs1)[N-]c1ccc(N2[C@@H]3CC[C@H]2CC([N-]C(=O)c2ccccc2[O-])C3)cc1F (nonaromatic ring conformer: 126.3186589879574 kcal/mol)

>  <smiles>  (29) 
O=C(N=c1[nH]ccs1)Nc1ccc(N2C3CCC2CC(NC(=O)c2ccccc2O)C3)cc1F

>  <score_type>  (29) 
oracle

>  <origin>  (29) 
adg

>  <m_score__min__energy>  (29) 
-15.529999999999999

>  <m_primary>  (29) 
energy

$$$$
29:0
     RDKit          3D

 34 35  0  0  0  0  0  0  0  0999 V2000
   59.6439   25.0837   46.7985 H   0  0  0  0  0  0  0  0  0  0  0  0
   58.9620   25.8330   46.3700 C   0  0  0  0  0  0  0  0  0  0  0  0
   57.6550   25.3520   45.8650 C   0  0  0  0  0  0  0  0  0  0  0  0
   57.4200   25.3300   44.6280 O   0  0  0  0  0  0  0  0  0  0  0  0
   56.6850   24.7910   46.7570 N   0  0  0  0  0  0  0  0  0  0  0  0
   55.4950   24.0920   46.3680 C   0  0  0  0  0  0  0  0  0  0  0  0
   55.4880   22.6970   46.4340 C   0  0  0  0  0  0  0  0  0  0  0  0
   56.3850   22.1619   46.7790 H   0  0  0  0  0  0  0  0  0  0  0  0
   54.3530   21.9790   46.0660 C   0  0  0  0  0  0  0  0  0  0  0  0
   54.3552   20.8813   46.1363 H   0  0  0  0  0  0  0  0  0  0  0  0
   53.2110   22.6420   45.6080 C   0  0  0  0  0  0  0  0  0  0  0  0
   52.0940   21.8800   45.2900 O   0  0  0  0  0  0  0  0  0  0  0  0
   53.2090   24.0530   45.4860 C   0  0  0  0  0  0  0  0  0  0  0  0
   52.0640   24.7860   44.9950 N   0  0  0  0  0  0  0  0  0  0  0  0
   52.1270   25.8260   44.9170 H   0  0  0  0  0  0  0  0  0  0  0  0
   50.8570   24.1740   44.4460 C   0  0  0  0  0  0  0  0  0  0  0  0
   50.2062   23.8440   45.2692 H   0  0  0  0  0  0  0  0  0  0  0  0
   50.3216   24.9096   43.8276 H   0  0  0  0  0  0  0  0  0  0  0  0
   51.1340   23.3074   43.8276 H   0  0  0  0  0  0  0  0  0  0  0  0
   54.3670   24.7690   45.8610 C   0  0  0  0  0  0  0  0  0  0  0  0
   54.4090   26.1490   45.6940 O   0  0  0  0  0  0  0  0  0  0  0  0
   59.3830   27.1070   46.3480 C   0  0  0  0  0  0  0  0  0  0  0  0
   60.3845   27.3148   46.7529 H   0  0  0  0  0  0  0  0  0  0  0  0
   58.6110   28.2550   45.8240 C   0  0  0  0  0  0  0  0  0  0  0  0
   59.2550   29.4860   45.6410 C   0  0  0  0  0  0  0  0  0  0  0  0
   60.3306   29.5776   45.8523 H   0  0  0  0  0  0  0  0  0  0  0  0
   58.5370   30.5990   45.1910 C   0  0  0  0  0  0  0  0  0  0  0  0
   59.0525   31.5579   45.0336 H   0  0  0  0  0  0  0  0  0  0  0  0
   57.1660   30.4950   44.9410 C   0  0  0  0  0  0  0  0  0  0  0  0
   56.4580   31.6040   44.4920 O   0  0  0  0  0  0  0  0  0  0  0  0
   56.5080   29.2770   45.1510 C   0  0  0  0  0  0  0  0  0  0  0  0
   55.1410   29.1720   44.9180 O   0  0  0  0  0  0  0  0  0  0  0  0
   57.2250   28.1630   45.6000 C   0  0  0  0  0  0  0  0  0  0  0  0
   56.7032   27.2113   45.7787 H   0  0  0  0  0  0  0  0  0  0  0  0
  1  2  1  0
  2  3  1  0
  3  4  2  0
  3  5  1  0
  5  6  1  0
  6  7  2  0
  7  8  1  0
  7  9  1  0
  9 10  1  0
  9 11  2  0
 11 12  1  0
 11 13  1  0
 13 14  1  0
 14 15  1  0
 14 16  1  0
 16 17  1  0
 16 18  1  0
 16 19  1  0
 13 20  2  0
 20 21  1  0
  2 22  2  0
 22 23  1  0
 22 24  1  0
 24 25  2  0
 25 26  1  0
 25 27  1  0
 27 28  1  0
 27 29  2  0
 29 30  1  0
 29 31  1  0
 31 32  1  0
 31 33  2  0
 33 34  1  0
 20  6  1  0
 33 24  1  0
M  CHG  5   5  -1  12  -1  21  -1  30  -1  32  -1
M  END
>  <UniqueID>  (30) 
29

>  <SMILES>  (30) 
CNc1c([O-])ccc([N-]C(=O)/C=C\c2ccc([O-])c([O-])c2)c1[O-]

>  <Energy>  (30) 
51.20627922242148

>  <Genealogy>  (30) 
CNc1c([O-])ccc([N-]C(=O)C=Cc2ccc([O-])c([O-])c2)c1[O-] (protonated)
CNc1c([O-])ccc([N-]C(=O)/C=C\c2ccc([O-])c([O-])c2)c1[O-] (cis-trans isomerization)
CNc1c([O-])ccc([N-]C(=O)/C=C\c2ccc([O-])c([O-])c2)c1[O-] (3D coordinates assigned)
CNc1c([O-])ccc([N-]C(=O)/C=C\c2ccc([O-])c([O-])c2)c1[O-] (optimized conformer: 51.20627922242148 kcal/mol)

>  <smiles>  (30) 
CNc1c(O)ccc(NC(=O)C=Cc2ccc(O)c(O)c2)c1O

>  <score_type>  (30) 
oracle

>  <origin>  (30) 
adg

>  <m_score__min__energy>  (30) 
-18.030000000000001

>  <m_primary>  (30) 
energy

$$$$
30:0
     RDKit          3D

 36 38  0  0  0  0  0  0  0  0999 V2000
   52.7062   22.5872   46.3002 H   0  0  0  0  0  0  0  0  0  0  0  0
   53.6470   22.5100   46.8650 C   0  0  0  0  0  0  0  0  0  0  0  0
   54.5220   23.5500   46.8740 N   0  0  0  0  0  0  0  0  0  0  0  0
   55.6990   23.5160   47.5570 C   0  0  0  0  0  0  0  0  0  0  0  0
   56.4610   24.5740   47.5010 N   0  0  0  0  0  0  0  0  0  0  0  0
   57.2590   25.0540   46.4070 C   0  0  0  0  0  0  0  0  0  0  0  0
   58.1070   24.2880   45.8770 O   0  0  0  0  0  0  0  0  0  0  0  0
   57.1600   26.4760   45.9830 C   0  0  0  0  0  0  0  0  0  0  0  0
   55.9290   27.0690   45.6380 C   0  0  0  0  0  0  0  0  0  0  0  0
   54.7440   26.3410   45.6660 O   0  0  0  0  0  0  0  0  0  0  0  0
   55.8820   28.3730   45.2670 N   0  0  0  0  0  0  0  0  0  0  0  0
   56.9870   29.1580   45.2070 C   0  0  0  0  0  0  0  0  0  0  0  0
   56.8570   30.3620   44.8600 O   0  0  0  0  0  0  0  0  0  0  0  0
   58.2510   28.6260   45.5380 C   0  0  0  0  0  0  0  0  0  0  0  0
   59.4990   29.4400   45.4910 C   0  0  0  0  0  0  0  0  0  0  0  0
   60.2710   29.3420   44.4990 O   0  0  0  0  0  0  0  0  0  0  0  0
   59.7970   30.3770   46.5360 N   0  0  0  0  0  0  0  0  0  0  0  0
   59.6790   31.8060   46.4680 C   0  0  0  0  0  0  0  0  0  0  0  0
   60.6000   32.6630   47.1000 C   0  0  0  0  0  0  0  0  0  0  0  0
   61.4533   32.2412   47.6514 H   0  0  0  0  0  0  0  0  0  0  0  0
   60.4320   34.0500   47.0280 C   0  0  0  0  0  0  0  0  0  0  0  0
   61.1600   34.7166   47.5135 H   0  0  0  0  0  0  0  0  0  0  0  0
   59.3420   34.5910   46.3410 C   0  0  0  0  0  0  0  0  0  0  0  0
   59.2168   35.6821   46.2796 H   0  0  0  0  0  0  0  0  0  0  0  0
   58.4110   33.7450   45.7320 C   0  0  0  0  0  0  0  0  0  0  0  0
   57.0330   34.4220   44.8830 Cl  0  0  0  0  0  0  0  0  0  0  0  0
   58.5760   32.3570   45.8020 C   0  0  0  0  0  0  0  0  0  0  0  0
   57.8350   31.6942   45.3312 H   0  0  0  0  0  0  0  0  0  0  0  0
   58.3150   27.2760   45.9270 C   0  0  0  0  0  0  0  0  0  0  0  0
   59.2880   26.8372   46.1927 H   0  0  0  0  0  0  0  0  0  0  0  0
   56.0460   22.3280   48.2540 C   0  0  0  0  0  0  0  0  0  0  0  0
   57.2730   22.1640   48.8870 O   0  0  0  0  0  0  0  0  0  0  0  0
   55.1460   21.2580   48.2650 C   0  0  0  0  0  0  0  0  0  0  0  0
   55.3899   20.3425   48.8239 H   0  0  0  0  0  0  0  0  0  0  0  0
   53.9420   21.3470   47.5710 C   0  0  0  0  0  0  0  0  0  0  0  0
   53.2316   20.5072   47.5805 H   0  0  0  0  0  0  0  0  0  0  0  0
  1  2  1  0
  2  3  1  0
  3  4  1  0
  4  5  2  0
  5  6  1  0
  6  7  2  0
  6  8  1  0
  8  9  2  0
  9 10  1  0
  9 11  1  0
 11 12  1  0
 12 13  2  0
 12 14  1  0
 14 15  1  0
 15 16  2  0
 15 17  1  0
 17 18  1  0
 18 19  2  0
 19 20  1  0
 19 21  1  0
 21 22  1  0
 21 23  2  0
 23 24  1  0
 23 25  1  0
 25 26  1  0
 25 27  2  0
 27 28  1  0
 14 29  2  0
 29 30  1  0
  4 31  1  0
 31 32  1  0
 31 33  2  0
 33 34  1  0
 33 35  1  0
 35 36  1  0
 35  2  2  0
 29  8  1  0
 27 18  1  0
M  CHG  5   3  -1  10  -1  11  -1  17  -1  32  -1
M  END
>  <UniqueID>  (31) 
30

>  <SMILES>  (31) 
O=C(/N=c1/[n-]cccc1[O-])c1cc(C(=O)[N-]c2cccc(Cl)c2)c(=O)[n-]c1[O-]

>  <Energy>  (31) 
61.881974301320504

>  <Genealogy>  (31) 
O=C(N=c1[n-]cccc1[O-])c1cc(C(=O)[N-]c2cccc(Cl)c2)c(=O)[n-]c1[O-] (protonated)
O=C(/N=c1/[n-]cccc1[O-])c1cc(C(=O)[N-]c2cccc(Cl)c2)c(=O)[n-]c1[O-] (cis-trans isomerization)
O=C(/N=c1/[n-]cccc1[O-])c1cc(C(=O)[N-]c2cccc(Cl)c2)c(=O)[n-]c1[O-] (3D coordinates assigned)
O=C(/N=c1/[n-]cccc1[O-])c1cc(C(=O)[N-]c2cccc(Cl)c2)c(=O)[n-]c1[O-] (optimized conformer: 61.881974301320504 kcal/mol)

>  <smiles>  (31) 
O=C(N=c1[nH]cccc1O)c1cc(C(=O)Nc2cccc(Cl)c2)c(=O)[nH]c1O

>  <score_type>  (31) 
oracle

>  <origin>  (31) 
adg

>  <m_score__min__energy>  (31) 
-18.100000000000001

>  <m_primary>  (31) 
energy

$$$$
31:0
     RDKit          3D

 41 44  0  0  0  0  0  0  0  0999 V2000
   57.7340   27.2360   43.0970 N   0  0  0  0  0  0  0  0  0  0  0  0
   57.7340   27.9650   44.3310 C   0  0  0  0  0  0  0  0  0  0  0  0
   57.8810   27.3650   45.5950 C   0  0  0  0  0  0  0  0  0  0  0  0
   57.9320   25.9190   45.8940 C   0  0  0  0  0  0  0  0  0  0  0  0
   58.9700   25.4290   46.4140 O   0  0  0  0  0  0  0  0  0  0  0  0
   56.8180   25.0140   45.5290 C   0  0  0  0  0  0  0  0  0  0  0  0
   57.1020   23.6920   45.1420 C   0  0  0  0  0  0  0  0  0  0  0  0
   56.0690   22.8200   44.7880 C   0  0  0  0  0  0  0  0  0  0  0  0
   54.7430   23.2540   44.8250 C   0  0  0  0  0  0  0  0  0  0  0  0
   54.4450   24.5580   45.2260 C   0  0  0  0  0  0  0  0  0  0  0  0
   55.4720   25.4370   45.5880 C   0  0  0  0  0  0  0  0  0  0  0  0
   55.1440   26.7150   46.0270 O   0  0  0  0  0  0  0  0  0  0  0  0
   57.8850   28.5750   46.7850 S   0  0  0  0  0  0  0  0  0  0  0  0
   57.7110   29.8400   45.7040 C   0  0  0  0  0  0  0  0  0  0  0  0
   57.6460   31.1600   46.0050 N   0  0  0  0  0  0  0  0  0  0  0  0
   57.5060   32.0820   45.0080 C   0  0  0  0  0  0  0  0  0  0  0  0
   57.4350   33.5120   45.3530 C   0  0  0  0  0  0  0  0  0  0  0  0
   57.0280   34.3510   44.5040 O   0  0  0  0  0  0  0  0  0  0  0  0
   57.8820   33.9460   46.6450 N   0  0  0  0  0  0  0  0  0  0  0  0
   59.2270   33.9030   47.1440 C   0  0  0  0  0  0  0  0  0  0  0  0
   60.2800   33.8020   46.2260 C   0  0  0  0  0  0  0  0  0  0  0  0
   61.6040   33.7380   46.6720 C   0  0  0  0  0  0  0  0  0  0  0  0
   61.8840   33.7560   48.0410 C   0  0  0  0  0  0  0  0  0  0  0  0
   60.8390   33.8290   48.9670 C   0  0  0  0  0  0  0  0  0  0  0  0
   61.1160   33.8280   50.3280 O   0  0  0  0  0  0  0  0  0  0  0  0
   59.5130   33.8960   48.5230 C   0  0  0  0  0  0  0  0  0  0  0  0
   57.4320   31.6510   43.6610 C   0  0  0  0  0  0  0  0  0  0  0  0
   57.5010   30.2810   43.3580 C   0  0  0  0  0  0  0  0  0  0  0  0
   57.6400   29.3680   44.4070 C   0  0  0  0  0  0  0  0  0  0  0  0
   57.0080   26.5160   42.8940 H   0  0  0  0  0  0  0  0  0  0  0  0
   58.4250   27.4410   42.3450 H   0  0  0  0  0  0  0  0  0  0  0  0
   58.1446   23.3420   45.1178 H   0  0  0  0  0  0  0  0  0  0  0  0
   56.3013   21.7900   44.4797 H   0  0  0  0  0  0  0  0  0  0  0  0
   53.9321   22.5684   44.5381 H   0  0  0  0  0  0  0  0  0  0  0  0
   53.3986   24.8957   45.2575 H   0  0  0  0  0  0  0  0  0  0  0  0
   60.0643   33.7728   45.1477 H   0  0  0  0  0  0  0  0  0  0  0  0
   62.4262   33.6734   45.9441 H   0  0  0  0  0  0  0  0  0  0  0  0
   62.9263   33.7128   48.3900 H   0  0  0  0  0  0  0  0  0  0  0  0
   58.6919   33.9433   49.2535 H   0  0  0  0  0  0  0  0  0  0  0  0
   57.3206   32.3885   42.8525 H   0  0  0  0  0  0  0  0  0  0  0  0
   57.4467   29.9337   42.3157 H   0  0  0  0  0  0  0  0  0  0  0  0
  1  2  1  0
  2  3  2  0
  3  4  1  0
  4  5  2  0
  4  6  1  0
  6  7  2  0
  7  8  1  0
  8  9  2  0
  9 10  1  0
 10 11  2  0
 11 12  1  0
  3 13  1  0
 13 14  1  0
 14 15  2  0
 15 16  1  0
 16 17  1  0
 17 18  2  0
 17 19  1  0
 19 20  1  0
 20 21  2  0
 21 22  1  0
 22 23  2  0
 23 24  1  0
 24 25  1  0
 24 26  2  0
 16 27  2  0
 27 28  1  0
 28 29  2  0
 29  2  1  0
 11  6  1  0
 29 14  1  0
 26 20  1  0
  1 30  1  0
  1 31  1  0
  7 32  1  0
  8 33  1  0
  9 34  1  0
 10 35  1  0
 21 36  1  0
 22 37  1  0
 23 38  1  0
 26 39  1  0
 27 40  1  0
 28 41  1  0
M  CHG  3  12  -1  19  -1  25  -1
M  END
>  <UniqueID>  (32) 
31

>  <SMILES>  (32) 
Nc1c(C(=O)c2ccccc2[O-])sc2nc(C(=O)[N-]c3cccc([O-])c3)ccc12

>  <Energy>  (32) 
90.53474767984778

>  <Genealogy>  (32) 
Nc1c(C(=O)c2ccccc2[O-])sc2nc(C(=O)[N-]c3cccc([O-])c3)ccc12 (protonated)
Nc1c(C(=O)c2ccccc2[O-])sc2nc(C(=O)[N-]c3cccc([O-])c3)ccc12 (3D coordinates assigned)
Nc1c(C(=O)c2ccccc2[O-])sc2nc(C(=O)[N-]c3cccc([O-])c3)ccc12 (optimized conformer: 90.53474767984778 kcal/mol)

>  <smiles>  (32) 
Nc1c(C(=O)c2ccccc2O)sc2nc(C(=O)Nc3cccc(O)c3)ccc12

>  <score_type>  (32) 
oracle

>  <origin>  (32) 
adg

>  <m_score__min__energy>  (32) 
-14.050000000000001

>  <m_primary>  (32) 
energy

$$$$
32:0
     RDKit          3D

 29 30  0  0  0  0  0  0  0  0999 V2000
   56.2360   29.1440   45.1970 O   0  0  0  0  0  0  0  0  0  0  0  0
   56.8530   28.1560   45.6800 C   0  0  0  0  0  0  0  0  0  0  0  0
   56.2160   26.8270   45.7080 C   0  0  0  0  0  0  0  0  0  0  0  0
   54.8600   26.7110   45.9900 O   0  0  0  0  0  0  0  0  0  0  0  0
   57.0820   25.4740   45.4000 S   0  0  0  0  0  0  0  0  0  0  0  0
   58.1920   28.3630   46.2610 C   0  0  0  0  0  0  0  0  0  0  0  0
   58.5270   27.6500   47.4220 C   0  0  0  0  0  0  0  0  0  0  0  0
   59.7810   27.8090   48.0150 C   0  0  0  0  0  0  0  0  0  0  0  0
   60.7090   28.6890   47.4600 C   0  0  0  0  0  0  0  0  0  0  0  0
   60.3840   29.4200   46.3160 C   0  0  0  0  0  0  0  0  0  0  0  0
   59.1290   29.2690   45.6990 C   0  0  0  0  0  0  0  0  0  0  0  0
   58.7920   30.1460   44.5130 C   0  0  0  0  0  0  0  0  0  0  0  0
   58.2980   31.4950   44.9680 C   0  0  0  0  0  0  0  0  0  0  0  0
   57.9300   32.4660   44.0210 C   0  0  0  0  0  0  0  0  0  0  0  0
   57.4870   33.7250   44.4390 C   0  0  0  0  0  0  0  0  0  0  0  0
   57.4090   34.0230   45.8020 C   0  0  0  0  0  0  0  0  0  0  0  0
   57.7730   33.0620   46.7490 C   0  0  0  0  0  0  0  0  0  0  0  0
   58.2150   31.8020   46.3360 C   0  0  0  0  0  0  0  0  0  0  0  0
   57.7958   26.9602   47.8686 H   0  0  0  0  0  0  0  0  0  0  0  0
   60.0369   27.2396   48.9207 H   0  0  0  0  0  0  0  0  0  0  0  0
   61.6991   28.8075   47.9244 H   0  0  0  0  0  0  0  0  0  0  0  0
   61.1174   30.1219   45.8924 H   0  0  0  0  0  0  0  0  0  0  0  0
   59.6931   30.2810   43.8968 H   0  0  0  0  0  0  0  0  0  0  0  0
   57.9978   29.6585   43.9285 H   0  0  0  0  0  0  0  0  0  0  0  0
   57.9906   32.2350   42.9472 H   0  0  0  0  0  0  0  0  0  0  0  0
   57.1996   34.4815   43.6939 H   0  0  0  0  0  0  0  0  0  0  0  0
   57.0611   35.0138   46.1294 H   0  0  0  0  0  0  0  0  0  0  0  0
   57.7115   33.2977   47.8217 H   0  0  0  0  0  0  0  0  0  0  0  0
   58.4989   31.0481   47.0851 H   0  0  0  0  0  0  0  0  0  0  0  0
  1  2  2  0
  2  3  1  0
  3  4  1  0
  3  5  2  0
  2  6  1  0
  6  7  2  0
  7  8  1  0
  8  9  2  0
  9 10  1  0
 10 11  2  0
 11 12  1  0
 12 13  1  0
 13 14  2  0
 14 15  1  0
 15 16  2  0
 16 17  1  0
 17 18  2  0
 11  6  1  0
 18 13  1  0
  7 19  1  0
  8 20  1  0
  9 21  1  0
 10 22  1  0
 12 23  1  0
 12 24  1  0
 14 25  1  0
 15 26  1  0
 16 27  1  0
 17 28  1  0
 18 29  1  0
M  CHG  1   4  -1
M  END
>  <UniqueID>  (33) 
32

>  <SMILES>  (33) 
O=C(C([O-])=S)c1ccccc1Cc1ccccc1

>  <Energy>  (33) 
35.679490648922865

>  <Genealogy>  (33) 
O=C(C([O-])=S)c1ccccc1Cc1ccccc1 (protonated)
O=C(C([O-])=S)c1ccccc1Cc1ccccc1 (3D coordinates assigned)
O=C(C([O-])=S)c1ccccc1Cc1ccccc1 (optimized conformer: 35.679490648922865 kcal/mol)

>  <smiles>  (33) 
O=C(C(O)=S)c1ccccc1Cc1ccccc1

>  <score_type>  (33) 
oracle

>  <origin>  (33) 
adg

>  <m_score__min__energy>  (33) 
-10.68

>  <m_primary>  (33) 
energy

$$$$
33:0
     RDKit          3D

 39 40  0  0  0  0  0  0  0  0999 V2000
   58.5420   34.3790   52.7800 C   0  0  0  0  0  0  0  0  0  0  0  0
   57.7670   33.4230   52.0640 O   0  0  0  0  0  0  0  0  0  0  0  0
   58.3070   32.3930   51.2790 C   0  0  0  0  0  0  0  0  0  0  0  0
   59.1710   32.6420   50.1960 C   0  0  0  0  0  0  0  0  0  0  0  0
   59.6830   31.5810   49.4450 C   0  0  0  0  0  0  0  0  0  0  0  0
   59.3540   30.2540   49.7670 C   0  0  0  0  0  0  0  0  0  0  0  0
   59.8900   29.1380   48.9550 C   0  0  0  0  0  0  0  0  0  0  0  0
   60.9290   28.5400   49.3460 O   0  0  0  0  0  0  0  0  0  0  0  0
   59.2490   28.7160   47.7370 N   0  0  0  0  0  0  0  0  0  0  0  0
   58.8640   29.4970   46.7030 C   0  0  0  0  0  0  0  0  0  0  0  0
   58.2380   28.7000   45.7630 C   0  0  0  0  0  0  0  0  0  0  0  0
   57.7200   29.1500   44.4310 C   0  0  0  0  0  0  0  0  0  0  0  0
   56.4690   29.9480   44.6140 C   0  0  0  0  0  0  0  0  0  0  0  0
   55.2340   29.2880   44.8780 N   0  0  0  0  0  0  0  0  0  0  0  0
   56.5000   31.2020   44.4950 O   0  0  0  0  0  0  0  0  0  0  0  0
   58.2370   27.4270   46.2070 N   0  0  0  0  0  0  0  0  0  0  0  0
   57.7120   26.3260   45.5030 N   0  0  0  0  0  0  0  0  0  0  0  0
   56.2380   25.5000   45.8920 S   0  0  0  0  0  0  0  0  0  0  0  0
   55.8820   24.2620   44.6630 C   0  0  0  0  0  0  0  0  0  0  0  0
   55.1060   26.4820   46.0030 O   0  0  0  0  0  0  0  0  0  0  0  0
   56.4100   24.8160   47.2190 O   0  0  0  0  0  0  0  0  0  0  0  0
   58.8490   27.4670   47.4110 C   0  0  0  0  0  0  0  0  0  0  0  0
   59.0440   26.4630   48.1450 O   0  0  0  0  0  0  0  0  0  0  0  0
   58.4780   30.0110   50.8390 C   0  0  0  0  0  0  0  0  0  0  0  0
   57.9640   31.0730   51.5890 C   0  0  0  0  0  0  0  0  0  0  0  0
   58.4132   34.2201   53.8608 H   0  0  0  0  0  0  0  0  0  0  0  0
   59.6035   34.2622   52.5162 H   0  0  0  0  0  0  0  0  0  0  0  0
   58.2081   35.3934   52.5162 H   0  0  0  0  0  0  0  0  0  0  0  0
   59.4442   33.6763   49.9399 H   0  0  0  0  0  0  0  0  0  0  0  0
   60.3494   31.7866   48.5943 H   0  0  0  0  0  0  0  0  0  0  0  0
   59.0221   30.5827   46.6232 H   0  0  0  0  0  0  0  0  0  0  0  0
   58.4800   29.7719   43.9354 H   0  0  0  0  0  0  0  0  0  0  0  0
   57.4993   28.2680   43.8118 H   0  0  0  0  0  0  0  0  0  0  0  0
   55.1490   28.6020   45.6600 H   0  0  0  0  0  0  0  0  0  0  0  0
   55.6108   23.3190   45.1603 H   0  0  0  0  0  0  0  0  0  0  0  0
   55.0444   24.5993   44.0347 H   0  0  0  0  0  0  0  0  0  0  0  0
   56.7708   24.1028   44.0347 H   0  0  0  0  0  0  0  0  0  0  0  0
   58.1949   28.9780   51.0896 H   0  0  0  0  0  0  0  0  0  0  0  0
   57.2845   30.8688   52.4296 H   0  0  0  0  0  0  0  0  0  0  0  0
  1  2  1  0
  2  3  1  0
  3  4  2  0
  4  5  1  0
  5  6  2  0
  6  7  1  0
  7  8  2  0
  7  9  1  0
  9 10  1  0
 10 11  2  0
 11 12  1  0
 12 13  1  0
 13 14  1  0
 13 15  2  0
 11 16  1  0
 16 17  1  0
 17 18  1  0
 18 19  1  0
 18 20  2  0
 18 21  2  0
 16 22  1  0
 22 23  2  0
  6 24  1  0
 24 25  2  0
 25  3  1  0
 22  9  1  0
  1 26  1  0
  1 27  1  0
  1 28  1  0
  4 29  1  0
  5 30  1  0
 10 31  1  0
 12 32  1  0
 12 33  1  0
 14 34  1  0
 19 35  1  0
 19 36  1  0
 19 37  1  0
 24 38  1  0
 25 39  1  0
M  CHG  2  14  -1  17  -1
M  END
>  <UniqueID>  (34) 
33

>  <SMILES>  (34) 
COc1ccc(C(=O)n2cc(CC([NH-])=O)n([N-]S(C)(=O)=O)c2=O)cc1

>  <Energy>  (34) 
75.07031758009542

>  <Genealogy>  (34) 
COc1ccc(C(=O)n2cc(CC([NH-])=O)n([N-]S(C)(=O)=O)c2=O)cc1 (protonated)
COc1ccc(C(=O)n2cc(CC([NH-])=O)n([N-]S(C)(=O)=O)c2=O)cc1 (3D coordinates assigned)
COc1ccc(C(=O)n2cc(CC([NH-])=O)n([N-]S(C)(=O)=O)c2=O)cc1 (optimized conformer: 75.07031758009542 kcal/mol)

>  <smiles>  (34) 
COc1ccc(C(=O)n2cc(CC(N)=O)n(NS(C)(=O)=O)c2=O)cc1

>  <score_type>  (34) 
oracle

>  <origin>  (34) 
adg

>  <m_score__min__energy>  (34) 
-12.06

>  <m_primary>  (34) 
energy

$$$$
34:0
     RDKit          3D

 33 34  0  0  0  0  0  0  0  0999 V2000
   59.1000   32.2880   48.3960 C   0  0  0  0  0  0  0  0  0  0  0  0
   58.6370   32.6560   47.0230 C   0  0  0  0  0  0  0  0  0  0  0  0
   59.0280   33.8680   46.4430 C   0  0  0  0  0  0  0  0  0  0  0  0
   58.5500   34.2050   45.1750 C   0  0  0  0  0  0  0  0  0  0  0  0
   57.6830   33.3380   44.5060 C   0  0  0  0  0  0  0  0  0  0  0  0
   57.3010   32.1380   45.1160 C   0  0  0  0  0  0  0  0  0  0  0  0
   56.4700   31.3490   44.5000 N   0  0  0  0  0  0  0  0  0  0  0  0
   56.4990   29.9120   44.4870 C   0  0  0  0  0  0  0  0  0  0  0  0
   55.5100   29.2340   44.8790 O   0  0  0  0  0  0  0  0  0  0  0  0
   57.7440   29.2030   44.0520 C   0  0  0  0  0  0  0  0  0  0  0  0
   57.7780   27.8370   44.5660 N   0  0  0  0  0  0  0  0  0  0  0  0
   58.4550   27.3980   45.7520 C   0  0  0  0  0  0  0  0  0  0  0  0
   59.7140   27.3780   45.7560 O   0  0  0  0  0  0  0  0  0  0  0  0
   57.7160   26.9220   46.9750 C   0  0  0  0  0  0  0  0  0  0  0  0
   56.5100   26.0920   46.6080 C   0  0  0  0  0  0  0  0  0  0  0  0
   55.4410   26.6770   46.0020 N   0  0  0  0  0  0  0  0  0  0  0  0
   54.3790   25.9660   45.6250 N   0  0  0  0  0  0  0  0  0  0  0  0
   54.3380   24.6240   45.8190 C   0  0  0  0  0  0  0  0  0  0  0  0
   53.3280   23.9630   45.4630 O   0  0  0  0  0  0  0  0  0  0  0  0
   55.3930   23.9970   46.3980 N   0  0  0  0  0  0  0  0  0  0  0  0
   56.4840   24.7000   46.7920 C   0  0  0  0  0  0  0  0  0  0  0  0
   57.4560   24.0940   47.3170 O   0  0  0  0  0  0  0  0  0  0  0  0
   57.7840   31.8330   46.3540 N   0  0  0  0  0  0  0  0  0  0  0  0
   58.4679   32.7904   49.1430 H   0  0  0  0  0  0  0  0  0  0  0  0
   59.0275   31.1983   48.5276 H   0  0  0  0  0  0  0  0  0  0  0  0
   60.1452   32.6045   48.5276 H   0  0  0  0  0  0  0  0  0  0  0  0
   59.7050   34.5483   46.9805 H   0  0  0  0  0  0  0  0  0  0  0  0
   58.8555   35.1510   44.7041 H   0  0  0  0  0  0  0  0  0  0  0  0
   57.3032   33.5967   43.5066 H   0  0  0  0  0  0  0  0  0  0  0  0
   57.7755   29.1741   42.9528 H   0  0  0  0  0  0  0  0  0  0  0  0
   58.6131   29.7476   44.4496 H   0  0  0  0  0  0  0  0  0  0  0  0
   58.3959   26.3121   47.5880 H   0  0  0  0  0  0  0  0  0  0  0  0
   57.3693   27.8046   47.5325 H   0  0  0  0  0  0  0  0  0  0  0  0
  1  2  1  0
  2  3  2  0
  3  4  1  0
  4  5  2  0
  5  6  1  0
  6  7  2  3
  7  8  1  0
  8  9  2  0
  8 10  1  0
 10 11  1  0
 11 12  1  0
 12 13  2  0
 12 14  1  0
 14 15  1  0
 15 16  2  0
 16 17  1  0
 17 18  1  0
 18 19  2  0
 18 20  1  0
 20 21  1  0
 21 22  2  0
  6 23  1  0
 23  2  1  0
 21 15  1  0
  1 24  1  0
  1 25  1  0
  1 26  1  0
  3 27  1  0
  4 28  1  0
  5 29  1  0
 10 30  1  0
 10 31  1  0
 14 32  1  0
 14 33  1  0
M  CHG  4  11  -1  17  -1  20  -1  23  -1
M  END
>  <UniqueID>  (35) 
34

>  <SMILES>  (35) 
Cc1cccc(=NC(=O)C[N-]C(=O)Cc2n[n-]c(=O)[n-]c2=O)[n-]1

>  <Energy>  (35) 
30.890763768540246

>  <Genealogy>  (35) 
Cc1cccc(=NC(=O)C[N-]C(=O)Cc2n[n-]c(=O)[n-]c2=O)[n-]1 (protonated)
Cc1cccc(=NC(=O)C[N-]C(=O)Cc2n[n-]c(=O)[n-]c2=O)[n-]1 (3D coordinates assigned)
Cc1cccc(=NC(=O)C[N-]C(=O)Cc2n[n-]c(=O)[n-]c2=O)[n-]1 (optimized conformer: 30.890763768540246 kcal/mol)

>  <smiles>  (35) 
Cc1cccc(=NC(=O)CNC(=O)Cc2n[nH]c(=O)[nH]c2=O)[nH]1

>  <score_type>  (35) 
oracle

>  <origin>  (35) 
adg

>  <m_score__min__energy>  (35) 
-14.619999999999999

>  <m_primary>  (35) 
energy

$$$$
35:0
     RDKit          3D

 44 46  0  0  0  0  0  0  0  0999 V2000
   59.1200   25.6170   46.7180 C   0  0  0  0  0  0  0  0  0  0  0  0
   57.8530   25.9030   46.3890 C   0  0  0  0  0  0  0  0  0  0  0  0
   56.8030   24.9950   46.3140 C   0  0  0  0  0  0  0  0  0  0  0  0
   56.8450   23.5350   46.5430 C   0  0  0  0  0  0  0  0  0  0  0  0
   56.9420   23.1150   47.7280 O   0  0  0  0  0  0  0  0  0  0  0  0
   56.7620   22.5590   45.4280 C   0  0  0  0  0  0  0  0  0  0  0  0
   56.4090   21.2160   45.6650 C   0  0  0  0  0  0  0  0  0  0  0  0
   56.3410   20.3060   44.6050 C   0  0  0  0  0  0  0  0  0  0  0  0
   56.6320   20.7210   43.3050 C   0  0  0  0  0  0  0  0  0  0  0  0
   56.9950   22.0460   43.0590 C   0  0  0  0  0  0  0  0  0  0  0  0
   57.0640   22.9610   44.1140 C   0  0  0  0  0  0  0  0  0  0  0  0
   55.6790   25.7420   46.0130 C   0  0  0  0  0  0  0  0  0  0  0  0
   54.3590   25.2160   45.8160 N   0  0  0  0  0  0  0  0  0  0  0  0
   54.1020   24.0720   44.9420 C   0  0  0  0  0  0  0  0  0  0  0  0
   52.6030   23.8850   44.7230 C   0  0  0  0  0  0  0  0  0  0  0  0
   52.2320   22.5940   45.1590 O   0  0  0  0  0  0  0  0  0  0  0  0
   51.2200   22.7020   46.1340 C   0  0  0  0  0  0  0  0  0  0  0  0
   55.9790   27.0490   45.8780 N   0  0  0  0  0  0  0  0  0  0  0  0
   57.3050   27.1590   46.1040 C   0  0  0  0  0  0  0  0  0  0  0  0
   57.9660   28.3340   46.0760 C   0  0  0  0  0  0  0  0  0  0  0  0
   57.6500   29.4510   45.1500 C   0  0  0  0  0  0  0  0  0  0  0  0
   58.7430   30.5700   44.5050 S   0  0  0  0  0  0  0  0  0  0  0  0
   57.5520   31.4180   43.6870 C   0  0  0  0  0  0  0  0  0  0  0  0
   57.7630   32.4330   42.9740 O   0  0  0  0  0  0  0  0  0  0  0  0
   56.3260   30.8940   43.8780 N   0  0  0  0  0  0  0  0  0  0  0  0
   56.3710   29.8030   44.6890 C   0  0  0  0  0  0  0  0  0  0  0  0
   55.2030   29.1090   45.0050 O   0  0  0  0  0  0  0  0  0  0  0  0
   59.8748   26.4167   46.7465 H   0  0  0  0  0  0  0  0  0  0  0  0
   59.4054   24.5825   46.9596 H   0  0  0  0  0  0  0  0  0  0  0  0
   56.1857   20.8813   46.6888 H   0  0  0  0  0  0  0  0  0  0  0  0
   56.0574   19.2606   44.7967 H   0  0  0  0  0  0  0  0  0  0  0  0
   56.5753   20.0033   42.4733 H   0  0  0  0  0  0  0  0  0  0  0  0
   57.2271   22.3708   42.0340 H   0  0  0  0  0  0  0  0  0  0  0  0
   57.3565   24.0026   43.9152 H   0  0  0  0  0  0  0  0  0  0  0  0
   53.5620   25.6040   46.3670 H   0  0  0  0  0  0  0  0  0  0  0  0
   54.5900   24.2428   43.9711 H   0  0  0  0  0  0  0  0  0  0  0  0
   54.5051   23.1661   45.4183 H   0  0  0  0  0  0  0  0  0  0  0  0
   52.0491   24.6417   45.2979 H   0  0  0  0  0  0  0  0  0  0  0  0
   52.3665   23.9986   43.6547 H   0  0  0  0  0  0  0  0  0  0  0  0
   51.6701   22.6540   47.1365 H   0  0  0  0  0  0  0  0  0  0  0  0
   50.6953   23.6612   46.0132 H   0  0  0  0  0  0  0  0  0  0  0  0
   50.5047   21.8751   46.0132 H   0  0  0  0  0  0  0  0  0  0  0  0
   58.7942   28.4744   46.7862 H   0  0  0  0  0  0  0  0  0  0  0  0
   55.1420   28.1000   44.9750 H   0  0  0  0  0  0  0  0  0  0  0  0
  1  2  2  0
  2  3  1  0
  3  4  1  0
  4  5  2  0
  4  6  1  0
  6  7  2  0
  7  8  1  0
  8  9  2  0
  9 10  1  0
 10 11  2  0
  3 12  2  0
 12 13  1  0
 13 14  1  0
 14 15  1  0
 15 16  1  0
 16 17  1  0
 12 18  1  0
 18 19  1  0
 19 20  2  3
 20 21  1  0
 21 22  1  0
 22 23  1  0
 23 24  2  0
 23 25  1  0
 25 26  1  0
 26 27  1  0
 19  2  1  0
 26 21  2  0
 11  6  1  0
  1 28  1  0
  1 29  1  0
  7 30  1  0
  8 31  1  0
  9 32  1  0
 10 33  1  0
 11 34  1  0
 13 35  1  0
 14 36  1  0
 14 37  1  0
 15 38  1  0
 15 39  1  0
 17 40  1  0
 17 41  1  0
 17 42  1  0
 20 43  1  0
 27 44  1  0
M  CHG  2  18  -1  25  -1
M  END
>  <UniqueID>  (36) 
35

>  <SMILES>  (36) 
C=c1c(C(=O)c2ccccc2)c(NCCOC)[n-]c1=Cc1sc(=O)[n-]c1O

>  <Energy>  (36) 
110.74615262638538

>  <Genealogy>  (36) 
C=c1c(C(=O)c2ccccc2)c(NCCOC)[n-]c1=Cc1sc(=O)[n-]c1O (protonated)
C=c1c(C(=O)c2ccccc2)c(NCCOC)[n-]c1=Cc1sc(=O)[n-]c1O (3D coordinates assigned)
C=c1c(C(=O)c2ccccc2)c(NCCOC)[n-]c1=Cc1sc(=O)[n-]c1O (optimized conformer: 110.74615262638538 kcal/mol)

>  <smiles>  (36) 
C=c1c(C(=O)c2ccccc2)c(NCCOC)[nH]c1=Cc1sc(=O)[nH]c1O

>  <score_type>  (36) 
oracle

>  <origin>  (36) 
adg

>  <m_score__min__energy>  (36) 
-12.83

>  <m_primary>  (36) 
energy

$$$$
36:0
     RDKit          3D

 39 41  0  0  1  0  0  0  0  0999 V2000
   57.1380   24.4180   47.8490 C   0  0  0  0  0  0  0  0  0  0  0  0
   56.8000   23.9400   46.4830 C   0  0  0  0  0  0  0  0  0  0  0  0
   57.1300   22.6640   46.0770 C   0  0  0  0  0  0  0  0  0  0  0  0
   56.8360   22.1880   44.8250 C   0  0  0  0  0  0  0  0  0  0  0  0
   56.1790   23.0480   43.9540 C   0  0  0  0  0  0  0  0  0  0  0  0
   55.8760   22.5710   42.6750 O   0  0  0  0  0  0  0  0  0  0  0  0
   55.8570   24.3050   44.3600 C   0  0  0  0  0  0  0  0  0  0  0  0
   57.4730   31.5540   44.8950 C   0  0  0  0  0  0  0  0  0  0  0  0
   55.7800   26.1290   45.9810 N   0  0  0  0  0  0  0  0  0  0  0  0
   56.5810   27.0700   45.6120 C   0  0  0  0  0  0  0  0  0  0  0  0
   57.9370   26.7620   45.5980 C   0  0  0  0  0  0  0  0  0  0  0  0
   58.8620   27.7150   45.2160 C   0  0  0  0  0  0  0  0  0  0  0  0
   58.4080   28.9310   44.8630 N   0  0  0  0  0  0  0  0  0  0  0  0
   57.0890   29.2090   44.8830 C   0  0  0  0  0  0  0  0  0  0  0  0
   56.7150   30.4060   44.5300 N   0  0  0  0  0  0  0  0  0  0  0  0
   56.1490   24.8010   45.6260 C   0  0  0  0  0  0  0  0  0  0  0  0
   57.7830   31.8230   46.2320 C   0  0  0  0  0  0  0  0  0  0  0  0
   58.5250   32.9470   46.5790 C   0  0  0  0  0  0  0  0  0  0  0  0
   58.9600   33.8090   45.5780 C   0  0  0  0  0  0  0  0  0  0  0  0
   58.6690   33.5660   44.2530 C   0  0  0  0  0  0  0  0  0  0  0  0
   57.9310   32.4430   43.9360 C   0  0  0  0  0  0  0  0  0  0  0  0
   57.6060   32.1590   42.5470 C   0  0  0  0  0  0  0  0  0  0  0  0
   57.3510   31.9160   41.4520 N   0  0  0  0  0  0  0  0  0  0  0  0
   56.1670   28.2980   45.2520 N   0  0  0  0  0  0  0  0  0  0  0  0
   56.6710   23.7576   48.5945 H   0  0  0  0  0  0  0  0  0  0  0  0
   58.2299   24.4065   47.9818 H   0  0  0  0  0  0  0  0  0  0  0  0
   56.7632   25.4436   47.9818 H   0  0  0  0  0  0  0  0  0  0  0  0
   57.6495   22.0020   46.7854 H   0  0  0  0  0  0  0  0  0  0  0  0
   57.1094   21.1663   44.5226 H   0  0  0  0  0  0  0  0  0  0  0  0
   56.2500   23.1500   41.9110 H   0  0  0  0  0  0  0  0  0  0  0  0
   55.3379   24.9648   43.6492 H   0  0  0  0  0  0  0  0  0  0  0  0
   58.2743   25.7570   45.8918 H   0  0  0  0  0  0  0  0  0  0  0  0
   59.9378   27.4859   45.2010 H   0  0  0  0  0  0  0  0  0  0  0  0
   59.1370   29.6310   44.5780 H   0  0  0  0  0  0  0  0  0  0  0  0
   57.4357   31.1372   47.0188 H   0  0  0  0  0  0  0  0  0  0  0  0
   58.7650   33.1518   47.6328 H   0  0  0  0  0  0  0  0  0  0  0  0
   59.5462   34.6997   45.8484 H   0  0  0  0  0  0  0  0  0  0  0  0
   59.0168   34.2512   43.4659 H   0  0  0  0  0  0  0  0  0  0  0  0
   55.1390   28.5150   45.2670 H   0  0  0  0  0  0  0  0  0  0  0  0
  1  2  1  0
  2  3  2  0
  3  4  1  0
  4  5  2  0
  5  6  1  0
  5  7  1  0
  7  8  2  0
  8  9  1  0
  9 10  2  0
 10 11  1  0
 11 12  2  0
 12 13  1  0
 13 14  1  0
 14 15  2  0
 15 16  1  0
 16 17  2  0
 17 18  1  0
 18 19  2  0
 19 20  1  0
 20 21  2  0
 21 22  1  0
 22 23  3  0
 14 24  1  0
  8  2  1  0
 24 10  1  0
 21 16  1  0
  1 25  1  0
  1 26  1  0
  1 27  1  0
  3 28  1  0
  4 29  1  0
  6 30  1  0
  7 31  1  0
 11 32  1  0
 12 33  1  0
 13 34  1  0
 17 35  1  0
 18 36  1  0
 19 37  1  0
 20 38  1  0
 24 39  1  0
M  END
>  <smiles>  (37) 
Cc1ccc(O)cc1N=c1cc[nH]c(=Nc2ccccc2C#N)[nH]1

>  <score_type>  (37) 
oracle

>  <origin>  (37) 
adg

>  <m_score__min__energy>  (37) 
-8.5

>  <m_primary>  (37) 
energy

$$$$
37:0
     RDKit          3D

 31 33  0  0  0  0  0  0  0  0999 V2000
   57.0280   22.9900   47.7990 O   0  0  0  0  0  0  0  0  0  0  0  0
   56.8970   24.0730   47.1740 C   0  0  0  0  0  0  0  0  0  0  0  0
   58.0040   24.8940   46.9520 C   0  0  0  0  0  0  0  0  0  0  0  0
   57.8190   26.0900   46.2470 C   0  0  0  0  0  0  0  0  0  0  0  0
   58.9630   27.0300   46.0160 C   0  0  0  0  0  0  0  0  0  0  0  0
   58.4600   28.3210   45.4530 C   0  0  0  0  0  0  0  0  0  0  0  0
   58.4960   28.6940   44.1120 C   0  0  0  0  0  0  0  0  0  0  0  0
   58.0530   29.9560   43.8700 N   0  0  0  0  0  0  0  0  0  0  0  0
   57.6700   30.5960   44.9960 C   0  0  0  0  0  0  0  0  0  0  0  0
   57.2630   31.8320   44.9910 N   0  0  0  0  0  0  0  0  0  0  0  0
   57.9600   32.9640   45.5320 C   0  0  0  0  0  0  0  0  0  0  0  0
   58.1500   33.0440   46.9180 C   0  0  0  0  0  0  0  0  0  0  0  0
   58.8580   34.1130   47.4750 C   0  0  0  0  0  0  0  0  0  0  0  0
   59.4030   35.0980   46.6470 C   0  0  0  0  0  0  0  0  0  0  0  0
   59.2500   35.0100   45.2600 C   0  0  0  0  0  0  0  0  0  0  0  0
   58.5400   33.9410   44.7010 C   0  0  0  0  0  0  0  0  0  0  0  0
   57.8900   29.6210   46.3600 S   0  0  0  0  0  0  0  0  0  0  0  0
   56.5730   26.4280   45.8160 N   0  0  0  0  0  0  0  0  0  0  0  0
   55.5080   25.6150   46.0410 C   0  0  0  0  0  0  0  0  0  0  0  0
   54.3670   25.9450   45.6280 O   0  0  0  0  0  0  0  0  0  0  0  0
   55.6750   24.4470   46.7140 N   0  0  0  0  0  0  0  0  0  0  0  0
   58.9994   24.6080   47.3225 H   0  0  0  0  0  0  0  0  0  0  0  0
   59.4736   27.2236   46.9709 H   0  0  0  0  0  0  0  0  0  0  0  0
   59.6654   26.5747   45.3023 H   0  0  0  0  0  0  0  0  0  0  0  0
   58.8528   28.0241   43.3158 H   0  0  0  0  0  0  0  0  0  0  0  0
   58.0260   30.3840   42.9170 H   0  0  0  0  0  0  0  0  0  0  0  0
   57.7394   32.2606   47.5720 H   0  0  0  0  0  0  0  0  0  0  0  0
   58.9862   34.1788   48.5655 H   0  0  0  0  0  0  0  0  0  0  0  0
   59.9528   35.9432   47.0868 H   0  0  0  0  0  0  0  0  0  0  0  0
   59.6875   35.7806   44.6083 H   0  0  0  0  0  0  0  0  0  0  0  0
   58.4349   33.8641   43.6087 H   0  0  0  0  0  0  0  0  0  0  0  0
  1  2  2  0
  2  3  1  0
  3  4  2  0
  4  5  1  0
  5  6  1  0
  6  7  2  0
  7  8  1  0
  8  9  1  0
  9 10  2  3
 10 11  1  0
 11 12  2  0
 12 13  1  0
 13 14  2  0
 14 15  1  0
 15 16  2  0
  9 17  1  0
  4 18  1  0
 18 19  1  0
 19 20  2  0
 19 21  1  0
 21  2  1  0
 17  6  1  0
 16 11  1  0
  3 22  1  0
  5 23  1  0
  5 24  1  0
  7 25  1  0
  8 26  1  0
 12 27  1  0
 13 28  1  0
 14 29  1  0
 15 30  1  0
 16 31  1  0
M  CHG  2  18  -1  21  -1
M  END
>  <UniqueID>  (38) 
36

>  <SMILES>  (38) 
O=c1cc(Cc2c[nH]c(=Nc3ccccc3)s2)[n-]c(=O)[n-]1

>  <Energy>  (38) 
69.80981049774817

>  <Genealogy>  (38) 
O=c1cc(Cc2c[nH]c(=Nc3ccccc3)s2)[n-]c(=O)[n-]1 (protonated)
O=c1cc(Cc2c[nH]c(=Nc3ccccc3)s2)[n-]c(=O)[n-]1 (3D coordinates assigned)
O=c1cc(Cc2c[nH]c(=Nc3ccccc3)s2)[n-]c(=O)[n-]1 (optimized conformer: 69.80981049774817 kcal/mol)

>  <smiles>  (38) 
O=c1cc(Cc2c[nH]c(=Nc3ccccc3)s2)[nH]c(=O)[nH]1

>  <score_type>  (38) 
oracle

>  <origin>  (38) 
adg

>  <m_score__min__energy>  (38) 
-11.699999999999999

>  <m_primary>  (38) 
energy

$$$$
38:0
     RDKit          3D

 47 50  0  0  0  0  0  0  0  0999 V2000
   56.5810   29.5940   44.1750 C   0  0  0  0  0  0  0  0  0  0  0  0
   57.7240   29.1430   44.7100 C   0  0  0  0  0  0  0  0  0  0  0  0
   58.1510   27.8110   44.8100 C   0  0  0  0  0  0  0  0  0  0  0  0
   57.4940   26.6520   44.6200 C   0  0  0  0  0  0  0  0  0  0  0  0
   57.0210   25.7470   45.6800 C   0  0  0  0  0  0  0  0  0  0  0  0
   57.6820   24.6570   46.1130 N   0  0  0  0  0  0  0  0  0  0  0  0
   56.8070   24.0790   46.9640 C   0  0  0  0  0  0  0  0  0  0  0  0
   57.0700   23.0240   47.5970 O   0  0  0  0  0  0  0  0  0  0  0  0
   55.6200   24.7130   47.0740 N   0  0  0  0  0  0  0  0  0  0  0  0
   55.7680   25.7570   46.2430 C   0  0  0  0  0  0  0  0  0  0  0  0
   54.7750   26.6950   45.9980 O   0  0  0  0  0  0  0  0  0  0  0  0
   59.4800   27.8600   45.2030 C   0  0  0  0  0  0  0  0  0  0  0  0
   59.7960   29.1900   45.3840 C   0  0  0  0  0  0  0  0  0  0  0  0
   61.1180   29.7040   45.8650 C   0  0  0  0  0  0  0  0  0  0  0  0
   58.7270   29.9640   45.1030 N   0  0  0  0  0  0  0  0  0  0  0  0
   58.7000   31.3970   45.1660 C   0  0  0  0  0  0  0  0  0  0  0  0
   58.1650   32.1270   44.0980 C   0  0  0  0  0  0  0  0  0  0  0  0
   58.1490   33.5210   44.1430 C   0  0  0  0  0  0  0  0  0  0  0  0
   58.6620   34.1910   45.2570 C   0  0  0  0  0  0  0  0  0  0  0  0
   59.1890   33.4720   46.3420 C   0  0  0  0  0  0  0  0  0  0  0  0
   59.7190   34.2110   47.5100 C   0  0  0  0  0  0  0  0  0  0  0  0
   58.9190   34.8920   48.2090 O   0  0  0  0  0  0  0  0  0  0  0  0
   61.1160   34.1220   47.8830 N   0  0  2  0  0  0  0  0  0  0  0  0
   61.9790   33.8270   46.7440 C   0  0  0  0  0  0  0  0  0  0  0  0
   63.1180   32.9840   47.2940 C   0  0  0  0  0  0  0  0  0  0  0  0
   62.7580   32.6010   48.6560 N   0  0  0  0  0  0  0  0  0  0  0  0
   61.3740   33.0370   48.8340 C   0  0  0  0  0  0  0  0  0  0  0  0
   59.2180   32.0660   46.2840 C   0  0  0  0  0  0  0  0  0  0  0  0
   59.7910   31.3430   47.2810 F   0  0  0  0  0  0  0  0  0  0  0  0
   56.3685   30.6732   44.1610 H   0  0  0  0  0  0  0  0  0  0  0  0
   55.8553   28.8850   43.7499 H   0  0  0  0  0  0  0  0  0  0  0  0
   57.2926   26.3546   43.5803 H   0  0  0  0  0  0  0  0  0  0  0  0
   60.1535   27.0017   45.3435 H   0  0  0  0  0  0  0  0  0  0  0  0
   61.1312   29.7091   46.9649 H   0  0  0  0  0  0  0  0  0  0  0  0
   61.9223   29.0531   45.4917 H   0  0  0  0  0  0  0  0  0  0  0  0
   61.2714   30.7273   45.4917 H   0  0  0  0  0  0  0  0  0  0  0  0
   57.7569   31.6008   43.2225 H   0  0  0  0  0  0  0  0  0  0  0  0
   57.7323   34.0934   43.3011 H   0  0  0  0  0  0  0  0  0  0  0  0
   58.6529   35.2906   45.2841 H   0  0  0  0  0  0  0  0  0  0  0  0
   61.4440   35.0220   48.3090 H   0  0  0  0  0  0  0  0  0  0  0  0
   61.4234   33.2667   45.9776 H   0  0  0  0  0  0  0  0  0  0  0  0
   62.3496   34.7469   46.2682 H   0  0  0  0  0  0  0  0  0  0  0  0
   63.2544   32.0855   46.6742 H   0  0  0  0  0  0  0  0  0  0  0  0
   64.0606   33.5510   47.2858 H   0  0  0  0  0  0  0  0  0  0  0  0
   63.3520   33.1530   49.3190 H   0  0  0  0  0  0  0  0  0  0  0  0
   60.6900   32.1981   48.6380 H   0  0  0  0  0  0  0  0  0  0  0  0
   61.2123   33.3853   49.8648 H   0  0  0  0  0  0  0  0  0  0  0  0
  1  2  2  0
  2  3  1  0
  3  4  2  3
  4  5  1  0
  5  6  1  0
  6  7  1  0
  7  8  2  0
  7  9  1  0
  9 10  1  0
 10 11  1  0
  3 12  1  0
 12 13  2  0
 13 14  1  0
 13 15  1  0
 15 16  1  0
 16 17  2  0
 17 18  1  0
 18 19  2  0
 19 20  1  0
 20 21  1  0
 21 22  2  0
 21 23  1  0
 23 24  1  0
 24 25  1  0
 25 26  1  0
 26 27  1  0
 20 28  2  0
 28 29  1  0
 15  2  1  0
 28 16  1  0
 10  5  2  0
 27 23  1  0
  1 30  1  0
  1 31  1  0
  4 32  1  0
 12 33  1  0
 14 34  1  0
 14 35  1  0
 14 36  1  0
 17 37  1  0
 18 38  1  0
 19 39  1  0
 23 40  1  1
 24 41  1  0
 24 42  1  0
 25 43  1  0
 25 44  1  0
 26 45  1  0
 27 46  1  0
 27 47  1  0
M  CHG  4   6  -1   9  -1  11  -1  23   1
M  END
>  <UniqueID>  (39) 
37

>  <SMILES>  (39) 
C=c1c(=Cc2[n-]c(=O)[n-]c2[O-])cc(C)n1-c1cccc(C(=O)[N@@H+]2CCNC2)c1F

>  <Energy>  (39) 
134.6743592797433

>  <Genealogy>  (39) 
C=c1c(=Cc2[n-]c(=O)[n-]c2[O-])cc(C)n1-c1cccc(C(=O)[NH+]2CCNC2)c1F (protonated)
C=c1c(=Cc2[n-]c(=O)[n-]c2[O-])cc(C)n1-c1cccc(C(=O)[N@@H+]2CCNC2)c1F (chirality)
C=c1c(=Cc2[n-]c(=O)[n-]c2[O-])cc(C)n1-c1cccc(C(=O)[N@@H+]2CCNC2)c1F (3D coordinates assigned)
C=c1c(=Cc2[n-]c(=O)[n-]c2[O-])cc(C)n1-c1cccc(C(=O)[N@@H+]2CCNC2)c1F (nonaromatic ring conformer: 134.6743592797433 kcal/mol)

>  <smiles>  (39) 
C=c1c(=Cc2[nH]c(=O)[nH]c2O)cc(C)n1-c1cccc(C(=O)N2CCNC2)c1F

>  <score_type>  (39) 
oracle

>  <origin>  (39) 
adg

>  <m_score__min__energy>  (39) 
-15.550000000000001

>  <m_primary>  (39) 
energy

$$$$
39:0
     RDKit          3D

 22 23  0  0  0  0  0  0  0  0999 V2000
   57.2660   30.1090   44.7650 O   0  0  0  0  0  0  0  0  0  0  0  0
   57.0630   28.9460   45.2000 C   0  0  0  0  0  0  0  0  0  0  0  0
   55.8390   28.3790   45.2370 N   0  0  0  0  0  0  0  0  0  0  0  0
   55.9000   27.1230   45.7540 C   0  0  0  0  0  0  0  0  0  0  0  0
   54.7620   26.3410   45.9040 O   0  0  0  0  0  0  0  0  0  0  0  0
   57.1740   26.6900   46.1160 C   0  0  0  0  0  0  0  0  0  0  0  0
   57.5180   25.3850   46.7630 C   0  0  0  0  0  0  0  0  0  0  0  0
   57.2300   24.2420   45.8250 C   0  0  0  0  0  0  0  0  0  0  0  0
   57.0010   24.5010   44.4620 C   0  0  0  0  0  0  0  0  0  0  0  0
   56.6990   23.4560   43.5850 C   0  0  0  0  0  0  0  0  0  0  0  0
   56.6130   22.1440   44.0560 C   0  0  0  0  0  0  0  0  0  0  0  0
   56.3110   21.1130   43.1690 O   0  0  0  0  0  0  0  0  0  0  0  0
   56.8300   21.8770   45.4140 C   0  0  0  0  0  0  0  0  0  0  0  0
   57.1330   22.9180   46.2980 C   0  0  0  0  0  0  0  0  0  0  0  0
   57.3350   22.6290   47.6430 O   0  0  0  0  0  0  0  0  0  0  0  0
   58.2650   27.9350   45.7990 S   0  0  0  0  0  0  0  0  0  0  0  0
   58.5868   25.3800   47.0231 H   0  0  0  0  0  0  0  0  0  0  0  0
   56.9077   25.2646   47.6702 H   0  0  0  0  0  0  0  0  0  0  0  0
   57.0600   25.5323   44.0840 H   0  0  0  0  0  0  0  0  0  0  0  0
   56.5283   23.6676   42.5191 H   0  0  0  0  0  0  0  0  0  0  0  0
   56.6270   20.1640   43.3320 H   0  0  0  0  0  0  0  0  0  0  0  0
   56.7618   20.8443   45.7868 H   0  0  0  0  0  0  0  0  0  0  0  0
  1  2  2  0
  2  3  1  0
  3  4  1  0
  4  5  1  0
  4  6  2  0
  6  7  1  0
  7  8  1  0
  8  9  2  0
  9 10  1  0
 10 11  2  0
 11 12  1  0
 11 13  1  0
 13 14  2  0
 14 15  1  0
  6 16  1  0
 16  2  1  0
 14  8  1  0
  7 17  1  0
  7 18  1  0
  9 19  1  0
 10 20  1  0
 12 21  1  0
 13 22  1  0
M  CHG  3   3  -1   5  -1  15  -1
M  END
>  <UniqueID>  (40) 
38

>  <SMILES>  (40) 
O=c1[n-]c([O-])c(Cc2ccc(O)cc2[O-])s1

>  <Energy>  (40) 
52.236719441894664

>  <Genealogy>  (40) 
O=c1[n-]c([O-])c(Cc2ccc(O)cc2[O-])s1 (protonated)
O=c1[n-]c([O-])c(Cc2ccc(O)cc2[O-])s1 (3D coordinates assigned)
O=c1[n-]c([O-])c(Cc2ccc(O)cc2[O-])s1 (optimized conformer: 52.236719441894664 kcal/mol)

>  <smiles>  (40) 
O=c1[nH]c(O)c(Cc2ccc(O)cc2O)s1

>  <score_type>  (40) 
oracle

>  <origin>  (40) 
adg

>  <m_score__min__energy>  (40) 
-13.93

>  <m_primary>  (40) 
energy

$$$$
40:0
     RDKit          3D

 51 53  0  0  0  0  0  0  0  0999 V2000
   57.0300   30.4720   43.7390 C   0  0  0  0  0  0  0  0  0  0  0  0
   56.9740   31.0870   45.0220 O   0  0  0  0  0  0  0  0  0  0  0  0
   57.6430   32.2690   45.3770 C   0  0  0  0  0  0  0  0  0  0  0  0
   57.5890   33.4060   44.5490 C   0  0  0  0  0  0  0  0  0  0  0  0
   58.3010   34.5560   44.8790 C   0  0  0  0  0  0  0  0  0  0  0  0
   59.0910   34.5850   46.0230 C   0  0  0  0  0  0  0  0  0  0  0  0
   59.1500   33.4770   46.8840 C   0  0  0  0  0  0  0  0  0  0  0  0
   60.0700   33.5470   48.0880 C   0  0  0  0  0  0  0  0  0  0  0  0
   61.4620   33.2110   47.7600 N   0  0  0  0  0  0  0  0  0  0  0  0
   62.1730   33.7910   46.7710 C   0  0  0  0  0  0  0  0  0  0  0  0
   63.4470   33.2670   46.7300 C   0  0  0  0  0  0  0  0  0  0  0  0
   63.5200   32.3280   47.7390 C   0  0  0  0  0  0  0  0  0  0  0  0
   62.2870   32.3230   48.3670 C   0  0  0  0  0  0  0  0  0  0  0  0
   61.9390   31.4720   49.5240 C   0  0  0  0  0  0  0  0  0  0  0  0
   62.7280   31.3930   50.5040 O   0  0  0  0  0  0  0  0  0  0  0  0
   60.7050   30.7400   49.5400 N   0  0  0  0  0  0  0  0  0  0  0  0
   60.2340   30.0410   50.7310 C   0  0  0  0  0  0  0  0  0  0  0  0
   59.0030   30.7150   51.2700 C   0  0  0  0  0  0  0  0  0  0  0  0
   57.8700   29.9480   51.5960 C   0  0  0  0  0  0  0  0  0  0  0  0
   56.7120   30.5710   52.0730 C   0  0  0  0  0  0  0  0  0  0  0  0
   56.6820   31.9590   52.2360 C   0  0  0  0  0  0  0  0  0  0  0  0
   57.8020   32.7280   51.9090 C   0  0  0  0  0  0  0  0  0  0  0  0
   58.9570   32.1120   51.4160 C   0  0  0  0  0  0  0  0  0  0  0  0
   58.4100   32.3100   46.5670 C   0  0  0  0  0  0  0  0  0  0  0  0
   58.4960   31.1760   47.4460 N   0  0  0  0  0  0  0  0  0  0  0  0
   58.9270   29.5610   46.9870 S   0  0  0  0  0  0  0  0  0  0  0  0
   60.2410   29.6260   45.7900 C   0  0  0  0  0  0  0  0  0  0  0  0
   57.7380   28.8660   46.3870 O   0  0  0  0  0  0  0  0  0  0  0  0
   59.4140   28.7970   48.1870 O   0  0  0  0  0  0  0  0  0  0  0  0
   57.1292   29.3830   43.8584 H   0  0  0  0  0  0  0  0  0  0  0  0
   56.1076   30.6975   43.1837 H   0  0  0  0  0  0  0  0  0  0  0  0
   57.8965   30.8604   43.1837 H   0  0  0  0  0  0  0  0  0  0  0  0
   56.9793   33.3858   43.6337 H   0  0  0  0  0  0  0  0  0  0  0  0
   58.2384   35.4441   44.2330 H   0  0  0  0  0  0  0  0  0  0  0  0
   59.6766   35.4864   46.2564 H   0  0  0  0  0  0  0  0  0  0  0  0
   60.0412   34.5691   48.4936 H   0  0  0  0  0  0  0  0  0  0  0  0
   59.7142   32.8076   48.8206 H   0  0  0  0  0  0  0  0  0  0  0  0
   61.7909   34.5699   46.0948 H   0  0  0  0  0  0  0  0  0  0  0  0
   64.2491   33.5432   46.0298 H   0  0  0  0  0  0  0  0  0  0  0  0
   64.3896   31.7046   47.9943 H   0  0  0  0  0  0  0  0  0  0  0  0
   60.0590   30.7950   48.7210 H   0  0  0  0  0  0  0  0  0  0  0  0
   59.9947   28.9993   50.4712 H   0  0  0  0  0  0  0  0  0  0  0  0
   61.0224   30.0627   51.4977 H   0  0  0  0  0  0  0  0  0  0  0  0
   57.8946   28.8549   51.4755 H   0  0  0  0  0  0  0  0  0  0  0  0
   55.8252   29.9688   52.3198 H   0  0  0  0  0  0  0  0  0  0  0  0
   55.7750   32.4468   52.6224 H   0  0  0  0  0  0  0  0  0  0  0  0
   57.7753   33.8199   52.0395 H   0  0  0  0  0  0  0  0  0  0  0  0
   59.8305   32.7219   51.1422 H   0  0  0  0  0  0  0  0  0  0  0  0
   61.2090   29.6739   46.3103 H   0  0  0  0  0  0  0  0  0  0  0  0
   60.2077   28.7251   45.1597 H   0  0  0  0  0  0  0  0  0  0  0  0
   60.1190   30.5192   45.1597 H   0  0  0  0  0  0  0  0  0  0  0  0
  1  2  1  0
  2  3  1  0
  3  4  2  0
  4  5  1  0
  5  6  2  0
  6  7  1  0
  7  8  1  0
  8  9  1  0
  9 10  1  0
 10 11  2  0
 11 12  1  0
 12 13  2  0
 13 14  1  0
 14 15  2  0
 14 16  1  0
 16 17  1  0
 17 18  1  0
 18 19  2  0
 19 20  1  0
 20 21  2  0
 21 22  1  0
 22 23  2  0
  7 24  2  0
 24 25  1  0
 25 26  1  0
 26 27  1  0
 26 28  2  0
 26 29  2  0
 24  3  1  0
 13  9  1  0
 23 18  1  0
  1 30  1  0
  1 31  1  0
  1 32  1  0
  4 33  1  0
  5 34  1  0
  6 35  1  0
  8 36  1  0
  8 37  1  0
 10 38  1  0
 11 39  1  0
 12 40  1  0
 16 41  1  0
 17 42  1  0
 17 43  1  0
 19 44  1  0
 20 45  1  0
 21 46  1  0
 22 47  1  0
 23 48  1  0
 27 49  1  0
 27 50  1  0
 27 51  1  0
M  CHG  1  25  -1
M  END
>  <UniqueID>  (41) 
39

>  <SMILES>  (41) 
COc1cccc(Cn2cccc2C(=O)NCc2ccccc2)c1[N-]S(C)(=O)=O

>  <Energy>  (41) 
75.17991418516367

>  <Genealogy>  (41) 
COc1cccc(Cn2cccc2C(=O)NCc2ccccc2)c1[N-]S(C)(=O)=O (protonated)
COc1cccc(Cn2cccc2C(=O)NCc2ccccc2)c1[N-]S(C)(=O)=O (3D coordinates assigned)
COc1cccc(Cn2cccc2C(=O)NCc2ccccc2)c1[N-]S(C)(=O)=O (optimized conformer: 75.17991418516367 kcal/mol)

>  <smiles>  (41) 
COc1cccc(Cn2cccc2C(=O)NCc2ccccc2)c1NS(C)(=O)=O

>  <score_type>  (41) 
oracle

>  <origin>  (41) 
adg

>  <m_score__min__energy>  (41) 
-10.31

>  <m_primary>  (41) 
energy

$$$$
41:0
     RDKit          3D

 42 45  0  0  0  0  0  0  0  0999 V2000
   60.8790   30.9900   48.7420 O   0  0  0  0  0  0  0  0  0  0  0  0
   60.9040   30.5970   47.5420 C   0  0  0  0  0  0  0  0  0  0  0  0
   62.0900   30.7920   46.7570 N   0  0  0  0  0  0  0  0  0  0  0  0
   63.2140   31.5800   47.2640 C   0  0  0  0  0  0  0  0  0  0  0  0
   62.9540   33.0470   47.0790 C   0  0  0  0  0  0  0  0  0  0  0  0
   63.7470   33.7270   46.3740 O   0  0  0  0  0  0  0  0  0  0  0  0
   61.8340   33.6890   47.7180 N   0  0  0  0  0  0  0  0  0  0  0  0
   61.9810   34.1670   49.0980 C   0  0  0  0  0  0  0  0  0  0  0  0
   60.7240   33.8430   49.9030 C   0  0  0  0  0  0  0  0  0  0  0  0
   59.4960   34.4920   49.2600 C   0  0  0  0  0  0  0  0  0  0  0  0
   59.4090   34.2020   47.7820 C   0  0  0  0  0  0  0  0  0  0  0  0
   58.1820   34.3750   47.1240 C   0  0  0  0  0  0  0  0  0  0  0  0
   58.0860   34.1910   45.7440 C   0  0  0  0  0  0  0  0  0  0  0  0
   59.2190   33.8550   45.0050 C   0  0  0  0  0  0  0  0  0  0  0  0
   60.4520   33.6930   45.6420 C   0  0  0  0  0  0  0  0  0  0  0  0
   60.5640   33.8540   47.0390 C   0  0  0  0  0  0  0  0  0  0  0  0
   59.7110   29.9230   46.9760 C   0  0  0  0  0  0  0  0  0  0  0  0
   59.5050   28.5360   47.2080 C   0  0  0  0  0  0  0  0  0  0  0  0
   58.3790   27.8770   46.6820 C   0  0  0  0  0  0  0  0  0  0  0  0
   57.4760   28.6280   45.9390 C   0  0  0  0  0  0  0  0  0  0  0  0
   56.3430   28.2070   45.3560 N   0  0  0  0  0  0  0  0  0  0  0  0
   55.8750   29.3500   44.7920 C   0  0  0  0  0  0  0  0  0  0  0  0
   54.8030   29.3860   44.1330 O   0  0  0  0  0  0  0  0  0  0  0  0
   56.6450   30.4500   44.9890 N   0  0  0  0  0  0  0  0  0  0  0  0
   57.6560   29.9590   45.7200 C   0  0  0  0  0  0  0  0  0  0  0  0
   58.7560   30.6490   46.2210 C   0  0  0  0  0  0  0  0  0  0  0  0
   62.1770   30.3120   45.8340 H   0  0  0  0  0  0  0  0  0  0  0  0
   63.3502   31.3688   48.3349 H   0  0  0  0  0  0  0  0  0  0  0  0
   64.1210   31.3063   46.7050 H   0  0  0  0  0  0  0  0  0  0  0  0
   62.8477   33.6746   49.5631 H   0  0  0  0  0  0  0  0  0  0  0  0
   62.1305   35.2567   49.0873 H   0  0  0  0  0  0  0  0  0  0  0  0
   60.5837   32.7524   49.9326 H   0  0  0  0  0  0  0  0  0  0  0  0
   60.8425   34.2369   50.9232 H   0  0  0  0  0  0  0  0  0  0  0  0
   58.5916   34.1040   49.7514 H   0  0  0  0  0  0  0  0  0  0  0  0
   59.5832   35.5812   49.3868 H   0  0  0  0  0  0  0  0  0  0  0  0
   57.2888   34.6579   47.7003 H   0  0  0  0  0  0  0  0  0  0  0  0
   57.1160   34.3112   45.2394 H   0  0  0  0  0  0  0  0  0  0  0  0
   59.1422   33.7169   43.9164 H   0  0  0  0  0  0  0  0  0  0  0  0
   61.3428   33.4378   45.0492 H   0  0  0  0  0  0  0  0  0  0  0  0
   60.2350   27.9709   47.8062 H   0  0  0  0  0  0  0  0  0  0  0  0
   58.2185   26.8023   46.8532 H   0  0  0  0  0  0  0  0  0  0  0  0
   58.8806   31.7262   46.0364 H   0  0  0  0  0  0  0  0  0  0  0  0
  1  2  2  0
  2  3  1  0
  3  4  1  0
  4  5  1  0
  5  6  2  0
  5  7  1  0
  7  8  1  0
  8  9  1  0
  9 10  1  0
 10 11  1  0
 11 12  2  0
 12 13  1  0
 13 14  2  0
 14 15  1  0
 15 16  2  0
  2 17  1  0
 17 18  2  0
 18 19  1  0
 19 20  2  0
 20 21  1  0
 21 22  1  0
 22 23  2  0
 22 24  1  0
 24 25  1  0
 25 26  2  0
 16  7  1  0
 26 17  1  0
 16 11  1  0
 25 20  1  0
  3 27  1  0
  4 28  1  0
  4 29  1  0
  8 30  1  0
  8 31  1  0
  9 32  1  0
  9 33  1  0
 10 34  1  0
 10 35  1  0
 12 36  1  0
 13 37  1  0
 14 38  1  0
 15 39  1  0
 18 40  1  0
 19 41  1  0
 26 42  1  0
M  CHG  2  21  -1  24  -1
M  END
>  <UniqueID>  (42) 
40

>  <SMILES>  (42) 
O=C(NCC(=O)N1CCCc2ccccc21)c1ccc2[n-]c(=O)[n-]c2c1

>  <Energy>  (42) 
87.10305638580374

>  <Genealogy>  (42) 
O=C(NCC(=O)N1CCCc2ccccc21)c1ccc2[n-]c(=O)[n-]c2c1 (protonated)
O=C(NCC(=O)N1CCCc2ccccc21)c1ccc2[n-]c(=O)[n-]c2c1 (3D coordinates assigned)
O=C(NCC(=O)N1CCCc2ccccc21)c1ccc2[n-]c(=O)[n-]c2c1 (nonaromatic ring conformer: 87.10305638580374 kcal/mol)

>  <smiles>  (42) 
O=C(NCC(=O)N1CCCc2ccccc21)c1ccc2[nH]c(=O)[nH]c2c1

>  <score_type>  (42) 
oracle

>  <origin>  (42) 
adg

>  <m_score__min__energy>  (42) 
-12.43

>  <m_primary>  (42) 
energy

$$$$
42:0
     RDKit          3D

 19 20  0  0  0  0  0  0  0  0999 V2000
   52.6645   28.6914   53.7665 H   0  0  0  0  0  0  0  0  0  0  0  0
   53.7240   28.4310   53.6260 C   0  0  0  0  0  0  0  0  0  0  0  0
   54.1055   27.4646   53.9874 H   0  0  0  0  0  0  0  0  0  0  0  0
   54.5480   29.2890   53.0160 C   0  0  0  0  0  0  0  0  0  0  0  0
   54.2490   30.4960   52.3680 C   0  0  0  0  0  0  0  0  0  0  0  0
   53.1000   31.1950   52.3150 C   0  0  0  0  0  0  0  0  0  0  0  0
   52.8366   31.7936   53.1995 H   0  0  0  0  0  0  0  0  0  0  0  0
   52.1650   31.2300   51.1800 C   0  0  0  0  0  0  0  0  0  0  0  0
   52.1880   30.3420   50.1710 N   0  0  0  0  0  0  0  0  0  0  0  0
   51.2670   30.8260   49.3090 C   0  0  0  0  0  0  0  0  0  0  0  0
   50.9850   30.2500   48.2260 O   0  0  0  0  0  0  0  0  0  0  0  0
   50.6830   31.9810   49.6920 N   0  0  0  0  0  0  0  0  0  0  0  0
   51.2730   32.2320   50.8710 C   0  0  0  0  0  0  0  0  0  0  0  0
   51.0230   33.3660   51.6350 O   0  0  0  0  0  0  0  0  0  0  0  0
   55.3590   30.9330   51.7340 N   0  0  0  0  0  0  0  0  0  0  0  0
   56.2990   30.0180   52.0390 C   0  0  0  0  0  0  0  0  0  0  0  0
   57.4850   30.0890   51.6250 O   0  0  0  0  0  0  0  0  0  0  0  0
   55.8510   29.0200   52.8190 N   0  0  0  0  0  0  0  0  0  0  0  0
   56.3910   28.1870   53.1470 H   0  0  0  0  0  0  0  0  0  0  0  0
  1  2  1  0
  2  3  1  0
  2  4  2  0
  4  5  1  0
  5  6  2  0
  6  7  1  0
  6  8  1  0
  8  9  1  0
  9 10  1  0
 10 11  2  0
 10 12  1  0
 12 13  1  0
 13 14  1  0
  5 15  1  0
 15 16  1  0
 16 17  2  0
 16 18  1  0
 18 19  1  0
 18  4  1  0
 13  8  2  0
M  CHG  4   9  -1  12  -1  14  -1  15  -1
M  END
>  <UniqueID>  (43) 
41

>  <SMILES>  (43) 
C=c1[nH]c(=O)[n-]/c1=C/c1[n-]c(=O)[n-]c1[O-]

>  <Energy>  (43) 
91.52062672849867

>  <Genealogy>  (43) 
C=c1[nH]c(=O)[n-]c1=Cc1[n-]c(=O)[n-]c1[O-] (protonated)
C=c1[nH]c(=O)[n-]/c1=C/c1[n-]c(=O)[n-]c1[O-] (cis-trans isomerization)
C=c1[nH]c(=O)[n-]/c1=C/c1[n-]c(=O)[n-]c1[O-] (3D coordinates assigned)
C=c1[nH]c(=O)[n-]/c1=C/c1[n-]c(=O)[n-]c1[O-] (optimized conformer: 91.52062672849867 kcal/mol)

>  <smiles>  (43) 
C=c1[nH]c(=O)[nH]c1=Cc1[nH]c(=O)[nH]c1O

>  <score_type>  (43) 
oracle

>  <origin>  (43) 
adg

>  <m_score__min__energy>  (43) 
-15.98

>  <m_primary>  (43) 
energy

$$$$
43:0
     RDKit          3D

 66 69  0  0  1  0  0  0  0  0999 V2000
   57.3630   21.0910   42.6520 C   0  0  0  0  0  0  0  0  0  0  0  0
   56.1130   21.4700   43.1920 O   0  0  0  0  0  0  0  0  0  0  0  0
   56.0630   21.9730   44.4670 C   0  0  0  0  0  0  0  0  0  0  0  0
   55.9420   23.3140   44.6700 C   0  0  0  0  0  0  0  0  0  0  0  0
   55.8860   23.8730   45.9520 C   0  0  0  0  0  0  0  0  0  0  0  0
   55.8550   25.3010   46.0160 C   0  0  0  0  0  0  0  0  0  0  0  0
   56.8550   26.1350   46.0200 C   0  0  0  0  0  0  0  0  0  0  0  0
   58.1800   25.9120   45.5090 C   0  0  0  0  0  0  0  0  0  0  0  0
   59.0100   25.0520   45.7890 O   0  0  0  0  0  0  0  0  0  0  0  0
   58.6160   26.8520   44.4970 N   0  0  0  0  0  0  0  0  0  0  0  0
   58.7690   28.0990   44.8280 C   0  0  0  0  0  0  0  0  0  0  0  0
   59.2870   28.3340   46.0820 C   0  0  0  0  0  0  0  0  0  0  0  0
   59.4870   29.6210   46.5260 C   0  0  0  0  0  0  0  0  0  0  0  0
   60.0300   29.9500   47.8290 C   0  0  0  0  0  0  0  0  0  0  0  0
   60.1440   29.0600   48.7360 O   0  0  0  0  0  0  0  0  0  0  0  0
   60.4690   31.2530   48.1920 N   0  0  0  0  0  0  0  0  0  0  0  0
   60.9870   31.4120   49.5400 C   0  0  0  0  0  0  0  0  0  0  0  0
   62.4240   31.7760   49.5720 C   0  0  0  0  0  0  0  0  0  0  0  0
   63.1390   31.5040   50.7280 C   0  0  0  0  0  0  0  0  0  0  0  0
   64.4840   31.8250   50.8100 C   0  0  0  0  0  0  0  0  0  0  0  0
   65.1190   32.4260   49.7160 C   0  0  0  0  0  0  0  0  0  0  0  0
   66.4740   32.7320   49.8380 O   0  0  0  0  0  0  0  0  0  0  0  0
   64.4120   32.6830   48.5980 N   0  0  0  0  0  0  0  0  0  0  0  0
   63.0870   32.3670   48.5190 C   0  0  0  0  0  0  0  0  0  0  0  0
   62.4510   32.6230   47.4550 O   0  0  0  0  0  0  0  0  0  0  0  0
   59.1550   30.6160   45.6880 N   0  0  0  0  0  0  0  0  0  0  0  0
   58.6490   30.3880   44.4640 C   0  0  0  0  0  0  0  0  0  0  0  0
   58.3300   31.3310   43.6620 N   0  0  0  0  0  0  0  0  0  0  0  0
   57.5230   32.4490   44.0650 C   0  0  0  0  0  0  0  0  0  0  0  0
   58.1550   33.2820   45.1300 C   0  0  0  0  0  0  0  0  0  0  0  0
   59.1430   34.2120   44.8590 C   0  0  0  0  0  0  0  0  0  0  0  0
   59.7280   34.9850   45.8540 C   0  0  0  0  0  0  0  0  0  0  0  0
   59.3410   34.8530   47.1710 C   0  0  0  0  0  0  0  0  0  0  0  0
   58.3590   33.9320   47.4620 C   0  0  0  0  0  0  0  0  0  0  0  0
   57.7850   33.1700   46.4680 C   0  0  0  0  0  0  0  0  0  0  0  0
   58.4460   29.1170   44.0110 N   0  0  0  0  0  0  0  0  0  0  0  0
   55.9650   22.9800   46.9850 C   0  0  0  0  0  0  0  0  0  0  0  0
   56.0890   21.5920   46.7750 C   0  0  0  0  0  0  0  0  0  0  0  0
   56.1380   21.0800   45.5150 C   0  0  0  0  0  0  0  0  0  0  0  0
   56.2580   19.7270   45.2840 O   0  0  0  0  0  0  0  0  0  0  0  0
   58.0664   20.8777   43.4703 H   0  0  0  0  0  0  0  0  0  0  0  0
   57.2371   20.1907   42.0327 H   0  0  0  0  0  0  0  0  0  0  0  0
   57.7583   21.9097   42.0327 H   0  0  0  0  0  0  0  0  0  0  0  0
   55.8864   23.9807   43.7968 H   0  0  0  0  0  0  0  0  0  0  0  0
   54.8544   25.7550   46.0688 H   0  0  0  0  0  0  0  0  0  0  0  0
   56.6641   27.1227   46.4651 H   0  0  0  0  0  0  0  0  0  0  0  0
   59.5430   27.4860   46.7342 H   0  0  0  0  0  0  0  0  0  0  0  0
   60.4080   32.0310   47.5000 H   0  0  0  0  0  0  0  0  0  0  0  0
   60.4139   32.2042   50.0440 H   0  0  0  0  0  0  0  0  0  0  0  0
   60.8831   30.4417   50.0477 H   0  0  0  0  0  0  0  0  0  0  0  0
   62.6359   31.0310   51.5843 H   0  0  0  0  0  0  0  0  0  0  0  0
   65.0496   31.6093   51.7284 H   0  0  0  0  0  0  0  0  0  0  0  0
   66.9600   32.5360   50.7070 H   0  0  0  0  0  0  0  0  0  0  0  0
   64.9190   33.1310   47.8050 H   0  0  0  0  0  0  0  0  0  0  0  0
   59.2950   31.5810   45.9980 H   0  0  0  0  0  0  0  0  0  0  0  0
   57.3436   33.0847   43.1854 H   0  0  0  0  0  0  0  0  0  0  0  0
   56.5894   32.0427   44.4813 H   0  0  0  0  0  0  0  0  0  0  0  0
   59.4769   34.3439   43.8192 H   0  0  0  0  0  0  0  0  0  0  0  0
   60.5098   35.7116   45.5880 H   0  0  0  0  0  0  0  0  0  0  0  0
   59.8011   35.4627   47.9626 H   0  0  0  0  0  0  0  0  0  0  0  0
   58.0283   33.8030   48.5031 H   0  0  0  0  0  0  0  0  0  0  0  0
   57.0043   32.4451   46.7417 H   0  0  0  0  0  0  0  0  0  0  0  0
   58.0630   28.9360   43.0810 H   0  0  0  0  0  0  0  0  0  0  0  0
   55.9305   23.3590   48.0171 H   0  0  0  0  0  0  0  0  0  0  0  0
   56.1469   20.9145   47.6396 H   0  0  0  0  0  0  0  0  0  0  0  0
   56.6710   19.3270   44.4660 H   0  0  0  0  0  0  0  0  0  0  0  0
  1  2  1  0
  2  3  1  0
  3  4  2  0
  4  5  1  0
  5  6  1  0
  6  7  2  0
  7  8  1  0
  8  9  2  0
  8 10  1  0
 10 11  2  0
 11 12  1  0
 12 13  2  0
 13 14  1  0
 14 15  2  0
 14 16  1  0
 16 17  1  0
 17 18  1  0
 18 19  2  0
 19 20  1  0
 20 21  2  0
 21 22  1  0
 21 23  1  0
 23 24  1  0
 24 25  2  0
 13 26  1  0
 26 27  1  0
 27 28  2  0
 28 29  1  0
 29 30  1  0
 30 31  2  0
 31 32  1  0
 32 33  2  0
 33 34  1  0
 34 35  2  0
 27 36  1  0
  5 37  2  0
 37 38  1  0
 38 39  2  0
 39 40  1  0
 39  3  1  0
 36 11  1  0
 24 18  1  0
 35 30  1  0
  1 41  1  0
  1 42  1  0
  1 43  1  0
  4 44  1  0
  6 45  1  0
  7 46  1  0
 12 47  1  0
 16 48  1  0
 17 49  1  0
 17 50  1  0
 19 51  1  0
 20 52  1  0
 22 53  1  0
 23 54  1  0
 26 55  1  0
 29 56  1  0
 29 57  1  0
 31 58  1  0
 32 59  1  0
 33 60  1  0
 34 61  1  0
 35 62  1  0
 36 63  1  0
 37 64  1  0
 38 65  1  0
 40 66  1  0
M  END
>  <smiles>  (44) 
COc1cc(C=CC(=O)N=c2cc(C(=O)NCc3ccc(O)[nH]c3=O)[nH]c(=NCc3ccccc3)[nH]2)ccc1O

>  <score_type>  (44) 
oracle

>  <origin>  (44) 
adg

>  <m_score__min__energy>  (44) 
-10.75

>  <m_primary>  (44) 
energy

$$$$
44:0
     RDKit          3D

 36 38  0  0  0  0  0  0  0  0999 V2000
   54.0170   26.7350   46.3790 H   0  0  0  0  0  0  0  0  0  0  0  0
   54.8920   26.3200   45.9880 N   0  0  0  0  0  0  0  0  0  0  0  0
   55.9650   27.0240   45.8350 C   0  0  0  0  0  0  0  0  0  0  0  0
   55.8900   28.2510   45.2640 N   0  0  0  0  0  0  0  0  0  0  0  0
   56.9910   29.0280   45.0830 C   0  0  0  0  0  0  0  0  0  0  0  0
   56.7990   30.3010   44.3620 C   0  0  0  0  0  0  0  0  0  0  0  0
   55.7120   30.9250   44.4970 O   0  0  0  0  0  0  0  0  0  0  0  0
   57.7700   30.7620   43.4660 O   0  0  0  0  0  0  0  0  0  0  0  0
   57.7880   32.0870   42.9390 C   0  0  0  0  0  0  0  0  0  0  0  0
   57.1110   32.7208   43.5307 H   0  0  0  0  0  0  0  0  0  0  0  0
   58.8156   32.4759   42.9914 H   0  0  0  0  0  0  0  0  0  0  0  0
   57.3340   32.0910   41.4830 C   0  0  0  0  0  0  0  0  0  0  0  0
   56.2348   32.1007   41.4417 H   0  0  0  0  0  0  0  0  0  0  0  0
   57.7278   32.9857   40.9786 H   0  0  0  0  0  0  0  0  0  0  0  0
   57.7120   31.1895   40.9786 H   0  0  0  0  0  0  0  0  0  0  0  0
   58.2540   28.5660   45.5460 C   0  0  0  0  0  0  0  0  0  0  0  0
   59.4490   29.3880   45.5280 N   0  0  0  0  0  0  0  0  0  0  0  0
   59.5050   30.0140   44.6990 H   0  0  0  0  0  0  0  0  0  0  0  0
   60.2900   28.7680   45.5020 H   0  0  0  0  0  0  0  0  0  0  0  0
   59.5070   30.2180   46.7030 C   0  0  0  0  0  0  0  0  0  0  0  0
   59.7910   29.7410   47.9400 N   0  0  0  0  0  0  0  0  0  0  0  0
   59.7250   30.8020   48.7770 C   0  0  0  0  0  0  0  0  0  0  0  0
   59.9046   30.7634   49.8615 H   0  0  0  0  0  0  0  0  0  0  0  0
   59.3990   31.9390   48.0680 C   0  0  0  0  0  0  0  0  0  0  0  0
   59.2210   33.2540   48.4920 C   0  0  0  0  0  0  0  0  0  0  0  0
   59.3333   33.5299   49.5509 H   0  0  0  0  0  0  0  0  0  0  0  0
   58.8930   34.2170   47.5210 C   0  0  0  0  0  0  0  0  0  0  0  0
   58.7446   35.2655   47.8187 H   0  0  0  0  0  0  0  0  0  0  0  0
   58.7530   33.8450   46.1650 C   0  0  0  0  0  0  0  0  0  0  0  0
   58.4958   34.6062   45.4138 H   0  0  0  0  0  0  0  0  0  0  0  0
   58.9400   32.5090   45.7690 C   0  0  0  0  0  0  0  0  0  0  0  0
   58.8375   32.2085   44.7158 H   0  0  0  0  0  0  0  0  0  0  0  0
   59.2600   31.5770   46.7570 C   0  0  0  0  0  0  0  0  0  0  0  0
   58.3030   27.2630   46.0890 C   0  0  0  0  0  0  0  0  0  0  0  0
   59.3970   26.7610   46.4570 O   0  0  0  0  0  0  0  0  0  0  0  0
   57.1680   26.5330   46.2250 N   0  0  0  0  0  0  0  0  0  0  0  0
  1  2  1  0
  2  3  2  0
  3  4  1  0
  4  5  1  0
  5  6  1  0
  6  7  2  0
  6  8  1  0
  8  9  1  0
  9 10  1  0
  9 11  1  0
  9 12  1  0
 12 13  1  0
 12 14  1  0
 12 15  1  0
  5 16  2  0
 16 17  1  0
 17 18  1  0
 17 19  1  0
 17 20  1  0
 20 21  1  0
 21 22  1  0
 22 23  1  0
 22 24  2  0
 24 25  1  0
 25 26  1  0
 25 27  2  0
 27 28  1  0
 27 29  1  0
 29 30  1  0
 29 31  2  0
 31 32  1  0
 31 33  1  0
 16 34  1  0
 34 35  2  0
 34 36  1  0
 36  3  1  0
 33 20  2  0
 33 24  1  0
M  CHG  4   4  -1  17   1  21  -1  36  -1
M  END
>  <UniqueID>  (45) 
42

>  <SMILES>  (45) 
[H]/N=c1/[n-]c(C(=O)OCC)c([NH2+]c2[n-]cc3ccccc23)c(=O)[n-]1

>  <Energy>  (45) 
77.18912323683615

>  <Genealogy>  (45) 
CCOC(=O)c1[n-]c(=N)[n-]c(=O)c1[NH2+]c1[n-]cc2ccccc12 (protonated)
[H]/N=c1/[n-]c(C(=O)OCC)c([NH2+]c2[n-]cc3ccccc23)c(=O)[n-]1 (cis-trans isomerization)
[H]/N=c1/[n-]c(C(=O)OCC)c([NH2+]c2[n-]cc3ccccc23)c(=O)[n-]1 (3D coordinates assigned)
[H]/N=c1/[n-]c(C(=O)OCC)c([NH2+]c2[n-]cc3ccccc23)c(=O)[n-]1 (optimized conformer: 77.18912323683615 kcal/mol)

>  <smiles>  (45) 
CCOC(=O)c1[nH]c(=N)[nH]c(=O)c1Nc1[nH]cc2ccccc12

>  <score_type>  (45) 
oracle

>  <origin>  (45) 
adg

>  <m_score__min__energy>  (45) 
-11.06

>  <m_primary>  (45) 
energy

$$$$
45:0
     RDKit          3D

 63 67  0  0  0  0  0  0  0  0999 V2000
   56.6900   26.5430   46.7230 C   0  0  0  0  0  0  0  0  0  0  0  0
   57.0800   26.2120   45.4820 C   0  0  0  0  0  0  0  0  0  0  0  0
   56.7890   25.0290   44.7830 C   0  0  0  0  0  0  0  0  0  0  0  0
   56.1940   23.8880   45.1830 C   0  0  0  0  0  0  0  0  0  0  0  0
   54.7450   23.6820   45.3200 C   0  0  0  0  0  0  0  0  0  0  0  0
   54.1620   22.4710   45.3500 N   0  0  0  0  0  0  0  0  0  0  0  0
   52.8650   22.7580   45.6020 C   0  0  0  0  0  0  0  0  0  0  0  0
   51.9800   21.8680   45.6910 O   0  0  0  0  0  0  0  0  0  0  0  0
   52.5930   24.0700   45.7650 N   0  0  0  0  0  0  0  0  0  0  0  0
   53.7960   24.6410   45.5970 C   0  0  0  0  0  0  0  0  0  0  0  0
   54.0260   26.0060   45.7150 O   0  0  0  0  0  0  0  0  0  0  0  0
   57.2650   25.2140   43.4950 C   0  0  0  0  0  0  0  0  0  0  0  0
   57.8620   26.4560   43.4610 C   0  0  0  0  0  0  0  0  0  0  0  0
   58.5370   27.0500   42.2640 C   0  0  0  0  0  0  0  0  0  0  0  0
   57.7580   27.0580   44.6650 N   0  0  0  0  0  0  0  0  0  0  0  0
   58.2120   28.3860   44.9750 C   0  0  0  0  0  0  0  0  0  0  0  0
   57.3350   29.4750   44.8680 C   0  0  0  0  0  0  0  0  0  0  0  0
   57.7690   30.7640   45.1890 C   0  0  0  0  0  0  0  0  0  0  0  0
   59.0890   30.9800   45.6250 C   0  0  0  0  0  0  0  0  0  0  0  0
   59.5360   32.3440   45.9860 C   0  0  0  0  0  0  0  0  0  0  0  0
   58.9100   33.3310   45.5180 O   0  0  0  0  0  0  0  0  0  0  0  0
   60.6570   32.5670   46.8680 N   0  0  0  0  0  0  0  0  0  0  0  0
   60.9210   31.6330   47.9760 C   0  0  0  0  0  0  0  0  0  0  0  0
   61.5790   32.3430   49.1630 C   0  0  0  0  0  0  0  0  0  0  0  0
   62.7580   33.1120   48.7290 N   0  0  0  0  0  0  0  0  0  0  0  0
   63.8680   33.3180   49.6350 C   0  0  0  0  0  0  0  0  0  0  0  0
   63.7210   34.1120   50.7910 C   0  0  0  0  0  0  0  0  0  0  0  0
   64.7950   34.2980   51.6680 C   0  0  0  0  0  0  0  0  0  0  0  0
   66.0450   33.7060   51.4000 C   0  0  0  0  0  0  0  0  0  0  0  0
   67.1540   33.8660   52.2450 O   0  0  0  0  0  0  0  0  0  0  0  0
   68.5080   33.9120   51.7960 C   0  0  0  0  0  0  0  0  0  0  0  0
   66.1970   32.9290   50.2460 C   0  0  0  0  0  0  0  0  0  0  0  0
   65.1230   32.7320   49.3730 C   0  0  0  0  0  0  0  0  0  0  0  0
   62.7750   33.7350   47.3940 C   0  0  0  0  0  0  0  0  0  0  0  0
   61.3620   33.8560   46.8120 C   0  0  0  0  0  0  0  0  0  0  0  0
   59.9770   29.8920   45.6870 C   0  0  0  0  0  0  0  0  0  0  0  0
   59.5390   28.6030   45.3690 C   0  0  0  0  0  0  0  0  0  0  0  0
   56.9904   27.5091   47.1546 H   0  0  0  0  0  0  0  0  0  0  0  0
   56.0699   25.8481   47.3084 H   0  0  0  0  0  0  0  0  0  0  0  0
   56.8484   23.0384   45.4279 H   0  0  0  0  0  0  0  0  0  0  0  0
   57.1822   24.5045   42.6585 H   0  0  0  0  0  0  0  0  0  0  0  0
   59.3248   27.7433   42.5937 H   0  0  0  0  0  0  0  0  0  0  0  0
   58.9844   26.2473   41.6594 H   0  0  0  0  0  0  0  0  0  0  0  0
   57.7977   27.5958   41.6594 H   0  0  0  0  0  0  0  0  0  0  0  0
   56.3007   29.3139   44.5299 H   0  0  0  0  0  0  0  0  0  0  0  0
   57.0756   31.6133   45.1004 H   0  0  0  0  0  0  0  0  0  0  0  0
   59.9690   31.1918   48.3062 H   0  0  0  0  0  0  0  0  0  0  0  0
   61.6088   30.8542   47.6149 H   0  0  0  0  0  0  0  0  0  0  0  0
   60.8508   33.0285   49.6211 H   0  0  0  0  0  0  0  0  0  0  0  0
   61.9032   31.5840   49.8902 H   0  0  0  0  0  0  0  0  0  0  0  0
   62.7534   34.5893   51.0051 H   0  0  0  0  0  0  0  0  0  0  0  0
   64.6627   34.9102   52.5723 H   0  0  0  0  0  0  0  0  0  0  0  0
   69.1819   33.9349   52.6651 H   0  0  0  0  0  0  0  0  0  0  0  0
   68.7233   33.0207   51.1884 H   0  0  0  0  0  0  0  0  0  0  0  0
   68.6623   34.8159   51.1884 H   0  0  0  0  0  0  0  0  0  0  0  0
   67.1711   32.4688   50.0237 H   0  0  0  0  0  0  0  0  0  0  0  0
   65.2585   32.1139   48.4732 H   0  0  0  0  0  0  0  0  0  0  0  0
   63.2157   34.7397   47.4741 H   0  0  0  0  0  0  0  0  0  0  0  0
   63.3708   33.0981   46.7237 H   0  0  0  0  0  0  0  0  0  0  0  0
   60.7968   34.6007   47.3916 H   0  0  0  0  0  0  0  0  0  0  0  0
   61.4418   34.1664   45.7597 H   0  0  0  0  0  0  0  0  0  0  0  0
   61.0224   30.0558   45.9874 H   0  0  0  0  0  0  0  0  0  0  0  0
   60.2386   27.7562   45.4283 H   0  0  0  0  0  0  0  0  0  0  0  0
  1  2  2  0
  2  3  1  0
  3  4  2  3
  4  5  1  0
  5  6  1  0
  6  7  1  0
  7  8  2  0
  7  9  1  0
  9 10  1  0
 10 11  1  0
  3 12  1  0
 12 13  2  0
 13 14  1  0
 13 15  1  0
 15 16  1  0
 16 17  2  0
 17 18  1  0
 18 19  2  0
 19 20  1  0
 20 21  2  0
 20 22  1  0
 22 23  1  0
 23 24  1  0
 24 25  1  0
 25 26  1  0
 26 27  2  0
 27 28  1  0
 28 29  2  0
 29 30  1  0
 30 31  1  0
 29 32  1  0
 32 33  2  0
 25 34  1  0
 34 35  1  0
 19 36  1  0
 36 37  2  0
 15  2  1  0
 37 16  1  0
 10  5  2  0
 35 22  1  0
 33 26  1  0
  1 38  1  0
  1 39  1  0
  4 40  1  0
 12 41  1  0
 14 42  1  0
 14 43  1  0
 14 44  1  0
 17 45  1  0
 18 46  1  0
 23 47  1  0
 23 48  1  0
 24 49  1  0
 24 50  1  0
 27 51  1  0
 28 52  1  0
 31 53  1  0
 31 54  1  0
 31 55  1  0
 32 56  1  0
 33 57  1  0
 34 58  1  0
 34 59  1  0
 35 60  1  0
 35 61  1  0
 36 62  1  0
 37 63  1  0
M  CHG  3   6  -1   9  -1  11  -1
M  END
>  <UniqueID>  (46) 
43

>  <SMILES>  (46) 
C=c1c(=Cc2[n-]c(=O)[n-]c2[O-])cc(C)n1-c1ccc(C(=O)N2CCN(c3ccc(OC)cc3)CC2)cc1

>  <Energy>  (46) 
152.25064195136395

>  <Genealogy>  (46) 
C=c1c(=Cc2[n-]c(=O)[n-]c2[O-])cc(C)n1-c1ccc(C(=O)N2CCN(c3ccc(OC)cc3)CC2)cc1 (protonated)
C=c1c(=Cc2[n-]c(=O)[n-]c2[O-])cc(C)n1-c1ccc(C(=O)N2CCN(c3ccc(OC)cc3)CC2)cc1 (3D coordinates assigned)
C=c1c(=Cc2[n-]c(=O)[n-]c2[O-])cc(C)n1-c1ccc(C(=O)N2CCN(c3ccc(OC)cc3)CC2)cc1 (nonaromatic ring conformer: 152.25064195136395 kcal/mol)

>  <smiles>  (46) 
C=c1c(=Cc2[nH]c(=O)[nH]c2O)cc(C)n1-c1ccc(C(=O)N2CCN(c3ccc(OC)cc3)CC2)cc1

>  <score_type>  (46) 
oracle

>  <origin>  (46) 
adg

>  <m_score__min__energy>  (46) 
-15.539999999999999

>  <m_primary>  (46) 
energy

$$$$
46:0
     RDKit          3D

 50 53  0  0  0  0  0  0  0  0999 V2000
   60.2965   28.0894   47.1652 H   0  0  0  0  0  0  0  0  0  0  0  0
   59.5880   27.6010   46.4800 C   0  0  0  0  0  0  0  0  0  0  0  0
   59.5042   26.5043   46.4654 H   0  0  0  0  0  0  0  0  0  0  0  0
   58.8250   28.3440   45.6610 C   0  0  0  0  0  0  0  0  0  0  0  0
   57.8830   27.8670   44.7390 C   0  0  0  0  0  0  0  0  0  0  0  0
   57.5310   26.5790   44.5340 C   0  0  0  0  0  0  0  0  0  0  0  0
   57.6186   26.1917   43.5082 H   0  0  0  0  0  0  0  0  0  0  0  0
   57.0380   25.6440   45.5690 C   0  0  0  0  0  0  0  0  0  0  0  0
   57.7080   24.5910   46.0690 N   0  0  0  0  0  0  0  0  0  0  0  0
   56.8660   24.0890   46.9980 C   0  0  0  0  0  0  0  0  0  0  0  0
   57.1450   23.0760   47.6900 O   0  0  0  0  0  0  0  0  0  0  0  0
   55.7030   24.7620   47.1280 N   0  0  0  0  0  0  0  0  0  0  0  0
   55.8300   25.7440   46.2220 C   0  0  0  0  0  0  0  0  0  0  0  0
   54.8610   26.7120   45.9930 O   0  0  0  0  0  0  0  0  0  0  0  0
   57.3770   28.9920   44.0930 C   0  0  0  0  0  0  0  0  0  0  0  0
   56.6174   29.0054   43.2975 H   0  0  0  0  0  0  0  0  0  0  0  0
   58.0120   30.0870   44.6430 C   0  0  0  0  0  0  0  0  0  0  0  0
   57.7640   31.5080   44.2340 C   0  0  0  0  0  0  0  0  0  0  0  0
   57.6547   32.1342   45.1317 H   0  0  0  0  0  0  0  0  0  0  0  0
   58.6124   31.8706   43.6351 H   0  0  0  0  0  0  0  0  0  0  0  0
   56.8429   31.5617   43.6351 H   0  0  0  0  0  0  0  0  0  0  0  0
   58.8950   29.6970   45.5880 N   0  0  0  0  0  0  0  0  0  0  0  0
   59.7240   30.5720   46.3740 C   0  0  0  0  0  0  0  0  0  0  0  0
   61.1120   30.3790   46.4160 C   0  0  0  0  0  0  0  0  0  0  0  0
   61.5694   29.5627   45.8377 H   0  0  0  0  0  0  0  0  0  0  0  0
   61.9170   31.2200   47.1900 C   0  0  0  0  0  0  0  0  0  0  0  0
   63.0043   31.0569   47.2248 H   0  0  0  0  0  0  0  0  0  0  0  0
   61.3440   32.2730   47.9240 C   0  0  0  0  0  0  0  0  0  0  0  0
   62.1990   33.1530   48.7500 C   0  0  0  0  0  0  0  0  0  0  0  0
   61.9230   34.3820   48.8240 O   0  0  0  0  0  0  0  0  0  0  0  0
   63.3260   32.6340   49.4810 N   0  0  0  0  0  0  0  0  0  0  0  0
   64.5230   33.4620   49.6750 C   0  0  0  0  0  0  0  0  0  0  0  0
   65.4011   32.9248   49.2873 H   0  0  0  0  0  0  0  0  0  0  0  0
   64.3894   34.4112   49.1354 H   0  0  0  0  0  0  0  0  0  0  0  0
   64.7340   33.7650   51.1670 C   0  0  0  0  0  0  0  0  0  0  0  0
   65.7932   34.0162   51.3249 H   0  0  0  0  0  0  0  0  0  0  0  0
   64.0646   34.5986   51.4259 H   0  0  0  0  0  0  0  0  0  0  0  0
   64.3670   32.5800   52.0960 C   0  0  0  0  0  0  0  0  0  0  0  0
   63.1590   32.8480   52.7230 F   0  0  0  0  0  0  0  0  0  0  0  0
   65.3380   32.4480   53.0760 F   0  0  0  0  0  0  0  0  0  0  0  0
   64.2480   31.2530   51.3330 C   0  0  0  0  0  0  0  0  0  0  0  0
   65.2236   31.0014   50.8915 H   0  0  0  0  0  0  0  0  0  0  0  0
   63.9337   30.4674   52.0359 H   0  0  0  0  0  0  0  0  0  0  0  0
   63.2010   31.3630   50.2140 C   0  0  0  0  0  0  0  0  0  0  0  0
   63.3411   30.5293   49.5103 H   0  0  0  0  0  0  0  0  0  0  0  0
   62.2015   31.3254   50.6717 H   0  0  0  0  0  0  0  0  0  0  0  0
   59.9510   32.4480   47.8960 C   0  0  0  0  0  0  0  0  0  0  0  0
   59.4896   33.2532   48.4865 H   0  0  0  0  0  0  0  0  0  0  0  0
   59.1470   31.6060   47.1230 C   0  0  0  0  0  0  0  0  0  0  0  0
   58.0574   31.7555   47.1025 H   0  0  0  0  0  0  0  0  0  0  0  0
  1  2  1  0
  2  3  1  0
  2  4  2  0
  4  5  1  0
  5  6  2  0
  6  7  1  0
  6  8  1  0
  8  9  1  0
  9 10  1  0
 10 11  2  0
 10 12  1  0
 12 13  1  0
 13 14  1  0
  5 15  1  0
 15 16  1  0
 15 17  2  0
 17 18  1  0
 18 19  1  0
 18 20  1  0
 18 21  1  0
 17 22  1  0
 22 23  1  0
 23 24  2  0
 24 25  1  0
 24 26  1  0
 26 27  1  0
 26 28  2  0
 28 29  1  0
 29 30  2  0
 29 31  1  0
 31 32  1  0
 32 33  1  0
 32 34  1  0
 32 35  1  0
 35 36  1  0
 35 37  1  0
 35 38  1  0
 38 39  1  0
 38 40  1  0
 38 41  1  0
 41 42  1  0
 41 43  1  0
 41 44  1  0
 44 45  1  0
 44 46  1  0
 28 47  1  0
 47 48  1  0
 47 49  2  0
 49 50  1  0
 22  4  1  0
 49 23  1  0
 13  8  2  0
 44 31  1  0
M  CHG  3   9  -1  12  -1  14  -1
M  END
>  <UniqueID>  (47) 
44

>  <SMILES>  (47) 
C=c1/c(=C/c2[n-]c(=O)[n-]c2[O-])cc(C)n1-c1ccc(C(=O)N2CCC(F)(F)CC2)cc1

>  <Energy>  (47) 
128.80196125073735

>  <Genealogy>  (47) 
C=c1c(=Cc2[n-]c(=O)[n-]c2[O-])cc(C)n1-c1ccc(C(=O)N2CCC(F)(F)CC2)cc1 (protonated)
C=c1/c(=C/c2[n-]c(=O)[n-]c2[O-])cc(C)n1-c1ccc(C(=O)N2CCC(F)(F)CC2)cc1 (cis-trans isomerization)
C=c1/c(=C/c2[n-]c(=O)[n-]c2[O-])cc(C)n1-c1ccc(C(=O)N2CCC(F)(F)CC2)cc1 (3D coordinates assigned)
C=c1/c(=C/c2[n-]c(=O)[n-]c2[O-])cc(C)n1-c1ccc(C(=O)N2CCC(F)(F)CC2)cc1 (nonaromatic ring conformer: 128.80196125073735 kcal/mol)

>  <smiles>  (47) 
C=c1c(=Cc2[nH]c(=O)[nH]c2O)cc(C)n1-c1ccc(C(=O)N2CCC(F)(F)CC2)cc1

>  <score_type>  (47) 
oracle

>  <origin>  (47) 
adg

>  <m_score__min__energy>  (47) 
-15.67

>  <m_primary>  (47) 
energy

$$$$
47:0
     RDKit          3D

 49 52  0  0  0  0  0  0  0  0999 V2000
   59.6762   28.5985   48.3326 H   0  0  0  0  0  0  0  0  0  0  0  0
   59.1870   27.7470   47.8370 C   0  0  0  0  0  0  0  0  0  0  0  0
   59.2463   26.7430   48.2826 H   0  0  0  0  0  0  0  0  0  0  0  0
   58.5180   27.9330   46.6890 C   0  0  0  0  0  0  0  0  0  0  0  0
   57.8500   26.9520   45.9490 C   0  0  0  0  0  0  0  0  0  0  0  0
   57.6860   25.6550   46.2740 C   0  0  0  0  0  0  0  0  0  0  0  0
   58.5283   25.1316   46.7499 H   0  0  0  0  0  0  0  0  0  0  0  0
   56.4470   24.8940   46.0310 C   0  0  0  0  0  0  0  0  0  0  0  0
   56.4320   23.5770   45.7580 N   0  0  0  0  0  0  0  0  0  0  0  0
   55.1260   23.3190   45.5270 C   0  0  0  0  0  0  0  0  0  0  0  0
   54.7030   22.1690   45.2450 O   0  0  0  0  0  0  0  0  0  0  0  0
   54.3130   24.3930   45.6100 N   0  0  0  0  0  0  0  0  0  0  0  0
   55.1650   25.3850   45.9180 C   0  0  0  0  0  0  0  0  0  0  0  0
   54.7810   26.7150   46.0430 O   0  0  0  0  0  0  0  0  0  0  0  0
   57.3420   27.5900   44.8250 C   0  0  0  0  0  0  0  0  0  0  0  0
   56.7581   27.1280   44.0153 H   0  0  0  0  0  0  0  0  0  0  0  0
   57.7120   28.9170   44.9210 C   0  0  0  0  0  0  0  0  0  0  0  0
   57.3740   29.9740   43.9150 C   0  0  0  0  0  0  0  0  0  0  0  0
   57.0791   30.8962   44.4371 H   0  0  0  0  0  0  0  0  0  0  0  0
   58.2528   30.1746   43.2846 H   0  0  0  0  0  0  0  0  0  0  0  0
   56.5419   29.6275   43.2846 H   0  0  0  0  0  0  0  0  0  0  0  0
   58.4290   29.1260   46.0490 N   0  0  0  0  0  0  0  0  0  0  0  0
   58.9760   30.3850   46.4730 C   0  0  0  0  0  0  0  0  0  0  0  0
   58.1420   31.3630   47.0270 C   0  0  0  0  0  0  0  0  0  0  0  0
   57.0646   31.1670   47.1308 H   0  0  0  0  0  0  0  0  0  0  0  0
   58.6680   32.5860   47.4490 C   0  0  0  0  0  0  0  0  0  0  0  0
   58.0033   33.3428   47.8910 H   0  0  0  0  0  0  0  0  0  0  0  0
   60.0410   32.8570   47.3130 C   0  0  0  0  0  0  0  0  0  0  0  0
   60.6480   34.1380   47.7700 C   0  0  0  0  0  0  0  0  0  0  0  0
   60.1600   35.2110   47.3180 O   0  0  0  0  0  0  0  0  0  0  0  0
   61.7500   34.2220   48.7120 N   0  0  0  0  0  0  0  0  0  0  0  0
   61.8480   35.2380   48.9590 H   0  0  0  0  0  0  0  0  0  0  0  0
   61.4920   33.5200   49.9870 C   0  0  0  0  0  0  0  0  0  0  0  0
   60.5647   33.9083   50.4335 H   0  0  0  0  0  0  0  0  0  0  0  0
   61.3929   32.4427   49.7879 H   0  0  0  0  0  0  0  0  0  0  0  0
   62.6640   33.7430   50.9710 C   0  0  0  0  0  0  0  0  0  0  0  0
   62.3553   34.4882   51.7189 H   0  0  0  0  0  0  0  0  0  0  0  0
   62.8962   32.7697   51.4280 H   0  0  0  0  0  0  0  0  0  0  0  0
   63.8480   34.2040   50.3370 O   0  0  0  0  0  0  0  0  0  0  0  0
   64.0870   33.4650   49.1550 C   0  0  0  0  0  0  0  0  0  0  0  0
   65.0843   33.7168   48.7650 H   0  0  0  0  0  0  0  0  0  0  0  0
   64.0333   32.3912   49.3874 H   0  0  0  0  0  0  0  0  0  0  0  0
   63.0250   33.8010   48.0900 C   0  0  0  0  0  0  0  0  0  0  0  0
   63.4003   34.6175   47.4556 H   0  0  0  0  0  0  0  0  0  0  0  0
   62.8364   32.8970   47.4923 H   0  0  0  0  0  0  0  0  0  0  0  0
   60.8770   31.8630   46.7770 C   0  0  0  0  0  0  0  0  0  0  0  0
   61.9572   32.0507   46.6876 H   0  0  0  0  0  0  0  0  0  0  0  0
   60.3510   30.6380   46.3560 C   0  0  0  0  0  0  0  0  0  0  0  0
   61.1800   29.6920   45.8480 F   0  0  0  0  0  0  0  0  0  0  0  0
  1  2  1  0
  2  3  1  0
  2  4  2  0
  4  5  1  0
  5  6  2  0
  6  7  1  0
  6  8  1  0
  8  9  1  0
  9 10  1  0
 10 11  2  0
 10 12  1  0
 12 13  1  0
 13 14  1  0
  5 15  1  0
 15 16  1  0
 15 17  2  0
 17 18  1  0
 18 19  1  0
 18 20  1  0
 18 21  1  0
 17 22  1  0
 22 23  1  0
 23 24  2  0
 24 25  1  0
 24 26  1  0
 26 27  1  0
 26 28  2  0
 28 29  1  0
 29 30  2  0
 29 31  1  0
 31 32  1  0
 31 33  1  0
 33 34  1  0
 33 35  1  0
 33 36  1  0
 36 37  1  0
 36 38  1  0
 36 39  1  0
 39 40  1  0
 40 41  1  0
 40 42  1  0
 40 43  1  0
 43 44  1  0
 43 45  1  0
 28 46  1  0
 46 47  1  0
 46 48  2  0
 48 49  1  0
 22  4  1  0
 48 23  1  0
 13  8  2  0
 43 31  1  0
M  CHG  4   9  -1  12  -1  14  -1  31   1
M  END
>  <UniqueID>  (48) 
45

>  <SMILES>  (48) 
C=c1/c(=C/c2[n-]c(=O)[n-]c2[O-])cc(C)n1-c1ccc(C(=O)[NH+]2CCOCC2)cc1F

>  <Energy>  (48) 
142.28591415905325

>  <Genealogy>  (48) 
C=c1c(=Cc2[n-]c(=O)[n-]c2[O-])cc(C)n1-c1ccc(C(=O)[NH+]2CCOCC2)cc1F (protonated)
C=c1/c(=C/c2[n-]c(=O)[n-]c2[O-])cc(C)n1-c1ccc(C(=O)[NH+]2CCOCC2)cc1F (cis-trans isomerization)
C=c1/c(=C/c2[n-]c(=O)[n-]c2[O-])cc(C)n1-c1ccc(C(=O)[NH+]2CCOCC2)cc1F (3D coordinates assigned)
C=c1/c(=C/c2[n-]c(=O)[n-]c2[O-])cc(C)n1-c1ccc(C(=O)[NH+]2CCOCC2)cc1F (nonaromatic ring conformer: 142.28591415905325 kcal/mol)

>  <smiles>  (48) 
C=c1c(=Cc2[nH]c(=O)[nH]c2O)cc(C)n1-c1ccc(C(=O)N2CCOCC2)cc1F

>  <score_type>  (48) 
oracle

>  <origin>  (48) 
adg

>  <m_score__min__energy>  (48) 
-14.33

>  <m_primary>  (48) 
energy

$$$$
48:0
     RDKit          3D

 46 48  0  0  0  0  0  0  0  0999 V2000
   51.1520   23.6680   43.6220 C   0  0  0  0  0  0  0  0  0  0  0  0
   52.6780   23.7120   44.5370 S   0  0  0  0  0  0  0  0  0  0  0  0
   52.7980   25.0110   45.2810 O   0  0  0  0  0  0  0  0  0  0  0  0
   52.6940   22.5910   45.5330 O   0  0  0  0  0  0  0  0  0  0  0  0
   54.0300   23.5180   43.4630 N   0  0  0  0  0  0  0  0  0  0  0  0
   55.3530   23.1130   43.8480 C   0  0  0  0  0  0  0  0  0  0  0  0
   56.1340   22.2910   43.0210 C   0  0  0  0  0  0  0  0  0  0  0  0
   57.4220   21.9250   43.4030 C   0  0  0  0  0  0  0  0  0  0  0  0
   57.9530   22.3770   44.6110 C   0  0  0  0  0  0  0  0  0  0  0  0
   57.1930   23.1990   45.4650 C   0  0  0  0  0  0  0  0  0  0  0  0
   57.7980   23.7080   46.7270 C   0  0  0  0  0  0  0  0  0  0  0  0
   57.3640   23.2970   47.8410 O   0  0  0  0  0  0  0  0  0  0  0  0
   58.7890   24.7510   46.6670 N   0  0  0  0  0  0  0  0  0  0  0  0
   58.6330   26.0370   46.5020 C   0  0  0  0  0  0  0  0  0  0  0  0
   57.3780   26.6430   46.2860 C   0  0  0  0  0  0  0  0  0  0  0  0
   57.3060   28.0230   46.0920 C   0  0  0  0  0  0  0  0  0  0  0  0
   58.4680   28.8000   46.1160 C   0  0  0  0  0  0  0  0  0  0  0  0
   58.3960   30.2590   45.8980 C   0  0  0  0  0  0  0  0  0  0  0  0
   59.0980   31.1030   46.7750 C   0  0  0  0  0  0  0  0  0  0  0  0
   59.0720   32.4880   46.5990 C   0  0  0  0  0  0  0  0  0  0  0  0
   58.3470   33.0460   45.5480 C   0  0  0  0  0  0  0  0  0  0  0  0
   57.6320   32.2210   44.6750 C   0  0  0  0  0  0  0  0  0  0  0  0
   57.6350   30.8270   44.8440 C   0  0  0  0  0  0  0  0  0  0  0  0
   56.6450   29.8380   43.7570 S   0  0  0  0  0  0  0  0  0  0  0  0
   55.1920   29.3420   44.5540 N   0  0  0  0  0  0  0  0  0  0  0  0
   57.4220   28.6270   43.3190 O   0  0  0  0  0  0  0  0  0  0  0  0
   56.2620   30.6390   42.5430 O   0  0  0  0  0  0  0  0  0  0  0  0
   59.6880   28.1740   46.3820 C   0  0  0  0  0  0  0  0  0  0  0  0
   59.7390   26.8270   46.5640 N   0  0  0  0  0  0  0  0  0  0  0  0
   55.8750   23.5490   45.0850 C   0  0  0  0  0  0  0  0  0  0  0  0
   55.0910   24.3290   45.9400 O   0  0  0  0  0  0  0  0  0  0  0  0
   50.3047   23.6436   44.3231 H   0  0  0  0  0  0  0  0  0  0  0  0
   51.0782   24.5644   42.9887 H   0  0  0  0  0  0  0  0  0  0  0  0
   51.1300   22.7688   42.9887 H   0  0  0  0  0  0  0  0  0  0  0  0
   55.7257   21.9333   42.0642 H   0  0  0  0  0  0  0  0  0  0  0  0
   58.0235   21.2764   42.7491 H   0  0  0  0  0  0  0  0  0  0  0  0
   58.9747   22.0887   44.8991 H   0  0  0  0  0  0  0  0  0  0  0  0
   56.4630   26.0326   46.2706 H   0  0  0  0  0  0  0  0  0  0  0  0
   56.3307   28.5016   45.9194 H   0  0  0  0  0  0  0  0  0  0  0  0
   59.6726   30.6693   47.6067 H   0  0  0  0  0  0  0  0  0  0  0  0
   59.6249   33.1398   47.2914 H   0  0  0  0  0  0  0  0  0  0  0  0
   58.3373   34.1366   45.4052 H   0  0  0  0  0  0  0  0  0  0  0  0
   57.0615   32.6681   43.8476 H   0  0  0  0  0  0  0  0  0  0  0  0
   55.1620   28.2970   44.5110 H   0  0  0  0  0  0  0  0  0  0  0  0
   60.6094   28.7716   46.4444 H   0  0  0  0  0  0  0  0  0  0  0  0
   54.0880   24.2140   46.0210 H   0  0  0  0  0  0  0  0  0  0  0  0
  1  2  1  0
  2  3  2  0
  2  4  2  0
  2  5  1  0
  5  6  1  0
  6  7  2  0
  7  8  1  0
  8  9  2  0
  9 10  1  0
 10 11  1  0
 11 12  2  0
 11 13  1  0
 13 14  2  3
 14 15  1  0
 15 16  2  0
 16 17  1  0
 17 18  1  0
 18 19  2  0
 19 20  1  0
 20 21  2  0
 21 22  1  0
 22 23  2  0
 23 24  1  0
 24 25  1  0
 24 26  2  0
 24 27  2  0
 17 28  2  0
 28 29  1  0
 10 30  2  0
 30 31  1  0
 30  6  1  0
 29 14  1  0
 23 18  1  0
  1 32  1  0
  1 33  1  0
  1 34  1  0
  7 35  1  0
  8 36  1  0
  9 37  1  0
 15 38  1  0
 16 39  1  0
 19 40  1  0
 20 41  1  0
 21 42  1  0
 22 43  1  0
 25 44  1  0
 28 45  1  0
 31 46  1  0
M  CHG  3   5  -1  25  -1  29  -1
M  END
>  <UniqueID>  (49) 
46

>  <SMILES>  (49) 
CS(=O)(=O)[N-]c1cccc(C(=O)N=c2ccc(-c3ccccc3S([NH-])(=O)=O)c[n-]2)c1O

>  <Energy>  (49) 
69.14985845305358

>  <Genealogy>  (49) 
CS(=O)(=O)[N-]c1cccc(C(=O)N=c2ccc(-c3ccccc3S([NH-])(=O)=O)c[n-]2)c1O (protonated)
CS(=O)(=O)[N-]c1cccc(C(=O)N=c2ccc(-c3ccccc3S([NH-])(=O)=O)c[n-]2)c1O (3D coordinates assigned)
CS(=O)(=O)[N-]c1cccc(C(=O)N=c2ccc(-c3ccccc3S([NH-])(=O)=O)c[n-]2)c1O (optimized conformer: 69.14985845305358 kcal/mol)

>  <smiles>  (49) 
CS(=O)(=O)Nc1cccc(C(=O)N=c2ccc(-c3ccccc3S(N)(=O)=O)c[nH]2)c1O

>  <score_type>  (49) 
oracle

>  <origin>  (49) 
adg

>  <m_score__min__energy>  (49) 
-14.75

>  <m_primary>  (49) 
energy

$$$$
49:0
     RDKit          3D

 36 38  0  0  0  0  0  0  0  0999 V2000
   59.4990   34.2377   46.6599 H   0  0  0  0  0  0  0  0  0  0  0  0
   59.0050   33.6570   45.8670 C   0  0  0  0  0  0  0  0  0  0  0  0
   58.3180   32.5260   46.1810 N   0  0  0  0  0  0  0  0  0  0  0  0
   57.6950   31.7660   45.2370 C   0  0  0  0  0  0  0  0  0  0  0  0
   57.0190   30.7250   45.6300 N   0  0  0  0  0  0  0  0  0  0  0  0
   56.6470   29.3080   44.6870 S   0  0  0  0  0  0  0  0  0  0  0  0
   55.1520   29.1740   44.5830 O   0  0  0  0  0  0  0  0  0  0  0  0
   57.2230   29.4690   43.3100 O   0  0  0  0  0  0  0  0  0  0  0  0
   57.3490   27.8650   45.4300 C   0  0  0  0  0  0  0  0  0  0  0  0
   58.7390   27.6930   45.4250 C   0  0  0  0  0  0  0  0  0  0  0  0
   59.3890   28.4976   45.0507 H   0  0  0  0  0  0  0  0  0  0  0  0
   59.3030   26.5050   45.8930 C   0  0  0  0  0  0  0  0  0  0  0  0
   60.3966   26.3882   45.9138 H   0  0  0  0  0  0  0  0  0  0  0  0
   58.4830   25.4640   46.3350 C   0  0  0  0  0  0  0  0  0  0  0  0
   59.0570   24.3010   46.7350 F   0  0  0  0  0  0  0  0  0  0  0  0
   57.0840   25.6190   46.3500 C   0  0  0  0  0  0  0  0  0  0  0  0
   56.1880   24.4480   46.6810 C   0  0  0  0  0  0  0  0  0  0  0  0
   55.1467   24.7946   46.7552 H   0  0  0  0  0  0  0  0  0  0  0  0
   56.5024   24.0101   47.6399 H   0  0  0  0  0  0  0  0  0  0  0  0
   56.2920   23.4000   45.5960 C   0  0  0  0  0  0  0  0  0  0  0  0
   55.7390   23.6460   44.3310 C   0  0  0  0  0  0  0  0  0  0  0  0
   55.2948   24.6274   44.1084 H   0  0  0  0  0  0  0  0  0  0  0  0
   55.7500   22.6770   43.3800 N   0  0  0  0  0  0  0  0  0  0  0  0
   56.2930   21.4580   43.6300 C   0  0  0  0  0  0  0  0  0  0  0  0
   56.2850   20.5690   42.7380 O   0  0  0  0  0  0  0  0  0  0  0  0
   56.8440   21.1930   44.8420 N   0  0  0  0  0  0  0  0  0  0  0  0
   56.8590   22.1290   45.8250 C   0  0  0  0  0  0  0  0  0  0  0  0
   57.3810   21.8440   46.9360 O   0  0  0  0  0  0  0  0  0  0  0  0
   56.5230   26.8430   45.9300 C   0  0  0  0  0  0  0  0  0  0  0  0
   55.1460   27.0350   45.9990 O   0  0  0  0  0  0  0  0  0  0  0  0
   57.7820   32.1530   43.8820 C   0  0  0  0  0  0  0  0  0  0  0  0
   57.3121   31.5397   43.0990 H   0  0  0  0  0  0  0  0  0  0  0  0
   58.4690   33.3200   43.5440 C   0  0  0  0  0  0  0  0  0  0  0  0
   58.5259   33.6395   42.4930 H   0  0  0  0  0  0  0  0  0  0  0  0
   59.0840   34.0820   44.5390 C   0  0  0  0  0  0  0  0  0  0  0  0
   59.6237   35.0050   44.2804 H   0  0  0  0  0  0  0  0  0  0  0  0
  1  2  1  0
  2  3  1  0
  3  4  1  0
  4  5  2  0
  5  6  1  0
  6  7  2  0
  6  8  2  0
  6  9  1  0
  9 10  2  0
 10 11  1  0
 10 12  1  0
 12 13  1  0
 12 14  2  0
 14 15  1  0
 14 16  1  0
 16 17  1  0
 17 18  1  0
 17 19  1  0
 17 20  1  0
 20 21  2  0
 21 22  1  0
 21 23  1  0
 23 24  1  0
 24 25  2  0
 24 26  1  0
 26 27  1  0
 27 28  2  0
 16 29  2  0
 29 30  1  0
  4 31  1  0
 31 32  1  0
 31 33  2  0
 33 34  1  0
 33 35  1  0
 35 36  1  0
 35  2  2  0
 29  9  1  0
 27 20  1  0
M  CHG  4   3  -1  23  -1  26  -1  30  -1
M  END
>  <UniqueID>  (50) 
47

>  <SMILES>  (50) 
O=c1[n-]cc(Cc2c(F)ccc(S(=O)(=O)/N=c3\cccc[n-]3)c2[O-])c(=O)[n-]1

>  <Energy>  (50) 
47.339476876943905

>  <Genealogy>  (50) 
O=c1[n-]cc(Cc2c(F)ccc(S(=O)(=O)N=c3cccc[n-]3)c2[O-])c(=O)[n-]1 (protonated)
O=c1[n-]cc(Cc2c(F)ccc(S(=O)(=O)/N=c3\cccc[n-]3)c2[O-])c(=O)[n-]1 (cis-trans isomerization)
O=c1[n-]cc(Cc2c(F)ccc(S(=O)(=O)/N=c3\cccc[n-]3)c2[O-])c(=O)[n-]1 (3D coordinates assigned)
O=c1[n-]cc(Cc2c(F)ccc(S(=O)(=O)/N=c3\cccc[n-]3)c2[O-])c(=O)[n-]1 (optimized conformer: 47.339476876943905 kcal/mol)

>  <smiles>  (50) 
O=c1[nH]cc(Cc2c(F)ccc(S(=O)(=O)N=c3cccc[nH]3)c2O)c(=O)[nH]1

>  <score_type>  (50) 
oracle

>  <origin>  (50) 
adg

>  <m_score__min__energy>  (50) 
-17.030000000000001

>  <m_primary>  (50) 
energy

$$$$
50:0
     RDKit          3D

 30 32  0  0  0  0  0  0  0  0999 V2000
   57.1608   33.9078   46.4267 H   0  0  0  0  0  0  0  0  0  0  0  0
   57.5380   33.8210   45.3970 C   0  0  0  0  0  0  0  0  0  0  0  0
   57.8424   34.7224   44.8449 H   0  0  0  0  0  0  0  0  0  0  0  0
   57.6260   32.6270   44.8200 C   0  0  0  0  0  0  0  0  0  0  0  0
   57.2850   31.5030   45.4080 O   0  0  0  0  0  0  0  0  0  0  0  0
   57.4960   30.5170   44.5630 C   0  0  0  0  0  0  0  0  0  0  0  0
   57.2490   29.2330   44.8550 C   0  0  0  0  0  0  0  0  0  0  0  0
   58.1690   28.2560   44.6800 N   0  0  0  0  0  0  0  0  0  0  0  0
   57.5470   27.1260   45.0790 C   0  0  0  0  0  0  0  0  0  0  0  0
   58.1530   25.9290   45.0720 C   0  0  0  0  0  0  0  0  0  0  0  0
   59.1962   25.8837   45.4179 H   0  0  0  0  0  0  0  0  0  0  0  0
   57.5220   24.6680   44.6340 C   0  0  0  0  0  0  0  0  0  0  0  0
   56.9370   24.5520   43.3600 C   0  0  0  0  0  0  0  0  0  0  0  0
   56.9098   25.4224   42.6880 H   0  0  0  0  0  0  0  0  0  0  0  0
   56.3900   23.3340   42.9450 C   0  0  0  0  0  0  0  0  0  0  0  0
   55.9183   23.2525   41.9546 H   0  0  0  0  0  0  0  0  0  0  0  0
   56.4420   22.2190   43.7880 C   0  0  0  0  0  0  0  0  0  0  0  0
   55.8960   21.0100   43.3740 O   0  0  0  0  0  0  0  0  0  0  0  0
   57.0490   22.3200   45.0430 C   0  0  0  0  0  0  0  0  0  0  0  0
   57.0951   21.4412   45.7030 H   0  0  0  0  0  0  0  0  0  0  0  0
   57.5980   23.5370   45.4610 C   0  0  0  0  0  0  0  0  0  0  0  0
   58.0911   23.6075   46.4417 H   0  0  0  0  0  0  0  0  0  0  0  0
   56.2710   27.4570   45.5010 C   0  0  0  0  0  0  0  0  0  0  0  0
   55.4110   26.6810   45.9960 O   0  0  0  0  0  0  0  0  0  0  0  0
   56.0780   28.7760   45.3540 N   0  0  0  0  0  0  0  0  0  0  0  0
   55.2170   29.3130   45.5970 H   0  0  0  0  0  0  0  0  0  0  0  0
   57.9970   31.0150   43.3690 C   0  0  0  0  0  0  0  0  0  0  0  0
   58.2708   30.4391   42.4727 H   0  0  0  0  0  0  0  0  0  0  0  0
   58.0810   32.3830   43.5380 C   0  0  0  0  0  0  0  0  0  0  0  0
   58.4357   33.1233   42.8058 H   0  0  0  0  0  0  0  0  0  0  0  0
  1  2  1  0
  2  3  1  0
  2  4  2  0
  4  5  1  0
  5  6  1  0
  6  7  2  3
  7  8  1  0
  8  9  1  0
  9 10  2  0
 10 11  1  0
 10 12  1  0
 12 13  2  0
 13 14  1  0
 13 15  1  0
 15 16  1  0
 15 17  2  0
 17 18  1  0
 17 19  1  0
 19 20  1  0
 19 21  2  0
 21 22  1  0
  9 23  1  0
 23 24  2  0
 23 25  1  0
 25 26  1  0
  6 27  1  0
 27 28  1  0
 27 29  2  0
 29 30  1  0
 29  4  1  0
 25  7  1  0
 21 12  1  0
M  CHG  2   8  -1  18  -1
M  END
>  <UniqueID>  (51) 
48

>  <SMILES>  (51) 
C=c1ccc(=c2[n-]/c(=C/c3ccc([O-])cc3)c(=O)[nH]2)o1

>  <Energy>  (51) 
98.67097742926465

>  <Genealogy>  (51) 
C=c1ccc(=c2[n-]c(=Cc3ccc([O-])cc3)c(=O)[nH]2)o1 (protonated)
C=c1ccc(=c2[n-]/c(=C/c3ccc([O-])cc3)c(=O)[nH]2)o1 (cis-trans isomerization)
C=c1ccc(=c2[n-]/c(=C/c3ccc([O-])cc3)c(=O)[nH]2)o1 (3D coordinates assigned)
C=c1ccc(=c2[n-]/c(=C/c3ccc([O-])cc3)c(=O)[nH]2)o1 (optimized conformer: 98.67097742926465 kcal/mol)

>  <smiles>  (51) 
C=c1ccc(=c2[nH]c(=O)c(=Cc3ccc(O)cc3)[nH]2)o1

>  <score_type>  (51) 
oracle

>  <origin>  (51) 
adg

>  <m_score__min__energy>  (51) 
-11.220000000000001

>  <m_primary>  (51) 
energy

$$$$
51:0
     RDKit          3D

 45 48  0  0  0  0  0  0  0  0999 V2000
   60.0090   29.3220   47.6180 C   0  0  0  0  0  0  0  0  0  0  0  0
   59.3070   29.7310   46.5500 C   0  0  0  0  0  0  0  0  0  0  0  0
   58.5490   28.9370   45.6700 C   0  0  0  0  0  0  0  0  0  0  0  0
   58.4350   27.5980   45.5590 C   0  0  0  0  0  0  0  0  0  0  0  0
   57.2080   26.8190   45.7840 C   0  0  0  0  0  0  0  0  0  0  0  0
   57.1950   25.6020   46.3530 N   0  0  0  0  0  0  0  0  0  0  0  0
   55.8770   25.3320   46.4810 C   0  0  0  0  0  0  0  0  0  0  0  0
   55.4510   24.2520   46.9670 O   0  0  0  0  0  0  0  0  0  0  0  0
   55.0530   26.3150   46.0580 N   0  0  0  0  0  0  0  0  0  0  0  0
   55.9110   27.2550   45.6340 C   0  0  0  0  0  0  0  0  0  0  0  0
   55.5180   28.4960   45.1460 O   0  0  0  0  0  0  0  0  0  0  0  0
   57.8790   29.8160   44.8360 C   0  0  0  0  0  0  0  0  0  0  0  0
   58.2780   31.0880   45.1880 C   0  0  0  0  0  0  0  0  0  0  0  0
   57.8200   32.3470   44.5170 C   0  0  0  0  0  0  0  0  0  0  0  0
   59.1500   31.0370   46.2170 N   0  0  0  0  0  0  0  0  0  0  0  0
   59.7320   32.1800   46.8690 C   0  0  0  0  0  0  0  0  0  0  0  0
   58.9130   33.2310   47.2960 C   0  0  0  0  0  0  0  0  0  0  0  0
   59.4670   34.3300   47.9530 C   0  0  0  0  0  0  0  0  0  0  0  0
   60.8430   34.3880   48.1840 C   0  0  0  0  0  0  0  0  0  0  0  0
   61.6850   33.3480   47.7540 C   0  0  0  0  0  0  0  0  0  0  0  0
   63.1420   33.4390   48.0090 C   0  0  0  0  0  0  0  0  0  0  0  0
   63.9280   33.5150   47.0220 O   0  0  0  0  0  0  0  0  0  0  0  0
   63.6600   33.4670   49.3630 N   0  0  0  0  0  0  0  0  0  0  0  0
   64.9520   32.7820   49.4940 C   0  0  0  0  0  0  0  0  0  0  0  0
   64.3780   31.7220   50.4230 C   0  0  0  0  0  0  0  0  0  0  0  0
   63.0630   32.4690   50.2640 C   0  0  0  0  0  0  0  0  0  0  0  0
   61.1170   32.2300   47.1080 C   0  0  0  0  0  0  0  0  0  0  0  0
   61.8840   31.1650   46.7600 F   0  0  0  0  0  0  0  0  0  0  0  0
   60.5617   30.0534   48.2259 H   0  0  0  0  0  0  0  0  0  0  0  0
   60.0318   28.2553   47.8856 H   0  0  0  0  0  0  0  0  0  0  0  0
   59.3391   27.0393   45.2753 H   0  0  0  0  0  0  0  0  0  0  0  0
   57.1643   29.5501   44.0433 H   0  0  0  0  0  0  0  0  0  0  0  0
   57.5492   33.0915   45.2801 H   0  0  0  0  0  0  0  0  0  0  0  0
   58.6313   32.7439   43.8892 H   0  0  0  0  0  0  0  0  0  0  0  0
   56.9433   32.1298   43.8892 H   0  0  0  0  0  0  0  0  0  0  0  0
   57.8291   33.1906   47.1131 H   0  0  0  0  0  0  0  0  0  0  0  0
   58.8187   35.1524   48.2897 H   0  0  0  0  0  0  0  0  0  0  0  0
   61.2718   35.2554   48.7072 H   0  0  0  0  0  0  0  0  0  0  0  0
   63.6560   34.4180   49.8010 H   0  0  0  0  0  0  0  0  0  0  0  0
   65.3303   32.3746   48.5448 H   0  0  0  0  0  0  0  0  0  0  0  0
   65.8293   33.3587   49.8222 H   0  0  0  0  0  0  0  0  0  0  0  0
   64.3841   30.6976   50.0224 H   0  0  0  0  0  0  0  0  0  0  0  0
   64.8164   31.4888   51.4045 H   0  0  0  0  0  0  0  0  0  0  0  0
   62.2720   31.8686   49.7909 H   0  0  0  0  0  0  0  0  0  0  0  0
   62.5335   32.8134   51.1646 H   0  0  0  0  0  0  0  0  0  0  0  0
  1  2  2  0
  2  3  1  0
  3  4  2  3
  4  5  1  0
  5  6  1  0
  6  7  1  0
  7  8  2  0
  7  9  1  0
  9 10  1  0
 10 11  1  0
  3 12  1  0
 12 13  2  0
 13 14  1  0
 13 15  1  0
 15 16  1  0
 16 17  2  0
 17 18  1  0
 18 19  2  0
 19 20  1  0
 20 21  1  0
 21 22  2  0
 21 23  1  0
 23 24  1  0
 24 25  1  0
 25 26  1  0
 20 27  2  0
 27 28  1  0
 15  2  1  0
 27 16  1  0
 10  5  2  0
 26 23  1  0
  1 29  1  0
  1 30  1  0
  4 31  1  0
 12 32  1  0
 14 33  1  0
 14 34  1  0
 14 35  1  0
 17 36  1  0
 18 37  1  0
 19 38  1  0
 23 39  1  0
 24 40  1  0
 24 41  1  0
 25 42  1  0
 25 43  1  0
 26 44  1  0
 26 45  1  0
M  CHG  4   6  -1   9  -1  11  -1  23   1
M  END
>  <UniqueID>  (52) 
49

>  <SMILES>  (52) 
C=c1c(=Cc2[n-]c(=O)[n-]c2[O-])cc(C)n1-c1cccc(C(=O)[NH+]2CCC2)c1F

>  <Energy>  (52) 
202.21905468195942

>  <Genealogy>  (52) 
C=c1c(=Cc2[n-]c(=O)[n-]c2[O-])cc(C)n1-c1cccc(C(=O)[NH+]2CCC2)c1F (protonated)
C=c1c(=Cc2[n-]c(=O)[n-]c2[O-])cc(C)n1-c1cccc(C(=O)[NH+]2CCC2)c1F (3D coordinates assigned)
C=c1c(=Cc2[n-]c(=O)[n-]c2[O-])cc(C)n1-c1cccc(C(=O)[NH+]2CCC2)c1F (nonaromatic ring conformer: 202.21905468195942 kcal/mol)

>  <smiles>  (52) 
C=c1c(=Cc2[nH]c(=O)[nH]c2O)cc(C)n1-c1cccc(C(=O)N2CCC2)c1F

>  <score_type>  (52) 
oracle

>  <origin>  (52) 
adg

>  <m_score__min__energy>  (52) 
-14.98

>  <m_primary>  (52) 
energy

$$$$
52:0
     RDKit          3D

 29 29  0  0  0  0  0  0  0  0999 V2000
   59.9730   28.2600   44.8520 C   0  0  0  0  0  0  0  0  0  0  0  0
   58.6780   27.9710   44.9390 C   0  0  0  0  0  0  0  0  0  0  0  0
   57.7880   28.1150   43.7760 C   0  0  0  0  0  0  0  0  0  0  0  0
   57.2160   29.2890   43.4910 C   0  0  0  0  0  0  0  0  0  0  0  0
   56.3190   29.9980   44.4260 C   0  0  0  0  0  0  0  0  0  0  0  0
   55.3360   29.3730   44.9030 O   0  0  0  0  0  0  0  0  0  0  0  0
   56.5190   31.3660   44.8150 N   0  0  0  0  0  0  0  0  0  0  0  0
   57.6970   31.9020   45.4370 C   0  0  0  0  0  0  0  0  0  0  0  0
   58.5650   31.0120   46.0580 C   0  0  0  0  0  0  0  0  0  0  0  0
   59.7540   31.4840   46.5980 C   0  0  0  0  0  0  0  0  0  0  0  0
   60.5530   30.6620   47.1250 O   0  0  0  0  0  0  0  0  0  0  0  0
   60.0530   32.8190   46.5420 N   0  0  0  0  0  0  0  0  0  0  0  0
   61.3410   33.3080   47.0640 C   0  0  0  0  0  0  0  0  0  0  0  0
   59.1810   33.6900   45.9360 C   0  0  0  0  0  0  0  0  0  0  0  0
   59.4850   34.9140   45.8420 O   0  0  0  0  0  0  0  0  0  0  0  0
   57.9810   33.2460   45.4320 N   0  0  0  0  0  0  0  0  0  0  0  0
   57.0190   34.2230   44.8930 C   0  0  0  0  0  0  0  0  0  0  0  0
   60.6223   28.1460   45.7325 H   0  0  0  0  0  0  0  0  0  0  0  0
   60.3949   28.6131   43.8995 H   0  0  0  0  0  0  0  0  0  0  0  0
   58.2653   27.6186   45.8958 H   0  0  0  0  0  0  0  0  0  0  0  0
   57.5908   27.2449   43.1326 H   0  0  0  0  0  0  0  0  0  0  0  0
   57.4232   29.7490   42.5135 H   0  0  0  0  0  0  0  0  0  0  0  0
   58.3124   29.9433   46.1212 H   0  0  0  0  0  0  0  0  0  0  0  0
   61.3180   33.2993   48.1637 H   0  0  0  0  0  0  0  0  0  0  0  0
   62.1521   32.6552   46.7090 H   0  0  0  0  0  0  0  0  0  0  0  0
   61.5145   34.3346   46.7090 H   0  0  0  0  0  0  0  0  0  0  0  0
   56.5134   34.7365   45.7240 H   0  0  0  0  0  0  0  0  0  0  0  0
   57.5527   34.9611   44.2763 H   0  0  0  0  0  0  0  0  0  0  0  0
   56.2727   33.7008   44.2763 H   0  0  0  0  0  0  0  0  0  0  0  0
  1  2  2  0
  2  3  1  0
  3  4  2  3
  4  5  1  0
  5  6  2  0
  5  7  1  0
  7  8  1  0
  8  9  2  0
  9 10  1  0
 10 11  2  0
 10 12  1  0
 12 13  1  0
 12 14  1  0
 14 15  2  0
 14 16  1  0
 16 17  1  0
 16  8  1  0
  1 18  1  0
  1 19  1  0
  2 20  1  0
  3 21  1  0
  4 22  1  0
  9 23  1  0
 13 24  1  0
 13 25  1  0
 13 26  1  0
 17 27  1  0
 17 28  1  0
 17 29  1  0
M  CHG  1   7  -1
M  END
>  <UniqueID>  (53) 
50

>  <SMILES>  (53) 
C=CC=CC(=O)[N-]c1cc(=O)n(C)c(=O)n1C

>  <Energy>  (53) 
39.51004257545326

>  <Genealogy>  (53) 
C=CC=CC(=O)[N-]c1cc(=O)n(C)c(=O)n1C (protonated)
C=CC=CC(=O)[N-]c1cc(=O)n(C)c(=O)n1C (3D coordinates assigned)
C=CC=CC(=O)[N-]c1cc(=O)n(C)c(=O)n1C (optimized conformer: 39.51004257545326 kcal/mol)

>  <smiles>  (53) 
C=CC=CC(=O)Nc1cc(=O)n(C)c(=O)n1C

>  <score_type>  (53) 
oracle

>  <origin>  (53) 
adg

>  <m_score__min__energy>  (53) 
-7.1399999999999997

>  <m_primary>  (53) 
energy

$$$$
53:0
     RDKit          3D

 48 50  0  0  0  0  0  0  0  0999 V2000
   59.1938   30.7210   47.9666 H   0  0  0  0  0  0  0  0  0  0  0  0
   58.8640   30.3320   46.9920 C   0  0  0  0  0  0  0  0  0  0  0  0
   58.9727   29.2619   46.7616 H   0  0  0  0  0  0  0  0  0  0  0  0
   58.3290   31.1630   46.0840 C   0  0  0  0  0  0  0  0  0  0  0  0
   57.8690   30.8080   44.8110 C   0  0  0  0  0  0  0  0  0  0  0  0
   57.8840   29.5860   44.2440 C   0  0  0  0  0  0  0  0  0  0  0  0
   58.2158   29.5000   43.1988 H   0  0  0  0  0  0  0  0  0  0  0  0
   57.4770   28.3530   44.9550 C   0  0  0  0  0  0  0  0  0  0  0  0
   56.1280   28.1300   45.2450 C   0  0  0  0  0  0  0  0  0  0  0  0
   55.1630   29.0670   44.8910 O   0  0  0  0  0  0  0  0  0  0  0  0
   55.7540   27.0020   45.8910 N   0  0  0  0  0  0  0  0  0  0  0  0
   56.6570   26.0550   46.2510 C   0  0  0  0  0  0  0  0  0  0  0  0
   56.2540   25.0350   46.8720 O   0  0  0  0  0  0  0  0  0  0  0  0
   57.9830   26.2100   45.9390 N   0  0  0  0  0  0  0  0  0  0  0  0
   58.9640   25.1890   46.3460 C   0  0  0  0  0  0  0  0  0  0  0  0
   59.0096   25.1415   47.4440 H   0  0  0  0  0  0  0  0  0  0  0  0
   58.6598   24.2093   45.9489 H   0  0  0  0  0  0  0  0  0  0  0  0
   59.9551   25.4539   45.9489 H   0  0  0  0  0  0  0  0  0  0  0  0
   58.4030   27.3520   45.3040 C   0  0  0  0  0  0  0  0  0  0  0  0
   59.6230   27.5070   45.0150 O   0  0  0  0  0  0  0  0  0  0  0  0
   57.4300   31.9800   44.2120 C   0  0  0  0  0  0  0  0  0  0  0  0
   57.0037   32.0834   43.2032 H   0  0  0  0  0  0  0  0  0  0  0  0
   57.6330   32.9910   45.1300 C   0  0  0  0  0  0  0  0  0  0  0  0
   57.3010   34.4330   44.8860 C   0  0  0  0  0  0  0  0  0  0  0  0
   57.1820   34.9500   45.8496 H   0  0  0  0  0  0  0  0  0  0  0  0
   58.1140   34.9049   44.3147 H   0  0  0  0  0  0  0  0  0  0  0  0
   56.3635   34.5018   44.3147 H   0  0  0  0  0  0  0  0  0  0  0  0
   58.1600   32.4980   46.2740 N   0  0  0  0  0  0  0  0  0  0  0  0
   58.5430   33.2860   47.4550 C   0  0  0  0  0  0  0  0  0  0  0  0
   57.6957   33.9167   47.7621 H   0  0  0  0  0  0  0  0  0  0  0  0
   58.8151   32.6017   48.2721 H   0  0  0  0  0  0  0  0  0  0  0  0
   59.7530   34.1830   47.1230 C   0  0  0  0  0  0  0  0  0  0  0  0
   59.7914   34.3178   46.0320 H   0  0  0  0  0  0  0  0  0  0  0  0
   59.6017   35.1262   47.6684 H   0  0  0  0  0  0  0  0  0  0  0  0
   61.0570   33.6450   47.5680 N   0  0  0  0  0  0  0  0  0  0  0  0
   61.4680   34.1340   48.8990 C   0  0  0  0  0  0  0  0  0  0  0  0
   61.4063   35.2321   48.9155 H   0  0  0  0  0  0  0  0  0  0  0  0
   60.7975   33.7036   49.6574 H   0  0  0  0  0  0  0  0  0  0  0  0
   62.9150   33.7030   49.2130 C   0  0  0  0  0  0  0  0  0  0  0  0
   63.5942   34.5449   49.0133 H   0  0  0  0  0  0  0  0  0  0  0  0
   62.9751   33.4078   50.2709 H   0  0  0  0  0  0  0  0  0  0  0  0
   63.2920   32.6020   48.4110 O   0  0  0  0  0  0  0  0  0  0  0  0
   63.3770   32.9970   47.0500 C   0  0  0  0  0  0  0  0  0  0  0  0
   64.2683   33.6289   46.9222 H   0  0  0  0  0  0  0  0  0  0  0  0
   63.4356   32.0822   46.4420 H   0  0  0  0  0  0  0  0  0  0  0  0
   62.1380   33.7900   46.5800 C   0  0  0  0  0  0  0  0  0  0  0  0
   62.4007   34.8533   46.4777 H   0  0  0  0  0  0  0  0  0  0  0  0
   61.8006   33.3998   45.6085 H   0  0  0  0  0  0  0  0  0  0  0  0
  1  2  1  0
  2  3  1  0
  2  4  2  0
  4  5  1  0
  5  6  2  0
  6  7  1  0
  6  8  1  0
  8  9  2  0
  9 10  1  0
  9 11  1  0
 11 12  1  0
 12 13  2  0
 12 14  1  0
 14 15  1  0
 15 16  1  0
 15 17  1  0
 15 18  1  0
 14 19  1  0
 19 20  2  0
  5 21  1  0
 21 22  1  0
 21 23  2  0
 23 24  1  0
 24 25  1  0
 24 26  1  0
 24 27  1  0
 23 28  1  0
 28 29  1  0
 29 30  1  0
 29 31  1  0
 29 32  1  0
 32 33  1  0
 32 34  1  0
 32 35  1  0
 35 36  1  0
 36 37  1  0
 36 38  1  0
 36 39  1  0
 39 40  1  0
 39 41  1  0
 39 42  1  0
 42 43  1  0
 43 44  1  0
 43 45  1  0
 43 46  1  0
 46 47  1  0
 46 48  1  0
 28  4  1  0
 46 35  1  0
 19  8  1  0
M  CHG  2  10  -1  11  -1
M  END
>  <UniqueID>  (54) 
51

>  <SMILES>  (54) 
C=c1/c(=C/c2c([O-])[n-]c(=O)n(C)c2=O)cc(C)n1CCN1CCOCC1

>  <Energy>  (54) 
101.05687536384399

>  <Genealogy>  (54) 
C=c1c(=Cc2c([O-])[n-]c(=O)n(C)c2=O)cc(C)n1CCN1CCOCC1 (protonated)
C=c1/c(=C/c2c([O-])[n-]c(=O)n(C)c2=O)cc(C)n1CCN1CCOCC1 (cis-trans isomerization)
C=c1/c(=C/c2c([O-])[n-]c(=O)n(C)c2=O)cc(C)n1CCN1CCOCC1 (3D coordinates assigned)
C=c1/c(=C/c2c([O-])[n-]c(=O)n(C)c2=O)cc(C)n1CCN1CCOCC1 (nonaromatic ring conformer: 101.05687536384399 kcal/mol)

>  <smiles>  (54) 
C=c1c(=Cc2c(O)[nH]c(=O)n(C)c2=O)cc(C)n1CCN1CCOCC1

>  <score_type>  (54) 
oracle

>  <origin>  (54) 
adg

>  <m_score__min__energy>  (54) 
-13.57

>  <m_primary>  (54) 
energy

$$$$
54:0
     RDKit          3D

 74 77  0  0  0  0  0  0  0  0999 V2000
   57.5450   34.1910   44.9570 C   0  0  0  0  0  0  0  0  0  0  0  0
   58.1310   34.4110   46.2730 N   0  0  0  0  0  0  0  0  0  0  0  0
   59.4490   34.9240   46.5120 C   0  0  0  0  0  0  0  0  0  0  0  0
   59.8890   35.8330   45.7580 O   0  0  0  0  0  0  0  0  0  0  0  0
   60.3220   34.3920   47.5780 C   0  0  0  0  0  0  0  0  0  0  0  0
   61.6030   33.8980   47.2840 C   0  0  0  0  0  0  0  0  0  0  0  0
   62.4220   33.4070   48.3020 C   0  0  0  0  0  0  0  0  0  0  0  0
   61.9680   33.3910   49.6300 C   0  0  0  0  0  0  0  0  0  0  0  0
   62.8570   32.8590   50.7220 C   0  0  0  0  0  0  0  0  0  0  0  0
   62.0250   32.2810   51.8730 C   0  0  0  0  0  0  0  0  0  0  0  0
   61.8130   30.8820   51.6840 O   0  0  0  0  0  0  0  0  0  0  0  0
   60.9090   30.3170   50.7690 C   0  0  0  0  0  0  0  0  0  0  0  0
   61.1870   29.0430   50.2600 C   0  0  0  0  0  0  0  0  0  0  0  0
   60.3340   28.4440   49.3270 C   0  0  0  0  0  0  0  0  0  0  0  0
   59.1850   29.1200   48.8810 C   0  0  0  0  0  0  0  0  0  0  0  0
   58.2900   28.5380   47.9180 N   0  0  0  0  0  0  0  0  0  0  0  0
   58.6080   27.4000   47.1000 C   0  0  0  0  0  0  0  0  0  0  0  0
   59.7850   26.9510   47.0720 O   0  0  0  0  0  0  0  0  0  0  0  0
   57.5770   26.7930   46.1820 C   0  0  2  0  0  0  0  0  0  0  0  0
   57.7900   25.2680   46.0740 C   0  0  0  0  0  0  0  0  0  0  0  0
   56.9850   24.7060   44.8960 C   0  0  0  0  0  0  0  0  0  0  0  0
   57.3930   25.3440   43.5490 C   0  0  0  0  0  0  0  0  0  0  0  0
   58.1300   26.6840   43.7090 C   0  0  0  0  0  0  0  0  0  0  0  0
   57.5890   27.4370   44.8510 N   0  0  0  0  0  0  0  0  0  0  0  0
   56.7080   28.5460   44.5760 C   0  0  0  0  0  0  0  0  0  0  0  0
   55.6340   28.6550   45.2290 O   0  0  0  0  0  0  0  0  0  0  0  0
   57.0050   29.5790   43.5080 C   0  0  1  0  0  0  0  0  0  0  0  0
   55.8010   29.8790   42.7340 N   0  0  0  0  0  0  0  0  0  0  0  0
   57.5940   30.8740   44.1040 C   0  0  0  0  0  0  0  0  0  0  0  0
   58.8290   30.6160   44.9290 C   0  0  0  0  0  0  0  0  0  0  0  0
   59.1450   31.4460   46.0170 C   0  0  0  0  0  0  0  0  0  0  0  0
   60.2790   31.1900   46.7940 C   0  0  0  0  0  0  0  0  0  0  0  0
   61.1060   30.1060   46.4910 C   0  0  0  0  0  0  0  0  0  0  0  0
   60.7940   29.2700   45.4130 C   0  0  0  0  0  0  0  0  0  0  0  0
   59.6600   29.5210   44.6350 C   0  0  0  0  0  0  0  0  0  0  0  0
   58.8840   30.3790   49.4190 C   0  0  0  0  0  0  0  0  0  0  0  0
   59.7380   30.9770   50.3500 C   0  0  0  0  0  0  0  0  0  0  0  0
   60.6700   33.8370   49.9180 C   0  0  0  0  0  0  0  0  0  0  0  0
   59.8520   34.3330   48.9000 C   0  0  0  0  0  0  0  0  0  0  0  0
   56.5208   33.8065   45.0713 H   0  0  0  0  0  0  0  0  0  0  0  0
   57.5203   35.1411   44.4032 H   0  0  0  0  0  0  0  0  0  0  0  0
   58.1516   33.4594   44.4032 H   0  0  0  0  0  0  0  0  0  0  0  0
   61.9634   33.8979   46.2447 H   0  0  0  0  0  0  0  0  0  0  0  0
   63.4276   33.0310   48.0625 H   0  0  0  0  0  0  0  0  0  0  0  0
   63.4996   32.0673   50.3094 H   0  0  0  0  0  0  0  0  0  0  0  0
   63.4682   33.6865   51.1116 H   0  0  0  0  0  0  0  0  0  0  0  0
   62.5587   32.4413   52.8214 H   0  0  0  0  0  0  0  0  0  0  0  0
   61.0493   32.7885   51.8962 H   0  0  0  0  0  0  0  0  0  0  0  0
   62.0863   28.5069   50.5974 H   0  0  0  0  0  0  0  0  0  0  0  0
   60.5633   27.4399   48.9408 H   0  0  0  0  0  0  0  0  0  0  0  0
   57.3930   29.0400   47.7350 H   0  0  0  0  0  0  0  0  0  0  0  0
   56.5820   26.9728   46.6153 H   0  0  0  0  0  0  0  0  0  0  0  0
   58.8586   25.0601   45.9166 H   0  0  0  0  0  0  0  0  0  0  0  0
   57.4489   24.7899   47.0041 H   0  0  0  0  0  0  0  0  0  0  0  0
   57.1532   23.6205   44.8385 H   0  0  0  0  0  0  0  0  0  0  0  0
   55.9245   24.9396   45.0713 H   0  0  0  0  0  0  0  0  0  0  0  0
   58.0535   24.6436   43.0168 H   0  0  0  0  0  0  0  0  0  0  0  0
   56.4671   25.5461   42.9906 H   0  0  0  0  0  0  0  0  0  0  0  0
   59.1998   26.4908   43.8770 H   0  0  0  0  0  0  0  0  0  0  0  0
   57.9908   27.2778   42.7936 H   0  0  0  0  0  0  0  0  0  0  0  0
   57.7638   29.1469   42.8390 H   0  0  0  0  0  0  0  0  0  0  0  0
   55.8270   29.3220   41.8470 H   0  0  0  0  0  0  0  0  0  0  0  0
   54.9710   29.5300   43.2680 H   0  0  0  0  0  0  0  0  0  0  0  0
   57.8549   31.5552   43.2807 H   0  0  0  0  0  0  0  0  0  0  0  0
   56.8341   31.3149   44.7659 H   0  0  0  0  0  0  0  0  0  0  0  0
   58.4973   32.3015   46.2590 H   0  0  0  0  0  0  0  0  0  0  0  0
   60.5202   31.8435   47.6454 H   0  0  0  0  0  0  0  0  0  0  0  0
   62.0014   29.9097   47.0990 H   0  0  0  0  0  0  0  0  0  0  0  0
   61.4426   28.4134   45.1773 H   0  0  0  0  0  0  0  0  0  0  0  0
   59.4172   28.8596   43.7902 H   0  0  0  0  0  0  0  0  0  0  0  0
   57.9677   30.9009   49.1057 H   0  0  0  0  0  0  0  0  0  0  0  0
   59.4938   31.9690   50.7577 H   0  0  0  0  0  0  0  0  0  0  0  0
   60.2940   33.7961   50.9509 H   0  0  0  0  0  0  0  0  0  0  0  0
   58.8347   34.6791   49.1351 H   0  0  0  0  0  0  0  0  0  0  0  0
  1  2  1  0
  2  3  1  0
  3  4  2  0
  3  5  1  0
  5  6  2  0
  6  7  1  0
  7  8  2  0
  8  9  1  0
  9 10  1  0
 10 11  1  0
 11 12  1  0
 12 13  2  0
 13 14  1  0
 14 15  2  0
 15 16  1  0
 16 17  1  0
 17 18  2  0
 17 19  1  0
 19 20  1  0
 20 21  1  0
 21 22  1  0
 22 23  1  0
 23 24  1  0
 24 25  1  0
 25 26  2  0
 25 27  1  0
 27 28  1  0
 27 29  1  0
 29 30  1  0
 30 31  2  0
 31 32  1  0
 32 33  2  0
 33 34  1  0
 34 35  2  0
 15 36  1  0
 36 37  2  0
  8 38  1  0
 38 39  2  0
 39  5  1  0
 37 12  1  0
 24 19  1  0
 35 30  1  0
  1 40  1  0
  1 41  1  0
  1 42  1  0
  6 43  1  0
  7 44  1  0
  9 45  1  0
  9 46  1  0
 10 47  1  0
 10 48  1  0
 13 49  1  0
 14 50  1  0
 16 51  1  0
 19 52  1  1
 20 53  1  0
 20 54  1  0
 21 55  1  0
 21 56  1  0
 22 57  1  0
 22 58  1  0
 23 59  1  0
 23 60  1  0
 27 61  1  6
 28 62  1  0
 28 63  1  0
 29 64  1  0
 29 65  1  0
 31 66  1  0
 32 67  1  0
 33 68  1  0
 34 69  1  0
 35 70  1  0
 36 71  1  0
 37 72  1  0
 38 73  1  0
 39 74  1  0
M  CHG  1   2  -1
M  END
>  <UniqueID>  (55) 
52

>  <SMILES>  (55) 
C[N-]C(=O)c1ccc(CCOc2ccc(NC(=O)[C@@H]3CCCCN3C(=O)[C@@H](N)Cc3ccccc3)cc2)cc1

>  <Energy>  (55) 
81.7110519728026

>  <Genealogy>  (55) 
C[N-]C(=O)c1ccc(CCOc2ccc(NC(=O)C3CCCCN3C(=O)C(N)Cc3ccccc3)cc2)cc1 (protonated)
C[N-]C(=O)c1ccc(CCOc2ccc(NC(=O)[C@@H]3CCCCN3C(=O)[C@@H](N)Cc3ccccc3)cc2)cc1 (chirality)
C[N-]C(=O)c1ccc(CCOc2ccc(NC(=O)[C@@H]3CCCCN3C(=O)[C@@H](N)Cc3ccccc3)cc2)cc1 (3D coordinates assigned)
C[N-]C(=O)c1ccc(CCOc2ccc(NC(=O)[C@@H]3CCCCN3C(=O)[C@@H](N)Cc3ccccc3)cc2)cc1 (nonaromatic ring conformer: 81.7110519728026 kcal/mol)

>  <smiles>  (55) 
CNC(=O)c1ccc(CCOc2ccc(NC(=O)C3CCCCN3C(=O)C(N)Cc3ccccc3)cc2)cc1

>  <score_type>  (55) 
oracle

>  <origin>  (55) 
adg

>  <m_score__min__energy>  (55) 
-12.76

>  <m_primary>  (55) 
energy

$$$$
55:0
     RDKit          3D

 34 35  0  0  0  0  0  0  0  0999 V2000
   57.0250   33.6580   43.7570 H   0  0  0  0  0  0  0  0  0  0  0  0
   57.1570   33.2470   44.6740 O   0  0  0  0  0  0  0  0  0  0  0  0
   57.5760   31.9280   44.8260 C   0  0  0  0  0  0  0  0  0  0  0  0
   58.6660   31.6150   45.6500 C   0  0  0  0  0  0  0  0  0  0  0  0
   59.1987   32.4163   46.1831 H   0  0  0  0  0  0  0  0  0  0  0  0
   59.0780   30.2860   45.7960 C   0  0  0  0  0  0  0  0  0  0  0  0
   59.9284   30.0447   46.4507 H   0  0  0  0  0  0  0  0  0  0  0  0
   58.4100   29.2590   45.1100 C   0  0  0  0  0  0  0  0  0  0  0  0
   58.8190   27.8260   45.3080 C   0  0  0  0  0  0  0  0  0  0  0  0
   59.9163   27.7626   45.3512 H   0  0  0  0  0  0  0  0  0  0  0  0
   58.4444   27.2231   44.4676 H   0  0  0  0  0  0  0  0  0  0  0  0
   58.2400   27.3020   46.5880 C   0  0  0  0  0  0  0  0  0  0  0  0
   58.5280   27.9040   47.7060 N   0  0  0  0  0  0  0  0  0  0  0  0
   59.8570   27.9660   48.3090 C   0  0  0  0  0  0  0  0  0  0  0  0
   60.6185   27.9797   47.5153 H   0  0  0  0  0  0  0  0  0  0  0  0
   60.0078   27.0849   48.9501 H   0  0  0  0  0  0  0  0  0  0  0  0
   59.9780   29.2090   49.1370 C   0  0  0  0  0  0  0  0  0  0  0  0
   60.9315   29.4313   49.6384 H   0  0  0  0  0  0  0  0  0  0  0  0
   58.9520   30.0530   49.2790 C   0  0  0  0  0  0  0  0  0  0  0  0
   59.0660   30.9590   49.8923 H   0  0  0  0  0  0  0  0  0  0  0  0
   57.9934   29.8418   48.7826 H   0  0  0  0  0  0  0  0  0  0  0  0
   57.3080   26.1580   46.5360 C   0  0  0  0  0  0  0  0  0  0  0  0
   57.7440   24.9280   46.9180 N   0  0  0  0  0  0  0  0  0  0  0  0
   56.9250   23.8460   46.8650 C   0  0  0  0  0  0  0  0  0  0  0  0
   57.3480   22.7200   47.2300 O   0  0  0  0  0  0  0  0  0  0  0  0
   55.6490   23.9780   46.4170 N   0  0  0  0  0  0  0  0  0  0  0  0
   55.1730   25.1850   46.0140 C   0  0  0  0  0  0  0  0  0  0  0  0
   53.9880   25.2810   45.5960 O   0  0  0  0  0  0  0  0  0  0  0  0
   55.9990   26.3100   46.0580 C   0  0  0  0  0  0  0  0  0  0  0  0
   55.5340   27.5480   45.6240 O   0  0  0  0  0  0  0  0  0  0  0  0
   57.3100   29.5770   44.2950 C   0  0  0  0  0  0  0  0  0  0  0  0
   56.7688   28.7771   43.7684 H   0  0  0  0  0  0  0  0  0  0  0  0
   56.9010   30.9060   44.1510 C   0  0  0  0  0  0  0  0  0  0  0  0
   56.0450   31.1488   43.5043 H   0  0  0  0  0  0  0  0  0  0  0  0
  1  2  1  0
  2  3  1  0
  3  4  2  0
  4  5  1  0
  4  6  1  0
  6  7  1  0
  6  8  2  0
  8  9  1  0
  9 10  1  0
  9 11  1  0
  9 12  1  0
 12 13  2  0
 13 14  1  0
 14 15  1  0
 14 16  1  0
 14 17  1  0
 17 18  1  0
 17 19  2  0
 19 20  1  0
 19 21  1  0
 12 22  1  0
 22 23  1  0
 23 24  1  0
 24 25  2  0
 24 26  1  0
 26 27  1  0
 27 28  2  0
 27 29  1  0
 29 30  1  0
  8 31  1  0
 31 32  1  0
 31 33  2  0
 33 34  1  0
 33  3  1  0
 29 22  2  0
M  CHG  3  23  -1  26  -1  30  -1
M  END
>  <UniqueID>  (56) 
53

>  <SMILES>  (56) 
C=CC/N=C(/Cc1ccc(O)cc1)c1[n-]c(=O)[n-]c(=O)c1[O-]

>  <Energy>  (56) 
36.26704791850402

>  <Genealogy>  (56) 
C=CCN=C(Cc1ccc(O)cc1)c1[n-]c(=O)[n-]c(=O)c1[O-] (protonated)
C=CC/N=C(/Cc1ccc(O)cc1)c1[n-]c(=O)[n-]c(=O)c1[O-] (cis-trans isomerization)
C=CC/N=C(/Cc1ccc(O)cc1)c1[n-]c(=O)[n-]c(=O)c1[O-] (3D coordinates assigned)
C=CC/N=C(/Cc1ccc(O)cc1)c1[n-]c(=O)[n-]c(=O)c1[O-] (optimized conformer: 36.26704791850402 kcal/mol)

>  <smiles>  (56) 
C=CCN=C(Cc1ccc(O)cc1)c1[nH]c(=O)[nH]c(=O)c1O

>  <score_type>  (56) 
oracle

>  <origin>  (56) 
adg

>  <m_score__min__energy>  (56) 
-12.93

>  <m_primary>  (56) 
energy

$$$$
56:0
     RDKit          3D

 47 50  0  0  0  0  0  0  0  0999 V2000
   58.6065   31.0411   43.9910 H   0  0  0  0  0  0  0  0  0  0  0  0
   58.4100   30.0100   44.3200 C   0  0  0  0  0  0  0  0  0  0  0  0
   58.0768   29.2548   43.5929 H   0  0  0  0  0  0  0  0  0  0  0  0
   58.5770   29.6730   45.6100 C   0  0  0  0  0  0  0  0  0  0  0  0
   58.3730   28.4120   46.1980 C   0  0  0  0  0  0  0  0  0  0  0  0
   58.0460   27.2170   45.6670 C   0  0  0  0  0  0  0  0  0  0  0  0
   58.2947   27.0571   44.6075 H   0  0  0  0  0  0  0  0  0  0  0  0
   57.3900   26.1110   46.3700 C   0  0  0  0  0  0  0  0  0  0  0  0
   58.0510   25.0620   46.8930 N   0  0  0  0  0  0  0  0  0  0  0  0
   57.0580   24.2590   47.3330 C   0  0  0  0  0  0  0  0  0  0  0  0
   57.2800   23.1620   47.9090 O   0  0  0  0  0  0  0  0  0  0  0  0
   55.8100   24.7190   47.1000 N   0  0  0  0  0  0  0  0  0  0  0  0
   56.0390   25.8860   46.4790 C   0  0  0  0  0  0  0  0  0  0  0  0
   55.0340   26.7150   46.0000 O   0  0  0  0  0  0  0  0  0  0  0  0
   58.5290   28.5950   47.5630 C   0  0  0  0  0  0  0  0  0  0  0  0
   58.4289   27.8240   48.3412 H   0  0  0  0  0  0  0  0  0  0  0  0
   58.8330   29.9240   47.7620 C   0  0  0  0  0  0  0  0  0  0  0  0
   59.0070   30.5440   49.1170 C   0  0  0  0  0  0  0  0  0  0  0  0
   58.7964   29.7937   49.8933 H   0  0  0  0  0  0  0  0  0  0  0  0
   60.0408   30.9038   49.2256 H   0  0  0  0  0  0  0  0  0  0  0  0
   58.3113   31.3891   49.2256 H   0  0  0  0  0  0  0  0  0  0  0  0
   58.8810   30.5790   46.5780 N   0  0  0  0  0  0  0  0  0  0  0  0
   59.0940   31.9940   46.4020 C   0  0  0  0  0  0  0  0  0  0  0  0
   58.0530   32.7900   45.8920 C   0  0  0  0  0  0  0  0  0  0  0  0
   56.8450   32.2390   45.6110 F   0  0  0  0  0  0  0  0  0  0  0  0
   58.2610   34.1480   45.6400 C   0  0  0  0  0  0  0  0  0  0  0  0
   57.4385   34.7660   45.2506 H   0  0  0  0  0  0  0  0  0  0  0  0
   59.5100   34.7230   45.8810 C   0  0  0  0  0  0  0  0  0  0  0  0
   59.6713   35.7918   45.6768 H   0  0  0  0  0  0  0  0  0  0  0  0
   60.5550   33.9430   46.3810 C   0  0  0  0  0  0  0  0  0  0  0  0
   61.5405   34.3985   46.5581 H   0  0  0  0  0  0  0  0  0  0  0  0
   60.3560   32.5820   46.6590 C   0  0  0  0  0  0  0  0  0  0  0  0
   61.4790   31.7890   47.1980 C   0  0  0  0  0  0  0  0  0  0  0  0
   61.6890   30.6300   46.7470 O   0  0  0  0  0  0  0  0  0  0  0  0
   62.3310   32.3190   48.2250 N   0  0  0  0  0  0  0  0  0  0  0  0
   61.8680   32.2860   49.6200 C   0  0  0  0  0  0  0  0  0  0  0  0
   62.1982   31.3496   50.0934 H   0  0  0  0  0  0  0  0  0  0  0  0
   60.7696   32.3420   49.6421 H   0  0  0  0  0  0  0  0  0  0  0  0
   62.4400   33.4490   50.3650 C   0  0  0  0  0  0  0  0  0  0  0  0
   61.7850   34.0180   51.2780 O   0  0  0  0  0  0  0  0  0  0  0  0
   63.7500   33.8990   50.0340 N   0  0  0  0  0  0  0  0  0  0  0  0
   64.5430   33.1240   49.0900 C   0  0  0  0  0  0  0  0  0  0  0  0
   64.8981   32.2066   49.5822 H   0  0  0  0  0  0  0  0  0  0  0  0
   65.3988   33.7311   48.7598 H   0  0  0  0  0  0  0  0  0  0  0  0
   63.6970   32.7460   47.8640 C   0  0  0  0  0  0  0  0  0  0  0  0
   64.1950   31.9211   47.3334 H   0  0  0  0  0  0  0  0  0  0  0  0
   63.6092   33.6418   47.2316 H   0  0  0  0  0  0  0  0  0  0  0  0
  1  2  1  0
  2  3  1  0
  2  4  2  0
  4  5  1  0
  5  6  2  0
  6  7  1  0
  6  8  1  0
  8  9  1  0
  9 10  1  0
 10 11  2  0
 10 12  1  0
 12 13  1  0
 13 14  1  0
  5 15  1  0
 15 16  1  0
 15 17  2  0
 17 18  1  0
 18 19  1  0
 18 20  1  0
 18 21  1  0
 17 22  1  0
 22 23  1  0
 23 24  2  0
 24 25  1  0
 24 26  1  0
 26 27  1  0
 26 28  2  0
 28 29  1  0
 28 30  1  0
 30 31  1  0
 30 32  2  0
 32 33  1  0
 33 34  2  0
 33 35  1  0
 35 36  1  0
 36 37  1  0
 36 38  1  0
 36 39  1  0
 39 40  2  0
 39 41  1  0
 41 42  1  0
 42 43  1  0
 42 44  1  0
 42 45  1  0
 45 46  1  0
 45 47  1  0
 22  4  1  0
 32 23  1  0
 45 35  1  0
 13  8  2  0
M  CHG  4   9  -1  12  -1  14  -1  41  -1
M  END
>  <UniqueID>  (57) 
54

>  <SMILES>  (57) 
C=c1/c(=C\c2[n-]c(=O)[n-]c2[O-])cc(C)n1-c1c(F)cccc1C(=O)N1CC[N-]C(=O)C1

>  <Energy>  (57) 
130.63411969157738

>  <Genealogy>  (57) 
C=c1c(=Cc2[n-]c(=O)[n-]c2[O-])cc(C)n1-c1c(F)cccc1C(=O)N1CC[N-]C(=O)C1 (protonated)
C=c1/c(=C\c2[n-]c(=O)[n-]c2[O-])cc(C)n1-c1c(F)cccc1C(=O)N1CC[N-]C(=O)C1 (cis-trans isomerization)
C=c1/c(=C\c2[n-]c(=O)[n-]c2[O-])cc(C)n1-c1c(F)cccc1C(=O)N1CC[N-]C(=O)C1 (3D coordinates assigned)
C=c1/c(=C\c2[n-]c(=O)[n-]c2[O-])cc(C)n1-c1c(F)cccc1C(=O)N1CC[N-]C(=O)C1 (nonaromatic ring conformer: 130.63411969157738 kcal/mol)

>  <smiles>  (57) 
C=c1c(=Cc2[nH]c(=O)[nH]c2O)cc(C)n1-c1c(F)cccc1C(=O)N1CCNC(=O)C1

>  <score_type>  (57) 
oracle

>  <origin>  (57) 
adg

>  <m_score__min__energy>  (57) 
-17.120000000000001

>  <m_primary>  (57) 
energy

$$$$
57:0
     RDKit          3D

 40 42  0  0  0  0  0  0  0  0999 V2000
   58.1490   32.3540   42.9610 C   0  0  0  0  0  0  0  0  0  0  0  0
   58.2590   32.9570   44.3330 C   0  0  0  0  0  0  0  0  0  0  0  0
   58.8890   34.2030   44.5020 C   0  0  0  0  0  0  0  0  0  0  0  0
   58.9760   34.7840   45.7680 C   0  0  0  0  0  0  0  0  0  0  0  0
   58.4240   34.1340   46.8740 C   0  0  0  0  0  0  0  0  0  0  0  0
   57.7790   32.9050   46.7170 C   0  0  0  0  0  0  0  0  0  0  0  0
   57.6820   32.3070   45.4440 C   0  0  0  0  0  0  0  0  0  0  0  0
   57.0300   31.0780   45.2430 O   0  0  0  0  0  0  0  0  0  0  0  0
   57.6270   29.7850   45.3660 C   0  0  0  0  0  0  0  0  0  0  0  0
   59.1390   29.8900   45.5980 C   0  0  0  0  0  0  0  0  0  0  0  0
   59.4540   29.9170   47.0670 C   0  0  0  0  0  0  0  0  0  0  0  0
   59.1140   28.9410   47.7890 O   0  0  0  0  0  0  0  0  0  0  0  0
   60.2390   30.9790   47.6330 N   0  0  0  0  0  0  0  0  0  0  0  0
   61.6050   31.2020   47.1420 C   0  0  0  0  0  0  0  0  0  0  0  0
   61.9460   32.6970   47.1950 C   0  0  0  0  0  0  0  0  0  0  0  0
   61.6550   33.2360   48.4860 O   0  0  0  0  0  0  0  0  0  0  0  0
   60.5280   32.8330   49.2100 C   0  0  0  0  0  0  0  0  0  0  0  0
   60.1380   33.5200   50.3620 C   0  0  0  0  0  0  0  0  0  0  0  0
   59.0150   33.0910   51.0760 C   0  0  0  0  0  0  0  0  0  0  0  0
   58.5050   33.9440   52.5220 Cl  0  0  0  0  0  0  0  0  0  0  0  0
   58.3050   31.9720   50.6280 C   0  0  0  0  0  0  0  0  0  0  0  0
   58.7100   31.3110   49.5090 N   0  0  0  0  0  0  0  0  0  0  0  0
   59.7920   31.7160   48.7880 C   0  0  0  0  0  0  0  0  0  0  0  0
   57.9522   31.2753   43.0493 H   0  0  0  0  0  0  0  0  0  0  0  0
   57.3236   32.8338   42.4147 H   0  0  0  0  0  0  0  0  0  0  0  0
   59.0907   32.5114   42.4147 H   0  0  0  0  0  0  0  0  0  0  0  0
   59.3156   34.7226   43.6314 H   0  0  0  0  0  0  0  0  0  0  0  0
   59.4793   35.7539   45.8947 H   0  0  0  0  0  0  0  0  0  0  0  0
   58.4974   34.5912   47.8718 H   0  0  0  0  0  0  0  0  0  0  0  0
   57.3439   32.4005   47.5923 H   0  0  0  0  0  0  0  0  0  0  0  0
   57.1696   29.2584   46.2166 H   0  0  0  0  0  0  0  0  0  0  0  0
   57.4566   29.2331   44.4298 H   0  0  0  0  0  0  0  0  0  0  0  0
   59.6352   29.0222   45.1389 H   0  0  0  0  0  0  0  0  0  0  0  0
   59.5010   30.8238   45.1431 H   0  0  0  0  0  0  0  0  0  0  0  0
   62.3137   30.6445   47.7719 H   0  0  0  0  0  0  0  0  0  0  0  0
   61.6753   30.8530   46.1012 H   0  0  0  0  0  0  0  0  0  0  0  0
   63.0166   32.8310   46.9807 H   0  0  0  0  0  0  0  0  0  0  0  0
   61.3378   33.2252   46.4459 H   0  0  0  0  0  0  0  0  0  0  0  0
   60.7112   34.3937   50.7056 H   0  0  0  0  0  0  0  0  0  0  0  0
   57.4189   31.6260   51.1803 H   0  0  0  0  0  0  0  0  0  0  0  0
  1  2  1  0
  2  3  2  0
  3  4  1  0
  4  5  2  0
  5  6  1  0
  6  7  2  0
  7  8  1  0
  8  9  1  0
  9 10  1  0
 10 11  1  0
 11 12  2  0
 11 13  1  0
 13 14  1  0
 14 15  1  0
 15 16  1  0
 16 17  1  0
 17 18  2  0
 18 19  1  0
 19 20  1  0
 19 21  2  0
 21 22  1  0
 22 23  2  0
  7  2  1  0
 23 13  1  0
 23 17  1  0
  1 24  1  0
  1 25  1  0
  1 26  1  0
  3 27  1  0
  4 28  1  0
  5 29  1  0
  6 30  1  0
  9 31  1  0
  9 32  1  0
 10 33  1  0
 10 34  1  0
 14 35  1  0
 14 36  1  0
 15 37  1  0
 15 38  1  0
 18 39  1  0
 21 40  1  0
M  END
>  <UniqueID>  (58) 
55

>  <SMILES>  (58) 
Cc1ccccc1OCCC(=O)N1CCOc2cc(Cl)cnc21

>  <Energy>  (58) 
44.69160105817172

>  <Genealogy>  (58) 
Cc1ccccc1OCCC(=O)N1CCOc2cc(Cl)cnc21 (3D coordinates assigned)
Cc1ccccc1OCCC(=O)N1CCOc2cc(Cl)cnc21 (nonaromatic ring conformer: 44.69160105817172 kcal/mol)

>  <smiles>  (58) 
Cc1ccccc1OCCC(=O)N1CCOc2cc(Cl)cnc21

>  <score_type>  (58) 
oracle

>  <origin>  (58) 
adg

>  <m_score__min__energy>  (58) 
-7.6200000000000001

>  <m_primary>  (58) 
energy

$$$$
58:0
     RDKit          3D

 55 58  0  0  0  0  0  0  0  0999 V2000
   50.7760   31.3240   54.3720 C   0  0  0  0  0  0  0  0  0  0  0  0
   50.2820   31.9310   53.0720 C   0  0  0  0  0  0  0  0  0  0  0  0
   51.3920   32.5070   52.3180 N   0  0  0  0  0  0  0  0  0  0  0  0
   51.7810   32.0590   51.0180 C   0  0  0  0  0  0  0  0  0  0  0  0
   51.3940   32.7020   49.9970 O   0  0  0  0  0  0  0  0  0  0  0  0
   52.6640   30.9400   50.8880 N   0  0  0  0  0  0  0  0  0  0  0  0
   53.6260   30.5900   51.6920 C   0  0  0  0  0  0  0  0  0  0  0  0
   54.7910   31.2950   51.7390 N   0  0  0  0  0  0  0  0  0  0  0  0
   55.8400   30.9300   52.5260 C   0  0  0  0  0  0  0  0  0  0  0  0
   57.0590   31.7650   52.5870 C   0  0  0  0  0  0  0  0  0  0  0  0
   57.3370   32.3440   53.6670 O   0  0  0  0  0  0  0  0  0  0  0  0
   57.9340   31.9450   51.4500 N   0  0  0  0  0  0  0  0  0  0  0  0
   58.3350   30.8020   50.6170 C   0  0  0  0  0  0  0  0  0  0  0  0
   58.5120   31.2380   49.1560 C   0  0  0  0  0  0  0  0  0  0  0  0
   59.1930   32.5410   49.0490 N   0  0  0  0  0  0  0  0  0  0  0  0
   59.1600   33.2680   47.8010 C   0  0  0  0  0  0  0  0  0  0  0  0
   58.1960   32.9620   46.8170 C   0  0  0  0  0  0  0  0  0  0  0  0
   58.1660   33.6720   45.6090 C   0  0  0  0  0  0  0  0  0  0  0  0
   59.0950   34.6890   45.3690 C   0  0  0  0  0  0  0  0  0  0  0  0
   60.0440   35.0130   46.3450 C   0  0  0  0  0  0  0  0  0  0  0  0
   60.0800   34.3070   47.5510 C   0  0  0  0  0  0  0  0  0  0  0  0
   59.7490   33.1510   50.2650 C   0  0  0  0  0  0  0  0  0  0  0  0
   58.6600   33.2250   51.3290 C   0  0  0  0  0  0  0  0  0  0  0  0
   55.7300   29.7940   53.3340 C   0  0  0  0  0  0  0  0  0  0  0  0
   54.5610   29.0340   53.3080 C   0  0  0  0  0  0  0  0  0  0  0  0
   53.4820   29.4420   52.4970 C   0  0  0  0  0  0  0  0  0  0  0  0
   52.2410   28.6280   52.5250 C   0  0  0  0  0  0  0  0  0  0  0  0
   51.1670   29.0440   52.0120 O   0  0  0  0  0  0  0  0  0  0  0  0
   52.2600   27.3580   53.1880 N   0  0  0  0  0  0  0  0  0  0  0  0
   53.5260   26.7700   53.6110 C   0  0  0  0  0  0  0  0  0  0  0  0
   54.4300   27.8360   54.2270 C   0  0  0  0  0  0  0  0  0  0  0  0
   50.3345   31.8665   55.2210 H   0  0  0  0  0  0  0  0  0  0  0  0
   50.4792   30.2658   54.4187 H   0  0  0  0  0  0  0  0  0  0  0  0
   51.8724   31.3997   54.4187 H   0  0  0  0  0  0  0  0  0  0  0  0
   49.8021   31.1477   52.4669 H   0  0  0  0  0  0  0  0  0  0  0  0
   49.5607   32.7281   53.3049 H   0  0  0  0  0  0  0  0  0  0  0  0
   59.2866   30.3970   50.9918 H   0  0  0  0  0  0  0  0  0  0  0  0
   57.5501   30.0329   50.6663 H   0  0  0  0  0  0  0  0  0  0  0  0
   59.1100   30.4800   48.6288 H   0  0  0  0  0  0  0  0  0  0  0  0
   57.5128   31.3381   48.7071 H   0  0  0  0  0  0  0  0  0  0  0  0
   57.4638   32.1615   46.9991 H   0  0  0  0  0  0  0  0  0  0  0  0
   57.4099   33.4286   44.8480 H   0  0  0  0  0  0  0  0  0  0  0  0
   59.0799   35.2340   44.4136 H   0  0  0  0  0  0  0  0  0  0  0  0
   60.7633   35.8251   46.1628 H   0  0  0  0  0  0  0  0  0  0  0  0
   60.8323   34.5641   48.3113 H   0  0  0  0  0  0  0  0  0  0  0  0
   60.5846   32.5388   50.6352 H   0  0  0  0  0  0  0  0  0  0  0  0
   60.1144   34.1634   50.0378 H   0  0  0  0  0  0  0  0  0  0  0  0
   59.1223   33.4667   52.2974 H   0  0  0  0  0  0  0  0  0  0  0  0
   57.9409   34.0031   51.0334 H   0  0  0  0  0  0  0  0  0  0  0  0
   56.5638   29.5005   53.9887 H   0  0  0  0  0  0  0  0  0  0  0  0
   51.3630   26.8520   53.3730 H   0  0  0  0  0  0  0  0  0  0  0  0
   53.3299   25.9860   54.3573 H   0  0  0  0  0  0  0  0  0  0  0  0
   54.0299   26.3394   52.7331 H   0  0  0  0  0  0  0  0  0  0  0  0
   53.9995   28.1629   55.1850 H   0  0  0  0  0  0  0  0  0  0  0  0
   55.4288   27.4019   54.3815 H   0  0  0  0  0  0  0  0  0  0  0  0
  1  2  1  0
  2  3  1  0
  3  4  1  0
  4  5  2  0
  4  6  1  0
  6  7  2  3
  7  8  1  0
  8  9  1  0
  9 10  1  0
 10 11  2  0
 10 12  1  0
 12 13  1  0
 13 14  1  0
 14 15  1  0
 15 16  1  0
 16 17  2  0
 17 18  1  0
 18 19  2  0
 19 20  1  0
 20 21  2  0
 15 22  1  0
 22 23  1  0
  9 24  2  0
 24 25  1  0
 25 26  2  0
 26 27  1  0
 27 28  2  0
 27 29  1  0
 29 30  1  0
 30 31  1  0
 26  7  1  0
 23 12  1  0
 31 25  1  0
 21 16  1  0
  1 32  1  0
  1 33  1  0
  1 34  1  0
  2 35  1  0
  2 36  1  0
 13 37  1  0
 13 38  1  0
 14 39  1  0
 14 40  1  0
 17 41  1  0
 18 42  1  0
 19 43  1  0
 20 44  1  0
 21 45  1  0
 22 46  1  0
 22 47  1  0
 23 48  1  0
 23 49  1  0
 24 50  1  0
 29 51  1  0
 30 52  1  0
 30 53  1  0
 31 54  1  0
 31 55  1  0
M  CHG  2   3  -1   8  -1
M  END
>  <UniqueID>  (59) 
56

>  <SMILES>  (59) 
CC[N-]C(=O)N=c1[n-]c(C(=O)N2CCN(c3ccccc3)CC2)cc2c1C(=O)NCC2

>  <Energy>  (59) 
66.97090315686819

>  <Genealogy>  (59) 
CC[N-]C(=O)N=c1[n-]c(C(=O)N2CCN(c3ccccc3)CC2)cc2c1C(=O)NCC2 (protonated)
CC[N-]C(=O)N=c1[n-]c(C(=O)N2CCN(c3ccccc3)CC2)cc2c1C(=O)NCC2 (3D coordinates assigned)
CC[N-]C(=O)N=c1[n-]c(C(=O)N2CCN(c3ccccc3)CC2)cc2c1C(=O)NCC2 (nonaromatic ring conformer: 66.97090315686819 kcal/mol)

>  <smiles>  (59) 
CCNC(=O)N=c1[nH]c(C(=O)N2CCN(c3ccccc3)CC2)cc2c1C(=O)NCC2

>  <score_type>  (59) 
oracle

>  <origin>  (59) 
adg

>  <m_score__min__energy>  (59) 
-10.81

>  <m_primary>  (59) 
energy

$$$$
59:0
     RDKit          3D

 46 49  0  0  0  0  0  0  0  0999 V2000
   55.3730   29.1600   44.8100 N   0  0  0  0  0  0  0  0  0  0  0  0
   56.7060   29.5090   45.1780 C   0  0  0  0  0  0  0  0  0  0  0  0
   57.0400   30.7240   45.2200 O   0  0  0  0  0  0  0  0  0  0  0  0
   57.7100   28.4220   45.4700 C   0  0  1  0  0  0  0  0  0  0  0  0
   58.2470   28.4210   46.9270 C   0  0  0  0  0  0  0  0  0  0  0  0
   58.7300   29.7300   47.3920 N   0  0  0  0  0  0  0  0  0  0  0  0
   59.7150   29.9510   48.4330 C   0  0  0  0  0  0  0  0  0  0  0  0
   59.5200   29.3540   49.6960 C   0  0  0  0  0  0  0  0  0  0  0  0
   60.4270   29.5730   50.7400 C   0  0  0  0  0  0  0  0  0  0  0  0
   61.5450   30.3880   50.5360 C   0  0  0  0  0  0  0  0  0  0  0  0
   61.7820   30.9680   49.2750 C   0  0  0  0  0  0  0  0  0  0  0  0
   62.9720   31.8230   49.0650 C   0  0  0  0  0  0  0  0  0  0  0  0
   64.0430   31.8370   49.8940 N   0  0  0  0  0  0  0  0  0  0  0  0
   64.8230   32.7480   49.2820 C   0  0  0  0  0  0  0  0  0  0  0  0
   65.9590   33.0900   49.7080 O   0  0  0  0  0  0  0  0  0  0  0  0
   64.2770   33.2280   48.1940 O   0  0  0  0  0  0  0  0  0  0  0  0
   63.1130   32.6760   48.0240 N   0  0  0  0  0  0  0  0  0  0  0  0
   60.8660   30.7400   48.2220 C   0  0  0  0  0  0  0  0  0  0  0  0
   57.2170   27.1120   45.0160 N   0  0  0  0  0  0  0  0  0  0  0  0
   56.2880   26.2660   45.7070 C   0  0  0  0  0  0  0  0  0  0  0  0
   55.1470   26.7190   46.0340 O   0  0  0  0  0  0  0  0  0  0  0  0
   56.6270   24.8550   45.9820 C   0  0  0  0  0  0  0  0  0  0  0  0
   56.6490   24.2350   47.2270 C   0  0  0  0  0  0  0  0  0  0  0  0
   57.1560   22.9740   47.0000 C   0  0  0  0  0  0  0  0  0  0  0  0
   57.3640   22.0120   47.9810 O   0  0  0  0  0  0  0  0  0  0  0  0
   57.4520   22.8020   45.6930 N   0  0  0  0  0  0  0  0  0  0  0  0
   58.0120   21.6020   45.0740 C   0  0  0  0  0  0  0  0  0  0  0  0
   59.1480   21.9160   44.1120 C   0  0  0  0  0  0  0  0  0  0  0  0
   57.7940   21.4860   43.5700 C   0  0  0  0  0  0  0  0  0  0  0  0
   57.1090   23.9420   45.0570 C   0  0  0  0  0  0  0  0  0  0  0  0
   55.1400   28.1930   44.4950 H   0  0  0  0  0  0  0  0  0  0  0  0
   58.6048   28.6546   44.8740 H   0  0  0  0  0  0  0  0  0  0  0  0
   57.4348   28.0961   47.5939 H   0  0  0  0  0  0  0  0  0  0  0  0
   59.1110   27.7404   46.9451 H   0  0  0  0  0  0  0  0  0  0  0  0
   58.2340   30.5710   47.0140 H   0  0  0  0  0  0  0  0  0  0  0  0
   58.6449   28.7087   49.8628 H   0  0  0  0  0  0  0  0  0  0  0  0
   60.2601   29.1039   51.7209 H   0  0  0  0  0  0  0  0  0  0  0  0
   62.2429   30.5769   51.3650 H   0  0  0  0  0  0  0  0  0  0  0  0
   61.0519   31.1807   47.2314 H   0  0  0  0  0  0  0  0  0  0  0  0
   56.3293   24.6613   48.1893 H   0  0  0  0  0  0  0  0  0  0  0  0
   57.8548   20.9242   45.9260 H   0  0  0  0  0  0  0  0  0  0  0  0
   59.4873   22.9543   43.9824 H   0  0  0  0  0  0  0  0  0  0  0  0
   60.1822   21.5621   43.9890 H   0  0  0  0  0  0  0  0  0  0  0  0
   57.1537   22.2132   43.0492 H   0  0  0  0  0  0  0  0  0  0  0  0
   57.4429   20.6928   42.8936 H   0  0  0  0  0  0  0  0  0  0  0  0
   57.1980   24.1188   43.9749 H   0  0  0  0  0  0  0  0  0  0  0  0
  1  2  1  0
  2  3  2  0
  2  4  1  0
  4  5  1  0
  5  6  1  0
  6  7  1  0
  7  8  2  0
  8  9  1  0
  9 10  2  0
 10 11  1  0
 11 12  1  0
 12 13  2  0
 13 14  1  0
 14 15  2  0
 14 16  1  0
 16 17  1  0
 11 18  2  0
  4 19  1  0
 19 20  1  0
 20 21  2  0
 20 22  1  0
 22 23  1  0
 23 24  2  0
 24 25  1  0
 24 26  1  0
 26 27  1  0
 27 28  1  0
 28 29  1  0
 26 30  1  0
 18  7  1  0
 30 22  2  0
 17 12  1  0
 29 27  1  0
  1 31  1  0
  4 32  1  6
  5 33  1  0
  5 34  1  0
  6 35  1  0
  8 36  1  0
  9 37  1  0
 10 38  1  0
 18 39  1  0
 23 40  1  0
 27 41  1  0
 28 42  1  0
 28 43  1  0
 29 44  1  0
 29 45  1  0
 30 46  1  0
M  CHG  4   1  -1  17  -1  19  -1  25  -1
M  END
>  <UniqueID>  (60) 
57

>  <SMILES>  (60) 
[NH-]C(=O)[C@@H](CNc1cccc(-c2nc(=O)o[n-]2)c1)[N-]C(=O)c1cc([O-])n(C2CC2)c1

>  <Energy>  (60) 
380.81163793187847

>  <Genealogy>  (60) 
[NH-]C(=O)C(CNc1cccc(-c2nc(=O)o[n-]2)c1)[N-]C(=O)c1cc([O-])n(C2CC2)c1 (protonated)
[NH-]C(=O)[C@@H](CNc1cccc(-c2nc(=O)o[n-]2)c1)[N-]C(=O)c1cc([O-])n(C2CC2)c1 (chirality)
[NH-]C(=O)[C@@H](CNc1cccc(-c2nc(=O)o[n-]2)c1)[N-]C(=O)c1cc([O-])n(C2CC2)c1 (3D coordinates assigned)
[NH-]C(=O)[C@@H](CNc1cccc(-c2nc(=O)o[n-]2)c1)[N-]C(=O)c1cc([O-])n(C2CC2)c1 (nonaromatic ring conformer: 380.81163793187847 kcal/mol)

>  <smiles>  (60) 
NC(=O)C(CNc1cccc(-c2nc(=O)o[nH]2)c1)NC(=O)c1cc(O)n(C2CC2)c1

>  <score_type>  (60) 
oracle

>  <origin>  (60) 
adg

>  <m_score__min__energy>  (60) 
-16.670000000000002

>  <m_primary>  (60) 
energy

$$$$
60:0
     RDKit          3D

 27 28  0  0  0  0  0  0  0  0999 V2000
   57.1737   32.6833   47.7464 H   0  0  0  0  0  0  0  0  0  0  0  0
   57.6580   33.0390   46.8250 C   0  0  0  0  0  0  0  0  0  0  0  0
   57.4230   32.4040   45.6460 N   0  0  0  0  0  0  0  0  0  0  0  0
   58.0050   32.8140   44.4870 C   0  0  0  0  0  0  0  0  0  0  0  0
   57.6600   31.9400   42.9620 S   0  0  0  0  0  0  0  0  0  0  0  0
   57.7830   30.2950   43.7390 C   0  0  0  0  0  0  0  0  0  0  0  0
   58.4224   30.3596   44.6318 H   0  0  0  0  0  0  0  0  0  0  0  0
   58.2202   29.5856   43.0209 H   0  0  0  0  0  0  0  0  0  0  0  0
   56.4160   29.8180   44.1380 C   0  0  0  0  0  0  0  0  0  0  0  0
   55.4280   30.2100   43.4630 O   0  0  0  0  0  0  0  0  0  0  0  0
   56.1750   28.9210   45.2390 N   0  0  0  0  0  0  0  0  0  0  0  0
   56.8580   27.8770   45.6200 C   0  0  0  0  0  0  0  0  0  0  0  0
   58.2210   27.8930   45.6640 N   0  0  0  0  0  0  0  0  0  0  0  0
   58.9440   26.8170   46.0740 C   0  0  0  0  0  0  0  0  0  0  0  0
   60.0427   26.8679   46.0925 H   0  0  0  0  0  0  0  0  0  0  0  0
   58.2940   25.6490   46.4710 C   0  0  0  0  0  0  0  0  0  0  0  0
   58.8738   24.7746   46.8017 H   0  0  0  0  0  0  0  0  0  0  0  0
   56.9000   25.6020   46.4440 C   0  0  0  0  0  0  0  0  0  0  0  0
   56.3731   24.6883   46.7563 H   0  0  0  0  0  0  0  0  0  0  0  0
   56.1740   26.7190   46.0190 C   0  0  0  0  0  0  0  0  0  0  0  0
   54.7840   26.6710   45.9970 O   0  0  0  0  0  0  0  0  0  0  0  0
   58.8710   33.9130   44.4890 C   0  0  0  0  0  0  0  0  0  0  0  0
   59.3468   34.2484   43.5557 H   0  0  0  0  0  0  0  0  0  0  0  0
   59.1240   34.5790   45.6900 C   0  0  0  0  0  0  0  0  0  0  0  0
   59.8021   35.4449   45.7080 H   0  0  0  0  0  0  0  0  0  0  0  0
   58.5140   34.1430   46.8680 C   0  0  0  0  0  0  0  0  0  0  0  0
   58.7049   34.6624   47.8187 H   0  0  0  0  0  0  0  0  0  0  0  0
  1  2  1  0
  2  3  2  0
  3  4  1  0
  4  5  1  0
  5  6  1  0
  6  7  1  0
  6  8  1  0
  6  9  1  0
  9 10  2  0
  9 11  1  0
 11 12  2  0
 12 13  1  0
 13 14  1  0
 14 15  1  0
 14 16  2  0
 16 17  1  0
 16 18  1  0
 18 19  1  0
 18 20  2  0
 20 21  1  0
  4 22  2  0
 22 23  1  0
 22 24  1  0
 24 25  1  0
 24 26  2  0
 26 27  1  0
 26  2  1  0
 20 12  1  0
M  CHG  2  13  -1  21  -1
M  END
>  <UniqueID>  (61) 
58

>  <SMILES>  (61) 
O=C(CSc1ccccn1)/N=c1\[n-]cccc1[O-]

>  <Energy>  (61) 
29.178130492577985

>  <Genealogy>  (61) 
O=C(CSc1ccccn1)N=c1[n-]cccc1[O-] (protonated)
O=C(CSc1ccccn1)/N=c1\[n-]cccc1[O-] (cis-trans isomerization)
O=C(CSc1ccccn1)/N=c1\[n-]cccc1[O-] (3D coordinates assigned)
O=C(CSc1ccccn1)/N=c1\[n-]cccc1[O-] (optimized conformer: 29.178130492577985 kcal/mol)

>  <smiles>  (61) 
O=C(CSc1ccccn1)N=c1[nH]cccc1O

>  <score_type>  (61) 
oracle

>  <origin>  (61) 
adg

>  <m_score__min__energy>  (61) 
-12.859999999999999

>  <m_primary>  (61) 
energy

$$$$
61:0
     RDKit          3D

 60 64  0  0  0  0  0  0  0  0999 V2000
   56.2600   30.9960   44.7010 O   0  0  0  0  0  0  0  0  0  0  0  0
   57.5040   31.1080   44.8790 C   0  0  0  0  0  0  0  0  0  0  0  0
   58.3620   29.9430   44.5690 C   0  0  0  0  0  0  0  0  0  0  0  0
   58.4500   28.8280   45.3130 C   0  0  0  0  0  0  0  0  0  0  0  0
   59.1450   28.7250   46.6150 C   0  0  0  0  0  0  0  0  0  0  0  0
   59.7250   29.8710   47.1770 C   0  0  0  0  0  0  0  0  0  0  0  0
   60.3740   29.8000   48.4120 C   0  0  0  0  0  0  0  0  0  0  0  0
   60.4500   28.5830   49.1010 C   0  0  0  0  0  0  0  0  0  0  0  0
   61.2130   28.5140   50.6880 S   0  0  0  0  0  0  0  0  0  0  0  0
   62.2380   29.6090   50.7840 O   0  0  0  0  0  0  0  0  0  0  0  0
   61.8950   27.1870   50.8750 O   0  0  0  0  0  0  0  0  0  0  0  0
   60.0330   28.7210   51.9500 N   0  0  0  0  0  0  0  0  0  0  0  0
   59.6080   30.1310   52.0520 C   0  0  2  0  0  0  0  0  0  0  0  0
   60.5770   30.9080   52.9890 C   0  0  0  0  0  0  0  0  0  0  0  0
   59.7760   31.4040   54.0610 O   0  0  0  0  0  0  0  0  0  0  0  0
   58.4670   31.0140   53.8980 C   0  0  0  0  0  0  0  0  0  0  0  0
   57.4000   31.3110   54.7410 C   0  0  0  0  0  0  0  0  0  0  0  0
   56.1240   30.8410   54.3930 C   0  0  0  0  0  0  0  0  0  0  0  0
   55.9280   30.1020   53.1970 C   0  0  0  0  0  0  0  0  0  0  0  0
   54.5780   29.6180   52.8150 C   0  0  0  0  0  0  0  0  0  0  0  0
   54.4690   28.6710   51.9910 O   0  0  0  0  0  0  0  0  0  0  0  0
   53.3850   30.1430   53.4170 N   0  0  0  0  0  0  0  0  0  0  0  0
   52.5250   30.9640   52.8750 C   0  0  0  0  0  0  0  0  0  0  0  0
   51.4710   31.5550   53.6030 C   0  0  0  0  0  0  0  0  0  0  0  0
   50.5890   32.4220   52.9530 C   0  0  0  0  0  0  0  0  0  0  0  0
   50.7530   32.7030   51.6350 N   0  0  0  0  0  0  0  0  0  0  0  0
   51.7690   32.1620   50.9130 C   0  0  0  0  0  0  0  0  0  0  0  0
   52.6740   31.2900   51.5210 C   0  0  0  0  0  0  0  0  0  0  0  0
   57.0410   29.8170   52.3750 C   0  0  0  0  0  0  0  0  0  0  0  0
   58.3010   30.2770   52.7630 C   0  0  0  0  0  0  0  0  0  0  0  0
   59.9160   27.4260   48.5190 C   0  0  0  0  0  0  0  0  0  0  0  0
   59.2830   27.4920   47.2770 C   0  0  0  0  0  0  0  0  0  0  0  0
   58.0520   32.4040   45.3430 C   0  0  0  0  0  0  0  0  0  0  0  0
   58.1240   32.6880   46.7190 C   0  0  0  0  0  0  0  0  0  0  0  0
   58.6730   33.8960   47.1630 C   0  0  0  0  0  0  0  0  0  0  0  0
   59.1370   34.8370   46.2390 C   0  0  0  0  0  0  0  0  0  0  0  0
   59.0440   34.5750   44.8700 C   0  0  0  0  0  0  0  0  0  0  0  0
   58.5090   33.3630   44.4210 C   0  0  0  0  0  0  0  0  0  0  0  0
   58.9760   29.9940   43.6577 H   0  0  0  0  0  0  0  0  0  0  0  0
   57.9671   27.9197   44.9234 H   0  0  0  0  0  0  0  0  0  0  0  0
   59.6687   30.8309   46.6428 H   0  0  0  0  0  0  0  0  0  0  0  0
   60.8273   30.7038   48.8452 H   0  0  0  0  0  0  0  0  0  0  0  0
   59.2290   28.0960   51.7110 H   0  0  0  0  0  0  0  0  0  0  0  0
   59.5705   30.4988   51.0160 H   0  0  0  0  0  0  0  0  0  0  0  0
   61.3571   30.2351   53.3746 H   0  0  0  0  0  0  0  0  0  0  0  0
   61.0849   31.7246   52.4549 H   0  0  0  0  0  0  0  0  0  0  0  0
   57.5530   31.8997   55.6576 H   0  0  0  0  0  0  0  0  0  0  0  0
   55.2684   31.0471   55.0529 H   0  0  0  0  0  0  0  0  0  0  0  0
   51.3446   31.3351   54.6734 H   0  0  0  0  0  0  0  0  0  0  0  0
   49.7585   32.8787   53.5113 H   0  0  0  0  0  0  0  0  0  0  0  0
   51.8787   32.4116   49.8473 H   0  0  0  0  0  0  0  0  0  0  0  0
   53.5019   30.8601   50.9382 H   0  0  0  0  0  0  0  0  0  0  0  0
   56.9172   29.2425   51.4452 H   0  0  0  0  0  0  0  0  0  0  0  0
   59.9959   26.4620   49.0428 H   0  0  0  0  0  0  0  0  0  0  0  0
   58.8901   26.5750   46.8136 H   0  0  0  0  0  0  0  0  0  0  0  0
   57.7469   31.9569   47.4493 H   0  0  0  0  0  0  0  0  0  0  0  0
   58.7396   34.1056   48.2408 H   0  0  0  0  0  0  0  0  0  0  0  0
   59.5750   35.7831   46.5898 H   0  0  0  0  0  0  0  0  0  0  0  0
   59.3923   35.3237   44.1432 H   0  0  0  0  0  0  0  0  0  0  0  0
   58.4454   33.1589   43.3420 H   0  0  0  0  0  0  0  0  0  0  0  0
  1  2  2  0
  2  3  1  0
  3  4  2  3
  4  5  1  0
  5  6  2  0
  6  7  1  0
  7  8  2  0
  8  9  1  0
  9 10  2  0
  9 11  2  0
  9 12  1  0
 12 13  1  0
 13 14  1  0
 14 15  1  0
 15 16  1  0
 16 17  2  0
 17 18  1  0
 18 19  2  0
 19 20  1  0
 20 21  2  0
 20 22  1  0
 22 23  2  3
 23 24  1  0
 24 25  2  0
 25 26  1  0
 26 27  1  0
 27 28  2  0
 19 29  1  0
 29 30  2  0
  8 31  1  0
 31 32  2  0
  2 33  1  0
 33 34  2  0
 34 35  1  0
 35 36  2  0
 36 37  1  0
 37 38  2  0
 32  5  1  0
 38 33  1  0
 30 13  1  0
 30 16  1  0
 28 23  1  0
  3 39  1  0
  4 40  1  0
  6 41  1  0
  7 42  1  0
 12 43  1  0
 13 44  1  6
 14 45  1  0
 14 46  1  0
 17 47  1  0
 18 48  1  0
 24 49  1  0
 25 50  1  0
 27 51  1  0
 28 52  1  0
 29 53  1  0
 31 54  1  0
 32 55  1  0
 34 56  1  0
 35 57  1  0
 36 58  1  0
 37 59  1  0
 38 60  1  0
M  CHG  1  26  -1
M  END
>  <UniqueID>  (62) 
59

>  <SMILES>  (62) 
O=C(C=Cc1ccc(S(=O)(=O)N[C@@H]2COc3ccc(C(=O)N=c4cc[n-]cc4)cc32)cc1)c1ccccc1

>  <Energy>  (62) 
102.40790996931449

>  <Genealogy>  (62) 
O=C(C=Cc1ccc(S(=O)(=O)NC2COc3ccc(C(=O)N=c4cc[n-]cc4)cc32)cc1)c1ccccc1 (protonated)
O=C(C=Cc1ccc(S(=O)(=O)N[C@@H]2COc3ccc(C(=O)N=c4cc[n-]cc4)cc32)cc1)c1ccccc1 (chirality)
O=C(C=Cc1ccc(S(=O)(=O)N[C@@H]2COc3ccc(C(=O)N=c4cc[n-]cc4)cc32)cc1)c1ccccc1 (3D coordinates assigned)
O=C(C=Cc1ccc(S(=O)(=O)N[C@@H]2COc3ccc(C(=O)N=c4cc[n-]cc4)cc32)cc1)c1ccccc1 (nonaromatic ring conformer: 102.40790996931449 kcal/mol)

>  <smiles>  (62) 
O=C(C=Cc1ccc(S(=O)(=O)NC2COc3ccc(C(=O)N=c4cc[nH]cc4)cc32)cc1)c1ccccc1

>  <score_type>  (62) 
oracle

>  <origin>  (62) 
adg

>  <m_score__min__energy>  (62) 
-13.800000000000001

>  <m_primary>  (62) 
energy

$$$$
62:0
     RDKit          3D

 31 32  0  0  0  0  0  0  0  0999 V2000
   51.0940   29.0670   52.6340 O   0  0  0  0  0  0  0  0  0  0  0  0
   52.0640   30.0430   52.6310 C   0  0  0  0  0  0  0  0  0  0  0  0
   53.2760   29.4840   52.9270 N   0  0  0  0  0  0  0  0  0  0  0  0
   53.4230   28.0920   53.1620 C   0  0  0  0  0  0  0  0  0  0  0  0
   54.7960   27.5580   53.5110 C   0  0  0  0  0  0  0  0  0  0  0  0
   55.7840   28.4450   53.2270 N   0  0  0  0  0  0  0  0  0  0  0  0
   56.4660   29.3180   52.8670 C   0  0  0  0  0  0  0  0  0  0  0  0
   57.8060   29.4130   53.3250 C   0  0  0  0  0  0  0  0  0  0  0  0
   58.6540   30.3980   52.9390 C   0  0  0  0  0  0  0  0  0  0  0  0
   58.1760   31.3530   52.0550 C   0  0  0  0  0  0  0  0  0  0  0  0
   56.8810   31.2750   51.6040 C   0  0  0  0  0  0  0  0  0  0  0  0
   56.0510   30.2870   51.9970 N   0  0  0  0  0  0  0  0  0  0  0  0
   51.4520   31.2510   52.3390 C   0  0  0  0  0  0  0  0  0  0  0  0
   51.1620   31.5180   53.9870 C   0  0  0  0  0  0  0  0  0  0  0  0
   50.5550   32.5870   54.4170 C   0  0  0  0  0  0  0  0  0  0  0  0
   50.0420   33.6740   53.7410 C   0  0  0  0  0  0  0  0  0  0  0  0
   50.2770   33.4690   52.3770 N   0  0  0  0  0  0  0  0  0  0  0  0
   50.8850   32.3720   52.0680 C   0  0  0  0  0  0  0  0  0  0  0  0
   51.0190   32.3530   50.6630 O   0  0  0  0  0  0  0  0  0  0  0  0
   54.1200   30.1360   53.0180 H   0  0  0  0  0  0  0  0  0  0  0  0
   52.7522   27.8308   53.9937 H   0  0  0  0  0  0  0  0  0  0  0  0
   53.1940   27.6299   52.1904 H   0  0  0  0  0  0  0  0  0  0  0  0
   54.8237   27.3309   54.5870 H   0  0  0  0  0  0  0  0  0  0  0  0
   54.9696   26.6570   52.9043 H   0  0  0  0  0  0  0  0  0  0  0  0
   58.1744   28.6506   54.0271 H   0  0  0  0  0  0  0  0  0  0  0  0
   59.6870   30.4381   53.3148 H   0  0  0  0  0  0  0  0  0  0  0  0
   58.8308   32.1694   51.7164 H   0  0  0  0  0  0  0  0  0  0  0  0
   56.5109   32.0384   50.9038 H   0  0  0  0  0  0  0  0  0  0  0  0
   51.4967   30.7653   54.7160 H   0  0  0  0  0  0  0  0  0  0  0  0
   50.4298   32.6304   55.5090 H   0  0  0  0  0  0  0  0  0  0  0  0
   49.5401   34.5429   54.1915 H   0  0  0  0  0  0  0  0  0  0  0  0
  1  2  2  0
  2  3  1  0
  3  4  1  0
  4  5  1  0
  5  6  1  0
  6  7  2  3
  7  8  1  0
  8  9  2  0
  9 10  1  0
 10 11  2  0
 11 12  1  0
  2 13  1  0
 13 14  2  0
 14 15  1  0
 15 16  2  0
 16 17  1  0
 17 18  1  0
 18 19  2  0
 12  7  1  0
 18 13  1  0
  3 20  1  0
  4 21  1  0
  4 22  1  0
  5 23  1  0
  5 24  1  0
  8 25  1  0
  9 26  1  0
 10 27  1  0
 11 28  1  0
 14 29  1  0
 15 30  1  0
 16 31  1  0
M  CHG  2  12  -1  17  -1
M  END
>  <UniqueID>  (63) 
60

>  <SMILES>  (63) 
O=C(NCCN=c1cccc[n-]1)c1ccc[n-]c1=O

>  <Energy>  (63) 
468.5483738410464

>  <Genealogy>  (63) 
O=C(NCCN=c1cccc[n-]1)c1ccc[n-]c1=O (protonated)
O=C(NCCN=c1cccc[n-]1)c1ccc[n-]c1=O (3D coordinates assigned)
O=C(NCCN=c1cccc[n-]1)c1ccc[n-]c1=O (optimized conformer: 468.5483738410464 kcal/mol)

>  <smiles>  (63) 
O=C(NCCN=c1cccc[nH]1)c1ccc[nH]c1=O

>  <score_type>  (63) 
oracle

>  <origin>  (63) 
adg

>  <m_score__min__energy>  (63) 
-9.9399999999999995

>  <m_primary>  (63) 
energy

$$$$
63:0
     RDKit          3D

 36 38  0  0  0  0  0  0  0  0999 V2000
   55.6327   31.9926   53.9516 H   0  0  0  0  0  0  0  0  0  0  0  0
   56.2250   31.6020   53.1110 C   0  0  0  0  0  0  0  0  0  0  0  0
   55.7890   30.7640   52.1000 C   0  0  0  0  0  0  0  0  0  0  0  0
   54.4290   30.2290   51.9390 C   0  0  0  0  0  0  0  0  0  0  0  0
   54.2360   28.9850   51.9700 O   0  0  0  0  0  0  0  0  0  0  0  0
   53.3320   31.0990   51.6280 N   0  0  0  0  0  0  0  0  0  0  0  0
   52.2570   31.3420   52.3300 C   0  0  0  0  0  0  0  0  0  0  0  0
   51.2680   32.2860   51.9460 C   0  0  0  0  0  0  0  0  0  0  0  0
   51.4010   33.0890   50.8210 O   0  0  0  0  0  0  0  0  0  0  0  0
   50.1380   32.4570   52.7510 C   0  0  0  0  0  0  0  0  0  0  0  0
   49.3496   33.1610   52.4464 H   0  0  0  0  0  0  0  0  0  0  0  0
   50.0070   31.7400   53.9360 C   0  0  0  0  0  0  0  0  0  0  0  0
   49.1198   31.8748   54.5722 H   0  0  0  0  0  0  0  0  0  0  0  0
   51.0110   30.8500   54.3080 C   0  0  0  0  0  0  0  0  0  0  0  0
   50.9230   30.2869   55.2488 H   0  0  0  0  0  0  0  0  0  0  0  0
   52.1010   30.6740   53.5120 N   0  0  0  0  0  0  0  0  0  0  0  0
   52.8300   29.9900   53.8190 H   0  0  0  0  0  0  0  0  0  0  0  0
   56.7760   30.5060   51.2750 O   0  0  0  0  0  0  0  0  0  0  0  0
   57.8430   31.1470   51.6890 C   0  0  0  0  0  0  0  0  0  0  0  0
   59.1710   31.0950   50.9990 C   0  0  0  0  0  0  0  0  0  0  0  0
   59.7295   32.0168   51.2190 H   0  0  0  0  0  0  0  0  0  0  0  0
   59.7269   30.2184   51.3632 H   0  0  0  0  0  0  0  0  0  0  0  0
   58.9970   30.9770   49.5870 O   0  0  0  0  0  0  0  0  0  0  0  0
   59.1150   32.0210   48.6520 C   0  0  0  0  0  0  0  0  0  0  0  0
   57.9950   32.7070   48.1450 C   0  0  0  0  0  0  0  0  0  0  0  0
   56.9855   32.4324   48.4850 H   0  0  0  0  0  0  0  0  0  0  0  0
   58.1580   33.7330   47.2140 C   0  0  0  0  0  0  0  0  0  0  0  0
   57.2767   34.2683   46.8310 H   0  0  0  0  0  0  0  0  0  0  0  0
   59.4330   34.0850   46.7650 C   0  0  0  0  0  0  0  0  0  0  0  0
   59.5850   35.3790   45.5830 Cl  0  0  0  0  0  0  0  0  0  0  0  0
   60.5610   33.4110   47.2610 C   0  0  0  0  0  0  0  0  0  0  0  0
   62.1740   33.8610   46.7060 Cl  0  0  0  0  0  0  0  0  0  0  0  0
   60.3980   32.3820   48.2080 C   0  0  0  0  0  0  0  0  0  0  0  0
   61.8010   31.5360   48.8590 Cl  0  0  0  0  0  0  0  0  0  0  0  0
   57.5570   31.8460   52.8460 C   0  0  0  0  0  0  0  0  0  0  0  0
   58.2479   32.4680   53.4340 H   0  0  0  0  0  0  0  0  0  0  0  0
  1  2  1  0
  2  3  2  0
  3  4  1  0
  4  5  2  0
  4  6  1  0
  6  7  2  0
  7  8  1  0
  8  9  1  0
  8 10  2  0
 10 11  1  0
 10 12  1  0
 12 13  1  0
 12 14  2  0
 14 15  1  0
 14 16  1  0
 16 17  1  0
  3 18  1  0
 18 19  1  0
 19 20  1  0
 20 21  1  0
 20 22  1  0
 20 23  1  0
 23 24  1  0
 24 25  2  0
 25 26  1  0
 25 27  1  0
 27 28  1  0
 27 29  2  0
 29 30  1  0
 29 31  1  0
 31 32  1  0
 31 33  2  0
 33 34  1  0
 19 35  2  0
 35 36  1  0
 35  2  1  0
 16  7  1  0
 33 24  1  0
M  CHG  1   9  -1
M  END
>  <UniqueID>  (64) 
61

>  <SMILES>  (64) 
O=C(/N=c1/[nH]cccc1[O-])c1ccc(COc2ccc(Cl)c(Cl)c2Cl)o1

>  <Energy>  (64) 
74.04436290440707

>  <Genealogy>  (64) 
O=C(N=c1[nH]cccc1[O-])c1ccc(COc2ccc(Cl)c(Cl)c2Cl)o1 (protonated)
O=C(/N=c1/[nH]cccc1[O-])c1ccc(COc2ccc(Cl)c(Cl)c2Cl)o1 (cis-trans isomerization)
O=C(/N=c1/[nH]cccc1[O-])c1ccc(COc2ccc(Cl)c(Cl)c2Cl)o1 (3D coordinates assigned)
O=C(/N=c1/[nH]cccc1[O-])c1ccc(COc2ccc(Cl)c(Cl)c2Cl)o1 (optimized conformer: 74.04436290440707 kcal/mol)

>  <smiles>  (64) 
O=C(N=c1[nH]cccc1O)c1ccc(COc2ccc(Cl)c(Cl)c2Cl)o1

>  <score_type>  (64) 
oracle

>  <origin>  (64) 
adg

>  <m_score__min__energy>  (64) 
-12.09

>  <m_primary>  (64) 
energy

$$$$
64:0
     RDKit          3D

 61 64  0  0  0  0  0  0  0  0999 V2000
   64.7300   32.9210   49.2750 C   0  0  0  0  0  0  0  0  0  0  0  0
   63.5140   33.3010   48.4970 C   0  0  0  0  0  0  0  0  0  0  0  0
   63.3400   33.1390   47.1280 C   0  0  0  0  0  0  0  0  0  0  0  0
   62.0700   33.5290   46.6850 C   0  0  0  0  0  0  0  0  0  0  0  0
   61.2460   33.9860   47.7080 C   0  0  0  0  0  0  0  0  0  0  0  0
   59.8300   34.4530   47.5500 C   0  0  0  0  0  0  0  0  0  0  0  0
   59.6420   35.2130   46.2650 C   0  0  0  0  0  0  0  0  0  0  0  0
   59.7070   36.4710   46.2820 O   0  0  0  0  0  0  0  0  0  0  0  0
   59.5320   34.5490   44.9980 N   0  0  0  0  0  0  0  0  0  0  0  0
   58.8110   33.3370   44.7480 C   0  0  0  0  0  0  0  0  0  0  0  0
   58.4430   32.9650   43.4460 C   0  0  0  0  0  0  0  0  0  0  0  0
   57.7310   31.7820   43.2260 C   0  0  0  0  0  0  0  0  0  0  0  0
   57.4000   30.9500   44.3030 C   0  0  0  0  0  0  0  0  0  0  0  0
   56.4200   29.5130   44.0290 S   0  0  0  0  0  0  0  0  0  0  0  0
   56.0670   29.4000   42.5710 O   0  0  0  0  0  0  0  0  0  0  0  0
   55.1450   29.6350   44.8160 O   0  0  0  0  0  0  0  0  0  0  0  0
   57.2710   28.0820   44.5400 N   0  0  0  0  0  0  0  0  0  0  0  0
   58.4280   28.4160   45.4010 C   0  0  0  0  0  0  0  0  0  0  0  0
   58.0470   28.2330   46.8840 C   0  0  0  0  0  0  0  0  0  0  0  0
   57.8510   26.7510   47.2740 C   0  0  0  0  0  0  0  0  0  0  0  0
   58.1390   25.8460   46.1430 N   0  0  0  0  0  0  0  0  0  0  0  0
   57.8620   24.4240   46.4460 C   0  0  0  0  0  0  0  0  0  0  0  0
   57.4780   23.6020   45.2340 C   0  0  0  0  0  0  0  0  0  0  0  0
   58.0290   22.3230   45.0370 C   0  0  0  0  0  0  0  0  0  0  0  0
   57.6700   21.5660   43.9170 C   0  0  0  0  0  0  0  0  0  0  0  0
   56.7650   22.0780   42.9840 C   0  0  0  0  0  0  0  0  0  0  0  0
   56.2220   23.3520   43.1660 C   0  0  0  0  0  0  0  0  0  0  0  0
   56.5780   24.1140   44.2820 C   0  0  0  0  0  0  0  0  0  0  0  0
   59.4940   26.0740   45.6040 C   0  0  0  0  0  0  0  0  0  0  0  0
   59.6500   27.5200   45.0820 C   0  0  0  0  0  0  0  0  0  0  0  0
   57.8030   31.3010   45.5990 C   0  0  0  0  0  0  0  0  0  0  0  0
   58.5160   32.4840   45.8180 C   0  0  0  0  0  0  0  0  0  0  0  0
   62.0890   33.8960   49.1640 S   0  0  0  0  0  0  0  0  0  0  0  0
   64.5128   32.9889   50.3512 H   0  0  0  0  0  0  0  0  0  0  0  0
   65.0188   31.8898   49.0236 H   0  0  0  0  0  0  0  0  0  0  0  0
   65.5545   33.6043   49.0236 H   0  0  0  0  0  0  0  0  0  0  0  0
   64.1202   32.7447   46.4603 H   0  0  0  0  0  0  0  0  0  0  0  0
   61.7553   33.4788   45.6322 H   0  0  0  0  0  0  0  0  0  0  0  0
   59.1628   33.5784   47.5493 H   0  0  0  0  0  0  0  0  0  0  0  0
   59.5920   35.1253   48.3875 H   0  0  0  0  0  0  0  0  0  0  0  0
   58.7157   33.6066   42.5951 H   0  0  0  0  0  0  0  0  0  0  0  0
   57.4302   31.5042   42.2051 H   0  0  0  0  0  0  0  0  0  0  0  0
   57.5880   27.6120   43.6610 H   0  0  0  0  0  0  0  0  0  0  0  0
   58.6998   29.4634   45.2034 H   0  0  0  0  0  0  0  0  0  0  0  0
   58.8478   28.6574   47.5074 H   0  0  0  0  0  0  0  0  0  0  0  0
   57.0880   28.7472   47.0451 H   0  0  0  0  0  0  0  0  0  0  0  0
   58.5286   26.5087   48.1060 H   0  0  0  0  0  0  0  0  0  0  0  0
   56.8003   26.6096   47.5674 H   0  0  0  0  0  0  0  0  0  0  0  0
   58.7655   23.9825   46.8918 H   0  0  0  0  0  0  0  0  0  0  0  0
   57.0010   24.4052   47.1303 H   0  0  0  0  0  0  0  0  0  0  0  0
   58.7450   21.9165   45.7665 H   0  0  0  0  0  0  0  0  0  0  0  0
   58.1014   20.5648   43.7704 H   0  0  0  0  0  0  0  0  0  0  0  0
   56.4803   21.4784   42.1068 H   0  0  0  0  0  0  0  0  0  0  0  0
   55.5125   23.7564   42.4291 H   0  0  0  0  0  0  0  0  0  0  0  0
   56.1522   25.1193   44.4166 H   0  0  0  0  0  0  0  0  0  0  0  0
   60.2317   25.8983   46.4008 H   0  0  0  0  0  0  0  0  0  0  0  0
   59.6573   25.3808   44.7657 H   0  0  0  0  0  0  0  0  0  0  0  0
   60.5418   27.9657   45.5468 H   0  0  0  0  0  0  0  0  0  0  0  0
   59.7400   27.4656   43.9870 H   0  0  0  0  0  0  0  0  0  0  0  0
   57.5576   30.6439   46.4463 H   0  0  0  0  0  0  0  0  0  0  0  0
   58.8461   32.7450   46.8343 H   0  0  0  0  0  0  0  0  0  0  0  0
  1  2  1  0
  2  3  2  0
  3  4  1  0
  4  5  2  0
  5  6  1  0
  6  7  1  0
  7  8  2  0
  7  9  1  0
  9 10  1  0
 10 11  2  0
 11 12  1  0
 12 13  2  0
 13 14  1  0
 14 15  2  0
 14 16  2  0
 14 17  1  0
 17 18  1  0
 18 19  1  0
 19 20  1  0
 20 21  1  0
 21 22  1  0
 22 23  1  0
 23 24  2  0
 24 25  1  0
 25 26  2  0
 26 27  1  0
 27 28  2  0
 21 29  1  0
 29 30  1  0
 13 31  1  0
 31 32  2  0
  5 33  1  0
 33  2  1  0
 32 10  1  0
 30 18  1  0
 28 23  1  0
  1 34  1  0
  1 35  1  0
  1 36  1  0
  3 37  1  0
  4 38  1  0
  6 39  1  0
  6 40  1  0
 11 41  1  0
 12 42  1  0
 17 43  1  0
 18 44  1  0
 19 45  1  0
 19 46  1  0
 20 47  1  0
 20 48  1  0
 22 49  1  0
 22 50  1  0
 24 51  1  0
 25 52  1  0
 26 53  1  0
 27 54  1  0
 28 55  1  0
 29 56  1  0
 29 57  1  0
 30 58  1  0
 30 59  1  0
 31 60  1  0
 32 61  1  0
M  CHG  1   9  -1
M  END
>  <UniqueID>  (65) 
62

>  <SMILES>  (65) 
Cc1ccc(CC(=O)[N-]c2ccc(S(=O)(=O)NC3CCN(Cc4ccccc4)CC3)cc2)s1

>  <Energy>  (65) 
100.71197938294937

>  <Genealogy>  (65) 
Cc1ccc(CC(=O)[N-]c2ccc(S(=O)(=O)NC3CCN(Cc4ccccc4)CC3)cc2)s1 (protonated)
Cc1ccc(CC(=O)[N-]c2ccc(S(=O)(=O)NC3CCN(Cc4ccccc4)CC3)cc2)s1 (3D coordinates assigned)
Cc1ccc(CC(=O)[N-]c2ccc(S(=O)(=O)NC3CCN(Cc4ccccc4)CC3)cc2)s1 (nonaromatic ring conformer: 100.71197938294937 kcal/mol)

>  <smiles>  (65) 
Cc1ccc(CC(=O)Nc2ccc(S(=O)(=O)NC3CCN(Cc4ccccc4)CC3)cc2)s1

>  <score_type>  (65) 
oracle

>  <origin>  (65) 
adg

>  <m_score__min__energy>  (65) 
-11.380000000000001

>  <m_primary>  (65) 
energy

$$$$
65:0
     RDKit          3D

 33 35  0  0  0  0  0  0  0  0999 V2000
   57.5636   26.0270   44.0399 H   0  0  0  0  0  0  0  0  0  0  0  0
   57.0790   25.1410   44.4760 C   0  0  0  0  0  0  0  0  0  0  0  0
   57.3950   23.8680   43.9920 C   0  0  0  0  0  0  0  0  0  0  0  0
   58.1113   23.7586   43.1644 H   0  0  0  0  0  0  0  0  0  0  0  0
   56.8030   22.7320   44.5570 C   0  0  0  0  0  0  0  0  0  0  0  0
   57.1890   21.1290   43.9380 S   0  0  0  0  0  0  0  0  0  0  0  0
   58.4880   21.1740   43.1830 O   0  0  0  0  0  0  0  0  0  0  0  0
   56.1050   20.6690   43.0040 O   0  0  0  0  0  0  0  0  0  0  0  0
   57.3260   20.0170   45.2550 N   0  0  0  0  0  0  0  0  0  0  0  0
   58.3380   19.9710   45.5120 H   0  0  0  0  0  0  0  0  0  0  0  0
   57.0660   19.0740   44.8860 H   0  0  0  0  0  0  0  0  0  0  0  0
   55.8920   22.8790   45.6110 C   0  0  0  0  0  0  0  0  0  0  0  0
   55.4250   21.9898   46.0596 H   0  0  0  0  0  0  0  0  0  0  0  0
   55.5740   24.1520   46.0950 C   0  0  0  0  0  0  0  0  0  0  0  0
   54.8712   24.2590   46.9344 H   0  0  0  0  0  0  0  0  0  0  0  0
   56.1490   25.2960   45.5130 C   0  0  0  0  0  0  0  0  0  0  0  0
   55.8780   26.6210   46.0020 N   0  0  0  0  0  0  0  0  0  0  0  0
   56.6620   27.6570   45.9250 C   0  0  0  0  0  0  0  0  0  0  0  0
   57.8710   27.6790   46.5440 N   0  0  0  0  0  0  0  0  0  0  0  0
   58.6560   28.7820   46.4680 C   0  0  0  0  0  0  0  0  0  0  0  0
   60.2160   28.8010   47.2600 Cl  0  0  0  0  0  0  0  0  0  0  0  0
   58.2300   29.8700   45.7790 N   0  0  0  0  0  0  0  0  0  0  0  0
   57.0200   29.8650   45.1660 C   0  0  0  0  0  0  0  0  0  0  0  0
   56.6420   30.9320   44.5160 N   0  0  0  0  0  0  0  0  0  0  0  0
   57.1430   32.3210   44.4920 C   0  0  0  0  0  0  0  0  0  0  0  0
   56.6639   32.5462   43.5278 H   0  0  0  0  0  0  0  0  0  0  0  0
   57.2580   33.0400   45.8260 C   0  0  0  0  0  0  0  0  0  0  0  0
   57.0262   34.1131   45.8950 H   0  0  0  0  0  0  0  0  0  0  0  0
   56.8416   32.8863   46.8325 H   0  0  0  0  0  0  0  0  0  0  0  0
   58.5160   32.5740   45.0910 C   0  0  0  0  0  0  0  0  0  0  0  0
   59.1899   33.3117   44.6310 H   0  0  0  0  0  0  0  0  0  0  0  0
   59.3812   31.9456   45.3490 H   0  0  0  0  0  0  0  0  0  0  0  0
   56.2400   28.7550   45.2470 N   0  0  0  0  0  0  0  0  0  0  0  0
  1  2  1  0
  2  3  2  0
  3  4  1  0
  3  5  1  0
  5  6  1  0
  6  7  2  0
  6  8  2  0
  6  9  1  0
  9 10  1  0
  9 11  1  0
  5 12  2  0
 12 13  1  0
 12 14  1  0
 14 15  1  0
 14 16  2  0
 16 17  1  0
 17 18  2  0
 18 19  1  0
 19 20  1  0
 20 21  1  0
 20 22  2  0
 22 23  1  0
 23 24  2  3
 24 25  1  0
 25 26  1  0
 25 27  1  0
 27 28  1  0
 27 29  1  0
 27 30  1  0
 30 31  1  0
 30 32  1  0
 23 33  1  0
 16  2  1  0
 33 18  1  0
 30 25  1  0
M  CHG  2  19  -1  33  -1
M  END
>  <UniqueID>  (66) 
63

>  <SMILES>  (66) 
NS(=O)(=O)c1ccc(/N=c2\[n-]c(Cl)nc(=NC3CC3)[n-]2)cc1

>  <Energy>  (66) 
314.23098660958436

>  <Genealogy>  (66) 
NS(=O)(=O)c1ccc(N=c2[n-]c(Cl)nc(=NC3CC3)[n-]2)cc1 (protonated)
NS(=O)(=O)c1ccc(/N=c2\[n-]c(Cl)nc(=NC3CC3)[n-]2)cc1 (cis-trans isomerization)
NS(=O)(=O)c1ccc(/N=c2\[n-]c(Cl)nc(=NC3CC3)[n-]2)cc1 (3D coordinates assigned)
NS(=O)(=O)c1ccc(/N=c2\[n-]c(Cl)nc(=NC3CC3)[n-]2)cc1 (nonaromatic ring conformer: 314.23098660958436 kcal/mol)

>  <smiles>  (66) 
NS(=O)(=O)c1ccc(N=c2[nH]c(Cl)nc(=NC3CC3)[nH]2)cc1

>  <score_type>  (66) 
oracle

>  <origin>  (66) 
adg

>  <m_score__min__energy>  (66) 
-10.81

>  <m_primary>  (66) 
energy

$$$$
66:0
     RDKit          3D

 34 36  0  0  0  0  0  0  0  0999 V2000
   58.5990   27.7010   44.2550 O   0  0  0  0  0  0  0  0  0  0  0  0
   57.8110   27.6220   45.2370 C   0  0  0  0  0  0  0  0  0  0  0  0
   57.1350   28.7920   45.7100 N   0  0  0  0  0  0  0  0  0  0  0  0
   56.5940   29.8310   44.8360 C   0  0  2  0  0  0  0  0  0  0  0  0
   56.5490   29.3060   43.3890 C   0  0  0  0  0  0  0  0  0  0  0  0
   56.2770   30.4430   42.4070 C   0  0  0  0  0  0  0  0  0  0  0  0
   57.4270   31.4500   42.4390 C   0  0  0  0  0  0  0  0  0  0  0  0
   57.7580   31.8900   43.8440 C   0  0  0  0  0  0  0  0  0  0  0  0
   58.4880   33.0770   44.0250 C   0  0  0  0  0  0  0  0  0  0  0  0
   58.8390   33.5060   45.3060 C   0  0  0  0  0  0  0  0  0  0  0  0
   58.4700   32.7530   46.4200 C   0  0  0  0  0  0  0  0  0  0  0  0
   57.7590   31.5630   46.2570 C   0  0  0  0  0  0  0  0  0  0  0  0
   57.4210   31.0980   44.9720 C   0  0  0  0  0  0  0  0  0  0  0  0
   57.5410   26.3080   45.8610 C   0  0  0  0  0  0  0  0  0  0  0  0
   56.2300   25.8800   46.1700 C   0  0  0  0  0  0  0  0  0  0  0  0
   55.1170   26.7070   46.0100 O   0  0  0  0  0  0  0  0  0  0  0  0
   56.0330   24.6340   46.6750 N   0  0  0  0  0  0  0  0  0  0  0  0
   57.0710   23.7930   46.9130 C   0  0  0  0  0  0  0  0  0  0  0  0
   56.8550   22.6460   47.3820 O   0  0  0  0  0  0  0  0  0  0  0  0
   58.3400   24.1900   46.6510 N   0  0  0  0  0  0  0  0  0  0  0  0
   58.5990   25.4190   46.1350 C   0  0  0  0  0  0  0  0  0  0  0  0
   59.7930   25.7400   45.8890 O   0  0  0  0  0  0  0  0  0  0  0  0
   55.5645   30.0842   45.1292 H   0  0  0  0  0  0  0  0  0  0  0  0
   57.5155   28.8414   43.1439 H   0  0  0  0  0  0  0  0  0  0  0  0
   55.7373   28.5681   43.3071 H   0  0  0  0  0  0  0  0  0  0  0  0
   56.1815   30.0317   41.3913 H   0  0  0  0  0  0  0  0  0  0  0  0
   55.3446   30.9515   42.6936 H   0  0  0  0  0  0  0  0  0  0  0  0
   58.3186   30.9843   41.9939 H   0  0  0  0  0  0  0  0  0  0  0  0
   57.1148   32.3386   41.8707 H   0  0  0  0  0  0  0  0  0  0  0  0
   58.7854   33.6732   43.1497 H   0  0  0  0  0  0  0  0  0  0  0  0
   59.4071   34.4388   45.4368 H   0  0  0  0  0  0  0  0  0  0  0  0
   58.7398   33.0974   47.4293 H   0  0  0  0  0  0  0  0  0  0  0  0
   57.4596   30.9824   47.1420 H   0  0  0  0  0  0  0  0  0  0  0  0
   55.1470   27.5890   45.5180 H   0  0  0  0  0  0  0  0  0  0  0  0
  1  2  2  0
  2  3  1  0
  3  4  1  0
  4  5  1  0
  5  6  1  0
  6  7  1  0
  7  8  1  0
  8  9  2  0
  9 10  1  0
 10 11  2  0
 11 12  1  0
 12 13  2  0
  2 14  1  0
 14 15  2  0
 15 16  1  0
 15 17  1  0
 17 18  1  0
 18 19  2  0
 18 20  1  0
 20 21  1  0
 21 22  2  0
 13  4  1  0
 21 14  1  0
 13  8  1  0
  4 23  1  1
  5 24  1  0
  5 25  1  0
  6 26  1  0
  6 27  1  0
  7 28  1  0
  7 29  1  0
  9 30  1  0
 10 31  1  0
 11 32  1  0
 12 33  1  0
 16 34  1  0
M  CHG  3   3  -1  17  -1  20  -1
M  END
>  <UniqueID>  (67) 
64

>  <SMILES>  (67) 
O=C([N-][C@@H]1CCCc2ccccc21)c1c(O)[n-]c(=O)[n-]c1=O

>  <Energy>  (67) 
42.76926438868654

>  <Genealogy>  (67) 
O=C([N-]C1CCCc2ccccc21)c1c(O)[n-]c(=O)[n-]c1=O (protonated)
O=C([N-][C@@H]1CCCc2ccccc21)c1c(O)[n-]c(=O)[n-]c1=O (chirality)
O=C([N-][C@@H]1CCCc2ccccc21)c1c(O)[n-]c(=O)[n-]c1=O (3D coordinates assigned)
O=C([N-][C@@H]1CCCc2ccccc21)c1c(O)[n-]c(=O)[n-]c1=O (nonaromatic ring conformer: 42.76926438868654 kcal/mol)

>  <smiles>  (67) 
O=C(NC1CCCc2ccccc21)c1c(O)[nH]c(=O)[nH]c1=O

>  <score_type>  (67) 
oracle

>  <origin>  (67) 
adg

>  <m_score__min__energy>  (67) 
-13.4

>  <m_primary>  (67) 
energy

$$$$
67:0
     RDKit          3D

 29 30  0  0  0  0  0  0  0  0999 V2000
   59.4407   25.4735   46.7890 H   0  0  0  0  0  0  0  0  0  0  0  0
   58.5950   26.0450   46.3790 C   0  0  0  0  0  0  0  0  0  0  0  0
   58.8950   27.0300   45.3220 C   0  0  0  0  0  0  0  0  0  0  0  0
   60.0540   27.5120   45.2070 O   0  0  0  0  0  0  0  0  0  0  0  0
   57.8130   27.5040   44.5070 N   0  0  0  0  0  0  0  0  0  0  0  0
   57.2290   28.6670   44.5550 C   0  0  0  0  0  0  0  0  0  0  0  0
   57.8920   29.8700   44.4430 C   0  0  0  0  0  0  0  0  0  0  0  0
   58.9660   30.0460   44.2833 H   0  0  0  0  0  0  0  0  0  0  0  0
   56.8800   30.8020   44.5800 C   0  0  0  0  0  0  0  0  0  0  0  0
   57.0420   32.2840   44.5600 C   0  0  0  0  0  0  0  0  0  0  0  0
   57.0834   32.6623   45.5921 H   0  0  0  0  0  0  0  0  0  0  0  0
   57.9739   32.5440   44.0366 H   0  0  0  0  0  0  0  0  0  0  0  0
   56.1883   32.7391   44.0366 H   0  0  0  0  0  0  0  0  0  0  0  0
   55.7380   30.1800   44.7680 O   0  0  0  0  0  0  0  0  0  0  0  0
   55.9130   28.8910   44.7560 N   0  0  0  0  0  0  0  0  0  0  0  0
   55.1470   28.2030   44.9170 H   0  0  0  0  0  0  0  0  0  0  0  0
   57.3770   25.7870   46.8830 C   0  0  0  0  0  0  0  0  0  0  0  0
   57.0886   26.3148   47.8040 H   0  0  0  0  0  0  0  0  0  0  0  0
   56.3920   24.8500   46.2990 C   0  0  0  0  0  0  0  0  0  0  0  0
   56.7160   23.4960   46.1030 C   0  0  0  0  0  0  0  0  0  0  0  0
   57.6987   23.1169   46.4200 H   0  0  0  0  0  0  0  0  0  0  0  0
   55.7950   22.6290   45.5070 C   0  0  0  0  0  0  0  0  0  0  0  0
   56.0482   21.5670   45.3726 H   0  0  0  0  0  0  0  0  0  0  0  0
   54.5540   23.1090   45.0820 C   0  0  0  0  0  0  0  0  0  0  0  0
   53.8289   22.4244   44.6176 H   0  0  0  0  0  0  0  0  0  0  0  0
   54.2340   24.4590   45.2470 C   0  0  0  0  0  0  0  0  0  0  0  0
   53.2587   24.8368   44.9064 H   0  0  0  0  0  0  0  0  0  0  0  0
   55.1500   25.3320   45.8440 C   0  0  0  0  0  0  0  0  0  0  0  0
   54.8150   26.6750   45.9920 O   0  0  0  0  0  0  0  0  0  0  0  0
  1  2  1  0
  2  3  1  0
  3  4  2  0
  3  5  1  0
  5  6  2  0
  6  7  1  0
  7  8  1  0
  7  9  2  0
  9 10  1  0
 10 11  1  0
 10 12  1  0
 10 13  1  0
  9 14  1  0
 14 15  1  0
 15 16  1  0
  2 17  2  0
 17 18  1  0
 17 19  1  0
 19 20  2  0
 20 21  1  0
 20 22  1  0
 22 23  1  0
 22 24  2  0
 24 25  1  0
 24 26  1  0
 26 27  1  0
 26 28  2  0
 28 29  1  0
 15  6  1  0
 28 19  1  0
M  CHG  1  29  -1
M  END
>  <UniqueID>  (68) 
65

>  <SMILES>  (68) 
Cc1c/c(=N/C(=O)/C=C\c2ccccc2[O-])[nH]o1

>  <Energy>  (68) 
72.20745175275316

>  <Genealogy>  (68) 
Cc1cc(=NC(=O)C=Cc2ccccc2[O-])[nH]o1 (protonated)
Cc1c/c(=N/C(=O)/C=C\c2ccccc2[O-])[nH]o1 (cis-trans isomerization)
Cc1c/c(=N/C(=O)/C=C\c2ccccc2[O-])[nH]o1 (3D coordinates assigned)
Cc1c/c(=N/C(=O)/C=C\c2ccccc2[O-])[nH]o1 (optimized conformer: 72.20745175275316 kcal/mol)

>  <smiles>  (68) 
Cc1cc(=NC(=O)C=Cc2ccccc2O)[nH]o1

>  <score_type>  (68) 
oracle

>  <origin>  (68) 
adg

>  <m_score__min__energy>  (68) 
-10.779999999999999

>  <m_primary>  (68) 
energy

$$$$
68:0
     RDKit          3D

 46 48  0  0  0  0  0  0  0  0999 V2000
   64.3984   33.5584   47.4963 H   0  0  0  0  0  0  0  0  0  0  0  0
   63.4210   33.0970   47.2920 C   0  0  0  0  0  0  0  0  0  0  0  0
   63.1780   31.7770   47.6760 C   0  0  0  0  0  0  0  0  0  0  0  0
   63.9645   31.1989   48.1832 H   0  0  0  0  0  0  0  0  0  0  0  0
   61.9370   31.1890   47.4170 C   0  0  0  0  0  0  0  0  0  0  0  0
   61.7502   30.1495   47.7246 H   0  0  0  0  0  0  0  0  0  0  0  0
   60.9240   31.9180   46.7650 C   0  0  0  0  0  0  0  0  0  0  0  0
   59.6370   31.3130   46.5120 N   0  0  0  0  0  0  0  0  0  0  0  0
   59.5510   30.0800   45.7660 C   0  0  0  0  0  0  0  0  0  0  0  0
   60.5830   29.6050   45.2180 O   0  0  0  0  0  0  0  0  0  0  0  0
   58.2720   29.3690   45.5860 C   0  0  0  0  0  0  0  0  0  0  0  0
   57.9240   27.8770   46.2900 S   0  0  0  0  0  0  0  0  0  0  0  0
   56.3870   27.8140   45.6190 C   0  0  0  0  0  0  0  0  0  0  0  0
   55.5640   26.8280   45.7980 N   0  0  0  0  0  0  0  0  0  0  0  0
   55.9510   25.4280   45.6770 C   0  0  0  0  0  0  0  0  0  0  0  0
   56.0713   24.9928   46.6801 H   0  0  0  0  0  0  0  0  0  0  0  0
   55.1712   24.8780   45.1298 H   0  0  0  0  0  0  0  0  0  0  0  0
   56.9026   25.3566   45.1298 H   0  0  0  0  0  0  0  0  0  0  0  0
   56.1050   28.9080   44.8780 N   0  0  0  0  0  0  0  0  0  0  0  0
   57.1440   29.7880   44.8630 C   0  0  0  0  0  0  0  0  0  0  0  0
   57.0250   31.0930   44.1390 C   0  0  0  0  0  0  0  0  0  0  0  0
   56.9503   31.9121   44.8694 H   0  0  0  0  0  0  0  0  0  0  0  0
   57.9131   31.2444   43.5078 H   0  0  0  0  0  0  0  0  0  0  0  0
   56.1242   31.0813   43.5078 H   0  0  0  0  0  0  0  0  0  0  0  0
   58.4530   31.8030   47.2330 C   0  0  0  0  0  0  0  0  0  0  0  0
   58.0332   32.6661   46.6956 H   0  0  0  0  0  0  0  0  0  0  0  0
   57.7100   30.9938   47.2891 H   0  0  0  0  0  0  0  0  0  0  0  0
   58.8240   32.2220   48.6310 C   0  0  0  0  0  0  0  0  0  0  0  0
   59.2580   33.5310   48.8920 C   0  0  0  0  0  0  0  0  0  0  0  0
   59.3578   34.2489   48.0645 H   0  0  0  0  0  0  0  0  0  0  0  0
   59.5640   33.9280   50.1960 C   0  0  0  0  0  0  0  0  0  0  0  0
   59.9049   34.9558   50.3897 H   0  0  0  0  0  0  0  0  0  0  0  0
   59.4380   33.0180   51.2640 C   0  0  0  0  0  0  0  0  0  0  0  0
   59.7330   33.3680   52.5900 O   0  0  0  0  0  0  0  0  0  0  0  0
   58.8680   34.1220   53.4330 C   0  0  0  0  0  0  0  0  0  0  0  0
   59.1081   33.9127   54.4859 H   0  0  0  0  0  0  0  0  0  0  0  0
   59.0040   35.1949   53.2322 H   0  0  0  0  0  0  0  0  0  0  0  0
   57.8237   33.8409   53.2322 H   0  0  0  0  0  0  0  0  0  0  0  0
   59.0030   31.7150   51.0010 C   0  0  0  0  0  0  0  0  0  0  0  0
   58.9015   30.9969   51.8280 H   0  0  0  0  0  0  0  0  0  0  0  0
   58.6960   31.3170   49.6960 C   0  0  0  0  0  0  0  0  0  0  0  0
   58.3526   30.2899   49.5034 H   0  0  0  0  0  0  0  0  0  0  0  0
   61.1790   33.2480   46.3880 C   0  0  0  0  0  0  0  0  0  0  0  0
   60.3950   33.8331   45.8850 H   0  0  0  0  0  0  0  0  0  0  0  0
   62.4220   33.8320   46.6480 C   0  0  0  0  0  0  0  0  0  0  0  0
   62.6142   34.8719   46.3452 H   0  0  0  0  0  0  0  0  0  0  0  0
  1  2  1  0
  2  3  2  0
  3  4  1  0
  3  5  1  0
  5  6  1  0
  5  7  2  0
  7  8  1  0
  8  9  1  0
  9 10  2  0
  9 11  1  0
 11 12  1  0
 12 13  1  0
 13 14  2  0
 14 15  1  0
 15 16  1  0
 15 17  1  0
 15 18  1  0
 13 19  1  0
 19 20  1  0
 20 21  1  0
 21 22  1  0
 21 23  1  0
 21 24  1  0
  8 25  1  0
 25 26  1  0
 25 27  1  0
 25 28  1  0
 28 29  2  0
 29 30  1  0
 29 31  1  0
 31 32  1  0
 31 33  2  0
 33 34  1  0
 34 35  1  0
 35 36  1  0
 35 37  1  0
 35 38  1  0
 33 39  1  0
 39 40  1  0
 39 41  2  0
 41 42  1  0
  7 43  1  0
 43 44  1  0
 43 45  2  0
 45 46  1  0
 45  2  1  0
 20 11  2  0
 41 28  1  0
M  CHG  1  19  -1
M  END
>  <UniqueID>  (69) 
66

>  <SMILES>  (69) 
C/N=c1\[n-]c(C)c(C(=O)N(Cc2ccc(OC)cc2)c2ccccc2)s1

>  <Energy>  (69) 
82.72037704640228

>  <Genealogy>  (69) 
CN=c1[n-]c(C)c(C(=O)N(Cc2ccc(OC)cc2)c2ccccc2)s1 (protonated)
C/N=c1\[n-]c(C)c(C(=O)N(Cc2ccc(OC)cc2)c2ccccc2)s1 (cis-trans isomerization)
C/N=c1\[n-]c(C)c(C(=O)N(Cc2ccc(OC)cc2)c2ccccc2)s1 (3D coordinates assigned)
C/N=c1\[n-]c(C)c(C(=O)N(Cc2ccc(OC)cc2)c2ccccc2)s1 (optimized conformer: 82.72037704640228 kcal/mol)

>  <smiles>  (69) 
CN=c1[nH]c(C)c(C(=O)N(Cc2ccc(OC)cc2)c2ccccc2)s1

>  <score_type>  (69) 
oracle

>  <origin>  (69) 
adg

>  <m_score__min__energy>  (69) 
-9.3200000000000003

>  <m_primary>  (69) 
energy

$$$$
69:0
     RDKit          3D

 60 64  0  0  0  0  0  0  0  0999 V2000
   59.3280   35.3070   44.5620 O   0  0  0  0  0  0  0  0  0  0  0  0
   58.8810   34.2860   45.1500 C   0  0  0  0  0  0  0  0  0  0  0  0
   58.3230   33.1070   44.4960 C   0  0  0  0  0  0  0  0  0  0  0  0
   58.1360   32.8200   43.1440 C   0  0  0  0  0  0  0  0  0  0  0  0
   57.5700   31.5770   42.8040 C   0  0  0  0  0  0  0  0  0  0  0  0
   57.2110   30.6560   43.8130 C   0  0  0  0  0  0  0  0  0  0  0  0
   57.4160   30.9650   45.1710 C   0  0  0  0  0  0  0  0  0  0  0  0
   57.9750   32.2060   45.4820 C   0  0  0  0  0  0  0  0  0  0  0  0
   58.3170   32.8070   46.7700 C   0  0  0  0  0  0  0  0  0  0  0  0
   58.1690   32.2650   47.8940 O   0  0  0  0  0  0  0  0  0  0  0  0
   58.8610   34.1160   46.5720 N   0  0  0  0  0  0  0  0  0  0  0  0
   59.5900   34.9150   47.5500 C   0  0  0  0  0  0  0  0  0  0  0  0
   60.2780   34.0180   48.5440 C   0  0  0  0  0  0  0  0  0  0  0  0
   61.3800   33.2410   48.1550 C   0  0  0  0  0  0  0  0  0  0  0  0
   61.9900   32.3740   49.0670 C   0  0  0  0  0  0  0  0  0  0  0  0
   61.5050   32.2710   50.3820 C   0  0  0  0  0  0  0  0  0  0  0  0
   62.1370   31.3000   51.3470 C   0  0  0  0  0  0  0  0  0  0  0  0
   61.3610   29.9680   51.4140 C   0  0  0  0  0  0  0  0  0  0  0  0
   60.9210   29.4760   50.0830 N   0  0  0  0  0  0  0  0  0  0  0  0
   60.9760   27.9980   50.0540 C   0  0  0  0  0  0  0  0  0  0  0  0
   60.7510   27.4920   48.6220 C   0  0  0  0  0  0  0  0  0  0  0  0
   59.6700   28.2420   47.9740 N   0  0  0  0  0  0  0  0  0  0  0  0
   59.3560   27.9900   46.5950 C   0  0  0  0  0  0  0  0  0  0  0  0
   59.8390   28.8600   45.6060 C   0  0  0  0  0  0  0  0  0  0  0  0
   59.5850   28.6040   44.2590 C   0  0  0  0  0  0  0  0  0  0  0  0
   58.8410   27.4830   43.8880 C   0  0  0  0  0  0  0  0  0  0  0  0
   58.3410   26.6120   44.8640 C   0  0  0  0  0  0  0  0  0  0  0  0
   57.4000   25.2150   44.3490 Cl  0  0  0  0  0  0  0  0  0  0  0  0
   58.5940   26.8650   46.2260 C   0  0  0  0  0  0  0  0  0  0  0  0
   57.9280   25.8030   47.4680 Cl  0  0  0  0  0  0  0  0  0  0  0  0
   58.7690   29.0640   48.7850 C   0  0  0  0  0  0  0  0  0  0  0  0
   59.5620   29.9820   49.7390 C   0  0  0  0  0  0  0  0  0  0  0  0
   60.3960   33.0420   50.7680 C   0  0  0  0  0  0  0  0  0  0  0  0
   59.7810   33.9020   49.8520 C   0  0  0  0  0  0  0  0  0  0  0  0
   58.4224   33.5436   42.3665 H   0  0  0  0  0  0  0  0  0  0  0  0
   57.4063   31.3214   41.7467 H   0  0  0  0  0  0  0  0  0  0  0  0
   56.7672   29.6886   43.5351 H   0  0  0  0  0  0  0  0  0  0  0  0
   57.1443   30.2510   45.9624 H   0  0  0  0  0  0  0  0  0  0  0  0
   60.3424   35.5271   47.0311 H   0  0  0  0  0  0  0  0  0  0  0  0
   58.8807   35.5649   48.0834 H   0  0  0  0  0  0  0  0  0  0  0  0
   61.7659   33.3143   47.1275 H   0  0  0  0  0  0  0  0  0  0  0  0
   62.8539   31.7695   48.7535 H   0  0  0  0  0  0  0  0  0  0  0  0
   63.1676   31.0952   51.0216 H   0  0  0  0  0  0  0  0  0  0  0  0
   62.1203   31.7550   52.3484 H   0  0  0  0  0  0  0  0  0  0  0  0
   62.0120   29.2073   51.8696 H   0  0  0  0  0  0  0  0  0  0  0  0
   60.4545   30.1490   52.0102 H   0  0  0  0  0  0  0  0  0  0  0  0
   61.5990   29.8250   49.3630 H   0  0  0  0  0  0  0  0  0  0  0  0
   61.9622   27.6632   50.4079 H   0  0  0  0  0  0  0  0  0  0  0  0
   60.1884   27.5945   50.7074 H   0  0  0  0  0  0  0  0  0  0  0  0
   61.6776   27.6204   48.0433 H   0  0  0  0  0  0  0  0  0  0  0  0
   60.4714   26.4288   48.6611 H   0  0  0  0  0  0  0  0  0  0  0  0
   60.4206   29.7480   45.8944 H   0  0  0  0  0  0  0  0  0  0  0  0
   59.9715   29.2865   43.4878 H   0  0  0  0  0  0  0  0  0  0  0  0
   58.6464   27.2827   42.8240 H   0  0  0  0  0  0  0  0  0  0  0  0
   58.1521   29.6851   48.1189 H   0  0  0  0  0  0  0  0  0  0  0  0
   58.1355   28.3970   49.3882 H   0  0  0  0  0  0  0  0  0  0  0  0
   59.6712   30.9660   49.2597 H   0  0  0  0  0  0  0  0  0  0  0  0
   58.9937   30.0275   50.6797 H   0  0  0  0  0  0  0  0  0  0  0  0
   60.0094   32.9692   51.7953 H   0  0  0  0  0  0  0  0  0  0  0  0
   58.9035   34.4904   50.1581 H   0  0  0  0  0  0  0  0  0  0  0  0
  1  2  2  0
  2  3  1  0
  3  4  2  0
  4  5  1  0
  5  6  2  0
  6  7  1  0
  7  8  2  0
  8  9  1  0
  9 10  2  0
  9 11  1  0
 11 12  1  0
 12 13  1  0
 13 14  2  0
 14 15  1  0
 15 16  2  0
 16 17  1  0
 17 18  1  0
 18 19  1  0
 19 20  1  0
 20 21  1  0
 21 22  1  0
 22 23  1  0
 23 24  2  0
 24 25  1  0
 25 26  2  0
 26 27  1  0
 27 28  1  0
 27 29  2  0
 29 30  1  0
 22 31  1  0
 31 32  1  0
 16 33  1  0
 33 34  2  0
 11  2  1  0
 34 13  1  0
  8  3  1  0
 32 19  1  0
 29 23  1  0
  4 35  1  0
  5 36  1  0
  6 37  1  0
  7 38  1  0
 12 39  1  0
 12 40  1  0
 14 41  1  0
 15 42  1  0
 17 43  1  0
 17 44  1  0
 18 45  1  0
 18 46  1  0
 19 47  1  0
 20 48  1  0
 20 49  1  0
 21 50  1  0
 21 51  1  0
 24 52  1  0
 25 53  1  0
 26 54  1  0
 31 55  1  0
 31 56  1  0
 32 57  1  0
 32 58  1  0
 33 59  1  0
 34 60  1  0
M  CHG  1  19   1
M  END
>  <UniqueID>  (70) 
67

>  <SMILES>  (70) 
O=C1c2ccccc2C(=O)N1Cc1ccc(CC[NH+]2CCN(c3cccc(Cl)c3Cl)CC2)cc1

>  <Energy>  (70) 
106.06366863277037

>  <Genealogy>  (70) 
O=C1c2ccccc2C(=O)N1Cc1ccc(CC[NH+]2CCN(c3cccc(Cl)c3Cl)CC2)cc1 (protonated)
O=C1c2ccccc2C(=O)N1Cc1ccc(CC[NH+]2CCN(c3cccc(Cl)c3Cl)CC2)cc1 (3D coordinates assigned)
O=C1c2ccccc2C(=O)N1Cc1ccc(CC[NH+]2CCN(c3cccc(Cl)c3Cl)CC2)cc1 (nonaromatic ring conformer: 106.06366863277037 kcal/mol)

>  <smiles>  (70) 
O=C1c2ccccc2C(=O)N1Cc1ccc(CCN2CCN(c3cccc(Cl)c3Cl)CC2)cc1

>  <score_type>  (70) 
oracle

>  <origin>  (70) 
adg

>  <m_score__min__energy>  (70) 
-9.6300000000000008

>  <m_primary>  (70) 
energy

$$$$
70:0
     RDKit          3D

 38 40  0  0  0  0  0  0  0  0999 V2000
   58.7200   25.5990   46.0270 H   0  0  0  0  0  0  0  0  0  0  0  0
   58.1600   24.7600   45.9330 O   0  0  0  0  0  0  0  0  0  0  0  0
   56.7680   24.8000   45.8240 C   0  0  0  0  0  0  0  0  0  0  0  0
   56.0800   23.6280   45.4940 C   0  0  0  0  0  0  0  0  0  0  0  0
   56.6357   22.6944   45.3219 H   0  0  0  0  0  0  0  0  0  0  0  0
   54.6900   23.6420   45.3830 C   0  0  0  0  0  0  0  0  0  0  0  0
   54.1435   22.7215   45.1300 H   0  0  0  0  0  0  0  0  0  0  0  0
   54.0000   24.8350   45.5960 C   0  0  0  0  0  0  0  0  0  0  0  0
   52.9040   24.8604   45.5058 H   0  0  0  0  0  0  0  0  0  0  0  0
   54.6820   25.9660   45.9150 N   0  0  0  0  0  0  0  0  0  0  0  0
   56.0390   25.9830   46.0490 C   0  0  0  0  0  0  0  0  0  0  0  0
   56.6660   27.0820   46.3560 N   0  0  0  0  0  0  0  0  0  0  0  0
   57.6440   27.7600   45.5530 C   0  0  0  0  0  0  0  0  0  0  0  0
   58.8330   27.3460   45.5700 O   0  0  0  0  0  0  0  0  0  0  0  0
   57.3170   28.9990   44.8140 C   0  0  0  0  0  0  0  0  0  0  0  0
   57.0750   30.1730   45.4550 N   0  0  0  0  0  0  0  0  0  0  0  0
   56.8820   31.1900   44.5910 C   0  0  0  0  0  0  0  0  0  0  0  0
   56.6180   32.4120   44.9440 N   0  0  0  0  0  0  0  0  0  0  0  0
   57.5660   33.4430   45.2810 C   0  0  0  0  0  0  0  0  0  0  0  0
   57.3950   34.5920   44.7980 O   0  0  0  0  0  0  0  0  0  0  0  0
   58.7200   33.2380   46.1860 C   0  0  0  0  0  0  0  0  0  0  0  0
   58.9767   32.2004   46.4457 H   0  0  0  0  0  0  0  0  0  0  0  0
   59.4800   34.2090   46.7170 C   0  0  0  0  0  0  0  0  0  0  0  0
   59.0456   35.2182   46.7698 H   0  0  0  0  0  0  0  0  0  0  0  0
   60.8540   34.0330   47.2370 C   0  0  0  0  0  0  0  0  0  0  0  0
   61.9540   33.8520   46.3780 C   0  0  0  0  0  0  0  0  0  0  0  0
   61.8029   33.8411   45.2885 H   0  0  0  0  0  0  0  0  0  0  0  0
   63.2380   33.6860   46.9050 C   0  0  0  0  0  0  0  0  0  0  0  0
   64.0925   33.5299   46.2301 H   0  0  0  0  0  0  0  0  0  0  0  0
   63.4380   33.7180   48.2880 C   0  0  0  0  0  0  0  0  0  0  0  0
   64.4480   33.5787   48.7010 H   0  0  0  0  0  0  0  0  0  0  0  0
   62.3550   33.9270   49.1460 C   0  0  0  0  0  0  0  0  0  0  0  0
   62.5140   33.9585   50.2340 H   0  0  0  0  0  0  0  0  0  0  0  0
   61.0700   34.0960   48.6230 C   0  0  0  0  0  0  0  0  0  0  0  0
   60.2233   34.2794   49.3008 H   0  0  0  0  0  0  0  0  0  0  0  0
   56.9950   30.6840   42.9960 S   0  0  0  0  0  0  0  0  0  0  0  0
   57.3110   29.0840   43.4210 C   0  0  0  0  0  0  0  0  0  0  0  0
   57.4826   28.2519   42.7223 H   0  0  0  0  0  0  0  0  0  0  0  0
  1  2  1  0
  2  3  1  0
  3  4  2  0
  4  5  1  0
  4  6  1  0
  6  7  1  0
  6  8  2  0
  8  9  1  0
  8 10  1  0
 10 11  1  0
 11 12  2  0
 12 13  1  0
 13 14  2  0
 13 15  1  0
 15 16  1  0
 16 17  1  0
 17 18  2  3
 18 19  1  0
 19 20  2  0
 19 21  1  0
 21 22  1  0
 21 23  2  3
 23 24  1  0
 23 25  1  0
 25 26  2  0
 26 27  1  0
 26 28  1  0
 28 29  1  0
 28 30  2  0
 30 31  1  0
 30 32  1  0
 32 33  1  0
 32 34  2  0
 34 35  1  0
 17 36  1  0
 36 37  1  0
 37 38  1  0
 11  3  1  0
 37 15  2  0
 34 25  1  0
M  CHG  2  10  -1  16  -1
M  END
>  <UniqueID>  (71) 
68

>  <SMILES>  (71) 
O=C(C=Cc1ccccc1)N=c1[n-]c(C(=O)/N=c2\[n-]cccc2O)cs1

>  <Energy>  (71) 
87.34977059962051

>  <Genealogy>  (71) 
O=C(C=Cc1ccccc1)N=c1[n-]c(C(=O)N=c2[n-]cccc2O)cs1 (protonated)
O=C(C=Cc1ccccc1)N=c1[n-]c(C(=O)/N=c2\[n-]cccc2O)cs1 (cis-trans isomerization)
O=C(C=Cc1ccccc1)N=c1[n-]c(C(=O)/N=c2\[n-]cccc2O)cs1 (3D coordinates assigned)
O=C(C=Cc1ccccc1)N=c1[n-]c(C(=O)/N=c2\[n-]cccc2O)cs1 (optimized conformer: 87.34977059962051 kcal/mol)

>  <smiles>  (71) 
O=C(C=Cc1ccccc1)N=c1[nH]c(C(=O)N=c2[nH]cccc2O)cs1

>  <score_type>  (71) 
oracle

>  <origin>  (71) 
adg

>  <m_score__min__energy>  (71) 
-12.07

>  <m_primary>  (71) 
energy

$$$$
71:0
     RDKit          3D

 51 54  0  0  0  0  0  0  0  0999 V2000
   56.4650   30.0690   43.2430 C   0  0  0  0  0  0  0  0  0  0  0  0
   56.3400   30.7490   44.4880 O   0  0  0  0  0  0  0  0  0  0  0  0
   57.4140   31.2910   45.2030 C   0  0  0  0  0  0  0  0  0  0  0  0
   58.3920   30.4890   45.8240 C   0  0  0  0  0  0  0  0  0  0  0  0
   59.4510   31.0840   46.5210 C   0  0  0  0  0  0  0  0  0  0  0  0
   59.5560   32.4790   46.5880 C   0  0  0  0  0  0  0  0  0  0  0  0
   60.5820   33.1210   47.3580 N   0  0  0  0  0  0  0  0  0  0  0  0
   60.4710   33.5130   48.7300 C   0  0  0  0  0  0  0  0  0  0  0  0
   59.9210   34.6110   49.0030 O   0  0  0  0  0  0  0  0  0  0  0  0
   61.0760   32.7010   49.8430 C   0  0  0  0  0  0  0  0  0  0  0  0
   60.2740   32.8530   51.0580 N   0  0  0  0  0  0  0  0  0  0  0  0
   60.6460   33.4020   52.2410 C   0  0  0  0  0  0  0  0  0  0  0  0
   61.7690   33.9320   52.4430 O   0  0  0  0  0  0  0  0  0  0  0  0
   59.7080   33.3120   53.1700 O   0  0  0  0  0  0  0  0  0  0  0  0
   58.7060   32.6860   52.5960 C   0  0  0  0  0  0  0  0  0  0  0  0
   57.4830   32.3210   53.1480 C   0  0  0  0  0  0  0  0  0  0  0  0
   56.5700   31.6260   52.3270 C   0  0  0  0  0  0  0  0  0  0  0  0
   55.3610   31.1360   52.9110 N   0  0  0  0  0  0  0  0  0  0  0  0
   54.3230   30.4250   52.2330 C   0  0  0  0  0  0  0  0  0  0  0  0
   54.6050   29.3180   51.7010 O   0  0  0  0  0  0  0  0  0  0  0  0
   52.8890   30.8990   52.2890 C   0  0  0  0  0  0  0  0  0  0  0  0
   52.2210   30.8350   50.9350 C   0  0  0  0  0  0  0  0  0  0  0  0
   52.4570   29.7370   50.0840 C   0  0  0  0  0  0  0  0  0  0  0  0
   51.8700   29.6910   48.8160 C   0  0  0  0  0  0  0  0  0  0  0  0
   51.0200   30.7230   48.3980 C   0  0  0  0  0  0  0  0  0  0  0  0
   50.7240   31.7800   49.2630 C   0  0  0  0  0  0  0  0  0  0  0  0
   51.3330   31.8480   50.5220 C   0  0  0  0  0  0  0  0  0  0  0  0
   51.0320   32.9160   51.3640 O   0  0  0  0  0  0  0  0  0  0  0  0
   56.9230   31.2980   50.9930 C   0  0  0  0  0  0  0  0  0  0  0  0
   58.1690   31.6860   50.4640 C   0  0  0  0  0  0  0  0  0  0  0  0
   59.0370   32.3860   51.3060 C   0  0  0  0  0  0  0  0  0  0  0  0
   58.5730   33.2740   45.9860 C   0  0  0  0  0  0  0  0  0  0  0  0
   57.5130   32.6830   45.2940 C   0  0  0  0  0  0  0  0  0  0  0  0
   56.6611   29.0022   43.4260 H   0  0  0  0  0  0  0  0  0  0  0  0
   55.5319   30.1774   42.6707 H   0  0  0  0  0  0  0  0  0  0  0  0
   57.2986   30.5022   42.6707 H   0  0  0  0  0  0  0  0  0  0  0  0
   58.3236   29.3929   45.7612 H   0  0  0  0  0  0  0  0  0  0  0  0
   60.2031   30.4534   47.0177 H   0  0  0  0  0  0  0  0  0  0  0  0
   61.0995   31.6408   49.5508 H   0  0  0  0  0  0  0  0  0  0  0  0
   62.0997   33.0542   50.0362 H   0  0  0  0  0  0  0  0  0  0  0  0
   57.2353   32.5663   54.1913 H   0  0  0  0  0  0  0  0  0  0  0  0
   52.3311   30.2621   52.9912 H   0  0  0  0  0  0  0  0  0  0  0  0
   52.8894   31.9481   52.6196 H   0  0  0  0  0  0  0  0  0  0  0  0
   53.1051   28.9135   50.4184 H   0  0  0  0  0  0  0  0  0  0  0  0
   52.0759   28.8434   48.1458 H   0  0  0  0  0  0  0  0  0  0  0  0
   50.5851   30.7014   47.3879 H   0  0  0  0  0  0  0  0  0  0  0  0
   50.0118   32.5594   48.9544 H   0  0  0  0  0  0  0  0  0  0  0  0
   56.2165   30.7350   50.3655 H   0  0  0  0  0  0  0  0  0  0  0  0
   58.4484   31.4471   49.4272 H   0  0  0  0  0  0  0  0  0  0  0  0
   58.6357   34.3698   46.0583 H   0  0  0  0  0  0  0  0  0  0  0  0
   56.7509   33.3170   44.8174 H   0  0  0  0  0  0  0  0  0  0  0  0
  1  2  1  0
  2  3  1  0
  3  4  2  0
  4  5  1  0
  5  6  2  0
  6  7  1  0
  7  8  1  0
  8  9  2  0
  8 10  1  0
 10 11  1  0
 11 12  1  0
 12 13  2  0
 12 14  1  0
 14 15  1  0
 15 16  2  0
 16 17  1  0
 17 18  1  0
 18 19  1  0
 19 20  2  0
 19 21  1  0
 21 22  1  0
 22 23  2  0
 23 24  1  0
 24 25  2  0
 25 26  1  0
 26 27  2  0
 27 28  1  0
 17 29  2  0
 29 30  1  0
 30 31  2  0
  6 32  1  0
 32 33  2  0
 33  3  1  0
 31 11  1  0
 31 15  1  0
 27 22  1  0
  1 34  1  0
  1 35  1  0
  1 36  1  0
  4 37  1  0
  5 38  1  0
 10 39  1  0
 10 40  1  0
 16 41  1  0
 21 42  1  0
 21 43  1  0
 23 44  1  0
 24 45  1  0
 25 46  1  0
 26 47  1  0
 29 48  1  0
 30 49  1  0
 32 50  1  0
 33 51  1  0
M  CHG  3   7  -1  18  -1  28  -1
M  END
>  <UniqueID>  (72) 
69

>  <SMILES>  (72) 
COc1ccc([N-]C(=O)Cn2c(=O)oc3cc([N-]C(=O)Cc4ccccc4[O-])ccc32)cc1

>  <Energy>  (72) 
106.96255486342987

>  <Genealogy>  (72) 
COc1ccc([N-]C(=O)Cn2c(=O)oc3cc([N-]C(=O)Cc4ccccc4[O-])ccc32)cc1 (protonated)
COc1ccc([N-]C(=O)Cn2c(=O)oc3cc([N-]C(=O)Cc4ccccc4[O-])ccc32)cc1 (3D coordinates assigned)
COc1ccc([N-]C(=O)Cn2c(=O)oc3cc([N-]C(=O)Cc4ccccc4[O-])ccc32)cc1 (optimized conformer: 106.96255486342987 kcal/mol)

>  <smiles>  (72) 
COc1ccc(NC(=O)Cn2c(=O)oc3cc(NC(=O)Cc4ccccc4O)ccc32)cc1

>  <score_type>  (72) 
oracle

>  <origin>  (72) 
adg

>  <m_score__min__energy>  (72) 
-14.01

>  <m_primary>  (72) 
energy

$$$$
72:0
     RDKit          3D

 32 33  0  0  0  0  0  0  0  0999 V2000
   58.8540   34.7030   44.8740 C   0  0  0  0  0  0  0  0  0  0  0  0
   58.1840   33.3790   45.0430 C   0  0  0  0  0  0  0  0  0  0  0  0
   57.4930   32.7520   44.0710 N   0  0  0  0  0  0  0  0  0  0  0  0
   57.0490   31.6330   44.6840 C   0  0  0  0  0  0  0  0  0  0  0  0
   56.2450   30.5840   43.9960 C   0  0  0  0  0  0  0  0  0  0  0  0
   56.1150   29.4280   44.8720 N   0  0  0  0  0  0  0  0  0  0  0  0
   57.0550   28.3500   44.9520 C   0  0  0  0  0  0  0  0  0  0  0  0
   57.4180   27.7840   43.8870 O   0  0  0  0  0  0  0  0  0  0  0  0
   57.6240   27.8730   46.2620 C   0  0  0  0  0  0  0  0  0  0  0  0
   57.3540   26.4000   46.4860 C   0  0  0  0  0  0  0  0  0  0  0  0
   56.0560   25.8770   46.3370 C   0  0  0  0  0  0  0  0  0  0  0  0
   54.9950   26.7070   45.9860 O   0  0  0  0  0  0  0  0  0  0  0  0
   55.8300   24.5520   46.5420 N   0  0  0  0  0  0  0  0  0  0  0  0
   56.8350   23.7150   46.9000 C   0  0  0  0  0  0  0  0  0  0  0  0
   56.6000   22.4920   47.0790 O   0  0  0  0  0  0  0  0  0  0  0  0
   58.0920   24.1960   47.0700 N   0  0  0  0  0  0  0  0  0  0  0  0
   58.3740   25.5100   46.8790 C   0  0  0  0  0  0  0  0  0  0  0  0
   59.5530   25.9160   47.0600 O   0  0  0  0  0  0  0  0  0  0  0  0
   57.4240   31.5520   45.9430 O   0  0  0  0  0  0  0  0  0  0  0  0
   58.1250   32.6290   46.1970 C   0  0  0  0  0  0  0  0  0  0  0  0
   58.7420   32.9490   47.5180 C   0  0  0  0  0  0  0  0  0  0  0  0
   59.0715   35.1328   45.8629 H   0  0  0  0  0  0  0  0  0  0  0  0
   59.7934   34.5702   44.3173 H   0  0  0  0  0  0  0  0  0  0  0  0
   58.1906   35.3812   44.3173 H   0  0  0  0  0  0  0  0  0  0  0  0
   55.2466   30.9812   43.7606 H   0  0  0  0  0  0  0  0  0  0  0  0
   56.7470   30.2862   43.0637 H   0  0  0  0  0  0  0  0  0  0  0  0
   58.7112   28.0400   46.2605 H   0  0  0  0  0  0  0  0  0  0  0  0
   57.1399   28.4377   47.0724 H   0  0  0  0  0  0  0  0  0  0  0  0
   55.1460   27.5360   45.4240 H   0  0  0  0  0  0  0  0  0  0  0  0
   58.0788   32.6050   48.3254 H   0  0  0  0  0  0  0  0  0  0  0  0
   59.7144   32.4416   47.6010 H   0  0  0  0  0  0  0  0  0  0  0  0
   58.8874   34.0362   47.6010 H   0  0  0  0  0  0  0  0  0  0  0  0
  1  2  1  0
  2  3  1  0
  3  4  2  0
  4  5  1  0
  5  6  1  0
  6  7  1  0
  7  8  2  0
  7  9  1  0
  9 10  1  0
 10 11  2  0
 11 12  1  0
 11 13  1  0
 13 14  1  0
 14 15  2  0
 14 16  1  0
 16 17  1  0
 17 18  2  0
  4 19  1  0
 19 20  1  0
 20 21  1  0
 20  2  2  0
 17 10  1  0
  1 22  1  0
  1 23  1  0
  1 24  1  0
  5 25  1  0
  5 26  1  0
  9 27  1  0
  9 28  1  0
 12 29  1  0
 21 30  1  0
 21 31  1  0
 21 32  1  0
M  CHG  3   6  -1  13  -1  16  -1
M  END
>  <UniqueID>  (73) 
70

>  <SMILES>  (73) 
Cc1nc(C[N-]C(=O)Cc2c(O)[n-]c(=O)[n-]c2=O)oc1C

>  <Energy>  (73) 
57.223559561389344

>  <Genealogy>  (73) 
Cc1nc(C[N-]C(=O)Cc2c(O)[n-]c(=O)[n-]c2=O)oc1C (protonated)
Cc1nc(C[N-]C(=O)Cc2c(O)[n-]c(=O)[n-]c2=O)oc1C (3D coordinates assigned)
Cc1nc(C[N-]C(=O)Cc2c(O)[n-]c(=O)[n-]c2=O)oc1C (optimized conformer: 57.223559561389344 kcal/mol)

>  <smiles>  (73) 
Cc1nc(CNC(=O)Cc2c(O)[nH]c(=O)[nH]c2=O)oc1C

>  <score_type>  (73) 
oracle

>  <origin>  (73) 
adg

>  <m_score__min__energy>  (73) 
-13.880000000000001

>  <m_primary>  (73) 
energy

$$$$
73:0
     RDKit          3D

 50 52  0  0  0  0  0  0  0  0999 V2000
   59.2610   33.2250   50.4950 C   0  0  0  0  0  0  0  0  0  0  0  0
   58.4770   31.9490   50.5080 C   0  0  0  0  0  0  0  0  0  0  0  0
   58.9760   30.7370   50.2290 C   0  0  0  0  0  0  0  0  0  0  0  0
   59.7280   30.3640   49.0120 C   0  0  0  0  0  0  0  0  0  0  0  0
   60.2740   29.2290   48.9660 O   0  0  0  0  0  0  0  0  0  0  0  0
   59.9010   31.2780   47.9230 N   0  0  0  0  0  0  0  0  0  0  0  0
   61.1190   31.9810   47.6450 C   0  0  0  0  0  0  0  0  0  0  0  0
   62.3200   31.4540   48.1380 C   0  0  0  0  0  0  0  0  0  0  0  0
   63.5340   32.0940   47.8760 C   0  0  0  0  0  0  0  0  0  0  0  0
   63.5550   33.2770   47.1390 C   0  0  0  0  0  0  0  0  0  0  0  0
   62.3620   33.8310   46.6690 C   0  0  0  0  0  0  0  0  0  0  0  0
   61.1350   33.1930   46.9130 C   0  0  0  0  0  0  0  0  0  0  0  0
   59.8810   33.8680   46.5140 C   0  0  0  0  0  0  0  0  0  0  0  0
   59.2010   34.4640   47.3900 O   0  0  0  0  0  0  0  0  0  0  0  0
   59.4100   33.8590   45.1630 N   0  0  0  0  0  0  0  0  0  0  0  0
   58.0060   33.8150   44.7720 C   0  0  0  0  0  0  0  0  0  0  0  0
   57.3580   32.6200   45.4050 C   0  0  0  0  0  0  0  0  0  0  0  0
   57.4020   32.4820   46.6180 O   0  0  0  0  0  0  0  0  0  0  0  0
   56.7360   31.5450   44.5580 C   0  0  0  0  0  0  0  0  0  0  0  0
   57.2310   30.2330   44.9720 N   0  0  0  0  0  0  0  0  0  0  0  0
   56.4990   29.1080   45.1370 C   0  0  0  0  0  0  0  0  0  0  0  0
   55.1410   29.0110   44.8640 O   0  0  0  0  0  0  0  0  0  0  0  0
   57.2920   28.0880   45.6240 C   0  0  0  0  0  0  0  0  0  0  0  0
   58.5530   28.6080   45.7750 C   0  0  0  0  0  0  0  0  0  0  0  0
   58.4850   29.9290   45.3730 C   0  0  0  0  0  0  0  0  0  0  0  0
   59.5410   30.8370   45.3830 O   0  0  0  0  0  0  0  0  0  0  0  0
   59.7160   27.8420   46.3170 C   0  0  0  0  0  0  0  0  0  0  0  0
   59.3430   26.4090   46.6420 C   0  0  0  0  0  0  0  0  0  0  0  0
   58.1010   25.8970   46.4900 C   0  0  0  0  0  0  0  0  0  0  0  0
   56.9130   26.6870   45.9790 C   0  0  0  0  0  0  0  0  0  0  0  0
   59.4577   33.5451   51.5289 H   0  0  0  0  0  0  0  0  0  0  0  0
   60.2158   33.0634   49.9733 H   0  0  0  0  0  0  0  0  0  0  0  0
   58.6853   34.0037   49.9733 H   0  0  0  0  0  0  0  0  0  0  0  0
   57.4096   32.0115   50.7664 H   0  0  0  0  0  0  0  0  0  0  0  0
   58.8107   29.9458   50.9751 H   0  0  0  0  0  0  0  0  0  0  0  0
   62.3070   30.5303   48.7352 H   0  0  0  0  0  0  0  0  0  0  0  0
   64.4742   31.6639   48.2517 H   0  0  0  0  0  0  0  0  0  0  0  0
   64.5126   33.7751   46.9272 H   0  0  0  0  0  0  0  0  0  0  0  0
   62.3838   34.7742   46.1034 H   0  0  0  0  0  0  0  0  0  0  0  0
   57.5003   34.7311   45.1110 H   0  0  0  0  0  0  0  0  0  0  0  0
   57.9281   33.7425   43.6772 H   0  0  0  0  0  0  0  0  0  0  0  0
   55.6427   31.5756   44.6756 H   0  0  0  0  0  0  0  0  0  0  0  0
   57.0029   31.7157   43.5046 H   0  0  0  0  0  0  0  0  0  0  0  0
   59.4550   31.7340   45.8410 H   0  0  0  0  0  0  0  0  0  0  0  0
   60.5212   27.8393   45.5676 H   0  0  0  0  0  0  0  0  0  0  0  0
   60.0437   28.3297   47.2469 H   0  0  0  0  0  0  0  0  0  0  0  0
   60.1316   25.7447   47.0252 H   0  0  0  0  0  0  0  0  0  0  0  0
   57.9429   24.8409   46.7538 H   0  0  0  0  0  0  0  0  0  0  0  0
   56.5118   26.1887   45.0842 H   0  0  0  0  0  0  0  0  0  0  0  0
   56.1590   26.7281   46.7789 H   0  0  0  0  0  0  0  0  0  0  0  0
  1  2  1  0
  2  3  2  3
  3  4  1  0
  4  5  2  0
  4  6  1  0
  6  7  1  0
  7  8  2  0
  8  9  1  0
  9 10  2  0
 10 11  1  0
 11 12  2  0
 12 13  1  0
 13 14  2  0
 13 15  1  0
 15 16  1  0
 16 17  1  0
 17 18  2  0
 17 19  1  0
 19 20  1  0
 20 21  1  0
 21 22  1  0
 21 23  2  0
 23 24  1  0
 24 25  2  0
 25 26  1  0
 24 27  1  0
 27 28  1  0
 28 29  2  0
 29 30  1  0
 12  7  1  0
 25 20  1  0
 30 23  1  0
  1 31  1  0
  1 32  1  0
  1 33  1  0
  2 34  1  0
  3 35  1  0
  8 36  1  0
  9 37  1  0
 10 38  1  0
 11 39  1  0
 16 40  1  0
 16 41  1  0
 19 42  1  0
 19 43  1  0
 26 44  1  0
 27 45  1  0
 27 46  1  0
 28 47  1  0
 29 48  1  0
 30 49  1  0
 30 50  1  0
M  CHG  3   6  -1  15  -1  22  -1
M  END
>  <UniqueID>  (74) 
71

>  <SMILES>  (74) 
CC=CC(=O)[N-]c1ccccc1C(=O)[N-]CC(=O)Cn1c([O-])c2c(c1O)CC=CC2

>  <Energy>  (74) 
87.72514397516005

>  <Genealogy>  (74) 
CC=CC(=O)[N-]c1ccccc1C(=O)[N-]CC(=O)Cn1c([O-])c2c(c1O)CC=CC2 (protonated)
CC=CC(=O)[N-]c1ccccc1C(=O)[N-]CC(=O)Cn1c([O-])c2c(c1O)CC=CC2 (3D coordinates assigned)
CC=CC(=O)[N-]c1ccccc1C(=O)[N-]CC(=O)Cn1c([O-])c2c(c1O)CC=CC2 (nonaromatic ring conformer: 87.72514397516005 kcal/mol)

>  <smiles>  (74) 
CC=CC(=O)Nc1ccccc1C(=O)NCC(=O)Cn1c(O)c2c(c1O)CC=CC2

>  <score_type>  (74) 
oracle

>  <origin>  (74) 
adg

>  <m_score__min__energy>  (74) 
-13.41

>  <m_primary>  (74) 
energy

$$$$
74:0
     RDKit          3D

 50 53  0  0  0  0  0  0  0  0999 V2000
   58.5700   30.0550   44.3090 C   0  0  0  0  0  0  0  0  0  0  0  0
   58.5710   29.6990   45.6020 C   0  0  0  0  0  0  0  0  0  0  0  0
   58.1630   28.4700   46.1310 C   0  0  0  0  0  0  0  0  0  0  0  0
   57.7480   27.3860   45.4480 C   0  0  0  0  0  0  0  0  0  0  0  0
   57.1860   26.1780   46.0780 C   0  0  0  0  0  0  0  0  0  0  0  0
   57.9280   25.1100   46.4170 N   0  0  0  0  0  0  0  0  0  0  0  0
   57.0160   24.2240   46.8710 C   0  0  0  0  0  0  0  0  0  0  0  0
   57.3330   23.0840   47.3010 O   0  0  0  0  0  0  0  0  0  0  0  0
   55.7370   24.6510   46.8190 N   0  0  0  0  0  0  0  0  0  0  0  0
   55.8590   25.8850   46.3040 C   0  0  0  0  0  0  0  0  0  0  0  0
   54.7750   26.7020   46.0030 O   0  0  0  0  0  0  0  0  0  0  0  0
   58.3270   28.5640   47.5080 C   0  0  0  0  0  0  0  0  0  0  0  0
   58.8080   29.8340   47.7630 C   0  0  0  0  0  0  0  0  0  0  0  0
   59.1730   30.3610   49.1170 C   0  0  0  0  0  0  0  0  0  0  0  0
   58.9610   30.5170   46.6090 N   0  0  0  0  0  0  0  0  0  0  0  0
   59.4590   31.8600   46.4940 C   0  0  0  0  0  0  0  0  0  0  0  0
   60.7750   32.1380   46.8870 C   0  0  0  0  0  0  0  0  0  0  0  0
   61.2930   33.4380   46.7820 C   0  0  0  0  0  0  0  0  0  0  0  0
   62.6790   33.7160   47.2110 C   0  0  0  0  0  0  0  0  0  0  0  0
   63.4810   34.2310   46.3840 O   0  0  0  0  0  0  0  0  0  0  0  0
   63.1270   33.4300   48.5470 N   0  0  0  0  0  0  0  0  0  0  0  0
   64.5300   33.4600   48.9230 C   0  0  0  0  0  0  0  0  0  0  0  0
   64.5590   33.1960   50.4220 C   0  0  0  0  0  0  0  0  0  0  0  0
   63.1470   33.4950   50.9180 C   0  0  0  0  0  0  0  0  0  0  0  0
   62.2440   33.3530   49.7010 C   0  0  0  0  0  0  0  0  0  0  0  0
   60.4660   34.4690   46.3150 C   0  0  0  0  0  0  0  0  0  0  0  0
   59.1540   34.1990   45.9190 C   0  0  0  0  0  0  0  0  0  0  0  0
   58.6440   32.8930   45.9860 C   0  0  0  0  0  0  0  0  0  0  0  0
   57.2270   32.6210   45.5630 C   0  0  0  0  0  0  0  0  0  0  0  0
   58.9167   31.0564   44.0140 H   0  0  0  0  0  0  0  0  0  0  0  0
   58.2225   29.3456   43.5435 H   0  0  0  0  0  0  0  0  0  0  0  0
   57.8339   27.4033   44.3515 H   0  0  0  0  0  0  0  0  0  0  0  0
   58.1152   27.7802   48.2501 H   0  0  0  0  0  0  0  0  0  0  0  0
   58.7286   29.7194   49.8922 H   0  0  0  0  0  0  0  0  0  0  0  0
   60.2675   30.3639   49.2265 H   0  0  0  0  0  0  0  0  0  0  0  0
   58.7908   31.3867   49.2265 H   0  0  0  0  0  0  0  0  0  0  0  0
   61.4080   31.3295   47.2816 H   0  0  0  0  0  0  0  0  0  0  0  0
   65.0883   32.6797   48.3850 H   0  0  0  0  0  0  0  0  0  0  0  0
   64.9981   34.4229   48.6706 H   0  0  0  0  0  0  0  0  0  0  0  0
   64.8223   32.1469   50.6222 H   0  0  0  0  0  0  0  0  0  0  0  0
   65.3098   33.8185   50.9308 H   0  0  0  0  0  0  0  0  0  0  0  0
   62.8546   32.7770   51.6984 H   0  0  0  0  0  0  0  0  0  0  0  0
   63.0765   34.4995   51.3607 H   0  0  0  0  0  0  0  0  0  0  0  0
   61.7220   32.3849   49.7211 H   0  0  0  0  0  0  0  0  0  0  0  0
   61.4708   34.1350   49.6746 H   0  0  0  0  0  0  0  0  0  0  0  0
   60.8527   35.4973   46.2600 H   0  0  0  0  0  0  0  0  0  0  0  0
   58.5156   35.0161   45.5518 H   0  0  0  0  0  0  0  0  0  0  0  0
   56.5949   32.4997   46.4551 H   0  0  0  0  0  0  0  0  0  0  0  0
   56.8554   33.4642   44.9622 H   0  0  0  0  0  0  0  0  0  0  0  0
   57.1940   31.7001   44.9622 H   0  0  0  0  0  0  0  0  0  0  0  0
  1  2  2  0
  2  3  1  0
  3  4  2  3
  4  5  1  0
  5  6  1  0
  6  7  1  0
  7  8  2  0
  7  9  1  0
  9 10  1  0
 10 11  1  0
  3 12  1  0
 12 13  2  0
 13 14  1  0
 13 15  1  0
 15 16  1  0
 16 17  2  0
 17 18  1  0
 18 19  1  0
 19 20  2  0
 19 21  1  0
 21 22  1  0
 22 23  1  0
 23 24  1  0
 24 25  1  0
 18 26  2  0
 26 27  1  0
 27 28  2  0
 28 29  1  0
 15  2  1  0
 28 16  1  0
 10  5  2  0
 25 21  1  0
  1 30  1  0
  1 31  1  0
  4 32  1  0
 12 33  1  0
 14 34  1  0
 14 35  1  0
 14 36  1  0
 17 37  1  0
 22 38  1  0
 22 39  1  0
 23 40  1  0
 23 41  1  0
 24 42  1  0
 24 43  1  0
 25 44  1  0
 25 45  1  0
 26 46  1  0
 27 47  1  0
 29 48  1  0
 29 49  1  0
 29 50  1  0
M  CHG  3   6  -1   9  -1  11  -1
M  END
>  <UniqueID>  (75) 
72

>  <SMILES>  (75) 
C=c1c(=Cc2[n-]c(=O)[n-]c2[O-])cc(C)n1-c1cc(C(=O)N2CCCC2)ccc1C

>  <Energy>  (75) 
127.20863020714681

>  <Genealogy>  (75) 
C=c1c(=Cc2[n-]c(=O)[n-]c2[O-])cc(C)n1-c1cc(C(=O)N2CCCC2)ccc1C (protonated)
C=c1c(=Cc2[n-]c(=O)[n-]c2[O-])cc(C)n1-c1cc(C(=O)N2CCCC2)ccc1C (3D coordinates assigned)
C=c1c(=Cc2[n-]c(=O)[n-]c2[O-])cc(C)n1-c1cc(C(=O)N2CCCC2)ccc1C (nonaromatic ring conformer: 127.20863020714681 kcal/mol)

>  <smiles>  (75) 
C=c1c(=Cc2[nH]c(=O)[nH]c2O)cc(C)n1-c1cc(C(=O)N2CCCC2)ccc1C

>  <score_type>  (75) 
oracle

>  <origin>  (75) 
adg

>  <m_score__min__energy>  (75) 
-16.98

>  <m_primary>  (75) 
energy

$$$$
75:0
     RDKit          3D

 37 38  0  0  0  0  0  0  0  0999 V2000
   56.5150   22.3600   48.2470 H   0  0  0  0  0  0  0  0  0  0  0  0
   53.2290   24.8130   45.5940 N   0  0  0  0  0  0  0  0  0  0  0  0
   54.4640   24.9290   45.9890 C   0  0  0  0  0  0  0  0  0  0  0  0
   55.1260   26.1130   45.9110 N   0  0  0  0  0  0  0  0  0  0  0  0
   56.4050   26.2190   46.3470 C   0  0  0  0  0  0  0  0  0  0  0  0
   57.0180   27.3600   46.2530 N   0  0  0  0  0  0  0  0  0  0  0  0
   57.8410   27.7570   45.1140 C   0  0  0  0  0  0  0  0  0  0  0  0
   58.9020   27.5924   45.3532 H   0  0  0  0  0  0  0  0  0  0  0  0
   57.5657   27.1554   44.2352 H   0  0  0  0  0  0  0  0  0  0  0  0
   57.6140   29.2160   44.8150 C   0  0  0  0  0  0  0  0  0  0  0  0
   58.7240   30.0650   44.6510 C   0  0  0  0  0  0  0  0  0  0  0  0
   59.7413   29.6551   44.7353 H   0  0  0  0  0  0  0  0  0  0  0  0
   58.5450   31.4240   44.3820 C   0  0  0  0  0  0  0  0  0  0  0  0
   59.4196   32.0777   44.2489 H   0  0  0  0  0  0  0  0  0  0  0  0
   57.2580   31.9530   44.2820 C   0  0  0  0  0  0  0  0  0  0  0  0
   57.1192   33.0226   44.0657 H   0  0  0  0  0  0  0  0  0  0  0  0
   56.1460   31.1270   44.4560 C   0  0  0  0  0  0  0  0  0  0  0  0
   55.1338   31.5508   44.3798 H   0  0  0  0  0  0  0  0  0  0  0  0
   56.3100   29.7620   44.7270 C   0  0  0  0  0  0  0  0  0  0  0  0
   55.1640   28.9850   44.9080 O   0  0  0  0  0  0  0  0  0  0  0  0
   55.1440   28.1500   45.4790 H   0  0  0  0  0  0  0  0  0  0  0  0
   57.0260   25.1310   46.8770 N   0  0  0  0  0  0  0  0  0  0  0  0
   56.3670   23.9470   46.9690 C   0  0  0  0  0  0  0  0  0  0  0  0
   56.9530   22.9120   47.4750 N   0  0  0  0  0  0  0  0  0  0  0  0
   52.5600   23.6190   45.1560 C   0  0  0  0  0  0  0  0  0  0  0  0
   52.5300   23.3690   43.9210 O   0  0  0  0  0  0  0  0  0  0  0  0
   51.8300   22.6970   46.1090 C   0  0  2  0  0  0  0  0  0  0  0  0
   51.2690   23.2962   46.8413 H   0  0  0  0  0  0  0  0  0  0  0  0
   52.8430   21.8310   46.8740 C   0  0  0  0  0  0  0  0  0  0  0  0
   52.6923   21.9599   47.9560 H   0  0  0  0  0  0  0  0  0  0  0  0
   52.6973   20.7739   46.6068 H   0  0  0  0  0  0  0  0  0  0  0  0
   53.8645   22.1393   46.6068 H   0  0  0  0  0  0  0  0  0  0  0  0
   50.8180   21.8280   45.3360 C   0  0  0  0  0  0  0  0  0  0  0  0
   49.8380   21.8950   45.8311 H   0  0  0  0  0  0  0  0  0  0  0  0
   50.7617   22.2012   44.3028 H   0  0  0  0  0  0  0  0  0  0  0  0
   51.3260   20.1190   45.2860 S   0  0  0  0  0  0  0  0  0  0  0  0
   55.0880   23.8500   46.5290 N   0  0  0  0  0  0  0  0  0  0  0  0
  1  2  1  0
  2  3  2  0
  3  4  1  0
  4  5  1  0
  5  6  2  3
  6  7  1  0
  7  8  1  0
  7  9  1  0
  7 10  1  0
 10 11  2  0
 11 12  1  0
 11 13  1  0
 13 14  1  0
 13 15  2  0
 15 16  1  0
 15 17  1  0
 17 18  1  0
 17 19  2  0
 19 20  1  0
 20 21  1  0
  5 22  1  0
 22 23  1  0
 23 24  2  0
 24 25  1  0
 25 26  2  0
 25 27  1  0
 27 28  1  1
 27 29  1  0
 29 30  1  0
 29 31  1  0
 29 32  1  0
 27 33  1  0
 33 34  1  0
 33 35  1  0
 33 36  1  0
 23 37  1  0
 37  3  1  0
 19 10  1  0
M  CHG  4   4  -1  22  -1  36  -1  37  -1
M  END
>  <UniqueID>  (76) 
73

>  <SMILES>  (76) 
[H]/N=c1\[n-]c(=NCc2ccccc2O)[n-]/c(=N\C(=O)[C@H](C)C[S-])[n-]1

>  <Energy>  (76) 
39.45150174981533

>  <Genealogy>  (76) 
CC(C[S-])C(=O)N=c1[n-]c(=N)[n-]c(=NCc2ccccc2O)[n-]1 (protonated)
C[C@H](C[S-])C(=O)N=c1[n-]c(=N)[n-]c(=NCc2ccccc2O)[n-]1 (chirality)
[H]/N=c1\[n-]c(=NCc2ccccc2O)[n-]/c(=N\C(=O)[C@H](C)C[S-])[n-]1 (cis-trans isomerization)
[H]/N=c1\[n-]c(=NCc2ccccc2O)[n-]/c(=N\C(=O)[C@H](C)C[S-])[n-]1 (3D coordinates assigned)
[H]/N=c1\[n-]c(=NCc2ccccc2O)[n-]/c(=N\C(=O)[C@H](C)C[S-])[n-]1 (optimized conformer: 39.45150174981533 kcal/mol)

>  <smiles>  (76) 
CC(CS)C(=O)N=c1[nH]c(=N)[nH]c(=NCc2ccccc2O)[nH]1

>  <score_type>  (76) 
oracle

>  <origin>  (76) 
adg

>  <m_score__min__energy>  (76) 
-14.140000000000001

>  <m_primary>  (76) 
energy

$$$$
76:0
     RDKit          3D

 54 57  0  0  0  0  0  0  0  0999 V2000
   55.4470   28.9830   44.6990 O   0  0  0  0  0  0  0  0  0  0  0  0
   56.5870   29.4780   44.9050 C   0  0  0  0  0  0  0  0  0  0  0  0
   57.7800   28.5640   44.9840 C   0  0  0  0  0  0  0  0  0  0  0  0
   57.8440   27.8810   46.3560 C   0  0  0  0  0  0  0  0  0  0  0  0
   57.5950   26.4420   46.2180 N   0  0  0  0  0  0  0  0  0  0  0  0
   56.3620   25.8910   46.0230 C   0  0  0  0  0  0  0  0  0  0  0  0
   55.2010   26.6590   45.9930 O   0  0  0  0  0  0  0  0  0  0  0  0
   56.3550   24.5070   45.8490 C   0  0  0  0  0  0  0  0  0  0  0  0
   57.9490   23.9640   45.9250 S   0  0  0  0  0  0  0  0  0  0  0  0
   58.5690   25.5030   46.1820 C   0  0  0  0  0  0  0  0  0  0  0  0
   59.7940   25.7590   46.3170 O   0  0  0  0  0  0  0  0  0  0  0  0
   56.6950   30.8770   45.2030 N   0  0  0  0  0  0  0  0  0  0  0  0
   57.8930   31.5150   45.6570 C   0  0  0  0  0  0  0  0  0  0  0  0
   58.7730   30.8190   46.4950 C   0  0  0  0  0  0  0  0  0  0  0  0
   59.9700   31.4130   46.9080 C   0  0  0  0  0  0  0  0  0  0  0  0
   60.2910   32.7160   46.4960 C   0  0  0  0  0  0  0  0  0  0  0  0
   61.5720   33.3360   46.8870 C   0  0  0  0  0  0  0  0  0  0  0  0
   62.3050   33.8230   45.9840 O   0  0  0  0  0  0  0  0  0  0  0  0
   62.0140   33.3480   48.2640 N   0  0  0  0  0  0  0  0  0  0  0  0
   61.4500   32.3800   49.2230 C   0  0  0  0  0  0  0  0  0  0  0  0
   62.2850   32.3020   50.5050 C   0  0  0  0  0  0  0  0  0  0  0  0
   63.7130   32.2750   50.1600 N   0  0  0  0  0  0  0  0  0  0  0  0
   64.6120   31.3130   50.7440 C   0  0  0  0  0  0  0  0  0  0  0  0
   66.0020   31.5170   50.7320 C   0  0  0  0  0  0  0  0  0  0  0  0
   66.8390   30.5730   51.3290 C   0  0  0  0  0  0  0  0  0  0  0  0
   66.2920   29.4470   51.9440 C   0  0  0  0  0  0  0  0  0  0  0  0
   64.9070   29.2830   51.9560 C   0  0  0  0  0  0  0  0  0  0  0  0
   64.1060   30.2110   51.3670 N   0  0  0  0  0  0  0  0  0  0  0  0
   64.2580   33.3160   49.2720 C   0  0  0  0  0  0  0  0  0  0  0  0
   63.1440   34.1930   48.6830 C   0  0  0  0  0  0  0  0  0  0  0  0
   59.3780   33.4350   45.7110 C   0  0  0  0  0  0  0  0  0  0  0  0
   58.1870   32.8380   45.2920 C   0  0  0  0  0  0  0  0  0  0  0  0
   57.6999   27.7959   44.2007 H   0  0  0  0  0  0  0  0  0  0  0  0
   58.6939   29.1589   44.8399 H   0  0  0  0  0  0  0  0  0  0  0  0
   58.8413   28.0368   46.7932 H   0  0  0  0  0  0  0  0  0  0  0  0
   57.0746   28.3171   47.0101 H   0  0  0  0  0  0  0  0  0  0  0  0
   55.1390   27.4900   45.4180 H   0  0  0  0  0  0  0  0  0  0  0  0
   55.4653   23.8799   45.6901 H   0  0  0  0  0  0  0  0  0  0  0  0
   58.5220   29.8016   46.8296 H   0  0  0  0  0  0  0  0  0  0  0  0
   60.6621   30.8573   47.5578 H   0  0  0  0  0  0  0  0  0  0  0  0
   60.4267   32.6895   49.4821 H   0  0  0  0  0  0  0  0  0  0  0  0
   61.4531   31.3868   48.7503 H   0  0  0  0  0  0  0  0  0  0  0  0
   62.0762   33.1811   51.1324 H   0  0  0  0  0  0  0  0  0  0  0  0
   62.0242   31.3867   51.0567 H   0  0  0  0  0  0  0  0  0  0  0  0
   66.4270   32.4131   50.2562 H   0  0  0  0  0  0  0  0  0  0  0  0
   67.9294   30.7170   51.3145 H   0  0  0  0  0  0  0  0  0  0  0  0
   66.9452   28.6971   52.4140 H   0  0  0  0  0  0  0  0  0  0  0  0
   64.4621   28.4023   52.4423 H   0  0  0  0  0  0  0  0  0  0  0  0
   64.9469   33.9519   49.8474 H   0  0  0  0  0  0  0  0  0  0  0  0
   64.7830   32.8211   48.4417 H   0  0  0  0  0  0  0  0  0  0  0  0
   62.8018   34.9093   49.4445 H   0  0  0  0  0  0  0  0  0  0  0  0
   63.5335   34.7379   47.8104 H   0  0  0  0  0  0  0  0  0  0  0  0
   59.6008   34.4733   45.4242 H   0  0  0  0  0  0  0  0  0  0  0  0
   57.4768   33.4067   44.6737 H   0  0  0  0  0  0  0  0  0  0  0  0
  1  2  2  0
  2  3  1  0
  3  4  1  0
  4  5  1  0
  5  6  1  0
  6  7  1  0
  6  8  2  0
  8  9  1  0
  9 10  1  0
 10 11  2  0
  2 12  1  0
 12 13  1  0
 13 14  2  0
 14 15  1  0
 15 16  2  0
 16 17  1  0
 17 18  2  0
 17 19  1  0
 19 20  1  0
 20 21  1  0
 21 22  1  0
 22 23  1  0
 23 24  2  0
 24 25  1  0
 25 26  2  0
 26 27  1  0
 27 28  2  0
 22 29  1  0
 29 30  1  0
 16 31  1  0
 31 32  2  0
 10  5  1  0
 32 13  1  0
 30 19  1  0
 28 23  1  0
  3 33  1  0
  3 34  1  0
  4 35  1  0
  4 36  1  0
  7 37  1  0
  8 38  1  0
 14 39  1  0
 15 40  1  0
 20 41  1  0
 20 42  1  0
 21 43  1  0
 21 44  1  0
 24 45  1  0
 25 46  1  0
 26 47  1  0
 27 48  1  0
 29 49  1  0
 29 50  1  0
 30 51  1  0
 30 52  1  0
 31 53  1  0
 32 54  1  0
M  CHG  1  12  -1
M  END
>  <UniqueID>  (77) 
74

>  <SMILES>  (77) 
O=C(CCn1c(O)csc1=O)[N-]c1ccc(C(=O)N2CCN(c3ccccn3)CC2)cc1

>  <Energy>  (77) 
99.7015399458438

>  <Genealogy>  (77) 
O=C(CCn1c(O)csc1=O)[N-]c1ccc(C(=O)N2CCN(c3ccccn3)CC2)cc1 (protonated)
O=C(CCn1c(O)csc1=O)[N-]c1ccc(C(=O)N2CCN(c3ccccn3)CC2)cc1 (3D coordinates assigned)
O=C(CCn1c(O)csc1=O)[N-]c1ccc(C(=O)N2CCN(c3ccccn3)CC2)cc1 (nonaromatic ring conformer: 99.7015399458438 kcal/mol)

>  <smiles>  (77) 
O=C(CCn1c(O)csc1=O)Nc1ccc(C(=O)N2CCN(c3ccccn3)CC2)cc1

>  <score_type>  (77) 
oracle

>  <origin>  (77) 
adg

>  <m_score__min__energy>  (77) 
-11.42

>  <m_primary>  (77) 
energy

$$$$
77:0
     RDKit          3D

 40 43  0  0  0  0  0  0  0  0999 V2000
   55.3750   28.6440   45.6090 H   0  0  0  0  0  0  0  0  0  0  0  0
   55.1330   29.3520   44.8780 N   0  0  0  0  0  0  0  0  0  0  0  0
   56.5650   29.6340   43.9540 S   0  0  0  0  0  0  0  0  0  0  0  0
   57.3480   28.3560   43.8380 O   0  0  0  0  0  0  0  0  0  0  0  0
   56.1890   30.0950   42.5750 O   0  0  0  0  0  0  0  0  0  0  0  0
   57.5410   30.8660   44.7480 C   0  0  0  0  0  0  0  0  0  0  0  0
   57.4220   32.2070   44.3640 C   0  0  0  0  0  0  0  0  0  0  0  0
   56.7356   32.4856   43.5509 H   0  0  0  0  0  0  0  0  0  0  0  0
   58.1720   33.1920   45.0100 C   0  0  0  0  0  0  0  0  0  0  0  0
   58.0831   34.2421   44.6949 H   0  0  0  0  0  0  0  0  0  0  0  0
   59.0360   32.8500   46.0560 C   0  0  0  0  0  0  0  0  0  0  0  0
   59.9890   34.1260   46.8070 Cl  0  0  0  0  0  0  0  0  0  0  0  0
   59.1470   31.5030   46.4640 C   0  0  0  0  0  0  0  0  0  0  0  0
   60.0180   31.1040   47.5900 C   0  0  0  0  0  0  0  0  0  0  0  0
   61.1230   31.6890   47.7410 O   0  0  0  0  0  0  0  0  0  0  0  0
   59.6450   30.0770   48.5230 N   0  0  0  0  0  0  0  0  0  0  0  0
   59.5910   28.8050   48.2610 C   0  0  0  0  0  0  0  0  0  0  0  0
   58.7950   28.2650   47.3650 O   0  0  0  0  0  0  0  0  0  0  0  0
   59.0330   26.9750   47.3880 C   0  0  0  0  0  0  0  0  0  0  0  0
   58.3610   26.0240   46.5530 N   0  0  0  0  0  0  0  0  0  0  0  0
   58.9560   24.9040   45.8930 C   0  0  0  0  0  0  0  0  0  0  0  0
   60.1740   24.5950   45.9740 O   0  0  0  0  0  0  0  0  0  0  0  0
   57.9470   24.1820   45.1270 C   0  0  0  0  0  0  0  0  0  0  0  0
   58.0510   23.0420   44.3330 C   0  0  0  0  0  0  0  0  0  0  0  0
   59.0154   22.5295   44.2012 H   0  0  0  0  0  0  0  0  0  0  0  0
   56.8860   22.5660   43.7050 C   0  0  0  0  0  0  0  0  0  0  0  0
   56.9349   21.6680   43.0716 H   0  0  0  0  0  0  0  0  0  0  0  0
   55.6540   23.2330   43.8820 C   0  0  0  0  0  0  0  0  0  0  0  0
   54.7498   22.8509   43.3856 H   0  0  0  0  0  0  0  0  0  0  0  0
   55.5750   24.3830   44.6890 C   0  0  0  0  0  0  0  0  0  0  0  0
   54.6202   24.9099   44.8333 H   0  0  0  0  0  0  0  0  0  0  0  0
   56.7440   24.8340   45.3000 C   0  0  0  0  0  0  0  0  0  0  0  0
   56.9790   25.9750   46.1780 C   0  0  0  0  0  0  0  0  0  0  0  0
   56.1050   26.8010   46.5530 O   0  0  0  0  0  0  0  0  0  0  0  0
   60.0130   26.7170   48.3290 C   0  0  0  0  0  0  0  0  0  0  0  0
   60.4287   25.7304   48.5816 H   0  0  0  0  0  0  0  0  0  0  0  0
   60.3650   27.8930   48.8790 N   0  0  0  0  0  0  0  0  0  0  0  0
   61.0800   28.0570   49.6220 H   0  0  0  0  0  0  0  0  0  0  0  0
   58.4050   30.5170   45.7940 C   0  0  0  0  0  0  0  0  0  0  0  0
   58.5029   29.4629   46.0927 H   0  0  0  0  0  0  0  0  0  0  0  0
  1  2  1  0
  2  3  1  0
  3  4  2  0
  3  5  2  0
  3  6  1  0
  6  7  2  0
  7  8  1  0
  7  9  1  0
  9 10  1  0
  9 11  2  0
 11 12  1  0
 11 13  1  0
 13 14  1  0
 14 15  2  0
 14 16  1  0
 16 17  2  0
 17 18  1  0
 18 19  1  0
 19 20  1  0
 20 21  1  0
 21 22  2  0
 21 23  1  0
 23 24  2  0
 24 25  1  0
 24 26  1  0
 26 27  1  0
 26 28  2  0
 28 29  1  0
 28 30  1  0
 30 31  1  0
 30 32  2  0
 32 33  1  0
 33 34  2  0
 19 35  2  0
 35 36  1  0
 35 37  1  0
 37 38  1  0
 13 39  2  0
 39 40  1  0
 39  6  1  0
 37 17  1  0
 33 20  1  0
 32 23  1  0
M  CHG  1   2  -1
M  END
>  <UniqueID>  (78) 
75

>  <SMILES>  (78) 
[NH-]S(=O)(=O)c1ccc(Cl)c(C(=O)/N=c2/[nH]cc(N3C(=O)c4ccccc4C3=O)o2)c1

>  <Energy>  (78) 
116.94200349146286

>  <Genealogy>  (78) 
[NH-]S(=O)(=O)c1ccc(Cl)c(C(=O)N=c2[nH]cc(N3C(=O)c4ccccc4C3=O)o2)c1 (protonated)
[NH-]S(=O)(=O)c1ccc(Cl)c(C(=O)/N=c2/[nH]cc(N3C(=O)c4ccccc4C3=O)o2)c1 (cis-trans isomerization)
[NH-]S(=O)(=O)c1ccc(Cl)c(C(=O)/N=c2/[nH]cc(N3C(=O)c4ccccc4C3=O)o2)c1 (3D coordinates assigned)
[NH-]S(=O)(=O)c1ccc(Cl)c(C(=O)/N=c2/[nH]cc(N3C(=O)c4ccccc4C3=O)o2)c1 (nonaromatic ring conformer: 116.94200349146286 kcal/mol)

>  <smiles>  (78) 
NS(=O)(=O)c1ccc(Cl)c(C(=O)N=c2[nH]cc(N3C(=O)c4ccccc4C3=O)o2)c1

>  <score_type>  (78) 
oracle

>  <origin>  (78) 
adg

>  <m_score__min__energy>  (78) 
-11.74

>  <m_primary>  (78) 
energy

$$$$
78:0
     RDKit          3D

 48 50  0  0  0  0  0  0  0  0999 V2000
   57.5370   27.7490   45.0930 C   0  0  0  0  0  0  0  0  0  0  0  0
   56.4000   28.6400   45.2990 N   0  0  0  0  0  0  0  0  0  0  0  0
   56.2470   29.7190   43.9460 S   0  0  0  0  0  0  0  0  0  0  0  0
   54.7940   30.0500   43.7360 O   0  0  0  0  0  0  0  0  0  0  0  0
   56.7740   29.0440   42.7130 O   0  0  0  0  0  0  0  0  0  0  0  0
   57.1740   31.1890   44.2330 C   0  0  0  0  0  0  0  0  0  0  0  0
   57.6790   31.9370   43.1640 C   0  0  0  0  0  0  0  0  0  0  0  0
   58.4160   33.0980   43.4030 C   0  0  0  0  0  0  0  0  0  0  0  0
   58.6680   33.5240   44.7160 C   0  0  0  0  0  0  0  0  0  0  0  0
   58.1400   32.7840   45.8010 C   0  0  0  0  0  0  0  0  0  0  0  0
   57.4140   31.6110   45.5470 C   0  0  0  0  0  0  0  0  0  0  0  0
   58.4250   33.1650   47.2350 C   0  0  0  0  0  0  0  0  0  0  0  0
   58.9050   34.6140   47.3820 C   0  0  0  0  0  0  0  0  0  0  0  0
   59.9890   34.9530   46.3460 C   0  0  1  0  0  0  0  0  0  0  0  0
   61.1480   34.0670   46.4820 N   0  0  0  0  0  0  0  0  0  0  0  0
   61.5130   33.3310   47.6580 C   0  0  0  0  0  0  0  0  0  0  0  0
   62.2410   33.8900   48.5190 O   0  0  0  0  0  0  0  0  0  0  0  0
   61.0800   31.9390   47.8820 C   0  0  0  0  0  0  0  0  0  0  0  0
   60.7340   31.5130   49.1730 C   0  0  0  0  0  0  0  0  0  0  0  0
   60.3170   30.1980   49.3940 C   0  0  0  0  0  0  0  0  0  0  0  0
   60.2440   29.2900   48.3320 C   0  0  0  0  0  0  0  0  0  0  0  0
   59.7890   27.9550   48.5910 N   0  0  0  0  0  0  0  0  0  0  0  0
   59.7790   26.8600   47.6650 C   0  0  0  0  0  0  0  0  0  0  0  0
   58.5700   25.9970   47.4660 C   0  0  0  0  0  0  0  0  0  0  0  0
   60.8070   26.6370   46.9750 O   0  0  0  0  0  0  0  0  0  0  0  0
   60.5370   29.7290   47.0300 C   0  0  0  0  0  0  0  0  0  0  0  0
   60.9530   31.0450   46.8080 C   0  0  0  0  0  0  0  0  0  0  0  0
   59.4080   34.8240   44.9320 C   0  0  0  0  0  0  0  0  0  0  0  0
   57.9380   27.4348   46.0679 H   0  0  0  0  0  0  0  0  0  0  0  0
   57.2111   26.8633   44.5279 H   0  0  0  0  0  0  0  0  0  0  0  0
   58.3191   28.2772   44.5279 H   0  0  0  0  0  0  0  0  0  0  0  0
   57.4944   31.6087   42.1305 H   0  0  0  0  0  0  0  0  0  0  0  0
   58.8022   33.6835   42.5556 H   0  0  0  0  0  0  0  0  0  0  0  0
   57.0291   31.0162   46.3885 H   0  0  0  0  0  0  0  0  0  0  0  0
   57.5031   33.0392   47.8217 H   0  0  0  0  0  0  0  0  0  0  0  0
   59.2321   32.5110   47.5967 H   0  0  0  0  0  0  0  0  0  0  0  0
   58.0496   35.2907   47.2396 H   0  0  0  0  0  0  0  0  0  0  0  0
   59.3358   34.7360   48.3868 H   0  0  0  0  0  0  0  0  0  0  0  0
   60.3218   35.9865   46.5221 H   0  0  0  0  0  0  0  0  0  0  0  0
   60.7913   32.2178   50.0156 H   0  0  0  0  0  0  0  0  0  0  0  0
   60.0443   29.8745   50.4094 H   0  0  0  0  0  0  0  0  0  0  0  0
   58.1621   25.7059   48.4452 H   0  0  0  0  0  0  0  0  0  0  0  0
   57.8084   26.5569   46.9034 H   0  0  0  0  0  0  0  0  0  0  0  0
   58.8521   25.0948   46.9034 H   0  0  0  0  0  0  0  0  0  0  0  0
   60.4387   29.0348   46.1824 H   0  0  0  0  0  0  0  0  0  0  0  0
   61.1820   31.3814   45.7860 H   0  0  0  0  0  0  0  0  0  0  0  0
   58.7104   35.6573   44.7619 H   0  0  0  0  0  0  0  0  0  0  0  0
   60.2511   34.8449   44.2258 H   0  0  0  0  0  0  0  0  0  0  0  0
  1  2  1  0
  2  3  1  0
  3  4  2  0
  3  5  2  0
  3  6  1  0
  6  7  2  0
  7  8  1  0
  8  9  2  0
  9 10  1  0
 10 11  2  0
 10 12  1  0
 12 13  1  0
 13 14  1  0
 14 15  1  0
 15 16  1  0
 16 17  2  0
 16 18  1  0
 18 19  2  0
 19 20  1  0
 20 21  2  0
 21 22  1  0
 22 23  1  0
 23 24  1  0
 23 25  2  0
 21 26  1  0
 26 27  2  0
 14 28  1  0
 11  6  1  0
 27 18  1  0
 28  9  1  0
  1 29  1  0
  1 30  1  0
  1 31  1  0
  7 32  1  0
  8 33  1  0
 11 34  1  0
 12 35  1  0
 12 36  1  0
 13 37  1  0
 13 38  1  0
 14 39  1  1
 19 40  1  0
 20 41  1  0
 24 42  1  0
 24 43  1  0
 24 44  1  0
 26 45  1  0
 27 46  1  0
 28 47  1  0
 28 48  1  0
M  CHG  3   2  -1  15  -1  22  -1
M  END
>  <UniqueID>  (79) 
76

>  <SMILES>  (79) 
C[N-]S(=O)(=O)c1ccc2c(c1)CC[C@@H]([N-]C(=O)c1ccc([N-]C(C)=O)cc1)C2

>  <Energy>  (79) 
54.78410404683501

>  <Genealogy>  (79) 
C[N-]S(=O)(=O)c1ccc2c(c1)CCC([N-]C(=O)c1ccc([N-]C(C)=O)cc1)C2 (protonated)
C[N-]S(=O)(=O)c1ccc2c(c1)CC[C@@H]([N-]C(=O)c1ccc([N-]C(C)=O)cc1)C2 (chirality)
C[N-]S(=O)(=O)c1ccc2c(c1)CC[C@@H]([N-]C(=O)c1ccc([N-]C(C)=O)cc1)C2 (3D coordinates assigned)
C[N-]S(=O)(=O)c1ccc2c(c1)CC[C@@H]([N-]C(=O)c1ccc([N-]C(C)=O)cc1)C2 (nonaromatic ring conformer: 54.78410404683501 kcal/mol)

>  <smiles>  (79) 
CNS(=O)(=O)c1ccc2c(c1)CCC(NC(=O)c1ccc(NC(C)=O)cc1)C2

>  <score_type>  (79) 
oracle

>  <origin>  (79) 
adg

>  <m_score__min__energy>  (79) 
-12.32

>  <m_primary>  (79) 
energy

$$$$
79:0
     RDKit          3D

 35 37  0  0  0  0  0  0  0  0999 V2000
   59.0279   30.4371   49.0885 H   0  0  0  0  0  0  0  0  0  0  0  0
   58.8890   29.7510   48.2400 C   0  0  0  0  0  0  0  0  0  0  0  0
   58.9631   28.6643   48.3935 H   0  0  0  0  0  0  0  0  0  0  0  0
   58.6290   30.2400   47.0170 C   0  0  0  0  0  0  0  0  0  0  0  0
   58.4310   29.4870   45.8540 C   0  0  0  0  0  0  0  0  0  0  0  0
   58.5230   28.1490   45.7220 C   0  0  0  0  0  0  0  0  0  0  0  0
   59.5008   27.7228   45.4531 H   0  0  0  0  0  0  0  0  0  0  0  0
   57.3930   27.2210   45.9160 C   0  0  0  0  0  0  0  0  0  0  0  0
   57.5090   26.0400   46.5470 N   0  0  0  0  0  0  0  0  0  0  0  0
   56.2420   25.5730   46.5740 C   0  0  0  0  0  0  0  0  0  0  0  0
   55.9400   24.4620   47.0830 O   0  0  0  0  0  0  0  0  0  0  0  0
   55.3230   26.3940   46.0240 N   0  0  0  0  0  0  0  0  0  0  0  0
   56.0640   27.4390   45.6230 C   0  0  0  0  0  0  0  0  0  0  0  0
   55.5290   28.5840   45.0460 O   0  0  0  0  0  0  0  0  0  0  0  0
   58.1720   30.3960   44.8400 C   0  0  0  0  0  0  0  0  0  0  0  0
   57.9765   30.1626   43.7830 H   0  0  0  0  0  0  0  0  0  0  0  0
   58.2070   31.6510   45.4140 C   0  0  0  0  0  0  0  0  0  0  0  0
   57.9930   32.9300   44.6630 C   0  0  0  0  0  0  0  0  0  0  0  0
   57.8549   33.7556   45.3767 H   0  0  0  0  0  0  0  0  0  0  0  0
   58.8694   33.1349   44.0305 H   0  0  0  0  0  0  0  0  0  0  0  0
   57.0977   32.8384   44.0305 H   0  0  0  0  0  0  0  0  0  0  0  0
   58.4980   31.5640   46.7330 N   0  0  0  0  0  0  0  0  0  0  0  0
   58.5790   32.6940   47.6710 C   0  0  0  0  0  0  0  0  0  0  0  0
   57.9425   33.5142   47.3075 H   0  0  0  0  0  0  0  0  0  0  0  0
   58.2356   32.3627   48.6621 H   0  0  0  0  0  0  0  0  0  0  0  0
   59.9920   33.1760   47.7800 C   0  0  0  0  0  0  0  0  0  0  0  0
   60.9540   32.8930   46.8840 N   0  0  0  0  0  0  0  0  0  0  0  0
   62.0520   33.4780   47.4080 C   0  0  0  0  0  0  0  0  0  0  0  0
   63.3770   33.4760   46.7230 C   0  0  0  0  0  0  0  0  0  0  0  0
   64.1790   33.4748   47.4759 H   0  0  0  0  0  0  0  0  0  0  0  0
   63.4632   32.5777   46.0940 H   0  0  0  0  0  0  0  0  0  0  0  0
   63.4659   34.3740   46.0940 H   0  0  0  0  0  0  0  0  0  0  0  0
   61.8280   34.1210   48.5740 N   0  0  0  0  0  0  0  0  0  0  0  0
   60.5210   33.9160   48.8100 C   0  0  0  0  0  0  0  0  0  0  0  0
   59.9647   34.2814   49.6858 H   0  0  0  0  0  0  0  0  0  0  0  0
  1  2  1  0
  2  3  1  0
  2  4  2  0
  4  5  1  0
  5  6  2  0
  6  7  1  0
  6  8  1  0
  8  9  1  0
  9 10  1  0
 10 11  2  0
 10 12  1  0
 12 13  1  0
 13 14  1  0
  5 15  1  0
 15 16  1  0
 15 17  2  0
 17 18  1  0
 18 19  1  0
 18 20  1  0
 18 21  1  0
 17 22  1  0
 22 23  1  0
 23 24  1  0
 23 25  1  0
 23 26  1  0
 26 27  1  0
 27 28  2  0
 28 29  1  0
 29 30  1  0
 29 31  1  0
 29 32  1  0
 28 33  1  0
 33 34  1  0
 34 35  1  0
 22  4  1  0
 34 26  2  0
 13  8  2  0
M  CHG  4   9  -1  12  -1  14  -1  33  -1
M  END
>  <UniqueID>  (80) 
77

>  <SMILES>  (80) 
C=c1/c(=C/c2[n-]c(=O)[n-]c2[O-])cc(C)n1Cc1c[n-]c(C)n1

>  <Energy>  (80) 
125.96117634493947

>  <Genealogy>  (80) 
C=c1c(=Cc2[n-]c(=O)[n-]c2[O-])cc(C)n1Cc1c[n-]c(C)n1 (protonated)
C=c1/c(=C/c2[n-]c(=O)[n-]c2[O-])cc(C)n1Cc1c[n-]c(C)n1 (cis-trans isomerization)
C=c1/c(=C/c2[n-]c(=O)[n-]c2[O-])cc(C)n1Cc1c[n-]c(C)n1 (3D coordinates assigned)
C=c1/c(=C/c2[n-]c(=O)[n-]c2[O-])cc(C)n1Cc1c[n-]c(C)n1 (optimized conformer: 125.96117634493947 kcal/mol)

>  <smiles>  (80) 
C=c1c(=Cc2[nH]c(=O)[nH]c2O)cc(C)n1Cc1c[nH]c(C)n1

>  <score_type>  (80) 
oracle

>  <origin>  (80) 
adg

>  <m_score__min__energy>  (80) 
-16.289999999999999

>  <m_primary>  (80) 
energy

$$$$
80:0
     RDKit          3D

 51 53  0  0  0  0  0  0  0  0999 V2000
   60.0810   27.1190   46.7170 C   0  0  0  0  0  0  0  0  0  0  0  0
   59.1570   27.9280   46.1770 C   0  0  0  0  0  0  0  0  0  0  0  0
   58.1820   27.5810   45.2280 C   0  0  0  0  0  0  0  0  0  0  0  0
   57.7610   26.3790   44.7910 C   0  0  0  0  0  0  0  0  0  0  0  0
   57.1380   25.3370   45.6240 C   0  0  0  0  0  0  0  0  0  0  0  0
   57.7710   24.2420   46.0810 N   0  0  0  0  0  0  0  0  0  0  0  0
   56.8560   23.6710   46.8950 C   0  0  0  0  0  0  0  0  0  0  0  0
   57.0720   22.5950   47.5080 O   0  0  0  0  0  0  0  0  0  0  0  0
   55.6940   24.3490   47.0060 N   0  0  0  0  0  0  0  0  0  0  0  0
   55.8950   25.4090   46.2060 C   0  0  0  0  0  0  0  0  0  0  0  0
   54.9680   26.4270   46.0160 O   0  0  0  0  0  0  0  0  0  0  0  0
   57.6500   28.7750   44.7650 C   0  0  0  0  0  0  0  0  0  0  0  0
   58.2470   29.7860   45.4880 C   0  0  0  0  0  0  0  0  0  0  0  0
   57.9520   31.2450   45.3110 C   0  0  0  0  0  0  0  0  0  0  0  0
   59.1600   29.2760   46.3460 N   0  0  0  0  0  0  0  0  0  0  0  0
   60.0030   30.0370   47.2290 C   0  0  0  0  0  0  0  0  0  0  0  0
   60.4210   29.4880   48.4490 C   0  0  0  0  0  0  0  0  0  0  0  0
   61.2260   30.2320   49.3150 C   0  0  0  0  0  0  0  0  0  0  0  0
   61.6250   31.5240   48.9640 C   0  0  0  0  0  0  0  0  0  0  0  0
   61.2350   32.0760   47.7350 C   0  0  0  0  0  0  0  0  0  0  0  0
   61.7080   33.7250   47.3010 S   0  0  0  0  0  0  0  0  0  0  0  0
   62.6500   34.2350   48.3550 O   0  0  0  0  0  0  0  0  0  0  0  0
   62.4710   33.6820   46.0050 O   0  0  0  0  0  0  0  0  0  0  0  0
   60.3580   34.8420   47.1550 N   0  0  0  0  0  0  0  0  0  0  0  0
   59.9420   35.0690   45.7510 C   0  0  0  0  0  0  0  0  0  0  0  0
   58.5650   34.4920   45.4000 C   0  0  0  0  0  0  0  0  0  0  0  0
   59.2310   34.5320   48.0550 C   0  0  0  0  0  0  0  0  0  0  0  0
   59.7190   34.2820   49.4790 C   0  0  0  0  0  0  0  0  0  0  0  0
   60.4060   31.3350   46.8800 C   0  0  0  0  0  0  0  0  0  0  0  0
   60.7939   27.5142   47.4556 H   0  0  0  0  0  0  0  0  0  0  0  0
   60.1257   26.0605   46.4212 H   0  0  0  0  0  0  0  0  0  0  0  0
   57.8937   26.1569   43.7219 H   0  0  0  0  0  0  0  0  0  0  0  0
   54.0260   26.3410   46.3760 H   0  0  0  0  0  0  0  0  0  0  0  0
   56.8961   28.8930   43.9727 H   0  0  0  0  0  0  0  0  0  0  0  0
   57.8556   31.7219   46.2975 H   0  0  0  0  0  0  0  0  0  0  0  0
   58.7723   31.7199   44.7528 H   0  0  0  0  0  0  0  0  0  0  0  0
   57.0116   31.3639   44.7528 H   0  0  0  0  0  0  0  0  0  0  0  0
   60.1143   28.4684   48.7253 H   0  0  0  0  0  0  0  0  0  0  0  0
   61.5461   29.7999   50.2746 H   0  0  0  0  0  0  0  0  0  0  0  0
   62.2480   32.1112   49.6548 H   0  0  0  0  0  0  0  0  0  0  0  0
   59.9174   36.1537   45.5700 H   0  0  0  0  0  0  0  0  0  0  0  0
   60.6736   34.5465   45.1171 H   0  0  0  0  0  0  0  0  0  0  0  0
   58.0169   34.2623   46.3257 H   0  0  0  0  0  0  0  0  0  0  0  0
   57.9981   35.2283   44.8113 H   0  0  0  0  0  0  0  0  0  0  0  0
   58.6924   33.5716   44.8113 H   0  0  0  0  0  0  0  0  0  0  0  0
   58.5304   35.3800   48.0588 H   0  0  0  0  0  0  0  0  0  0  0  0
   58.7330   33.6212   47.6910 H   0  0  0  0  0  0  0  0  0  0  0  0
   58.9749   34.6632   50.1938 H   0  0  0  0  0  0  0  0  0  0  0  0
   59.8574   33.2019   49.6348 H   0  0  0  0  0  0  0  0  0  0  0  0
   60.6765   34.8006   49.6348 H   0  0  0  0  0  0  0  0  0  0  0  0
   60.0695   31.7744   45.9294 H   0  0  0  0  0  0  0  0  0  0  0  0
  1  2  2  0
  2  3  1  0
  3  4  2  3
  4  5  1  0
  5  6  1  0
  6  7  1  0
  7  8  2  0
  7  9  1  0
  9 10  1  0
 10 11  1  0
  3 12  1  0
 12 13  2  0
 13 14  1  0
 13 15  1  0
 15 16  1  0
 16 17  2  0
 17 18  1  0
 18 19  2  0
 19 20  1  0
 20 21  1  0
 21 22  2  0
 21 23  2  0
 21 24  1  0
 24 25  1  0
 25 26  1  0
 24 27  1  0
 27 28  1  0
 20 29  2  0
 15  2  1  0
 29 16  1  0
 10  5  2  0
  1 30  1  0
  1 31  1  0
  4 32  1  0
 11 33  1  0
 12 34  1  0
 14 35  1  0
 14 36  1  0
 14 37  1  0
 17 38  1  0
 18 39  1  0
 19 40  1  0
 25 41  1  0
 25 42  1  0
 26 43  1  0
 26 44  1  0
 26 45  1  0
 27 46  1  0
 27 47  1  0
 28 48  1  0
 28 49  1  0
 28 50  1  0
 29 51  1  0
M  CHG  2   6  -1   9  -1
M  END
>  <UniqueID>  (81) 
78

>  <SMILES>  (81) 
C=c1c(=Cc2[n-]c(=O)[n-]c2O)cc(C)n1-c1cccc(S(=O)(=O)N(CC)CC)c1

>  <Energy>  (81) 
126.85438241656142

>  <Genealogy>  (81) 
C=c1c(=Cc2[n-]c(=O)[n-]c2O)cc(C)n1-c1cccc(S(=O)(=O)N(CC)CC)c1 (protonated)
C=c1c(=Cc2[n-]c(=O)[n-]c2O)cc(C)n1-c1cccc(S(=O)(=O)N(CC)CC)c1 (3D coordinates assigned)
C=c1c(=Cc2[n-]c(=O)[n-]c2O)cc(C)n1-c1cccc(S(=O)(=O)N(CC)CC)c1 (optimized conformer: 126.85438241656142 kcal/mol)

>  <smiles>  (81) 
C=c1c(=Cc2[nH]c(=O)[nH]c2O)cc(C)n1-c1cccc(S(=O)(=O)N(CC)CC)c1

>  <score_type>  (81) 
oracle

>  <origin>  (81) 
adg

>  <m_score__min__energy>  (81) 
-14.050000000000001

>  <m_primary>  (81) 
energy

$$$$
81:0
     RDKit          3D

 42 44  0  0  0  0  0  0  0  0999 V2000
   62.1960   33.8620   51.5760 C   0  0  0  0  0  0  0  0  0  0  0  0
   62.3040   33.7350   50.1240 N   0  0  0  0  0  0  0  0  0  0  0  0
   63.4250   33.5520   49.3840 C   0  0  0  0  0  0  0  0  0  0  0  0
   64.5860   33.5170   49.8770 O   0  0  0  0  0  0  0  0  0  0  0  0
   63.1690   33.3880   48.0630 N   0  0  0  0  0  0  0  0  0  0  0  0
   64.1210   33.0930   46.9960 C   0  0  0  0  0  0  0  0  0  0  0  0
   61.8230   33.4360   47.9800 C   0  0  0  0  0  0  0  0  0  0  0  0
   61.0100   33.2520   46.8620 C   0  0  0  0  0  0  0  0  0  0  0  0
   59.6070   33.3130   47.0440 C   0  0  0  0  0  0  0  0  0  0  0  0
   58.7000   33.1140   45.9460 N   0  0  0  0  0  0  0  0  0  0  0  0
   57.9510   31.9080   45.7180 C   0  0  0  0  0  0  0  0  0  0  0  0
   58.0850   30.9100   46.4770 O   0  0  0  0  0  0  0  0  0  0  0  0
   57.0260   31.8090   44.5400 C   0  0  0  0  0  0  0  0  0  0  0  0
   56.9630   30.4360   44.0430 N   0  0  0  0  0  0  0  0  0  0  0  0
   56.3670   29.3300   44.7340 C   0  0  0  0  0  0  0  0  0  0  0  0
   55.1280   29.3410   44.9500 O   0  0  0  0  0  0  0  0  0  0  0  0
   57.1700   28.2030   45.2390 C   0  0  0  0  0  0  0  0  0  0  0  0
   58.5680   28.2560   45.1410 C   0  0  0  0  0  0  0  0  0  0  0  0
   59.3480   27.1940   45.6050 C   0  0  0  0  0  0  0  0  0  0  0  0
   58.7380   26.0770   46.1820 C   0  0  0  0  0  0  0  0  0  0  0  0
   57.3460   26.0220   46.2960 C   0  0  0  0  0  0  0  0  0  0  0  0
   56.5600   27.0850   45.8380 C   0  0  0  0  0  0  0  0  0  0  0  0
   55.1790   27.0300   45.9970 O   0  0  0  0  0  0  0  0  0  0  0  0
   59.0770   33.5060   48.3450 C   0  0  0  0  0  0  0  0  0  0  0  0
   59.9240   33.6780   49.4530 C   0  0  0  0  0  0  0  0  0  0  0  0
   61.3010   33.6480   49.2290 C   0  0  0  0  0  0  0  0  0  0  0  0
   62.8364   33.1090   52.0586 H   0  0  0  0  0  0  0  0  0  0  0  0
   62.5194   34.8681   51.8811 H   0  0  0  0  0  0  0  0  0  0  0  0
   61.1510   33.7045   51.8811 H   0  0  0  0  0  0  0  0  0  0  0  0
   65.0840   32.7946   47.4360 H   0  0  0  0  0  0  0  0  0  0  0  0
   63.7323   32.2732   46.3741 H   0  0  0  0  0  0  0  0  0  0  0  0
   64.2640   33.9890   46.3741 H   0  0  0  0  0  0  0  0  0  0  0  0
   61.4452   33.0652   45.8692 H   0  0  0  0  0  0  0  0  0  0  0  0
   58.6670   33.8550   45.2080 H   0  0  0  0  0  0  0  0  0  0  0  0
   56.0186   32.1287   44.8448 H   0  0  0  0  0  0  0  0  0  0  0  0
   57.4072   32.4572   43.7372 H   0  0  0  0  0  0  0  0  0  0  0  0
   59.0526   29.1379   44.6967 H   0  0  0  0  0  0  0  0  0  0  0  0
   60.4436   27.2371   45.5161 H   0  0  0  0  0  0  0  0  0  0  0  0
   59.3532   25.2411   46.5464 H   0  0  0  0  0  0  0  0  0  0  0  0
   56.8671   25.1404   46.7471 H   0  0  0  0  0  0  0  0  0  0  0  0
   57.9866   33.5213   48.4890 H   0  0  0  0  0  0  0  0  0  0  0  0
   59.5154   33.8311   50.4627 H   0  0  0  0  0  0  0  0  0  0  0  0
  1  2  1  0
  2  3  1  0
  3  4  2  0
  3  5  1  0
  5  6  1  0
  5  7  1  0
  7  8  2  0
  8  9  1  0
  9 10  1  0
 10 11  1  0
 11 12  2  0
 11 13  1  0
 13 14  1  0
 14 15  1  0
 15 16  2  0
 15 17  1  0
 17 18  2  0
 18 19  1  0
 19 20  2  0
 20 21  1  0
 21 22  2  0
 22 23  1  0
  9 24  2  0
 24 25  1  0
 25 26  2  0
 26  2  1  0
 26  7  1  0
 22 17  1  0
  1 27  1  0
  1 28  1  0
  1 29  1  0
  6 30  1  0
  6 31  1  0
  6 32  1  0
  8 33  1  0
 10 34  1  0
 13 35  1  0
 13 36  1  0
 18 37  1  0
 19 38  1  0
 20 39  1  0
 21 40  1  0
 24 41  1  0
 25 42  1  0
M  CHG  2  14  -1  23  -1
M  END
>  <UniqueID>  (82) 
79

>  <SMILES>  (82) 
Cn1c(=O)n(C)c2cc(NC(=O)C[N-]C(=O)c3ccccc3[O-])ccc21

>  <Energy>  (82) 
90.07522231300993

>  <Genealogy>  (82) 
Cn1c(=O)n(C)c2cc(NC(=O)C[N-]C(=O)c3ccccc3[O-])ccc21 (protonated)
Cn1c(=O)n(C)c2cc(NC(=O)C[N-]C(=O)c3ccccc3[O-])ccc21 (3D coordinates assigned)
Cn1c(=O)n(C)c2cc(NC(=O)C[N-]C(=O)c3ccccc3[O-])ccc21 (optimized conformer: 90.07522231300993 kcal/mol)

>  <smiles>  (82) 
Cn1c(=O)n(C)c2cc(NC(=O)CNC(=O)c3ccccc3O)ccc21

>  <score_type>  (82) 
oracle

>  <origin>  (82) 
adg

>  <m_score__min__energy>  (82) 
-13.199999999999999

>  <m_primary>  (82) 
energy

$$$$
82:0
     RDKit          3D

 40 42  0  0  0  0  0  0  0  0999 V2000
   59.2480   32.9890   49.3830 C   0  0  0  0  0  0  0  0  0  0  0  0
   58.1540   32.1900   48.1650 S   0  0  0  0  0  0  0  0  0  0  0  0
   58.5610   33.3540   46.8550 C   0  0  0  0  0  0  0  0  0  0  0  0
   59.6660   34.2010   47.0160 C   0  0  0  0  0  0  0  0  0  0  0  0
   60.0000   35.1230   46.0190 C   0  0  0  0  0  0  0  0  0  0  0  0
   59.2300   35.2050   44.8610 C   0  0  0  0  0  0  0  0  0  0  0  0
   58.1290   34.3620   44.6900 C   0  0  0  0  0  0  0  0  0  0  0  0
   57.7860   33.4250   45.6810 C   0  0  0  0  0  0  0  0  0  0  0  0
   56.6680   32.5370   45.5220 N   0  0  0  0  0  0  0  0  0  0  0  0
   56.6600   31.1150   44.5310 S   0  0  0  0  0  0  0  0  0  0  0  0
   55.2370   30.7660   44.1940 O   0  0  0  0  0  0  0  0  0  0  0  0
   57.4090   31.3960   43.2590 O   0  0  0  0  0  0  0  0  0  0  0  0
   57.4630   29.7960   45.3880 C   0  0  0  0  0  0  0  0  0  0  0  0
   58.7790   29.9830   45.8310 C   0  0  0  0  0  0  0  0  0  0  0  0
   59.4510   28.9660   46.5220 C   0  0  0  0  0  0  0  0  0  0  0  0
   60.8200   29.2130   47.0200 C   0  0  0  0  0  0  0  0  0  0  0  0
   61.1440   29.9800   48.0870 C   0  0  0  0  0  0  0  0  0  0  0  0
   61.9090   31.2570   47.9880 C   0  0  0  0  0  0  0  0  0  0  0  0
   62.1390   31.8010   46.8750 O   0  0  0  0  0  0  0  0  0  0  0  0
   62.3410   31.9230   49.1770 N   0  0  0  0  0  0  0  0  0  0  0  0
   61.9590   31.4570   50.4700 C   0  0  0  0  0  0  0  0  0  0  0  0
   62.3580   32.0630   51.4990 O   0  0  0  0  0  0  0  0  0  0  0  0
   61.1190   30.3130   50.5940 N   0  0  0  0  0  0  0  0  0  0  0  0
   60.6930   29.5740   49.4460 C   0  0  0  0  0  0  0  0  0  0  0  0
   59.9490   28.5720   49.6080 O   0  0  0  0  0  0  0  0  0  0  0  0
   58.7750   27.7720   46.8190 C   0  0  0  0  0  0  0  0  0  0  0  0
   57.4700   27.5670   46.3630 C   0  0  0  0  0  0  0  0  0  0  0  0
   56.6650   26.0430   46.7090 Cl  0  0  0  0  0  0  0  0  0  0  0  0
   56.8130   28.5710   45.6380 C   0  0  0  0  0  0  0  0  0  0  0  0
   55.5230   28.3470   45.1720 O   0  0  0  0  0  0  0  0  0  0  0  0
   58.9082   32.7409   50.3994 H   0  0  0  0  0  0  0  0  0  0  0  0
   60.2779   32.6290   49.2425 H   0  0  0  0  0  0  0  0  0  0  0  0
   59.2184   34.0796   49.2425 H   0  0  0  0  0  0  0  0  0  0  0  0
   60.2735   34.1402   47.9310 H   0  0  0  0  0  0  0  0  0  0  0  0
   60.8702   35.7831   46.1491 H   0  0  0  0  0  0  0  0  0  0  0  0
   59.4893   35.9348   44.0798 H   0  0  0  0  0  0  0  0  0  0  0  0
   57.5256   34.4318   43.7729 H   0  0  0  0  0  0  0  0  0  0  0  0
   59.2895   30.9373   45.6345 H   0  0  0  0  0  0  0  0  0  0  0  0
   61.6469   28.7322   46.4769 H   0  0  0  0  0  0  0  0  0  0  0  0
   59.2752   26.9936   47.4139 H   0  0  0  0  0  0  0  0  0  0  0  0
  1  2  1  0
  2  3  1  0
  3  4  2  0
  4  5  1  0
  5  6  2  0
  6  7  1  0
  7  8  2  0
  8  9  1  0
  9 10  1  0
 10 11  2  0
 10 12  2  0
 10 13  1  0
 13 14  2  0
 14 15  1  0
 15 16  1  0
 16 17  2  3
 17 18  1  0
 18 19  2  0
 18 20  1  0
 20 21  1  0
 21 22  2  0
 21 23  1  0
 23 24  1  0
 24 25  2  0
 15 26  2  0
 26 27  1  0
 27 28  1  0
 27 29  2  0
 29 30  1  0
  8  3  1  0
 29 13  1  0
 24 17  1  0
  1 31  1  0
  1 32  1  0
  1 33  1  0
  4 34  1  0
  5 35  1  0
  6 36  1  0
  7 37  1  0
 14 38  1  0
 16 39  1  0
 26 40  1  0
M  CHG  4   9  -1  20  -1  23  -1  30  -1
M  END
>  <UniqueID>  (83) 
80

>  <SMILES>  (83) 
CSc1ccccc1[N-]S(=O)(=O)c1cc(C=C2C(=O)[N-]C(=O)[N-]C2=O)cc(Cl)c1[O-]

>  <Energy>  (83) 
51.11673317075819

>  <Genealogy>  (83) 
CSc1ccccc1[N-]S(=O)(=O)c1cc(C=C2C(=O)[N-]C(=O)[N-]C2=O)cc(Cl)c1[O-] (protonated)
CSc1ccccc1[N-]S(=O)(=O)c1cc(C=C2C(=O)[N-]C(=O)[N-]C2=O)cc(Cl)c1[O-] (3D coordinates assigned)
CSc1ccccc1[N-]S(=O)(=O)c1cc(C=C2C(=O)[N-]C(=O)[N-]C2=O)cc(Cl)c1[O-] (nonaromatic ring conformer: 51.11673317075819 kcal/mol)

>  <smiles>  (83) 
CSc1ccccc1NS(=O)(=O)c1cc(C=C2C(=O)NC(=O)NC2=O)cc(Cl)c1O

>  <score_type>  (83) 
oracle

>  <origin>  (83) 
adg

>  <m_score__min__energy>  (83) 
-16.16

>  <m_primary>  (83) 
energy

$$$$
83:0
     RDKit          3D

 44 47  0  0  0  0  0  0  0  0999 V2000
   58.8500   28.2820   47.0270 C   0  0  0  0  0  0  0  0  0  0  0  0
   58.5230   28.8100   45.8380 C   0  0  0  0  0  0  0  0  0  0  0  0
   57.8250   28.1880   44.7890 C   0  0  0  0  0  0  0  0  0  0  0  0
   57.4650   26.9030   44.6040 C   0  0  0  0  0  0  0  0  0  0  0  0
   57.0830   25.9560   45.6640 C   0  0  0  0  0  0  0  0  0  0  0  0
   57.8410   24.9250   46.0780 N   0  0  0  0  0  0  0  0  0  0  0  0
   57.0280   24.2640   46.9320 C   0  0  0  0  0  0  0  0  0  0  0  0
   57.3920   23.2290   47.5500 O   0  0  0  0  0  0  0  0  0  0  0  0
   55.7930   24.7930   47.0610 N   0  0  0  0  0  0  0  0  0  0  0  0
   55.8410   25.8540   46.2400 C   0  0  0  0  0  0  0  0  0  0  0  0
   54.7680   26.7070   46.0150 O   0  0  0  0  0  0  0  0  0  0  0  0
   57.5680   29.1790   43.8550 C   0  0  0  0  0  0  0  0  0  0  0  0
   58.1470   30.3370   44.3260 C   0  0  0  0  0  0  0  0  0  0  0  0
   58.2300   31.6220   43.5590 C   0  0  0  0  0  0  0  0  0  0  0  0
   58.7280   30.1140   45.5250 N   0  0  0  0  0  0  0  0  0  0  0  0
   59.4390   31.0940   46.2990 C   0  0  0  0  0  0  0  0  0  0  0  0
   60.7750   30.8280   46.6620 C   0  0  0  0  0  0  0  0  0  0  0  0
   61.4770   31.7810   47.3950 C   0  0  0  0  0  0  0  0  0  0  0  0
   60.8820   32.9670   47.7580 C   0  0  0  0  0  0  0  0  0  0  0  0
   59.5680   33.2710   47.4170 C   0  0  0  0  0  0  0  0  0  0  0  0
   58.8240   32.3230   46.6820 C   0  0  0  0  0  0  0  0  0  0  0  0
   57.4130   32.6690   46.2700 C   0  0  0  0  0  0  0  0  0  0  0  0
   57.3570   34.0380   45.6000 C   0  0  0  0  0  0  0  0  0  0  0  0
   61.8640   33.7310   48.4840 C   0  0  0  0  0  0  0  0  0  0  0  0
   61.6940   34.8780   48.9760 O   0  0  0  0  0  0  0  0  0  0  0  0
   63.0790   32.9990   48.5670 N   0  0  0  0  0  0  0  0  0  0  0  0
   62.8970   31.7190   47.8790 C   0  0  0  0  0  0  0  0  0  0  0  0
   59.4023   28.8845   47.7632 H   0  0  0  0  0  0  0  0  0  0  0  0
   58.5658   27.2465   47.2658 H   0  0  0  0  0  0  0  0  0  0  0  0
   57.4557   26.5286   43.5697 H   0  0  0  0  0  0  0  0  0  0  0  0
   57.0078   29.0630   42.9155 H   0  0  0  0  0  0  0  0  0  0  0  0
   58.2845   32.4660   44.2624 H   0  0  0  0  0  0  0  0  0  0  0  0
   59.1295   31.6137   42.9259 H   0  0  0  0  0  0  0  0  0  0  0  0
   57.3369   31.7294   42.9259 H   0  0  0  0  0  0  0  0  0  0  0  0
   61.2553   29.8823   46.3706 H   0  0  0  0  0  0  0  0  0  0  0  0
   59.1183   34.2300   47.7139 H   0  0  0  0  0  0  0  0  0  0  0  0
   57.0480   31.9083   45.5642 H   0  0  0  0  0  0  0  0  0  0  0  0
   56.7822   32.6947   47.1708 H   0  0  0  0  0  0  0  0  0  0  0  0
   57.3249   34.8223   46.3706 H   0  0  0  0  0  0  0  0  0  0  0  0
   58.2502   34.1762   44.9731 H   0  0  0  0  0  0  0  0  0  0  0  0
   56.4555   34.1028   44.9731 H   0  0  0  0  0  0  0  0  0  0  0  0
   63.9540   33.3210   49.0380 H   0  0  0  0  0  0  0  0  0  0  0  0
   63.5963   31.6230   47.0353 H   0  0  0  0  0  0  0  0  0  0  0  0
   63.0915   30.8521   48.5276 H   0  0  0  0  0  0  0  0  0  0  0  0
  1  2  2  0
  2  3  1  0
  3  4  2  3
  4  5  1  0
  5  6  1  0
  6  7  1  0
  7  8  2  0
  7  9  1  0
  9 10  1  0
 10 11  1  0
  3 12  1  0
 12 13  2  0
 13 14  1  0
 13 15  1  0
 15 16  1  0
 16 17  2  0
 17 18  1  0
 18 19  2  0
 19 20  1  0
 20 21  2  0
 21 22  1  0
 22 23  1  0
 19 24  1  0
 24 25  2  0
 24 26  1  0
 26 27  1  0
 15  2  1  0
 21 16  1  0
 10  5  2  0
 27 18  1  0
  1 28  1  0
  1 29  1  0
  4 30  1  0
 12 31  1  0
 14 32  1  0
 14 33  1  0
 14 34  1  0
 17 35  1  0
 20 36  1  0
 22 37  1  0
 22 38  1  0
 23 39  1  0
 23 40  1  0
 23 41  1  0
 26 42  1  0
 27 43  1  0
 27 44  1  0
M  CHG  3   6  -1   9  -1  11  -1
M  END
>  <UniqueID>  (84) 
81

>  <SMILES>  (84) 
C=c1c(=Cc2[n-]c(=O)[n-]c2[O-])cc(C)n1-c1cc2c(cc1CC)C(=O)NC2

>  <Energy>  (84) 
140.7621267045173

>  <Genealogy>  (84) 
C=c1c(=Cc2[n-]c(=O)[n-]c2[O-])cc(C)n1-c1cc2c(cc1CC)C(=O)NC2 (protonated)
C=c1c(=Cc2[n-]c(=O)[n-]c2[O-])cc(C)n1-c1cc2c(cc1CC)C(=O)NC2 (3D coordinates assigned)
C=c1c(=Cc2[n-]c(=O)[n-]c2[O-])cc(C)n1-c1cc2c(cc1CC)C(=O)NC2 (nonaromatic ring conformer: 140.7621267045173 kcal/mol)

>  <smiles>  (84) 
C=c1c(=Cc2[nH]c(=O)[nH]c2O)cc(C)n1-c1cc2c(cc1CC)C(=O)NC2

>  <score_type>  (84) 
oracle

>  <origin>  (84) 
adg

>  <m_score__min__energy>  (84) 
-15.859999999999999

>  <m_primary>  (84) 
energy

$$$$
84:0
     RDKit          3D

 35 37  0  0  0  0  0  0  0  0999 V2000
   57.2690   29.6490   51.7460 O   0  0  0  0  0  0  0  0  0  0  0  0
   56.9270   30.8560   51.6230 C   0  0  0  0  0  0  0  0  0  0  0  0
   55.5760   31.2460   51.9280 N   0  0  0  0  0  0  0  0  0  0  0  0
   54.5990   30.3090   52.4760 C   0  0  0  0  0  0  0  0  0  0  0  0
   53.2170   30.9010   52.4150 C   0  0  0  0  0  0  0  0  0  0  0  0
   52.3870   30.8630   53.5470 C   0  0  0  0  0  0  0  0  0  0  0  0
   51.1100   31.4290   53.5030 C   0  0  0  0  0  0  0  0  0  0  0  0
   50.6540   32.0410   52.3320 C   0  0  0  0  0  0  0  0  0  0  0  0
   51.4760   32.0880   51.2020 C   0  0  0  0  0  0  0  0  0  0  0  0
   51.0240   32.6990   50.0390 O   0  0  0  0  0  0  0  0  0  0  0  0
   52.7560   31.5220   51.2420 C   0  0  0  0  0  0  0  0  0  0  0  0
   57.9220   31.8460   51.1450 C   0  0  0  0  0  0  0  0  0  0  0  0
   58.7910   32.4630   52.0620 C   0  0  0  0  0  0  0  0  0  0  0  0
   59.7300   33.3990   51.6280 C   0  0  0  0  0  0  0  0  0  0  0  0
   59.8120   33.7380   50.2760 C   0  0  0  0  0  0  0  0  0  0  0  0
   58.9460   33.1460   49.3420 C   0  0  0  0  0  0  0  0  0  0  0  0
   59.0240   33.5160   47.9100 C   0  0  0  0  0  0  0  0  0  0  0  0
   58.2400   32.9650   46.9580 N   0  0  0  0  0  0  0  0  0  0  0  0
   58.6280   33.5710   45.8240 C   0  0  0  0  0  0  0  0  0  0  0  0
   59.6280   34.4680   46.1100 C   0  0  0  0  0  0  0  0  0  0  0  0
   59.8850   34.4410   47.4290 N   0  0  0  0  0  0  0  0  0  0  0  0
   57.9990   32.2040   49.7860 C   0  0  0  0  0  0  0  0  0  0  0  0
   55.2460   32.2080   51.6950 H   0  0  0  0  0  0  0  0  0  0  0  0
   54.6212   29.3779   51.8907 H   0  0  0  0  0  0  0  0  0  0  0  0
   54.8530   30.1002   53.5257 H   0  0  0  0  0  0  0  0  0  0  0  0
   52.7433   30.3859   54.4719 H   0  0  0  0  0  0  0  0  0  0  0  0
   50.4625   31.3928   54.3915 H   0  0  0  0  0  0  0  0  0  0  0  0
   49.6484   32.4857   52.2995 H   0  0  0  0  0  0  0  0  0  0  0  0
   53.4023   31.5636   50.3529 H   0  0  0  0  0  0  0  0  0  0  0  0
   58.7300   32.2057   53.1298 H   0  0  0  0  0  0  0  0  0  0  0  0
   60.4083   33.8717   52.3536 H   0  0  0  0  0  0  0  0  0  0  0  0
   60.5588   34.4726   49.9405 H   0  0  0  0  0  0  0  0  0  0  0  0
   58.2109   33.3793   44.8244 H   0  0  0  0  0  0  0  0  0  0  0  0
   60.1383   35.1079   45.3751 H   0  0  0  0  0  0  0  0  0  0  0  0
   57.3111   31.7422   49.0624 H   0  0  0  0  0  0  0  0  0  0  0  0
  1  2  2  0
  2  3  1  0
  3  4  1  0
  4  5  1  0
  5  6  2  0
  6  7  1  0
  7  8  2  0
  8  9  1  0
  9 10  1  0
  9 11  2  0
  2 12  1  0
 12 13  2  0
 13 14  1  0
 14 15  2  0
 15 16  1  0
 16 17  1  0
 17 18  2  0
 18 19  1  0
 19 20  2  0
 20 21  1  0
 16 22  2  0
 11  5  1  0
 22 12  1  0
 21 17  1  0
  3 23  1  0
  4 24  1  0
  4 25  1  0
  6 26  1  0
  7 27  1  0
  8 28  1  0
 11 29  1  0
 13 30  1  0
 14 31  1  0
 15 32  1  0
 19 33  1  0
 20 34  1  0
 22 35  1  0
M  CHG  2  10  -1  21  -1
M  END
>  <UniqueID>  (85) 
82

>  <SMILES>  (85) 
O=C(NCc1cccc([O-])c1)c1cccc(-c2ncc[n-]2)c1

>  <Energy>  (85) 
65.82124278116571

>  <Genealogy>  (85) 
O=C(NCc1cccc([O-])c1)c1cccc(-c2ncc[n-]2)c1 (protonated)
O=C(NCc1cccc([O-])c1)c1cccc(-c2ncc[n-]2)c1 (3D coordinates assigned)
O=C(NCc1cccc([O-])c1)c1cccc(-c2ncc[n-]2)c1 (optimized conformer: 65.82124278116571 kcal/mol)

>  <smiles>  (85) 
O=C(NCc1cccc(O)c1)c1cccc(-c2ncc[nH]2)c1

>  <score_type>  (85) 
oracle

>  <origin>  (85) 
adg

>  <m_score__min__energy>  (85) 
-12.710000000000001

>  <m_primary>  (85) 
energy

$$$$
85:0
     RDKit          3D

 64 68  0  0  0  0  0  0  0  0999 V2000
   55.1450   27.7310   45.9800 H   0  0  0  0  0  0  0  0  0  0  0  0
   55.2590   26.6970   46.0450 N   0  0  0  0  0  0  0  0  0  0  0  0
   56.3840   26.0690   45.8910 C   0  0  0  0  0  0  0  0  0  0  0  0
   56.3480   24.7640   45.5060 N   0  0  0  0  0  0  0  0  0  0  0  0
   57.4710   24.0140   45.3730 C   0  0  0  0  0  0  0  0  0  0  0  0
   57.3964   22.9653   45.0493 H   0  0  0  0  0  0  0  0  0  0  0  0
   58.7180   24.5710   45.6460 C   0  0  0  0  0  0  0  0  0  0  0  0
   59.6301   23.9633   45.5524 H   0  0  0  0  0  0  0  0  0  0  0  0
   58.7990   25.9060   46.0390 C   0  0  0  0  0  0  0  0  0  0  0  0
   59.7794   26.3514   46.2634 H   0  0  0  0  0  0  0  0  0  0  0  0
   57.6370   26.6850   46.1500 C   0  0  0  0  0  0  0  0  0  0  0  0
   57.7780   28.1130   46.5190 C   0  0  0  0  0  0  0  0  0  0  0  0
   58.2200   28.3980   47.6650 O   0  0  0  0  0  0  0  0  0  0  0  0
   57.4950   29.2030   45.5460 C   0  0  0  0  0  0  0  0  0  0  0  0
   56.5600   28.9790   44.5220 C   0  0  0  0  0  0  0  0  0  0  0  0
   56.0249   28.0191   44.4741 H   0  0  0  0  0  0  0  0  0  0  0  0
   56.3030   29.9600   43.5660 C   0  0  0  0  0  0  0  0  0  0  0  0
   55.5738   29.7673   42.7653 H   0  0  0  0  0  0  0  0  0  0  0  0
   56.9660   31.1830   43.6210 C   0  0  0  0  0  0  0  0  0  0  0  0
   56.7544   31.9526   42.8640 H   0  0  0  0  0  0  0  0  0  0  0  0
   57.9010   31.4420   44.6330 C   0  0  0  0  0  0  0  0  0  0  0  0
   58.5190   32.7860   44.7120 C   0  0  0  0  0  0  0  0  0  0  0  0
   58.5460   33.5030   43.6740 O   0  0  0  0  0  0  0  0  0  0  0  0
   59.1190   33.3030   45.9670 C   0  0  0  0  0  0  0  0  0  0  0  0
   60.4490   33.7650   45.9760 C   0  0  0  0  0  0  0  0  0  0  0  0
   61.0436   33.7363   45.0510 H   0  0  0  0  0  0  0  0  0  0  0  0
   61.0190   34.2600   47.1530 C   0  0  0  0  0  0  0  0  0  0  0  0
   62.0616   34.6107   47.1528 H   0  0  0  0  0  0  0  0  0  0  0  0
   60.2670   34.3100   48.3290 C   0  0  0  0  0  0  0  0  0  0  0  0
   60.7182   34.6975   49.2543 H   0  0  0  0  0  0  0  0  0  0  0  0
   58.9420   33.8680   48.3300 C   0  0  0  0  0  0  0  0  0  0  0  0
   58.3500   33.9108   49.2561 H   0  0  0  0  0  0  0  0  0  0  0  0
   58.3660   33.3710   47.1560 C   0  0  0  0  0  0  0  0  0  0  0  0
   57.3197   33.0315   47.1611 H   0  0  0  0  0  0  0  0  0  0  0  0
   58.1780   30.4440   45.6010 C   0  0  0  0  0  0  0  0  0  0  0  0
   59.1220   30.7000   46.6550 N   0  0  0  0  0  0  0  0  0  0  0  0
   58.7520   30.9630   47.5950 H   0  0  0  0  0  0  0  0  0  0  0  0
   60.5160   30.3860   46.5200 C   0  0  0  0  0  0  0  0  0  0  0  0
   60.9080   29.6880   45.5440 O   0  0  0  0  0  0  0  0  0  0  0  0
   61.5010   30.8330   47.5330 C   0  0  0  0  0  0  0  0  0  0  0  0
   62.6410   31.5440   47.1240 C   0  0  0  0  0  0  0  0  0  0  0  0
   62.7923   31.7637   46.0568 H   0  0  0  0  0  0  0  0  0  0  0  0
   63.5850   31.9750   48.0600 C   0  0  0  0  0  0  0  0  0  0  0  0
   64.4833   32.5135   47.7237 H   0  0  0  0  0  0  0  0  0  0  0  0
   63.3920   31.7240   49.4260 C   0  0  0  0  0  0  0  0  0  0  0  0
   64.4020   32.1690   50.4070 C   0  0  0  0  0  0  0  0  0  0  0  0
   65.6220   32.0730   50.1060 O   0  0  0  0  0  0  0  0  0  0  0  0
   64.0250   32.7200   51.6820 N   0  0  0  0  0  0  0  0  0  0  0  0
   64.9760   32.9030   52.7660 C   0  0  0  0  0  0  0  0  0  0  0  0
   65.2003   31.9386   53.2451 H   0  0  0  0  0  0  0  0  0  0  0  0
   65.9290   33.3145   52.4021 H   0  0  0  0  0  0  0  0  0  0  0  0
   64.3030   33.8430   53.7570 C   0  0  0  0  0  0  0  0  0  0  0  0
   64.4281   33.4689   54.7838 H   0  0  0  0  0  0  0  0  0  0  0  0
   64.7444   34.8499   53.7203 H   0  0  0  0  0  0  0  0  0  0  0  0
   62.8250   33.8670   53.3780 C   0  0  0  0  0  0  0  0  0  0  0  0
   62.2500   33.2033   54.0405 H   0  0  0  0  0  0  0  0  0  0  0  0
   62.4002   34.8767   53.4783 H   0  0  0  0  0  0  0  0  0  0  0  0
   62.7510   33.3720   51.9400 C   0  0  0  0  0  0  0  0  0  0  0  0
   61.9235   32.6568   51.8227 H   0  0  0  0  0  0  0  0  0  0  0  0
   62.5672   34.1968   51.2358 H   0  0  0  0  0  0  0  0  0  0  0  0
   62.2570   31.0110   49.8390 C   0  0  0  0  0  0  0  0  0  0  0  0
   62.1083   30.7938   50.9070 H   0  0  0  0  0  0  0  0  0  0  0  0
   61.3130   30.5740   48.9050 C   0  0  0  0  0  0  0  0  0  0  0  0
   60.2040   29.9340   49.3530 F   0  0  0  0  0  0  0  0  0  0  0  0
  1  2  1  0
  2  3  2  0
  3  4  1  0
  4  5  1  0
  5  6  1  0
  5  7  2  0
  7  8  1  0
  7  9  1  0
  9 10  1  0
  9 11  2  0
 11 12  1  0
 12 13  2  0
 12 14  1  0
 14 15  2  0
 15 16  1  0
 15 17  1  0
 17 18  1  0
 17 19  2  0
 19 20  1  0
 19 21  1  0
 21 22  1  0
 22 23  2  0
 22 24  1  0
 24 25  2  0
 25 26  1  0
 25 27  1  0
 27 28  1  0
 27 29  2  0
 29 30  1  0
 29 31  1  0
 31 32  1  0
 31 33  2  0
 33 34  1  0
 21 35  2  0
 35 36  1  0
 36 37  1  0
 36 38  1  0
 38 39  2  0
 38 40  1  0
 40 41  2  0
 41 42  1  0
 41 43  1  0
 43 44  1  0
 43 45  2  0
 45 46  1  0
 46 47  2  0
 46 48  1  0
 48 49  1  0
 49 50  1  0
 49 51  1  0
 49 52  1  0
 52 53  1  0
 52 54  1  0
 52 55  1  0
 55 56  1  0
 55 57  1  0
 55 58  1  0
 58 59  1  0
 58 60  1  0
 45 61  1  0
 61 62  1  0
 61 63  2  0
 63 64  1  0
 11  3  1  0
 35 14  1  0
 63 40  1  0
 33 24  1  0
 58 48  1  0
M  CHG  1   4  -1
M  END
>  <UniqueID>  (86) 
83

>  <SMILES>  (86) 
[H]/N=c1/[n-]cccc1C(=O)c1cccc(C(=O)c2ccccc2)c1NC(=O)c1ccc(C(=O)N2CCCC2)cc1F

>  <Energy>  (86) 
102.98686956569972

>  <Genealogy>  (86) 
N=c1[n-]cccc1C(=O)c1cccc(C(=O)c2ccccc2)c1NC(=O)c1ccc(C(=O)N2CCCC2)cc1F (protonated)
[H]/N=c1/[n-]cccc1C(=O)c1cccc(C(=O)c2ccccc2)c1NC(=O)c1ccc(C(=O)N2CCCC2)cc1F (cis-trans isomerization)
[H]/N=c1/[n-]cccc1C(=O)c1cccc(C(=O)c2ccccc2)c1NC(=O)c1ccc(C(=O)N2CCCC2)cc1F (3D coordinates assigned)
[H]/N=c1/[n-]cccc1C(=O)c1cccc(C(=O)c2ccccc2)c1NC(=O)c1ccc(C(=O)N2CCCC2)cc1F (nonaromatic ring conformer: 102.98686956569972 kcal/mol)

>  <smiles>  (86) 
N=c1[nH]cccc1C(=O)c1cccc(C(=O)c2ccccc2)c1NC(=O)c1ccc(C(=O)N2CCCC2)cc1F

>  <score_type>  (86) 
oracle

>  <origin>  (86) 
adg

>  <m_score__min__energy>  (86) 
-12.09

>  <m_primary>  (86) 
energy

$$$$
86:0
     RDKit          3D

 72 78  0  0  0  0  0  0  0  0999 V2000
   60.7370   27.3060   49.7970 H   0  0  0  0  0  0  0  0  0  0  0  0
   60.6770   27.2140   48.7900 O   0  0  0  0  0  0  0  0  0  0  0  0
   60.6170   28.3350   47.9660 C   0  0  0  0  0  0  0  0  0  0  0  0
   59.9500   28.2810   46.7300 C   0  0  0  0  0  0  0  0  0  0  0  0
   59.6925   27.3179   46.2651 H   0  0  0  0  0  0  0  0  0  0  0  0
   59.6220   29.5010   46.1060 C   0  0  0  0  0  0  0  0  0  0  0  0
   59.0154   29.5227   45.1886 H   0  0  0  0  0  0  0  0  0  0  0  0
   60.0950   30.6950   46.6930 C   0  0  0  0  0  0  0  0  0  0  0  0
   61.2790   30.5950   47.4220 C   0  0  0  0  0  0  0  0  0  0  0  0
   61.1030   29.5840   48.3820 C   0  0  0  0  0  0  0  0  0  0  0  0
   61.0020   29.9880   49.7160 O   0  0  0  0  0  0  0  0  0  0  0  0
   61.3600   31.3250   50.1000 C   0  0  1  0  0  0  0  0  0  0  0  0
   60.8262   31.5529   51.0344 H   0  0  0  0  0  0  0  0  0  0  0  0
   62.8960   31.3330   50.1050 C   0  0  0  0  0  0  0  0  0  0  0  0
   63.2794   32.1379   50.7493 H   0  0  0  0  0  0  0  0  0  0  0  0
   63.3200   30.3970   50.4975 H   0  0  0  0  0  0  0  0  0  0  0  0
   63.2800   31.5820   48.6330 C   0  0  0  0  0  0  0  0  0  0  0  0
   63.9714   32.4339   48.5549 H   0  0  0  0  0  0  0  0  0  0  0  0
   63.7907   30.7132   48.1920 H   0  0  0  0  0  0  0  0  0  0  0  0
   61.9430   31.8980   47.9020 C   0  0  1  0  0  0  0  0  0  0  0  0
   62.1180   32.9490   46.7600 C   0  0  0  0  0  0  0  0  0  0  0  0
   62.8084   33.7290   47.1135 H   0  0  0  0  0  0  0  0  0  0  0  0
   62.5000   32.4013   45.8859 H   0  0  0  0  0  0  0  0  0  0  0  0
   60.7980   33.6360   46.3100 C   0  0  0  0  0  0  0  0  0  0  0  0
   61.0446   34.5934   45.8278 H   0  0  0  0  0  0  0  0  0  0  0  0
   60.2854   32.9549   45.6147 H   0  0  0  0  0  0  0  0  0  0  0  0
   59.8810   33.8970   47.4460 N   0  0  0  0  0  0  0  0  0  0  0  0
   58.6680   34.6450   47.0530 C   0  0  0  0  0  0  0  0  0  0  0  0
   57.7948   34.2149   47.5654 H   0  0  0  0  0  0  0  0  0  0  0  0
   58.7911   35.7003   47.3381 H   0  0  0  0  0  0  0  0  0  0  0  0
   58.4560   34.5600   45.5320 C   0  0  0  0  0  0  0  0  0  0  0  0
   59.3202   35.1899   45.2741 H   0  0  0  0  0  0  0  0  0  0  0  0
   57.0100   34.4820   45.0620 C   0  0  0  0  0  0  0  0  0  0  0  0
   56.1898   34.5610   45.7907 H   0  0  0  0  0  0  0  0  0  0  0  0
   56.4031   35.0220   44.3203 H   0  0  0  0  0  0  0  0  0  0  0  0
   57.8870   33.2380   45.0350 C   0  0  0  0  0  0  0  0  0  0  0  0
   57.7006   32.4181   45.7443 H   0  0  0  0  0  0  0  0  0  0  0  0
   58.1763   32.5068   44.2658 H   0  0  0  0  0  0  0  0  0  0  0  0
   59.6480   32.6950   48.2930 C   0  0  1  0  0  0  0  0  0  0  0  0
   58.8830   32.8274   49.0722 H   0  0  0  0  0  0  0  0  0  0  0  0
   59.0540   31.5200   47.4290 C   0  0  0  0  0  0  0  0  0  0  0  0
   58.4939   30.8500   48.0979 H   0  0  0  0  0  0  0  0  0  0  0  0
   58.4202   31.9851   46.6596 H   0  0  0  0  0  0  0  0  0  0  0  0
   61.0370   32.4180   49.0080 C   0  0  1  0  0  0  0  0  0  0  0  0
   61.5540   33.7110   49.5040 N   0  0  0  0  0  0  0  0  0  0  0  0
   62.0940   34.0230   50.7970 C   0  0  0  0  0  0  0  0  0  0  0  0
   63.2670   34.4820   50.8530 O   0  0  0  0  0  0  0  0  0  0  0  0
   61.3230   33.8340   52.0470 C   0  0  0  0  0  0  0  0  0  0  0  0
   61.8656   33.6819   52.9917 H   0  0  0  0  0  0  0  0  0  0  0  0
   59.9830   33.8430   52.0600 C   0  0  0  0  0  0  0  0  0  0  0  0
   59.4720   34.8168   52.0824 H   0  0  0  0  0  0  0  0  0  0  0  0
   59.1480   32.6160   52.0460 C   0  0  0  0  0  0  0  0  0  0  0  0
   57.8180   32.7170   51.6170 C   0  0  0  0  0  0  0  0  0  0  0  0
   57.4234   33.6912   51.2925 H   0  0  0  0  0  0  0  0  0  0  0  0
   56.9880   31.5940   51.5970 C   0  0  0  0  0  0  0  0  0  0  0  0
   55.9474   31.6908   51.2540 H   0  0  0  0  0  0  0  0  0  0  0  0
   57.4720   30.3400   52.0120 C   0  0  0  0  0  0  0  0  0  0  0  0
   56.6470   29.2060   52.0540 O   0  0  0  0  0  0  0  0  0  0  0  0
   55.9180   28.7760   53.1990 C   0  0  0  0  0  0  0  0  0  0  0  0
   56.4486   29.0890   54.1103 H   0  0  0  0  0  0  0  0  0  0  0  0
   54.9148   29.2270   53.1856 H   0  0  0  0  0  0  0  0  0  0  0  0
   55.8274   27.6798   53.1856 H   0  0  0  0  0  0  0  0  0  0  0  0
   58.8140   30.2270   52.4290 C   0  0  0  0  0  0  0  0  0  0  0  0
   59.3530   29.0030   52.8500 O   0  0  0  0  0  0  0  0  0  0  0  0
   60.5070   28.4260   52.3070 C   0  0  0  0  0  0  0  0  0  0  0  0
   60.4270   27.5300   51.4220 O   0  0  0  0  0  0  0  0  0  0  0  0
   61.8480   28.8990   52.7540 C   0  0  0  0  0  0  0  0  0  0  0  0
   61.8846   28.9119   53.8533 H   0  0  0  0  0  0  0  0  0  0  0  0
   62.6233   28.2201   52.3693 H   0  0  0  0  0  0  0  0  0  0  0  0
   62.0258   29.9141   52.3693 H   0  0  0  0  0  0  0  0  0  0  0  0
   59.6320   31.3630   52.4710 C   0  0  0  0  0  0  0  0  0  0  0  0
   60.6645   31.2759   52.8402 H   0  0  0  0  0  0  0  0  0  0  0  0
  1  2  1  0
  2  3  1  0
  3  4  2  0
  4  5  1  0
  4  6  1  0
  6  7  1  0
  6  8  2  0
  8  9  1  0
  9 10  2  0
 10 11  1  0
 11 12  1  0
 12 13  1  1
 12 14  1  0
 14 15  1  0
 14 16  1  0
 14 17  1  0
 17 18  1  0
 17 19  1  0
 20 17  1  1
 20 21  1  0
 21 22  1  0
 21 23  1  0
 21 24  1  0
 24 25  1  0
 24 26  1  0
 24 27  1  0
 27 28  1  0
 28 29  1  0
 28 30  1  0
 28 31  1  0
 31 32  1  0
 31 33  1  0
 33 34  1  0
 33 35  1  0
 33 36  1  0
 36 37  1  0
 36 38  1  0
 27 39  1  0
 39 40  1  1
 39 41  1  0
 41 42  1  0
 41 43  1  0
 39 44  1  0
 44 45  1  1
 45 46  1  0
 46 47  2  0
 46 48  1  0
 48 49  1  0
 48 50  2  0
 50 51  1  0
 50 52  1  0
 52 53  2  0
 53 54  1  0
 53 55  1  0
 55 56  1  0
 55 57  2  0
 57 58  1  0
 58 59  1  0
 59 60  1  0
 59 61  1  0
 59 62  1  0
 57 63  1  0
 63 64  1  0
 64 65  1  0
 65 66  2  0
 65 67  1  0
 67 68  1  0
 67 69  1  0
 67 70  1  0
 63 71  2  0
 71 72  1  0
 10  3  1  0
 44 12  1  0
 71 52  1  0
 41  8  1  0
 20  9  1  0
 36 31  1  0
 44 20  1  0
M  CHG  1  45  -1
M  END
>  <UniqueID>  (87) 
84

>  <SMILES>  (87) 
COc1ccc(/C=C/C(=O)[N-][C@@]23C4Cc5ccc(O)c6c5C2(CC[C@@H]3O6)CCN4CC2CC2)cc1OC(C)=O

>  <Energy>  (87) 
466.73512373058566

>  <Genealogy>  (87) 
COc1ccc(C=CC(=O)[N-]C23C4CCC25CCN(CC2CC2)C3Cc2ccc(O)c(c25)O4)cc1OC(C)=O (protonated)
COc1ccc(C=CC(=O)[N-][C@@]23C4Cc5ccc(O)c6c5C2(CC[C@@H]3O6)CCN4CC2CC2)cc1OC(C)=O (chirality)
COc1ccc(/C=C/C(=O)[N-][C@@]23C4Cc5ccc(O)c6c5C2(CC[C@@H]3O6)CCN4CC2CC2)cc1OC(C)=O (cis-trans isomerization)
COc1ccc(/C=C/C(=O)[N-][C@@]23C4Cc5ccc(O)c6c5C2(CC[C@@H]3O6)CCN4CC2CC2)cc1OC(C)=O (3D coordinates assigned)
COc1ccc(/C=C/C(=O)[N-][C@@]23C4Cc5ccc(O)c6c5C2(CC[C@@H]3O6)CCN4CC2CC2)cc1OC(C)=O (nonaromatic ring conformer: 466.73512373058566 kcal/mol)

>  <smiles>  (87) 
COc1ccc(C=CC(=O)NC23C4CCC25CCN(CC2CC2)C3Cc2ccc(O)c(c25)O4)cc1OC(C)=O

>  <score_type>  (87) 
oracle

>  <origin>  (87) 
adg

>  <m_score__min__energy>  (87) 
-10.19

>  <m_primary>  (87) 
energy

$$$$
87:0
     RDKit          3D

 40 42  0  0  0  0  0  0  0  0999 V2000
   54.4890   23.7130   46.4590 H   0  0  0  0  0  0  0  0  0  0  0  0
   55.4940   23.6820   46.7430 N   0  0  0  0  0  0  0  0  0  0  0  0
   56.2560   24.7250   46.6540 C   0  0  0  0  0  0  0  0  0  0  0  0
   57.5500   24.6580   47.0670 N   0  0  0  0  0  0  0  0  0  0  0  0
   58.3880   25.7260   46.9910 C   0  0  0  0  0  0  0  0  0  0  0  0
   59.4291   25.6299   47.3328 H   0  0  0  0  0  0  0  0  0  0  0  0
   57.9310   26.9520   46.4780 C   0  0  0  0  0  0  0  0  0  0  0  0
   58.8350   28.1250   46.3920 C   0  0  0  0  0  0  0  0  0  0  0  0
   59.8070   28.2090   45.3780 C   0  0  0  0  0  0  0  0  0  0  0  0
   59.9111   27.3900   44.6511 H   0  0  0  0  0  0  0  0  0  0  0  0
   60.6410   29.3270   45.2890 C   0  0  0  0  0  0  0  0  0  0  0  0
   61.3997   29.3826   44.4944 H   0  0  0  0  0  0  0  0  0  0  0  0
   60.5150   30.3740   46.2050 C   0  0  0  0  0  0  0  0  0  0  0  0
   61.1718   31.2530   46.1281 H   0  0  0  0  0  0  0  0  0  0  0  0
   59.5510   30.3060   47.2240 C   0  0  0  0  0  0  0  0  0  0  0  0
   59.3690   31.3350   48.1560 O   0  0  0  0  0  0  0  0  0  0  0  0
   59.8040   32.6790   47.9720 C   0  0  0  0  0  0  0  0  0  0  0  0
   59.5922   33.2593   48.8821 H   0  0  0  0  0  0  0  0  0  0  0  0
   60.8855   32.6867   47.7712 H   0  0  0  0  0  0  0  0  0  0  0  0
   59.0790   33.2930   46.8090 C   0  0  0  0  0  0  0  0  0  0  0  0
   59.5600   34.3230   46.2680 O   0  0  0  0  0  0  0  0  0  0  0  0
   57.8430   32.7610   46.3060 N   0  0  0  0  0  0  0  0  0  0  0  0
   57.6270   32.2140   44.9980 C   0  0  0  0  0  0  0  0  0  0  0  0
   58.0570   32.9360   43.8770 C   0  0  0  0  0  0  0  0  0  0  0  0
   58.5781   33.8954   44.0108 H   0  0  0  0  0  0  0  0  0  0  0  0
   57.8270   32.4430   42.5890 C   0  0  0  0  0  0  0  0  0  0  0  0
   58.1526   33.0225   41.7126 H   0  0  0  0  0  0  0  0  0  0  0  0
   57.1840   31.2150   42.4140 C   0  0  0  0  0  0  0  0  0  0  0  0
   56.9927   30.8339   41.4000 H   0  0  0  0  0  0  0  0  0  0  0  0
   56.7840   30.4710   43.5270 C   0  0  0  0  0  0  0  0  0  0  0  0
   56.2878   29.4991   43.3888 H   0  0  0  0  0  0  0  0  0  0  0  0
   57.0140   30.9610   44.8170 C   0  0  0  0  0  0  0  0  0  0  0  0
   56.7148   30.3650   45.6918 H   0  0  0  0  0  0  0  0  0  0  0  0
   58.7260   29.1790   47.3170 C   0  0  0  0  0  0  0  0  0  0  0  0
   57.9820   29.1168   48.1248 H   0  0  0  0  0  0  0  0  0  0  0  0
   56.5950   27.0380   46.0500 C   0  0  0  0  0  0  0  0  0  0  0  0
   56.2099   27.9859   45.6461 H   0  0  0  0  0  0  0  0  0  0  0  0
   55.7520   25.9240   46.1350 C   0  0  0  0  0  0  0  0  0  0  0  0
   54.4260   26.0040   45.7070 O   0  0  0  0  0  0  0  0  0  0  0  0
   53.6540   25.9490   46.3610 H   0  0  0  0  0  0  0  0  0  0  0  0
  1  2  1  0
  2  3  2  0
  3  4  1  0
  4  5  1  0
  5  6  1  0
  5  7  2  0
  7  8  1  0
  8  9  2  0
  9 10  1  0
  9 11  1  0
 11 12  1  0
 11 13  2  0
 13 14  1  0
 13 15  1  0
 15 16  1  0
 16 17  1  0
 17 18  1  0
 17 19  1  0
 17 20  1  0
 20 21  2  0
 20 22  1  0
 22 23  1  0
 23 24  2  0
 24 25  1  0
 24 26  1  0
 26 27  1  0
 26 28  2  0
 28 29  1  0
 28 30  1  0
 30 31  1  0
 30 32  2  0
 32 33  1  0
 15 34  2  0
 34 35  1  0
  7 36  1  0
 36 37  1  0
 36 38  2  0
 38 39  1  0
 39 40  1  0
 38  3  1  0
 34  8  1  0
 32 23  1  0
M  CHG  2   4  -1  22  -1
M  END
>  <UniqueID>  (88) 
85

>  <SMILES>  (88) 
[H]/N=c1\[n-]cc(-c2cccc(OCC(=O)[N-]c3ccccc3)c2)cc1O

>  <Energy>  (88) 
51.24096835544671

>  <Genealogy>  (88) 
N=c1[n-]cc(-c2cccc(OCC(=O)[N-]c3ccccc3)c2)cc1O (protonated)
[H]/N=c1\[n-]cc(-c2cccc(OCC(=O)[N-]c3ccccc3)c2)cc1O (cis-trans isomerization)
[H]/N=c1\[n-]cc(-c2cccc(OCC(=O)[N-]c3ccccc3)c2)cc1O (3D coordinates assigned)
[H]/N=c1\[n-]cc(-c2cccc(OCC(=O)[N-]c3ccccc3)c2)cc1O (optimized conformer: 51.24096835544671 kcal/mol)

>  <smiles>  (88) 
N=c1[nH]cc(-c2cccc(OCC(=O)Nc3ccccc3)c2)cc1O

>  <score_type>  (88) 
oracle

>  <origin>  (88) 
adg

>  <m_score__min__energy>  (88) 
-11.18

>  <m_primary>  (88) 
energy

$$$$
